
     RDKit          3D

 57 59  0  0  0  0  0  0  0  0999 V2000
  143.6000   75.9890  219.7050 C   0  0  0  0  0  0  0  0  0  0  0  0
  142.4050   75.1780  219.3570 C   0  0  0  0  0  0  0  0  0  0  0  0
  141.0970   75.8050  219.6750 C   0  0  0  0  0  0  0  0  0  0  0  0
  140.2750   75.9820  218.7350 O   0  0  0  0  0  0  0  0  0  0  0  0
  140.7980   76.1940  221.0260 N   0  0  0  0  0  0  0  0  0  0  0  0
  141.1480   77.5150  221.4350 C   0  0  0  0  0  0  0  0  0  0  0  0
  141.1160   77.7540  222.8020 C   0  0  0  0  0  0  0  0  0  0  0  0
  141.4300   78.9830  223.3520 C   0  0  0  0  0  0  0  0  0  0  0  0
  141.7830   79.9810  222.4680 C   0  0  0  0  0  0  0  0  0  0  0  0
  141.8240   79.7690  221.0860 C   0  0  0  0  0  0  0  0  0  0  0  0
  141.5010   78.5140  220.5550 C   0  0  0  0  0  0  0  0  0  0  0  0
  140.1830   75.2370  221.9610 C   0  0  0  0  0  0  0  0  0  0  0  0
  138.7190   75.1810  221.8890 C   0  0  0  0  0  0  0  0  0  0  0  0
  138.0670   73.9080  221.4930 C   0  0  0  0  0  0  0  0  0  0  0  0
  138.8540   72.7400  221.9740 N   0  0  0  0  0  0  0  0  0  0  0  0
  138.1940   71.8900  222.8380 C   0  0  0  0  0  0  0  0  0  0  0  0
  136.9690   72.2860  223.1120 O   0  0  0  0  0  0  0  0  0  0  0  0
  138.5550   70.6510  223.5140 C   0  0  2  0  0  0  0  0  0  0  0  0
  137.4360   69.8900  223.9360 N   0  0  0  0  0  0  0  0  0  0  0  0
  139.5660   70.9620  224.6030 C   0  0  0  0  0  0  0  0  0  0  0  0
  139.8930   69.8640  225.5030 C   0  0  0  0  0  0  0  0  0  0  0  0
  139.5940   68.5280  225.2640 C   0  0  0  0  0  0  0  0  0  0  0  0
  139.9880   67.5130  226.1280 C   0  0  0  0  0  0  0  0  0  0  0  0
  140.7020   67.7700  227.2780 C   0  0  0  0  0  0  0  0  0  0  0  0
  141.0050   69.0980  227.5270 C   0  0  0  0  0  0  0  0  0  0  0  0
  140.6090   70.1180  226.6610 C   0  0  0  0  0  0  0  0  0  0  0  0
  141.0400   71.8950  227.2420 Br  0  0  0  0  0  0  0  0  0  0  0  0
  140.1970   72.7220  221.4650 C   0  0  0  0  0  0  0  0  0  0  0  0
  140.8890   73.9420  221.9640 C   0  0  0  0  0  0  0  0  0  0  0  0
  143.6939   76.0527  220.7991 H   0  0  0  0  0  0  0  0  0  0  0  0
  144.4998   75.5142  219.2868 H   0  0  0  0  0  0  0  0  0  0  0  0
  143.4911   77.0005  219.2868 H   0  0  0  0  0  0  0  0  0  0  0  0
  142.4325   74.9794  218.2754 H   0  0  0  0  0  0  0  0  0  0  0  0
  142.4643   74.2693  219.9740 H   0  0  0  0  0  0  0  0  0  0  0  0
  140.8292   76.9324  223.4749 H   0  0  0  0  0  0  0  0  0  0  0  0
  141.3998   79.1558  224.4379 H   0  0  0  0  0  0  0  0  0  0  0  0
  142.0405   80.9751  222.8622 H   0  0  0  0  0  0  0  0  0  0  0  0
  142.1110   80.5910  220.4138 H   0  0  0  0  0  0  0  0  0  0  0  0
  141.5283   78.3320  219.4705 H   0  0  0  0  0  0  0  0  0  0  0  0
  140.3344   75.6332  222.9759 H   0  0  0  0  0  0  0  0  0  0  0  0
  138.3368   75.4423  222.8868 H   0  0  0  0  0  0  0  0  0  0  0  0
  138.4682   75.8720  221.0707 H   0  0  0  0  0  0  0  0  0  0  0  0
  137.0584   73.8680  221.9301 H   0  0  0  0  0  0  0  0  0  0  0  0
  138.0101   73.8672  220.3952 H   0  0  0  0  0  0  0  0  0  0  0  0
  139.0396   69.9743  222.7948 H   0  0  0  0  0  0  0  0  0  0  0  0
  136.5550   70.3830  224.0670 H   0  0  0  0  0  0  0  0  0  0  0  0
  137.4370   68.9110  223.6670 H   0  0  0  0  0  0  0  0  0  0  0  0
  140.4971   71.2861  224.1152 H   0  0  0  0  0  0  0  0  0  0  0  0
  139.0963   71.7319  225.2327 H   0  0  0  0  0  0  0  0  0  0  0  0
  139.0258   68.2647  224.3597 H   0  0  0  0  0  0  0  0  0  0  0  0
  139.7218   66.4734  225.8864 H   0  0  0  0  0  0  0  0  0  0  0  0
  141.0138   66.9653  227.9601 H   0  0  0  0  0  0  0  0  0  0  0  0
  141.5737   69.3560  228.4326 H   0  0  0  0  0  0  0  0  0  0  0  0
  140.7204   71.8226  221.8217 H   0  0  0  0  0  0  0  0  0  0  0  0
  140.1909   72.7064  220.3651 H   0  0  0  0  0  0  0  0  0  0  0  0
  141.1798   73.7400  223.0055 H   0  0  0  0  0  0  0  0  0  0  0  0
  141.7000   74.0915  221.2361 H   0  0  0  0  0  0  0  0  0  0  0  0
  1  2  1  0
  2  3  1  0
  3  4  2  0
  3  5  1  0
  5  6  1  0
  6  7  2  0
  7  8  1  0
  8  9  2  0
  9 10  1  0
 10 11  2  0
  5 12  1  0
 12 13  1  0
 13 14  1  0
 14 15  1  0
 15 16  1  0
 16 17  2  0
 16 18  1  0
 18 19  1  0
 18 20  1  0
 20 21  1  0
 21 22  2  0
 22 23  1  0
 23 24  2  0
 24 25  1  0
 25 26  2  0
 26 27  1  0
 15 28  1  0
 28 29  1  0
 11  6  1  0
 29 12  1  0
 26 21  1  0
  1 30  1  0
  1 31  1  0
  1 32  1  0
  2 33  1  0
  2 34  1  0
  7 35  1  0
  8 36  1  0
  9 37  1  0
 10 38  1  0
 11 39  1  0
 12 40  1  0
 13 41  1  0
 13 42  1  0
 14 43  1  0
 14 44  1  0
 18 45  1  6
 19 46  1  0
 19 47  1  0
 20 48  1  0
 20 49  1  0
 22 50  1  0
 23 51  1  0
 24 52  1  0
 25 53  1  0
 28 54  1  0
 28 55  1  0
 29 56  1  0
 29 57  1  0
M  END
>  <smiles>  (1) 
CCC(=O)N(c1ccccc1)C1CCN(C(=O)[C@H](N)Cc2ccccc2Br)CC1

>  <score_type>  (1) 
oracle

>  <origin>  (1) 
autodockgpu

>  <m_score__min__energy>  (1) 
-8.3100000000000005

>  <m_primary>  (1) 
energy

>  <rmsd>  (1) 
7.945851217846566

>  <m_score__min__rmsd>  (1) 
7.945851217846566

>  <meeko>  (1) 
{"free_energy": -7.42, "intermolecular_energy": -9.81, "internal_energy": -2.27, "cluster_size": 5, "cluster_id": 4, "rank_in_cluster": 1}

>  <energy>  (1) 
-8.31

>  <cluster_rmsd>  (1) 
0.0

>  <cluster>  (1) 
1

$$$$

     RDKit          3D

 57 59  0  0  0  0  0  0  0  0999 V2000
  144.0060   74.1610  220.4340 C   0  0  0  0  0  0  0  0  0  0  0  0
  143.1400   74.3590  219.2420 C   0  0  0  0  0  0  0  0  0  0  0  0
  141.6810   74.4000  219.5160 C   0  0  0  0  0  0  0  0  0  0  0  0
  140.8990   73.8980  218.6650 O   0  0  0  0  0  0  0  0  0  0  0  0
  141.1960   75.0040  220.7270 N   0  0  0  0  0  0  0  0  0  0  0  0
  141.3340   76.4170  220.8720 C   0  0  0  0  0  0  0  0  0  0  0  0
  141.0580   76.9260  222.1330 C   0  0  0  0  0  0  0  0  0  0  0  0
  141.1470   78.2730  222.4290 C   0  0  0  0  0  0  0  0  0  0  0  0
  141.5290   79.1070  221.3990 C   0  0  0  0  0  0  0  0  0  0  0  0
  141.8130   78.6220  220.1180 C   0  0  0  0  0  0  0  0  0  0  0  0
  141.7150   77.2520  219.8450 C   0  0  0  0  0  0  0  0  0  0  0  0
  140.6110   74.1750  221.7950 C   0  0  0  0  0  0  0  0  0  0  0  0
  139.1790   74.3990  222.0130 C   0  0  0  0  0  0  0  0  0  0  0  0
  138.2340   73.2760  221.7930 C   0  0  0  0  0  0  0  0  0  0  0  0
  138.8670   71.9770  222.1470 N   0  0  0  0  0  0  0  0  0  0  0  0
  138.2450   71.2610  223.1490 C   0  0  0  0  0  0  0  0  0  0  0  0
  137.1960   71.8810  223.6470 O   0  0  0  0  0  0  0  0  0  0  0  0
  138.4940   69.9720  223.7800 C   0  0  2  0  0  0  0  0  0  0  0  0
  137.6050   69.6800  224.8440 N   0  0  0  0  0  0  0  0  0  0  0  0
  139.9670   69.8730  224.1320 C   0  0  0  0  0  0  0  0  0  0  0  0
  140.3560   70.4360  225.4190 C   0  0  0  0  0  0  0  0  0  0  0  0
  140.7330   71.7580  225.6230 C   0  0  0  0  0  0  0  0  0  0  0  0
  141.0310   72.2580  226.8850 C   0  0  0  0  0  0  0  0  0  0  0  0
  140.9720   71.4710  228.0140 C   0  0  0  0  0  0  0  0  0  0  0  0
  140.6000   70.1510  227.8220 C   0  0  0  0  0  0  0  0  0  0  0  0
  140.3010   69.6480  226.5560 C   0  0  0  0  0  0  0  0  0  0  0  0
  139.9070   67.7710  226.4950 Br  0  0  0  0  0  0  0  0  0  0  0  0
  140.0540   71.7070  221.3840 C   0  0  0  0  0  0  0  0  0  0  0  0
  141.0480   72.7690  221.6990 C   0  0  0  0  0  0  0  0  0  0  0  0
  143.4089   74.2975  221.3477 H   0  0  0  0  0  0  0  0  0  0  0  0
  144.4247   73.1439  220.4181 H   0  0  0  0  0  0  0  0  0  0  0  0
  144.8251   74.8950  220.4181 H   0  0  0  0  0  0  0  0  0  0  0  0
  143.4239   75.3114  218.7704 H   0  0  0  0  0  0  0  0  0  0  0  0
  143.3036   73.4819  218.5987 H   0  0  0  0  0  0  0  0  0  0  0  0
  140.7562   76.2294  222.9290 H   0  0  0  0  0  0  0  0  0  0  0  0
  140.9246   78.6601  223.4343 H   0  0  0  0  0  0  0  0  0  0  0  0
  141.6129   80.1869  221.5908 H   0  0  0  0  0  0  0  0  0  0  0  0
  142.1144   79.3192  219.3223 H   0  0  0  0  0  0  0  0  0  0  0  0
  141.9352   76.8556  218.8428 H   0  0  0  0  0  0  0  0  0  0  0  0
  141.0325   74.5276  222.7479 H   0  0  0  0  0  0  0  0  0  0  0  0
  139.0585   74.7219  223.0576 H   0  0  0  0  0  0  0  0  0  0  0  0
  138.9051   75.1302  221.2382 H   0  0  0  0  0  0  0  0  0  0  0  0
  137.3430   73.4260  222.4204 H   0  0  0  0  0  0  0  0  0  0  0  0
  137.9536   73.2538  220.7296 H   0  0  0  0  0  0  0  0  0  0  0  0
  138.2690   69.1700  223.0616 H   0  0  0  0  0  0  0  0  0  0  0  0
  137.0960   70.4590  225.2570 H   0  0  0  0  0  0  0  0  0  0  0  0
  137.1980   68.7490  224.8410 H   0  0  0  0  0  0  0  0  0  0  0  0
  140.2417   68.8078  224.1339 H   0  0  0  0  0  0  0  0  0  0  0  0
  140.4936   70.4725  223.3749 H   0  0  0  0  0  0  0  0  0  0  0  0
  140.7977   72.4317  224.7559 H   0  0  0  0  0  0  0  0  0  0  0  0
  141.3227   73.3139  226.9853 H   0  0  0  0  0  0  0  0  0  0  0  0
  141.2072   71.8688  229.0122 H   0  0  0  0  0  0  0  0  0  0  0  0
  140.5387   69.4807  228.6920 H   0  0  0  0  0  0  0  0  0  0  0  0
  140.4592   70.7218  221.6582 H   0  0  0  0  0  0  0  0  0  0  0  0
  139.8262   71.7006  220.3079 H   0  0  0  0  0  0  0  0  0  0  0  0
  141.4972   72.5078  222.6686 H   0  0  0  0  0  0  0  0  0  0  0  0
  141.7115   72.7667  220.8216 H   0  0  0  0  0  0  0  0  0  0  0  0
  1  2  1  0
  2  3  1  0
  3  4  2  0
  3  5  1  0
  5  6  1  0
  6  7  2  0
  7  8  1  0
  8  9  2  0
  9 10  1  0
 10 11  2  0
  5 12  1  0
 12 13  1  0
 13 14  1  0
 14 15  1  0
 15 16  1  0
 16 17  2  0
 16 18  1  0
 18 19  1  0
 18 20  1  0
 20 21  1  0
 21 22  2  0
 22 23  1  0
 23 24  2  0
 24 25  1  0
 25 26  2  0
 26 27  1  0
 15 28  1  0
 28 29  1  0
 11  6  1  0
 29 12  1  0
 26 21  1  0
  1 30  1  0
  1 31  1  0
  1 32  1  0
  2 33  1  0
  2 34  1  0
  7 35  1  0
  8 36  1  0
  9 37  1  0
 10 38  1  0
 11 39  1  0
 12 40  1  0
 13 41  1  0
 13 42  1  0
 14 43  1  0
 14 44  1  0
 18 45  1  6
 19 46  1  0
 19 47  1  0
 20 48  1  0
 20 49  1  0
 22 50  1  0
 23 51  1  0
 24 52  1  0
 25 53  1  0
 28 54  1  0
 28 55  1  0
 29 56  1  0
 29 57  1  0
M  END
>  <smiles>  (2) 
CCC(=O)N(c1ccccc1)C1CCN(C(=O)[C@H](N)Cc2ccccc2Br)CC1

>  <score_type>  (2) 
oracle

>  <origin>  (2) 
autodockgpu

>  <m_score__min__energy>  (2) 
-8.3100000000000005

>  <m_primary>  (2) 
energy

>  <rmsd>  (2) 
8.379030650410467

>  <m_score__min__rmsd>  (2) 
8.379030650410467

>  <meeko>  (2) 
{"free_energy": -7.02, "intermolecular_energy": -9.41, "internal_energy": -2.7, "cluster_size": 5, "cluster_id": 4, "rank_in_cluster": 4}

>  <energy>  (2) 
-8.25

>  <cluster_rmsd>  (2) 
0.22

>  <cluster>  (2) 
1

$$$$

     RDKit          3D

 57 59  0  0  0  0  0  0  0  0999 V2000
  143.1230   76.8290  218.9810 C   0  0  0  0  0  0  0  0  0  0  0  0
  141.8680   76.4530  219.6840 C   0  0  0  0  0  0  0  0  0  0  0  0
  141.4850   75.0220  219.5800 C   0  0  0  0  0  0  0  0  0  0  0  0
  140.6430   74.6920  218.7030 O   0  0  0  0  0  0  0  0  0  0  0  0
  142.0730   74.0570  220.4680 N   0  0  0  0  0  0  0  0  0  0  0  0
  143.4180   73.6500  220.2190 C   0  0  0  0  0  0  0  0  0  0  0  0
  143.5800   72.6360  219.2850 C   0  0  0  0  0  0  0  0  0  0  0  0
  144.8200   72.1350  218.9360 C   0  0  0  0  0  0  0  0  0  0  0  0
  145.9110   72.6950  219.5670 C   0  0  0  0  0  0  0  0  0  0  0  0
  145.7780   73.7180  220.5120 C   0  0  0  0  0  0  0  0  0  0  0  0
  144.5090   74.2080  220.8470 C   0  0  0  0  0  0  0  0  0  0  0  0
  141.2890   73.4840  221.5750 C   0  0  0  0  0  0  0  0  0  0  0  0
  139.9020   73.9540  221.6370 C   0  0  0  0  0  0  0  0  0  0  0  0
  138.8020   72.9720  221.4770 C   0  0  0  0  0  0  0  0  0  0  0  0
  139.1870   71.6510  222.0450 N   0  0  0  0  0  0  0  0  0  0  0  0
  138.3890   71.1860  223.0710 C   0  0  0  0  0  0  0  0  0  0  0  0
  137.4260   72.0230  223.3920 O   0  0  0  0  0  0  0  0  0  0  0  0
  138.3790   69.9730  223.8770 C   0  0  2  0  0  0  0  0  0  0  0  0
  137.4240   69.9960  224.9230 N   0  0  0  0  0  0  0  0  0  0  0  0
  139.7990   69.6610  224.3130 C   0  0  0  0  0  0  0  0  0  0  0  0
  140.2460   70.3060  225.5420 C   0  0  0  0  0  0  0  0  0  0  0  0
  140.6950   71.6180  225.6290 C   0  0  0  0  0  0  0  0  0  0  0  0
  141.0480   72.2020  226.8390 C   0  0  0  0  0  0  0  0  0  0  0  0
  140.9750   71.5140  228.0300 C   0  0  0  0  0  0  0  0  0  0  0  0
  140.5310   70.2050  227.9550 C   0  0  0  0  0  0  0  0  0  0  0  0
  140.1770   69.6170  226.7410 C   0  0  0  0  0  0  0  0  0  0  0  0
  139.6860   67.7650  226.8440 Br  0  0  0  0  0  0  0  0  0  0  0  0
  140.3610   71.0980  221.4300 C   0  0  0  0  0  0  0  0  0  0  0  0
  141.4930   72.0270  221.6960 C   0  0  0  0  0  0  0  0  0  0  0  0
  143.9022   77.0625  219.7215 H   0  0  0  0  0  0  0  0  0  0  0  0
  143.4554   75.9910  218.3507 H   0  0  0  0  0  0  0  0  0  0  0  0
  142.9399   77.7117  218.3507 H   0  0  0  0  0  0  0  0  0  0  0  0
  141.9903   76.6952  220.7500 H   0  0  0  0  0  0  0  0  0  0  0  0
  141.0633   77.0191  219.1921 H   0  0  0  0  0  0  0  0  0  0  0  0
  142.6856   72.2142  218.8032 H   0  0  0  0  0  0  0  0  0  0  0  0
  144.9310   71.3312  218.1933 H   0  0  0  0  0  0  0  0  0  0  0  0
  146.9172   72.3258  219.3195 H   0  0  0  0  0  0  0  0  0  0  0  0
  146.6729   74.1391  220.9936 H   0  0  0  0  0  0  0  0  0  0  0  0
  144.3881   75.0123  221.5876 H   0  0  0  0  0  0  0  0  0  0  0  0
  141.6991   73.8965  222.5086 H   0  0  0  0  0  0  0  0  0  0  0  0
  139.7672   74.4319  222.6186 H   0  0  0  0  0  0  0  0  0  0  0  0
  139.8045   74.6051  220.7557 H   0  0  0  0  0  0  0  0  0  0  0  0
  137.9083   73.3430  222.0001 H   0  0  0  0  0  0  0  0  0  0  0  0
  138.5932   72.8476  220.4042 H   0  0  0  0  0  0  0  0  0  0  0  0
  138.0286   69.1323  223.2601 H   0  0  0  0  0  0  0  0  0  0  0  0
  136.7670   70.7740  224.9420 H   0  0  0  0  0  0  0  0  0  0  0  0
  137.1540   69.0920  225.3000 H   0  0  0  0  0  0  0  0  0  0  0  0
  139.8757   68.5731  224.4566 H   0  0  0  0  0  0  0  0  0  0  0  0
  140.4475   70.0566  223.5174 H   0  0  0  0  0  0  0  0  0  0  0  0
  140.7737   72.2147  224.7082 H   0  0  0  0  0  0  0  0  0  0  0  0
  141.3963   73.2454  226.8462 H   0  0  0  0  0  0  0  0  0  0  0  0
  141.2539   71.9787  228.9872 H   0  0  0  0  0  0  0  0  0  0  0  0
  140.4553   69.6122  228.8785 H   0  0  0  0  0  0  0  0  0  0  0  0
  140.5788   70.1094  221.8605 H   0  0  0  0  0  0  0  0  0  0  0  0
  140.2080   70.9781  220.3473 H   0  0  0  0  0  0  0  0  0  0  0  0
  141.8263   71.8364  222.7268 H   0  0  0  0  0  0  0  0  0  0  0  0
  142.2045   71.8007  220.8882 H   0  0  0  0  0  0  0  0  0  0  0  0
  1  2  1  0
  2  3  1  0
  3  4  2  0
  3  5  1  0
  5  6  1  0
  6  7  2  0
  7  8  1  0
  8  9  2  0
  9 10  1  0
 10 11  2  0
  5 12  1  0
 12 13  1  0
 13 14  1  0
 14 15  1  0
 15 16  1  0
 16 17  2  0
 16 18  1  0
 18 19  1  0
 18 20  1  0
 20 21  1  0
 21 22  2  0
 22 23  1  0
 23 24  2  0
 24 25  1  0
 25 26  2  0
 26 27  1  0
 15 28  1  0
 28 29  1  0
 11  6  1  0
 29 12  1  0
 26 21  1  0
  1 30  1  0
  1 31  1  0
  1 32  1  0
  2 33  1  0
  2 34  1  0
  7 35  1  0
  8 36  1  0
  9 37  1  0
 10 38  1  0
 11 39  1  0
 12 40  1  0
 13 41  1  0
 13 42  1  0
 14 43  1  0
 14 44  1  0
 18 45  1  6
 19 46  1  0
 19 47  1  0
 20 48  1  0
 20 49  1  0
 22 50  1  0
 23 51  1  0
 24 52  1  0
 25 53  1  0
 28 54  1  0
 28 55  1  0
 29 56  1  0
 29 57  1  0
M  END
>  <smiles>  (3) 
CCC(=O)N(c1ccccc1)C1CCN(C(=O)[C@H](N)Cc2ccccc2Br)CC1

>  <score_type>  (3) 
oracle

>  <origin>  (3) 
autodockgpu

>  <m_score__min__energy>  (3) 
-8.3100000000000005

>  <m_primary>  (3) 
energy

>  <rmsd>  (3) 
8.62957413395128

>  <m_score__min__rmsd>  (3) 
8.62957413395128

>  <meeko>  (3) 
{"free_energy": -7.03, "intermolecular_energy": -9.41, "internal_energy": -2.73, "cluster_size": 9, "cluster_id": 1, "rank_in_cluster": 7}

>  <energy>  (3) 
-8.06

>  <cluster_rmsd>  (3) 
0.36

>  <cluster>  (3) 
1

$$$$

     RDKit          3D

 57 59  0  0  0  0  0  0  0  0999 V2000
  143.6790   75.3110  219.7310 C   0  0  0  0  0  0  0  0  0  0  0  0
  143.2670   76.7380  219.6790 C   0  0  0  0  0  0  0  0  0  0  0  0
  141.8200   76.9910  219.8970 C   0  0  0  0  0  0  0  0  0  0  0  0
  141.0470   76.9290  218.9040 O   0  0  0  0  0  0  0  0  0  0  0  0
  141.3370   77.2960  221.2160 N   0  0  0  0  0  0  0  0  0  0  0  0
  141.6570   78.5740  221.7660 C   0  0  0  0  0  0  0  0  0  0  0  0
  141.7890   78.6220  223.1470 C   0  0  0  0  0  0  0  0  0  0  0  0
  142.0970   79.7850  223.8260 C   0  0  0  0  0  0  0  0  0  0  0  0
  142.2700   80.9190  223.0600 C   0  0  0  0  0  0  0  0  0  0  0  0
  142.1420   80.9000  221.6670 C   0  0  0  0  0  0  0  0  0  0  0  0
  141.8300   79.7070  221.0040 C   0  0  0  0  0  0  0  0  0  0  0  0
  140.5680   76.3000  221.9810 C   0  0  0  0  0  0  0  0  0  0  0  0
  139.1190   76.5250  221.9760 C   0  0  0  0  0  0  0  0  0  0  0  0
  138.2330   75.4960  221.3770 C   0  0  0  0  0  0  0  0  0  0  0  0
  138.7940   74.1330  221.5830 N   0  0  0  0  0  0  0  0  0  0  0  0
  138.0000   73.2620  222.3010 C   0  0  0  0  0  0  0  0  0  0  0  0
  136.8760   73.8110  222.7100 O   0  0  0  0  0  0  0  0  0  0  0  0
  138.1320   71.8690  222.7060 C   0  0  2  0  0  0  0  0  0  0  0  0
  137.3140   71.5200  223.8090 N   0  0  0  0  0  0  0  0  0  0  0  0
  139.6050   71.5440  222.8730 C   0  0  0  0  0  0  0  0  0  0  0  0
  140.0160   71.1010  224.1990 C   0  0  0  0  0  0  0  0  0  0  0  0
  140.7010   71.8860  225.1180 C   0  0  0  0  0  0  0  0  0  0  0  0
  141.0110   71.4330  226.3960 C   0  0  0  0  0  0  0  0  0  0  0  0
  140.6570   70.1740  226.8290 C   0  0  0  0  0  0  0  0  0  0  0  0
  139.9750   69.3820  225.9200 C   0  0  0  0  0  0  0  0  0  0  0  0
  139.6640   69.8350  224.6380 C   0  0  0  0  0  0  0  0  0  0  0  0
  138.8080   68.5470  223.5030 Br  0  0  0  0  0  0  0  0  0  0  0  0
  140.1020   73.9740  221.0100 C   0  0  0  0  0  0  0  0  0  0  0  0
  141.0180   74.9240  221.6980 C   0  0  0  0  0  0  0  0  0  0  0  0
  143.7706   74.9938  220.7803 H   0  0  0  0  0  0  0  0  0  0  0  0
  142.9228   74.6924  219.2256 H   0  0  0  0  0  0  0  0  0  0  0  0
  144.6486   75.1906  219.2256 H   0  0  0  0  0  0  0  0  0  0  0  0
  143.8272   77.2815  220.4541 H   0  0  0  0  0  0  0  0  0  0  0  0
  143.4838   77.0792  218.6560 H   0  0  0  0  0  0  0  0  0  0  0  0
  141.6425   77.6969  223.7238 H   0  0  0  0  0  0  0  0  0  0  0  0
  142.1990   79.8057  224.9211 H   0  0  0  0  0  0  0  0  0  0  0  0
  142.5162   81.8675  223.5598 H   0  0  0  0  0  0  0  0  0  0  0  0
  142.2870   81.8256  221.0906 H   0  0  0  0  0  0  0  0  0  0  0  0
  141.7265   79.6762  219.9093 H   0  0  0  0  0  0  0  0  0  0  0  0
  140.8072   76.4532  223.0437 H   0  0  0  0  0  0  0  0  0  0  0  0
  138.8082   76.6474  223.0241 H   0  0  0  0  0  0  0  0  0  0  0  0
  138.9900   77.3984  221.3198 H   0  0  0  0  0  0  0  0  0  0  0  0
  137.2417   75.5536  221.8502 H   0  0  0  0  0  0  0  0  0  0  0  0
  138.1522   75.6851  220.2964 H   0  0  0  0  0  0  0  0  0  0  0  0
  137.7370   71.2218  221.9091 H   0  0  0  0  0  0  0  0  0  0  0  0
  136.9300   72.2800  224.3680 H   0  0  0  0  0  0  0  0  0  0  0  0
  136.8120   70.6410  223.7310 H   0  0  0  0  0  0  0  0  0  0  0  0
  139.8565   70.7460  222.1588 H   0  0  0  0  0  0  0  0  0  0  0  0
  140.1386   72.4899  222.6982 H   0  0  0  0  0  0  0  0  0  0  0  0
  141.0088   72.9006  224.8249 H   0  0  0  0  0  0  0  0  0  0  0  0
  141.5549   72.0997  227.0813 H   0  0  0  0  0  0  0  0  0  0  0  0
  140.9023   69.8175  227.8403 H   0  0  0  0  0  0  0  0  0  0  0  0
  139.6703   68.3678  226.2174 H   0  0  0  0  0  0  0  0  0  0  0  0
  140.4527   72.9420  221.1584 H   0  0  0  0  0  0  0  0  0  0  0  0
  140.0760   74.1792  219.9296 H   0  0  0  0  0  0  0  0  0  0  0  0
  141.2811   74.4696  222.6646 H   0  0  0  0  0  0  0  0  0  0  0  0
  141.8318   75.0657  220.9716 H   0  0  0  0  0  0  0  0  0  0  0  0
  1  2  1  0
  2  3  1  0
  3  4  2  0
  3  5  1  0
  5  6  1  0
  6  7  2  0
  7  8  1  0
  8  9  2  0
  9 10  1  0
 10 11  2  0
  5 12  1  0
 12 13  1  0
 13 14  1  0
 14 15  1  0
 15 16  1  0
 16 17  2  0
 16 18  1  0
 18 19  1  0
 18 20  1  0
 20 21  1  0
 21 22  2  0
 22 23  1  0
 23 24  2  0
 24 25  1  0
 25 26  2  0
 26 27  1  0
 15 28  1  0
 28 29  1  0
 11  6  1  0
 29 12  1  0
 26 21  1  0
  1 30  1  0
  1 31  1  0
  1 32  1  0
  2 33  1  0
  2 34  1  0
  7 35  1  0
  8 36  1  0
  9 37  1  0
 10 38  1  0
 11 39  1  0
 12 40  1  0
 13 41  1  0
 13 42  1  0
 14 43  1  0
 14 44  1  0
 18 45  1  6
 19 46  1  0
 19 47  1  0
 20 48  1  0
 20 49  1  0
 22 50  1  0
 23 51  1  0
 24 52  1  0
 25 53  1  0
 28 54  1  0
 28 55  1  0
 29 56  1  0
 29 57  1  0
M  END
>  <smiles>  (4) 
CCC(=O)N(c1ccccc1)C1CCN(C(=O)[C@H](N)Cc2ccccc2Br)CC1

>  <score_type>  (4) 
oracle

>  <origin>  (4) 
autodockgpu

>  <m_score__min__energy>  (4) 
-8.3100000000000005

>  <m_primary>  (4) 
energy

>  <rmsd>  (4) 
6.632362348218308

>  <m_score__min__rmsd>  (4) 
6.632362348218308

>  <meeko>  (4) 
{"free_energy": -7.22, "intermolecular_energy": -9.61, "internal_energy": -2.34, "cluster_size": 4, "cluster_id": 3, "rank_in_cluster": 3}

>  <energy>  (4) 
-8.02

>  <cluster_rmsd>  (4) 
0.18

>  <cluster>  (4) 
1

$$$$

     RDKit          3D

 57 59  0  0  0  0  0  0  0  0999 V2000
  139.7500   75.1990  218.5510 C   0  0  0  0  0  0  0  0  0  0  0  0
  139.8000   74.4120  219.8110 C   0  0  0  0  0  0  0  0  0  0  0  0
  140.8190   74.8550  220.7960 C   0  0  0  0  0  0  0  0  0  0  0  0
  140.6260   74.5920  222.0130 O   0  0  0  0  0  0  0  0  0  0  0  0
  141.9860   75.5670  220.3500 N   0  0  0  0  0  0  0  0  0  0  0  0
  143.0930   74.8030  219.8750 C   0  0  0  0  0  0  0  0  0  0  0  0
  143.9770   74.3500  220.8450 C   0  0  0  0  0  0  0  0  0  0  0  0
  145.0960   73.5990  220.5410 C   0  0  0  0  0  0  0  0  0  0  0  0
  145.3030   73.3110  219.2080 C   0  0  0  0  0  0  0  0  0  0  0  0
  144.4290   73.7540  218.2100 C   0  0  0  0  0  0  0  0  0  0  0  0
  143.3020   74.5140  218.5450 C   0  0  0  0  0  0  0  0  0  0  0  0
  142.0390   77.0360  220.4220 C   0  0  0  0  0  0  0  0  0  0  0  0
  142.5710   77.6790  219.2160 C   0  0  0  0  0  0  0  0  0  0  0  0
  141.6970   78.5970  218.4460 C   0  0  0  0  0  0  0  0  0  0  0  0
  140.7670   79.3250  219.3520 N   0  0  0  0  0  0  0  0  0  0  0  0
  140.8800   80.7000  219.3460 C   0  0  0  0  0  0  0  0  0  0  0  0
  141.8290   81.1340  218.5440 O   0  0  0  0  0  0  0  0  0  0  0  0
  140.1800   81.7780  220.0310 C   0  0  2  0  0  0  0  0  0  0  0  0
  139.9040   82.8930  219.2010 N   0  0  0  0  0  0  0  0  0  0  0  0
  140.9180   82.1040  221.3170 C   0  0  0  0  0  0  0  0  0  0  0  0
  141.2880   80.9650  222.1480 C   0  0  0  0  0  0  0  0  0  0  0  0
  142.5670   80.4290  222.2330 C   0  0  0  0  0  0  0  0  0  0  0  0
  142.8770   79.3820  223.0930 C   0  0  0  0  0  0  0  0  0  0  0  0
  141.9320   78.8100  223.9160 C   0  0  0  0  0  0  0  0  0  0  0  0
  140.6540   79.3350  223.8380 C   0  0  0  0  0  0  0  0  0  0  0  0
  140.3410   80.3850  222.9750 C   0  0  0  0  0  0  0  0  0  0  0  0
  138.4910   80.8950  222.9470 Br  0  0  0  0  0  0  0  0  0  0  0  0
  139.9200   78.4450  220.1080 C   0  0  0  0  0  0  0  0  0  0  0  0
  140.7940   77.6050  220.9720 C   0  0  0  0  0  0  0  0  0  0  0  0
  139.6819   76.2705  218.7904 H   0  0  0  0  0  0  0  0  0  0  0  0
  140.6619   75.0114  217.9651 H   0  0  0  0  0  0  0  0  0  0  0  0
  138.8692   74.8975  217.9651 H   0  0  0  0  0  0  0  0  0  0  0  0
  138.8125   74.4765  220.2913 H   0  0  0  0  0  0  0  0  0  0  0  0
  140.0827   73.3896  219.5199 H   0  0  0  0  0  0  0  0  0  0  0  0
  143.7784   74.5991  221.8979 H   0  0  0  0  0  0  0  0  0  0  0  0
  145.7867   73.2486  221.3221 H   0  0  0  0  0  0  0  0  0  0  0  0
  146.1819   72.7150  218.9213 H   0  0  0  0  0  0  0  0  0  0  0  0
  144.6280   73.5042  217.1574 H   0  0  0  0  0  0  0  0  0  0  0  0
  142.6059   74.8688  217.7707 H   0  0  0  0  0  0  0  0  0  0  0  0
  142.8088   77.2950  221.1638 H   0  0  0  0  0  0  0  0  0  0  0  0
  143.4554   78.2570  219.5222 H   0  0  0  0  0  0  0  0  0  0  0  0
  142.7468   76.8408  218.5257 H   0  0  0  0  0  0  0  0  0  0  0  0
  142.3227   79.3259  217.9100 H   0  0  0  0  0  0  0  0  0  0  0  0
  141.1039   78.0047  217.7337 H   0  0  0  0  0  0  0  0  0  0  0  0
  139.1707   81.4363  220.3041 H   0  0  0  0  0  0  0  0  0  0  0  0
  139.5140   83.7230  219.6430 H   0  0  0  0  0  0  0  0  0  0  0  0
  140.4810   82.9810  218.3690 H   0  0  0  0  0  0  0  0  0  0  0  0
  141.8410   82.6389  221.0489 H   0  0  0  0  0  0  0  0  0  0  0  0
  140.2141   82.6954  221.9210 H   0  0  0  0  0  0  0  0  0  0  0  0
  143.3616   80.8476  221.5979 H   0  0  0  0  0  0  0  0  0  0  0  0
  143.9078   78.9987  223.1171 H   0  0  0  0  0  0  0  0  0  0  0  0
  142.1794   77.9823  224.5970 H   0  0  0  0  0  0  0  0  0  0  0  0
  139.8627   78.9123  224.4745 H   0  0  0  0  0  0  0  0  0  0  0  0
  139.2309   79.0331  220.7319 H   0  0  0  0  0  0  0  0  0  0  0  0
  139.3232   77.8127  219.4342 H   0  0  0  0  0  0  0  0  0  0  0  0
  141.0808   78.2254  221.8339 H   0  0  0  0  0  0  0  0  0  0  0  0
  140.1758   76.7180  221.1747 H   0  0  0  0  0  0  0  0  0  0  0  0
  1  2  1  0
  2  3  1  0
  3  4  2  0
  3  5  1  0
  5  6  1  0
  6  7  2  0
  7  8  1  0
  8  9  2  0
  9 10  1  0
 10 11  2  0
  5 12  1  0
 12 13  1  0
 13 14  1  0
 14 15  1  0
 15 16  1  0
 16 17  2  0
 16 18  1  0
 18 19  1  0
 18 20  1  0
 20 21  1  0
 21 22  2  0
 22 23  1  0
 23 24  2  0
 24 25  1  0
 25 26  2  0
 26 27  1  0
 15 28  1  0
 28 29  1  0
 11  6  1  0
 29 12  1  0
 26 21  1  0
  1 30  1  0
  1 31  1  0
  1 32  1  0
  2 33  1  0
  2 34  1  0
  7 35  1  0
  8 36  1  0
  9 37  1  0
 10 38  1  0
 11 39  1  0
 12 40  1  0
 13 41  1  0
 13 42  1  0
 14 43  1  0
 14 44  1  0
 18 45  1  1
 19 46  1  0
 19 47  1  0
 20 48  1  0
 20 49  1  0
 22 50  1  0
 23 51  1  0
 24 52  1  0
 25 53  1  0
 28 54  1  0
 28 55  1  0
 29 56  1  0
 29 57  1  0
M  END
>  <smiles>  (5) 
CCC(=O)N(c1ccccc1)C1CCN(C(=O)[C@H](N)Cc2ccccc2Br)CC1

>  <score_type>  (5) 
oracle

>  <origin>  (5) 
autodockgpu

>  <m_score__min__energy>  (5) 
-8.3100000000000005

>  <m_primary>  (5) 
energy

>  <rmsd>  (5) 
5.602838759311808

>  <m_score__min__rmsd>  (5) 
5.602838759311808

>  <meeko>  (5) 
{"free_energy": -5.94, "intermolecular_energy": -8.33, "internal_energy": -3.33, "cluster_size": 9, "cluster_id": 11, "rank_in_cluster": 8}

>  <energy>  (5) 
-7.78

>  <cluster_rmsd>  (5) 
0.51

>  <cluster>  (5) 
1

$$$$

     RDKit          3D

 57 59  0  0  0  0  0  0  0  0999 V2000
  142.5560   76.9140  219.7390 C   0  0  0  0  0  0  0  0  0  0  0  0
  142.4210   76.0310  218.5510 C   0  0  0  0  0  0  0  0  0  0  0  0
  141.9460   74.6530  218.8340 C   0  0  0  0  0  0  0  0  0  0  0  0
  141.1610   74.1110  218.0110 O   0  0  0  0  0  0  0  0  0  0  0  0
  142.3830   73.9740  220.0240 N   0  0  0  0  0  0  0  0  0  0  0  0
  143.7500   73.5730  220.1010 C   0  0  0  0  0  0  0  0  0  0  0  0
  144.0810   72.4180  219.4060 C   0  0  0  0  0  0  0  0  0  0  0  0
  145.3630   71.9020  219.3850 C   0  0  0  0  0  0  0  0  0  0  0  0
  146.3190   72.5970  220.0970 C   0  0  0  0  0  0  0  0  0  0  0  0
  146.0140   73.7630  220.8060 C   0  0  0  0  0  0  0  0  0  0  0  0
  144.7050   74.2640  220.8110 C   0  0  0  0  0  0  0  0  0  0  0  0
  141.4310   73.6750  221.1070 C   0  0  0  0  0  0  0  0  0  0  0  0
  140.0470   74.0630  220.8160 C   0  0  0  0  0  0  0  0  0  0  0  0
  139.0020   73.0110  220.7600 C   0  0  0  0  0  0  0  0  0  0  0  0
  139.3030   71.9170  221.7220 N   0  0  0  0  0  0  0  0  0  0  0  0
  138.3500   71.6980  222.6960 C   0  0  0  0  0  0  0  0  0  0  0  0
  137.3350   72.5330  222.6180 O   0  0  0  0  0  0  0  0  0  0  0  0
  138.2190   70.7480  223.7920 C   0  0  2  0  0  0  0  0  0  0  0  0
  136.9010   70.6510  224.3040 N   0  0  0  0  0  0  0  0  0  0  0  0
  139.2880   71.0440  224.8280 C   0  0  0  0  0  0  0  0  0  0  0  0
  139.7130   69.9160  225.6480 C   0  0  0  0  0  0  0  0  0  0  0  0
  139.3880   68.5890  225.3980 C   0  0  0  0  0  0  0  0  0  0  0  0
  139.8750   67.5450  226.1770 C   0  0  0  0  0  0  0  0  0  0  0  0
  140.7130   67.7650  227.2480 C   0  0  0  0  0  0  0  0  0  0  0  0
  141.0430   69.0840  227.5080 C   0  0  0  0  0  0  0  0  0  0  0  0
  140.5540   70.1320  226.7270 C   0  0  0  0  0  0  0  0  0  0  0  0
  141.0480   71.8890  227.3180 Br  0  0  0  0  0  0  0  0  0  0  0  0
  140.5710   71.2880  221.4770 C   0  0  0  0  0  0  0  0  0  0  0  0
  141.6300   72.3190  221.6540 C   0  0  0  0  0  0  0  0  0  0  0  0
  142.4640   76.3124  220.6553 H   0  0  0  0  0  0  0  0  0  0  0  0
  143.5398   77.4058  219.7204 H   0  0  0  0  0  0  0  0  0  0  0  0
  141.7641   77.6773  219.7204 H   0  0  0  0  0  0  0  0  0  0  0  0
  141.7073   76.5006  217.8581 H   0  0  0  0  0  0  0  0  0  0  0  0
  143.4339   75.9238  218.1357 H   0  0  0  0  0  0  0  0  0  0  0  0
  143.2912   71.8922  218.8495 H   0  0  0  0  0  0  0  0  0  0  0  0
  145.6085   70.9849  218.8295 H   0  0  0  0  0  0  0  0  0  0  0  0
  147.3531   72.2222  220.1072 H   0  0  0  0  0  0  0  0  0  0  0  0
  146.8042   74.2889  221.3618 H   0  0  0  0  0  0  0  0  0  0  0  0
  144.4494   75.1797  221.3644 H   0  0  0  0  0  0  0  0  0  0  0  0
  141.6725   74.3461  221.9444 H   0  0  0  0  0  0  0  0  0  0  0  0
  139.7425   74.7788  221.5937 H   0  0  0  0  0  0  0  0  0  0  0  0
  140.0913   74.4462  219.7858 H   0  0  0  0  0  0  0  0  0  0  0  0
  138.0282   73.4559  221.0127 H   0  0  0  0  0  0  0  0  0  0  0  0
  138.9783   72.5908  219.7437 H   0  0  0  0  0  0  0  0  0  0  0  0
  138.3961   69.7311  223.4118 H   0  0  0  0  0  0  0  0  0  0  0  0
  136.7920   70.3170  225.2590 H   0  0  0  0  0  0  0  0  0  0  0  0
  136.2220   71.2930  223.9080 H   0  0  0  0  0  0  0  0  0  0  0  0
  140.1727   71.4275  224.2986 H   0  0  0  0  0  0  0  0  0  0  0  0
  138.8339   71.7633  225.5255 H   0  0  0  0  0  0  0  0  0  0  0  0
  138.7220   68.3556  224.5542 H   0  0  0  0  0  0  0  0  0  0  0  0
  139.5826   66.5136  225.9308 H   0  0  0  0  0  0  0  0  0  0  0  0
  141.0986   66.9382  227.8626 H   0  0  0  0  0  0  0  0  0  0  0  0
  141.7089   69.3123  228.3533 H   0  0  0  0  0  0  0  0  0  0  0  0
  140.7255   70.4659  222.1913 H   0  0  0  0  0  0  0  0  0  0  0  0
  140.6044   70.8726  220.4590 H   0  0  0  0  0  0  0  0  0  0  0  0
  141.7869   72.4321  222.7369 H   0  0  0  0  0  0  0  0  0  0  0  0
  142.4704   71.9260  221.0630 H   0  0  0  0  0  0  0  0  0  0  0  0
  1  2  1  0
  2  3  1  0
  3  4  2  0
  3  5  1  0
  5  6  1  0
  6  7  2  0
  7  8  1  0
  8  9  2  0
  9 10  1  0
 10 11  2  0
  5 12  1  0
 12 13  1  0
 13 14  1  0
 14 15  1  0
 15 16  1  0
 16 17  2  0
 16 18  1  0
 18 19  1  0
 18 20  1  0
 20 21  1  0
 21 22  2  0
 22 23  1  0
 23 24  2  0
 24 25  1  0
 25 26  2  0
 26 27  1  0
 15 28  1  0
 28 29  1  0
 11  6  1  0
 29 12  1  0
 26 21  1  0
  1 30  1  0
  1 31  1  0
  1 32  1  0
  2 33  1  0
  2 34  1  0
  7 35  1  0
  8 36  1  0
  9 37  1  0
 10 38  1  0
 11 39  1  0
 12 40  1  0
 13 41  1  0
 13 42  1  0
 14 43  1  0
 14 44  1  0
 18 45  1  6
 19 46  1  0
 19 47  1  0
 20 48  1  0
 20 49  1  0
 22 50  1  0
 23 51  1  0
 24 52  1  0
 25 53  1  0
 28 54  1  0
 28 55  1  0
 29 56  1  0
 29 57  1  0
M  END
>  <smiles>  (6) 
CCC(=O)N(c1ccccc1)C1CCN(C(=O)[C@H](N)Cc2ccccc2Br)CC1

>  <score_type>  (6) 
oracle

>  <origin>  (6) 
autodockgpu

>  <m_score__min__energy>  (6) 
-8.3100000000000005

>  <m_primary>  (6) 
energy

>  <rmsd>  (6) 
8.376828054459573

>  <m_score__min__rmsd>  (6) 
8.376828054459573

>  <meeko>  (6) 
{"free_energy": -7.03, "intermolecular_energy": -9.42, "internal_energy": -2.45, "cluster_size": 2, "cluster_id": 5, "rank_in_cluster": 2}

>  <energy>  (6) 
-7.64

>  <cluster_rmsd>  (6) 
0.41

>  <cluster>  (6) 
1

$$$$

     RDKit          3D

 57 59  0  0  0  0  0  0  0  0999 V2000
  141.5130   76.8240  220.5150 C   0  0  0  0  0  0  0  0  0  0  0  0
  142.2310   76.5650  219.2400 C   0  0  0  0  0  0  0  0  0  0  0  0
  142.0890   75.1900  218.6990 C   0  0  0  0  0  0  0  0  0  0  0  0
  141.8510   75.0540  217.4680 O   0  0  0  0  0  0  0  0  0  0  0  0
  142.2220   74.0570  219.5740 N   0  0  0  0  0  0  0  0  0  0  0  0
  143.5380   73.5910  219.8690 C   0  0  0  0  0  0  0  0  0  0  0  0
  144.3840   74.5090  220.4740 C   0  0  0  0  0  0  0  0  0  0  0  0
  145.6870   74.2070  220.8210 C   0  0  0  0  0  0  0  0  0  0  0  0
  146.1200   72.9290  220.5350 C   0  0  0  0  0  0  0  0  0  0  0  0
  145.2900   71.9830  219.9260 C   0  0  0  0  0  0  0  0  0  0  0  0
  143.9730   72.3160  219.5850 C   0  0  0  0  0  0  0  0  0  0  0  0
  141.0280   73.3840  220.1140 C   0  0  0  0  0  0  0  0  0  0  0  0
  140.8960   71.9800  219.7110 C   0  0  0  0  0  0  0  0  0  0  0  0
  140.9170   70.9280  220.7570 C   0  0  0  0  0  0  0  0  0  0  0  0
  140.2990   71.4230  222.0170 N   0  0  0  0  0  0  0  0  0  0  0  0
  139.1920   70.7250  222.4550 C   0  0  0  0  0  0  0  0  0  0  0  0
  138.8540   69.7400  221.6490 O   0  0  0  0  0  0  0  0  0  0  0  0
  138.3150   70.8370  223.6120 C   0  0  2  0  0  0  0  0  0  0  0  0
  137.2240   71.7190  223.4130 N   0  0  0  0  0  0  0  0  0  0  0  0
  139.1570   71.1280  224.8410 C   0  0  0  0  0  0  0  0  0  0  0  0
  139.6250   69.9650  225.5850 C   0  0  0  0  0  0  0  0  0  0  0  0
  139.2720   68.6510  225.3040 C   0  0  0  0  0  0  0  0  0  0  0  0
  139.8010   67.5740  226.0070 C   0  0  0  0  0  0  0  0  0  0  0  0
  140.7090   67.7450  227.0280 C   0  0  0  0  0  0  0  0  0  0  0  0
  141.0670   69.0500  227.3180 C   0  0  0  0  0  0  0  0  0  0  0  0
  140.5370   70.1320  226.6140 C   0  0  0  0  0  0  0  0  0  0  0  0
  141.0840   71.8610  227.2410 Br  0  0  0  0  0  0  0  0  0  0  0  0
  140.9610   72.5820  222.5480 C   0  0  0  0  0  0  0  0  0  0  0  0
  140.8340   73.6760  221.5470 C   0  0  0  0  0  0  0  0  0  0  0  0
  142.1729   76.5860  221.3623 H   0  0  0  0  0  0  0  0  0  0  0  0
  141.2221   77.8837  220.5633 H   0  0  0  0  0  0  0  0  0  0  0  0
  140.6126   76.1940  220.5633 H   0  0  0  0  0  0  0  0  0  0  0  0
  141.8480   77.2680  218.4856 H   0  0  0  0  0  0  0  0  0  0  0  0
  143.3005   76.6952  219.4618 H   0  0  0  0  0  0  0  0  0  0  0  0
  144.0020   75.5185  220.6861 H   0  0  0  0  0  0  0  0  0  0  0  0
  146.3446   74.9471  221.3003 H   0  0  0  0  0  0  0  0  0  0  0  0
  147.1507   72.6452  220.7942 H   0  0  0  0  0  0  0  0  0  0  0  0
  145.6726   70.9737  219.7139 H   0  0  0  0  0  0  0  0  0  0  0  0
  143.3078   71.5826  219.1058 H   0  0  0  0  0  0  0  0  0  0  0  0
  140.1523   73.8338  219.6233 H   0  0  0  0  0  0  0  0  0  0  0  0
  139.9384   71.8860  219.1780 H   0  0  0  0  0  0  0  0  0  0  0  0
  141.8055   71.7869  219.1233 H   0  0  0  0  0  0  0  0  0  0  0  0
  140.3550   70.0526  220.3994 H   0  0  0  0  0  0  0  0  0  0  0  0
  141.9628   70.6546  220.9610 H   0  0  0  0  0  0  0  0  0  0  0  0
  137.8094   69.8739  223.7758 H   0  0  0  0  0  0  0  0  0  0  0  0
  137.2730   72.6340  223.8550 H   0  0  0  0  0  0  0  0  0  0  0  0
  136.7070   71.5990  222.5470 H   0  0  0  0  0  0  0  0  0  0  0  0
  140.0403   71.6978  224.5166 H   0  0  0  0  0  0  0  0  0  0  0  0
  138.4967   71.6749  225.5302 H   0  0  0  0  0  0  0  0  0  0  0  0
  138.5494   68.4558  224.4979 H   0  0  0  0  0  0  0  0  0  0  0  0
  139.4846   66.5550  225.7395 H   0  0  0  0  0  0  0  0  0  0  0  0
  141.1266   66.8916  227.5824 H   0  0  0  0  0  0  0  0  0  0  0  0
  141.7893   69.2396  228.1257 H   0  0  0  0  0  0  0  0  0  0  0  0
  140.4872   72.8832  223.4939 H   0  0  0  0  0  0  0  0  0  0  0  0
  142.0206   72.3628  222.7458 H   0  0  0  0  0  0  0  0  0  0  0  0
  139.8202   74.0893  221.6535 H   0  0  0  0  0  0  0  0  0  0  0  0
  141.6759   74.3417  221.7881 H   0  0  0  0  0  0  0  0  0  0  0  0
  1  2  1  0
  2  3  1  0
  3  4  2  0
  3  5  1  0
  5  6  1  0
  6  7  2  0
  7  8  1  0
  8  9  2  0
  9 10  1  0
 10 11  2  0
  5 12  1  0
 12 13  1  0
 13 14  1  0
 14 15  1  0
 15 16  1  0
 16 17  2  0
 16 18  1  0
 18 19  1  0
 18 20  1  0
 20 21  1  0
 21 22  2  0
 22 23  1  0
 23 24  2  0
 24 25  1  0
 25 26  2  0
 26 27  1  0
 15 28  1  0
 28 29  1  0
 11  6  1  0
 29 12  1  0
 26 21  1  0
  1 30  1  0
  1 31  1  0
  1 32  1  0
  2 33  1  0
  2 34  1  0
  7 35  1  0
  8 36  1  0
  9 37  1  0
 10 38  1  0
 11 39  1  0
 12 40  1  0
 13 41  1  0
 13 42  1  0
 14 43  1  0
 14 44  1  0
 18 45  1  1
 19 46  1  0
 19 47  1  0
 20 48  1  0
 20 49  1  0
 22 50  1  0
 23 51  1  0
 24 52  1  0
 25 53  1  0
 28 54  1  0
 28 55  1  0
 29 56  1  0
 29 57  1  0
M  END
>  <smiles>  (7) 
CCC(=O)N(c1ccccc1)C1CCN(C(=O)[C@H](N)Cc2ccccc2Br)CC1

>  <score_type>  (7) 
oracle

>  <origin>  (7) 
autodockgpu

>  <m_score__min__energy>  (7) 
-8.3100000000000005

>  <m_primary>  (7) 
energy

>  <rmsd>  (7) 
8.631238110951232

>  <m_score__min__rmsd>  (7) 
8.631238110951232

>  <meeko>  (7) 
{"free_energy": -7.39, "intermolecular_energy": -9.78, "internal_energy": -1.89, "cluster_size": 2, "cluster_id": 5, "rank_in_cluster": 1}

>  <energy>  (7) 
-7.03

>  <cluster_rmsd>  (7) 
1.99

>  <cluster>  (7) 
1

$$$$

     RDKit          3D

 57 59  0  0  0  0  0  0  0  0999 V2000
  142.5650   77.0530  219.3220 C   0  0  0  0  0  0  0  0  0  0  0  0
  141.5060   78.0930  219.3950 C   0  0  0  0  0  0  0  0  0  0  0  0
  140.3360   77.7500  220.2410 C   0  0  0  0  0  0  0  0  0  0  0  0
  139.2230   77.5720  219.6770 O   0  0  0  0  0  0  0  0  0  0  0  0
  140.4910   77.6300  221.6650 N   0  0  0  0  0  0  0  0  0  0  0  0
  140.8730   78.7940  222.3970 C   0  0  0  0  0  0  0  0  0  0  0  0
  142.2380   79.0240  222.4980 C   0  0  0  0  0  0  0  0  0  0  0  0
  142.7630   80.1090  223.1740 C   0  0  0  0  0  0  0  0  0  0  0  0
  141.8570   80.9700  223.7550 C   0  0  0  0  0  0  0  0  0  0  0  0
  140.4760   80.7640  223.6690 C   0  0  0  0  0  0  0  0  0  0  0  0
  139.9710   79.6560  222.9770 C   0  0  0  0  0  0  0  0  0  0  0  0
  140.2970   76.3310  222.3330 C   0  0  0  0  0  0  0  0  0  0  0  0
  138.9100   75.8550  222.3290 C   0  0  0  0  0  0  0  0  0  0  0  0
  138.5880   74.5840  221.6340 C   0  0  0  0  0  0  0  0  0  0  0  0
  139.7240   73.6280  221.7300 N   0  0  0  0  0  0  0  0  0  0  0  0
  139.4480   72.4320  222.3600 C   0  0  0  0  0  0  0  0  0  0  0  0
  138.2100   72.3580  222.8010 O   0  0  0  0  0  0  0  0  0  0  0  0
  140.2250   71.2330  222.6460 C   0  0  2  0  0  0  0  0  0  0  0  0
  140.4990   70.4480  221.4990 N   0  0  0  0  0  0  0  0  0  0  0  0
  139.5680   70.4850  223.7920 C   0  0  0  0  0  0  0  0  0  0  0  0
  140.1370   70.7140  225.1140 C   0  0  0  0  0  0  0  0  0  0  0  0
  140.7690   71.8860  225.5120 C   0  0  0  0  0  0  0  0  0  0  0  0
  141.2360   72.0740  226.8080 C   0  0  0  0  0  0  0  0  0  0  0  0
  141.1010   71.1070  227.7790 C   0  0  0  0  0  0  0  0  0  0  0  0
  140.4750   69.9340  227.3940 C   0  0  0  0  0  0  0  0  0  0  0  0
  140.0060   69.7430  226.0940 C   0  0  0  0  0  0  0  0  0  0  0  0
  139.2630   68.0110  225.7400 Br  0  0  0  0  0  0  0  0  0  0  0  0
  140.9390   74.1430  221.1610 C   0  0  0  0  0  0  0  0  0  0  0  0
  141.3270   75.3520  221.9390 C   0  0  0  0  0  0  0  0  0  0  0  0
  142.8626   76.7607  220.3398 H   0  0  0  0  0  0  0  0  0  0  0  0
  142.1788   76.1734  218.7861 H   0  0  0  0  0  0  0  0  0  0  0  0
  143.4374   77.4551  218.7861 H   0  0  0  0  0  0  0  0  0  0  0  0
  141.9588   79.0111  219.7977 H   0  0  0  0  0  0  0  0  0  0  0  0
  141.1185   78.2042  218.3715 H   0  0  0  0  0  0  0  0  0  0  0  0
  142.9297   78.3142  222.0208 H   0  0  0  0  0  0  0  0  0  0  0  0
  143.8478   80.2768  223.2447 H   0  0  0  0  0  0  0  0  0  0  0  0
  142.2316   81.8467  224.3036 H   0  0  0  0  0  0  0  0  0  0  0  0
  139.7848   81.4743  224.1462 H   0  0  0  0  0  0  0  0  0  0  0  0
  138.8878   79.4805  222.8997 H   0  0  0  0  0  0  0  0  0  0  0  0
  140.4690   76.4899  223.4078 H   0  0  0  0  0  0  0  0  0  0  0  0
  138.6078   75.7335  223.3797 H   0  0  0  0  0  0  0  0  0  0  0  0
  138.3709   76.6176  221.7478 H   0  0  0  0  0  0  0  0  0  0  0  0
  137.6978   74.1344  222.0982 H   0  0  0  0  0  0  0  0  0  0  0  0
  138.3976   74.8005  220.5725 H   0  0  0  0  0  0  0  0  0  0  0  0
  141.2336   71.5254  222.9736 H   0  0  0  0  0  0  0  0  0  0  0  0
  140.3320   69.4460  221.5640 H   0  0  0  0  0  0  0  0  0  0  0  0
  140.4130   70.9220  220.6050 H   0  0  0  0  0  0  0  0  0  0  0  0
  138.5095   70.7824  223.8251 H   0  0  0  0  0  0  0  0  0  0  0  0
  139.7293   69.4176  223.5806 H   0  0  0  0  0  0  0  0  0  0  0  0
  140.9044   72.6926  224.7764 H   0  0  0  0  0  0  0  0  0  0  0  0
  141.7280   73.0236  227.0654 H   0  0  0  0  0  0  0  0  0  0  0  0
  141.4702   71.2583  228.8041 H   0  0  0  0  0  0  0  0  0  0  0  0
  140.3437   69.1303  228.1334 H   0  0  0  0  0  0  0  0  0  0  0  0
  141.7336   73.3851  221.2257 H   0  0  0  0  0  0  0  0  0  0  0  0
  140.7900   74.3984  220.1015 H   0  0  0  0  0  0  0  0  0  0  0  0
  141.7996   74.9960  222.8663 H   0  0  0  0  0  0  0  0  0  0  0  0
  141.9593   75.9153  221.2370 H   0  0  0  0  0  0  0  0  0  0  0  0
  1  2  1  0
  2  3  1  0
  3  4  2  0
  3  5  1  0
  5  6  1  0
  6  7  2  0
  7  8  1  0
  8  9  2  0
  9 10  1  0
 10 11  2  0
  5 12  1  0
 12 13  1  0
 13 14  1  0
 14 15  1  0
 15 16  1  0
 16 17  2  0
 16 18  1  0
 18 19  1  0
 18 20  1  0
 20 21  1  0
 21 22  2  0
 22 23  1  0
 23 24  2  0
 24 25  1  0
 25 26  2  0
 26 27  1  0
 15 28  1  0
 28 29  1  0
 11  6  1  0
 29 12  1  0
 26 21  1  0
  1 30  1  0
  1 31  1  0
  1 32  1  0
  2 33  1  0
  2 34  1  0
  7 35  1  0
  8 36  1  0
  9 37  1  0
 10 38  1  0
 11 39  1  0
 12 40  1  0
 13 41  1  0
 13 42  1  0
 14 43  1  0
 14 44  1  0
 18 45  1  1
 19 46  1  0
 19 47  1  0
 20 48  1  0
 20 49  1  0
 22 50  1  0
 23 51  1  0
 24 52  1  0
 25 53  1  0
 28 54  1  0
 28 55  1  0
 29 56  1  0
 29 57  1  0
M  END
>  <smiles>  (8) 
CCC(=O)N(c1ccccc1)C1CCN(C(=O)[C@H](N)Cc2ccccc2Br)CC1

>  <score_type>  (8) 
oracle

>  <origin>  (8) 
autodockgpu

>  <m_score__min__energy>  (8) 
-8.3100000000000005

>  <m_primary>  (8) 
energy

>  <rmsd>  (8) 
7.17057756445088

>  <m_score__min__rmsd>  (8) 
7.17057756445088

>  <meeko>  (8) 
{"free_energy": -7.59, "intermolecular_energy": -9.98, "internal_energy": -1.82, "cluster_size": 4, "cluster_id": 3, "rank_in_cluster": 1}

>  <energy>  (8) 
-6.81

>  <cluster_rmsd>  (8) 
1.23

>  <cluster>  (8) 
1

$$$$

     RDKit          3D

 57 59  0  0  0  0  0  0  0  0999 V2000
  146.2500   73.0920  221.7950 C   0  0  0  0  0  0  0  0  0  0  0  0
  146.3830   73.7780  220.4840 C   0  0  0  0  0  0  0  0  0  0  0  0
  145.4860   73.2780  219.4110 C   0  0  0  0  0  0  0  0  0  0  0  0
  145.9190   72.3790  218.6420 O   0  0  0  0  0  0  0  0  0  0  0  0
  144.1620   73.8220  219.2720 N   0  0  0  0  0  0  0  0  0  0  0  0
  143.9060   74.6810  218.1620 C   0  0  0  0  0  0  0  0  0  0  0  0
  144.0650   74.1110  216.9060 C   0  0  0  0  0  0  0  0  0  0  0  0
  143.8530   74.8150  215.7360 C   0  0  0  0  0  0  0  0  0  0  0  0
  143.4690   76.1330  215.8710 C   0  0  0  0  0  0  0  0  0  0  0  0
  143.3010   76.7330  217.1230 C   0  0  0  0  0  0  0  0  0  0  0  0
  143.5220   75.9970  218.2930 C   0  0  0  0  0  0  0  0  0  0  0  0
  143.1220   73.5240  220.2710 C   0  0  0  0  0  0  0  0  0  0  0  0
  142.4810   74.7130  220.8440 C   0  0  0  0  0  0  0  0  0  0  0  0
  141.0250   74.9140  220.6370 C   0  0  0  0  0  0  0  0  0  0  0  0
  140.3130   73.6080  220.5920 N   0  0  0  0  0  0  0  0  0  0  0  0
  139.3460   73.4200  221.5590 C   0  0  0  0  0  0  0  0  0  0  0  0
  139.2420   74.4400  222.3850 O   0  0  0  0  0  0  0  0  0  0  0  0
  138.4160   72.3430  221.8670 C   0  0  2  0  0  0  0  0  0  0  0  0
  137.4420   72.6950  222.8340 N   0  0  0  0  0  0  0  0  0  0  0  0
  139.2060   71.0860  222.1820 C   0  0  0  0  0  0  0  0  0  0  0  0
  139.6570   70.9430  223.5600 C   0  0  0  0  0  0  0  0  0  0  0  0
  140.7000   71.6630  224.1310 C   0  0  0  0  0  0  0  0  0  0  0  0
  141.0450   71.5330  225.4710 C   0  0  0  0  0  0  0  0  0  0  0  0
  140.3720   70.6800  226.3180 C   0  0  0  0  0  0  0  0  0  0  0  0
  139.3320   69.9560  225.7600 C   0  0  0  0  0  0  0  0  0  0  0  0
  138.9850   70.0850  224.4150 C   0  0  0  0  0  0  0  0  0  0  0  0
  137.5840   68.9180  223.8180 Br  0  0  0  0  0  0  0  0  0  0  0  0
  140.7890   72.7460  219.5460 C   0  0  0  0  0  0  0  0  0  0  0  0
  142.2210   72.4460  219.8210 C   0  0  0  0  0  0  0  0  0  0  0  0
  146.3914   73.8212  222.6064 H   0  0  0  0  0  0  0  0  0  0  0  0
  145.2484   72.6444  221.8747 H   0  0  0  0  0  0  0  0  0  0  0  0
  147.0118   72.3025  221.8747 H   0  0  0  0  0  0  0  0  0  0  0  0
  146.1680   74.8460  220.6362 H   0  0  0  0  0  0  0  0  0  0  0  0
  147.4086   73.5790  220.1397 H   0  0  0  0  0  0  0  0  0  0  0  0
  144.3720   73.0568  216.8396 H   0  0  0  0  0  0  0  0  0  0  0  0
  143.9837   74.3487  214.7483 H   0  0  0  0  0  0  0  0  0  0  0  0
  143.2893   76.7309  214.9654 H   0  0  0  0  0  0  0  0  0  0  0  0
  142.9940   77.7873  217.1886 H   0  0  0  0  0  0  0  0  0  0  0  0
  143.3931   76.4549  219.2848 H   0  0  0  0  0  0  0  0  0  0  0  0
  143.6294   73.1048  221.1524 H   0  0  0  0  0  0  0  0  0  0  0  0
  142.6508   74.6792  221.9303 H   0  0  0  0  0  0  0  0  0  0  0  0
  142.9435   75.5504  220.3010 H   0  0  0  0  0  0  0  0  0  0  0  0
  140.6226   75.5159  221.4651 H   0  0  0  0  0  0  0  0  0  0  0  0
  140.8730   75.4319  219.6785 H   0  0  0  0  0  0  0  0  0  0  0  0
  137.7993   72.1340  220.9804 H   0  0  0  0  0  0  0  0  0  0  0  0
  137.2620   72.0290  223.5830 H   0  0  0  0  0  0  0  0  0  0  0  0
  137.3130   73.6890  222.9940 H   0  0  0  0  0  0  0  0  0  0  0  0
  138.5699   70.2205  221.9447 H   0  0  0  0  0  0  0  0  0  0  0  0
  140.1216   71.1518  221.5759 H   0  0  0  0  0  0  0  0  0  0  0  0
  141.2720   72.3597  223.5005 H   0  0  0  0  0  0  0  0  0  0  0  0
  141.8804   72.1290  225.8671 H   0  0  0  0  0  0  0  0  0  0  0  0
  140.6457   70.5797  227.3787 H   0  0  0  0  0  0  0  0  0  0  0  0
  138.7638   69.2600  226.3946 H   0  0  0  0  0  0  0  0  0  0  0  0
  140.2064   71.8130  219.5356 H   0  0  0  0  0  0  0  0  0  0  0  0
  140.6796   73.2337  218.5661 H   0  0  0  0  0  0  0  0  0  0  0  0
  142.2400   71.6691  220.5995 H   0  0  0  0  0  0  0  0  0  0  0  0
  142.6198   72.1761  218.8320 H   0  0  0  0  0  0  0  0  0  0  0  0
  1  2  1  0
  2  3  1  0
  3  4  2  0
  3  5  1  0
  5  6  1  0
  6  7  2  0
  7  8  1  0
  8  9  2  0
  9 10  1  0
 10 11  2  0
  5 12  1  0
 12 13  1  0
 13 14  1  0
 14 15  1  0
 15 16  1  0
 16 17  2  0
 16 18  1  0
 18 19  1  0
 18 20  1  0
 20 21  1  0
 21 22  2  0
 22 23  1  0
 23 24  2  0
 24 25  1  0
 25 26  2  0
 26 27  1  0
 15 28  1  0
 28 29  1  0
 11  6  1  0
 29 12  1  0
 26 21  1  0
  1 30  1  0
  1 31  1  0
  1 32  1  0
  2 33  1  0
  2 34  1  0
  7 35  1  0
  8 36  1  0
  9 37  1  0
 10 38  1  0
 11 39  1  0
 12 40  1  0
 13 41  1  0
 13 42  1  0
 14 43  1  0
 14 44  1  0
 18 45  1  6
 19 46  1  0
 19 47  1  0
 20 48  1  0
 20 49  1  0
 22 50  1  0
 23 51  1  0
 24 52  1  0
 25 53  1  0
 28 54  1  0
 28 55  1  0
 29 56  1  0
 29 57  1  0
M  END
>  <smiles>  (9) 
CCC(=O)N(c1ccccc1)C1CCN(C(=O)[C@H](N)Cc2ccccc2Br)CC1

>  <score_type>  (9) 
oracle

>  <origin>  (9) 
autodockgpu

>  <m_score__min__energy>  (9) 
-8.3100000000000005

>  <m_primary>  (9) 
energy

>  <rmsd>  (9) 
7.1326209724252685

>  <m_score__min__rmsd>  (9) 
7.1326209724252685

>  <meeko>  (9) 
{"free_energy": -6.81, "intermolecular_energy": -9.19, "internal_energy": -2.64, "cluster_size": 9, "cluster_id": 1, "rank_in_cluster": 9}

>  <energy>  (9) 
-6.81

>  <cluster_rmsd>  (9) 
1.21

>  <cluster>  (9) 
1

$$$$

     RDKit          3D

 57 59  0  0  0  0  0  0  0  0999 V2000
  134.5960   78.9560  224.1930 C   0  0  0  0  0  0  0  0  0  0  0  0
  134.7410   79.3530  222.7680 C   0  0  0  0  0  0  0  0  0  0  0  0
  135.5770   80.5560  222.5260 C   0  0  0  0  0  0  0  0  0  0  0  0
  135.2310   81.3500  221.6110 O   0  0  0  0  0  0  0  0  0  0  0  0
  136.7490   80.7870  223.3270 N   0  0  0  0  0  0  0  0  0  0  0  0
  136.6390   81.6880  224.4280 C   0  0  0  0  0  0  0  0  0  0  0  0
  136.9560   81.1630  225.6730 C   0  0  0  0  0  0  0  0  0  0  0  0
  136.8980   81.9110  226.8340 C   0  0  0  0  0  0  0  0  0  0  0  0
  136.5040   83.2260  226.7010 C   0  0  0  0  0  0  0  0  0  0  0  0
  136.1790   83.7820  225.4590 C   0  0  0  0  0  0  0  0  0  0  0  0
  136.2470   83.0010  224.2980 C   0  0  0  0  0  0  0  0  0  0  0  0
  138.0270   80.1380  222.9890 C   0  0  0  0  0  0  0  0  0  0  0  0
  138.0060   78.6750  223.0980 C   0  0  0  0  0  0  0  0  0  0  0  0
  138.2470   77.8610  221.8820 C   0  0  0  0  0  0  0  0  0  0  0  0
  139.2020   78.5460  220.9690 N   0  0  0  0  0  0  0  0  0  0  0  0
  140.3680   77.8590  220.6980 C   0  0  0  0  0  0  0  0  0  0  0  0
  140.4440   76.7080  221.3310 O   0  0  0  0  0  0  0  0  0  0  0  0
  141.5330   78.1270  219.8660 C   0  0  2  0  0  0  0  0  0  0  0  0
  142.6010   77.2200  220.0780 N   0  0  0  0  0  0  0  0  0  0  0  0
  141.9030   79.5930  219.9980 C   0  0  0  0  0  0  0  0  0  0  0  0
  141.9800   80.1140  221.3570 C   0  0  0  0  0  0  0  0  0  0  0  0
  142.3830   79.3780  222.4650 C   0  0  0  0  0  0  0  0  0  0  0  0
  142.5000   79.9430  223.7290 C   0  0  0  0  0  0  0  0  0  0  0  0
  142.2230   81.2730  223.9620 C   0  0  0  0  0  0  0  0  0  0  0  0
  141.8190   82.0150  222.8650 C   0  0  0  0  0  0  0  0  0  0  0  0
  141.7000   81.4490  221.5960 C   0  0  0  0  0  0  0  0  0  0  0  0
  141.0280   82.6240  220.2370 Br  0  0  0  0  0  0  0  0  0  0  0  0
  138.7420   79.8390  220.5460 C   0  0  0  0  0  0  0  0  0  0  0  0
  138.6160   80.6950  221.7570 C   0  0  0  0  0  0  0  0  0  0  0  0
  134.9013   79.7920  224.8394 H   0  0  0  0  0  0  0  0  0  0  0  0
  133.5460   78.6992  224.3971 H   0  0  0  0  0  0  0  0  0  0  0  0
  135.2333   78.0830  224.3971 H   0  0  0  0  0  0  0  0  0  0  0  0
  135.1932   78.5101  222.2248 H   0  0  0  0  0  0  0  0  0  0  0  0
  133.7298   79.6104  222.4197 H   0  0  0  0  0  0  0  0  0  0  0  0
  137.2658   80.1096  225.7385 H   0  0  0  0  0  0  0  0  0  0  0  0
  137.1529   81.4797  227.8133 H   0  0  0  0  0  0  0  0  0  0  0  0
  136.4434   83.8575  227.5997 H   0  0  0  0  0  0  0  0  0  0  0  0
  135.8692   84.8355  225.3939 H   0  0  0  0  0  0  0  0  0  0  0  0
  135.9952   83.4235  223.3141 H   0  0  0  0  0  0  0  0  0  0  0  0
  138.7446   80.4037  223.7792 H   0  0  0  0  0  0  0  0  0  0  0  0
  138.7765   78.3951  223.8315 H   0  0  0  0  0  0  0  0  0  0  0  0
  136.9647   78.4450  223.3680 H   0  0  0  0  0  0  0  0  0  0  0  0
  138.6651   76.8872  222.1768 H   0  0  0  0  0  0  0  0  0  0  0  0
  137.2916   77.7233  221.3545 H   0  0  0  0  0  0  0  0  0  0  0  0
  141.2754   77.9420  218.8127 H   0  0  0  0  0  0  0  0  0  0  0  0
  143.5230   77.4940  219.7440 H   0  0  0  0  0  0  0  0  0  0  0  0
  142.5110   76.6070  220.8820 H   0  0  0  0  0  0  0  0  0  0  0  0
  142.8869   79.7352  219.5271 H   0  0  0  0  0  0  0  0  0  0  0  0
  141.0867   80.1490  219.5137 H   0  0  0  0  0  0  0  0  0  0  0  0
  142.6175   78.3110  222.3368 H   0  0  0  0  0  0  0  0  0  0  0  0
  142.8233   79.3101  224.5686 H   0  0  0  0  0  0  0  0  0  0  0  0
  142.3176   81.7196  224.9628 H   0  0  0  0  0  0  0  0  0  0  0  0
  141.5852   83.0816  222.9983 H   0  0  0  0  0  0  0  0  0  0  0  0
  139.4658   80.2836  219.8471 H   0  0  0  0  0  0  0  0  0  0  0  0
  137.7727   79.7534  220.0331 H   0  0  0  0  0  0  0  0  0  0  0  0
  139.6301   81.0349  222.0140 H   0  0  0  0  0  0  0  0  0  0  0  0
  137.8909   81.4639  221.4521 H   0  0  0  0  0  0  0  0  0  0  0  0
  1  2  1  0
  2  3  1  0
  3  4  2  0
  3  5  1  0
  5  6  1  0
  6  7  2  0
  7  8  1  0
  8  9  2  0
  9 10  1  0
 10 11  2  0
  5 12  1  0
 12 13  1  0
 13 14  1  0
 14 15  1  0
 15 16  1  0
 16 17  2  0
 16 18  1  0
 18 19  1  0
 18 20  1  0
 20 21  1  0
 21 22  2  0
 22 23  1  0
 23 24  2  0
 24 25  1  0
 25 26  2  0
 26 27  1  0
 15 28  1  0
 28 29  1  0
 11  6  1  0
 29 12  1  0
 26 21  1  0
  1 30  1  0
  1 31  1  0
  1 32  1  0
  2 33  1  0
  2 34  1  0
  7 35  1  0
  8 36  1  0
  9 37  1  0
 10 38  1  0
 11 39  1  0
 12 40  1  0
 13 41  1  0
 13 42  1  0
 14 43  1  0
 14 44  1  0
 18 45  1  6
 19 46  1  0
 19 47  1  0
 20 48  1  0
 20 49  1  0
 22 50  1  0
 23 51  1  0
 24 52  1  0
 25 53  1  0
 28 54  1  0
 28 55  1  0
 29 56  1  0
 29 57  1  0
M  END
>  <smiles>  (10) 
CCC(=O)N(c1ccccc1)C1CCN(C(=O)[C@H](N)Cc2ccccc2Br)CC1

>  <score_type>  (10) 
oracle

>  <origin>  (10) 
autodockgpu

>  <m_score__min__energy>  (10) 
-8.3100000000000005

>  <m_primary>  (10) 
energy

>  <rmsd>  (10) 
4.414409588112224

>  <m_score__min__rmsd>  (10) 
4.414409588112224

>  <meeko>  (10) 
{"free_energy": -5.93, "intermolecular_energy": -8.32, "internal_energy": -3.24, "cluster_size": 3, "cluster_id": 13, "rank_in_cluster": 1}

>  <energy>  (10) 
-7.61

>  <cluster_rmsd>  (10) 
0.0

>  <cluster>  (10) 
2

$$$$

     RDKit          3D

 57 59  0  0  0  0  0  0  0  0999 V2000
  145.4920   73.5530  216.5350 C   0  0  0  0  0  0  0  0  0  0  0  0
  144.7760   72.4330  217.2000 C   0  0  0  0  0  0  0  0  0  0  0  0
  145.3240   72.0220  218.5170 C   0  0  0  0  0  0  0  0  0  0  0  0
  146.2560   72.7070  219.0160 O   0  0  0  0  0  0  0  0  0  0  0  0
  144.7900   70.8670  219.1870 N   0  0  0  0  0  0  0  0  0  0  0  0
  145.2610   69.5820  218.7840 C   0  0  0  0  0  0  0  0  0  0  0  0
  145.1000   68.5610  219.7090 C   0  0  0  0  0  0  0  0  0  0  0  0
  145.5060   67.2620  219.4650 C   0  0  0  0  0  0  0  0  0  0  0  0
  146.0890   67.0190  218.2390 C   0  0  0  0  0  0  0  0  0  0  0  0
  146.2640   68.0290  217.2870 C   0  0  0  0  0  0  0  0  0  0  0  0
  145.8430   69.3370  217.5610 C   0  0  0  0  0  0  0  0  0  0  0  0
  143.7600   71.0160  220.2290 C   0  0  0  0  0  0  0  0  0  0  0  0
  143.6700   72.3650  220.7980 C   0  0  0  0  0  0  0  0  0  0  0  0
  142.4080   73.1290  220.6390 C   0  0  0  0  0  0  0  0  0  0  0  0
  141.2330   72.2160  220.6500 N   0  0  0  0  0  0  0  0  0  0  0  0
  140.3130   72.4360  221.6540 C   0  0  0  0  0  0  0  0  0  0  0  0
  140.6590   73.4170  222.4610 O   0  0  0  0  0  0  0  0  0  0  0  0
  139.0440   71.8210  222.0200 C   0  0  2  0  0  0  0  0  0  0  0  0
  138.1690   72.6960  222.7110 N   0  0  0  0  0  0  0  0  0  0  0  0
  139.3210   70.5050  222.7240 C   0  0  0  0  0  0  0  0  0  0  0  0
  139.8370   70.6030  224.0830 C   0  0  0  0  0  0  0  0  0  0  0  0
  141.0520   71.1830  224.4280 C   0  0  0  0  0  0  0  0  0  0  0  0
  141.4660   71.3080  225.7490 C   0  0  0  0  0  0  0  0  0  0  0  0
  140.6950   70.8630  226.8000 C   0  0  0  0  0  0  0  0  0  0  0  0
  139.4830   70.2820  226.4680 C   0  0  0  0  0  0  0  0  0  0  0  0
  139.0670   70.1550  225.1430 C   0  0  0  0  0  0  0  0  0  0  0  0
  137.4050   69.2290  224.8950 Br  0  0  0  0  0  0  0  0  0  0  0  0
  141.2820   71.2290  219.6070 C   0  0  0  0  0  0  0  0  0  0  0  0
  142.4860   70.3840  219.8370 C   0  0  0  0  0  0  0  0  0  0  0  0
  145.9185   74.2202  217.2985 H   0  0  0  0  0  0  0  0  0  0  0  0
  146.3004   73.1501  215.9072 H   0  0  0  0  0  0  0  0  0  0  0  0
  144.7869   74.1176  215.9072 H   0  0  0  0  0  0  0  0  0  0  0  0
  143.7298   72.7388  217.3478 H   0  0  0  0  0  0  0  0  0  0  0  0
  144.8917   71.5624  216.5376 H   0  0  0  0  0  0  0  0  0  0  0  0
  144.6303   68.7942  220.6759 H   0  0  0  0  0  0  0  0  0  0  0  0
  145.3710   66.4640  220.2099 H   0  0  0  0  0  0  0  0  0  0  0  0
  146.4269   65.9993  218.0023 H   0  0  0  0  0  0  0  0  0  0  0  0
  146.7337   67.7955  216.3201 H   0  0  0  0  0  0  0  0  0  0  0  0
  145.9734   70.1419  216.8227 H   0  0  0  0  0  0  0  0  0  0  0  0
  144.0959   70.4352  221.1007 H   0  0  0  0  0  0  0  0  0  0  0  0
  143.8573   72.2727  221.8780 H   0  0  0  0  0  0  0  0  0  0  0  0
  144.4047   72.9451  220.2202 H   0  0  0  0  0  0  0  0  0  0  0  0
  142.3144   73.8472  221.4669 H   0  0  0  0  0  0  0  0  0  0  0  0
  142.4349   73.6577  219.6748 H   0  0  0  0  0  0  0  0  0  0  0  0
  138.4747   71.5958  221.1061 H   0  0  0  0  0  0  0  0  0  0  0  0
  137.5780   72.2930  223.4350 H   0  0  0  0  0  0  0  0  0  0  0  0
  138.4690   73.6640  222.7770 H   0  0  0  0  0  0  0  0  0  0  0  0
  138.3786   69.9390  222.7620 H   0  0  0  0  0  0  0  0  0  0  0  0
  140.1158   70.0181  222.1398 H   0  0  0  0  0  0  0  0  0  0  0  0
  141.7086   71.5560  223.6281 H   0  0  0  0  0  0  0  0  0  0  0  0
  142.4384   71.7763  225.9614 H   0  0  0  0  0  0  0  0  0  0  0  0
  141.0239   70.9636  227.8449 H   0  0  0  0  0  0  0  0  0  0  0  0
  138.8302   69.9103  227.2715 H   0  0  0  0  0  0  0  0  0  0  0  0
  140.3760   70.6060  219.6383 H   0  0  0  0  0  0  0  0  0  0  0  0
  141.3352   71.7138  218.6211 H   0  0  0  0  0  0  0  0  0  0  0  0
  142.2267   69.6695  220.6322 H   0  0  0  0  0  0  0  0  0  0  0  0
  142.7019   69.9703  218.8409 H   0  0  0  0  0  0  0  0  0  0  0  0
  1  2  1  0
  2  3  1  0
  3  4  2  0
  3  5  1  0
  5  6  1  0
  6  7  2  0
  7  8  1  0
  8  9  2  0
  9 10  1  0
 10 11  2  0
  5 12  1  0
 12 13  1  0
 13 14  1  0
 14 15  1  0
 15 16  1  0
 16 17  2  0
 16 18  1  0
 18 19  1  0
 18 20  1  0
 20 21  1  0
 21 22  2  0
 22 23  1  0
 23 24  2  0
 24 25  1  0
 25 26  2  0
 26 27  1  0
 15 28  1  0
 28 29  1  0
 11  6  1  0
 29 12  1  0
 26 21  1  0
  1 30  1  0
  1 31  1  0
  1 32  1  0
  2 33  1  0
  2 34  1  0
  7 35  1  0
  8 36  1  0
  9 37  1  0
 10 38  1  0
 11 39  1  0
 12 40  1  0
 13 41  1  0
 13 42  1  0
 14 43  1  0
 14 44  1  0
 18 45  1  6
 19 46  1  0
 19 47  1  0
 20 48  1  0
 20 49  1  0
 22 50  1  0
 23 51  1  0
 24 52  1  0
 25 53  1  0
 28 54  1  0
 28 55  1  0
 29 56  1  0
 29 57  1  0
M  END
>  <smiles>  (11) 
CCC(=O)N(c1ccccc1)C1CCN(C(=O)[C@H](N)Cc2ccccc2Br)CC1

>  <score_type>  (11) 
oracle

>  <origin>  (11) 
autodockgpu

>  <m_score__min__energy>  (11) 
-8.3100000000000005

>  <m_primary>  (11) 
energy

>  <rmsd>  (11) 
8.428209934520943

>  <m_score__min__rmsd>  (11) 
8.428209934520943

>  <meeko>  (11) 
{"free_energy": -7.2, "intermolecular_energy": -9.59, "internal_energy": -2.46, "cluster_size": 7, "cluster_id": 2, "rank_in_cluster": 4}

>  <energy>  (11) 
-7.59

>  <cluster_rmsd>  (11) 
0.42

>  <cluster>  (11) 
2

$$$$

     RDKit          3D

 57 59  0  0  0  0  0  0  0  0999 V2000
  143.9660   74.4450  220.4190 C   0  0  0  0  0  0  0  0  0  0  0  0
  143.1070   74.1420  219.2440 C   0  0  0  0  0  0  0  0  0  0  0  0
  141.6650   74.4520  219.4150 C   0  0  0  0  0  0  0  0  0  0  0  0
  140.8770   74.1670  218.4740 O   0  0  0  0  0  0  0  0  0  0  0  0
  141.2020   75.0640  220.6310 N   0  0  0  0  0  0  0  0  0  0  0  0
  141.3140   76.4810  220.7510 C   0  0  0  0  0  0  0  0  0  0  0  0
  141.6960   77.1580  219.6010 C   0  0  0  0  0  0  0  0  0  0  0  0
  141.8470   78.5310  219.5590 C   0  0  0  0  0  0  0  0  0  0  0  0
  141.5970   79.2140  220.7310 C   0  0  0  0  0  0  0  0  0  0  0  0
  141.2110   78.5590  221.9050 C   0  0  0  0  0  0  0  0  0  0  0  0
  141.0650   77.1660  221.9190 C   0  0  0  0  0  0  0  0  0  0  0  0
  140.6670   74.2390  221.7270 C   0  0  0  0  0  0  0  0  0  0  0  0
  139.2330   74.4200  221.9710 C   0  0  0  0  0  0  0  0  0  0  0  0
  138.3210   73.2630  221.7940 C   0  0  0  0  0  0  0  0  0  0  0  0
  139.0040   71.9930  222.1600 N   0  0  0  0  0  0  0  0  0  0  0  0
  138.4260   71.2780  223.1900 C   0  0  0  0  0  0  0  0  0  0  0  0
  137.3670   71.8740  223.6970 O   0  0  0  0  0  0  0  0  0  0  0  0
  138.7300   70.0110  223.8410 C   0  0  2  0  0  0  0  0  0  0  0  0
  137.8230   69.6740  224.8760 N   0  0  0  0  0  0  0  0  0  0  0  0
  140.1930   70.0040  224.2430 C   0  0  0  0  0  0  0  0  0  0  0  0
  140.4900   70.5030  225.5800 C   0  0  0  0  0  0  0  0  0  0  0  0
  140.8450   71.8140  225.8750 C   0  0  0  0  0  0  0  0  0  0  0  0
  141.0550   72.2510  227.1780 C   0  0  0  0  0  0  0  0  0  0  0  0
  140.9230   71.4090  228.2600 C   0  0  0  0  0  0  0  0  0  0  0  0
  140.5710   70.1000  227.9780 C   0  0  0  0  0  0  0  0  0  0  0  0
  140.3620   69.6590  226.6710 C   0  0  0  0  0  0  0  0  0  0  0  0
  139.9830   67.7870  226.4910 Br  0  0  0  0  0  0  0  0  0  0  0  0
  140.1830   71.7450  221.3780 C   0  0  0  0  0  0  0  0  0  0  0  0
  141.1480   72.8460  221.6510 C   0  0  0  0  0  0  0  0  0  0  0  0
  143.4049   74.2471  221.3442 H   0  0  0  0  0  0  0  0  0  0  0  0
  144.8631   73.8091  220.3911 H   0  0  0  0  0  0  0  0  0  0  0  0
  144.2656   75.5031  220.3911 H   0  0  0  0  0  0  0  0  0  0  0  0
  143.4811   74.7258  218.3901 H   0  0  0  0  0  0  0  0  0  0  0  0
  143.1684   73.0539  219.0950 H   0  0  0  0  0  0  0  0  0  0  0  0
  141.8863   76.5780  218.6859 H   0  0  0  0  0  0  0  0  0  0  0  0
  142.1507   79.0520  218.6390 H   0  0  0  0  0  0  0  0  0  0  0  0
  141.7046   80.3087  220.7427 H   0  0  0  0  0  0  0  0  0  0  0  0
  141.0215   79.1395  222.8199 H   0  0  0  0  0  0  0  0  0  0  0  0
  140.7611   76.6363  222.8339 H   0  0  0  0  0  0  0  0  0  0  0  0
  141.0967   74.6259  222.6628 H   0  0  0  0  0  0  0  0  0  0  0  0
  139.1236   74.7604  223.0113 H   0  0  0  0  0  0  0  0  0  0  0  0
  138.9193   75.1252  221.1872 H   0  0  0  0  0  0  0  0  0  0  0  0
  137.4390   73.3969  222.4376 H   0  0  0  0  0  0  0  0  0  0  0  0
  138.0188   73.2098  220.7377 H   0  0  0  0  0  0  0  0  0  0  0  0
  138.5791   69.1907  223.1238 H   0  0  0  0  0  0  0  0  0  0  0  0
  137.0660   70.3270  225.0680 H   0  0  0  0  0  0  0  0  0  0  0  0
  137.6970   68.6820  225.0530 H   0  0  0  0  0  0  0  0  0  0  0  0
  140.5537   68.9665  224.1830 H   0  0  0  0  0  0  0  0  0  0  0  0
  140.6946   70.6953  223.5499 H   0  0  0  0  0  0  0  0  0  0  0  0
  140.9639   72.5306  225.0490 H   0  0  0  0  0  0  0  0  0  0  0  0
  141.3350   73.3008  227.3500 H   0  0  0  0  0  0  0  0  0  0  0  0
  141.0880   71.7570  229.2904 H   0  0  0  0  0  0  0  0  0  0  0  0
  140.4528   69.3877  228.8078 H   0  0  0  0  0  0  0  0  0  0  0  0
  140.6258   70.7795  221.6638 H   0  0  0  0  0  0  0  0  0  0  0  0
  139.9340   71.7080  220.3072 H   0  0  0  0  0  0  0  0  0  0  0  0
  141.6245   72.6202  222.6164 H   0  0  0  0  0  0  0  0  0  0  0  0
  141.7937   72.8467  220.7604 H   0  0  0  0  0  0  0  0  0  0  0  0
  1  2  1  0
  2  3  1  0
  3  4  2  0
  3  5  1  0
  5  6  1  0
  6  7  2  0
  7  8  1  0
  8  9  2  0
  9 10  1  0
 10 11  2  0
  5 12  1  0
 12 13  1  0
 13 14  1  0
 14 15  1  0
 15 16  1  0
 16 17  2  0
 16 18  1  0
 18 19  1  0
 18 20  1  0
 20 21  1  0
 21 22  2  0
 22 23  1  0
 23 24  2  0
 24 25  1  0
 25 26  2  0
 26 27  1  0
 15 28  1  0
 28 29  1  0
 11  6  1  0
 29 12  1  0
 26 21  1  0
  1 30  1  0
  1 31  1  0
  1 32  1  0
  2 33  1  0
  2 34  1  0
  7 35  1  0
  8 36  1  0
  9 37  1  0
 10 38  1  0
 11 39  1  0
 12 40  1  0
 13 41  1  0
 13 42  1  0
 14 43  1  0
 14 44  1  0
 18 45  1  6
 19 46  1  0
 19 47  1  0
 20 48  1  0
 20 49  1  0
 22 50  1  0
 23 51  1  0
 24 52  1  0
 25 53  1  0
 28 54  1  0
 28 55  1  0
 29 56  1  0
 29 57  1  0
M  END
>  <smiles>  (12) 
CCC(=O)N(c1ccccc1)C1CCN(C(=O)[C@H](N)Cc2ccccc2Br)CC1

>  <score_type>  (12) 
oracle

>  <origin>  (12) 
autodockgpu

>  <m_score__min__energy>  (12) 
-8.3100000000000005

>  <m_primary>  (12) 
energy

>  <rmsd>  (12) 
8.361323393520552

>  <m_score__min__rmsd>  (12) 
8.361323393520552

>  <meeko>  (12) 
{"free_energy": -6.98, "intermolecular_energy": -9.37, "internal_energy": -2.63, "cluster_size": 5, "cluster_id": 4, "rank_in_cluster": 5}

>  <energy>  (12) 
-7.47

>  <cluster_rmsd>  (12) 
0.39

>  <cluster>  (12) 
2

$$$$

     RDKit          3D

 57 59  0  0  0  0  0  0  0  0999 V2000
  146.3360   73.2470  221.9890 C   0  0  0  0  0  0  0  0  0  0  0  0
  146.5000   73.7580  220.6030 C   0  0  0  0  0  0  0  0  0  0  0  0
  145.5060   73.2580  219.6200 C   0  0  0  0  0  0  0  0  0  0  0  0
  145.8720   72.3790  218.7940 O   0  0  0  0  0  0  0  0  0  0  0  0
  144.1660   73.7790  219.6280 N   0  0  0  0  0  0  0  0  0  0  0  0
  143.7500   74.5720  218.5170 C   0  0  0  0  0  0  0  0  0  0  0  0
  143.6730   75.9390  218.7440 C   0  0  0  0  0  0  0  0  0  0  0  0
  143.2870   76.8370  217.7670 C   0  0  0  0  0  0  0  0  0  0  0  0
  142.9750   76.3080  216.5320 C   0  0  0  0  0  0  0  0  0  0  0  0
  143.0440   74.9350  216.2740 C   0  0  0  0  0  0  0  0  0  0  0  0
  143.4390   74.0470  217.2830 C   0  0  0  0  0  0  0  0  0  0  0  0
  143.2710   73.5270  220.7700 C   0  0  0  0  0  0  0  0  0  0  0  0
  142.1120   74.4220  220.8350 C   0  0  0  0  0  0  0  0  0  0  0  0
  140.7500   73.8430  220.7330 C   0  0  0  0  0  0  0  0  0  0  0  0
  140.7040   72.4890  221.3470 N   0  0  0  0  0  0  0  0  0  0  0  0
  139.8290   72.3400  222.4040 C   0  0  0  0  0  0  0  0  0  0  0  0
  139.1970   73.4540  222.7070 O   0  0  0  0  0  0  0  0  0  0  0  0
  139.4510   71.2220  223.2580 C   0  0  2  0  0  0  0  0  0  0  0  0
  138.3100   71.4810  224.0570 N   0  0  0  0  0  0  0  0  0  0  0  0
  140.6750   70.7530  224.0230 C   0  0  0  0  0  0  0  0  0  0  0  0
  140.6250   70.9150  225.4710 C   0  0  0  0  0  0  0  0  0  0  0  0
  141.1090   72.0200  226.1610 C   0  0  0  0  0  0  0  0  0  0  0  0
  140.9760   72.1500  227.5380 C   0  0  0  0  0  0  0  0  0  0  0  0
  140.3550   71.1900  228.3060 C   0  0  0  0  0  0  0  0  0  0  0  0
  139.8710   70.0830  227.6290 C   0  0  0  0  0  0  0  0  0  0  0  0
  140.0040   69.9510  226.2470 C   0  0  0  0  0  0  0  0  0  0  0  0
  139.3570   68.2970  225.5190 Br  0  0  0  0  0  0  0  0  0  0  0  0
  141.6200   71.5660  220.7360 C   0  0  0  0  0  0  0  0  0  0  0  0
  142.9980   72.0870  220.9450 C   0  0  0  0  0  0  0  0  0  0  0  0
  146.5911   74.0418  222.7054 H   0  0  0  0  0  0  0  0  0  0  0  0
  145.2926   72.9350  222.1437 H   0  0  0  0  0  0  0  0  0  0  0  0
  147.0029   72.3860  222.1437 H   0  0  0  0  0  0  0  0  0  0  0  0
  146.4247   74.8550  220.6342 H   0  0  0  0  0  0  0  0  0  0  0  0
  147.4786   73.3927  220.2582 H   0  0  0  0  0  0  0  0  0  0  0  0
  143.9297   76.3234  219.7422 H   0  0  0  0  0  0  0  0  0  0  0  0
  143.2315   77.9178  217.9641 H   0  0  0  0  0  0  0  0  0  0  0  0
  142.6622   76.9869  215.7250 H   0  0  0  0  0  0  0  0  0  0  0  0
  142.7873   74.5512  215.2756 H   0  0  0  0  0  0  0  0  0  0  0  0
  143.4987   72.9648  217.0952 H   0  0  0  0  0  0  0  0  0  0  0  0
  143.8176   73.8150  221.6801 H   0  0  0  0  0  0  0  0  0  0  0  0
  142.1664   74.9504  221.7982 H   0  0  0  0  0  0  0  0  0  0  0  0
  142.2046   75.0399  219.9297 H   0  0  0  0  0  0  0  0  0  0  0  0
  140.0389   74.5000  221.2551 H   0  0  0  0  0  0  0  0  0  0  0  0
  140.4823   73.7570  219.6695 H   0  0  0  0  0  0  0  0  0  0  0  0
  139.1110   70.3856  222.6296 H   0  0  0  0  0  0  0  0  0  0  0  0
  138.2840   71.0670  224.9870 H   0  0  0  0  0  0  0  0  0  0  0  0
  137.8290   72.3570  223.8760 H   0  0  0  0  0  0  0  0  0  0  0  0
  140.8162   69.6833  223.8088 H   0  0  0  0  0  0  0  0  0  0  0  0
  141.5014   71.3936  223.6815 H   0  0  0  0  0  0  0  0  0  0  0  0
  141.6144   72.8186  225.5981 H   0  0  0  0  0  0  0  0  0  0  0  0
  141.3792   73.0474  228.0300 H   0  0  0  0  0  0  0  0  0  0  0  0
  140.2494   71.2966  229.3957 H   0  0  0  0  0  0  0  0  0  0  0  0
  139.3681   69.2863  228.1967 H   0  0  0  0  0  0  0  0  0  0  0  0
  141.5198   70.5751  221.2029 H   0  0  0  0  0  0  0  0  0  0  0  0
  141.4057   71.4665  219.6617 H   0  0  0  0  0  0  0  0  0  0  0  0
  143.2822   71.8318  221.9765 H   0  0  0  0  0  0  0  0  0  0  0  0
  143.5745   71.6172  220.1345 H   0  0  0  0  0  0  0  0  0  0  0  0
  1  2  1  0
  2  3  1  0
  3  4  2  0
  3  5  1  0
  5  6  1  0
  6  7  2  0
  7  8  1  0
  8  9  2  0
  9 10  1  0
 10 11  2  0
  5 12  1  0
 12 13  1  0
 13 14  1  0
 14 15  1  0
 15 16  1  0
 16 17  2  0
 16 18  1  0
 18 19  1  0
 18 20  1  0
 20 21  1  0
 21 22  2  0
 22 23  1  0
 23 24  2  0
 24 25  1  0
 25 26  2  0
 26 27  1  0
 15 28  1  0
 28 29  1  0
 11  6  1  0
 29 12  1  0
 26 21  1  0
  1 30  1  0
  1 31  1  0
  1 32  1  0
  2 33  1  0
  2 34  1  0
  7 35  1  0
  8 36  1  0
  9 37  1  0
 10 38  1  0
 11 39  1  0
 12 40  1  0
 13 41  1  0
 13 42  1  0
 14 43  1  0
 14 44  1  0
 18 45  1  6
 19 46  1  0
 19 47  1  0
 20 48  1  0
 20 49  1  0
 22 50  1  0
 23 51  1  0
 24 52  1  0
 25 53  1  0
 28 54  1  0
 28 55  1  0
 29 56  1  0
 29 57  1  0
M  END
>  <smiles>  (13) 
CCC(=O)N(c1ccccc1)C1CCN(C(=O)[C@H](N)Cc2ccccc2Br)CC1

>  <score_type>  (13) 
oracle

>  <origin>  (13) 
autodockgpu

>  <m_score__min__energy>  (13) 
-8.3100000000000005

>  <m_primary>  (13) 
energy

>  <rmsd>  (13) 
7.980112536331469

>  <m_score__min__rmsd>  (13) 
7.980112536331469

>  <meeko>  (13) 
{"free_energy": -8.31, "intermolecular_energy": -10.7, "internal_energy": -2.41, "cluster_size": 9, "cluster_id": 1, "rank_in_cluster": 1}

>  <energy>  (13) 
-7.2

>  <cluster_rmsd>  (13) 
1.01

>  <cluster>  (13) 
2

$$$$

     RDKit          3D

 57 59  0  0  0  0  0  0  0  0999 V2000
  140.2730   74.6540  218.3430 C   0  0  0  0  0  0  0  0  0  0  0  0
  139.6620   74.6310  219.6980 C   0  0  0  0  0  0  0  0  0  0  0  0
  140.6110   74.8030  220.8270 C   0  0  0  0  0  0  0  0  0  0  0  0
  140.2410   74.4480  221.9780 O   0  0  0  0  0  0  0  0  0  0  0  0
  141.9130   75.3640  220.5890 N   0  0  0  0  0  0  0  0  0  0  0  0
  143.0220   74.4690  220.5080 C   0  0  0  0  0  0  0  0  0  0  0  0
  142.7150   73.1180  220.5750 C   0  0  0  0  0  0  0  0  0  0  0  0
  143.6790   72.1300  220.5110 C   0  0  0  0  0  0  0  0  0  0  0  0
  144.9850   72.5520  220.3750 C   0  0  0  0  0  0  0  0  0  0  0  0
  145.3240   73.9070  220.3050 C   0  0  0  0  0  0  0  0  0  0  0  0
  144.3260   74.8880  220.3720 C   0  0  0  0  0  0  0  0  0  0  0  0
  142.0910   76.8210  220.4720 C   0  0  0  0  0  0  0  0  0  0  0  0
  142.6100   77.2620  219.1740 C   0  0  0  0  0  0  0  0  0  0  0  0
  141.7760   78.1520  218.3300 C   0  0  0  0  0  0  0  0  0  0  0  0
  140.9570   79.0640  219.1740 N   0  0  0  0  0  0  0  0  0  0  0  0
  141.1800   80.4130  218.9890 C   0  0  0  0  0  0  0  0  0  0  0  0
  142.1200   80.6600  218.1010 O   0  0  0  0  0  0  0  0  0  0  0  0
  140.6070   81.6240  219.5610 C   0  0  2  0  0  0  0  0  0  0  0  0
  140.4680   82.6800  218.6270 N   0  0  0  0  0  0  0  0  0  0  0  0
  141.3730   81.9810  220.8220 C   0  0  0  0  0  0  0  0  0  0  0  0
  141.4270   80.9490  221.8510 C   0  0  0  0  0  0  0  0  0  0  0  0
  142.5620   80.2170  222.1780 C   0  0  0  0  0  0  0  0  0  0  0  0
  142.5740   79.2900  223.2130 C   0  0  0  0  0  0  0  0  0  0  0  0
  141.4580   79.0390  223.9810 C   0  0  0  0  0  0  0  0  0  0  0  0
  140.3200   79.7620  223.6630 C   0  0  0  0  0  0  0  0  0  0  0  0
  140.3070   80.6920  222.6230 C   0  0  0  0  0  0  0  0  0  0  0  0
  138.6050   81.5090  222.2820 Br  0  0  0  0  0  0  0  0  0  0  0  0
  140.0800   78.3610  220.0700 C   0  0  0  0  0  0  0  0  0  0  0  0
  140.9260   77.5600  220.9970 C   0  0  0  0  0  0  0  0  0  0  0  0
  141.3683   74.6952  218.4353 H   0  0  0  0  0  0  0  0  0  0  0  0
  139.9852   73.7444  217.7955 H   0  0  0  0  0  0  0  0  0  0  0  0
  139.9176   75.5394  217.7955 H   0  0  0  0  0  0  0  0  0  0  0  0
  138.9215   75.4427  219.7503 H   0  0  0  0  0  0  0  0  0  0  0  0
  139.2270   73.6278  219.8176 H   0  0  0  0  0  0  0  0  0  0  0  0
  141.6614   72.8210  220.6835 H   0  0  0  0  0  0  0  0  0  0  0  0
  143.4184   71.0627  220.5657 H   0  0  0  0  0  0  0  0  0  0  0  0
  145.7851   71.7991  220.3199 H   0  0  0  0  0  0  0  0  0  0  0  0
  146.3778   74.2035  220.1970 H   0  0  0  0  0  0  0  0  0  0  0  0
  144.5763   75.9578  220.3177 H   0  0  0  0  0  0  0  0  0  0  0  0
  142.9177   77.1005  221.1416 H   0  0  0  0  0  0  0  0  0  0  0  0
  143.5536   77.7931  219.3679 H   0  0  0  0  0  0  0  0  0  0  0  0
  142.6796   76.3332  218.5888 H   0  0  0  0  0  0  0  0  0  0  0  0
  142.4311   78.7519  217.6812 H   0  0  0  0  0  0  0  0  0  0  0  0
  141.1006   77.5315  217.7227 H   0  0  0  0  0  0  0  0  0  0  0  0
  139.5636   81.4292  219.8497 H   0  0  0  0  0  0  0  0  0  0  0  0
  141.0270   82.6330  217.7780 H   0  0  0  0  0  0  0  0  0  0  0  0
  139.5690   83.1520  218.6200 H   0  0  0  0  0  0  0  0  0  0  0  0
  142.4064   82.2209  220.5314 H   0  0  0  0  0  0  0  0  0  0  0  0
  140.8257   82.8216  221.2735 H   0  0  0  0  0  0  0  0  0  0  0  0
  143.4826   80.3769  221.5975 H   0  0  0  0  0  0  0  0  0  0  0  0
  143.5026   78.7399  223.4256 H   0  0  0  0  0  0  0  0  0  0  0  0
  141.4700   78.3056  224.8007 H   0  0  0  0  0  0  0  0  0  0  0  0
  139.4018   79.5985  224.2462 H   0  0  0  0  0  0  0  0  0  0  0  0
  139.4746   79.0795  220.6420 H   0  0  0  0  0  0  0  0  0  0  0  0
  139.3991   77.7057  219.5070 H   0  0  0  0  0  0  0  0  0  0  0  0
  141.3066   78.2538  221.7610 H   0  0  0  0  0  0  0  0  0  0  0  0
  140.2488   76.7621  221.3358 H   0  0  0  0  0  0  0  0  0  0  0  0
  1  2  1  0
  2  3  1  0
  3  4  2  0
  3  5  1  0
  5  6  1  0
  6  7  2  0
  7  8  1  0
  8  9  2  0
  9 10  1  0
 10 11  2  0
  5 12  1  0
 12 13  1  0
 13 14  1  0
 14 15  1  0
 15 16  1  0
 16 17  2  0
 16 18  1  0
 18 19  1  0
 18 20  1  0
 20 21  1  0
 21 22  2  0
 22 23  1  0
 23 24  2  0
 24 25  1  0
 25 26  2  0
 26 27  1  0
 15 28  1  0
 28 29  1  0
 11  6  1  0
 29 12  1  0
 26 21  1  0
  1 30  1  0
  1 31  1  0
  1 32  1  0
  2 33  1  0
  2 34  1  0
  7 35  1  0
  8 36  1  0
  9 37  1  0
 10 38  1  0
 11 39  1  0
 12 40  1  0
 13 41  1  0
 13 42  1  0
 14 43  1  0
 14 44  1  0
 18 45  1  1
 19 46  1  0
 19 47  1  0
 20 48  1  0
 20 49  1  0
 22 50  1  0
 23 51  1  0
 24 52  1  0
 25 53  1  0
 28 54  1  0
 28 55  1  0
 29 56  1  0
 29 57  1  0
M  END
>  <smiles>  (14) 
CCC(=O)N(c1ccccc1)C1CCN(C(=O)[C@H](N)Cc2ccccc2Br)CC1

>  <score_type>  (14) 
oracle

>  <origin>  (14) 
autodockgpu

>  <m_score__min__energy>  (14) 
-8.3100000000000005

>  <m_primary>  (14) 
energy

>  <rmsd>  (14) 
5.560078992458622

>  <m_score__min__rmsd>  (14) 
5.560078992458622

>  <meeko>  (14) 
{"free_energy": -6.27, "intermolecular_energy": -8.65, "internal_energy": -3.15, "cluster_size": 9, "cluster_id": 11, "rank_in_cluster": 5}

>  <energy>  (14) 
-6.86

>  <cluster_rmsd>  (14) 
1.45

>  <cluster>  (14) 
2

$$$$

     RDKit          3D

 57 59  0  0  0  0  0  0  0  0999 V2000
  138.8190   67.3280  222.7540 C   0  0  0  0  0  0  0  0  0  0  0  0
  137.8080   68.4140  222.8400 C   0  0  0  0  0  0  0  0  0  0  0  0
  137.6220   69.0020  224.1910 C   0  0  0  0  0  0  0  0  0  0  0  0
  136.5220   68.8150  224.7770 O   0  0  0  0  0  0  0  0  0  0  0  0
  138.6820   69.7640  224.7940 N   0  0  0  0  0  0  0  0  0  0  0  0
  139.4380   69.1490  225.8360 C   0  0  0  0  0  0  0  0  0  0  0  0
  139.6310   69.9160  226.9770 C   0  0  0  0  0  0  0  0  0  0  0  0
  140.3410   69.4590  228.0710 C   0  0  0  0  0  0  0  0  0  0  0  0
  140.8600   68.1840  227.9810 C   0  0  0  0  0  0  0  0  0  0  0  0
  140.6810   67.3890  226.8440 C   0  0  0  0  0  0  0  0  0  0  0  0
  139.9560   67.8770  225.7490 C   0  0  0  0  0  0  0  0  0  0  0  0
  138.9450   71.1480  224.3670 C   0  0  0  0  0  0  0  0  0  0  0  0
  140.3490   71.4200  224.0410 C   0  0  0  0  0  0  0  0  0  0  0  0
  140.7000   71.8290  222.6580 C   0  0  0  0  0  0  0  0  0  0  0  0
  139.6040   72.6330  222.0510 N   0  0  0  0  0  0  0  0  0  0  0  0
  139.9450   73.9150  221.6700 C   0  0  0  0  0  0  0  0  0  0  0  0
  141.1970   74.2160  221.9420 O   0  0  0  0  0  0  0  0  0  0  0  0
  139.2230   75.0090  221.0330 C   0  0  2  0  0  0  0  0  0  0  0  0
  139.9980   75.7210  220.0840 N   0  0  0  0  0  0  0  0  0  0  0  0
  138.5810   75.8650  222.1080 C   0  0  0  0  0  0  0  0  0  0  0  0
  139.3520   77.0200  222.5520 C   0  0  0  0  0  0  0  0  0  0  0  0
  140.7320   77.0330  222.7190 C   0  0  0  0  0  0  0  0  0  0  0  0
  141.4240   78.1820  223.0810 C   0  0  0  0  0  0  0  0  0  0  0  0
  140.7830   79.3820  223.2980 C   0  0  0  0  0  0  0  0  0  0  0  0
  139.4080   79.3800  223.1360 C   0  0  0  0  0  0  0  0  0  0  0  0
  138.7120   78.2280  222.7730 C   0  0  0  0  0  0  0  0  0  0  0  0
  136.8040   78.4150  222.7020 Br  0  0  0  0  0  0  0  0  0  0  0  0
  138.3550   71.9260  221.9960 C   0  0  0  0  0  0  0  0  0  0  0  0
  137.9430   71.6230  223.3940 C   0  0  0  0  0  0  0  0  0  0  0  0
  139.1093   67.0162  223.7681 H   0  0  0  0  0  0  0  0  0  0  0  0
  138.3906   66.4701  222.2151 H   0  0  0  0  0  0  0  0  0  0  0  0
  139.7054   67.6940  222.2151 H   0  0  0  0  0  0  0  0  0  0  0  0
  138.1162   69.2201  222.1580 H   0  0  0  0  0  0  0  0  0  0  0  0
  136.8448   67.9549  222.5727 H   0  0  0  0  0  0  0  0  0  0  0  0
  139.2015   70.9281  227.0116 H   0  0  0  0  0  0  0  0  0  0  0  0
  140.4849   70.0800  228.9675 H   0  0  0  0  0  0  0  0  0  0  0  0
  141.4321   67.7801  228.8293 H   0  0  0  0  0  0  0  0  0  0  0  0
  141.1110   66.3771  226.8095 H   0  0  0  0  0  0  0  0  0  0  0  0
  139.8056   67.2632  224.8487 H   0  0  0  0  0  0  0  0  0  0  0  0
  138.7973   71.7915  225.2468 H   0  0  0  0  0  0  0  0  0  0  0  0
  140.6853   72.2254  224.7106 H   0  0  0  0  0  0  0  0  0  0  0  0
  140.8417   70.4438  224.1607 H   0  0  0  0  0  0  0  0  0  0  0  0
  141.6192   72.4327  222.6826 H   0  0  0  0  0  0  0  0  0  0  0  0
  140.8524   70.9247  222.0505 H   0  0  0  0  0  0  0  0  0  0  0  0
  138.4148   74.5963  220.4113 H   0  0  0  0  0  0  0  0  0  0  0  0
  139.5990   76.5750  219.6980 H   0  0  0  0  0  0  0  0  0  0  0  0
  141.0050   75.6220  220.1670 H   0  0  0  0  0  0  0  0  0  0  0  0
  137.6206   76.2319  221.7168 H   0  0  0  0  0  0  0  0  0  0  0  0
  138.4893   75.2136  222.9896 H   0  0  0  0  0  0  0  0  0  0  0  0
  141.2953   76.1018  222.5591 H   0  0  0  0  0  0  0  0  0  0  0  0
  142.5166   78.1321  223.1979 H   0  0  0  0  0  0  0  0  0  0  0  0
  141.3328   80.2908  223.5840 H   0  0  0  0  0  0  0  0  0  0  0  0
  138.8492   80.3135  223.2983 H   0  0  0  0  0  0  0  0  0  0  0  0
  137.5924   72.5507  221.5080 H   0  0  0  0  0  0  0  0  0  0  0  0
  138.4640   70.9970  221.4171 H   0  0  0  0  0  0  0  0  0  0  0  0
  137.5117   72.5471  223.8063 H   0  0  0  0  0  0  0  0  0  0  0  0
  137.2693   70.7609  223.2802 H   0  0  0  0  0  0  0  0  0  0  0  0
  1  2  1  0
  2  3  1  0
  3  4  2  0
  3  5  1  0
  5  6  1  0
  6  7  2  0
  7  8  1  0
  8  9  2  0
  9 10  1  0
 10 11  2  0
  5 12  1  0
 12 13  1  0
 13 14  1  0
 14 15  1  0
 15 16  1  0
 16 17  2  0
 16 18  1  0
 18 19  1  0
 18 20  1  0
 20 21  1  0
 21 22  2  0
 22 23  1  0
 23 24  2  0
 24 25  1  0
 25 26  2  0
 26 27  1  0
 15 28  1  0
 28 29  1  0
 11  6  1  0
 29 12  1  0
 26 21  1  0
  1 30  1  0
  1 31  1  0
  1 32  1  0
  2 33  1  0
  2 34  1  0
  7 35  1  0
  8 36  1  0
  9 37  1  0
 10 38  1  0
 11 39  1  0
 12 40  1  0
 13 41  1  0
 13 42  1  0
 14 43  1  0
 14 44  1  0
 18 45  1  6
 19 46  1  0
 19 47  1  0
 20 48  1  0
 20 49  1  0
 22 50  1  0
 23 51  1  0
 24 52  1  0
 25 53  1  0
 28 54  1  0
 28 55  1  0
 29 56  1  0
 29 57  1  0
M  END
>  <smiles>  (15) 
CCC(=O)N(c1ccccc1)C1CCN(C(=O)[C@H](N)Cc2ccccc2Br)CC1

>  <score_type>  (15) 
oracle

>  <origin>  (15) 
autodockgpu

>  <m_score__min__energy>  (15) 
-8.3100000000000005

>  <m_primary>  (15) 
energy

>  <rmsd>  (15) 
7.389722566887048

>  <m_score__min__rmsd>  (15) 
7.389722566887048

>  <meeko>  (15) 
{"free_energy": -7.18, "intermolecular_energy": -9.56, "internal_energy": -2.3, "cluster_size": 2, "cluster_id": 6, "rank_in_cluster": 1}

>  <energy>  (15) 
-6.79

>  <cluster_rmsd>  (15) 
1.15

>  <cluster>  (15) 
2

$$$$

     RDKit          3D

 57 59  0  0  0  0  0  0  0  0999 V2000
  146.1690   73.7420  221.5480 C   0  0  0  0  0  0  0  0  0  0  0  0
  146.1390   72.6630  220.5270 C   0  0  0  0  0  0  0  0  0  0  0  0
  145.1510   72.8500  219.4340 C   0  0  0  0  0  0  0  0  0  0  0  0
  145.3680   72.2840  218.3290 O   0  0  0  0  0  0  0  0  0  0  0  0
  143.9840   73.6610  219.6540 N   0  0  0  0  0  0  0  0  0  0  0  0
  143.7400   74.7400  218.7520 C   0  0  0  0  0  0  0  0  0  0  0  0
  143.6060   75.9940  219.3310 C   0  0  0  0  0  0  0  0  0  0  0  0
  143.3670   77.1360  218.5890 C   0  0  0  0  0  0  0  0  0  0  0  0
  143.2660   76.9730  217.2230 C   0  0  0  0  0  0  0  0  0  0  0  0
  143.3980   75.7220  216.6130 C   0  0  0  0  0  0  0  0  0  0  0  0
  143.6400   74.5810  217.3880 C   0  0  0  0  0  0  0  0  0  0  0  0
  143.0970   73.4010  220.8000 C   0  0  0  0  0  0  0  0  0  0  0  0
  141.8650   74.1970  220.7990 C   0  0  0  0  0  0  0  0  0  0  0  0
  140.5580   73.4990  220.7180 C   0  0  0  0  0  0  0  0  0  0  0  0
  140.6180   72.1840  221.4120 N   0  0  0  0  0  0  0  0  0  0  0  0
  139.7420   72.0240  222.4660 C   0  0  0  0  0  0  0  0  0  0  0  0
  139.0130   73.0950  222.6950 O   0  0  0  0  0  0  0  0  0  0  0  0
  139.4470   70.9300  223.3820 C   0  0  2  0  0  0  0  0  0  0  0  0
  138.3150   71.1680  224.2010 N   0  0  0  0  0  0  0  0  0  0  0  0
  140.7140   70.5620  224.1320 C   0  0  0  0  0  0  0  0  0  0  0  0
  140.7020   70.8090  225.5680 C   0  0  0  0  0  0  0  0  0  0  0  0
  141.1540   71.9750  226.1750 C   0  0  0  0  0  0  0  0  0  0  0  0
  141.0580   72.1830  227.5460 C   0  0  0  0  0  0  0  0  0  0  0  0
  140.5080   71.2440  228.3890 C   0  0  0  0  0  0  0  0  0  0  0  0
  140.0550   70.0770  227.7960 C   0  0  0  0  0  0  0  0  0  0  0  0
  140.1510   69.8670  226.4210 C   0  0  0  0  0  0  0  0  0  0  0  0
  139.5600   68.1450  225.8160 Br  0  0  0  0  0  0  0  0  0  0  0  0
  141.6170   71.3080  220.8660 C   0  0  0  0  0  0  0  0  0  0  0  0
  142.9430   71.9570  221.0590 C   0  0  0  0  0  0  0  0  0  0  0  0
  146.1566   73.2959  222.5534 H   0  0  0  0  0  0  0  0  0  0  0  0
  147.0841   74.3395  221.4233 H   0  0  0  0  0  0  0  0  0  0  0  0
  145.2885   74.3894  221.4233 H   0  0  0  0  0  0  0  0  0  0  0  0
  147.1389   72.5966  220.0734 H   0  0  0  0  0  0  0  0  0  0  0  0
  145.8345   71.7496  221.0589 H   0  0  0  0  0  0  0  0  0  0  0  0
  143.6934   76.0831  220.4239 H   0  0  0  0  0  0  0  0  0  0  0  0
  143.2628   78.1230  219.0633 H   0  0  0  0  0  0  0  0  0  0  0  0
  143.0756   77.8550  216.5939 H   0  0  0  0  0  0  0  0  0  0  0  0
  143.3114   75.6336  215.5200 H   0  0  0  0  0  0  0  0  0  0  0  0
  143.7467   73.5902  216.9223 H   0  0  0  0  0  0  0  0  0  0  0  0
  143.6048   73.7866  221.6963 H   0  0  0  0  0  0  0  0  0  0  0  0
  141.8598   74.7842  221.7291 H   0  0  0  0  0  0  0  0  0  0  0  0
  141.9191   74.7659  219.8591 H   0  0  0  0  0  0  0  0  0  0  0  0
  139.7860   74.1225  221.1927 H   0  0  0  0  0  0  0  0  0  0  0  0
  140.3142   73.3283  219.6590 H   0  0  0  0  0  0  0  0  0  0  0  0
  139.1357   70.0477  222.8036 H   0  0  0  0  0  0  0  0  0  0  0  0
  138.0300   72.1350  224.3400 H   0  0  0  0  0  0  0  0  0  0  0  0
  137.6250   70.4240  224.2330 H   0  0  0  0  0  0  0  0  0  0  0  0
  140.8969   69.4885  223.9769 H   0  0  0  0  0  0  0  0  0  0  0  0
  141.4993   71.2163  223.7256 H   0  0  0  0  0  0  0  0  0  0  0  0
  141.6031   72.7600  225.5489 H   0  0  0  0  0  0  0  0  0  0  0  0
  141.4328   73.1263  227.9700 H   0  0  0  0  0  0  0  0  0  0  0  0
  140.4324   71.4111  229.4736 H   0  0  0  0  0  0  0  0  0  0  0  0
  139.6075   69.2949  228.4269 H   0  0  0  0  0  0  0  0  0  0  0  0
  141.5936   70.3408  221.3895 H   0  0  0  0  0  0  0  0  0  0  0  0
  141.4285   71.1275  219.7974 H   0  0  0  0  0  0  0  0  0  0  0  0
  143.2302   71.7890  222.1075 H   0  0  0  0  0  0  0  0  0  0  0  0
  143.5703   71.4907  220.2850 H   0  0  0  0  0  0  0  0  0  0  0  0
  1  2  1  0
  2  3  1  0
  3  4  2  0
  3  5  1  0
  5  6  1  0
  6  7  2  0
  7  8  1  0
  8  9  2  0
  9 10  1  0
 10 11  2  0
  5 12  1  0
 12 13  1  0
 13 14  1  0
 14 15  1  0
 15 16  1  0
 16 17  2  0
 16 18  1  0
 18 19  1  0
 18 20  1  0
 20 21  1  0
 21 22  2  0
 22 23  1  0
 23 24  2  0
 24 25  1  0
 25 26  2  0
 26 27  1  0
 15 28  1  0
 28 29  1  0
 11  6  1  0
 29 12  1  0
 26 21  1  0
  1 30  1  0
  1 31  1  0
  1 32  1  0
  2 33  1  0
  2 34  1  0
  7 35  1  0
  8 36  1  0
  9 37  1  0
 10 38  1  0
 11 39  1  0
 12 40  1  0
 13 41  1  0
 13 42  1  0
 14 43  1  0
 14 44  1  0
 18 45  1  6
 19 46  1  0
 19 47  1  0
 20 48  1  0
 20 49  1  0
 22 50  1  0
 23 51  1  0
 24 52  1  0
 25 53  1  0
 28 54  1  0
 28 55  1  0
 29 56  1  0
 29 57  1  0
M  END
>  <smiles>  (16) 
CCC(=O)N(c1ccccc1)C1CCN(C(=O)[C@H](N)Cc2ccccc2Br)CC1

>  <score_type>  (16) 
oracle

>  <origin>  (16) 
autodockgpu

>  <m_score__min__energy>  (16) 
-8.3100000000000005

>  <m_primary>  (16) 
energy

>  <rmsd>  (16) 
8.159444643510884

>  <m_score__min__rmsd>  (16) 
8.159444643510884

>  <meeko>  (16) 
{"free_energy": -7.78, "intermolecular_energy": -10.17, "internal_energy": -2.25, "cluster_size": 9, "cluster_id": 1, "rank_in_cluster": 5}

>  <energy>  (16) 
-6.69

>  <cluster_rmsd>  (16) 
1.29

>  <cluster>  (16) 
2

$$$$

     RDKit          3D

 57 59  0  0  0  0  0  0  0  0999 V2000
  144.4310   74.5200  220.4160 C   0  0  0  0  0  0  0  0  0  0  0  0
  143.4270   73.4770  220.0810 C   0  0  0  0  0  0  0  0  0  0  0  0
  142.0440   73.9740  219.8640 C   0  0  0  0  0  0  0  0  0  0  0  0
  141.5110   73.7810  218.7380 O   0  0  0  0  0  0  0  0  0  0  0  0
  141.3520   74.6560  220.9230 N   0  0  0  0  0  0  0  0  0  0  0  0
  141.4090   76.0820  220.9500 C   0  0  0  0  0  0  0  0  0  0  0  0
  141.0340   76.6790  222.1450 C   0  0  0  0  0  0  0  0  0  0  0  0
  141.0370   78.0490  222.3270 C   0  0  0  0  0  0  0  0  0  0  0  0
  141.4360   78.8130  221.2490 C   0  0  0  0  0  0  0  0  0  0  0  0
  141.8200   78.2380  220.0330 C   0  0  0  0  0  0  0  0  0  0  0  0
  141.8080   76.8460  219.8770 C   0  0  0  0  0  0  0  0  0  0  0  0
  140.6410   73.8950  221.9640 C   0  0  0  0  0  0  0  0  0  0  0  0
  139.1860   74.0800  221.9570 C   0  0  0  0  0  0  0  0  0  0  0  0
  138.3140   72.9070  221.7020 C   0  0  0  0  0  0  0  0  0  0  0  0
  138.9240   71.6660  222.2530 N   0  0  0  0  0  0  0  0  0  0  0  0
  138.1830   71.0110  223.2150 C   0  0  0  0  0  0  0  0  0  0  0  0
  137.0560   71.6280  223.5030 O   0  0  0  0  0  0  0  0  0  0  0  0
  138.3720   69.7880  223.9840 C   0  0  2  0  0  0  0  0  0  0  0  0
  137.5010   69.6770  225.0960 N   0  0  0  0  0  0  0  0  0  0  0  0
  139.8470   69.6350  224.3070 C   0  0  0  0  0  0  0  0  0  0  0  0
  140.3090   70.3070  225.5150 C   0  0  0  0  0  0  0  0  0  0  0  0
  140.7050   71.6370  225.5780 C   0  0  0  0  0  0  0  0  0  0  0  0
  141.0760   72.2460  226.7710 C   0  0  0  0  0  0  0  0  0  0  0  0
  141.0740   71.5640  227.9690 C   0  0  0  0  0  0  0  0  0  0  0  0
  140.6830   70.2370  227.9180 C   0  0  0  0  0  0  0  0  0  0  0  0
  140.3110   69.6250  226.7200 C   0  0  0  0  0  0  0  0  0  0  0  0
  139.9030   67.7550  226.8520 Br  0  0  0  0  0  0  0  0  0  0  0  0
  140.2160   71.3810  221.6940 C   0  0  0  0  0  0  0  0  0  0  0  0
  141.1250   72.5040  222.0540 C   0  0  0  0  0  0  0  0  0  0  0  0
  144.5166   74.6089  221.5091 H   0  0  0  0  0  0  0  0  0  0  0  0
  145.4069   74.2387  219.9935 H   0  0  0  0  0  0  0  0  0  0  0  0
  144.1127   75.4845  219.9935 H   0  0  0  0  0  0  0  0  0  0  0  0
  143.7553   72.9725  219.1603 H   0  0  0  0  0  0  0  0  0  0  0  0
  143.3773   72.8106  220.9548 H   0  0  0  0  0  0  0  0  0  0  0  0
  140.7218   76.0361  222.9812 H   0  0  0  0  0  0  0  0  0  0  0  0
  140.7370   78.5067  223.2812 H   0  0  0  0  0  0  0  0  0  0  0  0
  141.4525   79.9083  221.3492 H   0  0  0  0  0  0  0  0  0  0  0  0
  142.1323   78.8808  219.1968 H   0  0  0  0  0  0  0  0  0  0  0  0
  142.1078   76.3786  218.9275 H   0  0  0  0  0  0  0  0  0  0  0  0
  140.9106   74.3412  222.9326 H   0  0  0  0  0  0  0  0  0  0  0  0
  138.9071   74.4811  222.9426 H   0  0  0  0  0  0  0  0  0  0  0  0
  139.0071   74.7354  221.0918 H   0  0  0  0  0  0  0  0  0  0  0  0
  137.3376   73.0724  222.1809 H   0  0  0  0  0  0  0  0  0  0  0  0
  138.1918   72.7877  220.6153 H   0  0  0  0  0  0  0  0  0  0  0  0
  138.0748   68.9251  223.3699 H   0  0  0  0  0  0  0  0  0  0  0  0
  137.9170   69.4520  225.9970 H   0  0  0  0  0  0  0  0  0  0  0  0
  136.6500   70.2290  225.0510 H   0  0  0  0  0  0  0  0  0  0  0  0
  140.0578   68.5611  224.4176 H   0  0  0  0  0  0  0  0  0  0  0  0
  140.3842   70.1156  223.4761 H   0  0  0  0  0  0  0  0  0  0  0  0
  140.7257   72.2290  224.6511 H   0  0  0  0  0  0  0  0  0  0  0  0
  141.3801   73.3031  226.7589 H   0  0  0  0  0  0  0  0  0  0  0  0
  141.3668   72.0473  228.9128 H   0  0  0  0  0  0  0  0  0  0  0  0
  140.6650   69.6487  228.8473 H   0  0  0  0  0  0  0  0  0  0  0  0
  140.6034   70.4384  222.1082 H   0  0  0  0  0  0  0  0  0  0  0  0
  140.1475   71.2771  220.6011 H   0  0  0  0  0  0  0  0  0  0  0  0
  141.4353   72.3413  223.0967 H   0  0  0  0  0  0  0  0  0  0  0  0
  141.9088   72.4556  221.2837 H   0  0  0  0  0  0  0  0  0  0  0  0
  1  2  1  0
  2  3  1  0
  3  4  2  0
  3  5  1  0
  5  6  1  0
  6  7  2  0
  7  8  1  0
  8  9  2  0
  9 10  1  0
 10 11  2  0
  5 12  1  0
 12 13  1  0
 13 14  1  0
 14 15  1  0
 15 16  1  0
 16 17  2  0
 16 18  1  0
 18 19  1  0
 18 20  1  0
 20 21  1  0
 21 22  2  0
 22 23  1  0
 23 24  2  0
 24 25  1  0
 25 26  2  0
 26 27  1  0
 15 28  1  0
 28 29  1  0
 11  6  1  0
 29 12  1  0
 26 21  1  0
  1 30  1  0
  1 31  1  0
  1 32  1  0
  2 33  1  0
  2 34  1  0
  7 35  1  0
  8 36  1  0
  9 37  1  0
 10 38  1  0
 11 39  1  0
 12 40  1  0
 13 41  1  0
 13 42  1  0
 14 43  1  0
 14 44  1  0
 18 45  1  6
 19 46  1  0
 19 47  1  0
 20 48  1  0
 20 49  1  0
 22 50  1  0
 23 51  1  0
 24 52  1  0
 25 53  1  0
 28 54  1  0
 28 55  1  0
 29 56  1  0
 29 57  1  0
M  END
>  <smiles>  (17) 
CCC(=O)N(c1ccccc1)C1CCN(C(=O)[C@H](N)Cc2ccccc2Br)CC1

>  <score_type>  (17) 
oracle

>  <origin>  (17) 
autodockgpu

>  <m_score__min__energy>  (17) 
-8.3100000000000005

>  <m_primary>  (17) 
energy

>  <rmsd>  (17) 
8.621636461330512

>  <m_score__min__rmsd>  (17) 
8.621636461330512

>  <meeko>  (17) 
{"free_energy": -7.04, "intermolecular_energy": -9.43, "internal_energy": -2.69, "cluster_size": 5, "cluster_id": 4, "rank_in_cluster": 3}

>  <energy>  (17) 
-7.59

>  <cluster_rmsd>  (17) 
0.0

>  <cluster>  (17) 
3

$$$$

     RDKit          3D

 57 59  0  0  0  0  0  0  0  0999 V2000
  143.4680   74.4740  220.3460 C   0  0  0  0  0  0  0  0  0  0  0  0
  142.4930   74.4820  219.2230 C   0  0  0  0  0  0  0  0  0  0  0  0
  141.0760   74.6880  219.6140 C   0  0  0  0  0  0  0  0  0  0  0  0
  140.1770   74.3820  218.7860 O   0  0  0  0  0  0  0  0  0  0  0  0
  140.7600   75.2250  220.9100 N   0  0  0  0  0  0  0  0  0  0  0  0
  141.0750   76.5940  221.1610 C   0  0  0  0  0  0  0  0  0  0  0  0
  140.9030   77.0240  222.4700 C   0  0  0  0  0  0  0  0  0  0  0  0
  141.1660   78.3210  222.8690 C   0  0  0  0  0  0  0  0  0  0  0  0
  141.6150   79.1870  221.8930 C   0  0  0  0  0  0  0  0  0  0  0  0
  141.7970   78.7820  220.5670 C   0  0  0  0  0  0  0  0  0  0  0  0
  141.5230   77.4610  220.1900 C   0  0  0  0  0  0  0  0  0  0  0  0
  140.1660   74.3690  221.9510 C   0  0  0  0  0  0  0  0  0  0  0  0
  138.7030   74.2850  221.8970 C   0  0  0  0  0  0  0  0  0  0  0  0
  138.0670   72.9670  221.6490 C   0  0  0  0  0  0  0  0  0  0  0  0
  138.8740   71.8710  222.2510 N   0  0  0  0  0  0  0  0  0  0  0  0
  138.2330   71.1120  223.2080 C   0  0  0  0  0  0  0  0  0  0  0  0
  137.0040   71.5190  223.4470 O   0  0  0  0  0  0  0  0  0  0  0  0
  138.6160   69.9610  224.0140 C   0  0  2  0  0  0  0  0  0  0  0  0
  137.7960   69.7690  225.1540 N   0  0  0  0  0  0  0  0  0  0  0  0
  140.1040   70.0370  224.3030 C   0  0  0  0  0  0  0  0  0  0  0  0
  140.4760   70.5350  225.6210 C   0  0  0  0  0  0  0  0  0  0  0  0
  140.7630   71.8620  225.9140 C   0  0  0  0  0  0  0  0  0  0  0  0
  141.0480   72.2930  227.2040 C   0  0  0  0  0  0  0  0  0  0  0  0
  141.0640   71.4270  228.2750 C   0  0  0  0  0  0  0  0  0  0  0  0
  140.7810   70.1010  227.9950 C   0  0  0  0  0  0  0  0  0  0  0  0
  140.4950   69.6670  226.7000 C   0  0  0  0  0  0  0  0  0  0  0  0
  140.2330   67.7760  226.5120 Br  0  0  0  0  0  0  0  0  0  0  0  0
  140.2140   71.8150  221.7360 C   0  0  0  0  0  0  0  0  0  0  0  0
  140.8910   73.0920  222.0910 C   0  0  0  0  0  0  0  0  0  0  0  0
  142.9253   74.4785  221.3028 H   0  0  0  0  0  0  0  0  0  0  0  0
  144.0926   73.5707  220.2829 H   0  0  0  0  0  0  0  0  0  0  0  0
  144.1073   75.3669  220.2829 H   0  0  0  0  0  0  0  0  0  0  0  0
  142.7761   75.2906  218.5331 H   0  0  0  0  0  0  0  0  0  0  0  0
  142.5411   73.4801  218.7716 H   0  0  0  0  0  0  0  0  0  0  0  0
  140.5431   76.3037  223.2194 H   0  0  0  0  0  0  0  0  0  0  0  0
  141.0247   78.6459  223.9104 H   0  0  0  0  0  0  0  0  0  0  0  0
  141.8368   80.2290  222.1668 H   0  0  0  0  0  0  0  0  0  0  0  0
  142.1564   79.5028  219.8178 H   0  0  0  0  0  0  0  0  0  0  0  0
  141.6614   77.1270  219.1511 H   0  0  0  0  0  0  0  0  0  0  0  0
  140.3189   74.8768  222.9148 H   0  0  0  0  0  0  0  0  0  0  0  0
  138.3232   74.6496  222.8628 H   0  0  0  0  0  0  0  0  0  0  0  0
  138.4371   74.8777  221.0093 H   0  0  0  0  0  0  0  0  0  0  0  0
  137.0615   72.9618  222.0951 H   0  0  0  0  0  0  0  0  0  0  0  0
  138.0040   72.8039  220.5630 H   0  0  0  0  0  0  0  0  0  0  0  0
  138.4348   69.0414  223.4383 H   0  0  0  0  0  0  0  0  0  0  0  0
  138.2490   69.4670  226.0140 H   0  0  0  0  0  0  0  0  0  0  0  0
  136.9510   70.3310  225.1930 H   0  0  0  0  0  0  0  0  0  0  0  0
  140.5192   69.0239  224.1969 H   0  0  0  0  0  0  0  0  0  0  0  0
  140.5075   70.7674  223.5862 H   0  0  0  0  0  0  0  0  0  0  0  0
  140.7648   72.5976  225.0962 H   0  0  0  0  0  0  0  0  0  0  0  0
  141.2673   73.3573  227.3749 H   0  0  0  0  0  0  0  0  0  0  0  0
  141.2890   71.7698  229.2957 H   0  0  0  0  0  0  0  0  0  0  0  0
  140.7816   69.3692  228.8162 H   0  0  0  0  0  0  0  0  0  0  0  0
  140.7528   70.9681  222.1859 H   0  0  0  0  0  0  0  0  0  0  0  0
  140.2010   71.6772  220.6447 H   0  0  0  0  0  0  0  0  0  0  0  0
  141.1921   73.0105  223.1459 H   0  0  0  0  0  0  0  0  0  0  0  0
  141.6945   73.1713  221.3439 H   0  0  0  0  0  0  0  0  0  0  0  0
  1  2  1  0
  2  3  1  0
  3  4  2  0
  3  5  1  0
  5  6  1  0
  6  7  2  0
  7  8  1  0
  8  9  2  0
  9 10  1  0
 10 11  2  0
  5 12  1  0
 12 13  1  0
 13 14  1  0
 14 15  1  0
 15 16  1  0
 16 17  2  0
 16 18  1  0
 18 19  1  0
 18 20  1  0
 20 21  1  0
 21 22  2  0
 22 23  1  0
 23 24  2  0
 24 25  1  0
 25 26  2  0
 26 27  1  0
 15 28  1  0
 28 29  1  0
 11  6  1  0
 29 12  1  0
 26 21  1  0
  1 30  1  0
  1 31  1  0
  1 32  1  0
  2 33  1  0
  2 34  1  0
  7 35  1  0
  8 36  1  0
  9 37  1  0
 10 38  1  0
 11 39  1  0
 12 40  1  0
 13 41  1  0
 13 42  1  0
 14 43  1  0
 14 44  1  0
 18 45  1  6
 19 46  1  0
 19 47  1  0
 20 48  1  0
 20 49  1  0
 22 50  1  0
 23 51  1  0
 24 52  1  0
 25 53  1  0
 28 54  1  0
 28 55  1  0
 29 56  1  0
 29 57  1  0
M  END
>  <smiles>  (18) 
CCC(=O)N(c1ccccc1)C1CCN(C(=O)[C@H](N)Cc2ccccc2Br)CC1

>  <score_type>  (18) 
oracle

>  <origin>  (18) 
autodockgpu

>  <m_score__min__energy>  (18) 
-8.3100000000000005

>  <m_primary>  (18) 
energy

>  <rmsd>  (18) 
8.42117927165225

>  <m_score__min__rmsd>  (18) 
8.42117927165225

>  <meeko>  (18) 
{"free_energy": -7.11, "intermolecular_energy": -9.5, "internal_energy": -2.6, "cluster_size": 5, "cluster_id": 4, "rank_in_cluster": 2}

>  <energy>  (18) 
-7.27

>  <cluster_rmsd>  (18) 
1.82

>  <cluster>  (18) 
3

$$$$

     RDKit          3D

 57 59  0  0  0  0  0  0  0  0999 V2000
  142.9270   80.5790  223.8880 C   0  0  0  0  0  0  0  0  0  0  0  0
  142.9160   80.5180  222.4030 C   0  0  0  0  0  0  0  0  0  0  0  0
  141.5740   80.6100  221.7740 C   0  0  0  0  0  0  0  0  0  0  0  0
  141.3060   81.6310  221.0850 O   0  0  0  0  0  0  0  0  0  0  0  0
  140.6200   79.5500  221.9600 N   0  0  0  0  0  0  0  0  0  0  0  0
  139.3430   79.8870  222.4990 C   0  0  0  0  0  0  0  0  0  0  0  0
  139.3450   80.3880  223.7940 C   0  0  0  0  0  0  0  0  0  0  0  0
  138.1880   80.7590  224.4520 C   0  0  0  0  0  0  0  0  0  0  0  0
  137.0070   80.6080  223.7550 C   0  0  0  0  0  0  0  0  0  0  0  0
  136.9750   80.1070  222.4500 C   0  0  0  0  0  0  0  0  0  0  0  0
  138.1630   79.7390  221.8060 C   0  0  0  0  0  0  0  0  0  0  0  0
  140.9760   78.1580  221.6370 C   0  0  0  0  0  0  0  0  0  0  0  0
  140.7110   77.2030  222.7180 C   0  0  0  0  0  0  0  0  0  0  0  0
  139.7340   76.1110  222.4890 C   0  0  0  0  0  0  0  0  0  0  0  0
  139.7600   75.6690  221.0680 N   0  0  0  0  0  0  0  0  0  0  0  0
  140.0910   74.3450  220.8590 C   0  0  0  0  0  0  0  0  0  0  0  0
  140.3590   73.7010  221.9750 O   0  0  0  0  0  0  0  0  0  0  0  0
  140.2100   73.5040  219.6760 C   0  0  2  0  0  0  0  0  0  0  0  0
  140.0500   72.1220  219.9450 N   0  0  0  0  0  0  0  0  0  0  0  0
  141.4850   73.8700  218.9390 C   0  0  0  0  0  0  0  0  0  0  0  0
  142.7290   73.6400  219.6630 C   0  0  0  0  0  0  0  0  0  0  0  0
  143.1090   72.4240  220.2180 C   0  0  0  0  0  0  0  0  0  0  0  0
  144.3390   72.2440  220.8410 C   0  0  0  0  0  0  0  0  0  0  0  0
  145.2580   73.2640  220.9480 C   0  0  0  0  0  0  0  0  0  0  0  0
  144.8890   74.4810  220.4010 C   0  0  0  0  0  0  0  0  0  0  0  0
  143.6560   74.6630  219.7750 C   0  0  0  0  0  0  0  0  0  0  0  0
  143.3000   76.4510  219.1760 Br  0  0  0  0  0  0  0  0  0  0  0  0
  139.4570   76.7280  220.1460 C   0  0  0  0  0  0  0  0  0  0  0  0
  140.5090   77.7710  220.2910 C   0  0  0  0  0  0  0  0  0  0  0  0
  142.7458   79.5743  224.2976 H   0  0  0  0  0  0  0  0  0  0  0  0
  143.9056   80.9445  224.2327 H   0  0  0  0  0  0  0  0  0  0  0  0
  142.1378   81.2633  224.2327 H   0  0  0  0  0  0  0  0  0  0  0  0
  143.5267   81.3508  222.0241 H   0  0  0  0  0  0  0  0  0  0  0  0
  143.3095   79.5260  222.1364 H   0  0  0  0  0  0  0  0  0  0  0  0
  140.3067   80.4938  224.3173 H   0  0  0  0  0  0  0  0  0  0  0  0
  138.2075   81.1543  225.4783 H   0  0  0  0  0  0  0  0  0  0  0  0
  136.0614   80.8904  224.2409 H   0  0  0  0  0  0  0  0  0  0  0  0
  136.0130   80.0015  221.9271 H   0  0  0  0  0  0  0  0  0  0  0  0
  138.1533   79.3443  220.7793 H   0  0  0  0  0  0  0  0  0  0  0  0
  142.0730   78.1106  221.5706 H   0  0  0  0  0  0  0  0  0  0  0  0
  141.6706   76.7290  222.9718 H   0  0  0  0  0  0  0  0  0  0  0  0
  140.2428   77.8157  223.5025 H   0  0  0  0  0  0  0  0  0  0  0  0
  139.9872   75.2587  223.1366 H   0  0  0  0  0  0  0  0  0  0  0  0
  138.7262   76.4840  222.7242 H   0  0  0  0  0  0  0  0  0  0  0  0
  139.3661   73.7088  219.0008 H   0  0  0  0  0  0  0  0  0  0  0  0
  140.1130   71.8220  220.9160 H   0  0  0  0  0  0  0  0  0  0  0  0
  139.4740   71.6040  219.2880 H   0  0  0  0  0  0  0  0  0  0  0  0
  141.5202   73.2780  218.0126 H   0  0  0  0  0  0  0  0  0  0  0  0
  141.4326   74.9567  218.7765 H   0  0  0  0  0  0  0  0  0  0  0  0
  142.4126   71.5744  220.1626 H   0  0  0  0  0  0  0  0  0  0  0  0
  144.5853   71.2576  221.2609 H   0  0  0  0  0  0  0  0  0  0  0  0
  146.2309   73.1198  221.4406 H   0  0  0  0  0  0  0  0  0  0  0  0
  145.5879   75.3283  220.4618 H   0  0  0  0  0  0  0  0  0  0  0  0
  139.4546   76.3392  219.1170 H   0  0  0  0  0  0  0  0  0  0  0  0
  138.4641   77.1509  220.3588 H   0  0  0  0  0  0  0  0  0  0  0  0
  141.3904   77.4138  219.7382 H   0  0  0  0  0  0  0  0  0  0  0  0
  140.0184   78.6825  219.9187 H   0  0  0  0  0  0  0  0  0  0  0  0
  1  2  1  0
  2  3  1  0
  3  4  2  0
  3  5  1  0
  5  6  1  0
  6  7  2  0
  7  8  1  0
  8  9  2  0
  9 10  1  0
 10 11  2  0
  5 12  1  0
 12 13  1  0
 13 14  1  0
 14 15  1  0
 15 16  1  0
 16 17  2  0
 16 18  1  0
 18 19  1  0
 18 20  1  0
 20 21  1  0
 21 22  2  0
 22 23  1  0
 23 24  2  0
 24 25  1  0
 25 26  2  0
 26 27  1  0
 15 28  1  0
 28 29  1  0
 11  6  1  0
 29 12  1  0
 26 21  1  0
  1 30  1  0
  1 31  1  0
  1 32  1  0
  2 33  1  0
  2 34  1  0
  7 35  1  0
  8 36  1  0
  9 37  1  0
 10 38  1  0
 11 39  1  0
 12 40  1  0
 13 41  1  0
 13 42  1  0
 14 43  1  0
 14 44  1  0
 18 45  1  6
 19 46  1  0
 19 47  1  0
 20 48  1  0
 20 49  1  0
 22 50  1  0
 23 51  1  0
 24 52  1  0
 25 53  1  0
 28 54  1  0
 28 55  1  0
 29 56  1  0
 29 57  1  0
M  END
>  <smiles>  (19) 
CCC(=O)N(c1ccccc1)C1CCN(C(=O)[C@H](N)Cc2ccccc2Br)CC1

>  <score_type>  (19) 
oracle

>  <origin>  (19) 
autodockgpu

>  <m_score__min__energy>  (19) 
-8.3100000000000005

>  <m_primary>  (19) 
energy

>  <rmsd>  (19) 
4.294538101929676

>  <m_score__min__rmsd>  (19) 
4.294538101929676

>  <meeko>  (19) 
{"free_energy": -6.07, "intermolecular_energy": -8.45, "internal_energy": -3.05, "cluster_size": 1, "cluster_id": 12, "rank_in_cluster": 1}

>  <energy>  (19) 
-7.22

>  <cluster_rmsd>  (19) 
1.85

>  <cluster>  (19) 
3

$$$$

     RDKit          3D

 57 59  0  0  0  0  0  0  0  0999 V2000
  141.2330   71.3360  220.2050 C   0  0  0  0  0  0  0  0  0  0  0  0
  140.6000   72.6700  220.0370 C   0  0  0  0  0  0  0  0  0  0  0  0
  141.1280   73.7400  220.9220 C   0  0  0  0  0  0  0  0  0  0  0  0
  140.6090   73.8820  222.0620 O   0  0  0  0  0  0  0  0  0  0  0  0
  142.2030   74.5790  220.4690 N   0  0  0  0  0  0  0  0  0  0  0  0
  143.4070   73.9490  220.0340 C   0  0  0  0  0  0  0  0  0  0  0  0
  143.4420   73.5650  218.7010 C   0  0  0  0  0  0  0  0  0  0  0  0
  144.5370   72.9440  218.1320 C   0  0  0  0  0  0  0  0  0  0  0  0
  145.6160   72.7160  218.9610 C   0  0  0  0  0  0  0  0  0  0  0  0
  145.6080   73.0910  220.3090 C   0  0  0  0  0  0  0  0  0  0  0  0
  144.4850   73.7200  220.8600 C   0  0  0  0  0  0  0  0  0  0  0  0
  142.0680   76.0460  220.4930 C   0  0  0  0  0  0  0  0  0  0  0  0
  143.0640   76.7540  219.6820 C   0  0  0  0  0  0  0  0  0  0  0  0
  142.6040   77.5820  218.5400 C   0  0  0  0  0  0  0  0  0  0  0  0
  141.2800   78.1950  218.8320 N   0  0  0  0  0  0  0  0  0  0  0  0
  141.2430   79.5740  218.8210 C   0  0  0  0  0  0  0  0  0  0  0  0
  142.4180   80.1170  218.5780 O   0  0  0  0  0  0  0  0  0  0  0  0
  140.1930   80.5630  219.0200 C   0  0  2  0  0  0  0  0  0  0  0  0
  140.5560   81.8680  218.6030 N   0  0  0  0  0  0  0  0  0  0  0  0
  139.6900   80.4640  220.4480 C   0  0  0  0  0  0  0  0  0  0  0  0
  140.6960   80.1710  221.4610 C   0  0  0  0  0  0  0  0  0  0  0  0
  141.9410   80.7830  221.5410 C   0  0  0  0  0  0  0  0  0  0  0  0
  142.8370   80.5110  222.5680 C   0  0  0  0  0  0  0  0  0  0  0  0
  142.5450   79.6150  223.5730 C   0  0  0  0  0  0  0  0  0  0  0  0
  141.3070   78.9980  223.5030 C   0  0  0  0  0  0  0  0  0  0  0  0
  140.4070   79.2700  222.4730 C   0  0  0  0  0  0  0  0  0  0  0  0
  138.7930   78.2330  222.5050 Br  0  0  0  0  0  0  0  0  0  0  0  0
  140.2600   77.2210  219.1060 C   0  0  0  0  0  0  0  0  0  0  0  0
  140.6650   76.4710  220.3260 C   0  0  0  0  0  0  0  0  0  0  0  0
  141.3389   71.1128  221.2769 H   0  0  0  0  0  0  0  0  0  0  0  0
  140.6029   70.5689  219.7312 H   0  0  0  0  0  0  0  0  0  0  0  0
  142.2257   71.3389  219.7312 H   0  0  0  0  0  0  0  0  0  0  0  0
  140.7484   72.9875  218.9943 H   0  0  0  0  0  0  0  0  0  0  0  0
  139.5429   72.5416  220.3128 H   0  0  0  0  0  0  0  0  0  0  0  0
  142.5619   73.7632  218.0717 H   0  0  0  0  0  0  0  0  0  0  0  0
  144.5480   72.6467  217.0730 H   0  0  0  0  0  0  0  0  0  0  0  0
  146.5099   72.2244  218.5496 H   0  0  0  0  0  0  0  0  0  0  0  0
  146.4876   72.8908  220.9385 H   0  0  0  0  0  0  0  0  0  0  0  0
  144.4644   74.0213  221.9177 H   0  0  0  0  0  0  0  0  0  0  0  0
  142.3355   76.3799  221.5064 H   0  0  0  0  0  0  0  0  0  0  0  0
  143.6180   77.4196  220.3603 H   0  0  0  0  0  0  0  0  0  0  0  0
  143.6404   75.9463  219.2072 H   0  0  0  0  0  0  0  0  0  0  0  0
  143.3379   78.3800  218.3543 H   0  0  0  0  0  0  0  0  0  0  0  0
  142.5068   76.9378  217.6537 H   0  0  0  0  0  0  0  0  0  0  0  0
  139.3491   80.3326  218.3531 H   0  0  0  0  0  0  0  0  0  0  0  0
  141.5440   82.0500  218.4380 H   0  0  0  0  0  0  0  0  0  0  0  0
  139.8490   82.3830  218.0860 H   0  0  0  0  0  0  0  0  0  0  0  0
  139.2214   81.4249  220.7071 H   0  0  0  0  0  0  0  0  0  0  0  0
  138.9989   79.6083  220.4602 H   0  0  0  0  0  0  0  0  0  0  0  0
  142.2273   81.5078  220.7646 H   0  0  0  0  0  0  0  0  0  0  0  0
  143.8086   81.0266  222.5788 H   0  0  0  0  0  0  0  0  0  0  0  0
  143.2552   79.4016  224.3854 H   0  0  0  0  0  0  0  0  0  0  0  0
  141.0259   78.2734  224.2814 H   0  0  0  0  0  0  0  0  0  0  0  0
  139.2976   77.7250  219.2786 H   0  0  0  0  0  0  0  0  0  0  0  0
  140.1437   76.5354  218.2537 H   0  0  0  0  0  0  0  0  0  0  0  0
  140.4207   77.1091  221.1880 H   0  0  0  0  0  0  0  0  0  0  0  0
  140.1195   75.5202  220.2339 H   0  0  0  0  0  0  0  0  0  0  0  0
  1  2  1  0
  2  3  1  0
  3  4  2  0
  3  5  1  0
  5  6  1  0
  6  7  2  0
  7  8  1  0
  8  9  2  0
  9 10  1  0
 10 11  2  0
  5 12  1  0
 12 13  1  0
 13 14  1  0
 14 15  1  0
 15 16  1  0
 16 17  2  0
 16 18  1  0
 18 19  1  0
 18 20  1  0
 20 21  1  0
 21 22  2  0
 22 23  1  0
 23 24  2  0
 24 25  1  0
 25 26  2  0
 26 27  1  0
 15 28  1  0
 28 29  1  0
 11  6  1  0
 29 12  1  0
 26 21  1  0
  1 30  1  0
  1 31  1  0
  1 32  1  0
  2 33  1  0
  2 34  1  0
  7 35  1  0
  8 36  1  0
  9 37  1  0
 10 38  1  0
 11 39  1  0
 12 40  1  0
 13 41  1  0
 13 42  1  0
 14 43  1  0
 14 44  1  0
 18 45  1  6
 19 46  1  0
 19 47  1  0
 20 48  1  0
 20 49  1  0
 22 50  1  0
 23 51  1  0
 24 52  1  0
 25 53  1  0
 28 54  1  0
 28 55  1  0
 29 56  1  0
 29 57  1  0
M  END
>  <smiles>  (20) 
CCC(=O)N(c1ccccc1)C1CCN(C(=O)[C@H](N)Cc2ccccc2Br)CC1

>  <score_type>  (20) 
oracle

>  <origin>  (20) 
autodockgpu

>  <m_score__min__energy>  (20) 
-8.3100000000000005

>  <m_primary>  (20) 
energy

>  <rmsd>  (20) 
5.388160914688837

>  <m_score__min__rmsd>  (20) 
5.388160914688837

>  <meeko>  (20) 
{"free_energy": -5.83, "intermolecular_energy": -8.22, "internal_energy": -3.23, "cluster_size": 9, "cluster_id": 11, "rank_in_cluster": 9}

>  <energy>  (20) 
-7.18

>  <cluster_rmsd>  (20) 
1.94

>  <cluster>  (20) 
3

$$$$

     RDKit          3D

 57 59  0  0  0  0  0  0  0  0999 V2000
  142.1910   81.1240  218.4470 C   0  0  0  0  0  0  0  0  0  0  0  0
  141.9090   79.6670  218.5280 C   0  0  0  0  0  0  0  0  0  0  0  0
  140.9820   79.2590  219.6150 C   0  0  0  0  0  0  0  0  0  0  0  0
  139.7420   79.3510  219.4080 O   0  0  0  0  0  0  0  0  0  0  0  0
  141.5090   78.7740  220.8610 N   0  0  0  0  0  0  0  0  0  0  0  0
  141.7970   79.7300  221.8820 C   0  0  0  0  0  0  0  0  0  0  0  0
  141.0950   80.9240  221.8080 C   0  0  0  0  0  0  0  0  0  0  0  0
  141.2640   81.9460  222.7230 C   0  0  0  0  0  0  0  0  0  0  0  0
  142.1780   81.7250  223.7320 C   0  0  0  0  0  0  0  0  0  0  0  0
  142.9000   80.5310  223.8310 C   0  0  0  0  0  0  0  0  0  0  0  0
  142.7090   79.5110  222.8900 C   0  0  0  0  0  0  0  0  0  0  0  0
  141.7740   77.3390  221.0550 C   0  0  0  0  0  0  0  0  0  0  0  0
  141.0710   76.7460  222.1970 C   0  0  0  0  0  0  0  0  0  0  0  0
  140.0880   75.6620  221.9510 C   0  0  0  0  0  0  0  0  0  0  0  0
  140.5020   74.8270  220.7910 N   0  0  0  0  0  0  0  0  0  0  0  0
  140.7160   73.4910  221.0620 C   0  0  0  0  0  0  0  0  0  0  0  0
  140.5420   73.1900  222.3320 O   0  0  0  0  0  0  0  0  0  0  0  0
  141.0950   72.3400  220.2530 C   0  0  2  0  0  0  0  0  0  0  0  0
  141.4520   71.2020  221.0190 N   0  0  0  0  0  0  0  0  0  0  0  0
  142.1300   72.7760  219.2330 C   0  0  0  0  0  0  0  0  0  0  0  0
  143.4570   73.0750  219.7560 C   0  0  0  0  0  0  0  0  0  0  0  0
  143.8420   74.3010  220.2830 C   0  0  0  0  0  0  0  0  0  0  0  0
  145.1030   74.5110  220.8290 C   0  0  0  0  0  0  0  0  0  0  0  0
  146.0510   73.5130  220.8800 C   0  0  0  0  0  0  0  0  0  0  0  0
  145.6790   72.2870  220.3550 C   0  0  0  0  0  0  0  0  0  0  0  0
  144.4140   72.0750  219.8070 C   0  0  0  0  0  0  0  0  0  0  0  0
  144.1370   70.3370  219.0430 Br  0  0  0  0  0  0  0  0  0  0  0  0
  140.6330   75.5820  219.5770 C   0  0  0  0  0  0  0  0  0  0  0  0
  141.7070   76.5920  219.7840 C   0  0  0  0  0  0  0  0  0  0  0  0
  142.2713   81.5389  219.4626 H   0  0  0  0  0  0  0  0  0  0  0  0
  143.1370   81.2850  217.9092 H   0  0  0  0  0  0  0  0  0  0  0  0
  141.3734   81.6264  217.9092 H   0  0  0  0  0  0  0  0  0  0  0  0
  141.4690   79.3523  217.5702 H   0  0  0  0  0  0  0  0  0  0  0  0
  142.8712   79.1830  218.7513 H   0  0  0  0  0  0  0  0  0  0  0  0
  140.3749   81.0631  220.9882 H   0  0  0  0  0  0  0  0  0  0  0  0
  140.6988   82.8869  222.6503 H   0  0  0  0  0  0  0  0  0  0  0  0
  142.3443   82.5121  224.4822 H   0  0  0  0  0  0  0  0  0  0  0  0
  143.6203   80.3925  224.6507 H   0  0  0  0  0  0  0  0  0  0  0  0
  143.2691   78.5664  222.9543 H   0  0  0  0  0  0  0  0  0  0  0  0
  142.8225   77.2435  221.3736 H   0  0  0  0  0  0  0  0  0  0  0  0
  141.8382   76.3388  222.8720 H   0  0  0  0  0  0  0  0  0  0  0  0
  140.4605   77.5724  222.5898 H   0  0  0  0  0  0  0  0  0  0  0  0
  140.0198   75.0269  222.8465 H   0  0  0  0  0  0  0  0  0  0  0  0
  139.1110   76.1157  221.7282 H   0  0  0  0  0  0  0  0  0  0  0  0
  140.2144   71.9813  219.6999 H   0  0  0  0  0  0  0  0  0  0  0  0
  141.4830   71.3080  222.0310 H   0  0  0  0  0  0  0  0  0  0  0  0
  141.2300   70.3010  220.6070 H   0  0  0  0  0  0  0  0  0  0  0  0
  142.2341   71.9687  218.4931 H   0  0  0  0  0  0  0  0  0  0  0  0
  141.7553   73.7229  218.8170 H   0  0  0  0  0  0  0  0  0  0  0  0
  143.1243   75.1345  220.2678 H   0  0  0  0  0  0  0  0  0  0  0  0
  145.3512   75.5038  221.2324 H   0  0  0  0  0  0  0  0  0  0  0  0
  147.0479   73.6807  221.3136 H   0  0  0  0  0  0  0  0  0  0  0  0
  146.4010   71.4573  220.3705 H   0  0  0  0  0  0  0  0  0  0  0  0
  140.9035   74.9126  218.7471 H   0  0  0  0  0  0  0  0  0  0  0  0
  139.6828   76.0767  219.3272 H   0  0  0  0  0  0  0  0  0  0  0  0
  142.6661   76.0649  219.6730 H   0  0  0  0  0  0  0  0  0  0  0  0
  141.4731   77.3698  219.0422 H   0  0  0  0  0  0  0  0  0  0  0  0
  1  2  1  0
  2  3  1  0
  3  4  2  0
  3  5  1  0
  5  6  1  0
  6  7  2  0
  7  8  1  0
  8  9  2  0
  9 10  1  0
 10 11  2  0
  5 12  1  0
 12 13  1  0
 13 14  1  0
 14 15  1  0
 15 16  1  0
 16 17  2  0
 16 18  1  0
 18 19  1  0
 18 20  1  0
 20 21  1  0
 21 22  2  0
 22 23  1  0
 23 24  2  0
 24 25  1  0
 25 26  2  0
 26 27  1  0
 15 28  1  0
 28 29  1  0
 11  6  1  0
 29 12  1  0
 26 21  1  0
  1 30  1  0
  1 31  1  0
  1 32  1  0
  2 33  1  0
  2 34  1  0
  7 35  1  0
  8 36  1  0
  9 37  1  0
 10 38  1  0
 11 39  1  0
 12 40  1  0
 13 41  1  0
 13 42  1  0
 14 43  1  0
 14 44  1  0
 18 45  1  6
 19 46  1  0
 19 47  1  0
 20 48  1  0
 20 49  1  0
 22 50  1  0
 23 51  1  0
 24 52  1  0
 25 53  1  0
 28 54  1  0
 28 55  1  0
 29 56  1  0
 29 57  1  0
M  END
>  <smiles>  (21) 
CCC(=O)N(c1ccccc1)C1CCN(C(=O)[C@H](N)Cc2ccccc2Br)CC1

>  <score_type>  (21) 
oracle

>  <origin>  (21) 
autodockgpu

>  <m_score__min__energy>  (21) 
-8.3100000000000005

>  <m_primary>  (21) 
energy

>  <rmsd>  (21) 
5.0623496757530555

>  <m_score__min__rmsd>  (21) 
5.0623496757530555

>  <meeko>  (21) 
{"free_energy": -6.49, "intermolecular_energy": -8.88, "internal_energy": -2.8, "cluster_size": 1, "cluster_id": 10, "rank_in_cluster": 1}

>  <energy>  (21) 
-7.42

>  <cluster_rmsd>  (21) 
0.0

>  <cluster>  (21) 
4

$$$$

     RDKit          3D

 57 59  0  0  0  0  0  0  0  0999 V2000
  143.3730   71.2930  216.4190 C   0  0  0  0  0  0  0  0  0  0  0  0
  144.6350   72.0040  216.7530 C   0  0  0  0  0  0  0  0  0  0  0  0
  145.1090   71.8330  218.1500 C   0  0  0  0  0  0  0  0  0  0  0  0
  145.9490   72.6570  218.6000 O   0  0  0  0  0  0  0  0  0  0  0  0
  144.6100   70.7470  218.9490 N   0  0  0  0  0  0  0  0  0  0  0  0
  145.1460   69.4450  218.7180 C   0  0  0  0  0  0  0  0  0  0  0  0
  144.9260   68.5130  219.7220 C   0  0  0  0  0  0  0  0  0  0  0  0
  145.3820   67.2110  219.6440 C   0  0  0  0  0  0  0  0  0  0  0  0
  146.0790   66.8700  218.5040 C   0  0  0  0  0  0  0  0  0  0  0  0
  146.3150   67.7880  217.4760 C   0  0  0  0  0  0  0  0  0  0  0  0
  145.8410   69.1020  217.5800 C   0  0  0  0  0  0  0  0  0  0  0  0
  143.5510   70.9770  219.9460 C   0  0  0  0  0  0  0  0  0  0  0  0
  143.6300   72.2780  220.6190 C   0  0  0  0  0  0  0  0  0  0  0  0
  142.5100   73.2380  220.4600 C   0  0  0  0  0  0  0  0  0  0  0  0
  141.2130   72.5210  220.3350 N   0  0  0  0  0  0  0  0  0  0  0  0
  140.2750   72.8060  221.3060 C   0  0  0  0  0  0  0  0  0  0  0  0
  140.7130   73.6590  222.2070 O   0  0  0  0  0  0  0  0  0  0  0  0
  138.9070   72.3710  221.5540 C   0  0  2  0  0  0  0  0  0  0  0  0
  138.1540   73.2850  222.3330 N   0  0  0  0  0  0  0  0  0  0  0  0
  138.9330   70.9490  222.0830 C   0  0  0  0  0  0  0  0  0  0  0  0
  139.4400   70.7800  223.4390 C   0  0  0  0  0  0  0  0  0  0  0  0
  140.6440   71.2960  223.9030 C   0  0  0  0  0  0  0  0  0  0  0  0
  141.0480   71.1600  225.2260 C   0  0  0  0  0  0  0  0  0  0  0  0
  140.2780   70.5030  226.1600 C   0  0  0  0  0  0  0  0  0  0  0  0
  139.0770   69.9830  225.7080 C   0  0  0  0  0  0  0  0  0  0  0  0
  138.6710   70.1180  224.3810 C   0  0  0  0  0  0  0  0  0  0  0  0
  137.0240   69.2380  223.9380 Br  0  0  0  0  0  0  0  0  0  0  0  0
  141.1780   71.6180  219.2180 C   0  0  0  0  0  0  0  0  0  0  0  0
  142.2230   70.5820  219.4380 C   0  0  0  0  0  0  0  0  0  0  0  0
  142.8587   71.0032  217.3472 H   0  0  0  0  0  0  0  0  0  0  0  0
  142.7224   71.9573  215.8313 H   0  0  0  0  0  0  0  0  0  0  0  0
  143.6041   70.3923  215.8313 H   0  0  0  0  0  0  0  0  0  0  0  0
  145.4220   71.6341  216.0794 H   0  0  0  0  0  0  0  0  0  0  0  0
  144.4208   73.0763  216.6335 H   0  0  0  0  0  0  0  0  0  0  0  0
  144.3658   68.8232  220.6164 H   0  0  0  0  0  0  0  0  0  0  0  0
  145.1986   66.4844  220.4492 H   0  0  0  0  0  0  0  0  0  0  0  0
  146.4612   65.8438  218.4001 H   0  0  0  0  0  0  0  0  0  0  0  0
  146.8752   67.4770  216.5819 H   0  0  0  0  0  0  0  0  0  0  0  0
  146.0181   69.8352  216.7794 H   0  0  0  0  0  0  0  0  0  0  0  0
  143.7397   70.2883  220.7827 H   0  0  0  0  0  0  0  0  0  0  0  0
  143.7334   72.0784  221.6958 H   0  0  0  0  0  0  0  0  0  0  0  0
  144.4784   72.7781  220.1289 H   0  0  0  0  0  0  0  0  0  0  0  0
  142.4736   73.8984  221.3390 H   0  0  0  0  0  0  0  0  0  0  0  0
  142.6771   73.8261  219.5456 H   0  0  0  0  0  0  0  0  0  0  0  0
  138.3524   72.3628  220.6041 H   0  0  0  0  0  0  0  0  0  0  0  0
  138.6530   74.0670  222.7520 H   0  0  0  0  0  0  0  0  0  0  0  0
  137.1740   73.3810  222.0830 H   0  0  0  0  0  0  0  0  0  0  0  0
  137.9036   70.5620  222.0581 H   0  0  0  0  0  0  0  0  0  0  0  0
  139.6350   70.4045  221.4343 H   0  0  0  0  0  0  0  0  0  0  0  0
  141.2995   71.8302  223.1995 H   0  0  0  0  0  0  0  0  0  0  0  0
  142.0117   71.5901  225.5364 H   0  0  0  0  0  0  0  0  0  0  0  0
  140.5993   70.3973  227.2067 H   0  0  0  0  0  0  0  0  0  0  0  0
  138.4254   69.4488  226.4151 H   0  0  0  0  0  0  0  0  0  0  0  0
  140.1881   71.1429  219.1517 H   0  0  0  0  0  0  0  0  0  0  0  0
  141.3659   72.1601  218.2795 H   0  0  0  0  0  0  0  0  0  0  0  0
  141.8090   69.8594  220.1566 H   0  0  0  0  0  0  0  0  0  0  0  0
  142.4366   70.2153  218.4232 H   0  0  0  0  0  0  0  0  0  0  0  0
  1  2  1  0
  2  3  1  0
  3  4  2  0
  3  5  1  0
  5  6  1  0
  6  7  2  0
  7  8  1  0
  8  9  2  0
  9 10  1  0
 10 11  2  0
  5 12  1  0
 12 13  1  0
 13 14  1  0
 14 15  1  0
 15 16  1  0
 16 17  2  0
 16 18  1  0
 18 19  1  0
 18 20  1  0
 20 21  1  0
 21 22  2  0
 22 23  1  0
 23 24  2  0
 24 25  1  0
 25 26  2  0
 26 27  1  0
 15 28  1  0
 28 29  1  0
 11  6  1  0
 29 12  1  0
 26 21  1  0
  1 30  1  0
  1 31  1  0
  1 32  1  0
  2 33  1  0
  2 34  1  0
  7 35  1  0
  8 36  1  0
  9 37  1  0
 10 38  1  0
 11 39  1  0
 12 40  1  0
 13 41  1  0
 13 42  1  0
 14 43  1  0
 14 44  1  0
 18 45  1  6
 19 46  1  0
 19 47  1  0
 20 48  1  0
 20 49  1  0
 22 50  1  0
 23 51  1  0
 24 52  1  0
 25 53  1  0
 28 54  1  0
 28 55  1  0
 29 56  1  0
 29 57  1  0
M  END
>  <smiles>  (22) 
CCC(=O)N(c1ccccc1)C1CCN(C(=O)[C@H](N)Cc2ccccc2Br)CC1

>  <score_type>  (22) 
oracle

>  <origin>  (22) 
autodockgpu

>  <m_score__min__energy>  (22) 
-8.3100000000000005

>  <m_primary>  (22) 
energy

>  <rmsd>  (22) 
8.135762525101933

>  <m_score__min__rmsd>  (22) 
8.135762525101933

>  <meeko>  (22) 
{"free_energy": -6.69, "intermolecular_energy": -9.08, "internal_energy": -2.55, "cluster_size": 7, "cluster_id": 2, "rank_in_cluster": 7}

>  <energy>  (22) 
-7.11

>  <cluster_rmsd>  (22) 
1.43

>  <cluster>  (22) 
4

$$$$

     RDKit          3D

 57 59  0  0  0  0  0  0  0  0999 V2000
  138.3870   75.1650  220.0880 C   0  0  0  0  0  0  0  0  0  0  0  0
  139.7310   74.6060  219.7860 C   0  0  0  0  0  0  0  0  0  0  0  0
  140.7310   74.7330  220.8770 C   0  0  0  0  0  0  0  0  0  0  0  0
  140.4180   74.3190  222.0250 O   0  0  0  0  0  0  0  0  0  0  0  0
  142.0160   75.3180  220.6070 N   0  0  0  0  0  0  0  0  0  0  0  0
  143.1420   74.4470  220.5200 C   0  0  0  0  0  0  0  0  0  0  0  0
  142.8570   73.0890  220.5070 C   0  0  0  0  0  0  0  0  0  0  0  0
  143.8400   72.1210  220.4260 C   0  0  0  0  0  0  0  0  0  0  0  0
  145.1430   72.5700  220.3570 C   0  0  0  0  0  0  0  0  0  0  0  0
  145.4600   73.9320  220.3680 C   0  0  0  0  0  0  0  0  0  0  0  0
  144.4430   74.8920  220.4500 C   0  0  0  0  0  0  0  0  0  0  0  0
  142.1600   76.7770  220.4650 C   0  0  0  0  0  0  0  0  0  0  0  0
  142.5470   77.2150  219.1210 C   0  0  0  0  0  0  0  0  0  0  0  0
  141.6220   78.0870  218.3550 C   0  0  0  0  0  0  0  0  0  0  0  0
  140.8740   78.9930  219.2680 N   0  0  0  0  0  0  0  0  0  0  0  0
  141.0580   80.3440  219.0540 C   0  0  0  0  0  0  0  0  0  0  0  0
  141.9050   80.5980  218.0790 O   0  0  0  0  0  0  0  0  0  0  0  0
  140.5240   81.5510  219.6710 C   0  0  2  0  0  0  0  0  0  0  0  0
  140.3150   82.6100  218.7530 N   0  0  0  0  0  0  0  0  0  0  0  0
  141.3770   81.9060  220.8750 C   0  0  0  0  0  0  0  0  0  0  0  0
  141.4370   80.9050  221.9330 C   0  0  0  0  0  0  0  0  0  0  0  0
  142.5740   80.1830  222.2750 C   0  0  0  0  0  0  0  0  0  0  0  0
  142.5920   79.2870  223.3370 C   0  0  0  0  0  0  0  0  0  0  0  0
  141.4800   79.0580  224.1180 C   0  0  0  0  0  0  0  0  0  0  0  0
  140.3410   79.7700  223.7840 C   0  0  0  0  0  0  0  0  0  0  0  0
  140.3210   80.6690  222.7180 C   0  0  0  0  0  0  0  0  0  0  0  0
  138.6170   81.4750  222.3610 Br  0  0  0  0  0  0  0  0  0  0  0  0
  140.0970   78.2840  220.2460 C   0  0  0  0  0  0  0  0  0  0  0  0
  141.0390   77.5030  221.0940 C   0  0  0  0  0  0  0  0  0  0  0  0
  138.2500   75.2220  221.1779 H   0  0  0  0  0  0  0  0  0  0  0  0
  138.3031   76.1726  219.6548 H   0  0  0  0  0  0  0  0  0  0  0  0
  137.6133   74.5141  219.6548 H   0  0  0  0  0  0  0  0  0  0  0  0
  139.6109   73.5366  219.5579 H   0  0  0  0  0  0  0  0  0  0  0  0
  140.1232   75.1949  218.9438 H   0  0  0  0  0  0  0  0  0  0  0  0
  141.8058   72.7700  220.5635 H   0  0  0  0  0  0  0  0  0  0  0  0
  143.5964   71.0484  220.4170 H   0  0  0  0  0  0  0  0  0  0  0  0
  145.9576   71.8337  220.2913 H   0  0  0  0  0  0  0  0  0  0  0  0
  146.5114   74.2506  220.3121 H   0  0  0  0  0  0  0  0  0  0  0  0
  144.6764   75.9669  220.4582 H   0  0  0  0  0  0  0  0  0  0  0  0
  143.0418   77.0742  221.0516 H   0  0  0  0  0  0  0  0  0  0  0  0
  143.4966   77.7611  219.2208 H   0  0  0  0  0  0  0  0  0  0  0  0
  142.5755   76.2830  218.5374 H   0  0  0  0  0  0  0  0  0  0  0  0
  142.2027   78.6916  217.6428 H   0  0  0  0  0  0  0  0  0  0  0  0
  140.9011   77.4523  217.8189 H   0  0  0  0  0  0  0  0  0  0  0  0
  139.5049   81.3516  220.0337 H   0  0  0  0  0  0  0  0  0  0  0  0
  140.7850   82.5510  217.8520 H   0  0  0  0  0  0  0  0  0  0  0  0
  139.4290   83.1010  218.8350 H   0  0  0  0  0  0  0  0  0  0  0  0
  142.4031   82.0826  220.5202 H   0  0  0  0  0  0  0  0  0  0  0  0
  140.8992   82.7875  221.3274 H   0  0  0  0  0  0  0  0  0  0  0  0
  143.4912   80.3256  221.6848 H   0  0  0  0  0  0  0  0  0  0  0  0
  143.5221   78.7441  223.5611 H   0  0  0  0  0  0  0  0  0  0  0  0
  141.4966   78.3495  224.9592 H   0  0  0  0  0  0  0  0  0  0  0  0
  139.4257   79.6226  224.3761 H   0  0  0  0  0  0  0  0  0  0  0  0
  139.5367   78.9975  220.8681 H   0  0  0  0  0  0  0  0  0  0  0  0
  139.3767   77.6142  219.7535 H   0  0  0  0  0  0  0  0  0  0  0  0
  141.4798   78.2084  221.8138 H   0  0  0  0  0  0  0  0  0  0  0  0
  140.4094   76.6982  221.5014 H   0  0  0  0  0  0  0  0  0  0  0  0
  1  2  1  0
  2  3  1  0
  3  4  2  0
  3  5  1  0
  5  6  1  0
  6  7  2  0
  7  8  1  0
  8  9  2  0
  9 10  1  0
 10 11  2  0
  5 12  1  0
 12 13  1  0
 13 14  1  0
 14 15  1  0
 15 16  1  0
 16 17  2  0
 16 18  1  0
 18 19  1  0
 18 20  1  0
 20 21  1  0
 21 22  2  0
 22 23  1  0
 23 24  2  0
 24 25  1  0
 25 26  2  0
 26 27  1  0
 15 28  1  0
 28 29  1  0
 11  6  1  0
 29 12  1  0
 26 21  1  0
  1 30  1  0
  1 31  1  0
  1 32  1  0
  2 33  1  0
  2 34  1  0
  7 35  1  0
  8 36  1  0
  9 37  1  0
 10 38  1  0
 11 39  1  0
 12 40  1  0
 13 41  1  0
 13 42  1  0
 14 43  1  0
 14 44  1  0
 18 45  1  1
 19 46  1  0
 19 47  1  0
 20 48  1  0
 20 49  1  0
 22 50  1  0
 23 51  1  0
 24 52  1  0
 25 53  1  0
 28 54  1  0
 28 55  1  0
 29 56  1  0
 29 57  1  0
M  END
>  <smiles>  (23) 
CCC(=O)N(c1ccccc1)C1CCN(C(=O)[C@H](N)Cc2ccccc2Br)CC1

>  <score_type>  (23) 
oracle

>  <origin>  (23) 
autodockgpu

>  <m_score__min__energy>  (23) 
-8.3100000000000005

>  <m_primary>  (23) 
energy

>  <rmsd>  (23) 
5.531701405915108

>  <m_score__min__rmsd>  (23) 
5.531701405915108

>  <meeko>  (23) 
{"free_energy": -6.32, "intermolecular_energy": -8.7, "internal_energy": -3.07, "cluster_size": 9, "cluster_id": 11, "rank_in_cluster": 4}

>  <energy>  (23) 
-7.04

>  <cluster_rmsd>  (23) 
1.6

>  <cluster>  (23) 
4

$$$$

     RDKit          3D

 57 59  0  0  0  0  0  0  0  0999 V2000
  136.8810   70.5980  224.2350 C   0  0  0  0  0  0  0  0  0  0  0  0
  137.3010   69.1740  224.3050 C   0  0  0  0  0  0  0  0  0  0  0  0
  138.7180   68.9480  224.6860 C   0  0  0  0  0  0  0  0  0  0  0  0
  139.0590   67.7940  225.0600 O   0  0  0  0  0  0  0  0  0  0  0  0
  139.6590   70.0330  224.6240 N   0  0  0  0  0  0  0  0  0  0  0  0
  140.1120   70.5970  225.8540 C   0  0  0  0  0  0  0  0  0  0  0  0
  139.5830   70.0360  227.0080 C   0  0  0  0  0  0  0  0  0  0  0  0
  139.9240   70.4730  228.2730 C   0  0  0  0  0  0  0  0  0  0  0  0
  140.8310   71.5100  228.3440 C   0  0  0  0  0  0  0  0  0  0  0  0
  141.3800   72.0950  227.1980 C   0  0  0  0  0  0  0  0  0  0  0  0
  141.0170   71.6320  225.9270 C   0  0  0  0  0  0  0  0  0  0  0  0
  140.1050   70.5630  223.3240 C   0  0  0  0  0  0  0  0  0  0  0  0
  139.5910   69.8270  222.1650 C   0  0  0  0  0  0  0  0  0  0  0  0
  138.7190   70.5330  221.1940 C   0  0  0  0  0  0  0  0  0  0  0  0
  139.1100   71.9640  221.0780 N   0  0  0  0  0  0  0  0  0  0  0  0
  139.5030   72.3770  219.8210 C   0  0  0  0  0  0  0  0  0  0  0  0
  139.4900   71.4050  218.9340 O   0  0  0  0  0  0  0  0  0  0  0  0
  139.9290   73.6520  219.2590 C   0  0  2  0  0  0  0  0  0  0  0  0
  140.5070   73.5380  217.9700 N   0  0  0  0  0  0  0  0  0  0  0  0
  140.7830   74.3780  220.2820 C   0  0  0  0  0  0  0  0  0  0  0  0
  142.1580   73.9120  220.4140 C   0  0  0  0  0  0  0  0  0  0  0  0
  142.5260   72.6490  220.8610 C   0  0  0  0  0  0  0  0  0  0  0  0
  143.8520   72.2340  220.9050 C   0  0  0  0  0  0  0  0  0  0  0  0
  144.8860   73.0530  220.5060 C   0  0  0  0  0  0  0  0  0  0  0  0
  144.5310   74.3150  220.0610 C   0  0  0  0  0  0  0  0  0  0  0  0
  143.2010   74.7320  220.0170 C   0  0  0  0  0  0  0  0  0  0  0  0
  142.9330   76.5500  219.4640 Br  0  0  0  0  0  0  0  0  0  0  0  0
  139.0340   72.6680  222.3270 C   0  0  0  0  0  0  0  0  0  0  0  0
  139.9990   72.0340  223.2660 C   0  0  0  0  0  0  0  0  0  0  0  0
  136.7636   70.9961  225.2537 H   0  0  0  0  0  0  0  0  0  0  0  0
  137.6457   71.1800  223.6998 H   0  0  0  0  0  0  0  0  0  0  0  0
  135.9228   70.6718  223.6998 H   0  0  0  0  0  0  0  0  0  0  0  0
  136.6650   68.6683  225.0464 H   0  0  0  0  0  0  0  0  0  0  0  0
  137.1929   68.7748  223.2857 H   0  0  0  0  0  0  0  0  0  0  0  0
  138.8631   69.2100  226.9112 H   0  0  0  0  0  0  0  0  0  0  0  0
  139.4944   70.0176  229.1775 H   0  0  0  0  0  0  0  0  0  0  0  0
  141.1317   71.8885  229.3321 H   0  0  0  0  0  0  0  0  0  0  0  0
  142.0993   72.9215  227.2954 H   0  0  0  0  0  0  0  0  0  0  0  0
  141.4412   72.0807  225.0167 H   0  0  0  0  0  0  0  0  0  0  0  0
  141.1837   70.3625  223.2457 H   0  0  0  0  0  0  0  0  0  0  0  0
  140.4628   69.4568  221.6056 H   0  0  0  0  0  0  0  0  0  0  0  0
  138.9315   69.0656  222.6070 H   0  0  0  0  0  0  0  0  0  0  0  0
  138.8125   70.0523  220.2090 H   0  0  0  0  0  0  0  0  0  0  0  0
  137.6791   70.4786  221.5486 H   0  0  0  0  0  0  0  0  0  0  0  0
  139.0437   74.2747  219.0628 H   0  0  0  0  0  0  0  0  0  0  0  0
  140.6650   72.6000  217.6080 H   0  0  0  0  0  0  0  0  0  0  0  0
  140.3280   74.3070  217.3320 H   0  0  0  0  0  0  0  0  0  0  0  0
  140.8136   75.4411  220.0010 H   0  0  0  0  0  0  0  0  0  0  0  0
  140.3093   74.1827  221.2554 H   0  0  0  0  0  0  0  0  0  0  0  0
  141.7408   71.9532  221.1916 H   0  0  0  0  0  0  0  0  0  0  0  0
  144.0827   71.2220  221.2691 H   0  0  0  0  0  0  0  0  0  0  0  0
  145.9347   72.7225  220.5392 H   0  0  0  0  0  0  0  0  0  0  0  0
  145.3199   75.0080  219.7331 H   0  0  0  0  0  0  0  0  0  0  0  0
  139.2974   73.7254  222.1772 H   0  0  0  0  0  0  0  0  0  0  0  0
  138.0133   72.6192  222.7341 H   0  0  0  0  0  0  0  0  0  0  0  0
  140.9968   72.4155  223.0035 H   0  0  0  0  0  0  0  0  0  0  0  0
  139.6044   72.3013  224.2574 H   0  0  0  0  0  0  0  0  0  0  0  0
  1  2  1  0
  2  3  1  0
  3  4  2  0
  3  5  1  0
  5  6  1  0
  6  7  2  0
  7  8  1  0
  8  9  2  0
  9 10  1  0
 10 11  2  0
  5 12  1  0
 12 13  1  0
 13 14  1  0
 14 15  1  0
 15 16  1  0
 16 17  2  0
 16 18  1  0
 18 19  1  0
 18 20  1  0
 20 21  1  0
 21 22  2  0
 22 23  1  0
 23 24  2  0
 24 25  1  0
 25 26  2  0
 26 27  1  0
 15 28  1  0
 28 29  1  0
 11  6  1  0
 29 12  1  0
 26 21  1  0
  1 30  1  0
  1 31  1  0
  1 32  1  0
  2 33  1  0
  2 34  1  0
  7 35  1  0
  8 36  1  0
  9 37  1  0
 10 38  1  0
 11 39  1  0
 12 40  1  0
 13 41  1  0
 13 42  1  0
 14 43  1  0
 14 44  1  0
 18 45  1  6
 19 46  1  0
 19 47  1  0
 20 48  1  0
 20 49  1  0
 22 50  1  0
 23 51  1  0
 24 52  1  0
 25 53  1  0
 28 54  1  0
 28 55  1  0
 29 56  1  0
 29 57  1  0
M  END
>  <smiles>  (24) 
CCC(=O)N(c1ccccc1)C1CCN(C(=O)[C@H](N)Cc2ccccc2Br)CC1

>  <score_type>  (24) 
oracle

>  <origin>  (24) 
autodockgpu

>  <m_score__min__energy>  (24) 
-8.3100000000000005

>  <m_primary>  (24) 
energy

>  <rmsd>  (24) 
7.412139442427469

>  <m_score__min__rmsd>  (24) 
7.412139442427469

>  <meeko>  (24) 
{"free_energy": -6.72, "intermolecular_energy": -9.1, "internal_energy": -2.57, "cluster_size": 2, "cluster_id": 8, "rank_in_cluster": 1}

>  <energy>  (24) 
-7.02

>  <cluster_rmsd>  (24) 
1.43

>  <cluster>  (24) 
4

$$$$

     RDKit          3D

 57 59  0  0  0  0  0  0  0  0999 V2000
  137.5440   84.0830  222.3410 C   0  0  0  0  0  0  0  0  0  0  0  0
  136.1860   83.4790  222.3920 C   0  0  0  0  0  0  0  0  0  0  0  0
  136.1520   82.0120  222.6160 C   0  0  0  0  0  0  0  0  0  0  0  0
  135.3950   81.3140  221.8890 O   0  0  0  0  0  0  0  0  0  0  0  0
  136.9680   81.4250  223.6430 N   0  0  0  0  0  0  0  0  0  0  0  0
  136.5400   81.5600  224.9980 C   0  0  0  0  0  0  0  0  0  0  0  0
  135.3260   80.9650  225.3110 C   0  0  0  0  0  0  0  0  0  0  0  0
  134.7790   81.0100  226.5790 C   0  0  0  0  0  0  0  0  0  0  0  0
  135.5040   81.6840  227.5400 C   0  0  0  0  0  0  0  0  0  0  0  0
  136.7300   82.2930  227.2530 C   0  0  0  0  0  0  0  0  0  0  0  0
  137.2620   82.2320  225.9580 C   0  0  0  0  0  0  0  0  0  0  0  0
  138.2260   80.7390  223.2990 C   0  0  0  0  0  0  0  0  0  0  0  0
  138.3350   79.3780  223.8340 C   0  0  0  0  0  0  0  0  0  0  0  0
  138.4490   78.2410  222.8870 C   0  0  0  0  0  0  0  0  0  0  0  0
  139.1970   78.6450  221.6650 N   0  0  0  0  0  0  0  0  0  0  0  0
  140.3570   77.9410  221.4140 C   0  0  0  0  0  0  0  0  0  0  0  0
  140.6180   77.0370  222.3350 O   0  0  0  0  0  0  0  0  0  0  0  0
  141.3570   77.9780  220.3560 C   0  0  2  0  0  0  0  0  0  0  0  0
  142.3300   76.9520  220.4600 N   0  0  0  0  0  0  0  0  0  0  0  0
  141.9180   79.3850  220.2600 C   0  0  0  0  0  0  0  0  0  0  0  0
  142.0160   80.1210  221.5140 C   0  0  0  0  0  0  0  0  0  0  0  0
  142.4850   79.5890  222.7090 C   0  0  0  0  0  0  0  0  0  0  0  0
  142.6190   80.3560  223.8610 C   0  0  0  0  0  0  0  0  0  0  0  0
  142.2940   81.6950  223.8870 C   0  0  0  0  0  0  0  0  0  0  0  0
  141.8240   82.2350  222.7020 C   0  0  0  0  0  0  0  0  0  0  0  0
  141.6890   81.4660  221.5460 C   0  0  0  0  0  0  0  0  0  0  0  0
  140.9250   82.3810  220.0430 Br  0  0  0  0  0  0  0  0  0  0  0  0
  138.5790   79.7370  220.9660 C   0  0  0  0  0  0  0  0  0  0  0  0
  138.5750   80.9150  221.8770 C   0  0  0  0  0  0  0  0  0  0  0  0
  137.9113   84.2464  223.3649 H   0  0  0  0  0  0  0  0  0  0  0  0
  138.2276   83.4041  221.8102 H   0  0  0  0  0  0  0  0  0  0  0  0
  137.4976   85.0453  221.8102 H   0  0  0  0  0  0  0  0  0  0  0  0
  135.6304   83.9606  223.2101 H   0  0  0  0  0  0  0  0  0  0  0  0
  135.7417   83.6454  221.3996 H   0  0  0  0  0  0  0  0  0  0  0  0
  134.7772   80.4363  224.5178 H   0  0  0  0  0  0  0  0  0  0  0  0
  133.8152   80.5330  226.8103 H   0  0  0  0  0  0  0  0  0  0  0  0
  135.1055   81.7443  228.5635 H   0  0  0  0  0  0  0  0  0  0  0  0
  137.2785   82.8216  228.0465 H   0  0  0  0  0  0  0  0  0  0  0  0
  138.2250   82.7056  225.7166 H   0  0  0  0  0  0  0  0  0  0  0  0
  139.0337   81.2498  223.8437 H   0  0  0  0  0  0  0  0  0  0  0  0
  139.2281   79.3542  224.4757 H   0  0  0  0  0  0  0  0  0  0  0  0
  137.3684   79.2114  224.3320 H   0  0  0  0  0  0  0  0  0  0  0  0
  138.9815   77.4137  223.3789 H   0  0  0  0  0  0  0  0  0  0  0  0
  137.4376   77.9237  222.5930 H   0  0  0  0  0  0  0  0  0  0  0  0
  140.8752   77.7457  219.3948 H   0  0  0  0  0  0  0  0  0  0  0  0
  143.2670   77.1580  220.1210 H   0  0  0  0  0  0  0  0  0  0  0  0
  142.1950   76.2860  221.2140 H   0  0  0  0  0  0  0  0  0  0  0  0
  142.9284   79.3158  219.8306 H   0  0  0  0  0  0  0  0  0  0  0  0
  141.2033   79.9475  219.6413 H   0  0  0  0  0  0  0  0  0  0  0  0
  142.7597   78.5244  222.7448 H   0  0  0  0  0  0  0  0  0  0  0  0
  142.9955   79.8801  224.7785 H   0  0  0  0  0  0  0  0  0  0  0  0
  142.4020   82.3010  224.7986 H   0  0  0  0  0  0  0  0  0  0  0  0
  141.5495   83.2997  222.6712 H   0  0  0  0  0  0  0  0  0  0  0  0
  139.1503   79.9699  220.0553 H   0  0  0  0  0  0  0  0  0  0  0  0
  137.5520   79.4740  220.6726 H   0  0  0  0  0  0  0  0  0  0  0  0
  139.5875   81.3439  221.8480 H   0  0  0  0  0  0  0  0  0  0  0  0
  137.7552   81.5366  221.4876 H   0  0  0  0  0  0  0  0  0  0  0  0
  1  2  1  0
  2  3  1  0
  3  4  2  0
  3  5  1  0
  5  6  1  0
  6  7  2  0
  7  8  1  0
  8  9  2  0
  9 10  1  0
 10 11  2  0
  5 12  1  0
 12 13  1  0
 13 14  1  0
 14 15  1  0
 15 16  1  0
 16 17  2  0
 16 18  1  0
 18 19  1  0
 18 20  1  0
 20 21  1  0
 21 22  2  0
 22 23  1  0
 23 24  2  0
 24 25  1  0
 25 26  2  0
 26 27  1  0
 15 28  1  0
 28 29  1  0
 11  6  1  0
 29 12  1  0
 26 21  1  0
  1 30  1  0
  1 31  1  0
  1 32  1  0
  2 33  1  0
  2 34  1  0
  7 35  1  0
  8 36  1  0
  9 37  1  0
 10 38  1  0
 11 39  1  0
 12 40  1  0
 13 41  1  0
 13 42  1  0
 14 43  1  0
 14 44  1  0
 18 45  1  6
 19 46  1  0
 19 47  1  0
 20 48  1  0
 20 49  1  0
 22 50  1  0
 23 51  1  0
 24 52  1  0
 25 53  1  0
 28 54  1  0
 28 55  1  0
 29 56  1  0
 29 57  1  0
M  END
>  <smiles>  (25) 
CCC(=O)N(c1ccccc1)C1CCN(C(=O)[C@H](N)Cc2ccccc2Br)CC1

>  <score_type>  (25) 
oracle

>  <origin>  (25) 
autodockgpu

>  <m_score__min__energy>  (25) 
-8.3100000000000005

>  <m_primary>  (25) 
energy

>  <rmsd>  (25) 
4.4244886914289285

>  <m_score__min__rmsd>  (25) 
4.4244886914289285

>  <meeko>  (25) 
{"free_energy": -5.84, "intermolecular_energy": -8.22, "internal_energy": -3.37, "cluster_size": 3, "cluster_id": 13, "rank_in_cluster": 3}

>  <energy>  (25) 
-6.98

>  <cluster_rmsd>  (25) 
1.44

>  <cluster>  (25) 
4

$$$$

     RDKit          3D

 57 59  0  0  0  0  0  0  0  0999 V2000
  140.2130   74.8220  218.4020 C   0  0  0  0  0  0  0  0  0  0  0  0
  139.6860   74.5590  219.7660 C   0  0  0  0  0  0  0  0  0  0  0  0
  140.6510   74.7780  220.8730 C   0  0  0  0  0  0  0  0  0  0  0  0
  140.2760   74.5250  222.0500 O   0  0  0  0  0  0  0  0  0  0  0  0
  141.9720   75.2660  220.5870 N   0  0  0  0  0  0  0  0  0  0  0  0
  143.0290   74.3130  220.4810 C   0  0  0  0  0  0  0  0  0  0  0  0
  144.3150   74.8340  220.4870 C   0  0  0  0  0  0  0  0  0  0  0  0
  145.4420   74.0390  220.3920 C   0  0  0  0  0  0  0  0  0  0  0  0
  145.2300   72.6800  220.2880 C   0  0  0  0  0  0  0  0  0  0  0  0
  143.9450   72.1270  220.2800 C   0  0  0  0  0  0  0  0  0  0  0  0
  142.8200   72.9570  220.3780 C   0  0  0  0  0  0  0  0  0  0  0  0
  142.2220   76.7110  220.4470 C   0  0  0  0  0  0  0  0  0  0  0  0
  142.7870   77.1010  219.1510 C   0  0  0  0  0  0  0  0  0  0  0  0
  142.0130   78.0130  218.2740 C   0  0  0  0  0  0  0  0  0  0  0  0
  141.2230   78.9790  219.0850 N   0  0  0  0  0  0  0  0  0  0  0  0
  141.5150   80.3120  218.8800 C   0  0  0  0  0  0  0  0  0  0  0  0
  142.4820   80.4970  218.0070 O   0  0  0  0  0  0  0  0  0  0  0  0
  140.9900   81.5600  219.4180 C   0  0  2  0  0  0  0  0  0  0  0  0
  141.2400   82.6830  218.5900 N   0  0  0  0  0  0  0  0  0  0  0  0
  141.4520   81.7080  220.8560 C   0  0  0  0  0  0  0  0  0  0  0  0
  140.5780   81.1340  221.8710 C   0  0  0  0  0  0  0  0  0  0  0  0
  139.1940   81.2510  221.8800 C   0  0  0  0  0  0  0  0  0  0  0  0
  138.4030   80.6270  222.8390 C   0  0  0  0  0  0  0  0  0  0  0  0
  138.9460   79.8530  223.8400 C   0  0  0  0  0  0  0  0  0  0  0  0
  140.3250   79.7310  223.8420 C   0  0  0  0  0  0  0  0  0  0  0  0
  141.1200   80.3570  222.8810 C   0  0  0  0  0  0  0  0  0  0  0  0
  143.0110   80.1450  223.1220 Br  0  0  0  0  0  0  0  0  0  0  0  0
  140.2960   78.3370  219.9750 C   0  0  0  0  0  0  0  0  0  0  0  0
  141.0840   77.5140  220.9340 C   0  0  0  0  0  0  0  0  0  0  0  0
  141.1950   75.3121  218.4765 H   0  0  0  0  0  0  0  0  0  0  0  0
  140.3182   73.8707  217.8598 H   0  0  0  0  0  0  0  0  0  0  0  0
  139.5160   75.4780  217.8598 H   0  0  0  0  0  0  0  0  0  0  0  0
  138.8239   75.2220  219.9308 H   0  0  0  0  0  0  0  0  0  0  0  0
  139.4312   73.4892  219.7922 H   0  0  0  0  0  0  0  0  0  0  0  0
  144.4429   75.9233  220.5707 H   0  0  0  0  0  0  0  0  0  0  0  0
  146.4550   74.4678  220.3990 H   0  0  0  0  0  0  0  0  0  0  0  0
  146.0987   72.0099  220.2088 H   0  0  0  0  0  0  0  0  0  0  0  0
  143.8173   71.0376  220.1966 H   0  0  0  0  0  0  0  0  0  0  0  0
  141.8030   72.5380  220.3728 H   0  0  0  0  0  0  0  0  0  0  0  0
  143.0476   76.9647  221.1282 H   0  0  0  0  0  0  0  0  0  0  0  0
  143.7512   77.5902  219.3538 H   0  0  0  0  0  0  0  0  0  0  0  0
  142.8233   76.1586  218.5849 H   0  0  0  0  0  0  0  0  0  0  0  0
  142.7083   78.5684  217.6274 H   0  0  0  0  0  0  0  0  0  0  0  0
  141.3205   77.4139  217.6645 H   0  0  0  0  0  0  0  0  0  0  0  0
  139.8909   81.5167  219.4257 H   0  0  0  0  0  0  0  0  0  0  0  0
  141.9390   82.5800  217.8570 H   0  0  0  0  0  0  0  0  0  0  0  0
  140.4650   83.3280  218.4680 H   0  0  0  0  0  0  0  0  0  0  0  0
  142.4351   81.2226  220.9451 H   0  0  0  0  0  0  0  0  0  0  0  0
  141.4641   82.7901  221.0533 H   0  0  0  0  0  0  0  0  0  0  0  0
  138.7070   81.8577  221.1024 H   0  0  0  0  0  0  0  0  0  0  0  0
  137.3114   80.7557  222.7965 H   0  0  0  0  0  0  0  0  0  0  0  0
  138.3186   79.3588  224.5964 H   0  0  0  0  0  0  0  0  0  0  0  0
  140.8072   79.1240  224.6224 H   0  0  0  0  0  0  0  0  0  0  0  0
  139.7151   79.0948  220.5211 H   0  0  0  0  0  0  0  0  0  0  0  0
  139.5952   77.7046  219.4103 H   0  0  0  0  0  0  0  0  0  0  0  0
  141.4820   78.2032  221.6933 H   0  0  0  0  0  0  0  0  0  0  0  0
  140.3627   76.7558  221.2728 H   0  0  0  0  0  0  0  0  0  0  0  0
  1  2  1  0
  2  3  1  0
  3  4  2  0
  3  5  1  0
  5  6  1  0
  6  7  2  0
  7  8  1  0
  8  9  2  0
  9 10  1  0
 10 11  2  0
  5 12  1  0
 12 13  1  0
 13 14  1  0
 14 15  1  0
 15 16  1  0
 16 17  2  0
 16 18  1  0
 18 19  1  0
 18 20  1  0
 20 21  1  0
 21 22  2  0
 22 23  1  0
 23 24  2  0
 24 25  1  0
 25 26  2  0
 26 27  1  0
 15 28  1  0
 28 29  1  0
 11  6  1  0
 29 12  1  0
 26 21  1  0
  1 30  1  0
  1 31  1  0
  1 32  1  0
  2 33  1  0
  2 34  1  0
  7 35  1  0
  8 36  1  0
  9 37  1  0
 10 38  1  0
 11 39  1  0
 12 40  1  0
 13 41  1  0
 13 42  1  0
 14 43  1  0
 14 44  1  0
 18 45  1  1
 19 46  1  0
 19 47  1  0
 20 48  1  0
 20 49  1  0
 22 50  1  0
 23 51  1  0
 24 52  1  0
 25 53  1  0
 28 54  1  0
 28 55  1  0
 29 56  1  0
 29 57  1  0
M  END
>  <smiles>  (26) 
CCC(=O)N(c1ccccc1)C1CCN(C(=O)[C@H](N)Cc2ccccc2Br)CC1

>  <score_type>  (26) 
oracle

>  <origin>  (26) 
autodockgpu

>  <m_score__min__energy>  (26) 
-8.3100000000000005

>  <m_primary>  (26) 
energy

>  <rmsd>  (26) 
5.596543263600837

>  <m_score__min__rmsd>  (26) 
5.596543263600837

>  <meeko>  (26) 
{"free_energy": -6.21, "intermolecular_energy": -8.6, "internal_energy": -3.1, "cluster_size": 9, "cluster_id": 11, "rank_in_cluster": 6}

>  <energy>  (26) 
-7.39

>  <cluster_rmsd>  (26) 
0.0

>  <cluster>  (26) 
5

$$$$

     RDKit          3D

 57 59  0  0  0  0  0  0  0  0999 V2000
  139.0060   73.9170  219.4800 C   0  0  0  0  0  0  0  0  0  0  0  0
  140.3410   73.3030  219.7030 C   0  0  0  0  0  0  0  0  0  0  0  0
  141.1390   73.8980  220.8040 C   0  0  0  0  0  0  0  0  0  0  0  0
  140.7040   73.7900  221.9820 O   0  0  0  0  0  0  0  0  0  0  0  0
  142.3710   74.5770  220.5110 N   0  0  0  0  0  0  0  0  0  0  0  0
  143.5480   73.7860  220.3490 C   0  0  0  0  0  0  0  0  0  0  0  0
  144.7290   74.3590  220.8000 C   0  0  0  0  0  0  0  0  0  0  0  0
  145.9500   73.7170  220.7120 C   0  0  0  0  0  0  0  0  0  0  0  0
  145.9460   72.4600  220.1460 C   0  0  0  0  0  0  0  0  0  0  0  0
  144.7720   71.8580  219.6820 C   0  0  0  0  0  0  0  0  0  0  0  0
  143.5470   72.5310  219.7840 C   0  0  0  0  0  0  0  0  0  0  0  0
  142.4140   76.0460  220.4210 C   0  0  0  0  0  0  0  0  0  0  0  0
  143.2050   76.5580  219.2970 C   0  0  0  0  0  0  0  0  0  0  0  0
  142.5290   77.3620  218.2500 C   0  0  0  0  0  0  0  0  0  0  0  0
  141.4230   78.1680  218.8350 N   0  0  0  0  0  0  0  0  0  0  0  0
  141.5390   79.5360  218.6930 C   0  0  0  0  0  0  0  0  0  0  0  0
  142.6460   79.8960  218.0780 O   0  0  0  0  0  0  0  0  0  0  0  0
  140.7080   80.6690  219.0750 C   0  0  2  0  0  0  0  0  0  0  0  0
  141.3850   81.9130  219.0180 N   0  0  0  0  0  0  0  0  0  0  0  0
  140.0420   80.3640  220.4050 C   0  0  0  0  0  0  0  0  0  0  0  0
  140.9380   80.1490  221.5340 C   0  0  0  0  0  0  0  0  0  0  0  0
  142.2160   80.6840  221.6430 C   0  0  0  0  0  0  0  0  0  0  0  0
  143.0030   80.4990  222.7740 C   0  0  0  0  0  0  0  0  0  0  0  0
  142.5630   79.7740  223.8590 C   0  0  0  0  0  0  0  0  0  0  0  0
  141.2910   79.2350  223.7600 C   0  0  0  0  0  0  0  0  0  0  0  0
  140.5010   79.4180  222.6260 C   0  0  0  0  0  0  0  0  0  0  0  0
  138.8140   78.5050  222.6500 Br  0  0  0  0  0  0  0  0  0  0  0  0
  140.4240   77.3620  219.4810 C   0  0  0  0  0  0  0  0  0  0  0  0
  141.0790   76.6460  220.6100 C   0  0  0  0  0  0  0  0  0  0  0  0
  138.5353   74.1335  220.4503 H   0  0  0  0  0  0  0  0  0  0  0  0
  139.1226   74.8519  218.9123 H   0  0  0  0  0  0  0  0  0  0  0  0
  138.3720   73.2200  218.9123 H   0  0  0  0  0  0  0  0  0  0  0  0
  140.1908   72.2373  219.9302 H   0  0  0  0  0  0  0  0  0  0  0  0
  140.9148   73.4817  218.7817 H   0  0  0  0  0  0  0  0  0  0  0  0
  144.6918   75.3642  221.2453 H   0  0  0  0  0  0  0  0  0  0  0  0
  146.8770   74.1850  221.0749 H   0  0  0  0  0  0  0  0  0  0  0  0
  146.8963   71.9132  220.0565 H   0  0  0  0  0  0  0  0  0  0  0  0
  144.8103   70.8533  219.2357 H   0  0  0  0  0  0  0  0  0  0  0  0
  142.6148   72.0711  219.4241 H   0  0  0  0  0  0  0  0  0  0  0  0
  143.0006   76.4059  221.2792 H   0  0  0  0  0  0  0  0  0  0  0  0
  144.0009   77.1868  219.7227 H   0  0  0  0  0  0  0  0  0  0  0  0
  143.5274   75.6503  218.7658 H   0  0  0  0  0  0  0  0  0  0  0  0
  143.2616   78.0384  217.7854 H   0  0  0  0  0  0  0  0  0  0  0  0
  142.1080   76.6789  217.4976 H   0  0  0  0  0  0  0  0  0  0  0  0
  139.9125   80.8012  218.3269 H   0  0  0  0  0  0  0  0  0  0  0  0
  141.1470   82.6110  219.7200 H   0  0  0  0  0  0  0  0  0  0  0  0
  142.3170   81.8940  218.6140 H   0  0  0  0  0  0  0  0  0  0  0  0
  139.3843   81.2099  220.6538 H   0  0  0  0  0  0  0  0  0  0  0  0
  139.5136   79.4102  220.2601 H   0  0  0  0  0  0  0  0  0  0  0  0
  142.6184   81.2737  220.8062 H   0  0  0  0  0  0  0  0  0  0  0  0
  144.0079   80.9454  222.8031 H   0  0  0  0  0  0  0  0  0  0  0  0
  143.1866   79.6310  224.7538 H   0  0  0  0  0  0  0  0  0  0  0  0
  140.8930   78.6461  224.5995 H   0  0  0  0  0  0  0  0  0  0  0  0
  139.6154   78.0026  219.8627 H   0  0  0  0  0  0  0  0  0  0  0  0
  139.9901   76.6437  218.7698 H   0  0  0  0  0  0  0  0  0  0  0  0
  141.1677   77.3670  221.4360 H   0  0  0  0  0  0  0  0  0  0  0  0
  140.4278   75.7744  220.7718 H   0  0  0  0  0  0  0  0  0  0  0  0
  1  2  1  0
  2  3  1  0
  3  4  2  0
  3  5  1  0
  5  6  1  0
  6  7  2  0
  7  8  1  0
  8  9  2  0
  9 10  1  0
 10 11  2  0
  5 12  1  0
 12 13  1  0
 13 14  1  0
 14 15  1  0
 15 16  1  0
 16 17  2  0
 16 18  1  0
 18 19  1  0
 18 20  1  0
 20 21  1  0
 21 22  2  0
 22 23  1  0
 23 24  2  0
 24 25  1  0
 25 26  2  0
 26 27  1  0
 15 28  1  0
 28 29  1  0
 11  6  1  0
 29 12  1  0
 26 21  1  0
  1 30  1  0
  1 31  1  0
  1 32  1  0
  2 33  1  0
  2 34  1  0
  7 35  1  0
  8 36  1  0
  9 37  1  0
 10 38  1  0
 11 39  1  0
 12 40  1  0
 13 41  1  0
 13 42  1  0
 14 43  1  0
 14 44  1  0
 18 45  1  6
 19 46  1  0
 19 47  1  0
 20 48  1  0
 20 49  1  0
 22 50  1  0
 23 51  1  0
 24 52  1  0
 25 53  1  0
 28 54  1  0
 28 55  1  0
 29 56  1  0
 29 57  1  0
M  END
>  <smiles>  (27) 
CCC(=O)N(c1ccccc1)C1CCN(C(=O)[C@H](N)Cc2ccccc2Br)CC1

>  <score_type>  (27) 
oracle

>  <origin>  (27) 
autodockgpu

>  <m_score__min__energy>  (27) 
-8.3100000000000005

>  <m_primary>  (27) 
energy

>  <rmsd>  (27) 
5.407839052686119

>  <m_score__min__rmsd>  (27) 
5.407839052686119

>  <meeko>  (27) 
{"free_energy": -6.4, "intermolecular_energy": -8.79, "internal_energy": -3.01, "cluster_size": 9, "cluster_id": 11, "rank_in_cluster": 2}

>  <energy>  (27) 
-7.03

>  <cluster_rmsd>  (27) 
1.12

>  <cluster>  (27) 
5

$$$$

     RDKit          3D

 57 59  0  0  0  0  0  0  0  0999 V2000
  136.2000   72.7790  222.9020 C   0  0  0  0  0  0  0  0  0  0  0  0
  136.7960   71.4190  222.9560 C   0  0  0  0  0  0  0  0  0  0  0  0
  138.1250   71.2820  222.3090 C   0  0  0  0  0  0  0  0  0  0  0  0
  138.1670   70.9290  221.1000 O   0  0  0  0  0  0  0  0  0  0  0  0
  139.3200   71.5490  223.0620 N   0  0  0  0  0  0  0  0  0  0  0  0
  139.5870   70.7370  224.2040 C   0  0  0  0  0  0  0  0  0  0  0  0
  140.3130   71.3420  225.2200 C   0  0  0  0  0  0  0  0  0  0  0  0
  140.6500   70.6860  226.3890 C   0  0  0  0  0  0  0  0  0  0  0  0
  140.2250   69.3790  226.5060 C   0  0  0  0  0  0  0  0  0  0  0  0
  139.4910   68.7440  225.4990 C   0  0  0  0  0  0  0  0  0  0  0  0
  139.1630   69.4330  224.3240 C   0  0  0  0  0  0  0  0  0  0  0  0
  140.2150   72.6540  222.6780 C   0  0  0  0  0  0  0  0  0  0  0  0
  141.4270   72.2290  221.9700 C   0  0  0  0  0  0  0  0  0  0  0  0
  141.6490   72.6970  220.5800 C   0  0  0  0  0  0  0  0  0  0  0  0
  141.0910   74.0630  220.3870 N   0  0  0  0  0  0  0  0  0  0  0  0
  141.9990   75.0330  220.0160 C   0  0  0  0  0  0  0  0  0  0  0  0
  143.2300   74.5760  219.9250 O   0  0  0  0  0  0  0  0  0  0  0  0
  141.8970   76.4530  219.7050 C   0  0  2  0  0  0  0  0  0  0  0  0
  143.1370   77.1360  219.7630 N   0  0  0  0  0  0  0  0  0  0  0  0
  140.7890   77.0610  220.5460 C   0  0  0  0  0  0  0  0  0  0  0  0
  141.2110   78.0100  221.5680 C   0  0  0  0  0  0  0  0  0  0  0  0
  141.3330   77.7150  222.9200 C   0  0  0  0  0  0  0  0  0  0  0  0
  141.8030   78.6420  223.8430 C   0  0  0  0  0  0  0  0  0  0  0  0
  142.1780   79.9150  223.4720 C   0  0  0  0  0  0  0  0  0  0  0  0
  142.0590   80.2210  222.1270 C   0  0  0  0  0  0  0  0  0  0  0  0
  141.5870   79.2920  221.2000 C   0  0  0  0  0  0  0  0  0  0  0  0
  141.4020   79.9490  219.4070 Br  0  0  0  0  0  0  0  0  0  0  0  0
  139.6810   74.1340  220.6540 C   0  0  0  0  0  0  0  0  0  0  0  0
  139.4710   73.7820  222.0850 C   0  0  0  0  0  0  0  0  0  0  0  0
  136.0378   73.1491  223.9251 H   0  0  0  0  0  0  0  0  0  0  0  0
  136.8831   73.4579  222.3705 H   0  0  0  0  0  0  0  0  0  0  0  0
  135.2379   72.7368  222.3705 H   0  0  0  0  0  0  0  0  0  0  0  0
  136.9024   71.1365  224.0138 H   0  0  0  0  0  0  0  0  0  0  0  0
  136.1144   70.7659  222.3914 H   0  0  0  0  0  0  0  0  0  0  0  0
  140.6334   72.3862  225.0898 H   0  0  0  0  0  0  0  0  0  0  0  0
  141.2269   71.1804  227.1844 H   0  0  0  0  0  0  0  0  0  0  0  0
  140.4711   68.8185  227.4200 H   0  0  0  0  0  0  0  0  0  0  0  0
  139.1701   67.7000  225.6299 H   0  0  0  0  0  0  0  0  0  0  0  0
  138.5854   68.9477  223.5235 H   0  0  0  0  0  0  0  0  0  0  0  0
  140.6396   73.0640  223.6062 H   0  0  0  0  0  0  0  0  0  0  0  0
  142.2855   72.5713  222.5664 H   0  0  0  0  0  0  0  0  0  0  0  0
  141.3038   71.1409  221.8656 H   0  0  0  0  0  0  0  0  0  0  0  0
  142.7294   72.7163  220.3742 H   0  0  0  0  0  0  0  0  0  0  0  0
  141.1402   72.0075  219.8903 H   0  0  0  0  0  0  0  0  0  0  0  0
  141.6156   76.5731  218.6484 H   0  0  0  0  0  0  0  0  0  0  0  0
  143.1130   78.1540  219.7340 H   0  0  0  0  0  0  0  0  0  0  0  0
  143.8860   76.6570  220.2530 H   0  0  0  0  0  0  0  0  0  0  0  0
  140.0985   77.5825  219.8669 H   0  0  0  0  0  0  0  0  0  0  0  0
  140.3348   76.2204  221.0910 H   0  0  0  0  0  0  0  0  0  0  0  0
  141.0477   76.7128  223.2724 H   0  0  0  0  0  0  0  0  0  0  0  0
  141.8778   78.3507  224.9011 H   0  0  0  0  0  0  0  0  0  0  0  0
  142.5510   80.6470  224.2034 H   0  0  0  0  0  0  0  0  0  0  0  0
  142.3447   81.2249  221.7798 H   0  0  0  0  0  0  0  0  0  0  0  0
  139.3145   75.1531  220.4616 H   0  0  0  0  0  0  0  0  0  0  0  0
  139.1309   73.4391  220.0025 H   0  0  0  0  0  0  0  0  0  0  0  0
  139.7246   74.6759  222.6738 H   0  0  0  0  0  0  0  0  0  0  0  0
  138.4252   73.4421  222.1140 H   0  0  0  0  0  0  0  0  0  0  0  0
  1  2  1  0
  2  3  1  0
  3  4  2  0
  3  5  1  0
  5  6  1  0
  6  7  2  0
  7  8  1  0
  8  9  2  0
  9 10  1  0
 10 11  2  0
  5 12  1  0
 12 13  1  0
 13 14  1  0
 14 15  1  0
 15 16  1  0
 16 17  2  0
 16 18  1  0
 18 19  1  0
 18 20  1  0
 20 21  1  0
 21 22  2  0
 22 23  1  0
 23 24  2  0
 24 25  1  0
 25 26  2  0
 26 27  1  0
 15 28  1  0
 28 29  1  0
 11  6  1  0
 29 12  1  0
 26 21  1  0
  1 30  1  0
  1 31  1  0
  1 32  1  0
  2 33  1  0
  2 34  1  0
  7 35  1  0
  8 36  1  0
  9 37  1  0
 10 38  1  0
 11 39  1  0
 12 40  1  0
 13 41  1  0
 13 42  1  0
 14 43  1  0
 14 44  1  0
 18 45  1  6
 19 46  1  0
 19 47  1  0
 20 48  1  0
 20 49  1  0
 22 50  1  0
 23 51  1  0
 24 52  1  0
 25 53  1  0
 28 54  1  0
 28 55  1  0
 29 56  1  0
 29 57  1  0
M  END
>  <smiles>  (28) 
CCC(=O)N(c1ccccc1)C1CCN(C(=O)[C@H](N)Cc2ccccc2Br)CC1

>  <score_type>  (28) 
oracle

>  <origin>  (28) 
autodockgpu

>  <m_score__min__energy>  (28) 
-8.3100000000000005

>  <m_primary>  (28) 
energy

>  <rmsd>  (28) 
6.206115042688932

>  <m_score__min__rmsd>  (28) 
6.206115042688932

>  <meeko>  (28) 
{"free_energy": -6.82, "intermolecular_energy": -9.21, "internal_energy": -2.42, "cluster_size": 4, "cluster_id": 7, "rank_in_cluster": 2}

>  <energy>  (28) 
-7.18

>  <cluster_rmsd>  (28) 
0.0

>  <cluster>  (28) 
6

$$$$

     RDKit          3D

 57 59  0  0  0  0  0  0  0  0999 V2000
  138.8290   66.8050  222.7370 C   0  0  0  0  0  0  0  0  0  0  0  0
  138.7220   68.2870  222.6720 C   0  0  0  0  0  0  0  0  0  0  0  0
  138.2500   68.9450  223.9170 C   0  0  0  0  0  0  0  0  0  0  0  0
  137.0690   68.7240  224.2980 O   0  0  0  0  0  0  0  0  0  0  0  0
  139.1340   69.8080  224.6510 N   0  0  0  0  0  0  0  0  0  0  0  0
  139.7660   69.2810  225.8180 C   0  0  0  0  0  0  0  0  0  0  0  0
  140.0530   70.2010  226.8170 C   0  0  0  0  0  0  0  0  0  0  0  0
  140.6630   69.8450  228.0050 C   0  0  0  0  0  0  0  0  0  0  0  0
  140.9800   68.5110  228.1590 C   0  0  0  0  0  0  0  0  0  0  0  0
  140.7020   67.5630  227.1700 C   0  0  0  0  0  0  0  0  0  0  0  0
  140.0830   67.9510  225.9750 C   0  0  0  0  0  0  0  0  0  0  0  0
  139.3440   71.2010  224.2250 C   0  0  0  0  0  0  0  0  0  0  0  0
  140.7070   71.4920  223.7690 C   0  0  0  0  0  0  0  0  0  0  0  0
  140.9190   71.9260  222.3660 C   0  0  0  0  0  0  0  0  0  0  0  0
  139.7630   72.7310  221.8840 N   0  0  0  0  0  0  0  0  0  0  0  0
  140.0550   74.0220  221.4930 C   0  0  0  0  0  0  0  0  0  0  0  0
  141.3260   74.3300  221.6480 O   0  0  0  0  0  0  0  0  0  0  0  0
  139.2670   75.1200  220.9490 C   0  0  2  0  0  0  0  0  0  0  0  0
  139.9680   75.9030  219.9980 N   0  0  0  0  0  0  0  0  0  0  0  0
  138.6570   75.9020  222.0980 C   0  0  0  0  0  0  0  0  0  0  0  0
  139.4080   77.0670  222.5490 C   0  0  0  0  0  0  0  0  0  0  0  0
  140.7870   77.1010  222.7190 C   0  0  0  0  0  0  0  0  0  0  0  0
  141.4600   78.2600  223.0900 C   0  0  0  0  0  0  0  0  0  0  0  0
  140.7990   79.4480  223.3130 C   0  0  0  0  0  0  0  0  0  0  0  0
  139.4250   79.4240  223.1490 C   0  0  0  0  0  0  0  0  0  0  0  0
  138.7480   78.2620  222.7770 C   0  0  0  0  0  0  0  0  0  0  0  0
  136.8370   78.4190  222.7050 Br  0  0  0  0  0  0  0  0  0  0  0  0
  138.5200   72.0140  221.9380 C   0  0  0  0  0  0  0  0  0  0  0  0
  138.2480   71.6830  223.3630 C   0  0  0  0  0  0  0  0  0  0  0  0
  138.8521   66.4848  223.7891 H   0  0  0  0  0  0  0  0  0  0  0  0
  137.9612   66.3524  222.2350 H   0  0  0  0  0  0  0  0  0  0  0  0
  139.7528   66.4817  222.2350 H   0  0  0  0  0  0  0  0  0  0  0  0
  139.7172   68.6892  222.4314 H   0  0  0  0  0  0  0  0  0  0  0  0
  137.9620   68.5036  221.9068 H   0  0  0  0  0  0  0  0  0  0  0  0
  139.7842   71.2555  226.6567 H   0  0  0  0  0  0  0  0  0  0  0  0
  140.8842   70.5864  228.7869 H   0  0  0  0  0  0  0  0  0  0  0  0
  141.4668   68.1831  229.0893 H   0  0  0  0  0  0  0  0  0  0  0  0
  140.9704   66.5084  227.3309 H   0  0  0  0  0  0  0  0  0  0  0  0
  139.8576   67.2166  225.1877 H   0  0  0  0  0  0  0  0  0  0  0  0
  139.2787   71.8280  225.1265 H   0  0  0  0  0  0  0  0  0  0  0  0
  141.0999   72.2900  224.4161 H   0  0  0  0  0  0  0  0  0  0  0  0
  141.2169   70.5189  223.8240 H   0  0  0  0  0  0  0  0  0  0  0  0
  141.8323   72.5366  222.3110 H   0  0  0  0  0  0  0  0  0  0  0  0
  141.0180   71.0335  221.7307 H   0  0  0  0  0  0  0  0  0  0  0  0
  138.4405   74.7104  220.3497 H   0  0  0  0  0  0  0  0  0  0  0  0
  139.5440   76.7820  219.7100 H   0  0  0  0  0  0  0  0  0  0  0  0
  140.9780   75.7990  219.9930 H   0  0  0  0  0  0  0  0  0  0  0  0
  137.6617   76.2459  221.7799 H   0  0  0  0  0  0  0  0  0  0  0  0
  138.6427   75.2098  222.9528 H   0  0  0  0  0  0  0  0  0  0  0  0
  141.3656   76.1800  222.5545 H   0  0  0  0  0  0  0  0  0  0  0  0
  142.5531   78.2272  223.2090 H   0  0  0  0  0  0  0  0  0  0  0  0
  141.3333   80.3641  223.6050 H   0  0  0  0  0  0  0  0  0  0  0  0
  138.8505   80.3469  223.3166 H   0  0  0  0  0  0  0  0  0  0  0  0
  137.7090   72.6402  221.5378 H   0  0  0  0  0  0  0  0  0  0  0  0
  138.5791   71.0962  221.3346 H   0  0  0  0  0  0  0  0  0  0  0  0
  137.8514   72.5955  223.8321 H   0  0  0  0  0  0  0  0  0  0  0  0
  137.5730   70.8168  223.2997 H   0  0  0  0  0  0  0  0  0  0  0  0
  1  2  1  0
  2  3  1  0
  3  4  2  0
  3  5  1  0
  5  6  1  0
  6  7  2  0
  7  8  1  0
  8  9  2  0
  9 10  1  0
 10 11  2  0
  5 12  1  0
 12 13  1  0
 13 14  1  0
 14 15  1  0
 15 16  1  0
 16 17  2  0
 16 18  1  0
 18 19  1  0
 18 20  1  0
 20 21  1  0
 21 22  2  0
 22 23  1  0
 23 24  2  0
 24 25  1  0
 25 26  2  0
 26 27  1  0
 15 28  1  0
 28 29  1  0
 11  6  1  0
 29 12  1  0
 26 21  1  0
  1 30  1  0
  1 31  1  0
  1 32  1  0
  2 33  1  0
  2 34  1  0
  7 35  1  0
  8 36  1  0
  9 37  1  0
 10 38  1  0
 11 39  1  0
 12 40  1  0
 13 41  1  0
 13 42  1  0
 14 43  1  0
 14 44  1  0
 18 45  1  6
 19 46  1  0
 19 47  1  0
 20 48  1  0
 20 49  1  0
 22 50  1  0
 23 51  1  0
 24 52  1  0
 25 53  1  0
 28 54  1  0
 28 55  1  0
 29 56  1  0
 29 57  1  0
M  END
>  <smiles>  (29) 
CCC(=O)N(c1ccccc1)C1CCN(C(=O)[C@H](N)Cc2ccccc2Br)CC1

>  <score_type>  (29) 
oracle

>  <origin>  (29) 
autodockgpu

>  <m_score__min__energy>  (29) 
-8.3100000000000005

>  <m_primary>  (29) 
energy

>  <rmsd>  (29) 
7.291488789115517

>  <m_score__min__rmsd>  (29) 
7.291488789115517

>  <meeko>  (29) 
{"free_energy": -6.89, "intermolecular_energy": -9.28, "internal_energy": -2.36, "cluster_size": 2, "cluster_id": 6, "rank_in_cluster": 2}

>  <energy>  (29) 
-6.89

>  <cluster_rmsd>  (29) 
0.38

>  <cluster>  (29) 
6

$$$$

     RDKit          3D

 57 59  0  0  0  0  0  0  0  0999 V2000
  143.5780   71.5160  216.5060 C   0  0  0  0  0  0  0  0  0  0  0  0
  144.9650   71.2460  216.9650 C   0  0  0  0  0  0  0  0  0  0  0  0
  145.1560   71.2340  218.4380 C   0  0  0  0  0  0  0  0  0  0  0  0
  145.9760   72.0480  218.9400 O   0  0  0  0  0  0  0  0  0  0  0  0
  144.4150   70.3080  219.2490 N   0  0  0  0  0  0  0  0  0  0  0  0
  144.6810   68.9150  219.0880 C   0  0  0  0  0  0  0  0  0  0  0  0
  145.9730   68.5070  219.3890 C   0  0  0  0  0  0  0  0  0  0  0  0
  146.3840   67.1920  219.2820 C   0  0  0  0  0  0  0  0  0  0  0  0
  145.4380   66.2840  218.8560 C   0  0  0  0  0  0  0  0  0  0  0  0
  144.1290   66.6660  218.5460 C   0  0  0  0  0  0  0  0  0  0  0  0
  143.7390   68.0060  218.6630 C   0  0  0  0  0  0  0  0  0  0  0  0
  143.3870   70.7900  220.1880 C   0  0  0  0  0  0  0  0  0  0  0  0
  143.5390   72.1960  220.5750 C   0  0  0  0  0  0  0  0  0  0  0  0
  142.4620   73.1570  220.2310 C   0  0  0  0  0  0  0  0  0  0  0  0
  141.1310   72.4930  220.2700 N   0  0  0  0  0  0  0  0  0  0  0  0
  140.2260   73.0190  221.1700 C   0  0  0  0  0  0  0  0  0  0  0  0
  140.7210   74.0180  221.8710 O   0  0  0  0  0  0  0  0  0  0  0  0
  138.8450   72.7120  221.5160 C   0  0  2  0  0  0  0  0  0  0  0  0
  138.2370   73.6910  222.3410 N   0  0  0  0  0  0  0  0  0  0  0  0
  138.7760   71.2930  222.0500 C   0  0  0  0  0  0  0  0  0  0  0  0
  139.3590   71.0770  223.3680 C   0  0  0  0  0  0  0  0  0  0  0  0
  140.5460   71.6460  223.8120 C   0  0  0  0  0  0  0  0  0  0  0  0
  141.0230   71.4570  225.1040 C   0  0  0  0  0  0  0  0  0  0  0  0
  140.3440   70.6920  226.0270 C   0  0  0  0  0  0  0  0  0  0  0  0
  139.1600   70.1180  225.5960 C   0  0  0  0  0  0  0  0  0  0  0  0
  138.6820   70.3060  224.2990 C   0  0  0  0  0  0  0  0  0  0  0  0
  137.0780   69.3430  223.8730 Br  0  0  0  0  0  0  0  0  0  0  0  0
  141.0320   71.3820  219.3650 C   0  0  0  0  0  0  0  0  0  0  0  0
  142.0330   70.3640  219.7850 C   0  0  0  0  0  0  0  0  0  0  0  0
  142.9212   71.6439  217.3791 H   0  0  0  0  0  0  0  0  0  0  0  0
  143.5646   72.4336  215.8995 H   0  0  0  0  0  0  0  0  0  0  0  0
  143.2213   70.6704  215.8995 H   0  0  0  0  0  0  0  0  0  0  0  0
  145.2663   70.2624  216.5754 H   0  0  0  0  0  0  0  0  0  0  0  0
  145.5777   72.0773  216.5860 H   0  0  0  0  0  0  0  0  0  0  0  0
  146.6993   69.2610  219.7265 H   0  0  0  0  0  0  0  0  0  0  0  0
  147.4124   66.8856  219.5241 H   0  0  0  0  0  0  0  0  0  0  0  0
  145.7218   65.2259  218.7569 H   0  0  0  0  0  0  0  0  0  0  0  0
  143.4031   65.9113  218.2091 H   0  0  0  0  0  0  0  0  0  0  0  0
  142.7130   68.3218  218.4230 H   0  0  0  0  0  0  0  0  0  0  0  0
  143.5595   70.2807  221.1476 H   0  0  0  0  0  0  0  0  0  0  0  0
  143.6541   72.2187  221.6687 H   0  0  0  0  0  0  0  0  0  0  0  0
  144.3996   72.5411  219.9831 H   0  0  0  0  0  0  0  0  0  0  0  0
  142.4732   73.9857  220.9543 H   0  0  0  0  0  0  0  0  0  0  0  0
  142.6382   73.5355  219.2133 H   0  0  0  0  0  0  0  0  0  0  0  0
  138.2267   72.7556  220.6073 H   0  0  0  0  0  0  0  0  0  0  0  0
  137.4240   73.4080  222.8850 H   0  0  0  0  0  0  0  0  0  0  0  0
  138.8480   74.4270  222.6830 H   0  0  0  0  0  0  0  0  0  0  0  0
  137.7160   71.0032  222.0994 H   0  0  0  0  0  0  0  0  0  0  0  0
  139.3770   70.6860  221.3570 H   0  0  0  0  0  0  0  0  0  0  0  0
  141.1290   72.2680  223.1168 H   0  0  0  0  0  0  0  0  0  0  0  0
  141.9705   71.9322  225.3981 H   0  0  0  0  0  0  0  0  0  0  0  0
  140.7216   70.5454  227.0497 H   0  0  0  0  0  0  0  0  0  0  0  0
  138.5807   69.4970  226.2951 H   0  0  0  0  0  0  0  0  0  0  0  0
  140.0203   70.9525  219.4087 H   0  0  0  0  0  0  0  0  0  0  0  0
  141.2253   71.7085  218.3325 H   0  0  0  0  0  0  0  0  0  0  0  0
  141.6002   69.8261  220.6413 H   0  0  0  0  0  0  0  0  0  0  0  0
  142.2103   69.7862  218.8659 H   0  0  0  0  0  0  0  0  0  0  0  0
  1  2  1  0
  2  3  1  0
  3  4  2  0
  3  5  1  0
  5  6  1  0
  6  7  2  0
  7  8  1  0
  8  9  2  0
  9 10  1  0
 10 11  2  0
  5 12  1  0
 12 13  1  0
 13 14  1  0
 14 15  1  0
 15 16  1  0
 16 17  2  0
 16 18  1  0
 18 19  1  0
 18 20  1  0
 20 21  1  0
 21 22  2  0
 22 23  1  0
 23 24  2  0
 24 25  1  0
 25 26  2  0
 26 27  1  0
 15 28  1  0
 28 29  1  0
 11  6  1  0
 29 12  1  0
 26 21  1  0
  1 30  1  0
  1 31  1  0
  1 32  1  0
  2 33  1  0
  2 34  1  0
  7 35  1  0
  8 36  1  0
  9 37  1  0
 10 38  1  0
 11 39  1  0
 12 40  1  0
 13 41  1  0
 13 42  1  0
 14 43  1  0
 14 44  1  0
 18 45  1  6
 19 46  1  0
 19 47  1  0
 20 48  1  0
 20 49  1  0
 22 50  1  0
 23 51  1  0
 24 52  1  0
 25 53  1  0
 28 54  1  0
 28 55  1  0
 29 56  1  0
 29 57  1  0
M  END
>  <smiles>  (30) 
CCC(=O)N(c1ccccc1)C1CCN(C(=O)[C@H](N)Cc2ccccc2Br)CC1

>  <score_type>  (30) 
oracle

>  <origin>  (30) 
autodockgpu

>  <m_score__min__energy>  (30) 
-8.3100000000000005

>  <m_primary>  (30) 
energy

>  <rmsd>  (30) 
8.051323070464205

>  <m_score__min__rmsd>  (30) 
8.051323070464205

>  <meeko>  (30) 
{"free_energy": -6.86, "intermolecular_energy": -9.25, "internal_energy": -2.61, "cluster_size": 7, "cluster_id": 2, "rank_in_cluster": 5}

>  <energy>  (30) 
-6.93

>  <cluster_rmsd>  (30) 
0.0

>  <cluster>  (30) 
7

$$$$

     RDKit          3D

 57 59  0  0  0  0  0  0  0  0999 V2000
  139.8430   68.2870  220.8310 C   0  0  0  0  0  0  0  0  0  0  0  0
  139.7040   69.7090  220.4230 C   0  0  0  0  0  0  0  0  0  0  0  0
  139.0080   70.5850  221.4000 C   0  0  0  0  0  0  0  0  0  0  0  0
  137.7980   70.8690  221.1900 O   0  0  0  0  0  0  0  0  0  0  0  0
  139.7160   71.0860  222.5460 N   0  0  0  0  0  0  0  0  0  0  0  0
  139.6380   70.3380  223.7590 C   0  0  0  0  0  0  0  0  0  0  0  0
  140.4240   70.8000  224.8060 C   0  0  0  0  0  0  0  0  0  0  0  0
  140.4560   70.1840  226.0420 C   0  0  0  0  0  0  0  0  0  0  0  0
  139.6590   69.0680  226.1960 C   0  0  0  0  0  0  0  0  0  0  0  0
  138.8580   68.5800  225.1590 C   0  0  0  0  0  0  0  0  0  0  0  0
  138.8440   69.2250  223.9150 C   0  0  0  0  0  0  0  0  0  0  0  0
  140.4640   72.3520  222.4700 C   0  0  0  0  0  0  0  0  0  0  0  0
  141.6140   72.3170  221.5600 C   0  0  0  0  0  0  0  0  0  0  0  0
  141.6290   73.2230  220.3850 C   0  0  0  0  0  0  0  0  0  0  0  0
  140.9410   74.5050  220.6990 N   0  0  0  0  0  0  0  0  0  0  0  0
  141.7150   75.6420  220.5890 C   0  0  0  0  0  0  0  0  0  0  0  0
  142.9600   75.3840  220.2480 O   0  0  0  0  0  0  0  0  0  0  0  0
  141.4590   77.0650  220.7690 C   0  0  2  0  0  0  0  0  0  0  0  0
  142.5170   77.8920  220.3150 N   0  0  0  0  0  0  0  0  0  0  0  0
  141.0260   77.3080  222.2030 C   0  0  0  0  0  0  0  0  0  0  0  0
  141.3280   78.6260  222.7470 C   0  0  0  0  0  0  0  0  0  0  0  0
  142.6050   79.0850  223.0440 C   0  0  0  0  0  0  0  0  0  0  0  0
  142.8420   80.3760  223.5010 C   0  0  0  0  0  0  0  0  0  0  0  0
  141.8210   81.2820  223.6880 C   0  0  0  0  0  0  0  0  0  0  0  0
  140.5440   80.8350  223.3970 C   0  0  0  0  0  0  0  0  0  0  0  0
  140.3050   79.5390  222.9390 C   0  0  0  0  0  0  0  0  0  0  0  0
  138.4560   79.0880  222.6930 Br  0  0  0  0  0  0  0  0  0  0  0  0
  139.5720   74.3230  221.0950 C   0  0  0  0  0  0  0  0  0  0  0  0
  139.5640   73.5140  222.3440 C   0  0  0  0  0  0  0  0  0  0  0  0
  139.8496   68.2195  221.9289 H   0  0  0  0  0  0  0  0  0  0  0  0
  138.9973   67.7070  220.4331 H   0  0  0  0  0  0  0  0  0  0  0  0
  140.7850   67.8818  220.4331 H   0  0  0  0  0  0  0  0  0  0  0  0
  140.7129   70.1160  220.2603 H   0  0  0  0  0  0  0  0  0  0  0  0
  139.0786   69.7059  219.5181 H   0  0  0  0  0  0  0  0  0  0  0  0
  141.0464   71.6926  224.6448 H   0  0  0  0  0  0  0  0  0  0  0  0
  141.0844   70.5635  226.8612 H   0  0  0  0  0  0  0  0  0  0  0  0
  139.6537   68.5463  227.1644 H   0  0  0  0  0  0  0  0  0  0  0  0
  138.2367   67.6867  225.3202 H   0  0  0  0  0  0  0  0  0  0  0  0
  138.2185   68.8536  223.0899 H   0  0  0  0  0  0  0  0  0  0  0  0
  140.9602   72.4945  223.4413 H   0  0  0  0  0  0  0  0  0  0  0  0
  142.5064   72.5511  222.1590 H   0  0  0  0  0  0  0  0  0  0  0  0
  141.5696   71.3111  221.1171 H   0  0  0  0  0  0  0  0  0  0  0  0
  142.6717   73.4324  220.1040 H   0  0  0  0  0  0  0  0  0  0  0  0
  141.1004   72.7327  219.5542 H   0  0  0  0  0  0  0  0  0  0  0  0
  140.6283   77.3691  220.1152 H   0  0  0  0  0  0  0  0  0  0  0  0
  142.5870   78.8250  220.7150 H   0  0  0  0  0  0  0  0  0  0  0  0
  143.3510   77.4110  219.9930 H   0  0  0  0  0  0  0  0  0  0  0  0
  139.9367   77.1641  222.2546 H   0  0  0  0  0  0  0  0  0  0  0  0
  141.6033   76.5965  222.8117 H   0  0  0  0  0  0  0  0  0  0  0  0
  143.4582   78.4031  222.9130 H   0  0  0  0  0  0  0  0  0  0  0  0
  143.8752   80.6835  223.7199 H   0  0  0  0  0  0  0  0  0  0  0  0
  142.0103   82.3038  224.0486 H   0  0  0  0  0  0  0  0  0  0  0  0
  139.6940   81.5204  223.5305 H   0  0  0  0  0  0  0  0  0  0  0  0
  139.1025   75.3006  221.2792 H   0  0  0  0  0  0  0  0  0  0  0  0
  139.0072   73.8113  220.3019 H   0  0  0  0  0  0  0  0  0  0  0  0
  139.8105   74.1988  223.1688 H   0  0  0  0  0  0  0  0  0  0  0  0
  138.5612   73.0619  222.3489 H   0  0  0  0  0  0  0  0  0  0  0  0
  1  2  1  0
  2  3  1  0
  3  4  2  0
  3  5  1  0
  5  6  1  0
  6  7  2  0
  7  8  1  0
  8  9  2  0
  9 10  1  0
 10 11  2  0
  5 12  1  0
 12 13  1  0
 13 14  1  0
 14 15  1  0
 15 16  1  0
 16 17  2  0
 16 18  1  0
 18 19  1  0
 18 20  1  0
 20 21  1  0
 21 22  2  0
 22 23  1  0
 23 24  2  0
 24 25  1  0
 25 26  2  0
 26 27  1  0
 15 28  1  0
 28 29  1  0
 11  6  1  0
 29 12  1  0
 26 21  1  0
  1 30  1  0
  1 31  1  0
  1 32  1  0
  2 33  1  0
  2 34  1  0
  7 35  1  0
  8 36  1  0
  9 37  1  0
 10 38  1  0
 11 39  1  0
 12 40  1  0
 13 41  1  0
 13 42  1  0
 14 43  1  0
 14 44  1  0
 18 45  1  6
 19 46  1  0
 19 47  1  0
 20 48  1  0
 20 49  1  0
 22 50  1  0
 23 51  1  0
 24 52  1  0
 25 53  1  0
 28 54  1  0
 28 55  1  0
 29 56  1  0
 29 57  1  0
M  END
>  <smiles>  (31) 
CCC(=O)N(c1ccccc1)C1CCN(C(=O)[C@H](N)Cc2ccccc2Br)CC1

>  <score_type>  (31) 
oracle

>  <origin>  (31) 
autodockgpu

>  <m_score__min__energy>  (31) 
-8.3100000000000005

>  <m_primary>  (31) 
energy

>  <rmsd>  (31) 
6.529916066903442

>  <m_score__min__rmsd>  (31) 
6.529916066903442

>  <meeko>  (31) 
{"free_energy": -6.93, "intermolecular_energy": -9.31, "internal_energy": -2.36, "cluster_size": 4, "cluster_id": 7, "rank_in_cluster": 1}

>  <energy>  (31) 
-6.82

>  <cluster_rmsd>  (31) 
1.43

>  <cluster>  (31) 
7

$$$$

     RDKit          3D

 57 59  0  0  0  0  0  0  0  0999 V2000
  146.4170   73.3160  222.0850 C   0  0  0  0  0  0  0  0  0  0  0  0
  146.2920   74.0290  220.7870 C   0  0  0  0  0  0  0  0  0  0  0  0
  145.4120   73.3750  219.7850 C   0  0  0  0  0  0  0  0  0  0  0  0
  145.9510   72.7480  218.8340 O   0  0  0  0  0  0  0  0  0  0  0  0
  143.9830   73.4710  219.9160 N   0  0  0  0  0  0  0  0  0  0  0  0
  143.2000   72.3400  219.5360 C   0  0  0  0  0  0  0  0  0  0  0  0
  142.4790   72.4720  218.3570 C   0  0  0  0  0  0  0  0  0  0  0  0
  141.6750   71.4650  217.8580 C   0  0  0  0  0  0  0  0  0  0  0  0
  141.6180   70.3000  218.5950 C   0  0  0  0  0  0  0  0  0  0  0  0
  142.3330   70.1390  219.7860 C   0  0  0  0  0  0  0  0  0  0  0  0
  143.1410   71.1760  220.2690 C   0  0  0  0  0  0  0  0  0  0  0  0
  143.3570   74.7150  220.3940 C   0  0  0  0  0  0  0  0  0  0  0  0
  143.5370   75.8610  219.4970 C   0  0  0  0  0  0  0  0  0  0  0  0
  142.3400   76.4940  218.8910 C   0  0  0  0  0  0  0  0  0  0  0  0
  141.1780   76.4250  219.8190 N   0  0  0  0  0  0  0  0  0  0  0  0
  140.6470   77.6390  220.2040 C   0  0  0  0  0  0  0  0  0  0  0  0
  141.2930   78.6660  219.6950 O   0  0  0  0  0  0  0  0  0  0  0  0
  139.5290   78.0340  221.0510 C   0  0  2  0  0  0  0  0  0  0  0  0
  138.9200   79.2500  220.6540 N   0  0  0  0  0  0  0  0  0  0  0  0
  139.9710   77.9820  222.5020 C   0  0  0  0  0  0  0  0  0  0  0  0
  140.8910   79.0290  222.9280 C   0  0  0  0  0  0  0  0  0  0  0  0
  142.2720   78.9760  222.7810 C   0  0  0  0  0  0  0  0  0  0  0  0
  143.0980   80.0320  223.1470 C   0  0  0  0  0  0  0  0  0  0  0  0
  142.5960   81.2000  223.6780 C   0  0  0  0  0  0  0  0  0  0  0  0
  141.2220   81.2640  223.8300 C   0  0  0  0  0  0  0  0  0  0  0  0
  140.3920   80.2040  223.4650 C   0  0  0  0  0  0  0  0  0  0  0  0
  138.5300   80.4540  223.8520 Br  0  0  0  0  0  0  0  0  0  0  0  0
  140.8280   75.0790  220.1770 C   0  0  0  0  0  0  0  0  0  0  0  0
  141.9880   74.4830  220.8950 C   0  0  0  0  0  0  0  0  0  0  0  0
  146.2914   74.0323  222.9104 H   0  0  0  0  0  0  0  0  0  0  0  0
  145.6414   72.5389  222.1527 H   0  0  0  0  0  0  0  0  0  0  0  0
  147.4107   72.8491  222.1527 H   0  0  0  0  0  0  0  0  0  0  0  0
  145.8901   75.0330  220.9882 H   0  0  0  0  0  0  0  0  0  0  0  0
  147.3000   74.0375  220.3467 H   0  0  0  0  0  0  0  0  0  0  0  0
  142.5506   73.4163  217.7974 H   0  0  0  0  0  0  0  0  0  0  0  0
  141.1099   71.5859  216.9220 H   0  0  0  0  0  0  0  0  0  0  0  0
  140.9904   69.4717  218.2344 H   0  0  0  0  0  0  0  0  0  0  0  0
  142.2605   69.1946  220.3454 H   0  0  0  0  0  0  0  0  0  0  0  0
  143.7101   71.0641  221.2037 H   0  0  0  0  0  0  0  0  0  0  0  0
  143.9204   75.0424  221.2802 H   0  0  0  0  0  0  0  0  0  0  0  0
  144.0586   76.6410  220.0710 H   0  0  0  0  0  0  0  0  0  0  0  0
  144.0777   75.4404  218.6363 H   0  0  0  0  0  0  0  0  0  0  0  0
  142.5627   77.5483  218.6698 H   0  0  0  0  0  0  0  0  0  0  0  0
  142.0856   75.9541  217.9670 H   0  0  0  0  0  0  0  0  0  0  0  0
  138.7083   77.3120  220.9275 H   0  0  0  0  0  0  0  0  0  0  0  0
  139.4290   79.8370  219.9950 H   0  0  0  0  0  0  0  0  0  0  0  0
  137.9050   79.2660  220.6720 H   0  0  0  0  0  0  0  0  0  0  0  0
  139.0707   78.0490  223.1305 H   0  0  0  0  0  0  0  0  0  0  0  0
  140.5259   77.0383  222.6091 H   0  0  0  0  0  0  0  0  0  0  0  0
  142.7269   78.0670  222.3605 H   0  0  0  0  0  0  0  0  0  0  0  0
  144.1847   79.9324  223.0087 H   0  0  0  0  0  0  0  0  0  0  0  0
  143.2512   82.0356  223.9653 H   0  0  0  0  0  0  0  0  0  0  0  0
  140.7721   82.1756  224.2501 H   0  0  0  0  0  0  0  0  0  0  0  0
  139.9445   75.0837  220.8323 H   0  0  0  0  0  0  0  0  0  0  0  0
  140.5896   74.4918  219.2779 H   0  0  0  0  0  0  0  0  0  0  0  0
  141.9564   74.8665  221.9255 H   0  0  0  0  0  0  0  0  0  0  0  0
  141.8453   73.4010  220.7576 H   0  0  0  0  0  0  0  0  0  0  0  0
  1  2  1  0
  2  3  1  0
  3  4  2  0
  3  5  1  0
  5  6  1  0
  6  7  2  0
  7  8  1  0
  8  9  2  0
  9 10  1  0
 10 11  2  0
  5 12  1  0
 12 13  1  0
 13 14  1  0
 14 15  1  0
 15 16  1  0
 16 17  2  0
 16 18  1  0
 18 19  1  0
 18 20  1  0
 20 21  1  0
 21 22  2  0
 22 23  1  0
 23 24  2  0
 24 25  1  0
 25 26  2  0
 26 27  1  0
 15 28  1  0
 28 29  1  0
 11  6  1  0
 29 12  1  0
 26 21  1  0
  1 30  1  0
  1 31  1  0
  1 32  1  0
  2 33  1  0
  2 34  1  0
  7 35  1  0
  8 36  1  0
  9 37  1  0
 10 38  1  0
 11 39  1  0
 12 40  1  0
 13 41  1  0
 13 42  1  0
 14 43  1  0
 14 44  1  0
 18 45  1  1
 19 46  1  0
 19 47  1  0
 20 48  1  0
 20 49  1  0
 22 50  1  0
 23 51  1  0
 24 52  1  0
 25 53  1  0
 28 54  1  0
 28 55  1  0
 29 56  1  0
 29 57  1  0
M  END
>  <smiles>  (32) 
CCC(=O)N(c1ccccc1)C1CCN(C(=O)[C@H](N)Cc2ccccc2Br)CC1

>  <score_type>  (32) 
oracle

>  <origin>  (32) 
autodockgpu

>  <m_score__min__energy>  (32) 
-8.3100000000000005

>  <m_primary>  (32) 
energy

>  <rmsd>  (32) 
5.511121724363179

>  <m_score__min__rmsd>  (32) 
5.511121724363179

>  <meeko>  (32) 
{"free_energy": -6.53, "intermolecular_energy": -8.91, "internal_energy": -2.71, "cluster_size": 1, "cluster_id": 9, "rank_in_cluster": 1}

>  <energy>  (32) 
-6.76

>  <cluster_rmsd>  (32) 
1.41

>  <cluster>  (32) 
7

$$$$

     RDKit          3D

 57 59  0  0  0  0  0  0  0  0999 V2000
  146.4090   73.0190  221.9740 C   0  0  0  0  0  0  0  0  0  0  0  0
  146.3130   73.8920  220.7750 C   0  0  0  0  0  0  0  0  0  0  0  0
  145.4190   73.3970  219.6980 C   0  0  0  0  0  0  0  0  0  0  0  0
  145.8900   72.5870  218.8560 O   0  0  0  0  0  0  0  0  0  0  0  0
  144.0550   73.8460  219.6360 N   0  0  0  0  0  0  0  0  0  0  0  0
  143.6350   74.5510  218.4690 C   0  0  0  0  0  0  0  0  0  0  0  0
  143.6700   75.9360  218.5530 C   0  0  0  0  0  0  0  0  0  0  0  0
  143.2940   76.7560  217.5070 C   0  0  0  0  0  0  0  0  0  0  0  0
  142.8740   76.1290  216.3520 C   0  0  0  0  0  0  0  0  0  0  0  0
  142.8280   74.7360  216.2390 C   0  0  0  0  0  0  0  0  0  0  0  0
  143.2160   73.9280  217.3150 C   0  0  0  0  0  0  0  0  0  0  0  0
  143.1380   73.6130  220.7650 C   0  0  0  0  0  0  0  0  0  0  0  0
  141.9010   74.3970  220.7080 C   0  0  0  0  0  0  0  0  0  0  0  0
  140.6020   73.6860  220.6120 C   0  0  0  0  0  0  0  0  0  0  0  0
  140.6540   72.3930  221.3470 N   0  0  0  0  0  0  0  0  0  0  0  0
  139.7510   72.2570  222.3810 C   0  0  0  0  0  0  0  0  0  0  0  0
  139.0070   73.3280  222.5590 O   0  0  0  0  0  0  0  0  0  0  0  0
  139.4390   71.1890  223.3220 C   0  0  2  0  0  0  0  0  0  0  0  0
  138.3390   71.4800  224.1670 N   0  0  0  0  0  0  0  0  0  0  0  0
  140.7110   70.7840  224.0440 C   0  0  0  0  0  0  0  0  0  0  0  0
  140.6910   70.9110  225.4960 C   0  0  0  0  0  0  0  0  0  0  0  0
  141.1820   72.0020  226.2020 C   0  0  0  0  0  0  0  0  0  0  0  0
  141.0770   72.1000  227.5850 C   0  0  0  0  0  0  0  0  0  0  0  0
  140.4780   71.1170  228.3410 C   0  0  0  0  0  0  0  0  0  0  0  0
  139.9860   70.0240  227.6490 C   0  0  0  0  0  0  0  0  0  0  0  0
  140.0910   69.9250  226.2610 C   0  0  0  0  0  0  0  0  0  0  0  0
  139.4390   68.2850  225.5090 Br  0  0  0  0  0  0  0  0  0  0  0  0
  141.6740   71.5100  220.8550 C   0  0  0  0  0  0  0  0  0  0  0  0
  142.9890   72.1750  221.0630 C   0  0  0  0  0  0  0  0  0  0  0  0
  146.3412   73.6353  222.8826 H   0  0  0  0  0  0  0  0  0  0  0  0
  145.5856   72.2896  221.9634 H   0  0  0  0  0  0  0  0  0  0  0  0
  147.3712   72.4860  221.9634 H   0  0  0  0  0  0  0  0  0  0  0  0
  145.9414   74.8751  221.0997 H   0  0  0  0  0  0  0  0  0  0  0  0
  147.3231   73.9232  220.3406 H   0  0  0  0  0  0  0  0  0  0  0  0
  144.0110   76.3994  219.4905 H   0  0  0  0  0  0  0  0  0  0  0  0
  143.3277   77.8523  217.5905 H   0  0  0  0  0  0  0  0  0  0  0  0
  142.5658   76.7439  215.4936 H   0  0  0  0  0  0  0  0  0  0  0  0
  142.4858   74.2732  215.3016 H   0  0  0  0  0  0  0  0  0  0  0  0
  143.1869   72.8309  217.2405 H   0  0  0  0  0  0  0  0  0  0  0  0
  143.6175   74.0310  221.6624 H   0  0  0  0  0  0  0  0  0  0  0  0
  141.8659   75.0105  221.6204 H   0  0  0  0  0  0  0  0  0  0  0  0
  141.9761   74.9389  219.7537 H   0  0  0  0  0  0  0  0  0  0  0  0
  139.8123   74.3167  221.0463 H   0  0  0  0  0  0  0  0  0  0  0  0
  140.3882   73.4819  219.5524 H   0  0  0  0  0  0  0  0  0  0  0  0
  139.0782   70.3117  222.7651 H   0  0  0  0  0  0  0  0  0  0  0  0
  138.4050   71.1910  225.1400 H   0  0  0  0  0  0  0  0  0  0  0  0
  137.7880   72.2940  223.9130 H   0  0  0  0  0  0  0  0  0  0  0  0
  140.9146   69.7306  223.8013 H   0  0  0  0  0  0  0  0  0  0  0  0
  141.4846   71.4844  223.6962 H   0  0  0  0  0  0  0  0  0  0  0  0
  141.6709   72.8167  225.6476 H   0  0  0  0  0  0  0  0  0  0  0  0
  141.4842   72.9884  228.0899 H   0  0  0  0  0  0  0  0  0  0  0  0
  140.3951   71.1962  229.4350 H   0  0  0  0  0  0  0  0  0  0  0  0
  139.4991   69.2115  228.2082 H   0  0  0  0  0  0  0  0  0  0  0  0
  141.6440   70.5589  221.4069 H   0  0  0  0  0  0  0  0  0  0  0  0
  141.5156   71.2962  219.7877 H   0  0  0  0  0  0  0  0  0  0  0  0
  143.2500   72.0405  222.1231 H   0  0  0  0  0  0  0  0  0  0  0  0
  143.6403   71.6913  220.3201 H   0  0  0  0  0  0  0  0  0  0  0  0
  1  2  1  0
  2  3  1  0
  3  4  2  0
  3  5  1  0
  5  6  1  0
  6  7  2  0
  7  8  1  0
  8  9  2  0
  9 10  1  0
 10 11  2  0
  5 12  1  0
 12 13  1  0
 13 14  1  0
 14 15  1  0
 15 16  1  0
 16 17  2  0
 16 18  1  0
 18 19  1  0
 18 20  1  0
 20 21  1  0
 21 22  2  0
 22 23  1  0
 23 24  2  0
 24 25  1  0
 25 26  2  0
 26 27  1  0
 15 28  1  0
 28 29  1  0
 11  6  1  0
 29 12  1  0
 26 21  1  0
  1 30  1  0
  1 31  1  0
  1 32  1  0
  2 33  1  0
  2 34  1  0
  7 35  1  0
  8 36  1  0
  9 37  1  0
 10 38  1  0
 11 39  1  0
 12 40  1  0
 13 41  1  0
 13 42  1  0
 14 43  1  0
 14 44  1  0
 18 45  1  6
 19 46  1  0
 19 47  1  0
 20 48  1  0
 20 49  1  0
 22 50  1  0
 23 51  1  0
 24 52  1  0
 25 53  1  0
 28 54  1  0
 28 55  1  0
 29 56  1  0
 29 57  1  0
M  END
>  <smiles>  (33) 
CCC(=O)N(c1ccccc1)C1CCN(C(=O)[C@H](N)Cc2ccccc2Br)CC1

>  <score_type>  (33) 
oracle

>  <origin>  (33) 
autodockgpu

>  <m_score__min__energy>  (33) 
-8.3100000000000005

>  <m_primary>  (33) 
energy

>  <rmsd>  (33) 
7.9773115625907

>  <m_score__min__rmsd>  (33) 
7.9773115625907

>  <meeko>  (33) 
{"free_energy": -8.02, "intermolecular_energy": -10.41, "internal_energy": -2.47, "cluster_size": 9, "cluster_id": 1, "rank_in_cluster": 4}

>  <energy>  (33) 
-6.66

>  <cluster_rmsd>  (33) 
1.19

>  <cluster>  (33) 
7

$$$$

     RDKit          3D

 57 59  0  0  0  0  0  0  0  0999 V2000
  140.1800   71.5120  220.2450 C   0  0  0  0  0  0  0  0  0  0  0  0
  140.4520   72.9240  219.8710 C   0  0  0  0  0  0  0  0  0  0  0  0
  141.1830   73.7220  220.8880 C   0  0  0  0  0  0  0  0  0  0  0  0
  140.7180   73.7660  222.0590 O   0  0  0  0  0  0  0  0  0  0  0  0
  142.3870   74.4180  220.5240 N   0  0  0  0  0  0  0  0  0  0  0  0
  143.5570   73.6420  220.2680 C   0  0  0  0  0  0  0  0  0  0  0  0
  144.7330   74.1180  220.8290 C   0  0  0  0  0  0  0  0  0  0  0  0
  145.9480   73.4770  220.6710 C   0  0  0  0  0  0  0  0  0  0  0  0
  145.9410   72.3220  219.9170 C   0  0  0  0  0  0  0  0  0  0  0  0
  144.7710   71.8190  219.3410 C   0  0  0  0  0  0  0  0  0  0  0  0
  143.5530   72.4880  219.5170 C   0  0  0  0  0  0  0  0  0  0  0  0
  142.4100   75.8890  220.4580 C   0  0  0  0  0  0  0  0  0  0  0  0
  143.3210   76.4310  219.4450 C   0  0  0  0  0  0  0  0  0  0  0  0
  142.7620   77.2380  218.3320 C   0  0  0  0  0  0  0  0  0  0  0  0
  141.5770   78.0140  218.7880 N   0  0  0  0  0  0  0  0  0  0  0  0
  141.6810   79.3850  218.6780 C   0  0  0  0  0  0  0  0  0  0  0  0
  142.8470   79.7750  218.2060 O   0  0  0  0  0  0  0  0  0  0  0  0
  140.7870   80.4980  218.9690 C   0  0  2  0  0  0  0  0  0  0  0  0
  141.4060   81.7680  218.8530 N   0  0  0  0  0  0  0  0  0  0  0  0
  140.0990   80.2400  220.2960 C   0  0  0  0  0  0  0  0  0  0  0  0
  140.9750   80.0610  221.4470 C   0  0  0  0  0  0  0  0  0  0  0  0
  142.2200   80.6600  221.5940 C   0  0  0  0  0  0  0  0  0  0  0  0
  142.9860   80.5060  222.7440 C   0  0  0  0  0  0  0  0  0  0  0  0
  142.5570   79.7460  223.8100 C   0  0  0  0  0  0  0  0  0  0  0  0
  141.3190   79.1420  223.6730 C   0  0  0  0  0  0  0  0  0  0  0  0
  140.5490   79.2960  222.5200 C   0  0  0  0  0  0  0  0  0  0  0  0
  138.9140   78.2940  222.4920 Br  0  0  0  0  0  0  0  0  0  0  0  0
  140.5240   77.1800  219.2970 C   0  0  0  0  0  0  0  0  0  0  0  0
  141.0500   76.4610  220.4890 C   0  0  0  0  0  0  0  0  0  0  0  0
  140.1622   71.4199  221.3410 H   0  0  0  0  0  0  0  0  0  0  0  0
  139.2062   71.2053  219.8354 H   0  0  0  0  0  0  0  0  0  0  0  0
  140.9701   70.8655  219.8354 H   0  0  0  0  0  0  0  0  0  0  0  0
  141.0497   72.9215  218.9475 H   0  0  0  0  0  0  0  0  0  0  0  0
  139.4682   73.4032  219.7590 H   0  0  0  0  0  0  0  0  0  0  0  0
  144.6976   75.0428  221.4236 H   0  0  0  0  0  0  0  0  0  0  0  0
  146.8717   73.8677  221.1229 H   0  0  0  0  0  0  0  0  0  0  0  0
  146.8858   71.7798  219.7642 H   0  0  0  0  0  0  0  0  0  0  0  0
  144.8069   70.8939  218.7470 H   0  0  0  0  0  0  0  0  0  0  0  0
  142.6241   72.1041  219.0700 H   0  0  0  0  0  0  0  0  0  0  0  0
  142.8790   76.2477  221.3861 H   0  0  0  0  0  0  0  0  0  0  0  0
  144.0467   77.0679  219.9720 H   0  0  0  0  0  0  0  0  0  0  0  0
  143.7227   75.5366  218.9462 H   0  0  0  0  0  0  0  0  0  0  0  0
  143.5320   77.9347  217.9691 H   0  0  0  0  0  0  0  0  0  0  0  0
  142.4505   76.5589  217.5247 H   0  0  0  0  0  0  0  0  0  0  0  0
  140.0077   80.5478  218.1942 H   0  0  0  0  0  0  0  0  0  0  0  0
  141.2670   82.4290  219.6140 H   0  0  0  0  0  0  0  0  0  0  0  0
  142.2570   81.7990  218.3000 H   0  0  0  0  0  0  0  0  0  0  0  0
  139.4397   81.0954  220.5049 H   0  0  0  0  0  0  0  0  0  0  0  0
  139.5707   79.2828  220.1744 H   0  0  0  0  0  0  0  0  0  0  0  0
  142.6130   81.2771  220.7726 H   0  0  0  0  0  0  0  0  0  0  0  0
  143.9639   81.0060  222.8045 H   0  0  0  0  0  0  0  0  0  0  0  0
  143.1643   79.6259  224.7192 H   0  0  0  0  0  0  0  0  0  0  0  0
  140.9317   78.5235  224.4961 H   0  0  0  0  0  0  0  0  0  0  0  0
  139.6615   77.7994  219.5839 H   0  0  0  0  0  0  0  0  0  0  0  0
  140.1960   76.4635  218.5295 H   0  0  0  0  0  0  0  0  0  0  0  0
  141.0222   77.1719  221.3280 H   0  0  0  0  0  0  0  0  0  0  0  0
  140.4017   75.5752  220.5598 H   0  0  0  0  0  0  0  0  0  0  0  0
  1  2  1  0
  2  3  1  0
  3  4  2  0
  3  5  1  0
  5  6  1  0
  6  7  2  0
  7  8  1  0
  8  9  2  0
  9 10  1  0
 10 11  2  0
  5 12  1  0
 12 13  1  0
 13 14  1  0
 14 15  1  0
 15 16  1  0
 16 17  2  0
 16 18  1  0
 18 19  1  0
 18 20  1  0
 20 21  1  0
 21 22  2  0
 22 23  1  0
 23 24  2  0
 24 25  1  0
 25 26  2  0
 26 27  1  0
 15 28  1  0
 28 29  1  0
 11  6  1  0
 29 12  1  0
 26 21  1  0
  1 30  1  0
  1 31  1  0
  1 32  1  0
  2 33  1  0
  2 34  1  0
  7 35  1  0
  8 36  1  0
  9 37  1  0
 10 38  1  0
 11 39  1  0
 12 40  1  0
 13 41  1  0
 13 42  1  0
 14 43  1  0
 14 44  1  0
 18 45  1  6
 19 46  1  0
 19 47  1  0
 20 48  1  0
 20 49  1  0
 22 50  1  0
 23 51  1  0
 24 52  1  0
 25 53  1  0
 28 54  1  0
 28 55  1  0
 29 56  1  0
 29 57  1  0
M  END
>  <smiles>  (34) 
CCC(=O)N(c1ccccc1)C1CCN(C(=O)[C@H](N)Cc2ccccc2Br)CC1

>  <score_type>  (34) 
oracle

>  <origin>  (34) 
autodockgpu

>  <m_score__min__energy>  (34) 
-8.3100000000000005

>  <m_primary>  (34) 
energy

>  <rmsd>  (34) 
5.420054447389626

>  <m_score__min__rmsd>  (34) 
5.420054447389626

>  <meeko>  (34) 
{"free_energy": -6.46, "intermolecular_energy": -8.84, "internal_energy": -2.93, "cluster_size": 9, "cluster_id": 11, "rank_in_cluster": 1}

>  <energy>  (34) 
-6.72

>  <cluster_rmsd>  (34) 
0.0

>  <cluster>  (34) 
8

$$$$

     RDKit          3D

 57 59  0  0  0  0  0  0  0  0999 V2000
  142.4030   78.9410  218.1550 C   0  0  0  0  0  0  0  0  0  0  0  0
  141.4780   78.0730  218.9300 C   0  0  0  0  0  0  0  0  0  0  0  0
  142.0540   77.4660  220.1560 C   0  0  0  0  0  0  0  0  0  0  0  0
  143.0770   76.7390  220.0390 O   0  0  0  0  0  0  0  0  0  0  0  0
  141.4430   77.7130  221.4330 N   0  0  0  0  0  0  0  0  0  0  0  0
  141.7240   78.9530  222.0810 C   0  0  0  0  0  0  0  0  0  0  0  0
  141.4650   80.0960  221.3370 C   0  0  0  0  0  0  0  0  0  0  0  0
  141.6850   81.3700  221.8270 C   0  0  0  0  0  0  0  0  0  0  0  0
  142.1840   81.4590  223.1100 C   0  0  0  0  0  0  0  0  0  0  0  0
  142.4550   80.3250  223.8820 C   0  0  0  0  0  0  0  0  0  0  0  0
  142.2210   79.0450  223.3610 C   0  0  0  0  0  0  0  0  0  0  0  0
  140.5850   76.6950  222.0620 C   0  0  0  0  0  0  0  0  0  0  0  0
  139.1590   76.8320  221.7480 C   0  0  0  0  0  0  0  0  0  0  0  0
  138.4740   75.7340  221.0210 C   0  0  0  0  0  0  0  0  0  0  0  0
  139.0510   74.4140  221.3940 N   0  0  0  0  0  0  0  0  0  0  0  0
  138.1720   73.5170  221.9660 C   0  0  0  0  0  0  0  0  0  0  0  0
  136.9590   74.0090  222.1110 O   0  0  0  0  0  0  0  0  0  0  0  0
  138.2900   72.1470  222.4460 C   0  0  2  0  0  0  0  0  0  0  0  0
  137.4050   71.8410  223.5100 N   0  0  0  0  0  0  0  0  0  0  0  0
  139.7520   71.8480  222.7230 C   0  0  0  0  0  0  0  0  0  0  0  0
  140.0440   71.2180  224.0050 C   0  0  0  0  0  0  0  0  0  0  0  0
  140.6800   71.8460  225.0680 C   0  0  0  0  0  0  0  0  0  0  0  0
  140.8750   71.2170  226.2920 C   0  0  0  0  0  0  0  0  0  0  0  0
  140.4480   69.9290  226.5270 C   0  0  0  0  0  0  0  0  0  0  0  0
  139.8140   69.2930  225.4730 C   0  0  0  0  0  0  0  0  0  0  0  0
  139.6180   69.9220  224.2440 C   0  0  0  0  0  0  0  0  0  0  0  0
  138.8120   68.8310  222.8870 Br  0  0  0  0  0  0  0  0  0  0  0  0
  140.4560   74.3170  221.1110 C   0  0  0  0  0  0  0  0  0  0  0  0
  141.1570   75.3400  221.9340 C   0  0  0  0  0  0  0  0  0  0  0  0
  143.0254   79.5251  218.8488 H   0  0  0  0  0  0  0  0  0  0  0  0
  143.0486   78.3152  217.5213 H   0  0  0  0  0  0  0  0  0  0  0  0
  141.8194   79.6251  217.5213 H   0  0  0  0  0  0  0  0  0  0  0  0
  140.6107   78.6809  219.2272 H   0  0  0  0  0  0  0  0  0  0  0  0
  141.2220   77.2335  218.2669 H   0  0  0  0  0  0  0  0  0  0  0  0
  141.0689   79.9836  220.3170 H   0  0  0  0  0  0  0  0  0  0  0  0
  141.4732   82.2660  221.2251 H   0  0  0  0  0  0  0  0  0  0  0  0
  142.3748   82.4536  223.5394 H   0  0  0  0  0  0  0  0  0  0  0  0
  142.8530   80.4378  224.9012 H   0  0  0  0  0  0  0  0  0  0  0  0
  142.4279   78.1432  223.9560 H   0  0  0  0  0  0  0  0  0  0  0  0
  140.5883   76.8927  223.1441 H   0  0  0  0  0  0  0  0  0  0  0  0
  138.6299   76.9656  222.7031 H   0  0  0  0  0  0  0  0  0  0  0  0
  139.1235   77.6769  221.0445 H   0  0  0  0  0  0  0  0  0  0  0  0
  137.4040   75.7450  221.2758 H   0  0  0  0  0  0  0  0  0  0  0  0
  138.6113   75.8866  219.9403 H   0  0  0  0  0  0  0  0  0  0  0  0
  137.9532   71.4577  221.6576 H   0  0  0  0  0  0  0  0  0  0  0  0
  136.9450   72.6200  223.9770 H   0  0  0  0  0  0  0  0  0  0  0  0
  136.9500   70.9340  223.4630 H   0  0  0  0  0  0  0  0  0  0  0  0
  140.1150   71.1790  221.9289 H   0  0  0  0  0  0  0  0  0  0  0  0
  140.2543   72.8262  222.7522 H   0  0  0  0  0  0  0  0  0  0  0  0
  141.0418   72.8765  224.9367 H   0  0  0  0  0  0  0  0  0  0  0  0
  141.3860   71.7647  227.0976 H   0  0  0  0  0  0  0  0  0  0  0  0
  140.6019   69.4335  227.4970 H   0  0  0  0  0  0  0  0  0  0  0  0
  139.4547   68.2623  225.6091 H   0  0  0  0  0  0  0  0  0  0  0  0
  140.8217   73.3127  221.3710 H   0  0  0  0  0  0  0  0  0  0  0  0
  140.6454   74.4886  220.0411 H   0  0  0  0  0  0  0  0  0  0  0  0
  141.2368   74.9303  222.9517 H   0  0  0  0  0  0  0  0  0  0  0  0
  142.0955   75.5096  221.3859 H   0  0  0  0  0  0  0  0  0  0  0  0
  1  2  1  0
  2  3  1  0
  3  4  2  0
  3  5  1  0
  5  6  1  0
  6  7  2  0
  7  8  1  0
  8  9  2  0
  9 10  1  0
 10 11  2  0
  5 12  1  0
 12 13  1  0
 13 14  1  0
 14 15  1  0
 15 16  1  0
 16 17  2  0
 16 18  1  0
 18 19  1  0
 18 20  1  0
 20 21  1  0
 21 22  2  0
 22 23  1  0
 23 24  2  0
 24 25  1  0
 25 26  2  0
 26 27  1  0
 15 28  1  0
 28 29  1  0
 11  6  1  0
 29 12  1  0
 26 21  1  0
  1 30  1  0
  1 31  1  0
  1 32  1  0
  2 33  1  0
  2 34  1  0
  7 35  1  0
  8 36  1  0
  9 37  1  0
 10 38  1  0
 11 39  1  0
 12 40  1  0
 13 41  1  0
 13 42  1  0
 14 43  1  0
 14 44  1  0
 18 45  1  6
 19 46  1  0
 19 47  1  0
 20 48  1  0
 20 49  1  0
 22 50  1  0
 23 51  1  0
 24 52  1  0
 25 53  1  0
 28 54  1  0
 28 55  1  0
 29 56  1  0
 29 57  1  0
M  END
>  <smiles>  (35) 
CCC(=O)N(c1ccccc1)C1CCN(C(=O)[C@H](N)Cc2ccccc2Br)CC1

>  <score_type>  (35) 
oracle

>  <origin>  (35) 
autodockgpu

>  <m_score__min__energy>  (35) 
-8.3100000000000005

>  <m_primary>  (35) 
energy

>  <rmsd>  (35) 
6.321537636333848

>  <m_score__min__rmsd>  (35) 
6.321537636333848

>  <meeko>  (35) 
{"free_energy": -7.18, "intermolecular_energy": -9.57, "internal_energy": -2.06, "cluster_size": 4, "cluster_id": 3, "rank_in_cluster": 4}

>  <energy>  (35) 
-6.5

>  <cluster_rmsd>  (35) 
0.36

>  <cluster>  (35) 
8

$$$$

     RDKit          3D

 57 59  0  0  0  0  0  0  0  0999 V2000
  146.2520   73.1080  221.9410 C   0  0  0  0  0  0  0  0  0  0  0  0
  146.4530   73.7840  220.6330 C   0  0  0  0  0  0  0  0  0  0  0  0
  145.5020   73.3920  219.5610 C   0  0  0  0  0  0  0  0  0  0  0  0
  145.9080   72.6090  218.6610 O   0  0  0  0  0  0  0  0  0  0  0  0
  144.1590   73.9040  219.5720 N   0  0  0  0  0  0  0  0  0  0  0  0
  143.7340   74.6890  218.4580 C   0  0  0  0  0  0  0  0  0  0  0  0
  143.6730   76.0590  218.6720 C   0  0  0  0  0  0  0  0  0  0  0  0
  143.2800   76.9490  217.6900 C   0  0  0  0  0  0  0  0  0  0  0  0
  142.9450   76.4090  216.4660 C   0  0  0  0  0  0  0  0  0  0  0  0
  142.9980   75.0330  216.2230 C   0  0  0  0  0  0  0  0  0  0  0  0
  143.4000   74.1530  217.2350 C   0  0  0  0  0  0  0  0  0  0  0  0
  143.2710   73.6530  220.7190 C   0  0  0  0  0  0  0  0  0  0  0  0
  142.0720   74.4970  220.7480 C   0  0  0  0  0  0  0  0  0  0  0  0
  140.7380   73.8540  220.6610 C   0  0  0  0  0  0  0  0  0  0  0  0
  140.7500   72.5210  221.3240 N   0  0  0  0  0  0  0  0  0  0  0  0
  139.8770   72.3710  222.3810 C   0  0  0  0  0  0  0  0  0  0  0  0
  139.1930   73.4650  222.6420 O   0  0  0  0  0  0  0  0  0  0  0  0
  139.5450   71.2690  223.2740 C   0  0  2  0  0  0  0  0  0  0  0  0
  138.3700   71.4910  224.0360 N   0  0  0  0  0  0  0  0  0  0  0  0
  140.7750   70.9070  224.0850 C   0  0  0  0  0  0  0  0  0  0  0  0
  140.6210   70.9460  225.5340 C   0  0  0  0  0  0  0  0  0  0  0  0
  141.1020   71.9600  226.3540 C   0  0  0  0  0  0  0  0  0  0  0  0
  140.8680   71.9790  227.7240 C   0  0  0  0  0  0  0  0  0  0  0  0
  140.1440   70.9920  228.3550 C   0  0  0  0  0  0  0  0  0  0  0  0
  139.6610   69.9760  227.5480 C   0  0  0  0  0  0  0  0  0  0  0  0
  139.8950   69.9550  226.1730 C   0  0  0  0  0  0  0  0  0  0  0  0
  139.2270   68.4080  225.2550 Br  0  0  0  0  0  0  0  0  0  0  0  0
  141.7090   71.6200  220.7490 C   0  0  0  0  0  0  0  0  0  0  0  0
  143.0620   72.2100  220.9450 C   0  0  0  0  0  0  0  0  0  0  0  0
  146.4626   73.8162  222.7559 H   0  0  0  0  0  0  0  0  0  0  0  0
  145.2114   72.7597  222.0176 H   0  0  0  0  0  0  0  0  0  0  0  0
  146.9332   72.2477  222.0176 H   0  0  0  0  0  0  0  0  0  0  0  0
  146.3565   74.8680  220.7927 H   0  0  0  0  0  0  0  0  0  0  0  0
  147.4491   73.4762  220.2823 H   0  0  0  0  0  0  0  0  0  0  0  0
  143.9482   76.4520  219.6619 H   0  0  0  0  0  0  0  0  0  0  0  0
  143.2367   78.0324  217.8753 H   0  0  0  0  0  0  0  0  0  0  0  0
  142.6263   77.0815  215.6559 H   0  0  0  0  0  0  0  0  0  0  0  0
  142.7228   74.6404  215.2330 H   0  0  0  0  0  0  0  0  0  0  0  0
  143.4474   73.0683  217.0584 H   0  0  0  0  0  0  0  0  0  0  0  0
  143.8000   73.9977  221.6197 H   0  0  0  0  0  0  0  0  0  0  0  0
  142.0973   75.0606  221.6923 H   0  0  0  0  0  0  0  0  0  0  0  0
  142.1418   75.0865  219.8219 H   0  0  0  0  0  0  0  0  0  0  0  0
  139.9949   74.4964  221.1560 H   0  0  0  0  0  0  0  0  0  0  0  0
  140.4803   73.7182  219.6003 H   0  0  0  0  0  0  0  0  0  0  0  0
  139.2708   70.3883  222.6747 H   0  0  0  0  0  0  0  0  0  0  0  0
  137.8620   72.3570  223.8730 H   0  0  0  0  0  0  0  0  0  0  0  0
  137.8750   70.6590  224.3420 H   0  0  0  0  0  0  0  0  0  0  0  0
  141.0732   69.8856  223.8059 H   0  0  0  0  0  0  0  0  0  0  0  0
  141.5239   71.6765  223.8462 H   0  0  0  0  0  0  0  0  0  0  0  0
  141.6876   72.7749  225.9036 H   0  0  0  0  0  0  0  0  0  0  0  0
  141.2736   72.8079  228.3226 H   0  0  0  0  0  0  0  0  0  0  0  0
  139.9598   71.0099  229.4393 H   0  0  0  0  0  0  0  0  0  0  0  0
  139.0767   69.1630  228.0036 H   0  0  0  0  0  0  0  0  0  0  0  0
  141.6510   70.6423  221.2496 H   0  0  0  0  0  0  0  0  0  0  0  0
  141.5050   71.4738  219.6780 H   0  0  0  0  0  0  0  0  0  0  0  0
  143.3513   72.0052  221.9864 H   0  0  0  0  0  0  0  0  0  0  0  0
  143.6639   71.7376  220.1547 H   0  0  0  0  0  0  0  0  0  0  0  0
  1  2  1  0
  2  3  1  0
  3  4  2  0
  3  5  1  0
  5  6  1  0
  6  7  2  0
  7  8  1  0
  8  9  2  0
  9 10  1  0
 10 11  2  0
  5 12  1  0
 12 13  1  0
 13 14  1  0
 14 15  1  0
 15 16  1  0
 16 17  2  0
 16 18  1  0
 18 19  1  0
 18 20  1  0
 20 21  1  0
 21 22  2  0
 22 23  1  0
 23 24  2  0
 24 25  1  0
 25 26  2  0
 26 27  1  0
 15 28  1  0
 28 29  1  0
 11  6  1  0
 29 12  1  0
 26 21  1  0
  1 30  1  0
  1 31  1  0
  1 32  1  0
  2 33  1  0
  2 34  1  0
  7 35  1  0
  8 36  1  0
  9 37  1  0
 10 38  1  0
 11 39  1  0
 12 40  1  0
 13 41  1  0
 13 42  1  0
 14 43  1  0
 14 44  1  0
 18 45  1  6
 19 46  1  0
 19 47  1  0
 20 48  1  0
 20 49  1  0
 22 50  1  0
 23 51  1  0
 24 52  1  0
 25 53  1  0
 28 54  1  0
 28 55  1  0
 29 56  1  0
 29 57  1  0
M  END
>  <smiles>  (36) 
CCC(=O)N(c1ccccc1)C1CCN(C(=O)[C@H](N)Cc2ccccc2Br)CC1

>  <score_type>  (36) 
oracle

>  <origin>  (36) 
autodockgpu

>  <m_score__min__energy>  (36) 
-8.3100000000000005

>  <m_primary>  (36) 
energy

>  <rmsd>  (36) 
7.940836701781174

>  <m_score__min__rmsd>  (36) 
7.940836701781174

>  <meeko>  (36) 
{"free_energy": -8.25, "intermolecular_energy": -10.63, "internal_energy": -2.34, "cluster_size": 9, "cluster_id": 1, "rank_in_cluster": 2}

>  <energy>  (36) 
-6.53

>  <cluster_rmsd>  (36) 
0.0

>  <cluster>  (36) 
9

$$$$

     RDKit          3D

 57 59  0  0  0  0  0  0  0  0999 V2000
  144.0090   74.0220  217.5220 C   0  0  0  0  0  0  0  0  0  0  0  0
  144.5680   72.6530  217.3710 C   0  0  0  0  0  0  0  0  0  0  0  0
  145.2090   72.0900  218.5860 C   0  0  0  0  0  0  0  0  0  0  0  0
  146.2610   72.6370  219.0140 O   0  0  0  0  0  0  0  0  0  0  0  0
  144.6280   70.9500  219.2410 N   0  0  0  0  0  0  0  0  0  0  0  0
  145.1230   69.6570  218.8970 C   0  0  0  0  0  0  0  0  0  0  0  0
  145.7910   69.5680  217.6830 C   0  0  0  0  0  0  0  0  0  0  0  0
  146.3270   68.3850  217.2120 C   0  0  0  0  0  0  0  0  0  0  0  0
  146.1680   67.2740  218.0140 C   0  0  0  0  0  0  0  0  0  0  0  0
  145.5000   67.3330  219.2410 C   0  0  0  0  0  0  0  0  0  0  0  0
  144.9660   68.5460  219.6950 C   0  0  0  0  0  0  0  0  0  0  0  0
  143.5310   71.1210  220.2080 C   0  0  0  0  0  0  0  0  0  0  0  0
  143.4620   72.4560  220.8110 C   0  0  0  0  0  0  0  0  0  0  0  0
  142.2540   73.2870  220.5830 C   0  0  0  0  0  0  0  0  0  0  0  0
  141.0400   72.4340  220.4760 N   0  0  0  0  0  0  0  0  0  0  0  0
  140.0570   72.6710  221.4160 C   0  0  0  0  0  0  0  0  0  0  0  0
  140.3870   73.6100  222.2770 O   0  0  0  0  0  0  0  0  0  0  0  0
  138.7360   72.1110  221.6650 C   0  0  2  0  0  0  0  0  0  0  0  0
  137.8810   72.9770  222.3930 N   0  0  0  0  0  0  0  0  0  0  0  0
  138.8950   70.7220  222.2570 C   0  0  0  0  0  0  0  0  0  0  0  0
  139.4710   70.6600  223.5940 C   0  0  0  0  0  0  0  0  0  0  0  0
  140.7100   71.1820  223.9480 C   0  0  0  0  0  0  0  0  0  0  0  0
  141.1820   71.1520  225.2540 C   0  0  0  0  0  0  0  0  0  0  0  0
  140.4500   70.6000  226.2820 C   0  0  0  0  0  0  0  0  0  0  0  0
  139.2150   70.0750  225.9420 C   0  0  0  0  0  0  0  0  0  0  0  0
  138.7390   70.1040  224.6310 C   0  0  0  0  0  0  0  0  0  0  0  0
  137.0520   69.2330  224.3540 Br  0  0  0  0  0  0  0  0  0  0  0  0
  141.1200   71.4760  219.4080 C   0  0  0  0  0  0  0  0  0  0  0  0
  142.2610   70.5650  219.7000 C   0  0  0  0  0  0  0  0  0  0  0  0
  143.9109   74.2622  218.5910 H   0  0  0  0  0  0  0  0  0  0  0  0
  144.6827   74.7480  217.0434 H   0  0  0  0  0  0  0  0  0  0  0  0
  143.0197   74.0690  217.0434 H   0  0  0  0  0  0  0  0  0  0  0  0
  143.7474   71.9816  217.0780 H   0  0  0  0  0  0  0  0  0  0  0  0
  145.3647   72.7321  216.6167 H   0  0  0  0  0  0  0  0  0  0  0  0
  145.8977   70.4761  217.0715 H   0  0  0  0  0  0  0  0  0  0  0  0
  146.8532   68.3318  216.2475 H   0  0  0  0  0  0  0  0  0  0  0  0
  146.5798   66.3111  217.6776 H   0  0  0  0  0  0  0  0  0  0  0  0
  145.3935   66.4243  219.8516 H   0  0  0  0  0  0  0  0  0  0  0  0
  144.4382   68.6088  220.6581 H   0  0  0  0  0  0  0  0  0  0  0  0
  143.7718   70.5006  221.0839 H   0  0  0  0  0  0  0  0  0  0  0  0
  143.5618   72.3240  221.8985 H   0  0  0  0  0  0  0  0  0  0  0  0
  144.2651   73.0145  220.3078 H   0  0  0  0  0  0  0  0  0  0  0  0
  142.1318   73.9846  221.4246 H   0  0  0  0  0  0  0  0  0  0  0  0
  142.3797   73.8420  219.6416 H   0  0  0  0  0  0  0  0  0  0  0  0
  138.2021   72.0061  220.7090 H   0  0  0  0  0  0  0  0  0  0  0  0
  138.3140   73.7470  222.8990 H   0  0  0  0  0  0  0  0  0  0  0  0
  136.9340   73.0680  222.0380 H   0  0  0  0  0  0  0  0  0  0  0  0
  137.8988   70.2574  222.2978 H   0  0  0  0  0  0  0  0  0  0  0  0
  139.6083   70.2002  221.6021 H   0  0  0  0  0  0  0  0  0  0  0  0
  141.3383   71.6345  223.1667 H   0  0  0  0  0  0  0  0  0  0  0  0
  142.1703   71.5821  225.4740 H   0  0  0  0  0  0  0  0  0  0  0  0
  140.8258   70.5776  227.3156 H   0  0  0  0  0  0  0  0  0  0  0  0
  138.5917   69.6224  226.7273 H   0  0  0  0  0  0  0  0  0  0  0  0
  140.1851   70.8990  219.3517 H   0  0  0  0  0  0  0  0  0  0  0  0
  141.2710   71.9853  218.4448 H   0  0  0  0  0  0  0  0  0  0  0  0
  141.9075   69.8414  220.4493 H   0  0  0  0  0  0  0  0  0  0  0  0
  142.5327   70.1702  218.7099 H   0  0  0  0  0  0  0  0  0  0  0  0
  1  2  1  0
  2  3  1  0
  3  4  2  0
  3  5  1  0
  5  6  1  0
  6  7  2  0
  7  8  1  0
  8  9  2  0
  9 10  1  0
 10 11  2  0
  5 12  1  0
 12 13  1  0
 13 14  1  0
 14 15  1  0
 15 16  1  0
 16 17  2  0
 16 18  1  0
 18 19  1  0
 18 20  1  0
 20 21  1  0
 21 22  2  0
 22 23  1  0
 23 24  2  0
 24 25  1  0
 25 26  2  0
 26 27  1  0
 15 28  1  0
 28 29  1  0
 11  6  1  0
 29 12  1  0
 26 21  1  0
  1 30  1  0
  1 31  1  0
  1 32  1  0
  2 33  1  0
  2 34  1  0
  7 35  1  0
  8 36  1  0
  9 37  1  0
 10 38  1  0
 11 39  1  0
 12 40  1  0
 13 41  1  0
 13 42  1  0
 14 43  1  0
 14 44  1  0
 18 45  1  6
 19 46  1  0
 19 47  1  0
 20 48  1  0
 20 49  1  0
 22 50  1  0
 23 51  1  0
 24 52  1  0
 25 53  1  0
 28 54  1  0
 28 55  1  0
 29 56  1  0
 29 57  1  0
M  END
>  <smiles>  (37) 
CCC(=O)N(c1ccccc1)C1CCN(C(=O)[C@H](N)Cc2ccccc2Br)CC1

>  <score_type>  (37) 
oracle

>  <origin>  (37) 
autodockgpu

>  <m_score__min__energy>  (37) 
-8.3100000000000005

>  <m_primary>  (37) 
energy

>  <rmsd>  (37) 
8.191508969248664

>  <m_score__min__rmsd>  (37) 
8.191508969248664

>  <meeko>  (37) 
{"free_energy": -6.79, "intermolecular_energy": -9.18, "internal_energy": -2.6, "cluster_size": 7, "cluster_id": 2, "rank_in_cluster": 6}

>  <energy>  (37) 
-6.49

>  <cluster_rmsd>  (37) 
0.0

>  <cluster>  (37) 
10

$$$$

     RDKit          3D

 57 59  0  0  0  0  0  0  0  0999 V2000
  146.3480   73.6570  221.6900 C   0  0  0  0  0  0  0  0  0  0  0  0
  146.0000   72.6540  220.6500 C   0  0  0  0  0  0  0  0  0  0  0  0
  145.3600   73.2030  219.4270 C   0  0  0  0  0  0  0  0  0  0  0  0
  145.9920   73.1350  218.3400 O   0  0  0  0  0  0  0  0  0  0  0  0
  144.0510   73.7930  219.5070 N   0  0  0  0  0  0  0  0  0  0  0  0
  143.6390   74.6510  218.4440 C   0  0  0  0  0  0  0  0  0  0  0  0
  143.2020   74.0160  217.2890 C   0  0  0  0  0  0  0  0  0  0  0  0
  142.7710   74.7110  216.1750 C   0  0  0  0  0  0  0  0  0  0  0  0
  142.7930   76.0870  216.2600 C   0  0  0  0  0  0  0  0  0  0  0  0
  143.2280   76.7530  217.4100 C   0  0  0  0  0  0  0  0  0  0  0  0
  143.6590   76.0250  218.5260 C   0  0  0  0  0  0  0  0  0  0  0  0
  143.1870   73.5420  220.6730 C   0  0  0  0  0  0  0  0  0  0  0  0
  142.0200   74.4260  220.7570 C   0  0  0  0  0  0  0  0  0  0  0  0
  140.6620   73.8310  220.6930 C   0  0  0  0  0  0  0  0  0  0  0  0
  140.6460   72.4830  221.3220 N   0  0  0  0  0  0  0  0  0  0  0  0
  139.7980   72.3350  222.4010 C   0  0  0  0  0  0  0  0  0  0  0  0
  139.1610   73.4450  222.7080 O   0  0  0  0  0  0  0  0  0  0  0  0
  139.4530   71.2230  223.2750 C   0  0  2  0  0  0  0  0  0  0  0  0
  138.3020   71.4600  224.0680 N   0  0  0  0  0  0  0  0  0  0  0  0
  140.6900   70.8060  224.0510 C   0  0  0  0  0  0  0  0  0  0  0  0
  140.5990   70.9100  225.5020 C   0  0  0  0  0  0  0  0  0  0  0  0
  141.0840   71.9760  226.2510 C   0  0  0  0  0  0  0  0  0  0  0  0
  140.9120   72.0530  227.6280 C   0  0  0  0  0  0  0  0  0  0  0  0
  140.2490   71.0760  228.3370 C   0  0  0  0  0  0  0  0  0  0  0  0
  139.7640   70.0080  227.6010 C   0  0  0  0  0  0  0  0  0  0  0  0
  139.9360   69.9290  226.2190 C   0  0  0  0  0  0  0  0  0  0  0  0
  139.2780   68.3200  225.4060 Br  0  0  0  0  0  0  0  0  0  0  0  0
  141.5570   71.5640  220.6980 C   0  0  0  0  0  0  0  0  0  0  0  0
  142.9340   72.1020  220.8690 C   0  0  0  0  0  0  0  0  0  0  0  0
  146.1960   73.2188  222.6874 H   0  0  0  0  0  0  0  0  0  0  0  0
  147.4013   73.9529  221.5762 H   0  0  0  0  0  0  0  0  0  0  0  0
  145.7043   74.5417  221.5762 H   0  0  0  0  0  0  0  0  0  0  0  0
  146.9257   72.1421  220.3484 H   0  0  0  0  0  0  0  0  0  0  0  0
  145.2561   71.9860  221.1087 H   0  0  0  0  0  0  0  0  0  0  0  0
  143.1988   72.9164  217.2596 H   0  0  0  0  0  0  0  0  0  0  0  0
  142.4280   74.1931  215.2672 H   0  0  0  0  0  0  0  0  0  0  0  0
  142.4578   76.6795  215.3959 H   0  0  0  0  0  0  0  0  0  0  0  0
  143.2317   77.8526  217.4382 H   0  0  0  0  0  0  0  0  0  0  0  0
  144.0023   76.5345  219.4384 H   0  0  0  0  0  0  0  0  0  0  0  0
  143.7527   73.8435  221.5669 H   0  0  0  0  0  0  0  0  0  0  0  0
  142.0915   74.9645  221.7135 H   0  0  0  0  0  0  0  0  0  0  0  0
  142.0845   75.0363  219.8441 H   0  0  0  0  0  0  0  0  0  0  0  0
  139.9560   74.4856  221.2249 H   0  0  0  0  0  0  0  0  0  0  0  0
  140.3701   73.7310  219.6371 H   0  0  0  0  0  0  0  0  0  0  0  0
  139.1400   70.3656  222.6611 H   0  0  0  0  0  0  0  0  0  0  0  0
  137.7950   72.3290  223.9100 H   0  0  0  0  0  0  0  0  0  0  0  0
  137.8100   70.6350  224.3960 H   0  0  0  0  0  0  0  0  0  0  0  0
  140.9059   69.7566  223.8016 H   0  0  0  0  0  0  0  0  0  0  0  0
  141.4795   71.5112  223.7520 H   0  0  0  0  0  0  0  0  0  0  0  0
  141.6220   72.7858  225.7365 H   0  0  0  0  0  0  0  0  0  0  0  0
  141.3179   72.9210  228.1682 H   0  0  0  0  0  0  0  0  0  0  0  0
  140.1124   71.1404  229.4266 H   0  0  0  0  0  0  0  0  0  0  0  0
  139.2284   69.1997  228.1204 H   0  0  0  0  0  0  0  0  0  0  0  0
  141.4789   70.5766  221.1765 H   0  0  0  0  0  0  0  0  0  0  0  0
  141.3182   71.4516  219.6301 H   0  0  0  0  0  0  0  0  0  0  0  0
  143.2452   71.8606  221.8961 H   0  0  0  0  0  0  0  0  0  0  0  0
  143.4963   71.6300  220.0498 H   0  0  0  0  0  0  0  0  0  0  0  0
  1  2  1  0
  2  3  1  0
  3  4  2  0
  3  5  1  0
  5  6  1  0
  6  7  2  0
  7  8  1  0
  8  9  2  0
  9 10  1  0
 10 11  2  0
  5 12  1  0
 12 13  1  0
 13 14  1  0
 14 15  1  0
 15 16  1  0
 16 17  2  0
 16 18  1  0
 18 19  1  0
 18 20  1  0
 20 21  1  0
 21 22  2  0
 22 23  1  0
 23 24  2  0
 24 25  1  0
 25 26  2  0
 26 27  1  0
 15 28  1  0
 28 29  1  0
 11  6  1  0
 29 12  1  0
 26 21  1  0
  1 30  1  0
  1 31  1  0
  1 32  1  0
  2 33  1  0
  2 34  1  0
  7 35  1  0
  8 36  1  0
  9 37  1  0
 10 38  1  0
 11 39  1  0
 12 40  1  0
 13 41  1  0
 13 42  1  0
 14 43  1  0
 14 44  1  0
 18 45  1  6
 19 46  1  0
 19 47  1  0
 20 48  1  0
 20 49  1  0
 22 50  1  0
 23 51  1  0
 24 52  1  0
 25 53  1  0
 28 54  1  0
 28 55  1  0
 29 56  1  0
 29 57  1  0
M  END
>  <smiles>  (38) 
CCC(=O)N(c1ccccc1)C1CCN(C(=O)[C@H](N)Cc2ccccc2Br)CC1

>  <score_type>  (38) 
oracle

>  <origin>  (38) 
autodockgpu

>  <m_score__min__energy>  (38) 
-8.3100000000000005

>  <m_primary>  (38) 
energy

>  <rmsd>  (38) 
7.978356972043724

>  <m_score__min__rmsd>  (38) 
7.978356972043724

>  <meeko>  (38) 
{"free_energy": -8.06, "intermolecular_energy": -10.44, "internal_energy": -2.4, "cluster_size": 9, "cluster_id": 1, "rank_in_cluster": 3}

>  <energy>  (38) 
-6.46

>  <cluster_rmsd>  (38) 
0.0

>  <cluster>  (38) 
11

$$$$

     RDKit          3D

 57 59  0  0  0  0  0  0  0  0999 V2000
  136.3420   83.1390  221.9730 C   0  0  0  0  0  0  0  0  0  0  0  0
  135.2780   82.1010  221.9560 C   0  0  0  0  0  0  0  0  0  0  0  0
  135.6970   80.7550  222.4240 C   0  0  0  0  0  0  0  0  0  0  0  0
  135.1290   79.7470  221.9260 O   0  0  0  0  0  0  0  0  0  0  0  0
  136.7250   80.6310  223.4210 N   0  0  0  0  0  0  0  0  0  0  0  0
  136.4320   81.0770  224.7440 C   0  0  0  0  0  0  0  0  0  0  0  0
  137.4150   81.8420  225.3570 C   0  0  0  0  0  0  0  0  0  0  0  0
  137.2770   82.3470  226.6360 C   0  0  0  0  0  0  0  0  0  0  0  0
  136.0990   82.0530  227.2910 C   0  0  0  0  0  0  0  0  0  0  0  0
  135.0920   81.2850  226.6990 C   0  0  0  0  0  0  0  0  0  0  0  0
  135.2570   80.7860  225.4000 C   0  0  0  0  0  0  0  0  0  0  0  0
  138.0500   80.0930  223.0670 C   0  0  0  0  0  0  0  0  0  0  0  0
  138.2500   78.6910  223.4450 C   0  0  0  0  0  0  0  0  0  0  0  0
  138.5010   77.6880  222.3800 C   0  0  0  0  0  0  0  0  0  0  0  0
  139.2640   78.2930  221.2550 N   0  0  0  0  0  0  0  0  0  0  0  0
  140.4900   77.7180  220.9860 C   0  0  0  0  0  0  0  0  0  0  0  0
  140.7860   76.7340  221.8080 O   0  0  0  0  0  0  0  0  0  0  0  0
  141.5280   77.9600  219.9930 C   0  0  2  0  0  0  0  0  0  0  0  0
  142.6210   77.0630  220.0860 N   0  0  0  0  0  0  0  0  0  0  0  0
  141.9030   79.4310  220.0240 C   0  0  0  0  0  0  0  0  0  0  0  0
  141.9800   80.0430  221.3440 C   0  0  0  0  0  0  0  0  0  0  0  0
  142.4940   79.4220  222.4760 C   0  0  0  0  0  0  0  0  0  0  0  0
  142.6030   80.0780  223.6970 C   0  0  0  0  0  0  0  0  0  0  0  0
  142.2080   81.3870  223.8590 C   0  0  0  0  0  0  0  0  0  0  0  0
  141.6920   82.0160  222.7390 C   0  0  0  0  0  0  0  0  0  0  0  0
  141.5810   81.3590  221.5130 C   0  0  0  0  0  0  0  0  0  0  0  0
  140.7470   82.3750  220.1160 Br  0  0  0  0  0  0  0  0  0  0  0  0
  138.5870   79.4090  220.6550 C   0  0  0  0  0  0  0  0  0  0  0  0
  138.4440   80.4650  221.6940 C   0  0  0  0  0  0  0  0  0  0  0  0
  136.5959   83.3867  223.0142 H   0  0  0  0  0  0  0  0  0  0  0  0
  137.2359   82.7563  221.4587 H   0  0  0  0  0  0  0  0  0  0  0  0
  135.9815   84.0421  221.4587 H   0  0  0  0  0  0  0  0  0  0  0  0
  134.4571   82.4452  222.6022 H   0  0  0  0  0  0  0  0  0  0  0  0
  134.9879   81.9799  220.9019 H   0  0  0  0  0  0  0  0  0  0  0  0
  138.3409   82.0547  224.8024 H   0  0  0  0  0  0  0  0  0  0  0  0
  138.0656   82.9520  227.1073 H   0  0  0  0  0  0  0  0  0  0  0  0
  135.9473   82.4350  228.3113 H   0  0  0  0  0  0  0  0  0  0  0  0
  134.1670   81.0717  227.2548 H   0  0  0  0  0  0  0  0  0  0  0  0
  134.4733   80.1815  224.9200 H   0  0  0  0  0  0  0  0  0  0  0  0
  138.7872   80.5973  223.7091 H   0  0  0  0  0  0  0  0  0  0  0  0
  139.1130   78.6607  224.1264 H   0  0  0  0  0  0  0  0  0  0  0  0
  137.2799   78.3904  223.8675 H   0  0  0  0  0  0  0  0  0  0  0  0
  139.0799   76.8525  222.8005 H   0  0  0  0  0  0  0  0  0  0  0  0
  137.5339   77.3292  221.9980 H   0  0  0  0  0  0  0  0  0  0  0  0
  141.1293   77.7388  218.9919 H   0  0  0  0  0  0  0  0  0  0  0  0
  143.5220   77.3820  219.7360 H   0  0  0  0  0  0  0  0  0  0  0  0
  142.5780   76.3860  220.8420 H   0  0  0  0  0  0  0  0  0  0  0  0
  142.8879   79.5373  219.5458 H   0  0  0  0  0  0  0  0  0  0  0  0
  141.0896   79.9554  219.5011 H   0  0  0  0  0  0  0  0  0  0  0  0
  142.8259   78.3758  222.4035 H   0  0  0  0  0  0  0  0  0  0  0  0
  143.0172   79.5350  224.5593 H   0  0  0  0  0  0  0  0  0  0  0  0
  142.2975   81.9046  224.8255 H   0  0  0  0  0  0  0  0  0  0  0  0
  141.3606   83.0619  222.8176 H   0  0  0  0  0  0  0  0  0  0  0  0
  139.1758   79.7933  219.8091 H   0  0  0  0  0  0  0  0  0  0  0  0
  137.5996   79.1031  220.2789 H   0  0  0  0  0  0  0  0  0  0  0  0
  139.4168   80.9730  221.7681 H   0  0  0  0  0  0  0  0  0  0  0  0
  137.5919   81.0617  221.3364 H   0  0  0  0  0  0  0  0  0  0  0  0
  1  2  1  0
  2  3  1  0
  3  4  2  0
  3  5  1  0
  5  6  1  0
  6  7  2  0
  7  8  1  0
  8  9  2  0
  9 10  1  0
 10 11  2  0
  5 12  1  0
 12 13  1  0
 13 14  1  0
 14 15  1  0
 15 16  1  0
 16 17  2  0
 16 18  1  0
 18 19  1  0
 18 20  1  0
 20 21  1  0
 21 22  2  0
 22 23  1  0
 23 24  2  0
 24 25  1  0
 25 26  2  0
 26 27  1  0
 15 28  1  0
 28 29  1  0
 11  6  1  0
 29 12  1  0
 26 21  1  0
  1 30  1  0
  1 31  1  0
  1 32  1  0
  2 33  1  0
  2 34  1  0
  7 35  1  0
  8 36  1  0
  9 37  1  0
 10 38  1  0
 11 39  1  0
 12 40  1  0
 13 41  1  0
 13 42  1  0
 14 43  1  0
 14 44  1  0
 18 45  1  6
 19 46  1  0
 19 47  1  0
 20 48  1  0
 20 49  1  0
 22 50  1  0
 23 51  1  0
 24 52  1  0
 25 53  1  0
 28 54  1  0
 28 55  1  0
 29 56  1  0
 29 57  1  0
M  END
>  <smiles>  (39) 
CCC(=O)N(c1ccccc1)C1CCN(C(=O)[C@H](N)Cc2ccccc2Br)CC1

>  <score_type>  (39) 
oracle

>  <origin>  (39) 
autodockgpu

>  <m_score__min__energy>  (39) 
-8.3100000000000005

>  <m_primary>  (39) 
energy

>  <rmsd>  (39) 
4.422446943234961

>  <m_score__min__rmsd>  (39) 
4.422446943234961

>  <meeko>  (39) 
{"free_energy": -5.87, "intermolecular_energy": -8.25, "internal_energy": -3.4, "cluster_size": 3, "cluster_id": 13, "rank_in_cluster": 2}

>  <energy>  (39) 
-6.4

>  <cluster_rmsd>  (39) 
0.39

>  <cluster>  (39) 
11

$$$$

     RDKit          3D

 57 59  0  0  0  0  0  0  0  0999 V2000
  140.0650   74.9160  218.4480 C   0  0  0  0  0  0  0  0  0  0  0  0
  139.4800   74.5300  219.7590 C   0  0  0  0  0  0  0  0  0  0  0  0
  140.3580   74.7480  220.9360 C   0  0  0  0  0  0  0  0  0  0  0  0
  139.9390   74.3870  222.0680 O   0  0  0  0  0  0  0  0  0  0  0  0
  141.6480   75.3570  220.7650 N   0  0  0  0  0  0  0  0  0  0  0  0
  142.7850   74.5010  220.6690 C   0  0  0  0  0  0  0  0  0  0  0  0
  142.5350   73.1440  220.8200 C   0  0  0  0  0  0  0  0  0  0  0  0
  143.5330   72.1900  220.7530 C   0  0  0  0  0  0  0  0  0  0  0  0
  144.8120   72.6510  220.5240 C   0  0  0  0  0  0  0  0  0  0  0  0
  145.0940   74.0120  220.3680 C   0  0  0  0  0  0  0  0  0  0  0  0
  144.0630   74.9580  220.4400 C   0  0  0  0  0  0  0  0  0  0  0  0
  141.7850   76.8230  220.7290 C   0  0  0  0  0  0  0  0  0  0  0  0
  142.4510   77.3360  219.5270 C   0  0  0  0  0  0  0  0  0  0  0  0
  141.6990   78.2360  218.6180 C   0  0  0  0  0  0  0  0  0  0  0  0
  140.7440   79.0830  219.3830 N   0  0  0  0  0  0  0  0  0  0  0  0
  140.9390   80.4450  219.2820 C   0  0  0  0  0  0  0  0  0  0  0  0
  141.9750   80.7610  218.5340 O   0  0  0  0  0  0  0  0  0  0  0  0
  140.2530   81.6110  219.8210 C   0  0  2  0  0  0  0  0  0  0  0  0
  140.0940   82.6600  218.8810 N   0  0  0  0  0  0  0  0  0  0  0  0
  140.9190   82.0140  221.1240 C   0  0  0  0  0  0  0  0  0  0  0  0
  141.2570   80.9260  222.0320 C   0  0  0  0  0  0  0  0  0  0  0  0
  142.5210   80.3610  222.1550 C   0  0  0  0  0  0  0  0  0  0  0  0
  142.8030   79.3680  223.0850 C   0  0  0  0  0  0  0  0  0  0  0  0
  141.8440   78.8800  223.9450 C   0  0  0  0  0  0  0  0  0  0  0  0
  140.5800   79.4340  223.8310 C   0  0  0  0  0  0  0  0  0  0  0  0
  140.2950   80.4310  222.8980 C   0  0  0  0  0  0  0  0  0  0  0  0
  138.4610   80.9890  222.8330 Br  0  0  0  0  0  0  0  0  0  0  0  0
  139.7870   78.3140  220.1290 C   0  0  0  0  0  0  0  0  0  0  0  0
  140.5350   77.5010  221.1260 C   0  0  0  0  0  0  0  0  0  0  0  0
  140.9727   75.5149  218.6136 H   0  0  0  0  0  0  0  0  0  0  0  0
  140.3222   74.0097  217.8802 H   0  0  0  0  0  0  0  0  0  0  0  0
  139.3330   75.5090  217.8802 H   0  0  0  0  0  0  0  0  0  0  0  0
  138.5616   75.1171  219.9071 H   0  0  0  0  0  0  0  0  0  0  0  0
  139.3068   73.4450  219.7064 H   0  0  0  0  0  0  0  0  0  0  0  0
  141.5011   72.8146  221.0002 H   0  0  0  0  0  0  0  0  0  0  0  0
  143.3179   71.1183  220.8761 H   0  0  0  0  0  0  0  0  0  0  0  0
  145.6366   71.9256  220.4620 H   0  0  0  0  0  0  0  0  0  0  0  0
  146.1282   74.3407  220.1882 H   0  0  0  0  0  0  0  0  0  0  0  0
  144.2684   76.0317  220.3174 H   0  0  0  0  0  0  0  0  0  0  0  0
  142.5070   77.1001  221.5112 H   0  0  0  0  0  0  0  0  0  0  0  0
  143.3419   77.8872  219.8622 H   0  0  0  0  0  0  0  0  0  0  0  0
  142.6301   76.4365  218.9197 H   0  0  0  0  0  0  0  0  0  0  0  0
  142.4091   78.8850  218.0846 H   0  0  0  0  0  0  0  0  0  0  0  0
  141.1310   77.6213  217.9042 H   0  0  0  0  0  0  0  0  0  0  0  0
  139.2108   81.3433  220.0494 H   0  0  0  0  0  0  0  0  0  0  0  0
  139.7250   83.5450  219.2240 H   0  0  0  0  0  0  0  0  0  0  0  0
  140.7260   82.6440  218.0860 H   0  0  0  0  0  0  0  0  0  0  0  0
  141.8490   82.5464  220.8759 H   0  0  0  0  0  0  0  0  0  0  0  0
  140.1781   82.6268  221.6584 H   0  0  0  0  0  0  0  0  0  0  0  0
  143.3262   80.7123  221.4929 H   0  0  0  0  0  0  0  0  0  0  0  0
  143.8229   78.9592  223.1361 H   0  0  0  0  0  0  0  0  0  0  0  0
  142.0696   78.0943  224.6811 H   0  0  0  0  0  0  0  0  0  0  0  0
  139.7783   79.0779  224.4947 H   0  0  0  0  0  0  0  0  0  0  0  0
  139.0865   78.9871  220.6449 H   0  0  0  0  0  0  0  0  0  0  0  0
  139.2099   77.6621  219.4567 H   0  0  0  0  0  0  0  0  0  0  0  0
  140.7876   78.1725  221.9598 H   0  0  0  0  0  0  0  0  0  0  0  0
  139.8499   76.6679  221.3420 H   0  0  0  0  0  0  0  0  0  0  0  0
  1  2  1  0
  2  3  1  0
  3  4  2  0
  3  5  1  0
  5  6  1  0
  6  7  2  0
  7  8  1  0
  8  9  2  0
  9 10  1  0
 10 11  2  0
  5 12  1  0
 12 13  1  0
 13 14  1  0
 14 15  1  0
 15 16  1  0
 16 17  2  0
 16 18  1  0
 18 19  1  0
 18 20  1  0
 20 21  1  0
 21 22  2  0
 22 23  1  0
 23 24  2  0
 24 25  1  0
 25 26  2  0
 26 27  1  0
 15 28  1  0
 28 29  1  0
 11  6  1  0
 29 12  1  0
 26 21  1  0
  1 30  1  0
  1 31  1  0
  1 32  1  0
  2 33  1  0
  2 34  1  0
  7 35  1  0
  8 36  1  0
  9 37  1  0
 10 38  1  0
 11 39  1  0
 12 40  1  0
 13 41  1  0
 13 42  1  0
 14 43  1  0
 14 44  1  0
 18 45  1  1
 19 46  1  0
 19 47  1  0
 20 48  1  0
 20 49  1  0
 22 50  1  0
 23 51  1  0
 24 52  1  0
 25 53  1  0
 28 54  1  0
 28 55  1  0
 29 56  1  0
 29 57  1  0
M  END
>  <smiles>  (40) 
CCC(=O)N(c1ccccc1)C1CCN(C(=O)[C@H](N)Cc2ccccc2Br)CC1

>  <score_type>  (40) 
oracle

>  <origin>  (40) 
autodockgpu

>  <m_score__min__energy>  (40) 
-8.3100000000000005

>  <m_primary>  (40) 
energy

>  <rmsd>  (40) 
5.565182308277701

>  <m_score__min__rmsd>  (40) 
5.565182308277701

>  <meeko>  (40) 
{"free_energy": -6.21, "intermolecular_energy": -8.6, "internal_energy": -3.22, "cluster_size": 9, "cluster_id": 11, "rank_in_cluster": 7}

>  <energy>  (40) 
-6.32

>  <cluster_rmsd>  (40) 
1.39

>  <cluster>  (40) 
11

$$$$

     RDKit          3D

 57 59  0  0  0  0  0  0  0  0999 V2000
  136.4910   69.6390  224.9430 C   0  0  0  0  0  0  0  0  0  0  0  0
  137.4610   69.1780  223.9160 C   0  0  0  0  0  0  0  0  0  0  0  0
  138.8500   68.9740  224.4000 C   0  0  0  0  0  0  0  0  0  0  0  0
  139.1930   67.8160  224.7610 O   0  0  0  0  0  0  0  0  0  0  0  0
  139.7620   70.0840  224.4480 N   0  0  0  0  0  0  0  0  0  0  0  0
  140.1790   70.5510  225.7300 C   0  0  0  0  0  0  0  0  0  0  0  0
  139.6300   69.8940  226.8220 C   0  0  0  0  0  0  0  0  0  0  0  0
  139.9350   70.2320  228.1270 C   0  0  0  0  0  0  0  0  0  0  0  0
  140.8270   71.2700  228.3020 C   0  0  0  0  0  0  0  0  0  0  0  0
  141.3960   71.9500  227.2210 C   0  0  0  0  0  0  0  0  0  0  0  0
  141.0690   71.5870  225.9080 C   0  0  0  0  0  0  0  0  0  0  0  0
  140.2160   70.7340  223.2080 C   0  0  0  0  0  0  0  0  0  0  0  0
  139.9330   69.9690  221.9890 C   0  0  0  0  0  0  0  0  0  0  0  0
  139.0370   70.5560  220.9630 C   0  0  0  0  0  0  0  0  0  0  0  0
  139.1830   72.0370  220.9190 N   0  0  0  0  0  0  0  0  0  0  0  0
  139.6010   72.5610  219.7130 C   0  0  0  0  0  0  0  0  0  0  0  0
  139.8290   71.6370  218.8040 O   0  0  0  0  0  0  0  0  0  0  0  0
  139.8470   73.9110  219.2240 C   0  0  2  0  0  0  0  0  0  0  0  0
  140.2950   73.9540  217.8810 N   0  0  0  0  0  0  0  0  0  0  0  0
  140.7330   74.6400  220.2190 C   0  0  0  0  0  0  0  0  0  0  0  0
  142.0970   74.1430  220.3430 C   0  0  0  0  0  0  0  0  0  0  0  0
  142.4410   72.8860  220.8250 C   0  0  0  0  0  0  0  0  0  0  0  0
  143.7570   72.4390  220.8610 C   0  0  0  0  0  0  0  0  0  0  0  0
  144.8040   73.2180  220.4190 C   0  0  0  0  0  0  0  0  0  0  0  0
  144.4730   74.4740  219.9390 C   0  0  0  0  0  0  0  0  0  0  0  0
  143.1530   74.9240  219.9030 C   0  0  0  0  0  0  0  0  0  0  0  0
  142.9220   76.7290  219.2970 Br  0  0  0  0  0  0  0  0  0  0  0  0
  138.8840   72.6660  222.1750 C   0  0  0  0  0  0  0  0  0  0  0  0
  139.8640   72.1670  223.1780 C   0  0  0  0  0  0  0  0  0  0  0  0
  136.8990   69.4451  225.9459 H   0  0  0  0  0  0  0  0  0  0  0  0
  136.3135   70.7178  224.8216 H   0  0  0  0  0  0  0  0  0  0  0  0
  135.5424   69.0954  224.8216 H   0  0  0  0  0  0  0  0  0  0  0  0
  137.0984   68.2216  223.5114 H   0  0  0  0  0  0  0  0  0  0  0  0
  137.5153   69.9818  223.1670 H   0  0  0  0  0  0  0  0  0  0  0  0
  138.9233   69.0706  226.6417 H   0  0  0  0  0  0  0  0  0  0  0  0
  139.4898   69.7012  228.9815 H   0  0  0  0  0  0  0  0  0  0  0  0
  141.0990   71.5720  229.3242 H   0  0  0  0  0  0  0  0  0  0  0  0
  142.1030   72.7730  227.4021 H   0  0  0  0  0  0  0  0  0  0  0  0
  141.5087   72.1122  225.0473 H   0  0  0  0  0  0  0  0  0  0  0  0
  141.3159   70.7225  223.2213 H   0  0  0  0  0  0  0  0  0  0  0  0
  140.8986   69.7735  221.4998 H   0  0  0  0  0  0  0  0  0  0  0  0
  139.3788   69.0907  222.3516 H   0  0  0  0  0  0  0  0  0  0  0  0
  139.2942   70.1388  219.9782 H   0  0  0  0  0  0  0  0  0  0  0  0
  137.9963   70.3117  221.2222 H   0  0  0  0  0  0  0  0  0  0  0  0
  138.8924   74.4548  219.1683 H   0  0  0  0  0  0  0  0  0  0  0  0
  140.6430   73.0890  217.4740 H   0  0  0  0  0  0  0  0  0  0  0  0
  139.8620   74.6580  217.2900 H   0  0  0  0  0  0  0  0  0  0  0  0
  140.7858   75.6952  219.9127 H   0  0  0  0  0  0  0  0  0  0  0  0
  140.2683   74.4798  221.2030 H   0  0  0  0  0  0  0  0  0  0  0  0
  141.6444   72.2214  221.1908 H   0  0  0  0  0  0  0  0  0  0  0  0
  143.9686   71.4336  221.2540 H   0  0  0  0  0  0  0  0  0  0  0  0
  145.8445   72.8621  220.4459 H   0  0  0  0  0  0  0  0  0  0  0  0
  145.2734   75.1355  219.5759 H   0  0  0  0  0  0  0  0  0  0  0  0
  138.9720   73.7581  222.0770 H   0  0  0  0  0  0  0  0  0  0  0  0
  137.8571   72.4278  222.4894 H   0  0  0  0  0  0  0  0  0  0  0  0
  140.7995   72.7216  223.0129 H   0  0  0  0  0  0  0  0  0  0  0  0
  139.3499   72.3240  224.1377 H   0  0  0  0  0  0  0  0  0  0  0  0
  1  2  1  0
  2  3  1  0
  3  4  2  0
  3  5  1  0
  5  6  1  0
  6  7  2  0
  7  8  1  0
  8  9  2  0
  9 10  1  0
 10 11  2  0
  5 12  1  0
 12 13  1  0
 13 14  1  0
 14 15  1  0
 15 16  1  0
 16 17  2  0
 16 18  1  0
 18 19  1  0
 18 20  1  0
 20 21  1  0
 21 22  2  0
 22 23  1  0
 23 24  2  0
 24 25  1  0
 25 26  2  0
 26 27  1  0
 15 28  1  0
 28 29  1  0
 11  6  1  0
 29 12  1  0
 26 21  1  0
  1 30  1  0
  1 31  1  0
  1 32  1  0
  2 33  1  0
  2 34  1  0
  7 35  1  0
  8 36  1  0
  9 37  1  0
 10 38  1  0
 11 39  1  0
 12 40  1  0
 13 41  1  0
 13 42  1  0
 14 43  1  0
 14 44  1  0
 18 45  1  6
 19 46  1  0
 19 47  1  0
 20 48  1  0
 20 49  1  0
 22 50  1  0
 23 51  1  0
 24 52  1  0
 25 53  1  0
 28 54  1  0
 28 55  1  0
 29 56  1  0
 29 57  1  0
M  END
>  <smiles>  (41) 
CCC(=O)N(c1ccccc1)C1CCN(C(=O)[C@H](N)Cc2ccccc2Br)CC1

>  <score_type>  (41) 
oracle

>  <origin>  (41) 
autodockgpu

>  <m_score__min__energy>  (41) 
-8.3100000000000005

>  <m_primary>  (41) 
energy

>  <rmsd>  (41) 
7.265435733341395

>  <m_score__min__rmsd>  (41) 
7.265435733341395

>  <meeko>  (41) 
{"free_energy": -6.5, "intermolecular_energy": -8.89, "internal_energy": -2.7, "cluster_size": 2, "cluster_id": 8, "rank_in_cluster": 2}

>  <energy>  (41) 
-6.32

>  <cluster_rmsd>  (41) 
1.41

>  <cluster>  (41) 
11

$$$$

     RDKit          3D

 57 59  0  0  0  0  0  0  0  0999 V2000
  143.7450   74.5630  217.9820 C   0  0  0  0  0  0  0  0  0  0  0  0
  144.2010   73.2150  217.5530 C   0  0  0  0  0  0  0  0  0  0  0  0
  145.1130   72.5220  218.4970 C   0  0  0  0  0  0  0  0  0  0  0  0
  146.2410   73.0360  218.7240 O   0  0  0  0  0  0  0  0  0  0  0  0
  144.6990   71.2970  219.1250 N   0  0  0  0  0  0  0  0  0  0  0  0
  145.1600   70.0690  218.5620 C   0  0  0  0  0  0  0  0  0  0  0  0
  145.1130   69.9820  217.1780 C   0  0  0  0  0  0  0  0  0  0  0  0
  145.5240   68.8580  216.4870 C   0  0  0  0  0  0  0  0  0  0  0  0
  145.9920   67.8050  217.2450 C   0  0  0  0  0  0  0  0  0  0  0  0
  146.0510   67.8640  218.6410 C   0  0  0  0  0  0  0  0  0  0  0  0
  145.6280   69.0170  219.3170 C   0  0  0  0  0  0  0  0  0  0  0  0
  143.7970   71.3190  220.2880 C   0  0  0  0  0  0  0  0  0  0  0  0
  143.4210   72.6650  220.7320 C   0  0  0  0  0  0  0  0  0  0  0  0
  141.9920   73.0630  220.6890 C   0  0  0  0  0  0  0  0  0  0  0  0
  141.1110   71.8950  220.9600 N   0  0  0  0  0  0  0  0  0  0  0  0
  140.2900   72.0080  222.0630 C   0  0  0  0  0  0  0  0  0  0  0  0
  140.4560   73.1410  222.7130 O   0  0  0  0  0  0  0  0  0  0  0  0
  139.2810   71.1500  222.6690 C   0  0  2  0  0  0  0  0  0  0  0  0
  138.2420   71.8650  223.3160 N   0  0  0  0  0  0  0  0  0  0  0  0
  139.9730   70.1090  223.5290 C   0  0  0  0  0  0  0  0  0  0  0  0
  140.3370   70.5320  224.8760 C   0  0  0  0  0  0  0  0  0  0  0  0
  140.8280   71.7900  225.2040 C   0  0  0  0  0  0  0  0  0  0  0  0
  141.0980   72.1610  226.5170 C   0  0  0  0  0  0  0  0  0  0  0  0
  140.8950   71.3020  227.5740 C   0  0  0  0  0  0  0  0  0  0  0  0
  140.4080   70.0450  227.2580 C   0  0  0  0  0  0  0  0  0  0  0  0
  140.1370   69.6710  225.9420 C   0  0  0  0  0  0  0  0  0  0  0  0
  139.5670   67.8540  225.7110 Br  0  0  0  0  0  0  0  0  0  0  0  0
  141.2960   70.8250  220.0200 C   0  0  0  0  0  0  0  0  0  0  0  0
  142.6980   70.3440  220.1500 C   0  0  0  0  0  0  0  0  0  0  0  0
  143.7284   74.6120  219.0808 H   0  0  0  0  0  0  0  0  0  0  0  0
  144.4353   75.3251  217.5914 H   0  0  0  0  0  0  0  0  0  0  0  0
  142.7338   74.7495  217.5914 H   0  0  0  0  0  0  0  0  0  0  0  0
  143.3110   72.5834  217.4153 H   0  0  0  0  0  0  0  0  0  0  0  0
  144.7797   73.3698  216.6304 H   0  0  0  0  0  0  0  0  0  0  0  0
  144.7332   70.8426  216.6077 H   0  0  0  0  0  0  0  0  0  0  0  0
  145.4802   68.8058  215.3891 H   0  0  0  0  0  0  0  0  0  0  0  0
  146.3294   66.8903  216.7356 H   0  0  0  0  0  0  0  0  0  0  0  0
  146.4306   67.0028  219.2105 H   0  0  0  0  0  0  0  0  0  0  0  0
  145.6687   69.0792  220.4145 H   0  0  0  0  0  0  0  0  0  0  0  0
  144.3747   70.9587  221.1520 H   0  0  0  0  0  0  0  0  0  0  0  0
  143.7522   72.7644  221.7762 H   0  0  0  0  0  0  0  0  0  0  0  0
  143.9023   73.3290  219.9989 H   0  0  0  0  0  0  0  0  0  0  0  0
  141.8098   73.8366  221.4495 H   0  0  0  0  0  0  0  0  0  0  0  0
  141.7639   73.4520  219.6857 H   0  0  0  0  0  0  0  0  0  0  0  0
  138.7372   70.6173  221.8750 H   0  0  0  0  0  0  0  0  0  0  0  0
  138.3740   72.8660  223.4480 H   0  0  0  0  0  0  0  0  0  0  0  0
  137.3070   71.4830  223.2130 H   0  0  0  0  0  0  0  0  0  0  0  0
  139.2990   69.2443  223.6184 H   0  0  0  0  0  0  0  0  0  0  0  0
  140.9232   69.8885  223.0206 H   0  0  0  0  0  0  0  0  0  0  0  0
  141.0092   72.5166  224.3983 H   0  0  0  0  0  0  0  0  0  0  0  0
  141.4853   73.1709  226.7171 H   0  0  0  0  0  0  0  0  0  0  0  0
  141.1079   71.5981  228.6118 H   0  0  0  0  0  0  0  0  0  0  0  0
  140.2299   69.3214  228.0671 H   0  0  0  0  0  0  0  0  0  0  0  0
  140.5969   70.0056  220.2431 H   0  0  0  0  0  0  0  0  0  0  0  0
  141.1031   71.1755  218.9954 H   0  0  0  0  0  0  0  0  0  0  0  0
  142.7320   69.6975  221.0393 H   0  0  0  0  0  0  0  0  0  0  0  0
  142.8970   69.8708  219.1771 H   0  0  0  0  0  0  0  0  0  0  0  0
  1  2  1  0
  2  3  1  0
  3  4  2  0
  3  5  1  0
  5  6  1  0
  6  7  2  0
  7  8  1  0
  8  9  2  0
  9 10  1  0
 10 11  2  0
  5 12  1  0
 12 13  1  0
 13 14  1  0
 14 15  1  0
 15 16  1  0
 16 17  2  0
 16 18  1  0
 18 19  1  0
 18 20  1  0
 20 21  1  0
 21 22  2  0
 22 23  1  0
 23 24  2  0
 24 25  1  0
 25 26  2  0
 26 27  1  0
 15 28  1  0
 28 29  1  0
 11  6  1  0
 29 12  1  0
 26 21  1  0
  1 30  1  0
  1 31  1  0
  1 32  1  0
  2 33  1  0
  2 34  1  0
  7 35  1  0
  8 36  1  0
  9 37  1  0
 10 38  1  0
 11 39  1  0
 12 40  1  0
 13 41  1  0
 13 42  1  0
 14 43  1  0
 14 44  1  0
 18 45  1  6
 19 46  1  0
 19 47  1  0
 20 48  1  0
 20 49  1  0
 22 50  1  0
 23 51  1  0
 24 52  1  0
 25 53  1  0
 28 54  1  0
 28 55  1  0
 29 56  1  0
 29 57  1  0
M  END
>  <smiles>  (42) 
CCC(=O)N(c1ccccc1)C1CCN(C(=O)[C@H](N)Cc2ccccc2Br)CC1

>  <score_type>  (42) 
oracle

>  <origin>  (42) 
autodockgpu

>  <m_score__min__energy>  (42) 
-8.3100000000000005

>  <m_primary>  (42) 
energy

>  <rmsd>  (42) 
8.670570870955409

>  <m_score__min__rmsd>  (42) 
8.670570870955409

>  <meeko>  (42) 
{"free_energy": -7.47, "intermolecular_energy": -9.86, "internal_energy": -2.35, "cluster_size": 7, "cluster_id": 2, "rank_in_cluster": 3}

>  <energy>  (42) 
-6.27

>  <cluster_rmsd>  (42) 
1.39

>  <cluster>  (42) 
11

$$$$

     RDKit          3D

 57 59  0  0  0  0  0  0  0  0999 V2000
  136.3310   71.4180  223.8200 C   0  0  0  0  0  0  0  0  0  0  0  0
  136.8750   71.9010  222.5240 C   0  0  0  0  0  0  0  0  0  0  0  0
  138.2080   71.3610  222.1540 C   0  0  0  0  0  0  0  0  0  0  0  0
  138.2900   70.6110  221.1450 O   0  0  0  0  0  0  0  0  0  0  0  0
  139.3620   71.6980  222.9430 N   0  0  0  0  0  0  0  0  0  0  0  0
  139.6480   70.8940  224.0860 C   0  0  0  0  0  0  0  0  0  0  0  0
  140.3980   71.5040  225.0820 C   0  0  0  0  0  0  0  0  0  0  0  0
  140.7550   70.8560  226.2490 C   0  0  0  0  0  0  0  0  0  0  0  0
  140.3280   69.5520  226.3850 C   0  0  0  0  0  0  0  0  0  0  0  0
  139.5710   68.9120  225.3980 C   0  0  0  0  0  0  0  0  0  0  0  0
  139.2220   69.5930  224.2250 C   0  0  0  0  0  0  0  0  0  0  0  0
  140.1930   72.8630  222.5940 C   0  0  0  0  0  0  0  0  0  0  0  0
  141.4580   72.5230  221.9340 C   0  0  0  0  0  0  0  0  0  0  0  0
  141.7010   73.0060  220.5530 C   0  0  0  0  0  0  0  0  0  0  0  0
  141.0590   74.3310  220.3370 N   0  0  0  0  0  0  0  0  0  0  0  0
  141.9130   75.3620  220.0010 C   0  0  0  0  0  0  0  0  0  0  0  0
  143.1750   74.9910  219.9590 O   0  0  0  0  0  0  0  0  0  0  0  0
  141.7260   76.7720  219.6840 C   0  0  2  0  0  0  0  0  0  0  0  0
  142.9350   77.5110  219.6520 N   0  0  0  0  0  0  0  0  0  0  0  0
  140.6510   77.3410  220.5930 C   0  0  0  0  0  0  0  0  0  0  0  0
  141.1170   78.2050  221.6700 C   0  0  0  0  0  0  0  0  0  0  0  0
  141.3110   77.7960  222.9840 C   0  0  0  0  0  0  0  0  0  0  0  0
  141.8200   78.6470  223.9590 C   0  0  0  0  0  0  0  0  0  0  0  0
  142.1650   79.9510  223.6800 C   0  0  0  0  0  0  0  0  0  0  0  0
  141.9740   80.3700  222.3740 C   0  0  0  0  0  0  0  0  0  0  0  0
  141.4630   79.5170  221.3960 C   0  0  0  0  0  0  0  0  0  0  0  0
  141.1810   80.3230  219.6770 Br  0  0  0  0  0  0  0  0  0  0  0  0
  139.6390   74.3060  220.5480 C   0  0  0  0  0  0  0  0  0  0  0  0
  139.3970   73.9380  221.9700 C   0  0  0  0  0  0  0  0  0  0  0  0
  136.8731   71.8993  224.6474 H   0  0  0  0  0  0  0  0  0  0  0  0
  135.2623   71.6702  223.8859 H   0  0  0  0  0  0  0  0  0  0  0  0
  136.4550   70.3270  223.8859 H   0  0  0  0  0  0  0  0  0  0  0  0
  136.1640   71.6227  221.7322 H   0  0  0  0  0  0  0  0  0  0  0  0
  137.0075   72.9873  222.6358 H   0  0  0  0  0  0  0  0  0  0  0  0
  140.7212   72.5453  224.9364 H   0  0  0  0  0  0  0  0  0  0  0  0
  141.3491   71.3546  227.0291 H   0  0  0  0  0  0  0  0  0  0  0  0
  140.5908   68.9977  227.2981 H   0  0  0  0  0  0  0  0  0  0  0  0
  139.2488   67.8704  225.5436 H   0  0  0  0  0  0  0  0  0  0  0  0
  138.6266   69.1036  223.4402 H   0  0  0  0  0  0  0  0  0  0  0  0
  140.5508   73.3001  223.5379 H   0  0  0  0  0  0  0  0  0  0  0  0
  142.2672   72.9232  222.5625 H   0  0  0  0  0  0  0  0  0  0  0  0
  141.4140   71.4291  221.8270 H   0  0  0  0  0  0  0  0  0  0  0  0
  142.7847   73.0991  220.3887 H   0  0  0  0  0  0  0  0  0  0  0  0
  141.2676   72.2841  219.8452 H   0  0  0  0  0  0  0  0  0  0  0  0
  141.3690   76.8653  218.6477 H   0  0  0  0  0  0  0  0  0  0  0  0
  142.8650   78.5190  219.5340 H   0  0  0  0  0  0  0  0  0  0  0  0
  143.7150   77.1090  220.1630 H   0  0  0  0  0  0  0  0  0  0  0  0
  139.9573   77.9244  219.9697 H   0  0  0  0  0  0  0  0  0  0  0  0
  140.1904   76.4729  221.0873 H   0  0  0  0  0  0  0  0  0  0  0  0
  141.0530   76.7635  223.2624 H   0  0  0  0  0  0  0  0  0  0  0  0
  141.9510   78.2676  224.9832 H   0  0  0  0  0  0  0  0  0  0  0  0
  142.5697   80.6223  224.4517 H   0  0  0  0  0  0  0  0  0  0  0  0
  142.2323   81.4037  222.1005 H   0  0  0  0  0  0  0  0  0  0  0  0
  139.2123   75.2984  220.3404 H   0  0  0  0  0  0  0  0  0  0  0  0
  139.1633   73.5766  219.8759 H   0  0  0  0  0  0  0  0  0  0  0  0
  139.5645   74.8464  222.5673 H   0  0  0  0  0  0  0  0  0  0  0  0
  138.3770   73.5264  221.9574 H   0  0  0  0  0  0  0  0  0  0  0  0
  1  2  1  0
  2  3  1  0
  3  4  2  0
  3  5  1  0
  5  6  1  0
  6  7  2  0
  7  8  1  0
  8  9  2  0
  9 10  1  0
 10 11  2  0
  5 12  1  0
 12 13  1  0
 13 14  1  0
 14 15  1  0
 15 16  1  0
 16 17  2  0
 16 18  1  0
 18 19  1  0
 18 20  1  0
 20 21  1  0
 21 22  2  0
 22 23  1  0
 23 24  2  0
 24 25  1  0
 25 26  2  0
 26 27  1  0
 15 28  1  0
 28 29  1  0
 11  6  1  0
 29 12  1  0
 26 21  1  0
  1 30  1  0
  1 31  1  0
  1 32  1  0
  2 33  1  0
  2 34  1  0
  7 35  1  0
  8 36  1  0
  9 37  1  0
 10 38  1  0
 11 39  1  0
 12 40  1  0
 13 41  1  0
 13 42  1  0
 14 43  1  0
 14 44  1  0
 18 45  1  6
 19 46  1  0
 19 47  1  0
 20 48  1  0
 20 49  1  0
 22 50  1  0
 23 51  1  0
 24 52  1  0
 25 53  1  0
 28 54  1  0
 28 55  1  0
 29 56  1  0
 29 57  1  0
M  END
>  <smiles>  (43) 
CCC(=O)N(c1ccccc1)C1CCN(C(=O)[C@H](N)Cc2ccccc2Br)CC1

>  <score_type>  (43) 
oracle

>  <origin>  (43) 
autodockgpu

>  <m_score__min__energy>  (43) 
-8.3100000000000005

>  <m_primary>  (43) 
energy

>  <rmsd>  (43) 
6.090049942976791

>  <m_score__min__rmsd>  (43) 
6.090049942976791

>  <meeko>  (43) 
{"free_energy": -6.76, "intermolecular_energy": -9.15, "internal_energy": -2.46, "cluster_size": 4, "cluster_id": 7, "rank_in_cluster": 3}

>  <energy>  (43) 
-6.21

>  <cluster_rmsd>  (43) 
1.57

>  <cluster>  (43) 
11

$$$$

     RDKit          3D

 57 59  0  0  0  0  0  0  0  0999 V2000
  139.7250   69.6090  220.9780 C   0  0  0  0  0  0  0  0  0  0  0  0
  138.5340   70.4930  220.8750 C   0  0  0  0  0  0  0  0  0  0  0  0
  138.2460   71.3120  222.0790 C   0  0  0  0  0  0  0  0  0  0  0  0
  137.0490   71.6290  222.3130 O   0  0  0  0  0  0  0  0  0  0  0  0
  139.3200   71.7240  222.9410 N   0  0  0  0  0  0  0  0  0  0  0  0
  139.5270   70.9930  224.1490 C   0  0  0  0  0  0  0  0  0  0  0  0
  140.4760   71.5140  225.0170 C   0  0  0  0  0  0  0  0  0  0  0  0
  140.7870   70.9200  226.2250 C   0  0  0  0  0  0  0  0  0  0  0  0
  140.1010   69.7650  226.5390 C   0  0  0  0  0  0  0  0  0  0  0  0
  139.1400   69.2170  225.6830 C   0  0  0  0  0  0  0  0  0  0  0  0
  138.8440   69.8400  224.4640 C   0  0  0  0  0  0  0  0  0  0  0  0
  140.1520   72.8890  222.5960 C   0  0  0  0  0  0  0  0  0  0  0  0
  141.4370   72.5490  221.9750 C   0  0  0  0  0  0  0  0  0  0  0  0
  141.7130   73.0130  220.5930 C   0  0  0  0  0  0  0  0  0  0  0  0
  141.0670   74.3300  220.3400 N   0  0  0  0  0  0  0  0  0  0  0  0
  141.9220   75.3620  220.0110 C   0  0  0  0  0  0  0  0  0  0  0  0
  143.1870   74.9990  220.0080 O   0  0  0  0  0  0  0  0  0  0  0  0
  141.7330   76.7650  219.6680 C   0  0  2  0  0  0  0  0  0  0  0  0
  142.9410   77.5050  219.6230 N   0  0  0  0  0  0  0  0  0  0  0  0
  140.6570   77.3500  220.5650 C   0  0  0  0  0  0  0  0  0  0  0  0
  141.1230   78.2110  221.6440 C   0  0  0  0  0  0  0  0  0  0  0  0
  141.3050   77.8030  222.9600 C   0  0  0  0  0  0  0  0  0  0  0  0
  141.8150   78.6510  223.9360 C   0  0  0  0  0  0  0  0  0  0  0  0
  142.1710   79.9520  223.6580 C   0  0  0  0  0  0  0  0  0  0  0  0
  141.9920   80.3700  222.3510 C   0  0  0  0  0  0  0  0  0  0  0  0
  141.4810   79.5200  221.3700 C   0  0  0  0  0  0  0  0  0  0  0  0
  141.2160   80.3260  219.6490 Br  0  0  0  0  0  0  0  0  0  0  0  0
  139.6420   74.2970  220.5150 C   0  0  0  0  0  0  0  0  0  0  0  0
  139.3660   73.9490  221.9350 C   0  0  0  0  0  0  0  0  0  0  0  0
  139.9610   69.4338  222.0380 H   0  0  0  0  0  0  0  0  0  0  0  0
  139.5123   68.6484  220.4861 H   0  0  0  0  0  0  0  0  0  0  0  0
  140.5829   70.0908  220.4861 H   0  0  0  0  0  0  0  0  0  0  0  0
  138.6908   71.1772  220.0281 H   0  0  0  0  0  0  0  0  0  0  0  0
  137.6694   69.8250  220.7476 H   0  0  0  0  0  0  0  0  0  0  0  0
  141.0019   72.4371  224.7318 H   0  0  0  0  0  0  0  0  0  0  0  0
  141.5426   71.3460  226.9015 H   0  0  0  0  0  0  0  0  0  0  0  0
  140.3164   69.2594  227.4919 H   0  0  0  0  0  0  0  0  0  0  0  0
  138.6149   68.2935  225.9682 H   0  0  0  0  0  0  0  0  0  0  0  0
  138.0904   69.4216  223.7806 H   0  0  0  0  0  0  0  0  0  0  0  0
  140.4815   73.3419  223.5427 H   0  0  0  0  0  0  0  0  0  0  0  0
  142.2261   72.9653  222.6184 H   0  0  0  0  0  0  0  0  0  0  0  0
  141.4043   71.4533  221.8839 H   0  0  0  0  0  0  0  0  0  0  0  0
  142.7999   73.1119  220.4559 H   0  0  0  0  0  0  0  0  0  0  0  0
  141.3038   72.2772  219.8851 H   0  0  0  0  0  0  0  0  0  0  0  0
  141.3761   76.8378  218.6301 H   0  0  0  0  0  0  0  0  0  0  0  0
  142.8720   78.5070  219.4580 H   0  0  0  0  0  0  0  0  0  0  0  0
  143.7130   77.1300  220.1660 H   0  0  0  0  0  0  0  0  0  0  0  0
  139.9767   77.9402  219.9335 H   0  0  0  0  0  0  0  0  0  0  0  0
  140.1812   76.4891  221.0573 H   0  0  0  0  0  0  0  0  0  0  0  0
  141.0361   76.7734  223.2388 H   0  0  0  0  0  0  0  0  0  0  0  0
  141.9380   78.2716  224.9612 H   0  0  0  0  0  0  0  0  0  0  0  0
  142.5751   80.6215  224.4317 H   0  0  0  0  0  0  0  0  0  0  0  0
  142.2601   81.4013  222.0780 H   0  0  0  0  0  0  0  0  0  0  0  0
  139.2134   75.2827  220.2812 H   0  0  0  0  0  0  0  0  0  0  0  0
  139.1894   73.5536  219.8423 H   0  0  0  0  0  0  0  0  0  0  0  0
  139.5124   74.8675  222.5224 H   0  0  0  0  0  0  0  0  0  0  0  0
  138.3494   73.5302  221.9022 H   0  0  0  0  0  0  0  0  0  0  0  0
  1  2  1  0
  2  3  1  0
  3  4  2  0
  3  5  1  0
  5  6  1  0
  6  7  2  0
  7  8  1  0
  8  9  2  0
  9 10  1  0
 10 11  2  0
  5 12  1  0
 12 13  1  0
 13 14  1  0
 14 15  1  0
 15 16  1  0
 16 17  2  0
 16 18  1  0
 18 19  1  0
 18 20  1  0
 20 21  1  0
 21 22  2  0
 22 23  1  0
 23 24  2  0
 24 25  1  0
 25 26  2  0
 26 27  1  0
 15 28  1  0
 28 29  1  0
 11  6  1  0
 29 12  1  0
 26 21  1  0
  1 30  1  0
  1 31  1  0
  1 32  1  0
  2 33  1  0
  2 34  1  0
  7 35  1  0
  8 36  1  0
  9 37  1  0
 10 38  1  0
 11 39  1  0
 12 40  1  0
 13 41  1  0
 13 42  1  0
 14 43  1  0
 14 44  1  0
 18 45  1  6
 19 46  1  0
 19 47  1  0
 20 48  1  0
 20 49  1  0
 22 50  1  0
 23 51  1  0
 24 52  1  0
 25 53  1  0
 28 54  1  0
 28 55  1  0
 29 56  1  0
 29 57  1  0
M  END
>  <smiles>  (44) 
CCC(=O)N(c1ccccc1)C1CCN(C(=O)[C@H](N)Cc2ccccc2Br)CC1

>  <score_type>  (44) 
oracle

>  <origin>  (44) 
autodockgpu

>  <m_score__min__energy>  (44) 
-8.3100000000000005

>  <m_primary>  (44) 
energy

>  <rmsd>  (44) 
6.080320586662768

>  <m_score__min__rmsd>  (44) 
6.080320586662768

>  <meeko>  (44) 
{"free_energy": -6.66, "intermolecular_energy": -9.05, "internal_energy": -2.54, "cluster_size": 4, "cluster_id": 7, "rank_in_cluster": 4}

>  <energy>  (44) 
-6.21

>  <cluster_rmsd>  (44) 
1.42

>  <cluster>  (44) 
11

$$$$

     RDKit          3D

 57 59  0  0  0  0  0  0  0  0999 V2000
  138.4280   75.2210  219.9190 C   0  0  0  0  0  0  0  0  0  0  0  0
  139.7580   74.5870  219.7250 C   0  0  0  0  0  0  0  0  0  0  0  0
  140.7150   74.7630  220.8470 C   0  0  0  0  0  0  0  0  0  0  0  0
  140.3570   74.3990  222.0000 O   0  0  0  0  0  0  0  0  0  0  0  0
  142.0090   75.3370  220.6020 N   0  0  0  0  0  0  0  0  0  0  0  0
  143.1290   74.4560  220.5290 C   0  0  0  0  0  0  0  0  0  0  0  0
  142.8340   73.1000  220.5440 C   0  0  0  0  0  0  0  0  0  0  0  0
  143.8090   72.1230  220.4790 C   0  0  0  0  0  0  0  0  0  0  0  0
  145.1150   72.5610  220.3970 C   0  0  0  0  0  0  0  0  0  0  0  0
  145.4420   73.9210  220.3790 C   0  0  0  0  0  0  0  0  0  0  0  0
  144.4330   74.8900  220.4460 C   0  0  0  0  0  0  0  0  0  0  0  0
  142.1690   76.7960  220.4710 C   0  0  0  0  0  0  0  0  0  0  0  0
  142.5860   77.2370  219.1360 C   0  0  0  0  0  0  0  0  0  0  0  0
  141.6850   78.1210  218.3570 C   0  0  0  0  0  0  0  0  0  0  0  0
  140.9270   79.0290  219.2590 N   0  0  0  0  0  0  0  0  0  0  0  0
  141.1280   80.3790  219.0570 C   0  0  0  0  0  0  0  0  0  0  0  0
  141.9960   80.6310  218.1000 O   0  0  0  0  0  0  0  0  0  0  0  0
  140.5920   81.5880  219.6690 C   0  0  2  0  0  0  0  0  0  0  0  0
  140.4070   82.6530  218.7520 N   0  0  0  0  0  0  0  0  0  0  0  0
  141.4270   81.9310  220.8890 C   0  0  0  0  0  0  0  0  0  0  0  0
  141.4710   80.9210  221.9380 C   0  0  0  0  0  0  0  0  0  0  0  0
  142.6000   80.1870  222.2830 C   0  0  0  0  0  0  0  0  0  0  0  0
  142.6020   79.2810  223.3380 C   0  0  0  0  0  0  0  0  0  0  0  0
  141.4820   79.0550  224.1070 C   0  0  0  0  0  0  0  0  0  0  0  0
  140.3510   79.7790  223.7710 C   0  0  0  0  0  0  0  0  0  0  0  0
  140.3470   80.6880  222.7130 C   0  0  0  0  0  0  0  0  0  0  0  0
  138.6520   81.5100  222.3500 Br  0  0  0  0  0  0  0  0  0  0  0  0
  140.1250   78.3230  220.2190 C   0  0  0  0  0  0  0  0  0  0  0  0
  141.0430   77.5280  221.0810 C   0  0  0  0  0  0  0  0  0  0  0  0
  138.2221   75.3192  220.9951 H   0  0  0  0  0  0  0  0  0  0  0  0
  138.4252   76.2173  219.4528 H   0  0  0  0  0  0  0  0  0  0  0  0
  137.6523   74.5958  219.4528 H   0  0  0  0  0  0  0  0  0  0  0  0
  139.6019   73.5082  219.5776 H   0  0  0  0  0  0  0  0  0  0  0  0
  140.2107   75.0895  218.8575 H   0  0  0  0  0  0  0  0  0  0  0  0
  141.7806   72.7902  220.6104 H   0  0  0  0  0  0  0  0  0  0  0  0
  143.5573   71.0523  220.4919 H   0  0  0  0  0  0  0  0  0  0  0  0
  145.9241   71.8176  220.3442 H   0  0  0  0  0  0  0  0  0  0  0  0
  146.4954   74.2305  220.3120 H   0  0  0  0  0  0  0  0  0  0  0  0
  144.6745   75.9631  220.4327 H   0  0  0  0  0  0  0  0  0  0  0  0
  143.0414   77.0827  221.0766 H   0  0  0  0  0  0  0  0  0  0  0  0
  143.5387   77.7734  219.2566 H   0  0  0  0  0  0  0  0  0  0  0  0
  142.6165   76.3075  218.5485 H   0  0  0  0  0  0  0  0  0  0  0  0
  142.2854   78.7239  217.6599 H   0  0  0  0  0  0  0  0  0  0  0  0
  140.9692   77.4955  217.8034 H   0  0  0  0  0  0  0  0  0  0  0  0
  139.5648   81.3954  220.0121 H   0  0  0  0  0  0  0  0  0  0  0  0
  140.2080   83.5740  219.1370 H   0  0  0  0  0  0  0  0  0  0  0  0
  140.8910   82.5650  217.8640 H   0  0  0  0  0  0  0  0  0  0  0  0
  142.4584   82.1104  220.5512 H   0  0  0  0  0  0  0  0  0  0  0  0
  140.9425   82.8083  221.3425 H   0  0  0  0  0  0  0  0  0  0  0  0
  143.5232   80.3276  221.7017 H   0  0  0  0  0  0  0  0  0  0  0  0
  143.5256   78.7284  223.5651 H   0  0  0  0  0  0  0  0  0  0  0  0
  141.4860   78.3389  224.9419 H   0  0  0  0  0  0  0  0  0  0  0  0
  139.4299   79.6334  224.3545 H   0  0  0  0  0  0  0  0  0  0  0  0
  139.5603   79.0391  220.8341 H   0  0  0  0  0  0  0  0  0  0  0  0
  139.4076   77.6628  219.7096 H   0  0  0  0  0  0  0  0  0  0  0  0
  141.4755   78.2250  221.8139 H   0  0  0  0  0  0  0  0  0  0  0  0
  140.3980   76.7265  221.4704 H   0  0  0  0  0  0  0  0  0  0  0  0
  1  2  1  0
  2  3  1  0
  3  4  2  0
  3  5  1  0
  5  6  1  0
  6  7  2  0
  7  8  1  0
  8  9  2  0
  9 10  1  0
 10 11  2  0
  5 12  1  0
 12 13  1  0
 13 14  1  0
 14 15  1  0
 15 16  1  0
 16 17  2  0
 16 18  1  0
 18 19  1  0
 18 20  1  0
 20 21  1  0
 21 22  2  0
 22 23  1  0
 23 24  2  0
 24 25  1  0
 25 26  2  0
 26 27  1  0
 15 28  1  0
 28 29  1  0
 11  6  1  0
 29 12  1  0
 26 21  1  0
  1 30  1  0
  1 31  1  0
  1 32  1  0
  2 33  1  0
  2 34  1  0
  7 35  1  0
  8 36  1  0
  9 37  1  0
 10 38  1  0
 11 39  1  0
 12 40  1  0
 13 41  1  0
 13 42  1  0
 14 43  1  0
 14 44  1  0
 18 45  1  1
 19 46  1  0
 19 47  1  0
 20 48  1  0
 20 49  1  0
 22 50  1  0
 23 51  1  0
 24 52  1  0
 25 53  1  0
 28 54  1  0
 28 55  1  0
 29 56  1  0
 29 57  1  0
M  END
>  <smiles>  (45) 
CCC(=O)N(c1ccccc1)C1CCN(C(=O)[C@H](N)Cc2ccccc2Br)CC1

>  <score_type>  (45) 
oracle

>  <origin>  (45) 
autodockgpu

>  <m_score__min__energy>  (45) 
-8.3100000000000005

>  <m_primary>  (45) 
energy

>  <rmsd>  (45) 
5.549961011568364

>  <m_score__min__rmsd>  (45) 
5.549961011568364

>  <meeko>  (45) 
{"free_energy": -6.32, "intermolecular_energy": -8.71, "internal_energy": -3.1, "cluster_size": 9, "cluster_id": 11, "rank_in_cluster": 3}

>  <energy>  (45) 
-5.94

>  <cluster_rmsd>  (45) 
1.48

>  <cluster>  (45) 
11

$$$$

     RDKit          3D

 57 59  0  0  0  0  0  0  0  0999 V2000
  143.5870   75.3370  219.7370 C   0  0  0  0  0  0  0  0  0  0  0  0
  143.1660   76.7580  219.6320 C   0  0  0  0  0  0  0  0  0  0  0  0
  141.7240   77.0140  219.8800 C   0  0  0  0  0  0  0  0  0  0  0  0
  140.9310   76.9620  218.9020 O   0  0  0  0  0  0  0  0  0  0  0  0
  141.2670   77.3120  221.2100 N   0  0  0  0  0  0  0  0  0  0  0  0
  141.6180   78.5770  221.7700 C   0  0  0  0  0  0  0  0  0  0  0  0
  141.7640   78.6080  223.1500 C   0  0  0  0  0  0  0  0  0  0  0  0
  142.1010   79.7580  223.8380 C   0  0  0  0  0  0  0  0  0  0  0  0
  142.2910   80.8960  223.0820 C   0  0  0  0  0  0  0  0  0  0  0  0
  142.1520   80.8940  221.6900 C   0  0  0  0  0  0  0  0  0  0  0  0
  141.8090   79.7140  221.0170 C   0  0  0  0  0  0  0  0  0  0  0  0
  140.4940   76.3200  221.9760 C   0  0  0  0  0  0  0  0  0  0  0  0
  139.0410   76.5000  221.8980 C   0  0  0  0  0  0  0  0  0  0  0  0
  138.2140   75.4230  221.2990 C   0  0  0  0  0  0  0  0  0  0  0  0
  138.8050   74.0870  221.5790 N   0  0  0  0  0  0  0  0  0  0  0  0
  138.0050   73.2170  222.2920 C   0  0  0  0  0  0  0  0  0  0  0  0
  136.8470   73.7440  222.6300 O   0  0  0  0  0  0  0  0  0  0  0  0
  138.1590   71.8440  222.7530 C   0  0  2  0  0  0  0  0  0  0  0  0
  137.3330   71.5220  223.8590 N   0  0  0  0  0  0  0  0  0  0  0  0
  139.6360   71.5550  222.9510 C   0  0  0  0  0  0  0  0  0  0  0  0
  140.0260   71.1050  224.2810 C   0  0  0  0  0  0  0  0  0  0  0  0
  140.7040   71.8830  225.2120 C   0  0  0  0  0  0  0  0  0  0  0  0
  140.9950   71.4240  226.4920 C   0  0  0  0  0  0  0  0  0  0  0  0
  140.6270   70.1650  226.9160 C   0  0  0  0  0  0  0  0  0  0  0  0
  139.9530   69.3810  225.9950 C   0  0  0  0  0  0  0  0  0  0  0  0
  139.6620   69.8400  224.7110 C   0  0  0  0  0  0  0  0  0  0  0  0
  138.8130   68.5610  223.5600 Br  0  0  0  0  0  0  0  0  0  0  0  0
  140.1410   73.9470  221.0710 C   0  0  0  0  0  0  0  0  0  0  0  0
  140.9970   74.9490  221.7640 C   0  0  0  0  0  0  0  0  0  0  0  0
  143.6701   75.0566  220.7974 H   0  0  0  0  0  0  0  0  0  0  0  0
  142.8402   74.6960  219.2457 H   0  0  0  0  0  0  0  0  0  0  0  0
  144.5625   75.2063  219.2457 H   0  0  0  0  0  0  0  0  0  0  0  0
  143.7450   77.3388  220.3651 H   0  0  0  0  0  0  0  0  0  0  0  0
  143.3518   77.0535  218.5888 H   0  0  0  0  0  0  0  0  0  0  0  0
  141.6051   77.6799  223.7187 H   0  0  0  0  0  0  0  0  0  0  0  0
  142.2120   79.7656  224.9324 H   0  0  0  0  0  0  0  0  0  0  0  0
  142.5602   81.8341  223.5894 H   0  0  0  0  0  0  0  0  0  0  0  0
  142.3125   81.8221  221.1218 H   0  0  0  0  0  0  0  0  0  0  0  0
  141.6960   79.6964  219.9230 H   0  0  0  0  0  0  0  0  0  0  0  0
  140.6801   76.5172  223.0420 H   0  0  0  0  0  0  0  0  0  0  0  0
  138.6791   76.6505  222.9258 H   0  0  0  0  0  0  0  0  0  0  0  0
  138.9166   77.3449  221.2047 H   0  0  0  0  0  0  0  0  0  0  0  0
  137.2011   75.4661  221.7258 H   0  0  0  0  0  0  0  0  0  0  0  0
  138.1765   75.5712  220.2097 H   0  0  0  0  0  0  0  0  0  0  0  0
  137.7875   71.1584  221.9772 H   0  0  0  0  0  0  0  0  0  0  0  0
  137.5150   70.6440  224.3410 H   0  0  0  0  0  0  0  0  0  0  0  0
  136.9410   72.3090  224.3660 H   0  0  0  0  0  0  0  0  0  0  0  0
  139.9253   70.7735  222.2330 H   0  0  0  0  0  0  0  0  0  0  0  0
  140.1491   72.5163  222.8008 H   0  0  0  0  0  0  0  0  0  0  0  0
  141.0213   72.8968  224.9265 H   0  0  0  0  0  0  0  0  0  0  0  0
  141.5346   72.0848  227.1864 H   0  0  0  0  0  0  0  0  0  0  0  0
  140.8560   69.8034  227.9293 H   0  0  0  0  0  0  0  0  0  0  0  0
  139.6383   68.3675  226.2845 H   0  0  0  0  0  0  0  0  0  0  0  0
  140.5140   72.9321  221.2730 H   0  0  0  0  0  0  0  0  0  0  0  0
  140.1586   74.1120  219.9836 H   0  0  0  0  0  0  0  0  0  0  0  0
  141.2290   74.5374  222.7574 H   0  0  0  0  0  0  0  0  0  0  0  0
  141.8386   75.0900  221.0699 H   0  0  0  0  0  0  0  0  0  0  0  0
  1  2  1  0
  2  3  1  0
  3  4  2  0
  3  5  1  0
  5  6  1  0
  6  7  2  0
  7  8  1  0
  8  9  2  0
  9 10  1  0
 10 11  2  0
  5 12  1  0
 12 13  1  0
 13 14  1  0
 14 15  1  0
 15 16  1  0
 16 17  2  0
 16 18  1  0
 18 19  1  0
 18 20  1  0
 20 21  1  0
 21 22  2  0
 22 23  1  0
 23 24  2  0
 24 25  1  0
 25 26  2  0
 26 27  1  0
 15 28  1  0
 28 29  1  0
 11  6  1  0
 29 12  1  0
 26 21  1  0
  1 30  1  0
  1 31  1  0
  1 32  1  0
  2 33  1  0
  2 34  1  0
  7 35  1  0
  8 36  1  0
  9 37  1  0
 10 38  1  0
 11 39  1  0
 12 40  1  0
 13 41  1  0
 13 42  1  0
 14 43  1  0
 14 44  1  0
 18 45  1  6
 19 46  1  0
 19 47  1  0
 20 48  1  0
 20 49  1  0
 22 50  1  0
 23 51  1  0
 24 52  1  0
 25 53  1  0
 28 54  1  0
 28 55  1  0
 29 56  1  0
 29 57  1  0
M  END
>  <smiles>  (46) 
CCC(=O)N(c1ccccc1)C1CCN(C(=O)[C@H](N)Cc2ccccc2Br)CC1

>  <score_type>  (46) 
oracle

>  <origin>  (46) 
autodockgpu

>  <m_score__min__energy>  (46) 
-8.3100000000000005

>  <m_primary>  (46) 
energy

>  <rmsd>  (46) 
6.661237176467681

>  <m_score__min__rmsd>  (46) 
6.661237176467681

>  <meeko>  (46) 
{"free_energy": -7.27, "intermolecular_energy": -9.66, "internal_energy": -2.27, "cluster_size": 4, "cluster_id": 3, "rank_in_cluster": 2}

>  <energy>  (46) 
-5.83

>  <cluster_rmsd>  (46) 
0.73

>  <cluster>  (46) 
11

$$$$

     RDKit          3D

 57 59  0  0  0  0  0  0  0  0999 V2000
  143.5110   74.3550  217.5960 C   0  0  0  0  0  0  0  0  0  0  0  0
  143.7250   72.9050  217.3490 C   0  0  0  0  0  0  0  0  0  0  0  0
  144.7630   72.2630  218.1940 C   0  0  0  0  0  0  0  0  0  0  0  0
  145.9060   72.7910  218.2400 O   0  0  0  0  0  0  0  0  0  0  0  0
  144.4500   71.0690  218.9300 N   0  0  0  0  0  0  0  0  0  0  0  0
  144.9400   69.8260  218.4290 C   0  0  0  0  0  0  0  0  0  0  0  0
  145.4050   68.9300  219.3810 C   0  0  0  0  0  0  0  0  0  0  0  0
  145.9100   67.6870  219.0520 C   0  0  0  0  0  0  0  0  0  0  0  0
  145.9320   67.3660  217.7100 C   0  0  0  0  0  0  0  0  0  0  0  0
  145.4700   68.2480  216.7290 C   0  0  0  0  0  0  0  0  0  0  0  0
  144.9630   69.5030  217.0910 C   0  0  0  0  0  0  0  0  0  0  0  0
  143.6160   71.1340  220.1420 C   0  0  0  0  0  0  0  0  0  0  0  0
  143.2880   72.4960  220.5740 C   0  0  0  0  0  0  0  0  0  0  0  0
  141.8660   72.9180  220.6030 C   0  0  0  0  0  0  0  0  0  0  0  0
  140.9820   71.7720  220.9520 N   0  0  0  0  0  0  0  0  0  0  0  0
  140.2280   71.9250  222.0970 C   0  0  0  0  0  0  0  0  0  0  0  0
  140.4490   73.0690  222.7080 O   0  0  0  0  0  0  0  0  0  0  0  0
  139.2410   71.0990  222.7800 C   0  0  2  0  0  0  0  0  0  0  0  0
  138.2450   71.8470  223.4550 N   0  0  0  0  0  0  0  0  0  0  0  0
  139.9650   70.0770  223.6370 C   0  0  0  0  0  0  0  0  0  0  0  0
  140.3310   70.5120  224.9790 C   0  0  0  0  0  0  0  0  0  0  0  0
  140.8100   71.7780  225.2970 C   0  0  0  0  0  0  0  0  0  0  0  0
  141.0820   72.1600  226.6050 C   0  0  0  0  0  0  0  0  0  0  0  0
  140.8940   71.3060  227.6690 C   0  0  0  0  0  0  0  0  0  0  0  0
  140.4190   70.0420  227.3640 C   0  0  0  0  0  0  0  0  0  0  0  0
  140.1460   69.6560  226.0510 C   0  0  0  0  0  0  0  0  0  0  0  0
  139.5950   67.8310  225.8350 Br  0  0  0  0  0  0  0  0  0  0  0  0
  141.0960   70.6770  220.0290 C   0  0  0  0  0  0  0  0  0  0  0  0
  142.4960   70.1750  220.0900 C   0  0  0  0  0  0  0  0  0  0  0  0
  143.4834   74.5422  218.6796 H   0  0  0  0  0  0  0  0  0  0  0  0
  144.3341   74.9291  217.1456 H   0  0  0  0  0  0  0  0  0  0  0  0
  142.5571   74.6668  217.1456 H   0  0  0  0  0  0  0  0  0  0  0  0
  142.7721   72.3856  217.5283 H   0  0  0  0  0  0  0  0  0  0  0  0
  144.0839   72.8232  216.3124 H   0  0  0  0  0  0  0  0  0  0  0  0
  145.3701   69.2214  220.4411 H   0  0  0  0  0  0  0  0  0  0  0  0
  146.2756   66.9893  219.8198 H   0  0  0  0  0  0  0  0  0  0  0  0
  146.3253   66.3857  217.4028 H   0  0  0  0  0  0  0  0  0  0  0  0
  145.5046   67.9558  215.6691 H   0  0  0  0  0  0  0  0  0  0  0  0
  144.5952   70.2075  216.3305 H   0  0  0  0  0  0  0  0  0  0  0  0
  144.2359   70.7844  220.9807 H   0  0  0  0  0  0  0  0  0  0  0  0
  143.6801   72.6137  221.5950 H   0  0  0  0  0  0  0  0  0  0  0  0
  143.7371   73.1342  219.7988 H   0  0  0  0  0  0  0  0  0  0  0  0
  141.7406   73.7120  221.3539 H   0  0  0  0  0  0  0  0  0  0  0  0
  141.5872   73.2875  219.6051 H   0  0  0  0  0  0  0  0  0  0  0  0
  138.6513   70.5484  222.0323 H   0  0  0  0  0  0  0  0  0  0  0  0
  137.7590   71.3940  224.2260 H   0  0  0  0  0  0  0  0  0  0  0  0
  138.3670   72.8550  223.4510 H   0  0  0  0  0  0  0  0  0  0  0  0
  139.3122   69.1971  223.7349 H   0  0  0  0  0  0  0  0  0  0  0  0
  140.9156   69.8775  223.1207 H   0  0  0  0  0  0  0  0  0  0  0  0
  140.9793   72.5015  224.4859 H   0  0  0  0  0  0  0  0  0  0  0  0
  141.4590   73.1755  226.7965 H   0  0  0  0  0  0  0  0  0  0  0  0
  141.1093   71.6113  228.7036 H   0  0  0  0  0  0  0  0  0  0  0  0
  140.2522   69.3222  228.1789 H   0  0  0  0  0  0  0  0  0  0  0  0
  140.3982   69.8750  220.3117 H   0  0  0  0  0  0  0  0  0  0  0  0
  140.8500   71.0069  219.0089 H   0  0  0  0  0  0  0  0  0  0  0  0
  142.5709   69.5483  220.9909 H   0  0  0  0  0  0  0  0  0  0  0  0
  142.6313   69.6765  219.1188 H   0  0  0  0  0  0  0  0  0  0  0  0
  1  2  1  0
  2  3  1  0
  3  4  2  0
  3  5  1  0
  5  6  1  0
  6  7  2  0
  7  8  1  0
  8  9  2  0
  9 10  1  0
 10 11  2  0
  5 12  1  0
 12 13  1  0
 13 14  1  0
 14 15  1  0
 15 16  1  0
 16 17  2  0
 16 18  1  0
 18 19  1  0
 18 20  1  0
 20 21  1  0
 21 22  2  0
 22 23  1  0
 23 24  2  0
 24 25  1  0
 25 26  2  0
 26 27  1  0
 15 28  1  0
 28 29  1  0
 11  6  1  0
 29 12  1  0
 26 21  1  0
  1 30  1  0
  1 31  1  0
  1 32  1  0
  2 33  1  0
  2 34  1  0
  7 35  1  0
  8 36  1  0
  9 37  1  0
 10 38  1  0
 11 39  1  0
 12 40  1  0
 13 41  1  0
 13 42  1  0
 14 43  1  0
 14 44  1  0
 18 45  1  6
 19 46  1  0
 19 47  1  0
 20 48  1  0
 20 49  1  0
 22 50  1  0
 23 51  1  0
 24 52  1  0
 25 53  1  0
 28 54  1  0
 28 55  1  0
 29 56  1  0
 29 57  1  0
M  END
>  <smiles>  (47) 
CCC(=O)N(c1ccccc1)C1CCN(C(=O)[C@H](N)Cc2ccccc2Br)CC1

>  <score_type>  (47) 
oracle

>  <origin>  (47) 
autodockgpu

>  <m_score__min__energy>  (47) 
-8.3100000000000005

>  <m_primary>  (47) 
energy

>  <rmsd>  (47) 
8.771811577538283

>  <m_score__min__rmsd>  (47) 
8.771811577538283

>  <meeko>  (47) 
{"free_energy": -7.61, "intermolecular_energy": -10.0, "internal_energy": -2.38, "cluster_size": 7, "cluster_id": 2, "rank_in_cluster": 1}

>  <energy>  (47) 
-6.07

>  <cluster_rmsd>  (47) 
0.0

>  <cluster>  (47) 
12

$$$$

     RDKit          3D

 57 59  0  0  0  0  0  0  0  0999 V2000
  146.3200   73.2520  221.8290 C   0  0  0  0  0  0  0  0  0  0  0  0
  146.4710   73.7790  220.4480 C   0  0  0  0  0  0  0  0  0  0  0  0
  145.5400   73.2040  219.4440 C   0  0  0  0  0  0  0  0  0  0  0  0
  145.9410   72.2380  218.7410 O   0  0  0  0  0  0  0  0  0  0  0  0
  144.2190   73.7530  219.2940 N   0  0  0  0  0  0  0  0  0  0  0  0
  143.9820   74.6370  218.1990 C   0  0  0  0  0  0  0  0  0  0  0  0
  144.2340   74.1170  216.9370 C   0  0  0  0  0  0  0  0  0  0  0  0
  144.0520   74.8500  215.7800 C   0  0  0  0  0  0  0  0  0  0  0  0
  143.6010   76.1440  215.9340 C   0  0  0  0  0  0  0  0  0  0  0  0
  143.3380   76.6940  217.1930 C   0  0  0  0  0  0  0  0  0  0  0  0
  143.5310   75.9280  218.3510 C   0  0  0  0  0  0  0  0  0  0  0  0
  143.1620   73.4350  220.2690 C   0  0  0  0  0  0  0  0  0  0  0  0
  142.5180   74.6110  220.8620 C   0  0  0  0  0  0  0  0  0  0  0  0
  141.0670   74.8250  220.6390 C   0  0  0  0  0  0  0  0  0  0  0  0
  140.3490   73.5250  220.5490 N   0  0  0  0  0  0  0  0  0  0  0  0
  139.3660   73.3170  221.4950 C   0  0  0  0  0  0  0  0  0  0  0  0
  139.2540   74.3150  222.3460 O   0  0  0  0  0  0  0  0  0  0  0  0
  138.4260   72.2370  221.7600 C   0  0  2  0  0  0  0  0  0  0  0  0
  137.4070   72.5860  222.6810 N   0  0  0  0  0  0  0  0  0  0  0  0
  139.2050   70.9830  222.1130 C   0  0  0  0  0  0  0  0  0  0  0  0
  139.6490   70.8750  223.4970 C   0  0  0  0  0  0  0  0  0  0  0  0
  140.7070   71.5890  224.0470 C   0  0  0  0  0  0  0  0  0  0  0  0
  141.0460   71.4940  225.3920 C   0  0  0  0  0  0  0  0  0  0  0  0
  140.3520   70.6850  226.2640 C   0  0  0  0  0  0  0  0  0  0  0  0
  139.2970   69.9670  225.7270 C   0  0  0  0  0  0  0  0  0  0  0  0
  138.9560   70.0600  224.3770 C   0  0  0  0  0  0  0  0  0  0  0  0
  137.5300   68.9070  223.8140 Br  0  0  0  0  0  0  0  0  0  0  0  0
  140.8370   72.6880  219.4880 C   0  0  0  0  0  0  0  0  0  0  0  0
  142.2630   72.3730  219.7770 C   0  0  0  0  0  0  0  0  0  0  0  0
  146.5482   74.0486  222.5524 H   0  0  0  0  0  0  0  0  0  0  0  0
  145.2866   72.9060  221.9785 H   0  0  0  0  0  0  0  0  0  0  0  0
  147.0134   72.4113  221.9785 H   0  0  0  0  0  0  0  0  0  0  0  0
  146.3076   74.8663  220.4794 H   0  0  0  0  0  0  0  0  0  0  0  0
  147.4826   73.4946  220.1228 H   0  0  0  0  0  0  0  0  0  0  0  0
  144.5928   73.0804  216.8547 H   0  0  0  0  0  0  0  0  0  0  0  0
  144.2564   74.4232  214.7870 H   0  0  0  0  0  0  0  0  0  0  0  0
  143.4431   76.7632  215.0387 H   0  0  0  0  0  0  0  0  0  0  0  0
  142.9787   77.7305  217.2745 H   0  0  0  0  0  0  0  0  0  0  0  0
  143.3286   76.3453  219.3484 H   0  0  0  0  0  0  0  0  0  0  0  0
  143.6536   72.9913  221.1474 H   0  0  0  0  0  0  0  0  0  0  0  0
  142.6713   74.5485  221.9495 H   0  0  0  0  0  0  0  0  0  0  0  0
  142.9922   75.4595  220.3470 H   0  0  0  0  0  0  0  0  0  0  0  0
  140.6554   75.4071  221.4767 H   0  0  0  0  0  0  0  0  0  0  0  0
  140.9321   75.3686  219.6923 H   0  0  0  0  0  0  0  0  0  0  0  0
  137.8520   72.0258  220.8457 H   0  0  0  0  0  0  0  0  0  0  0  0
  136.9560   71.8300  223.1920 H   0  0  0  0  0  0  0  0  0  0  0  0
  137.4810   73.5090  223.0980 H   0  0  0  0  0  0  0  0  0  0  0  0
  138.5633   70.1161  221.8968 H   0  0  0  0  0  0  0  0  0  0  0  0
  140.1236   71.0248  221.5093 H   0  0  0  0  0  0  0  0  0  0  0  0
  141.2961   72.2517  223.3961 H   0  0  0  0  0  0  0  0  0  0  0  0
  141.8942   72.0829  225.7711 H   0  0  0  0  0  0  0  0  0  0  0  0
  140.6210   70.6132  227.3282 H   0  0  0  0  0  0  0  0  0  0  0  0
  138.7117   69.3052  226.3823 H   0  0  0  0  0  0  0  0  0  0  0  0
  140.2499   71.7588  219.4441 H   0  0  0  0  0  0  0  0  0  0  0  0
  140.7454   73.2019  218.5198 H   0  0  0  0  0  0  0  0  0  0  0  0
  142.2661   71.5760  220.5352 H   0  0  0  0  0  0  0  0  0  0  0  0
  142.6760   72.1263  218.7878 H   0  0  0  0  0  0  0  0  0  0  0  0
  1  2  1  0
  2  3  1  0
  3  4  2  0
  3  5  1  0
  5  6  1  0
  6  7  2  0
  7  8  1  0
  8  9  2  0
  9 10  1  0
 10 11  2  0
  5 12  1  0
 12 13  1  0
 13 14  1  0
 14 15  1  0
 15 16  1  0
 16 17  2  0
 16 18  1  0
 18 19  1  0
 18 20  1  0
 20 21  1  0
 21 22  2  0
 22 23  1  0
 23 24  2  0
 24 25  1  0
 25 26  2  0
 26 27  1  0
 15 28  1  0
 28 29  1  0
 11  6  1  0
 29 12  1  0
 26 21  1  0
  1 30  1  0
  1 31  1  0
  1 32  1  0
  2 33  1  0
  2 34  1  0
  7 35  1  0
  8 36  1  0
  9 37  1  0
 10 38  1  0
 11 39  1  0
 12 40  1  0
 13 41  1  0
 13 42  1  0
 14 43  1  0
 14 44  1  0
 18 45  1  6
 19 46  1  0
 19 47  1  0
 20 48  1  0
 20 49  1  0
 22 50  1  0
 23 51  1  0
 24 52  1  0
 25 53  1  0
 28 54  1  0
 28 55  1  0
 29 56  1  0
 29 57  1  0
M  END
>  <smiles>  (48) 
CCC(=O)N(c1ccccc1)C1CCN(C(=O)[C@H](N)Cc2ccccc2Br)CC1

>  <score_type>  (48) 
oracle

>  <origin>  (48) 
autodockgpu

>  <m_score__min__energy>  (48) 
-8.3100000000000005

>  <m_primary>  (48) 
energy

>  <rmsd>  (48) 
7.191974790726872

>  <m_score__min__rmsd>  (48) 
7.191974790726872

>  <meeko>  (48) 
{"free_energy": -6.81, "intermolecular_energy": -9.2, "internal_energy": -2.63, "cluster_size": 9, "cluster_id": 1, "rank_in_cluster": 8}

>  <energy>  (48) 
-5.93

>  <cluster_rmsd>  (48) 
0.0

>  <cluster>  (48) 
13

$$$$

     RDKit          3D

 57 59  0  0  0  0  0  0  0  0999 V2000
  144.7650   74.1690  216.5350 C   0  0  0  0  0  0  0  0  0  0  0  0
  144.1110   73.4150  217.6370 C   0  0  0  0  0  0  0  0  0  0  0  0
  145.0270   72.6200  218.4930 C   0  0  0  0  0  0  0  0  0  0  0  0
  146.1970   73.0500  218.6760 O   0  0  0  0  0  0  0  0  0  0  0  0
  144.5690   71.3930  219.0870 N   0  0  0  0  0  0  0  0  0  0  0  0
  144.9670   70.1660  218.4770 C   0  0  0  0  0  0  0  0  0  0  0  0
  145.4840   69.2040  219.3340 C   0  0  0  0  0  0  0  0  0  0  0  0
  145.9120   67.9660  218.8940 C   0  0  0  0  0  0  0  0  0  0  0  0
  145.8010   67.7210  217.5410 C   0  0  0  0  0  0  0  0  0  0  0  0
  145.2830   68.6710  216.6550 C   0  0  0  0  0  0  0  0  0  0  0  0
  144.8560   69.9180  217.1280 C   0  0  0  0  0  0  0  0  0  0  0  0
  143.6870   71.4160  220.2660 C   0  0  0  0  0  0  0  0  0  0  0  0
  143.2830   72.7610  220.6900 C   0  0  0  0  0  0  0  0  0  0  0  0
  141.8440   73.1210  220.6640 C   0  0  0  0  0  0  0  0  0  0  0  0
  140.9980   71.9360  220.9730 N   0  0  0  0  0  0  0  0  0  0  0  0
  140.1940   72.0500  222.0890 C   0  0  0  0  0  0  0  0  0  0  0  0
  140.3410   73.2000  222.7120 O   0  0  0  0  0  0  0  0  0  0  0  0
  139.2180   71.1780  222.7290 C   0  0  2  0  0  0  0  0  0  0  0  0
  138.1860   71.8800  223.4000 N   0  0  0  0  0  0  0  0  0  0  0  0
  139.9540   70.1570  223.5770 C   0  0  0  0  0  0  0  0  0  0  0  0
  140.3030   70.5790  224.9280 C   0  0  0  0  0  0  0  0  0  0  0  0
  140.7910   71.8360  225.2630 C   0  0  0  0  0  0  0  0  0  0  0  0
  141.0460   72.2070  226.5780 C   0  0  0  0  0  0  0  0  0  0  0  0
  140.8290   71.3490  227.6330 C   0  0  0  0  0  0  0  0  0  0  0  0
  140.3440   70.0920  227.3110 C   0  0  0  0  0  0  0  0  0  0  0  0
  140.0890   69.7190  225.9910 C   0  0  0  0  0  0  0  0  0  0  0  0
  139.5190   67.9020  225.7540 Br  0  0  0  0  0  0  0  0  0  0  0  0
  141.1950   70.8520  220.0520 C   0  0  0  0  0  0  0  0  0  0  0  0
  142.6120   70.4100  220.1670 C   0  0  0  0  0  0  0  0  0  0  0  0
  145.4299   74.9356  216.9595 H   0  0  0  0  0  0  0  0  0  0  0  0
  145.3529   73.4761  215.9151 H   0  0  0  0  0  0  0  0  0  0  0  0
  143.9960   74.6531  215.9151 H   0  0  0  0  0  0  0  0  0  0  0  0
  143.5875   74.1382  218.2796 H   0  0  0  0  0  0  0  0  0  0  0  0
  143.4408   72.6894  217.1530 H   0  0  0  0  0  0  0  0  0  0  0  0
  145.5558   69.4367  220.4067 H   0  0  0  0  0  0  0  0  0  0  0  0
  146.3200   67.2150  219.5865 H   0  0  0  0  0  0  0  0  0  0  0  0
  146.1301   66.7482  217.1468 H   0  0  0  0  0  0  0  0  0  0  0  0
  145.2107   68.4378  215.5824 H   0  0  0  0  0  0  0  0  0  0  0  0
  144.4452   70.6747  216.4434 H   0  0  0  0  0  0  0  0  0  0  0  0
  144.2892   71.0896  221.1267 H   0  0  0  0  0  0  0  0  0  0  0  0
  143.6289   72.8899  221.7262 H   0  0  0  0  0  0  0  0  0  0  0  0
  143.7342   73.4223  219.9356 H   0  0  0  0  0  0  0  0  0  0  0  0
  141.6545   73.9046  221.4124 H   0  0  0  0  0  0  0  0  0  0  0  0
  141.5890   73.4839  219.6574 H   0  0  0  0  0  0  0  0  0  0  0  0
  138.6615   70.6286  221.9554 H   0  0  0  0  0  0  0  0  0  0  0  0
  137.7160   71.4040  224.1680 H   0  0  0  0  0  0  0  0  0  0  0  0
  138.2630   72.8930  223.4000 H   0  0  0  0  0  0  0  0  0  0  0  0
  139.3162   69.2644  223.6577 H   0  0  0  0  0  0  0  0  0  0  0  0
  140.9117   69.9820  223.0649 H   0  0  0  0  0  0  0  0  0  0  0  0
  140.9822   72.5627  224.4597 H   0  0  0  0  0  0  0  0  0  0  0  0
  141.4328   73.2163  226.7821 H   0  0  0  0  0  0  0  0  0  0  0  0
  141.0295   71.6452  228.6732 H   0  0  0  0  0  0  0  0  0  0  0  0
  140.1548   69.3685  228.1177 H   0  0  0  0  0  0  0  0  0  0  0  0
  140.5216   70.0196  220.3041 H   0  0  0  0  0  0  0  0  0  0  0  0
  140.9755   71.1761  219.0240 H   0  0  0  0  0  0  0  0  0  0  0  0
  142.6782   69.7830  221.0684 H   0  0  0  0  0  0  0  0  0  0  0  0
  142.8068   69.9220  219.2006 H   0  0  0  0  0  0  0  0  0  0  0  0
  1  2  1  0
  2  3  1  0
  3  4  2  0
  3  5  1  0
  5  6  1  0
  6  7  2  0
  7  8  1  0
  8  9  2  0
  9 10  1  0
 10 11  2  0
  5 12  1  0
 12 13  1  0
 13 14  1  0
 14 15  1  0
 15 16  1  0
 16 17  2  0
 16 18  1  0
 18 19  1  0
 18 20  1  0
 20 21  1  0
 21 22  2  0
 22 23  1  0
 23 24  2  0
 24 25  1  0
 25 26  2  0
 26 27  1  0
 15 28  1  0
 28 29  1  0
 11  6  1  0
 29 12  1  0
 26 21  1  0
  1 30  1  0
  1 31  1  0
  1 32  1  0
  2 33  1  0
  2 34  1  0
  7 35  1  0
  8 36  1  0
  9 37  1  0
 10 38  1  0
 11 39  1  0
 12 40  1  0
 13 41  1  0
 13 42  1  0
 14 43  1  0
 14 44  1  0
 18 45  1  6
 19 46  1  0
 19 47  1  0
 20 48  1  0
 20 49  1  0
 22 50  1  0
 23 51  1  0
 24 52  1  0
 25 53  1  0
 28 54  1  0
 28 55  1  0
 29 56  1  0
 29 57  1  0
M  END
>  <smiles>  (49) 
CCC(=O)N(c1ccccc1)C1CCN(C(=O)[C@H](N)Cc2ccccc2Br)CC1

>  <score_type>  (49) 
oracle

>  <origin>  (49) 
autodockgpu

>  <m_score__min__energy>  (49) 
-8.3100000000000005

>  <m_primary>  (49) 
energy

>  <rmsd>  (49) 
8.625437506277557

>  <m_score__min__rmsd>  (49) 
8.625437506277557

>  <meeko>  (49) 
{"free_energy": -7.59, "intermolecular_energy": -9.98, "internal_energy": -2.37, "cluster_size": 7, "cluster_id": 2, "rank_in_cluster": 2}

>  <energy>  (49) 
-5.87

>  <cluster_rmsd>  (49) 
0.89

>  <cluster>  (49) 
13

$$$$

     RDKit          3D

 57 59  0  0  0  0  0  0  0  0999 V2000
  146.4030   73.7140  221.6950 C   0  0  0  0  0  0  0  0  0  0  0  0
  145.8960   72.6050  220.8440 C   0  0  0  0  0  0  0  0  0  0  0  0
  145.1850   73.0250  219.6100 C   0  0  0  0  0  0  0  0  0  0  0  0
  145.7250   72.7840  218.4980 O   0  0  0  0  0  0  0  0  0  0  0  0
  143.9130   73.6900  219.7070 N   0  0  0  0  0  0  0  0  0  0  0  0
  143.5850   74.6530  218.7070 C   0  0  0  0  0  0  0  0  0  0  0  0
  143.1890   74.1410  217.4790 C   0  0  0  0  0  0  0  0  0  0  0  0
  142.8400   74.9470  216.4120 C   0  0  0  0  0  0  0  0  0  0  0  0
  142.9020   76.3090  216.6220 C   0  0  0  0  0  0  0  0  0  0  0  0
  143.2970   76.8530  217.8490 C   0  0  0  0  0  0  0  0  0  0  0  0
  143.6460   76.0130  218.9140 C   0  0  0  0  0  0  0  0  0  0  0  0
  143.0030   73.4040  220.8280 C   0  0  0  0  0  0  0  0  0  0  0  0
  141.8550   74.3130  220.9170 C   0  0  0  0  0  0  0  0  0  0  0  0
  140.4860   73.7580  220.7770 C   0  0  0  0  0  0  0  0  0  0  0  0
  140.4150   72.3800  221.3360 N   0  0  0  0  0  0  0  0  0  0  0  0
  139.5260   72.2020  222.3760 C   0  0  0  0  0  0  0  0  0  0  0  0
  138.9060   73.3110  222.7170 O   0  0  0  0  0  0  0  0  0  0  0  0
  139.1240   71.0560  223.1810 C   0  0  2  0  0  0  0  0  0  0  0  0
  138.0460   71.3320  224.0590 N   0  0  0  0  0  0  0  0  0  0  0  0
  140.3540   70.4650  223.8440 C   0  0  0  0  0  0  0  0  0  0  0  0
  140.5110   70.7450  225.2650 C   0  0  0  0  0  0  0  0  0  0  0  0
  141.0430   71.9180  225.7870 C   0  0  0  0  0  0  0  0  0  0  0  0
  141.1080   72.1590  227.1550 C   0  0  0  0  0  0  0  0  0  0  0  0
  140.6500   71.2460  228.0790 C   0  0  0  0  0  0  0  0  0  0  0  0
  140.1200   70.0720  227.5700 C   0  0  0  0  0  0  0  0  0  0  0  0
  140.0540   69.8290  226.1980 C   0  0  0  0  0  0  0  0  0  0  0  0
  139.3790   68.1020  225.7070 Br  0  0  0  0  0  0  0  0  0  0  0  0
  141.3250   71.4700  220.6980 C   0  0  0  0  0  0  0  0  0  0  0  0
  142.7080   71.9630  220.9430 C   0  0  0  0  0  0  0  0  0  0  0  0
  146.2812   73.4477  222.7553 H   0  0  0  0  0  0  0  0  0  0  0  0
  147.4682   73.8839  221.4796 H   0  0  0  0  0  0  0  0  0  0  0  0
  145.8346   74.6308  221.4796 H   0  0  0  0  0  0  0  0  0  0  0  0
  146.7547   71.9850  220.5469 H   0  0  0  0  0  0  0  0  0  0  0  0
  145.1545   72.0685  221.4541 H   0  0  0  0  0  0  0  0  0  0  0  0
  143.1514   73.0492  217.3499 H   0  0  0  0  0  0  0  0  0  0  0  0
  142.5289   74.5243  215.4453 H   0  0  0  0  0  0  0  0  0  0  0  0
  142.6326   76.9881  215.7996 H   0  0  0  0  0  0  0  0  0  0  0  0
  143.3336   77.9448  217.9778 H   0  0  0  0  0  0  0  0  0  0  0  0
  143.9587   76.4263  219.8843 H   0  0  0  0  0  0  0  0  0  0  0  0
  143.5446   73.6460  221.7543 H   0  0  0  0  0  0  0  0  0  0  0  0
  141.9059   74.8012  221.9014 H   0  0  0  0  0  0  0  0  0  0  0  0
  141.9664   74.9657  220.0386 H   0  0  0  0  0  0  0  0  0  0  0  0
  139.7780   74.4035  221.3175 H   0  0  0  0  0  0  0  0  0  0  0  0
  140.2288   73.7188  219.7082 H   0  0  0  0  0  0  0  0  0  0  0  0
  138.6984   70.2838  222.5233 H   0  0  0  0  0  0  0  0  0  0  0  0
  137.9340   70.7260  224.8690 H   0  0  0  0  0  0  0  0  0  0  0  0
  137.7410   72.3000  224.0990 H   0  0  0  0  0  0  0  0  0  0  0  0
  140.3117   69.3729  223.7190 H   0  0  0  0  0  0  0  0  0  0  0  0
  141.2142   70.9418  223.3513 H   0  0  0  0  0  0  0  0  0  0  0  0
  141.4258   72.6820  225.0943 H   0  0  0  0  0  0  0  0  0  0  0  0
  141.5381   73.1072  227.5098 H   0  0  0  0  0  0  0  0  0  0  0  0
  140.7022   71.4385  229.1608 H   0  0  0  0  0  0  0  0  0  0  0  0
  139.7406   69.3102  228.2669 H   0  0  0  0  0  0  0  0  0  0  0  0
  141.2061   70.4624  221.1231 H   0  0  0  0  0  0  0  0  0  0  0  0
  141.1216   71.4171  219.6183 H   0  0  0  0  0  0  0  0  0  0  0  0
  142.9764   71.6635  221.9668 H   0  0  0  0  0  0  0  0  0  0  0  0
  143.2874   71.5173  220.1210 H   0  0  0  0  0  0  0  0  0  0  0  0
  1  2  1  0
  2  3  1  0
  3  4  2  0
  3  5  1  0
  5  6  1  0
  6  7  2  0
  7  8  1  0
  8  9  2  0
  9 10  1  0
 10 11  2  0
  5 12  1  0
 12 13  1  0
 13 14  1  0
 14 15  1  0
 15 16  1  0
 16 17  2  0
 16 18  1  0
 18 19  1  0
 18 20  1  0
 20 21  1  0
 21 22  2  0
 22 23  1  0
 23 24  2  0
 24 25  1  0
 25 26  2  0
 26 27  1  0
 15 28  1  0
 28 29  1  0
 11  6  1  0
 29 12  1  0
 26 21  1  0
  1 30  1  0
  1 31  1  0
  1 32  1  0
  2 33  1  0
  2 34  1  0
  7 35  1  0
  8 36  1  0
  9 37  1  0
 10 38  1  0
 11 39  1  0
 12 40  1  0
 13 41  1  0
 13 42  1  0
 14 43  1  0
 14 44  1  0
 18 45  1  6
 19 46  1  0
 19 47  1  0
 20 48  1  0
 20 49  1  0
 22 50  1  0
 23 51  1  0
 24 52  1  0
 25 53  1  0
 28 54  1  0
 28 55  1  0
 29 56  1  0
 29 57  1  0
M  END
>  <smiles>  (50) 
CCC(=O)N(c1ccccc1)C1CCN(C(=O)[C@H](N)Cc2ccccc2Br)CC1

>  <score_type>  (50) 
oracle

>  <origin>  (50) 
autodockgpu

>  <m_score__min__energy>  (50) 
-8.3100000000000005

>  <m_primary>  (50) 
energy

>  <rmsd>  (50) 
8.02884812607726

>  <m_score__min__rmsd>  (50) 
8.02884812607726

>  <meeko>  (50) 
{"free_energy": -7.64, "intermolecular_energy": -10.03, "internal_energy": -2.56, "cluster_size": 9, "cluster_id": 1, "rank_in_cluster": 6}

>  <energy>  (50) 
-5.84

>  <cluster_rmsd>  (50) 
1.19

>  <cluster>  (50) 
13

$$$$
