
     RDKit          3D

 45 48  0  0  0  0  0  0  0  0999 V2000
  140.3850   72.3180  221.4050 O   0  0  0  0  0  0  0  0  0  0  0  0
  139.5980   72.2830  222.3840 C   0  0  0  0  0  0  0  0  0  0  0  0
  138.4760   73.1600  222.3310 N   0  0  0  0  0  0  0  0  0  0  0  0
  138.3380   73.9970  221.1820 C   0  0  0  0  0  0  0  0  0  0  0  0
  138.8110   75.3490  221.3860 C   0  0  0  0  0  0  0  0  0  0  0  0
  137.9090   76.1610  221.8830 O   0  0  0  0  0  0  0  0  0  0  0  0
  140.0440   75.9810  221.1700 N   0  0  0  0  0  0  0  0  0  0  0  0
  141.3020   75.2330  221.3970 C   0  0  0  0  0  0  0  0  0  0  0  0
  142.3060   75.8380  220.4720 C   0  0  0  0  0  0  0  0  0  0  0  0
  141.5280   76.8140  219.6550 C   0  0  0  0  0  0  0  0  0  0  0  0
  140.4800   77.2600  220.6910 C   0  0  2  0  0  0  0  0  0  0  0  0
  141.1430   77.9920  221.7880 C   0  0  0  0  0  0  0  0  0  0  0  0
  140.9490   77.9810  223.1060 N   0  0  0  0  0  0  0  0  0  0  0  0
  141.7990   78.8020  223.7500 C   0  0  0  0  0  0  0  0  0  0  0  0
  142.5790   79.3650  222.7660 C   0  0  0  0  0  0  0  0  0  0  0  0
  142.1730   78.8690  221.6000 N   0  0  0  0  0  0  0  0  0  0  0  0
  139.7730   71.4100  223.5340 C   0  0  0  0  0  0  0  0  0  0  0  0
  139.4290   70.0750  223.4950 C   0  0  0  0  0  0  0  0  0  0  0  0
  139.5710   69.2210  224.5670 C   0  0  0  0  0  0  0  0  0  0  0  0
  140.0880   69.7560  225.7350 C   0  0  0  0  0  0  0  0  0  0  0  0
  140.2520   68.9460  226.8410 C   0  0  0  0  0  0  0  0  0  0  0  0
  140.7670   69.4960  227.9920 C   0  0  0  0  0  0  0  0  0  0  0  0
  140.9300   68.6920  229.0910 F   0  0  0  0  0  0  0  0  0  0  0  0
  141.1070   70.8310  228.0210 C   0  0  0  0  0  0  0  0  0  0  0  0
  140.9590   71.6760  226.9390 C   0  0  0  0  0  0  0  0  0  0  0  0
  140.4340   71.0900  225.7820 C   0  0  0  0  0  0  0  0  0  0  0  0
  140.2790   71.9020  224.7030 N   0  0  0  0  0  0  0  0  0  0  0  0
  137.8220   73.1320  223.1460 H   0  0  0  0  0  0  0  0  0  0  0  0
  138.9106   73.5499  220.3561 H   0  0  0  0  0  0  0  0  0  0  0  0
  137.2626   74.0631  220.9603 H   0  0  0  0  0  0  0  0  0  0  0  0
  141.6291   75.3413  222.4416 H   0  0  0  0  0  0  0  0  0  0  0  0
  141.1736   74.1570  221.2083 H   0  0  0  0  0  0  0  0  0  0  0  0
  143.0969   76.3504  221.0393 H   0  0  0  0  0  0  0  0  0  0  0  0
  142.8082   75.0819  219.8506 H   0  0  0  0  0  0  0  0  0  0  0  0
  142.1531   77.6547  219.3197 H   0  0  0  0  0  0  0  0  0  0  0  0
  141.1111   76.4068  218.7220 H   0  0  0  0  0  0  0  0  0  0  0  0
  139.6882   77.9177  220.3032 H   0  0  0  0  0  0  0  0  0  0  0  0
  141.8578   78.9843  224.8332 H   0  0  0  0  0  0  0  0  0  0  0  0
  143.3903   80.0925  222.9160 H   0  0  0  0  0  0  0  0  0  0  0  0
  142.5780   79.1060  220.6890 H   0  0  0  0  0  0  0  0  0  0  0  0
  139.0193   69.6702  222.5578 H   0  0  0  0  0  0  0  0  0  0  0  0
  139.2862   68.1608  224.4980 H   0  0  0  0  0  0  0  0  0  0  0  0
  139.9763   67.8818  226.8026 H   0  0  0  0  0  0  0  0  0  0  0  0
  141.5174   71.2448  228.9539 H   0  0  0  0  0  0  0  0  0  0  0  0
  141.2356   72.7397  226.9837 H   0  0  0  0  0  0  0  0  0  0  0  0
  1  2  2  0
  2  3  1  0
  3  4  1  0
  4  5  1  0
  5  6  2  0
  5  7  1  0
  7  8  1  0
  8  9  1  0
  9 10  1  0
 10 11  1  0
 11 12  1  0
 12 13  2  0
 13 14  1  0
 14 15  2  0
 15 16  1  0
  2 17  1  0
 17 18  2  0
 18 19  1  0
 19 20  2  0
 20 21  1  0
 21 22  2  0
 22 23  1  0
 22 24  1  0
 24 25  2  0
 25 26  1  0
 26 27  2  0
 11  7  1  0
 16 12  1  0
 27 17  1  0
 26 20  1  0
  3 28  1  0
  4 29  1  0
  4 30  1  0
  8 31  1  0
  8 32  1  0
  9 33  1  0
  9 34  1  0
 10 35  1  0
 10 36  1  0
 11 37  1  6
 14 38  1  0
 15 39  1  0
 16 40  1  0
 18 41  1  0
 19 42  1  0
 21 43  1  0
 24 44  1  0
 25 45  1  0
M  END
>  <smiles>  (1) 
O=C(NCC(=O)N1CCC[C@@H]1c1ncc[nH]1)c1ccc2cc(F)ccc2n1

>  <score_type>  (1) 
oracle

>  <origin>  (1) 
autodockgpu

>  <m_score__min__energy>  (1) 
-8.2699999999999996

>  <m_primary>  (1) 
energy

>  <rmsd>  (1) 
1.9279876256364252

>  <m_score__min__rmsd>  (1) 
1.9279876256364252

>  <meeko>  (1) 
{"free_energy": -7.59, "intermolecular_energy": -9.08, "internal_energy": -1.39, "cluster_size": 30, "cluster_id": 1, "rank_in_cluster": 24}

>  <energy>  (1) 
-8.27

>  <cluster_rmsd>  (1) 
0.0

>  <cluster>  (1) 
1

$$$$

     RDKit          3D

 45 48  0  0  0  0  0  0  0  0999 V2000
  141.3470   72.3610  221.5330 O   0  0  0  0  0  0  0  0  0  0  0  0
  140.3930   72.5210  222.3350 C   0  0  0  0  0  0  0  0  0  0  0  0
  139.5210   73.6190  222.0770 N   0  0  0  0  0  0  0  0  0  0  0  0
  139.7990   74.4380  220.9390 C   0  0  0  0  0  0  0  0  0  0  0  0
  140.5300   75.6450  221.2550 C   0  0  0  0  0  0  0  0  0  0  0  0
  141.8310   75.4880  221.2850 O   0  0  0  0  0  0  0  0  0  0  0  0
  140.1390   76.9640  221.5320 N   0  0  0  0  0  0  0  0  0  0  0  0
  139.8650   77.8970  220.4160 C   0  0  0  0  0  0  0  0  0  0  0  0
  138.8620   78.8710  220.9400 C   0  0  0  0  0  0  0  0  0  0  0  0
  138.5040   78.3550  222.2930 C   0  0  0  0  0  0  0  0  0  0  0  0
  139.8490   77.7300  222.7080 C   0  0  2  0  0  0  0  0  0  0  0  0
  140.8640   78.7880  222.8640 C   0  0  0  0  0  0  0  0  0  0  0  0
  140.8060   80.0000  223.4150 N   0  0  0  0  0  0  0  0  0  0  0  0
  141.9880   80.6410  223.3560 C   0  0  0  0  0  0  0  0  0  0  0  0
  142.8460   79.7700  222.7250 C   0  0  0  0  0  0  0  0  0  0  0  0
  142.1570   78.6670  222.4380 N   0  0  0  0  0  0  0  0  0  0  0  0
  140.1420   71.6600  223.4800 C   0  0  0  0  0  0  0  0  0  0  0  0
  139.3210   70.5550  223.3950 C   0  0  0  0  0  0  0  0  0  0  0  0
  139.0530   69.7230  224.4600 C   0  0  0  0  0  0  0  0  0  0  0  0
  139.6510   70.0350  225.6700 C   0  0  0  0  0  0  0  0  0  0  0  0
  139.4170   69.2350  226.7710 C   0  0  0  0  0  0  0  0  0  0  0  0
  140.0200   69.5610  227.9640 C   0  0  0  0  0  0  0  0  0  0  0  0
  139.7890   68.7670  229.0580 F   0  0  0  0  0  0  0  0  0  0  0  0
  140.8390   70.6670  228.0380 C   0  0  0  0  0  0  0  0  0  0  0  0
  141.0990   71.4920  226.9630 C   0  0  0  0  0  0  0  0  0  0  0  0
  140.4730   71.1380  225.7630 C   0  0  0  0  0  0  0  0  0  0  0  0
  140.7140   71.9360  224.6890 N   0  0  0  0  0  0  0  0  0  0  0  0
  138.7280   73.7540  222.7440 H   0  0  0  0  0  0  0  0  0  0  0  0
  140.3932   73.8494  220.2245 H   0  0  0  0  0  0  0  0  0  0  0  0
  138.8295   74.7495  220.5230 H   0  0  0  0  0  0  0  0  0  0  0  0
  140.7863   78.4186  220.1173 H   0  0  0  0  0  0  0  0  0  0  0  0
  139.4908   77.3678  219.5272 H   0  0  0  0  0  0  0  0  0  0  0  0
  139.2997   79.8776  221.0121 H   0  0  0  0  0  0  0  0  0  0  0  0
  137.9845   78.9590  220.2826 H   0  0  0  0  0  0  0  0  0  0  0  0
  138.2043   79.1663  222.9727 H   0  0  0  0  0  0  0  0  0  0  0  0
  137.6476   77.6649  222.3130 H   0  0  0  0  0  0  0  0  0  0  0  0
  139.8323   77.1653  223.6518 H   0  0  0  0  0  0  0  0  0  0  0  0
  142.2192   81.6483  223.7327 H   0  0  0  0  0  0  0  0  0  0  0  0
  143.9071   79.9515  222.4989 H   0  0  0  0  0  0  0  0  0  0  0  0
  142.5410   77.8410  221.9690 H   0  0  0  0  0  0  0  0  0  0  0  0
  138.8553   70.3257  222.4252 H   0  0  0  0  0  0  0  0  0  0  0  0
  138.3931   68.8493  224.3541 H   0  0  0  0  0  0  0  0  0  0  0  0
  138.7617   68.3547  226.6958 H   0  0  0  0  0  0  0  0  0  0  0  0
  141.3095   70.9042  229.0036 H   0  0  0  0  0  0  0  0  0  0  0  0
  141.7557   72.3707  227.0442 H   0  0  0  0  0  0  0  0  0  0  0  0
  1  2  2  0
  2  3  1  0
  3  4  1  0
  4  5  1  0
  5  6  2  0
  5  7  1  0
  7  8  1  0
  8  9  1  0
  9 10  1  0
 10 11  1  0
 11 12  1  0
 12 13  2  0
 13 14  1  0
 14 15  2  0
 15 16  1  0
  2 17  1  0
 17 18  2  0
 18 19  1  0
 19 20  2  0
 20 21  1  0
 21 22  2  0
 22 23  1  0
 22 24  1  0
 24 25  2  0
 25 26  1  0
 26 27  2  0
 11  7  1  0
 16 12  1  0
 27 17  1  0
 26 20  1  0
  3 28  1  0
  4 29  1  0
  4 30  1  0
  8 31  1  0
  8 32  1  0
  9 33  1  0
  9 34  1  0
 10 35  1  0
 10 36  1  0
 11 37  1  1
 14 38  1  0
 15 39  1  0
 16 40  1  0
 18 41  1  0
 19 42  1  0
 21 43  1  0
 24 44  1  0
 25 45  1  0
M  END
>  <smiles>  (2) 
O=C(NCC(=O)N1CCC[C@@H]1c1ncc[nH]1)c1ccc2cc(F)ccc2n1

>  <score_type>  (2) 
oracle

>  <origin>  (2) 
autodockgpu

>  <m_score__min__energy>  (2) 
-8.2699999999999996

>  <m_primary>  (2) 
energy

>  <rmsd>  (2) 
2.5927489726316333

>  <m_score__min__rmsd>  (2) 
2.5927489726316333

>  <meeko>  (2) 
{"free_energy": -8.04, "intermolecular_energy": -9.53, "internal_energy": -1.49, "cluster_size": 30, "cluster_id": 1, "rank_in_cluster": 12}

>  <energy>  (2) 
-8.26

>  <cluster_rmsd>  (2) 
0.1

>  <cluster>  (2) 
1

$$$$

     RDKit          3D

 45 48  0  0  0  0  0  0  0  0999 V2000
  141.1000   72.2330  221.4230 O   0  0  0  0  0  0  0  0  0  0  0  0
  140.2800   72.3910  222.3620 C   0  0  0  0  0  0  0  0  0  0  0  0
  139.4140   73.5200  222.2690 N   0  0  0  0  0  0  0  0  0  0  0  0
  139.5460   74.3680  221.1260 C   0  0  0  0  0  0  0  0  0  0  0  0
  140.8260   75.0360  221.0420 C   0  0  0  0  0  0  0  0  0  0  0  0
  141.0250   75.9290  221.9810 O   0  0  0  0  0  0  0  0  0  0  0  0
  141.9150   74.9260  220.1640 N   0  0  0  0  0  0  0  0  0  0  0  0
  141.7430   74.2330  218.8660 C   0  0  0  0  0  0  0  0  0  0  0  0
  142.7310   74.8590  217.9390 C   0  0  0  0  0  0  0  0  0  0  0  0
  143.3220   75.9840  218.7190 C   0  0  0  0  0  0  0  0  0  0  0  0
  143.2720   75.3860  220.1370 C   0  0  2  0  0  0  0  0  0  0  0  0
  144.1820   74.2290  220.2240 C   0  0  0  0  0  0  0  0  0  0  0  0
  145.5080   74.1350  220.1430 N   0  0  0  0  0  0  0  0  0  0  0  0
  145.9370   72.8680  220.2940 C   0  0  0  0  0  0  0  0  0  0  0  0
  144.7990   72.1170  220.4830 C   0  0  0  0  0  0  0  0  0  0  0  0
  143.7590   72.9470  220.4380 N   0  0  0  0  0  0  0  0  0  0  0  0
  140.1750   71.5000  223.5060 C   0  0  0  0  0  0  0  0  0  0  0  0
  139.5830   70.2570  223.4110 C   0  0  0  0  0  0  0  0  0  0  0  0
  139.4570   69.3900  224.4740 C   0  0  0  0  0  0  0  0  0  0  0  0
  139.9590   69.8130  225.6940 C   0  0  0  0  0  0  0  0  0  0  0  0
  139.8600   68.9850  226.7950 C   0  0  0  0  0  0  0  0  0  0  0  0
  140.3640   69.4220  227.9980 C   0  0  0  0  0  0  0  0  0  0  0  0
  140.2650   68.6000  229.0920 F   0  0  0  0  0  0  0  0  0  0  0  0
  140.9530   70.6650  228.0830 C   0  0  0  0  0  0  0  0  0  0  0  0
  141.0720   71.5230  227.0090 C   0  0  0  0  0  0  0  0  0  0  0  0
  140.5510   71.0530  225.7980 C   0  0  0  0  0  0  0  0  0  0  0  0
  140.6580   71.8820  224.7250 N   0  0  0  0  0  0  0  0  0  0  0  0
  138.7330   73.6530  223.0510 H   0  0  0  0  0  0  0  0  0  0  0  0
  139.4141   73.7553  220.2220 H   0  0  0  0  0  0  0  0  0  0  0  0
  138.7798   75.1520  221.2174 H   0  0  0  0  0  0  0  0  0  0  0  0
  141.9477   73.1578  218.9754 H   0  0  0  0  0  0  0  0  0  0  0  0
  140.7145   74.3293  218.4879 H   0  0  0  0  0  0  0  0  0  0  0  0
  143.5080   74.1346  217.6535 H   0  0  0  0  0  0  0  0  0  0  0  0
  142.2648   75.2011  217.0032 H   0  0  0  0  0  0  0  0  0  0  0  0
  144.3534   76.2008  218.4041 H   0  0  0  0  0  0  0  0  0  0  0  0
  142.8036   76.9475  218.6053 H   0  0  0  0  0  0  0  0  0  0  0  0
  143.5573   76.0744  220.9461 H   0  0  0  0  0  0  0  0  0  0  0  0
  146.9765   72.5090  220.2712 H   0  0  0  0  0  0  0  0  0  0  0  0
  144.7566   71.0294  220.6422 H   0  0  0  0  0  0  0  0  0  0  0  0
  142.7810   72.6670  220.5530 H   0  0  0  0  0  0  0  0  0  0  0  0
  139.1903   69.9414  222.4331 H   0  0  0  0  0  0  0  0  0  0  0  0
  138.9792   68.4059  224.3593 H   0  0  0  0  0  0  0  0  0  0  0  0
  139.3873   67.9953  226.7115 H   0  0  0  0  0  0  0  0  0  0  0  0
  141.3484   70.9897  229.0567 H   0  0  0  0  0  0  0  0  0  0  0  0
  141.5454   72.5118  227.0987 H   0  0  0  0  0  0  0  0  0  0  0  0
  1  2  2  0
  2  3  1  0
  3  4  1  0
  4  5  1  0
  5  6  2  0
  5  7  1  0
  7  8  1  0
  8  9  1  0
  9 10  1  0
 10 11  1  0
 11 12  1  0
 12 13  2  0
 13 14  1  0
 14 15  2  0
 15 16  1  0
  2 17  1  0
 17 18  2  0
 18 19  1  0
 19 20  2  0
 20 21  1  0
 21 22  2  0
 22 23  1  0
 22 24  1  0
 24 25  2  0
 25 26  1  0
 26 27  2  0
 11  7  1  0
 16 12  1  0
 27 17  1  0
 26 20  1  0
  3 28  1  0
  4 29  1  0
  4 30  1  0
  8 31  1  0
  8 32  1  0
  9 33  1  0
  9 34  1  0
 10 35  1  0
 10 36  1  0
 11 37  1  1
 14 38  1  0
 15 39  1  0
 16 40  1  0
 18 41  1  0
 19 42  1  0
 21 43  1  0
 24 44  1  0
 25 45  1  0
M  END
>  <smiles>  (3) 
O=C(NCC(=O)N1CCC[C@@H]1c1ncc[nH]1)c1ccc2cc(F)ccc2n1

>  <score_type>  (3) 
oracle

>  <origin>  (3) 
autodockgpu

>  <m_score__min__energy>  (3) 
-8.2699999999999996

>  <m_primary>  (3) 
energy

>  <rmsd>  (3) 
3.552771798006286

>  <m_score__min__rmsd>  (3) 
3.552771798006286

>  <meeko>  (3) 
{"free_energy": -7.38, "intermolecular_energy": -8.87, "internal_energy": -2.1, "cluster_size": 10, "cluster_id": 2, "rank_in_cluster": 5}

>  <energy>  (3) 
-8.26

>  <cluster_rmsd>  (3) 
0.04

>  <cluster>  (3) 
1

$$$$

     RDKit          3D

 45 48  0  0  0  0  0  0  0  0999 V2000
  135.8420   69.1110  224.1370 O   0  0  0  0  0  0  0  0  0  0  0  0
  136.0450   70.2850  224.5360 C   0  0  0  0  0  0  0  0  0  0  0  0
  137.3140   70.8540  224.2240 N   0  0  0  0  0  0  0  0  0  0  0  0
  138.2410   70.0520  223.4890 C   0  0  0  0  0  0  0  0  0  0  0  0
  138.8520   69.0020  224.2750 C   0  0  0  0  0  0  0  0  0  0  0  0
  138.5860   67.7920  223.8470 O   0  0  0  0  0  0  0  0  0  0  0  0
  139.6850   69.0030  225.4040 N   0  0  0  0  0  0  0  0  0  0  0  0
  139.1760   68.4750  226.6900 C   0  0  0  0  0  0  0  0  0  0  0  0
  140.3730   67.9630  227.4200 C   0  0  0  0  0  0  0  0  0  0  0  0
  141.4960   68.0960  226.4460 C   0  0  0  0  0  0  0  0  0  0  0  0
  141.0450   69.3560  225.6840 C   0  0  2  0  0  0  0  0  0  0  0  0
  141.0710   70.5210  226.5880 C   0  0  0  0  0  0  0  0  0  0  0  0
  141.0390   70.6150  227.9170 N   0  0  0  0  0  0  0  0  0  0  0  0
  141.1000   71.8920  228.3370 C   0  0  0  0  0  0  0  0  0  0  0  0
  141.1750   72.6500  227.1910 C   0  0  0  0  0  0  0  0  0  0  0  0
  141.1560   71.8140  226.1550 N   0  0  0  0  0  0  0  0  0  0  0  0
  135.0700   71.0700  225.2780 C   0  0  0  0  0  0  0  0  0  0  0  0
  134.1530   70.4830  226.1240 C   0  0  0  0  0  0  0  0  0  0  0  0
  133.2100   71.1920  226.8350 C   0  0  0  0  0  0  0  0  0  0  0  0
  133.2030   72.5680  226.6740 C   0  0  0  0  0  0  0  0  0  0  0  0
  132.2790   73.3290  227.3620 C   0  0  0  0  0  0  0  0  0  0  0  0
  132.2880   74.6940  227.1880 C   0  0  0  0  0  0  0  0  0  0  0  0
  131.3700   75.4510  227.8720 F   0  0  0  0  0  0  0  0  0  0  0  0
  133.2080   75.2720  226.3400 C   0  0  0  0  0  0  0  0  0  0  0  0
  134.1470   74.5480  225.6340 C   0  0  0  0  0  0  0  0  0  0  0  0
  134.1160   73.1630  225.8290 C   0  0  0  0  0  0  0  0  0  0  0  0
  135.0330   72.4280  225.1440 N   0  0  0  0  0  0  0  0  0  0  0  0
  137.4840   71.8300  224.5570 H   0  0  0  0  0  0  0  0  0  0  0  0
  137.7074   69.5890  222.6458 H   0  0  0  0  0  0  0  0  0  0  0  0
  139.0509   70.7186  223.1577 H   0  0  0  0  0  0  0  0  0  0  0  0
  138.6885   69.2748  227.2667 H   0  0  0  0  0  0  0  0  0  0  0  0
  138.4265   67.6848  226.5357 H   0  0  0  0  0  0  0  0  0  0  0  0
  140.5661   68.5660  228.3195 H   0  0  0  0  0  0  0  0  0  0  0  0
  140.2397   66.9262  227.7626 H   0  0  0  0  0  0  0  0  0  0  0  0
  142.4598   68.2495  226.9534 H   0  0  0  0  0  0  0  0  0  0  0  0
  141.6682   67.2113  225.8154 H   0  0  0  0  0  0  0  0  0  0  0  0
  141.6576   69.6194  224.8091 H   0  0  0  0  0  0  0  0  0  0  0  0
  141.0917   72.2533  229.3760 H   0  0  0  0  0  0  0  0  0  0  0  0
  141.2390   73.7470  227.1401 H   0  0  0  0  0  0  0  0  0  0  0  0
  141.2050   72.0980  225.1720 H   0  0  0  0  0  0  0  0  0  0  0  0
  134.1757   69.3891  226.2373 H   0  0  0  0  0  0  0  0  0  0  0  0
  132.4943   70.6880  227.5011 H   0  0  0  0  0  0  0  0  0  0  0  0
  131.5505   72.8539  228.0355 H   0  0  0  0  0  0  0  0  0  0  0  0
  133.1930   76.3653  226.2199 H   0  0  0  0  0  0  0  0  0  0  0  0
  134.8728   75.0287  224.9616 H   0  0  0  0  0  0  0  0  0  0  0  0
  1  2  2  0
  2  3  1  0
  3  4  1  0
  4  5  1  0
  5  6  2  0
  5  7  1  0
  7  8  1  0
  8  9  1  0
  9 10  1  0
 10 11  1  0
 11 12  1  0
 12 13  2  0
 13 14  1  0
 14 15  2  0
 15 16  1  0
  2 17  1  0
 17 18  2  0
 18 19  1  0
 19 20  2  0
 20 21  1  0
 21 22  2  0
 22 23  1  0
 22 24  1  0
 24 25  2  0
 25 26  1  0
 26 27  2  0
 11  7  1  0
 16 12  1  0
 27 17  1  0
 26 20  1  0
  3 28  1  0
  4 29  1  0
  4 30  1  0
  8 31  1  0
  8 32  1  0
  9 33  1  0
  9 34  1  0
 10 35  1  0
 10 36  1  0
 11 37  1  6
 14 38  1  0
 15 39  1  0
 16 40  1  0
 18 41  1  0
 19 42  1  0
 21 43  1  0
 24 44  1  0
 25 45  1  0
M  END
>  <smiles>  (4) 
O=C(NCC(=O)N1CCC[C@@H]1c1ncc[nH]1)c1ccc2cc(F)ccc2n1

>  <score_type>  (4) 
oracle

>  <origin>  (4) 
autodockgpu

>  <m_score__min__energy>  (4) 
-8.2699999999999996

>  <m_primary>  (4) 
energy

>  <rmsd>  (4) 
8.53978033143083

>  <m_score__min__rmsd>  (4) 
8.53978033143083

>  <meeko>  (4) 
{"free_energy": -7.33, "intermolecular_energy": -8.82, "internal_energy": -1.38, "cluster_size": 1, "cluster_id": 3, "rank_in_cluster": 1}

>  <energy>  (4) 
-8.26

>  <cluster_rmsd>  (4) 
0.07

>  <cluster>  (4) 
1

$$$$

     RDKit          3D

 45 48  0  0  0  0  0  0  0  0999 V2000
  139.3100   76.3890  220.4790 O   0  0  0  0  0  0  0  0  0  0  0  0
  139.7280   75.6030  221.3660 C   0  0  0  0  0  0  0  0  0  0  0  0
  139.0560   75.6450  222.6220 N   0  0  0  0  0  0  0  0  0  0  0  0
  137.9740   76.5670  222.7690 C   0  0  0  0  0  0  0  0  0  0  0  0
  138.3880   77.9520  222.7980 C   0  0  0  0  0  0  0  0  0  0  0  0
  137.4010   78.8010  222.9520 O   0  0  0  0  0  0  0  0  0  0  0  0
  139.6350   78.5870  222.7030 N   0  0  0  0  0  0  0  0  0  0  0  0
  139.7360   80.0450  222.9440 C   0  0  0  0  0  0  0  0  0  0  0  0
  141.1180   80.2760  223.4600 C   0  0  0  0  0  0  0  0  0  0  0  0
  141.6940   78.9090  223.6240 C   0  0  0  0  0  0  0  0  0  0  0  0
  140.9890   78.1780  222.4670 C   0  0  2  0  0  0  0  0  0  0  0  0
  141.4470   78.7260  221.1770 C   0  0  0  0  0  0  0  0  0  0  0  0
  141.8410   79.9480  220.8220 N   0  0  0  0  0  0  0  0  0  0  0  0
  142.1970   80.0090  219.5250 C   0  0  0  0  0  0  0  0  0  0  0  0
  142.0130   78.7370  219.0350 C   0  0  0  0  0  0  0  0  0  0  0  0
  141.5640   77.9830  220.0360 N   0  0  0  0  0  0  0  0  0  0  0  0
  140.8310   74.6750  221.1730 C   0  0  0  0  0  0  0  0  0  0  0  0
  140.6880   73.3190  221.3790 C   0  0  0  0  0  0  0  0  0  0  0  0
  141.7120   72.4120  221.2160 C   0  0  0  0  0  0  0  0  0  0  0  0
  142.9420   72.9140  220.8250 C   0  0  0  0  0  0  0  0  0  0  0  0
  144.0050   72.0510  220.6470 C   0  0  0  0  0  0  0  0  0  0  0  0
  145.2190   72.5680  220.2590 C   0  0  0  0  0  0  0  0  0  0  0  0
  146.2750   71.7110  220.0820 F   0  0  0  0  0  0  0  0  0  0  0  0
  145.3520   73.9250  220.0560 C   0  0  0  0  0  0  0  0  0  0  0  0
  144.3170   74.8220  220.2230 C   0  0  0  0  0  0  0  0  0  0  0  0
  143.0940   74.2690  220.6180 C   0  0  0  0  0  0  0  0  0  0  0  0
  142.0590   75.1340  220.7890 N   0  0  0  0  0  0  0  0  0  0  0  0
  139.4040   74.9920  223.3610 H   0  0  0  0  0  0  0  0  0  0  0  0
  137.2834   76.4290  221.9240 H   0  0  0  0  0  0  0  0  0  0  0  0
  137.5004   76.3536  223.7386 H   0  0  0  0  0  0  0  0  0  0  0  0
  139.5788   80.6001  222.0074 H   0  0  0  0  0  0  0  0  0  0  0  0
  138.9737   80.3917  223.6573 H   0  0  0  0  0  0  0  0  0  0  0  0
  141.7081   80.8619  222.7400 H   0  0  0  0  0  0  0  0  0  0  0  0
  141.1213   80.8449  224.4014 H   0  0  0  0  0  0  0  0  0  0  0  0
  142.7870   78.9095  223.5002 H   0  0  0  0  0  0  0  0  0  0  0  0
  141.5415   78.4591  224.6161 H   0  0  0  0  0  0  0  0  0  0  0  0
  141.1576   77.0917  222.4274 H   0  0  0  0  0  0  0  0  0  0  0  0
  142.5585   80.8897  218.9738 H   0  0  0  0  0  0  0  0  0  0  0  0
  142.2023   78.4036  218.0040 H   0  0  0  0  0  0  0  0  0  0  0  0
  141.3430   76.9850  219.9650 H   0  0  0  0  0  0  0  0  0  0  0  0
  139.7030   72.9411  221.6903 H   0  0  0  0  0  0  0  0  0  0  0  0
  141.5594   71.3364  221.3888 H   0  0  0  0  0  0  0  0  0  0  0  0
  143.8832   70.9703  220.8124 H   0  0  0  0  0  0  0  0  0  0  0  0
  146.3334   74.3125  219.7450 H   0  0  0  0  0  0  0  0  0  0  0  0
  144.4451   75.9017  220.0564 H   0  0  0  0  0  0  0  0  0  0  0  0
  1  2  2  0
  2  3  1  0
  3  4  1  0
  4  5  1  0
  5  6  2  0
  5  7  1  0
  7  8  1  0
  8  9  1  0
  9 10  1  0
 10 11  1  0
 11 12  1  0
 12 13  2  0
 13 14  1  0
 14 15  2  0
 15 16  1  0
  2 17  1  0
 17 18  2  0
 18 19  1  0
 19 20  2  0
 20 21  1  0
 21 22  2  0
 22 23  1  0
 22 24  1  0
 24 25  2  0
 25 26  1  0
 26 27  2  0
 11  7  1  0
 16 12  1  0
 27 17  1  0
 26 20  1  0
  3 28  1  0
  4 29  1  0
  4 30  1  0
  8 31  1  0
  8 32  1  0
  9 33  1  0
  9 34  1  0
 10 35  1  0
 10 36  1  0
 11 37  1  6
 14 38  1  0
 15 39  1  0
 16 40  1  0
 18 41  1  0
 19 42  1  0
 21 43  1  0
 24 44  1  0
 25 45  1  0
M  END
>  <smiles>  (5) 
O=C(NCC(=O)N1CCC[C@@H]1c1ncc[nH]1)c1ccc2cc(F)ccc2n1

>  <score_type>  (5) 
oracle

>  <origin>  (5) 
autodockgpu

>  <m_score__min__energy>  (5) 
-8.2699999999999996

>  <m_primary>  (5) 
energy

>  <rmsd>  (5) 
6.048552499530097

>  <m_score__min__rmsd>  (5) 
6.048552499530097

>  <meeko>  (5) 
{"free_energy": -6.04, "intermolecular_energy": -7.53, "internal_energy": -2.82, "cluster_size": 5, "cluster_id": 6, "rank_in_cluster": 3}

>  <energy>  (5) 
-8.26

>  <cluster_rmsd>  (5) 
0.08

>  <cluster>  (5) 
1

$$$$

     RDKit          3D

 45 48  0  0  0  0  0  0  0  0999 V2000
  138.9410   71.3180  221.4220 O   0  0  0  0  0  0  0  0  0  0  0  0
  139.3310   71.6880  222.5570 C   0  0  0  0  0  0  0  0  0  0  0  0
  139.6070   73.0770  222.7140 N   0  0  0  0  0  0  0  0  0  0  0  0
  139.4160   73.9270  221.5820 C   0  0  0  0  0  0  0  0  0  0  0  0
  140.1530   75.1700  221.6550 C   0  0  0  0  0  0  0  0  0  0  0  0
  141.4550   75.0170  221.6790 O   0  0  0  0  0  0  0  0  0  0  0  0
  139.7680   76.5180  221.7000 N   0  0  0  0  0  0  0  0  0  0  0  0
  139.7480   77.3160  220.4530 C   0  0  0  0  0  0  0  0  0  0  0  0
  138.7020   78.3610  220.6580 C   0  0  0  0  0  0  0  0  0  0  0  0
  138.0730   78.0160  221.9660 C   0  0  0  0  0  0  0  0  0  0  0  0
  139.2880   77.4230  222.7030 C   0  0  2  0  0  0  0  0  0  0  0  0
  140.2950   78.4760  222.9320 C   0  0  0  0  0  0  0  0  0  0  0  0
  140.1870   79.7200  223.3950 N   0  0  0  0  0  0  0  0  0  0  0  0
  141.3800   80.3420  223.4610 C   0  0  0  0  0  0  0  0  0  0  0  0
  142.2970   79.4210  223.0080 C   0  0  0  0  0  0  0  0  0  0  0  0
  141.6310   78.3120  222.6960 N   0  0  0  0  0  0  0  0  0  0  0  0
  139.5080   70.7890  223.6870 C   0  0  0  0  0  0  0  0  0  0  0  0
  139.0570   69.4860  223.6600 C   0  0  0  0  0  0  0  0  0  0  0  0
  139.1980   68.6090  224.7130 C   0  0  0  0  0  0  0  0  0  0  0  0
  139.8300   69.0870  225.8500 C   0  0  0  0  0  0  0  0  0  0  0  0
  139.9980   68.2530  226.9370 C   0  0  0  0  0  0  0  0  0  0  0  0
  140.6280   68.7450  228.0560 C   0  0  0  0  0  0  0  0  0  0  0  0
  140.7960   67.9160  229.1370 F   0  0  0  0  0  0  0  0  0  0  0  0
  141.0750   70.0490  228.0740 C   0  0  0  0  0  0  0  0  0  0  0  0
  140.9270   70.9160  227.0100 C   0  0  0  0  0  0  0  0  0  0  0  0
  140.2830   70.3880  225.8850 C   0  0  0  0  0  0  0  0  0  0  0  0
  140.1260   71.2240  224.8240 N   0  0  0  0  0  0  0  0  0  0  0  0
  139.9340   73.3850  223.6580 H   0  0  0  0  0  0  0  0  0  0  0  0
  139.7398   73.3840  220.6818 H   0  0  0  0  0  0  0  0  0  0  0  0
  138.3479   74.1886  221.5540 H   0  0  0  0  0  0  0  0  0  0  0  0
  140.7287   77.7837  220.2813 H   0  0  0  0  0  0  0  0  0  0  0  0
  139.5301   76.6907  219.5747 H   0  0  0  0  0  0  0  0  0  0  0  0
  139.1563   79.3620  220.6981 H   0  0  0  0  0  0  0  0  0  0  0  0
  137.9699   78.3836  219.8373 H   0  0  0  0  0  0  0  0  0  0  0  0
  137.6811   78.9075  222.4776 H   0  0  0  0  0  0  0  0  0  0  0  0
  137.2024   77.3471  221.8978 H   0  0  0  0  0  0  0  0  0  0  0  0
  139.0690   76.9747  223.6833 H   0  0  0  0  0  0  0  0  0  0  0  0
  141.5791   81.3680  223.8040 H   0  0  0  0  0  0  0  0  0  0  0  0
  143.3828   79.5738  222.9199 H   0  0  0  0  0  0  0  0  0  0  0  0
  142.0580   77.4530  222.3360 H   0  0  0  0  0  0  0  0  0  0  0  0
  138.5575   69.1274  222.7479 H   0  0  0  0  0  0  0  0  0  0  0  0
  138.8256   67.5756  224.6540 H   0  0  0  0  0  0  0  0  0  0  0  0
  139.6350   67.2150  226.9087 H   0  0  0  0  0  0  0  0  0  0  0  0
  141.5748   70.4172  228.9821 H   0  0  0  0  0  0  0  0  0  0  0  0
  141.2912   71.9534  227.0440 H   0  0  0  0  0  0  0  0  0  0  0  0
  1  2  2  0
  2  3  1  0
  3  4  1  0
  4  5  1  0
  5  6  2  0
  5  7  1  0
  7  8  1  0
  8  9  1  0
  9 10  1  0
 10 11  1  0
 11 12  1  0
 12 13  2  0
 13 14  1  0
 14 15  2  0
 15 16  1  0
  2 17  1  0
 17 18  2  0
 18 19  1  0
 19 20  2  0
 20 21  1  0
 21 22  2  0
 22 23  1  0
 22 24  1  0
 24 25  2  0
 25 26  1  0
 26 27  2  0
 11  7  1  0
 16 12  1  0
 27 17  1  0
 26 20  1  0
  3 28  1  0
  4 29  1  0
  4 30  1  0
  8 31  1  0
  8 32  1  0
  9 33  1  0
  9 34  1  0
 10 35  1  0
 10 36  1  0
 11 37  1  1
 14 38  1  0
 15 39  1  0
 16 40  1  0
 18 41  1  0
 19 42  1  0
 21 43  1  0
 24 44  1  0
 25 45  1  0
M  END
>  <smiles>  (6) 
O=C(NCC(=O)N1CCC[C@@H]1c1ncc[nH]1)c1ccc2cc(F)ccc2n1

>  <score_type>  (6) 
oracle

>  <origin>  (6) 
autodockgpu

>  <m_score__min__energy>  (6) 
-8.2699999999999996

>  <m_primary>  (6) 
energy

>  <rmsd>  (6) 
2.330663350653051

>  <m_score__min__rmsd>  (6) 
2.330663350653051

>  <meeko>  (6) 
{"free_energy": -7.59, "intermolecular_energy": -9.08, "internal_energy": -1.78, "cluster_size": 30, "cluster_id": 1, "rank_in_cluster": 23}

>  <energy>  (6) 
-8.23

>  <cluster_rmsd>  (6) 
0.32

>  <cluster>  (6) 
1

$$$$

     RDKit          3D

 45 48  0  0  0  0  0  0  0  0999 V2000
  141.1870   72.0590  221.3290 O   0  0  0  0  0  0  0  0  0  0  0  0
  140.5040   72.3640  222.3380 C   0  0  0  0  0  0  0  0  0  0  0  0
  139.9090   73.6590  222.3380 N   0  0  0  0  0  0  0  0  0  0  0  0
  140.1310   74.4950  221.2000 C   0  0  0  0  0  0  0  0  0  0  0  0
  140.2170   75.9030  221.5200 C   0  0  0  0  0  0  0  0  0  0  0  0
  139.6480   76.2270  222.6560 O   0  0  0  0  0  0  0  0  0  0  0  0
  140.7900   77.0060  220.8710 N   0  0  0  0  0  0  0  0  0  0  0  0
  142.1220   76.8730  220.2380 C   0  0  0  0  0  0  0  0  0  0  0  0
  142.1360   77.8540  219.1130 C   0  0  0  0  0  0  0  0  0  0  0  0
  140.7480   78.4010  219.0710 C   0  0  0  0  0  0  0  0  0  0  0  0
  140.3920   78.3490  220.5680 C   0  0  2  0  0  0  0  0  0  0  0  0
  141.2440   79.2920  221.3180 C   0  0  0  0  0  0  0  0  0  0  0  0
  141.3390   80.6200  221.2850 N   0  0  0  0  0  0  0  0  0  0  0  0
  142.2490   81.0850  222.1610 C   0  0  0  0  0  0  0  0  0  0  0  0
  142.7580   79.9690  222.7850 C   0  0  0  0  0  0  0  0  0  0  0  0
  142.1460   78.9060  222.2680 N   0  0  0  0  0  0  0  0  0  0  0  0
  140.2980   71.4800  223.4750 C   0  0  0  0  0  0  0  0  0  0  0  0
  139.6870   70.2500  223.3410 C   0  0  0  0  0  0  0  0  0  0  0  0
  139.4660   69.3910  224.3950 C   0  0  0  0  0  0  0  0  0  0  0  0
  139.8880   69.8090  225.6470 C   0  0  0  0  0  0  0  0  0  0  0  0
  139.6910   68.9880  226.7400 C   0  0  0  0  0  0  0  0  0  0  0  0
  140.1170   69.4200  227.9750 C   0  0  0  0  0  0  0  0  0  0  0  0
  139.9220   68.6050  229.0610 F   0  0  0  0  0  0  0  0  0  0  0  0
  140.7250   70.6510  228.0990 C   0  0  0  0  0  0  0  0  0  0  0  0
  140.9400   71.5010  227.0330 C   0  0  0  0  0  0  0  0  0  0  0  0
  140.4980   71.0370  225.7900 C   0  0  0  0  0  0  0  0  0  0  0  0
  140.7000   71.8580  224.7240 N   0  0  0  0  0  0  0  0  0  0  0  0
  139.3420   73.9140  223.1790 H   0  0  0  0  0  0  0  0  0  0  0  0
  141.0739   74.1891  220.7232 H   0  0  0  0  0  0  0  0  0  0  0  0
  139.2639   74.3692  220.5350 H   0  0  0  0  0  0  0  0  0  0  0  0
  142.9157   77.1089  220.9621 H   0  0  0  0  0  0  0  0  0  0  0  0
  142.3019   75.8473  219.8837 H   0  0  0  0  0  0  0  0  0  0  0  0
  142.8635   78.6561  219.3066 H   0  0  0  0  0  0  0  0  0  0  0  0
  142.4300   77.3904  218.1598 H   0  0  0  0  0  0  0  0  0  0  0  0
  140.7267   79.4298  218.6822 H   0  0  0  0  0  0  0  0  0  0  0  0
  140.0560   77.8561  218.4120 H   0  0  0  0  0  0  0  0  0  0  0  0
  139.3495   78.6027  220.8105 H   0  0  0  0  0  0  0  0  0  0  0  0
  142.5268   82.1342  222.3401 H   0  0  0  0  0  0  0  0  0  0  0  0
  143.5301   79.9575  223.5684 H   0  0  0  0  0  0  0  0  0  0  0  0
  142.3210   77.9360  222.5470 H   0  0  0  0  0  0  0  0  0  0  0  0
  139.3587   69.9386  222.3384 H   0  0  0  0  0  0  0  0  0  0  0  0
  138.9764   68.4168  224.2493 H   0  0  0  0  0  0  0  0  0  0  0  0
  139.2034   68.0086  226.6256 H   0  0  0  0  0  0  0  0  0  0  0  0
  141.0555   70.9720  229.0979 H   0  0  0  0  0  0  0  0  0  0  0  0
  141.4273   72.4798  227.1533 H   0  0  0  0  0  0  0  0  0  0  0  0
  1  2  2  0
  2  3  1  0
  3  4  1  0
  4  5  1  0
  5  6  2  0
  5  7  1  0
  7  8  1  0
  8  9  1  0
  9 10  1  0
 10 11  1  0
 11 12  1  0
 12 13  2  0
 13 14  1  0
 14 15  2  0
 15 16  1  0
  2 17  1  0
 17 18  2  0
 18 19  1  0
 19 20  2  0
 20 21  1  0
 21 22  2  0
 22 23  1  0
 22 24  1  0
 24 25  2  0
 25 26  1  0
 26 27  2  0
 11  7  1  0
 16 12  1  0
 27 17  1  0
 26 20  1  0
  3 28  1  0
  4 29  1  0
  4 30  1  0
  8 31  1  0
  8 32  1  0
  9 33  1  0
  9 34  1  0
 10 35  1  0
 10 36  1  0
 11 37  1  6
 14 38  1  0
 15 39  1  0
 16 40  1  0
 18 41  1  0
 19 42  1  0
 21 43  1  0
 24 44  1  0
 25 45  1  0
M  END
>  <smiles>  (7) 
O=C(NCC(=O)N1CCC[C@@H]1c1ncc[nH]1)c1ccc2cc(F)ccc2n1

>  <score_type>  (7) 
oracle

>  <origin>  (7) 
autodockgpu

>  <m_score__min__energy>  (7) 
-8.2699999999999996

>  <m_primary>  (7) 
energy

>  <rmsd>  (7) 
2.1342889015814106

>  <m_score__min__rmsd>  (7) 
2.1342889015814106

>  <meeko>  (7) 
{"free_energy": -7.87, "intermolecular_energy": -9.36, "internal_energy": -1.61, "cluster_size": 30, "cluster_id": 1, "rank_in_cluster": 20}

>  <energy>  (7) 
-8.22

>  <cluster_rmsd>  (7) 
0.27

>  <cluster>  (7) 
1

$$$$

     RDKit          3D

 45 48  0  0  0  0  0  0  0  0999 V2000
  141.4020   72.3510  221.6500 O   0  0  0  0  0  0  0  0  0  0  0  0
  140.4990   72.4930  222.5110 C   0  0  0  0  0  0  0  0  0  0  0  0
  139.6480   73.6260  222.3620 N   0  0  0  0  0  0  0  0  0  0  0  0
  139.8870   74.4980  221.2550 C   0  0  0  0  0  0  0  0  0  0  0  0
  139.8100   75.9030  221.5930 C   0  0  0  0  0  0  0  0  0  0  0  0
  138.9800   76.1700  222.5730 O   0  0  0  0  0  0  0  0  0  0  0  0
  140.4450   77.0500  221.0970 N   0  0  0  0  0  0  0  0  0  0  0  0
  141.7590   76.9280  220.4240 C   0  0  0  0  0  0  0  0  0  0  0  0
  141.8210   78.0580  219.4510 C   0  0  0  0  0  0  0  0  0  0  0  0
  140.4710   78.6900  219.5150 C   0  0  0  0  0  0  0  0  0  0  0  0
  140.1290   78.4450  220.9960 C   0  0  2  0  0  0  0  0  0  0  0  0
  141.0470   79.2160  221.8550 C   0  0  0  0  0  0  0  0  0  0  0  0
  141.3020   80.5220  221.9340 N   0  0  0  0  0  0  0  0  0  0  0  0
  142.2140   80.8040  222.8830 C   0  0  0  0  0  0  0  0  0  0  0  0
  142.5530   79.5900  223.4350 C   0  0  0  0  0  0  0  0  0  0  0  0
  141.8470   78.6520  222.8090 N   0  0  0  0  0  0  0  0  0  0  0  0
  140.2850   71.5780  223.6210 C   0  0  0  0  0  0  0  0  0  0  0  0
  139.6120   70.3840  223.4630 C   0  0  0  0  0  0  0  0  0  0  0  0
  139.3830   69.4970  224.4920 C   0  0  0  0  0  0  0  0  0  0  0  0
  139.8630   69.8460  225.7440 C   0  0  0  0  0  0  0  0  0  0  0  0
  139.6620   68.9960  226.8120 C   0  0  0  0  0  0  0  0  0  0  0  0
  140.1470   69.3590  228.0470 C   0  0  0  0  0  0  0  0  0  0  0  0
  139.9470   68.5140  229.1090 F   0  0  0  0  0  0  0  0  0  0  0  0
  140.8180   70.5540  228.1950 C   0  0  0  0  0  0  0  0  0  0  0  0
  141.0400   71.4330  227.1550 C   0  0  0  0  0  0  0  0  0  0  0  0
  140.5370   71.0380  225.9100 C   0  0  0  0  0  0  0  0  0  0  0  0
  140.7440   71.8880  224.8690 N   0  0  0  0  0  0  0  0  0  0  0  0
  138.8970   73.7460  223.0790 H   0  0  0  0  0  0  0  0  0  0  0  0
  140.8926   74.2905  220.8605 H   0  0  0  0  0  0  0  0  0  0  0  0
  139.0968   74.3019  220.5153 H   0  0  0  0  0  0  0  0  0  0  0  0
  142.5746   77.0085  221.1577 H   0  0  0  0  0  0  0  0  0  0  0  0
  141.8699   75.9548  219.9235 H   0  0  0  0  0  0  0  0  0  0  0  0
  142.6001   78.7778  219.7422 H   0  0  0  0  0  0  0  0  0  0  0  0
  142.0730   77.7184  218.4355 H   0  0  0  0  0  0  0  0  0  0  0  0
  140.5114   79.7634  219.2778 H   0  0  0  0  0  0  0  0  0  0  0  0
  139.7384   78.2898  218.7987 H   0  0  0  0  0  0  0  0  0  0  0  0
  139.1072   78.7242  221.2925 H   0  0  0  0  0  0  0  0  0  0  0  0
  142.6052   81.7945  223.1587 H   0  0  0  0  0  0  0  0  0  0  0  0
  143.2767   79.4249  224.2468 H   0  0  0  0  0  0  0  0  0  0  0  0
  141.8900   77.6500  223.0150 H   0  0  0  0  0  0  0  0  0  0  0  0
  139.2380   70.1263  222.4611 H   0  0  0  0  0  0  0  0  0  0  0  0
  138.8428   68.5531  224.3269 H   0  0  0  0  0  0  0  0  0  0  0  0
  139.1240   68.0459  226.6784 H   0  0  0  0  0  0  0  0  0  0  0  0
  141.1957   70.8204  229.1932 H   0  0  0  0  0  0  0  0  0  0  0  0
  141.5774   72.3825  227.2952 H   0  0  0  0  0  0  0  0  0  0  0  0
  1  2  2  0
  2  3  1  0
  3  4  1  0
  4  5  1  0
  5  6  2  0
  5  7  1  0
  7  8  1  0
  8  9  1  0
  9 10  1  0
 10 11  1  0
 11 12  1  0
 12 13  2  0
 13 14  1  0
 14 15  2  0
 15 16  1  0
  2 17  1  0
 17 18  2  0
 18 19  1  0
 19 20  2  0
 20 21  1  0
 21 22  2  0
 22 23  1  0
 22 24  1  0
 24 25  2  0
 25 26  1  0
 26 27  2  0
 11  7  1  0
 16 12  1  0
 27 17  1  0
 26 20  1  0
  3 28  1  0
  4 29  1  0
  4 30  1  0
  8 31  1  0
  8 32  1  0
  9 33  1  0
  9 34  1  0
 10 35  1  0
 10 36  1  0
 11 37  1  6
 14 38  1  0
 15 39  1  0
 16 40  1  0
 18 41  1  0
 19 42  1  0
 21 43  1  0
 24 44  1  0
 25 45  1  0
M  END
>  <smiles>  (8) 
O=C(NCC(=O)N1CCC[C@@H]1c1ncc[nH]1)c1ccc2cc(F)ccc2n1

>  <score_type>  (8) 
oracle

>  <origin>  (8) 
autodockgpu

>  <m_score__min__energy>  (8) 
-8.2699999999999996

>  <m_primary>  (8) 
energy

>  <rmsd>  (8) 
2.1751029291048405

>  <m_score__min__rmsd>  (8) 
2.1751029291048405

>  <meeko>  (8) 
{"free_energy": -8.0, "intermolecular_energy": -9.5, "internal_energy": -1.5, "cluster_size": 30, "cluster_id": 1, "rank_in_cluster": 14}

>  <energy>  (8) 
-8.09

>  <cluster_rmsd>  (8) 
1.11

>  <cluster>  (8) 
1

$$$$

     RDKit          3D

 45 48  0  0  0  0  0  0  0  0999 V2000
  141.1820   72.0800  221.3160 O   0  0  0  0  0  0  0  0  0  0  0  0
  140.5060   72.4000  222.3250 C   0  0  0  0  0  0  0  0  0  0  0  0
  139.9310   73.7040  222.3200 N   0  0  0  0  0  0  0  0  0  0  0  0
  140.1660   74.5320  221.1780 C   0  0  0  0  0  0  0  0  0  0  0  0
  140.1020   75.9480  221.4630 C   0  0  0  0  0  0  0  0  0  0  0  0
  139.3040   76.2570  222.4570 O   0  0  0  0  0  0  0  0  0  0  0  0
  140.7240   77.0740  220.9030 N   0  0  0  0  0  0  0  0  0  0  0  0
  142.0170   76.9220  220.1980 C   0  0  0  0  0  0  0  0  0  0  0  0
  142.0530   78.0120  219.1780 C   0  0  0  0  0  0  0  0  0  0  0  0
  140.7060   78.6480  219.2560 C   0  0  0  0  0  0  0  0  0  0  0  0
  140.4060   78.4640  220.7550 C   0  0  2  0  0  0  0  0  0  0  0  0
  141.3490   79.2680  221.5550 C   0  0  0  0  0  0  0  0  0  0  0  0
  141.6250   80.5710  221.5570 N   0  0  0  0  0  0  0  0  0  0  0  0
  142.5560   80.8910  222.4740 C   0  0  0  0  0  0  0  0  0  0  0  0
  142.8860   79.7060  223.0890 C   0  0  0  0  0  0  0  0  0  0  0  0
  142.1560   78.7450  222.5270 N   0  0  0  0  0  0  0  0  0  0  0  0
  140.2860   71.5250  223.4660 C   0  0  0  0  0  0  0  0  0  0  0  0
  139.6310   70.3170  223.3420 C   0  0  0  0  0  0  0  0  0  0  0  0
  139.3960   69.4670  224.4010 C   0  0  0  0  0  0  0  0  0  0  0  0
  139.8510   69.8690  225.6450 C   0  0  0  0  0  0  0  0  0  0  0  0
  139.6430   69.0570  226.7420 C   0  0  0  0  0  0  0  0  0  0  0  0
  140.1020   69.4740  227.9700 C   0  0  0  0  0  0  0  0  0  0  0  0
  139.8960   68.6670  229.0600 F   0  0  0  0  0  0  0  0  0  0  0  0
  140.7550   70.6820  228.0830 C   0  0  0  0  0  0  0  0  0  0  0  0
  140.9840   71.5240  227.0140 C   0  0  0  0  0  0  0  0  0  0  0  0
  140.5060   71.0750  225.7770 C   0  0  0  0  0  0  0  0  0  0  0  0
  140.7200   71.8880  224.7080 N   0  0  0  0  0  0  0  0  0  0  0  0
  139.3690   73.9720  223.1600 H   0  0  0  0  0  0  0  0  0  0  0  0
  141.1665   74.3023  220.7826 H   0  0  0  0  0  0  0  0  0  0  0  0
  139.3677   74.3138  220.4533 H   0  0  0  0  0  0  0  0  0  0  0  0
  142.8536   77.0299  220.9040 H   0  0  0  0  0  0  0  0  0  0  0  0
  142.1116   75.9291  219.7340 H   0  0  0  0  0  0  0  0  0  0  0  0
  142.8408   78.7414  219.4173 H   0  0  0  0  0  0  0  0  0  0  0  0
  142.2761   77.6318  218.1702 H   0  0  0  0  0  0  0  0  0  0  0  0
  140.7401   79.7108  218.9745 H   0  0  0  0  0  0  0  0  0  0  0  0
  139.9529   78.2198  218.5781 H   0  0  0  0  0  0  0  0  0  0  0  0
  139.3933   78.7565  221.0695 H   0  0  0  0  0  0  0  0  0  0  0  0
  142.9664   81.8892  222.6868 H   0  0  0  0  0  0  0  0  0  0  0  0
  143.6197   79.5759  223.8982 H   0  0  0  0  0  0  0  0  0  0  0  0
  142.1870   77.7550  222.7880 H   0  0  0  0  0  0  0  0  0  0  0  0
  139.2775   70.0163  222.3447 H   0  0  0  0  0  0  0  0  0  0  0  0
  138.8698   68.5108  224.2637 H   0  0  0  0  0  0  0  0  0  0  0  0
  139.1202   68.0950  226.6362 H   0  0  0  0  0  0  0  0  0  0  0  0
  141.1122   70.9911  229.0764 H   0  0  0  0  0  0  0  0  0  0  0  0
  141.5077   72.4848  227.1263 H   0  0  0  0  0  0  0  0  0  0  0  0
  1  2  2  0
  2  3  1  0
  3  4  1  0
  4  5  1  0
  5  6  2  0
  5  7  1  0
  7  8  1  0
  8  9  1  0
  9 10  1  0
 10 11  1  0
 11 12  1  0
 12 13  2  0
 13 14  1  0
 14 15  2  0
 15 16  1  0
  2 17  1  0
 17 18  2  0
 18 19  1  0
 19 20  2  0
 20 21  1  0
 21 22  2  0
 22 23  1  0
 22 24  1  0
 24 25  2  0
 25 26  1  0
 26 27  2  0
 11  7  1  0
 16 12  1  0
 27 17  1  0
 26 20  1  0
  3 28  1  0
  4 29  1  0
  4 30  1  0
  8 31  1  0
  8 32  1  0
  9 33  1  0
  9 34  1  0
 10 35  1  0
 10 36  1  0
 11 37  1  6
 14 38  1  0
 15 39  1  0
 16 40  1  0
 18 41  1  0
 19 42  1  0
 21 43  1  0
 24 44  1  0
 25 45  1  0
M  END
>  <smiles>  (9) 
O=C(NCC(=O)N1CCC[C@@H]1c1ncc[nH]1)c1ccc2cc(F)ccc2n1

>  <score_type>  (9) 
oracle

>  <origin>  (9) 
autodockgpu

>  <m_score__min__energy>  (9) 
-8.2699999999999996

>  <m_primary>  (9) 
energy

>  <rmsd>  (9) 
2.1724366395068175

>  <m_score__min__rmsd>  (9) 
2.1724366395068175

>  <meeko>  (9) 
{"free_energy": -7.89, "intermolecular_energy": -9.38, "internal_energy": -1.63, "cluster_size": 30, "cluster_id": 1, "rank_in_cluster": 19}

>  <energy>  (9) 
-8.08

>  <cluster_rmsd>  (9) 
1.1

>  <cluster>  (9) 
1

$$$$

     RDKit          3D

 45 48  0  0  0  0  0  0  0  0999 V2000
  141.2080   72.7210  221.9110 O   0  0  0  0  0  0  0  0  0  0  0  0
  140.1940   72.5380  222.6300 C   0  0  0  0  0  0  0  0  0  0  0  0
  139.0530   73.3400  222.3390 N   0  0  0  0  0  0  0  0  0  0  0  0
  139.1520   74.2750  221.2630 C   0  0  0  0  0  0  0  0  0  0  0  0
  139.4080   75.6320  221.6930 C   0  0  0  0  0  0  0  0  0  0  0  0
  138.6100   76.0490  222.6460 O   0  0  0  0  0  0  0  0  0  0  0  0
  140.3420   76.6050  221.3090 N   0  0  0  0  0  0  0  0  0  0  0  0
  141.7150   76.1960  220.9330 C   0  0  0  0  0  0  0  0  0  0  0  0
  142.1930   77.2250  219.9630 C   0  0  0  0  0  0  0  0  0  0  0  0
  141.0080   78.0980  219.7220 C   0  0  0  0  0  0  0  0  0  0  0  0
  140.3320   78.0240  221.1040 C   0  0  2  0  0  0  0  0  0  0  0  0
  141.1910   78.6700  222.1150 C   0  0  0  0  0  0  0  0  0  0  0  0
  141.1450   78.6730  223.4460 N   0  0  0  0  0  0  0  0  0  0  0  0
  142.1490   79.3890  223.9860 C   0  0  0  0  0  0  0  0  0  0  0  0
  142.8730   79.8660  222.9180 C   0  0  0  0  0  0  0  0  0  0  0  0
  142.2860   79.4270  221.8070 N   0  0  0  0  0  0  0  0  0  0  0  0
  140.1330   71.5700  223.7140 C   0  0  0  0  0  0  0  0  0  0  0  0
  139.5790   70.3180  223.5430 C   0  0  0  0  0  0  0  0  0  0  0  0
  139.4950   69.3800  224.5490 C   0  0  0  0  0  0  0  0  0  0  0  0
  139.9990   69.7370  225.7880 C   0  0  0  0  0  0  0  0  0  0  0  0
  139.9410   68.8350  226.8320 C   0  0  0  0  0  0  0  0  0  0  0  0
  140.4470   69.2080  228.0560 C   0  0  0  0  0  0  0  0  0  0  0  0
  140.3890   68.3130  229.0940 F   0  0  0  0  0  0  0  0  0  0  0  0
  140.9980   70.4610  228.2160 C   0  0  0  0  0  0  0  0  0  0  0  0
  141.0760   71.3920  227.2000 C   0  0  0  0  0  0  0  0  0  0  0  0
  140.5540   70.9860  225.9670 C   0  0  0  0  0  0  0  0  0  0  0  0
  140.6200   71.8860  224.9500 N   0  0  0  0  0  0  0  0  0  0  0  0
  138.2100   73.1890  222.9380 H   0  0  0  0  0  0  0  0  0  0  0  0
  139.9734   73.9591  220.6030 H   0  0  0  0  0  0  0  0  0  0  0  0
  138.1789   74.2787  220.7501 H   0  0  0  0  0  0  0  0  0  0  0  0
  142.3650   76.1743  221.8202 H   0  0  0  0  0  0  0  0  0  0  0  0
  141.7319   75.1871  220.4950 H   0  0  0  0  0  0  0  0  0  0  0  0
  143.0224   77.8066  220.3918 H   0  0  0  0  0  0  0  0  0  0  0  0
  142.5746   76.7758  219.0342 H   0  0  0  0  0  0  0  0  0  0  0  0
  141.3042   79.1264  219.4675 H   0  0  0  0  0  0  0  0  0  0  0  0
  140.3715   77.7909  218.8791 H   0  0  0  0  0  0  0  0  0  0  0  0
  139.3461   78.5073  221.1703 H   0  0  0  0  0  0  0  0  0  0  0  0
  142.3482   79.5570  225.0547 H   0  0  0  0  0  0  0  0  0  0  0  0
  143.7733   80.4957  222.9723 H   0  0  0  0  0  0  0  0  0  0  0  0
  142.6110   79.6220  220.8550 H   0  0  0  0  0  0  0  0  0  0  0  0
  139.1834   70.0546  222.5510 H   0  0  0  0  0  0  0  0  0  0  0  0
  139.0469   68.3905  224.3751 H   0  0  0  0  0  0  0  0  0  0  0  0
  139.4990   67.8380  226.6880 H   0  0  0  0  0  0  0  0  0  0  0  0
  141.3962   70.7333  229.2046 H   0  0  0  0  0  0  0  0  0  0  0  0
  141.5193   72.3875  227.3498 H   0  0  0  0  0  0  0  0  0  0  0  0
  1  2  2  0
  2  3  1  0
  3  4  1  0
  4  5  1  0
  5  6  2  0
  5  7  1  0
  7  8  1  0
  8  9  1  0
  9 10  1  0
 10 11  1  0
 11 12  1  0
 12 13  2  0
 13 14  1  0
 14 15  2  0
 15 16  1  0
  2 17  1  0
 17 18  2  0
 18 19  1  0
 19 20  2  0
 20 21  1  0
 21 22  2  0
 22 23  1  0
 22 24  1  0
 24 25  2  0
 25 26  1  0
 26 27  2  0
 11  7  1  0
 16 12  1  0
 27 17  1  0
 26 20  1  0
  3 28  1  0
  4 29  1  0
  4 30  1  0
  8 31  1  0
  8 32  1  0
  9 33  1  0
  9 34  1  0
 10 35  1  0
 10 36  1  0
 11 37  1  6
 14 38  1  0
 15 39  1  0
 16 40  1  0
 18 41  1  0
 19 42  1  0
 21 43  1  0
 24 44  1  0
 25 45  1  0
M  END
>  <smiles>  (10) 
O=C(NCC(=O)N1CCC[C@@H]1c1ncc[nH]1)c1ccc2cc(F)ccc2n1

>  <score_type>  (10) 
oracle

>  <origin>  (10) 
autodockgpu

>  <m_score__min__energy>  (10) 
-8.2699999999999996

>  <m_primary>  (10) 
energy

>  <rmsd>  (10) 
2.0868833999358993

>  <m_score__min__rmsd>  (10) 
2.0868833999358993

>  <meeko>  (10) 
{"free_energy": -8.08, "intermolecular_energy": -9.57, "internal_energy": -1.23, "cluster_size": 30, "cluster_id": 1, "rank_in_cluster": 9}

>  <energy>  (10) 
-8.08

>  <cluster_rmsd>  (10) 
1.11

>  <cluster>  (10) 
1

$$$$

     RDKit          3D

 45 48  0  0  0  0  0  0  0  0999 V2000
  140.3910   71.5400  221.1240 O   0  0  0  0  0  0  0  0  0  0  0  0
  140.0120   71.9340  222.2550 C   0  0  0  0  0  0  0  0  0  0  0  0
  139.5930   73.2930  222.3490 N   0  0  0  0  0  0  0  0  0  0  0  0
  139.6360   74.0880  221.1620 C   0  0  0  0  0  0  0  0  0  0  0  0
  140.7520   75.0060  221.1160 C   0  0  0  0  0  0  0  0  0  0  0  0
  140.8400   75.7930  222.1610 O   0  0  0  0  0  0  0  0  0  0  0  0
  141.7770   75.2320  220.1850 N   0  0  0  0  0  0  0  0  0  0  0  0
  141.4850   75.9750  218.9380 C   0  0  0  0  0  0  0  0  0  0  0  0
  142.7640   76.6390  218.5530 C   0  0  0  0  0  0  0  0  0  0  0  0
  143.6940   76.3570  219.6850 C   0  0  0  0  0  0  0  0  0  0  0  0
  143.1840   74.9680  220.1130 C   0  0  2  0  0  0  0  0  0  0  0  0
  143.4430   73.9890  219.0410 C   0  0  0  0  0  0  0  0  0  0  0  0
  142.8080   72.8730  218.6860 N   0  0  0  0  0  0  0  0  0  0  0  0
  143.3800   72.2810  217.6210 C   0  0  0  0  0  0  0  0  0  0  0  0
  144.4470   73.0830  217.2870 C   0  0  0  0  0  0  0  0  0  0  0  0
  144.4700   74.0990  218.1460 N   0  0  0  0  0  0  0  0  0  0  0  0
  139.9790   71.0900  223.4390 C   0  0  0  0  0  0  0  0  0  0  0  0
  139.4630   69.8110  223.4080 C   0  0  0  0  0  0  0  0  0  0  0  0
  139.4060   68.9870  224.5110 C   0  0  0  0  0  0  0  0  0  0  0  0
  139.9000   69.4930  225.7020 C   0  0  0  0  0  0  0  0  0  0  0  0
  139.8680   68.7110  226.8390 C   0  0  0  0  0  0  0  0  0  0  0  0
  140.3630   69.2300  228.0130 C   0  0  0  0  0  0  0  0  0  0  0  0
  140.3320   68.4530  229.1430 F   0  0  0  0  0  0  0  0  0  0  0  0
  140.8760   70.5090  228.0330 C   0  0  0  0  0  0  0  0  0  0  0  0
  140.9270   71.3240  226.9200 C   0  0  0  0  0  0  0  0  0  0  0  0
  140.4170   70.7700  225.7410 C   0  0  0  0  0  0  0  0  0  0  0  0
  140.4560   71.5550  224.6310 N   0  0  0  0  0  0  0  0  0  0  0  0
  139.2790   73.6220  223.2900 H   0  0  0  0  0  0  0  0  0  0  0  0
  139.7050   73.4141  220.2953 H   0  0  0  0  0  0  0  0  0  0  0  0
  138.7195   74.6962  221.1497 H   0  0  0  0  0  0  0  0  0  0  0  0
  141.1590   75.2834  218.1472 H   0  0  0  0  0  0  0  0  0  0  0  0
  140.6759   76.7063  219.0819 H   0  0  0  0  0  0  0  0  0  0  0  0
  143.1541   76.2152  217.6159 H   0  0  0  0  0  0  0  0  0  0  0  0
  142.6365   77.7176  218.3785 H   0  0  0  0  0  0  0  0  0  0  0  0
  144.7421   76.3222  219.3529 H   0  0  0  0  0  0  0  0  0  0  0  0
  143.6957   77.1150  220.4821 H   0  0  0  0  0  0  0  0  0  0  0  0
  143.6396   74.5631  221.0287 H   0  0  0  0  0  0  0  0  0  0  0  0
  143.0619   71.3530  217.1233 H   0  0  0  0  0  0  0  0  0  0  0  0
  145.1527   72.9148  216.4602 H   0  0  0  0  0  0  0  0  0  0  0  0
  145.1560   74.8600  218.1360 H   0  0  0  0  0  0  0  0  0  0  0  0
  139.0764   69.4285  222.4518 H   0  0  0  0  0  0  0  0  0  0  0  0
  138.9866   67.9720  224.4484 H   0  0  0  0  0  0  0  0  0  0  0  0
  139.4545   67.6922  226.8070 H   0  0  0  0  0  0  0  0  0  0  0  0
  141.2647   70.9005  228.9847 H   0  0  0  0  0  0  0  0  0  0  0  0
  141.3415   72.3422  226.9577 H   0  0  0  0  0  0  0  0  0  0  0  0
  1  2  2  0
  2  3  1  0
  3  4  1  0
  4  5  1  0
  5  6  2  0
  5  7  1  0
  7  8  1  0
  8  9  1  0
  9 10  1  0
 10 11  1  0
 11 12  1  0
 12 13  2  0
 13 14  1  0
 14 15  2  0
 15 16  1  0
  2 17  1  0
 17 18  2  0
 18 19  1  0
 19 20  2  0
 20 21  1  0
 21 22  2  0
 22 23  1  0
 22 24  1  0
 24 25  2  0
 25 26  1  0
 26 27  2  0
 11  7  1  0
 16 12  1  0
 27 17  1  0
 26 20  1  0
  3 28  1  0
  4 29  1  0
  4 30  1  0
  8 31  1  0
  8 32  1  0
  9 33  1  0
  9 34  1  0
 10 35  1  0
 10 36  1  0
 11 37  1  1
 14 38  1  0
 15 39  1  0
 16 40  1  0
 18 41  1  0
 19 42  1  0
 21 43  1  0
 24 44  1  0
 25 45  1  0
M  END
>  <smiles>  (11) 
O=C(NCC(=O)N1CCC[C@@H]1c1ncc[nH]1)c1ccc2cc(F)ccc2n1

>  <score_type>  (11) 
oracle

>  <origin>  (11) 
autodockgpu

>  <m_score__min__energy>  (11) 
-8.2699999999999996

>  <m_primary>  (11) 
energy

>  <rmsd>  (11) 
3.769992205239876

>  <m_score__min__rmsd>  (11) 
3.769992205239876

>  <meeko>  (11) 
{"free_energy": -7.01, "intermolecular_energy": -8.5, "internal_energy": -1.5, "cluster_size": 10, "cluster_id": 2, "rank_in_cluster": 9}

>  <energy>  (11) 
-8.08

>  <cluster_rmsd>  (11) 
1.13

>  <cluster>  (11) 
1

$$$$

     RDKit          3D

 45 48  0  0  0  0  0  0  0  0999 V2000
  140.0480   73.0050  222.8440 O   0  0  0  0  0  0  0  0  0  0  0  0
  140.2180   71.7780  223.0560 C   0  0  0  0  0  0  0  0  0  0  0  0
  140.2050   70.9260  221.9140 N   0  0  0  0  0  0  0  0  0  0  0  0
  140.0060   71.5300  220.6340 C   0  0  0  0  0  0  0  0  0  0  0  0
  141.2210   72.0330  220.0320 C   0  0  0  0  0  0  0  0  0  0  0  0
  141.8580   71.1520  219.3000 O   0  0  0  0  0  0  0  0  0  0  0  0
  141.8660   73.2790  220.0590 N   0  0  0  0  0  0  0  0  0  0  0  0
  143.1190   73.4390  220.8310 C   0  0  0  0  0  0  0  0  0  0  0  0
  143.8840   74.5190  220.1410 C   0  0  0  0  0  0  0  0  0  0  0  0
  143.0880   74.8260  218.9180 C   0  0  0  0  0  0  0  0  0  0  0  0
  141.6660   74.5590  219.4460 C   0  0  2  0  0  0  0  0  0  0  0  0
  141.3260   75.5500  220.4850 C   0  0  0  0  0  0  0  0  0  0  0  0
  141.6010   76.8480  220.5970 N   0  0  0  0  0  0  0  0  0  0  0  0
  141.0770   77.3840  221.7150 C   0  0  0  0  0  0  0  0  0  0  0  0
  140.4290   76.3470  222.3470 C   0  0  0  0  0  0  0  0  0  0  0  0
  140.5880   75.2580  221.5980 N   0  0  0  0  0  0  0  0  0  0  0  0
  140.4230   71.2040  224.3770 C   0  0  0  0  0  0  0  0  0  0  0  0
  140.7680   71.9800  225.4630 C   0  0  0  0  0  0  0  0  0  0  0  0
  140.9800   71.4700  226.7260 C   0  0  0  0  0  0  0  0  0  0  0  0
  140.8330   70.1030  226.8860 C   0  0  0  0  0  0  0  0  0  0  0  0
  141.0330   69.5370  228.1300 C   0  0  0  0  0  0  0  0  0  0  0  0
  140.8820   68.1770  228.2690 C   0  0  0  0  0  0  0  0  0  0  0  0
  141.0810   67.6150  229.5050 F   0  0  0  0  0  0  0  0  0  0  0  0
  140.5370   67.4100  227.1770 C   0  0  0  0  0  0  0  0  0  0  0  0
  140.3280   67.9340  225.9180 C   0  0  0  0  0  0  0  0  0  0  0  0
  140.4880   69.3200  225.8050 C   0  0  0  0  0  0  0  0  0  0  0  0
  140.2870   69.8600  224.5730 N   0  0  0  0  0  0  0  0  0  0  0  0
  140.3450   69.9050  222.0900 H   0  0  0  0  0  0  0  0  0  0  0  0
  139.5699   70.7783  219.9596 H   0  0  0  0  0  0  0  0  0  0  0  0
  139.3420   72.3936  220.7864 H   0  0  0  0  0  0  0  0  0  0  0  0
  142.8959   73.7297  221.8682 H   0  0  0  0  0  0  0  0  0  0  0  0
  143.6914   72.5007  220.8746 H   0  0  0  0  0  0  0  0  0  0  0  0
  143.9655   75.4079  220.7839 H   0  0  0  0  0  0  0  0  0  0  0  0
  144.9127   74.2118  219.9013 H   0  0  0  0  0  0  0  0  0  0  0  0
  143.2153   75.8715  218.6005 H   0  0  0  0  0  0  0  0  0  0  0  0
  143.3668   74.2440  218.0272 H   0  0  0  0  0  0  0  0  0  0  0  0
  140.8684   74.6051  218.6899 H   0  0  0  0  0  0  0  0  0  0  0  0
  141.1509   78.4285  222.0519 H   0  0  0  0  0  0  0  0  0  0  0  0
  139.8796   76.4072  223.2981 H   0  0  0  0  0  0  0  0  0  0  0  0
  140.2080   74.3330  221.8190 H   0  0  0  0  0  0  0  0  0  0  0  0
  140.8801   73.0640  225.3137 H   0  0  0  0  0  0  0  0  0  0  0  0
  141.2539   72.1207  227.5695 H   0  0  0  0  0  0  0  0  0  0  0  0
  141.3077   70.1618  228.9927 H   0  0  0  0  0  0  0  0  0  0  0  0
  140.4225   66.3249  227.3164 H   0  0  0  0  0  0  0  0  0  0  0  0
  140.0536   67.3038  225.0592 H   0  0  0  0  0  0  0  0  0  0  0  0
  1  2  2  0
  2  3  1  0
  3  4  1  0
  4  5  1  0
  5  6  2  0
  5  7  1  0
  7  8  1  0
  8  9  1  0
  9 10  1  0
 10 11  1  0
 11 12  1  0
 12 13  2  0
 13 14  1  0
 14 15  2  0
 15 16  1  0
  2 17  1  0
 17 18  2  0
 18 19  1  0
 19 20  2  0
 20 21  1  0
 21 22  2  0
 22 23  1  0
 22 24  1  0
 24 25  2  0
 25 26  1  0
 26 27  2  0
 11  7  1  0
 16 12  1  0
 27 17  1  0
 26 20  1  0
  3 28  1  0
  4 29  1  0
  4 30  1  0
  8 31  1  0
  8 32  1  0
  9 33  1  0
  9 34  1  0
 10 35  1  0
 10 36  1  0
 11 37  1  6
 14 38  1  0
 15 39  1  0
 16 40  1  0
 18 41  1  0
 19 42  1  0
 21 43  1  0
 24 44  1  0
 25 45  1  0
M  END
>  <smiles>  (12) 
O=C(NCC(=O)N1CCC[C@@H]1c1ncc[nH]1)c1ccc2cc(F)ccc2n1

>  <score_type>  (12) 
oracle

>  <origin>  (12) 
autodockgpu

>  <m_score__min__energy>  (12) 
-8.2699999999999996

>  <m_primary>  (12) 
energy

>  <rmsd>  (12) 
3.624456668091419

>  <m_score__min__rmsd>  (12) 
3.624456668091419

>  <meeko>  (12) 
{"free_energy": -6.48, "intermolecular_energy": -7.97, "internal_energy": -2.52, "cluster_size": 3, "cluster_id": 4, "rank_in_cluster": 1}

>  <energy>  (12) 
-8.04

>  <cluster_rmsd>  (12) 
0.41

>  <cluster>  (12) 
1

$$$$

     RDKit          3D

 45 48  0  0  0  0  0  0  0  0999 V2000
  141.4600   72.5220  221.8540 O   0  0  0  0  0  0  0  0  0  0  0  0
  140.4390   72.5050  222.5860 C   0  0  0  0  0  0  0  0  0  0  0  0
  139.4250   73.4610  222.2880 N   0  0  0  0  0  0  0  0  0  0  0  0
  139.6490   74.3500  221.1920 C   0  0  0  0  0  0  0  0  0  0  0  0
  139.9070   75.7160  221.5930 C   0  0  0  0  0  0  0  0  0  0  0  0
  139.3650   76.0470  222.7400 O   0  0  0  0  0  0  0  0  0  0  0  0
  140.6280   76.7710  221.0140 N   0  0  0  0  0  0  0  0  0  0  0  0
  141.9740   76.5170  220.4510 C   0  0  0  0  0  0  0  0  0  0  0  0
  142.1530   77.5230  219.3620 C   0  0  0  0  0  0  0  0  0  0  0  0
  140.8340   78.2120  219.2620 C   0  0  0  0  0  0  0  0  0  0  0  0
  140.3870   78.1560  220.7350 C   0  0  2  0  0  0  0  0  0  0  0  0
  141.2860   78.9840  221.5610 C   0  0  0  0  0  0  0  0  0  0  0  0
  141.6730   80.2540  221.4520 N   0  0  0  0  0  0  0  0  0  0  0  0
  142.5020   80.6190  222.4480 C   0  0  0  0  0  0  0  0  0  0  0  0
  142.6430   79.4990  223.2340 C   0  0  0  0  0  0  0  0  0  0  0  0
  141.9100   78.5310  222.6890 N   0  0  0  0  0  0  0  0  0  0  0  0
  140.2480   71.5780  223.6910 C   0  0  0  0  0  0  0  0  0  0  0  0
  139.5690   70.3880  223.5350 C   0  0  0  0  0  0  0  0  0  0  0  0
  139.3600   69.4910  224.5590 C   0  0  0  0  0  0  0  0  0  0  0  0
  139.8690   69.8260  225.8030 C   0  0  0  0  0  0  0  0  0  0  0  0
  139.6890   68.9640  226.8670 C   0  0  0  0  0  0  0  0  0  0  0  0
  140.2020   69.3130  228.0950 C   0  0  0  0  0  0  0  0  0  0  0  0
  140.0240   68.4580  229.1520 F   0  0  0  0  0  0  0  0  0  0  0  0
  140.8790   70.5050  228.2400 C   0  0  0  0  0  0  0  0  0  0  0  0
  141.0810   71.3950  227.2050 C   0  0  0  0  0  0  0  0  0  0  0  0
  140.5490   71.0140  225.9680 C   0  0  0  0  0  0  0  0  0  0  0  0
  140.7350   71.8740  224.9310 N   0  0  0  0  0  0  0  0  0  0  0  0
  138.5760   73.4490  222.8980 H   0  0  0  0  0  0  0  0  0  0  0  0
  140.5163   73.9861  220.6216 H   0  0  0  0  0  0  0  0  0  0  0  0
  138.7263   74.3601  220.5932 H   0  0  0  0  0  0  0  0  0  0  0  0
  142.7445   76.6484  221.2250 H   0  0  0  0  0  0  0  0  0  0  0  0
  142.0684   75.4883  220.0730 H   0  0  0  0  0  0  0  0  0  0  0  0
  142.9461   78.2394  219.6223 H   0  0  0  0  0  0  0  0  0  0  0  0
  142.4526   77.0580  218.4112 H   0  0  0  0  0  0  0  0  0  0  0  0
  140.9409   79.2478  218.9075 H   0  0  0  0  0  0  0  0  0  0  0  0
  140.1297   77.7604  218.5478 H   0  0  0  0  0  0  0  0  0  0  0  0
  139.3634   78.5094  220.9283 H   0  0  0  0  0  0  0  0  0  0  0  0
  142.9677   81.6038  222.6008 H   0  0  0  0  0  0  0  0  0  0  0  0
  143.2511   79.4181  224.1471 H   0  0  0  0  0  0  0  0  0  0  0  0
  141.8190   77.5820  223.0640 H   0  0  0  0  0  0  0  0  0  0  0  0
  139.1728   70.1418  222.5388 H   0  0  0  0  0  0  0  0  0  0  0  0
  138.8132   68.5505  224.3963 H   0  0  0  0  0  0  0  0  0  0  0  0
  139.1459   68.0166  226.7352 H   0  0  0  0  0  0  0  0  0  0  0  0
  141.2790   70.7600  229.2324 H   0  0  0  0  0  0  0  0  0  0  0  0
  141.6243   72.3414  227.3432 H   0  0  0  0  0  0  0  0  0  0  0  0
  1  2  2  0
  2  3  1  0
  3  4  1  0
  4  5  1  0
  5  6  2  0
  5  7  1  0
  7  8  1  0
  8  9  1  0
  9 10  1  0
 10 11  1  0
 11 12  1  0
 12 13  2  0
 13 14  1  0
 14 15  2  0
 15 16  1  0
  2 17  1  0
 17 18  2  0
 18 19  1  0
 19 20  2  0
 20 21  1  0
 21 22  2  0
 22 23  1  0
 22 24  1  0
 24 25  2  0
 25 26  1  0
 26 27  2  0
 11  7  1  0
 16 12  1  0
 27 17  1  0
 26 20  1  0
  3 28  1  0
  4 29  1  0
  4 30  1  0
  8 31  1  0
  8 32  1  0
  9 33  1  0
  9 34  1  0
 10 35  1  0
 10 36  1  0
 11 37  1  6
 14 38  1  0
 15 39  1  0
 16 40  1  0
 18 41  1  0
 19 42  1  0
 21 43  1  0
 24 44  1  0
 25 45  1  0
M  END
>  <smiles>  (13) 
O=C(NCC(=O)N1CCC[C@@H]1c1ncc[nH]1)c1ccc2cc(F)ccc2n1

>  <score_type>  (13) 
oracle

>  <origin>  (13) 
autodockgpu

>  <m_score__min__energy>  (13) 
-8.2699999999999996

>  <m_primary>  (13) 
energy

>  <rmsd>  (13) 
2.063186605057643

>  <m_score__min__rmsd>  (13) 
2.063186605057643

>  <meeko>  (13) 
{"free_energy": -7.94, "intermolecular_energy": -9.43, "internal_energy": -1.45, "cluster_size": 30, "cluster_id": 1, "rank_in_cluster": 15}

>  <energy>  (13) 
-8.01

>  <cluster_rmsd>  (13) 
1.08

>  <cluster>  (13) 
1

$$$$

     RDKit          3D

 45 48  0  0  0  0  0  0  0  0999 V2000
  141.1930   72.3190  221.5370 O   0  0  0  0  0  0  0  0  0  0  0  0
  140.3310   72.4610  222.4400 C   0  0  0  0  0  0  0  0  0  0  0  0
  139.4640   73.5860  222.3220 N   0  0  0  0  0  0  0  0  0  0  0  0
  139.6420   74.4510  221.1980 C   0  0  0  0  0  0  0  0  0  0  0  0
  140.4260   75.6300  221.4900 C   0  0  0  0  0  0  0  0  0  0  0  0
  141.7090   75.3970  221.6320 O   0  0  0  0  0  0  0  0  0  0  0  0
  140.1050   76.9870  221.6480 N   0  0  0  0  0  0  0  0  0  0  0  0
  139.9820   77.8550  220.4550 C   0  0  0  0  0  0  0  0  0  0  0  0
  139.0100   78.9230  220.8300 C   0  0  0  0  0  0  0  0  0  0  0  0
  138.5130   78.5260  222.1800 C   0  0  0  0  0  0  0  0  0  0  0  0
  139.7760   77.8500  222.7440 C   0  0  2  0  0  0  0  0  0  0  0  0
  140.8450   78.8520  222.9150 C   0  0  0  0  0  0  0  0  0  0  0  0
  140.8520   80.0510  223.4950 N   0  0  0  0  0  0  0  0  0  0  0  0
  142.0650   80.6330  223.4400 C   0  0  0  0  0  0  0  0  0  0  0  0
  142.8710   79.7350  222.7790 C   0  0  0  0  0  0  0  0  0  0  0  0
  142.1260   78.6760  222.4730 N   0  0  0  0  0  0  0  0  0  0  0  0
  140.1790   71.5530  223.5660 C   0  0  0  0  0  0  0  0  0  0  0  0
  139.5320   70.3410  223.4440 C   0  0  0  0  0  0  0  0  0  0  0  0
  139.3610   69.4610  224.4900 C   0  0  0  0  0  0  0  0  0  0  0  0
  139.8750   69.8370  225.7200 C   0  0  0  0  0  0  0  0  0  0  0  0
  139.7320   68.9940  226.8040 C   0  0  0  0  0  0  0  0  0  0  0  0
  140.2500   69.3840  228.0170 C   0  0  0  0  0  0  0  0  0  0  0  0
  140.1080   68.5460  229.0950 F   0  0  0  0  0  0  0  0  0  0  0  0
  140.8940   70.5970  228.1290 C   0  0  0  0  0  0  0  0  0  0  0  0
  141.0580   71.4690  227.0730 C   0  0  0  0  0  0  0  0  0  0  0  0
  140.5230   71.0470  225.8510 C   0  0  0  0  0  0  0  0  0  0  0  0
  140.6730   71.8900  224.7940 N   0  0  0  0  0  0  0  0  0  0  0  0
  138.7480   73.7060  223.0740 H   0  0  0  0  0  0  0  0  0  0  0  0
  140.1483   73.8858  220.4017 H   0  0  0  0  0  0  0  0  0  0  0  0
  138.6420   74.7965  220.8969 H   0  0  0  0  0  0  0  0  0  0  0  0
  140.9568   78.2962  220.1998 H   0  0  0  0  0  0  0  0  0  0  0  0
  139.6430   77.2890  219.5748 H   0  0  0  0  0  0  0  0  0  0  0  0
  139.5078   79.9030  220.8727 H   0  0  0  0  0  0  0  0  0  0  0  0
  138.1945   79.0192  220.0980 H   0  0  0  0  0  0  0  0  0  0  0  0
  138.2162   79.3998  222.7786 H   0  0  0  0  0  0  0  0  0  0  0  0
  137.6132   77.8933  222.1740 H   0  0  0  0  0  0  0  0  0  0  0  0
  139.6476   77.3548  223.7178 H   0  0  0  0  0  0  0  0  0  0  0  0
  142.3509   81.6175  223.8389 H   0  0  0  0  0  0  0  0  0  0  0  0
  143.9377   79.8684  222.5459 H   0  0  0  0  0  0  0  0  0  0  0  0
  142.4630   77.8440  221.9800 H   0  0  0  0  0  0  0  0  0  0  0  0
  139.1310   70.0621  222.4584 H   0  0  0  0  0  0  0  0  0  0  0  0
  138.8393   68.5021  224.3544 H   0  0  0  0  0  0  0  0  0  0  0  0
  139.2139   68.0293  226.6996 H   0  0  0  0  0  0  0  0  0  0  0  0
  141.2980   70.8846  229.1109 H   0  0  0  0  0  0  0  0  0  0  0  0
  141.5756   72.4332  227.1843 H   0  0  0  0  0  0  0  0  0  0  0  0
  1  2  2  0
  2  3  1  0
  3  4  1  0
  4  5  1  0
  5  6  2  0
  5  7  1  0
  7  8  1  0
  8  9  1  0
  9 10  1  0
 10 11  1  0
 11 12  1  0
 12 13  2  0
 13 14  1  0
 14 15  2  0
 15 16  1  0
  2 17  1  0
 17 18  2  0
 18 19  1  0
 19 20  2  0
 20 21  1  0
 21 22  2  0
 22 23  1  0
 22 24  1  0
 24 25  2  0
 25 26  1  0
 26 27  2  0
 11  7  1  0
 16 12  1  0
 27 17  1  0
 26 20  1  0
  3 28  1  0
  4 29  1  0
  4 30  1  0
  8 31  1  0
  8 32  1  0
  9 33  1  0
  9 34  1  0
 10 35  1  0
 10 36  1  0
 11 37  1  1
 14 38  1  0
 15 39  1  0
 16 40  1  0
 18 41  1  0
 19 42  1  0
 21 43  1  0
 24 44  1  0
 25 45  1  0
M  END
>  <smiles>  (14) 
O=C(NCC(=O)N1CCC[C@@H]1c1ncc[nH]1)c1ccc2cc(F)ccc2n1

>  <score_type>  (14) 
oracle

>  <origin>  (14) 
autodockgpu

>  <m_score__min__energy>  (14) 
-8.2699999999999996

>  <m_primary>  (14) 
energy

>  <rmsd>  (14) 
2.544602294192544

>  <m_score__min__rmsd>  (14) 
2.544602294192544

>  <meeko>  (14) 
{"free_energy": -8.22, "intermolecular_energy": -9.71, "internal_energy": -1.46, "cluster_size": 30, "cluster_id": 1, "rank_in_cluster": 7}

>  <energy>  (14) 
-8.0

>  <cluster_rmsd>  (14) 
0.97

>  <cluster>  (14) 
1

$$$$

     RDKit          3D

 45 48  0  0  0  0  0  0  0  0999 V2000
  138.7580   72.3920  221.6710 O   0  0  0  0  0  0  0  0  0  0  0  0
  139.7410   72.1920  222.4270 C   0  0  0  0  0  0  0  0  0  0  0  0
  140.9300   72.9210  222.1320 N   0  0  0  0  0  0  0  0  0  0  0  0
  140.9050   73.8120  221.0150 C   0  0  0  0  0  0  0  0  0  0  0  0
  140.5330   75.1670  221.3590 C   0  0  0  0  0  0  0  0  0  0  0  0
  139.6760   75.2500  222.3480 O   0  0  0  0  0  0  0  0  0  0  0  0
  140.9030   76.4250  220.8600 N   0  0  0  0  0  0  0  0  0  0  0  0
  142.1810   76.5760  220.1270 C   0  0  0  0  0  0  0  0  0  0  0  0
  141.9710   77.7080  219.1770 C   0  0  0  0  0  0  0  0  0  0  0  0
  140.5270   78.0560  219.3150 C   0  0  0  0  0  0  0  0  0  0  0  0
  140.3110   77.7290  220.8050 C   0  0  2  0  0  0  0  0  0  0  0  0
  141.0980   78.6580  221.6380 C   0  0  0  0  0  0  0  0  0  0  0  0
  141.2850   79.9750  221.5650 N   0  0  0  0  0  0  0  0  0  0  0  0
  142.0780   80.4300  222.5530 C   0  0  0  0  0  0  0  0  0  0  0  0
  142.4090   79.3200  223.2960 C   0  0  0  0  0  0  0  0  0  0  0  0
  141.8150   78.2700  222.7350 N   0  0  0  0  0  0  0  0  0  0  0  0
  139.7220   71.2780  223.5580 C   0  0  0  0  0  0  0  0  0  0  0  0
  139.0220   70.0900  223.5250 C   0  0  0  0  0  0  0  0  0  0  0  0
  138.9740   69.2050  224.5800 C   0  0  0  0  0  0  0  0  0  0  0  0
  139.6740   69.5500  225.7240 C   0  0  0  0  0  0  0  0  0  0  0  0
  139.6600   68.7010  226.8120 C   0  0  0  0  0  0  0  0  0  0  0  0
  140.3620   69.0600  227.9400 C   0  0  0  0  0  0  0  0  0  0  0  0
  140.3490   68.2170  229.0220 F   0  0  0  0  0  0  0  0  0  0  0  0
  141.0580   70.2500  227.9630 C   0  0  0  0  0  0  0  0  0  0  0  0
  141.0980   71.1270  226.8990 C   0  0  0  0  0  0  0  0  0  0  0  0
  140.3760   70.7360  225.7660 C   0  0  0  0  0  0  0  0  0  0  0  0
  140.4000   71.5840  224.7030 N   0  0  0  0  0  0  0  0  0  0  0  0
  141.7490   72.7540  222.7590 H   0  0  0  0  0  0  0  0  0  0  0  0
  141.9081   73.8313  220.5639 H   0  0  0  0  0  0  0  0  0  0  0  0
  140.1393   73.4353  220.3209 H   0  0  0  0  0  0  0  0  0  0  0  0
  142.9985   76.8082  220.8254 H   0  0  0  0  0  0  0  0  0  0  0  0
  142.4588   75.6508  219.6008 H   0  0  0  0  0  0  0  0  0  0  0  0
  142.6042   78.5653  219.4492 H   0  0  0  0  0  0  0  0  0  0  0  0
  142.2372   77.4391  218.1441 H   0  0  0  0  0  0  0  0  0  0  0  0
  140.3413   79.1186  219.0997 H   0  0  0  0  0  0  0  0  0  0  0  0
  139.8557   77.5258  218.6235 H   0  0  0  0  0  0  0  0  0  0  0  0
  139.2698   77.7941  221.1538 H   0  0  0  0  0  0  0  0  0  0  0  0
  142.3943   81.4687  222.7291 H   0  0  0  0  0  0  0  0  0  0  0  0
  143.0484   79.3038  224.1910 H   0  0  0  0  0  0  0  0  0  0  0  0
  141.8800   77.3070  223.0780 H   0  0  0  0  0  0  0  0  0  0  0  0
  138.4724   69.8353  222.6068 H   0  0  0  0  0  0  0  0  0  0  0  0
  138.4048   68.2659  224.5163 H   0  0  0  0  0  0  0  0  0  0  0  0
  139.0986   67.7556  226.7782 H   0  0  0  0  0  0  0  0  0  0  0  0
  141.6100   70.5137  228.8772 H   0  0  0  0  0  0  0  0  0  0  0  0
  141.6605   72.0715  226.9386 H   0  0  0  0  0  0  0  0  0  0  0  0
  1  2  2  0
  2  3  1  0
  3  4  1  0
  4  5  1  0
  5  6  2  0
  5  7  1  0
  7  8  1  0
  8  9  1  0
  9 10  1  0
 10 11  1  0
 11 12  1  0
 12 13  2  0
 13 14  1  0
 14 15  2  0
 15 16  1  0
  2 17  1  0
 17 18  2  0
 18 19  1  0
 19 20  2  0
 20 21  1  0
 21 22  2  0
 22 23  1  0
 22 24  1  0
 24 25  2  0
 25 26  1  0
 26 27  2  0
 11  7  1  0
 16 12  1  0
 27 17  1  0
 26 20  1  0
  3 28  1  0
  4 29  1  0
  4 30  1  0
  8 31  1  0
  8 32  1  0
  9 33  1  0
  9 34  1  0
 10 35  1  0
 10 36  1  0
 11 37  1  1
 14 38  1  0
 15 39  1  0
 16 40  1  0
 18 41  1  0
 19 42  1  0
 21 43  1  0
 24 44  1  0
 25 45  1  0
M  END
>  <smiles>  (15) 
O=C(NCC(=O)N1CCC[C@@H]1c1ncc[nH]1)c1ccc2cc(F)ccc2n1

>  <score_type>  (15) 
oracle

>  <origin>  (15) 
autodockgpu

>  <m_score__min__energy>  (15) 
-8.2699999999999996

>  <m_primary>  (15) 
energy

>  <rmsd>  (15) 
2.101307465725

>  <m_score__min__rmsd>  (15) 
2.101307465725

>  <meeko>  (15) 
{"free_energy": -7.42, "intermolecular_energy": -8.92, "internal_energy": -1.47, "cluster_size": 30, "cluster_id": 1, "rank_in_cluster": 27}

>  <energy>  (15) 
-7.94

>  <cluster_rmsd>  (15) 
1.04

>  <cluster>  (15) 
1

$$$$

     RDKit          3D

 45 48  0  0  0  0  0  0  0  0999 V2000
  139.2260   76.3470  220.4590 O   0  0  0  0  0  0  0  0  0  0  0  0
  139.6690   75.5810  221.3510 C   0  0  0  0  0  0  0  0  0  0  0  0
  139.0110   75.6280  222.6150 N   0  0  0  0  0  0  0  0  0  0  0  0
  137.9130   76.5300  222.7620 C   0  0  0  0  0  0  0  0  0  0  0  0
  138.2970   77.9250  222.7340 C   0  0  0  0  0  0  0  0  0  0  0  0
  137.2870   78.7580  222.7940 O   0  0  0  0  0  0  0  0  0  0  0  0
  139.5340   78.5820  222.6630 N   0  0  0  0  0  0  0  0  0  0  0  0
  139.6000   80.0460  222.8770 C   0  0  0  0  0  0  0  0  0  0  0  0
  140.9600   80.3150  223.4280 C   0  0  0  0  0  0  0  0  0  0  0  0
  141.5570   78.9630  223.6380 C   0  0  0  0  0  0  0  0  0  0  0  0
  140.9020   78.1950  222.4760 C   0  0  2  0  0  0  0  0  0  0  0  0
  141.3880   78.7270  221.1890 C   0  0  0  0  0  0  0  0  0  0  0  0
  141.8160   79.9370  220.8330 N   0  0  0  0  0  0  0  0  0  0  0  0
  142.1880   79.9840  219.5410 C   0  0  0  0  0  0  0  0  0  0  0  0
  141.9780   78.7150  219.0530 C   0  0  0  0  0  0  0  0  0  0  0  0
  141.4990   77.9760  220.0520 N   0  0  0  0  0  0  0  0  0  0  0  0
  140.7880   74.6730  221.1580 C   0  0  0  0  0  0  0  0  0  0  0  0
  140.6570   73.3090  221.3240 C   0  0  0  0  0  0  0  0  0  0  0  0
  141.6960   72.4190  221.1590 C   0  0  0  0  0  0  0  0  0  0  0  0
  142.9270   72.9470  220.8100 C   0  0  0  0  0  0  0  0  0  0  0  0
  144.0040   72.1010  220.6320 C   0  0  0  0  0  0  0  0  0  0  0  0
  145.2200   72.6430  220.2840 C   0  0  0  0  0  0  0  0  0  0  0  0
  146.2900   71.8030  220.1080 F   0  0  0  0  0  0  0  0  0  0  0  0
  145.3410   74.0070  220.1220 C   0  0  0  0  0  0  0  0  0  0  0  0
  144.2910   74.8870  220.2900 C   0  0  0  0  0  0  0  0  0  0  0  0
  143.0670   74.3080  220.6430 C   0  0  0  0  0  0  0  0  0  0  0  0
  142.0170   75.1560  220.8140 N   0  0  0  0  0  0  0  0  0  0  0  0
  139.3800   74.9920  223.3580 H   0  0  0  0  0  0  0  0  0  0  0  0
  137.2029   76.3490  221.9416 H   0  0  0  0  0  0  0  0  0  0  0  0
  137.4706   76.3387  223.7508 H   0  0  0  0  0  0  0  0  0  0  0  0
  139.4600   80.5790  221.9250 H   0  0  0  0  0  0  0  0  0  0  0  0
  138.8105   80.3914  223.5606 H   0  0  0  0  0  0  0  0  0  0  0  0
  141.5600   80.8974  222.7133 H   0  0  0  0  0  0  0  0  0  0  0  0
  140.9243   80.9034  224.3567 H   0  0  0  0  0  0  0  0  0  0  0  0
  142.6531   78.9827  223.5473 H   0  0  0  0  0  0  0  0  0  0  0  0
  141.3829   78.5305  224.6343 H   0  0  0  0  0  0  0  0  0  0  0  0
  141.0928   77.1117  222.4637 H   0  0  0  0  0  0  0  0  0  0  0  0
  142.5777   80.8533  218.9911 H   0  0  0  0  0  0  0  0  0  0  0  0
  142.1706   78.3732  218.0253 H   0  0  0  0  0  0  0  0  0  0  0  0
  141.2540   76.9840  219.9830 H   0  0  0  0  0  0  0  0  0  0  0  0
  139.6702   72.9111  221.6030 H   0  0  0  0  0  0  0  0  0  0  0  0
  141.5535   71.3372  221.2984 H   0  0  0  0  0  0  0  0  0  0  0  0
  143.8919   71.0149  220.7658 H   0  0  0  0  0  0  0  0  0  0  0  0
  146.3244   74.4145  219.8448 H   0  0  0  0  0  0  0  0  0  0  0  0
  144.4087   75.9724  220.1552 H   0  0  0  0  0  0  0  0  0  0  0  0
  1  2  2  0
  2  3  1  0
  3  4  1  0
  4  5  1  0
  5  6  2  0
  5  7  1  0
  7  8  1  0
  8  9  1  0
  9 10  1  0
 10 11  1  0
 11 12  1  0
 12 13  2  0
 13 14  1  0
 14 15  2  0
 15 16  1  0
  2 17  1  0
 17 18  2  0
 18 19  1  0
 19 20  2  0
 20 21  1  0
 21 22  2  0
 22 23  1  0
 22 24  1  0
 24 25  2  0
 25 26  1  0
 26 27  2  0
 11  7  1  0
 16 12  1  0
 27 17  1  0
 26 20  1  0
  3 28  1  0
  4 29  1  0
  4 30  1  0
  8 31  1  0
  8 32  1  0
  9 33  1  0
  9 34  1  0
 10 35  1  0
 10 36  1  0
 11 37  1  1
 14 38  1  0
 15 39  1  0
 16 40  1  0
 18 41  1  0
 19 42  1  0
 21 43  1  0
 24 44  1  0
 25 45  1  0
M  END
>  <smiles>  (16) 
O=C(NCC(=O)N1CCC[C@@H]1c1ncc[nH]1)c1ccc2cc(F)ccc2n1

>  <score_type>  (16) 
oracle

>  <origin>  (16) 
autodockgpu

>  <m_score__min__energy>  (16) 
-8.2699999999999996

>  <m_primary>  (16) 
energy

>  <rmsd>  (16) 
6.037774619156154

>  <m_score__min__rmsd>  (16) 
6.037774619156154

>  <meeko>  (16) 
{"free_energy": -5.98, "intermolecular_energy": -7.47, "internal_energy": -2.86, "cluster_size": 5, "cluster_id": 6, "rank_in_cluster": 5}

>  <energy>  (16) 
-7.9

>  <cluster_rmsd>  (16) 
1.09

>  <cluster>  (16) 
1

$$$$

     RDKit          3D

 45 48  0  0  0  0  0  0  0  0999 V2000
  141.2920   72.5860  221.8070 O   0  0  0  0  0  0  0  0  0  0  0  0
  140.3110   72.5330  222.5900 C   0  0  0  0  0  0  0  0  0  0  0  0
  139.2670   73.4770  222.3670 N   0  0  0  0  0  0  0  0  0  0  0  0
  139.4180   74.3950  221.2830 C   0  0  0  0  0  0  0  0  0  0  0  0
  140.1840   75.5750  221.6210 C   0  0  0  0  0  0  0  0  0  0  0  0
  141.4350   75.3290  221.9250 O   0  0  0  0  0  0  0  0  0  0  0  0
  139.8720   76.9410  221.6870 N   0  0  0  0  0  0  0  0  0  0  0  0
  139.8790   77.7550  220.4500 C   0  0  0  0  0  0  0  0  0  0  0  0
  138.8920   78.8510  220.6820 C   0  0  0  0  0  0  0  0  0  0  0  0
  138.2610   78.5230  221.9930 C   0  0  0  0  0  0  0  0  0  0  0  0
  139.4520   77.8570  222.7070 C   0  0  2  0  0  0  0  0  0  0  0  0
  140.5160   78.8520  222.9360 C   0  0  0  0  0  0  0  0  0  0  0  0
  140.4770   80.1050  223.3860 N   0  0  0  0  0  0  0  0  0  0  0  0
  141.7030   80.6570  223.4570 C   0  0  0  0  0  0  0  0  0  0  0  0
  142.5690   79.6810  223.0220 C   0  0  0  0  0  0  0  0  0  0  0  0
  141.8430   78.6080  222.7150 N   0  0  0  0  0  0  0  0  0  0  0  0
  140.1930   71.5780  223.6800 C   0  0  0  0  0  0  0  0  0  0  0  0
  139.5930   70.3470  223.5100 C   0  0  0  0  0  0  0  0  0  0  0  0
  139.4560   69.4210  224.5210 C   0  0  0  0  0  0  0  0  0  0  0  0
  139.9540   69.7690  225.7660 C   0  0  0  0  0  0  0  0  0  0  0  0
  139.8420   68.8790  226.8160 C   0  0  0  0  0  0  0  0  0  0  0  0
  140.3430   69.2420  228.0450 C   0  0  0  0  0  0  0  0  0  0  0  0
  140.2330   68.3590  229.0890 F   0  0  0  0  0  0  0  0  0  0  0  0
  140.9410   70.4740  228.2050 C   0  0  0  0  0  0  0  0  0  0  0  0
  141.0720   71.3920  227.1830 C   0  0  0  0  0  0  0  0  0  0  0  0
  140.5540   70.9970  225.9440 C   0  0  0  0  0  0  0  0  0  0  0  0
  140.6720   71.8850  224.9210 N   0  0  0  0  0  0  0  0  0  0  0  0
  138.4500   73.4350  223.0190 H   0  0  0  0  0  0  0  0  0  0  0  0
  139.9264   73.8761  220.4570 H   0  0  0  0  0  0  0  0  0  0  0  0
  138.4088   74.7354  221.0078 H   0  0  0  0  0  0  0  0  0  0  0  0
  140.8809   78.1726  220.2713 H   0  0  0  0  0  0  0  0  0  0  0  0
  139.6178   77.1536  219.5668 H   0  0  0  0  0  0  0  0  0  0  0  0
  139.3992   79.8259  220.7291 H   0  0  0  0  0  0  0  0  0  0  0  0
  138.1522   78.9226  219.8711 H   0  0  0  0  0  0  0  0  0  0  0  0
  137.9231   79.4272  222.5205 H   0  0  0  0  0  0  0  0  0  0  0  0
  137.3553   77.9022  221.9277 H   0  0  0  0  0  0  0  0  0  0  0  0
  139.2209   77.4081  223.6843 H   0  0  0  0  0  0  0  0  0  0  0  0
  141.9580   81.6733  223.7919 H   0  0  0  0  0  0  0  0  0  0  0  0
  143.6624   79.7706  222.9423 H   0  0  0  0  0  0  0  0  0  0  0  0
  142.2220   77.7230  222.3670 H   0  0  0  0  0  0  0  0  0  0  0  0
  139.2031   70.0913  222.5137 H   0  0  0  0  0  0  0  0  0  0  0  0
  138.9725   68.4483  224.3472 H   0  0  0  0  0  0  0  0  0  0  0  0
  139.3620   67.8997  226.6727 H   0  0  0  0  0  0  0  0  0  0  0  0
  141.3336   70.7386  229.1979 H   0  0  0  0  0  0  0  0  0  0  0  0
  141.5522   72.3703  227.3323 H   0  0  0  0  0  0  0  0  0  0  0  0
  1  2  2  0
  2  3  1  0
  3  4  1  0
  4  5  1  0
  5  6  2  0
  5  7  1  0
  7  8  1  0
  8  9  1  0
  9 10  1  0
 10 11  1  0
 11 12  1  0
 12 13  2  0
 13 14  1  0
 14 15  2  0
 15 16  1  0
  2 17  1  0
 17 18  2  0
 18 19  1  0
 19 20  2  0
 20 21  1  0
 21 22  2  0
 22 23  1  0
 22 24  1  0
 24 25  2  0
 25 26  1  0
 26 27  2  0
 11  7  1  0
 16 12  1  0
 27 17  1  0
 26 20  1  0
  3 28  1  0
  4 29  1  0
  4 30  1  0
  8 31  1  0
  8 32  1  0
  9 33  1  0
  9 34  1  0
 10 35  1  0
 10 36  1  0
 11 37  1  1
 14 38  1  0
 15 39  1  0
 16 40  1  0
 18 41  1  0
 19 42  1  0
 21 43  1  0
 24 44  1  0
 25 45  1  0
M  END
>  <smiles>  (17) 
O=C(NCC(=O)N1CCC[C@@H]1c1ncc[nH]1)c1ccc2cc(F)ccc2n1

>  <score_type>  (17) 
oracle

>  <origin>  (17) 
autodockgpu

>  <m_score__min__energy>  (17) 
-8.2699999999999996

>  <m_primary>  (17) 
energy

>  <rmsd>  (17) 
2.5155040258093204

>  <m_score__min__rmsd>  (17) 
2.5155040258093204

>  <meeko>  (17) 
{"free_energy": -8.27, "intermolecular_energy": -9.76, "internal_energy": -1.45, "cluster_size": 30, "cluster_id": 1, "rank_in_cluster": 1}

>  <energy>  (17) 
-7.9

>  <cluster_rmsd>  (17) 
1.01

>  <cluster>  (17) 
1

$$$$

     RDKit          3D

 45 48  0  0  0  0  0  0  0  0999 V2000
  141.4970   71.7460  222.2490 O   0  0  0  0  0  0  0  0  0  0  0  0
  140.5820   71.8880  223.0980 C   0  0  0  0  0  0  0  0  0  0  0  0
  139.4600   72.6730  222.7010 N   0  0  0  0  0  0  0  0  0  0  0  0
  139.4660   73.2250  221.3830 C   0  0  0  0  0  0  0  0  0  0  0  0
  140.4340   74.2840  221.1990 C   0  0  0  0  0  0  0  0  0  0  0  0
  140.2380   75.3260  221.9700 O   0  0  0  0  0  0  0  0  0  0  0  0
  141.5550   74.4310  220.3690 N   0  0  0  0  0  0  0  0  0  0  0  0
  141.5510   73.8270  219.0170 C   0  0  0  0  0  0  0  0  0  0  0  0
  142.4480   74.6860  218.1880 C   0  0  0  0  0  0  0  0  0  0  0  0
  142.8080   75.8280  219.0770 C   0  0  0  0  0  0  0  0  0  0  0  0
  142.8130   75.1160  220.4430 C   0  0  2  0  0  0  0  0  0  0  0  0
  143.9050   74.1260  220.4860 C   0  0  0  0  0  0  0  0  0  0  0  0
  143.8960   72.7940  220.5070 N   0  0  0  0  0  0  0  0  0  0  0  0
  145.1390   72.2780  220.5290 C   0  0  0  0  0  0  0  0  0  0  0  0
  145.9850   73.3630  220.5220 C   0  0  0  0  0  0  0  0  0  0  0  0
  145.2300   74.4600  220.4960 N   0  0  0  0  0  0  0  0  0  0  0  0
  140.6130   71.3040  224.4290 C   0  0  0  0  0  0  0  0  0  0  0  0
  141.0510   72.0140  225.5270 C   0  0  0  0  0  0  0  0  0  0  0  0
  141.1030   71.4920  226.8010 C   0  0  0  0  0  0  0  0  0  0  0  0
  140.6880   70.1800  226.9610 C   0  0  0  0  0  0  0  0  0  0  0  0
  140.7200   69.6040  228.2160 C   0  0  0  0  0  0  0  0  0  0  0  0
  140.3040   68.3010  228.3550 C   0  0  0  0  0  0  0  0  0  0  0  0
  140.3340   67.7280  229.6010 F   0  0  0  0  0  0  0  0  0  0  0  0
  139.8670   67.5990  227.2510 C   0  0  0  0  0  0  0  0  0  0  0  0
  139.8210   68.1350  225.9810 C   0  0  0  0  0  0  0  0  0  0  0  0
  140.2490   69.4630  225.8690 C   0  0  0  0  0  0  0  0  0  0  0  0
  140.2120   70.0140  224.6260 N   0  0  0  0  0  0  0  0  0  0  0  0
  138.6990   72.7930  223.4080 H   0  0  0  0  0  0  0  0  0  0  0  0
  139.6940   72.4188  220.6702 H   0  0  0  0  0  0  0  0  0  0  0  0
  138.4723   73.6660  221.2153 H   0  0  0  0  0  0  0  0  0  0  0  0
  141.9350   72.7969  219.0560 H   0  0  0  0  0  0  0  0  0  0  0  0
  140.5353   73.7772  218.5976 H   0  0  0  0  0  0  0  0  0  0  0  0
  143.3482   74.1299  217.8874 H   0  0  0  0  0  0  0  0  0  0  0  0
  141.9623   75.0193  217.2590 H   0  0  0  0  0  0  0  0  0  0  0  0
  143.7966   76.2418  218.8292 H   0  0  0  0  0  0  0  0  0  0  0  0
  142.1351   76.6956  219.0104 H   0  0  0  0  0  0  0  0  0  0  0  0
  142.9469   75.7741  221.3142 H   0  0  0  0  0  0  0  0  0  0  0  0
  145.4190   71.2144  220.5485 H   0  0  0  0  0  0  0  0  0  0  0  0
  147.0844   73.3304  220.5354 H   0  0  0  0  0  0  0  0  0  0  0  0
  145.5900   75.4190  220.4800 H   0  0  0  0  0  0  0  0  0  0  0  0
  141.3767   73.0540  225.3775 H   0  0  0  0  0  0  0  0  0  0  0  0
  141.4582   72.0903  227.6530 H   0  0  0  0  0  0  0  0  0  0  0  0
  141.0714   70.1765  229.0871 H   0  0  0  0  0  0  0  0  0  0  0  0
  139.5384   66.5585  227.3906 H   0  0  0  0  0  0  0  0  0  0  0  0
  139.4710   67.5568  225.1131 H   0  0  0  0  0  0  0  0  0  0  0  0
  1  2  2  0
  2  3  1  0
  3  4  1  0
  4  5  1  0
  5  6  2  0
  5  7  1  0
  7  8  1  0
  8  9  1  0
  9 10  1  0
 10 11  1  0
 11 12  1  0
 12 13  2  0
 13 14  1  0
 14 15  2  0
 15 16  1  0
  2 17  1  0
 17 18  2  0
 18 19  1  0
 19 20  2  0
 20 21  1  0
 21 22  2  0
 22 23  1  0
 22 24  1  0
 24 25  2  0
 25 26  1  0
 26 27  2  0
 11  7  1  0
 16 12  1  0
 27 17  1  0
 26 20  1  0
  3 28  1  0
  4 29  1  0
  4 30  1  0
  8 31  1  0
  8 32  1  0
  9 33  1  0
  9 34  1  0
 10 35  1  0
 10 36  1  0
 11 37  1  1
 14 38  1  0
 15 39  1  0
 16 40  1  0
 18 41  1  0
 19 42  1  0
 21 43  1  0
 24 44  1  0
 25 45  1  0
M  END
>  <smiles>  (18) 
O=C(NCC(=O)N1CCC[C@@H]1c1ncc[nH]1)c1ccc2cc(F)ccc2n1

>  <score_type>  (18) 
oracle

>  <origin>  (18) 
autodockgpu

>  <m_score__min__energy>  (18) 
-8.2699999999999996

>  <m_primary>  (18) 
energy

>  <rmsd>  (18) 
4.074327027485194

>  <m_score__min__rmsd>  (18) 
4.074327027485194

>  <meeko>  (18) 
{"free_energy": -7.46, "intermolecular_energy": -8.95, "internal_energy": -1.4, "cluster_size": 10, "cluster_id": 2, "rank_in_cluster": 2}

>  <energy>  (18) 
-7.9

>  <cluster_rmsd>  (18) 
1.12

>  <cluster>  (18) 
1

$$$$

     RDKit          3D

 45 48  0  0  0  0  0  0  0  0999 V2000
  139.4430   76.3290  220.3070 O   0  0  0  0  0  0  0  0  0  0  0  0
  139.8210   75.5110  221.1820 C   0  0  0  0  0  0  0  0  0  0  0  0
  139.1060   75.5220  222.4150 N   0  0  0  0  0  0  0  0  0  0  0  0
  138.0290   76.4510  222.5530 C   0  0  0  0  0  0  0  0  0  0  0  0
  138.4610   77.8180  222.7460 C   0  0  0  0  0  0  0  0  0  0  0  0
  137.4970   78.6390  223.0880 O   0  0  0  0  0  0  0  0  0  0  0  0
  139.7050   78.4590  222.6520 N   0  0  0  0  0  0  0  0  0  0  0  0
  139.8050   79.9110  222.9270 C   0  0  0  0  0  0  0  0  0  0  0  0
  141.1920   80.1320  223.4320 C   0  0  0  0  0  0  0  0  0  0  0  0
  141.7730   78.7640  223.5570 C   0  0  0  0  0  0  0  0  0  0  0  0
  141.0570   78.0580  222.3910 C   0  0  2  0  0  0  0  0  0  0  0  0
  141.4990   78.6390  221.1100 C   0  0  0  0  0  0  0  0  0  0  0  0
  141.8290   79.8830  220.7650 N   0  0  0  0  0  0  0  0  0  0  0  0
  142.1960   79.9710  219.4740 C   0  0  0  0  0  0  0  0  0  0  0  0
  142.0880   78.6930  218.9750 C   0  0  0  0  0  0  0  0  0  0  0  0
  141.6700   77.9100  219.9660 N   0  0  0  0  0  0  0  0  0  0  0  0
  140.9200   74.5770  220.9990 C   0  0  0  0  0  0  0  0  0  0  0  0
  140.7480   73.2140  221.1230 C   0  0  0  0  0  0  0  0  0  0  0  0
  141.7670   72.3000  220.9670 C   0  0  0  0  0  0  0  0  0  0  0  0
  143.0230   72.8020  220.6700 C   0  0  0  0  0  0  0  0  0  0  0  0
  144.0820   71.9320  220.5030 C   0  0  0  0  0  0  0  0  0  0  0  0
  145.3220   72.4490  220.2080 C   0  0  0  0  0  0  0  0  0  0  0  0
  146.3740   71.5850  220.0420 F   0  0  0  0  0  0  0  0  0  0  0  0
  145.4850   73.8120  220.0860 C   0  0  0  0  0  0  0  0  0  0  0  0
  144.4540   74.7160  220.2460 C   0  0  0  0  0  0  0  0  0  0  0  0
  143.2040   74.1630  220.5440 C   0  0  0  0  0  0  0  0  0  0  0  0
  142.1730   75.0340  220.7060 N   0  0  0  0  0  0  0  0  0  0  0  0
  139.4210   74.8430  223.1450 H   0  0  0  0  0  0  0  0  0  0  0  0
  137.4134   76.4067  221.6425 H   0  0  0  0  0  0  0  0  0  0  0  0
  137.4680   76.1611  223.4537 H   0  0  0  0  0  0  0  0  0  0  0  0
  139.6356   80.4883  222.0061 H   0  0  0  0  0  0  0  0  0  0  0  0
  139.0502   80.2388  223.6569 H   0  0  0  0  0  0  0  0  0  0  0  0
  141.7725   80.7361  222.7192 H   0  0  0  0  0  0  0  0  0  0  0  0
  141.2047   80.6780  224.3869 H   0  0  0  0  0  0  0  0  0  0  0  0
  142.8645   78.7707  223.4210 H   0  0  0  0  0  0  0  0  0  0  0  0
  141.6326   78.2905  224.5399 H   0  0  0  0  0  0  0  0  0  0  0  0
  141.2274   76.9734  222.3235 H   0  0  0  0  0  0  0  0  0  0  0  0
  142.5149   80.8734  218.9318 H   0  0  0  0  0  0  0  0  0  0  0  0
  142.3073   78.3766  217.9446 H   0  0  0  0  0  0  0  0  0  0  0  0
  141.5050   76.9020  219.8880 H   0  0  0  0  0  0  0  0  0  0  0  0
  139.7423   72.8362  221.3594 H   0  0  0  0  0  0  0  0  0  0  0  0
  141.5907   71.2195  221.0736 H   0  0  0  0  0  0  0  0  0  0  0  0
  143.9369   70.8463  220.6039 H   0  0  0  0  0  0  0  0  0  0  0  0
  146.4870   74.1991  219.8492 H   0  0  0  0  0  0  0  0  0  0  0  0
  144.6055   75.8009  220.1457 H   0  0  0  0  0  0  0  0  0  0  0  0
  1  2  2  0
  2  3  1  0
  3  4  1  0
  4  5  1  0
  5  6  2  0
  5  7  1  0
  7  8  1  0
  8  9  1  0
  9 10  1  0
 10 11  1  0
 11 12  1  0
 12 13  2  0
 13 14  1  0
 14 15  2  0
 15 16  1  0
  2 17  1  0
 17 18  2  0
 18 19  1  0
 19 20  2  0
 20 21  1  0
 21 22  2  0
 22 23  1  0
 22 24  1  0
 24 25  2  0
 25 26  1  0
 26 27  2  0
 11  7  1  0
 16 12  1  0
 27 17  1  0
 26 20  1  0
  3 28  1  0
  4 29  1  0
  4 30  1  0
  8 31  1  0
  8 32  1  0
  9 33  1  0
  9 34  1  0
 10 35  1  0
 10 36  1  0
 11 37  1  6
 14 38  1  0
 15 39  1  0
 16 40  1  0
 18 41  1  0
 19 42  1  0
 21 43  1  0
 24 44  1  0
 25 45  1  0
M  END
>  <smiles>  (19) 
O=C(NCC(=O)N1CCC[C@@H]1c1ncc[nH]1)c1ccc2cc(F)ccc2n1

>  <score_type>  (19) 
oracle

>  <origin>  (19) 
autodockgpu

>  <m_score__min__energy>  (19) 
-8.2699999999999996

>  <m_primary>  (19) 
energy

>  <rmsd>  (19) 
6.027010773837264

>  <m_score__min__rmsd>  (19) 
6.027010773837264

>  <meeko>  (19) 
{"free_energy": -6.13, "intermolecular_energy": -7.62, "internal_energy": -2.8, "cluster_size": 5, "cluster_id": 6, "rank_in_cluster": 1}

>  <energy>  (19) 
-7.89

>  <cluster_rmsd>  (19) 
1.12

>  <cluster>  (19) 
1

$$$$

     RDKit          3D

 45 48  0  0  0  0  0  0  0  0999 V2000
  141.1840   72.0910  221.3480 O   0  0  0  0  0  0  0  0  0  0  0  0
  140.5030   72.4080  222.3550 C   0  0  0  0  0  0  0  0  0  0  0  0
  139.9160   73.7070  222.3450 N   0  0  0  0  0  0  0  0  0  0  0  0
  140.1460   74.5330  221.2020 C   0  0  0  0  0  0  0  0  0  0  0  0
  139.2470   75.6630  221.1100 C   0  0  0  0  0  0  0  0  0  0  0  0
  137.9880   75.3310  220.9600 O   0  0  0  0  0  0  0  0  0  0  0  0
  139.4370   77.0520  221.1550 N   0  0  0  0  0  0  0  0  0  0  0  0
  140.2130   77.7210  220.0860 C   0  0  0  0  0  0  0  0  0  0  0  0
  139.6690   79.1080  219.9990 C   0  0  0  0  0  0  0  0  0  0  0  0
  138.5050   79.1180  220.9310 C   0  0  0  0  0  0  0  0  0  0  0  0
  139.0040   78.1270  221.9980 C   0  0  2  0  0  0  0  0  0  0  0  0
  140.1700   78.6960  222.7010 C   0  0  0  0  0  0  0  0  0  0  0  0
  140.3470   79.8560  223.3300 N   0  0  0  0  0  0  0  0  0  0  0  0
  141.5820   79.9650  223.8550 C   0  0  0  0  0  0  0  0  0  0  0  0
  142.2220   78.7910  223.5300 C   0  0  0  0  0  0  0  0  0  0  0  0
  141.3630   78.0440  222.8400 N   0  0  0  0  0  0  0  0  0  0  0  0
  140.2890   71.5340  223.4980 C   0  0  0  0  0  0  0  0  0  0  0  0
  139.6280   70.3280  223.3800 C   0  0  0  0  0  0  0  0  0  0  0  0
  139.3990   69.4790  224.4400 C   0  0  0  0  0  0  0  0  0  0  0  0
  139.8660   69.8810  225.6810 C   0  0  0  0  0  0  0  0  0  0  0  0
  139.6630   69.0690  226.7800 C   0  0  0  0  0  0  0  0  0  0  0  0
  140.1340   69.4850  228.0040 C   0  0  0  0  0  0  0  0  0  0  0  0
  139.9330   68.6790  229.0960 F   0  0  0  0  0  0  0  0  0  0  0  0
  140.7920   70.6910  228.1110 C   0  0  0  0  0  0  0  0  0  0  0  0
  141.0150   71.5320  227.0400 C   0  0  0  0  0  0  0  0  0  0  0  0
  140.5260   71.0840  225.8070 C   0  0  0  0  0  0  0  0  0  0  0  0
  140.7340   71.8960  224.7360 N   0  0  0  0  0  0  0  0  0  0  0  0
  139.3510   73.9720  223.1830 H   0  0  0  0  0  0  0  0  0  0  0  0
  141.1772   74.9128  221.2500 H   0  0  0  0  0  0  0  0  0  0  0  0
  139.9692   73.9087  220.3137 H   0  0  0  0  0  0  0  0  0  0  0  0
  141.2818   77.7439  220.3451 H   0  0  0  0  0  0  0  0  0  0  0  0
  140.1244   77.1895  219.1270 H   0  0  0  0  0  0  0  0  0  0  0  0
  140.4252   79.8417  220.3151 H   0  0  0  0  0  0  0  0  0  0  0  0
  139.3819   79.3785  218.9721 H   0  0  0  0  0  0  0  0  0  0  0  0
  138.3299   80.1183  221.3538 H   0  0  0  0  0  0  0  0  0  0  0  0
  137.5417   78.8543  220.4700 H   0  0  0  0  0  0  0  0  0  0  0  0
  138.2674   77.8592  222.7699 H   0  0  0  0  0  0  0  0  0  0  0  0
  141.9924   80.8128  224.4232 H   0  0  0  0  0  0  0  0  0  0  0  0
  143.2551   78.5193  223.7925 H   0  0  0  0  0  0  0  0  0  0  0  0
  141.5630   77.1100  222.4700 H   0  0  0  0  0  0  0  0  0  0  0  0
  139.2646   70.0289  222.3858 H   0  0  0  0  0  0  0  0  0  0  0  0
  138.8690   68.5243  224.3073 H   0  0  0  0  0  0  0  0  0  0  0  0
  139.1354   68.1091  226.6786 H   0  0  0  0  0  0  0  0  0  0  0  0
  141.1584   70.9992  229.1013 H   0  0  0  0  0  0  0  0  0  0  0  0
  141.5423   72.4913  227.1479 H   0  0  0  0  0  0  0  0  0  0  0  0
  1  2  2  0
  2  3  1  0
  3  4  1  0
  4  5  1  0
  5  6  2  0
  5  7  1  0
  7  8  1  0
  8  9  1  0
  9 10  1  0
 10 11  1  0
 11 12  1  0
 12 13  2  0
 13 14  1  0
 14 15  2  0
 15 16  1  0
  2 17  1  0
 17 18  2  0
 18 19  1  0
 19 20  2  0
 20 21  1  0
 21 22  2  0
 22 23  1  0
 22 24  1  0
 24 25  2  0
 25 26  1  0
 26 27  2  0
 11  7  1  0
 16 12  1  0
 27 17  1  0
 26 20  1  0
  3 28  1  0
  4 29  1  0
  4 30  1  0
  8 31  1  0
  8 32  1  0
  9 33  1  0
  9 34  1  0
 10 35  1  0
 10 36  1  0
 11 37  1  1
 14 38  1  0
 15 39  1  0
 16 40  1  0
 18 41  1  0
 19 42  1  0
 21 43  1  0
 24 44  1  0
 25 45  1  0
M  END
>  <smiles>  (20) 
O=C(NCC(=O)N1CCC[C@@H]1c1ncc[nH]1)c1ccc2cc(F)ccc2n1

>  <score_type>  (20) 
oracle

>  <origin>  (20) 
autodockgpu

>  <m_score__min__energy>  (20) 
-8.2699999999999996

>  <m_primary>  (20) 
energy

>  <rmsd>  (20) 
2.4731374304493525

>  <m_score__min__rmsd>  (20) 
2.4731374304493525

>  <meeko>  (20) 
{"free_energy": -7.22, "intermolecular_energy": -8.71, "internal_energy": -1.27, "cluster_size": 30, "cluster_id": 1, "rank_in_cluster": 29}

>  <energy>  (20) 
-7.87

>  <cluster_rmsd>  (20) 
1.14

>  <cluster>  (20) 
1

$$$$

     RDKit          3D

 45 48  0  0  0  0  0  0  0  0999 V2000
  141.2680   72.6160  221.7500 O   0  0  0  0  0  0  0  0  0  0  0  0
  140.2930   72.5560  222.5400 C   0  0  0  0  0  0  0  0  0  0  0  0
  139.2560   73.5140  222.3460 N   0  0  0  0  0  0  0  0  0  0  0  0
  139.4070   74.4530  221.2790 C   0  0  0  0  0  0  0  0  0  0  0  0
  140.1930   75.6150  221.6330 C   0  0  0  0  0  0  0  0  0  0  0  0
  141.4350   75.3420  221.9510 O   0  0  0  0  0  0  0  0  0  0  0  0
  139.9080   76.9870  221.7030 N   0  0  0  0  0  0  0  0  0  0  0  0
  139.9130   77.8000  220.4650 C   0  0  0  0  0  0  0  0  0  0  0  0
  138.9510   78.9150  220.7100 C   0  0  0  0  0  0  0  0  0  0  0  0
  138.3330   78.5990  222.0310 C   0  0  0  0  0  0  0  0  0  0  0  0
  139.5210   77.9110  222.7280 C   0  0  2  0  0  0  0  0  0  0  0  0
  140.6070   78.8860  222.9410 C   0  0  0  0  0  0  0  0  0  0  0  0
  140.6020   80.1310  223.4160 N   0  0  0  0  0  0  0  0  0  0  0  0
  141.8380   80.6630  223.4580 C   0  0  0  0  0  0  0  0  0  0  0  0
  142.6740   79.6830  222.9750 C   0  0  0  0  0  0  0  0  0  0  0  0
  141.9220   78.6270  222.6710 N   0  0  0  0  0  0  0  0  0  0  0  0
  140.1760   71.5790  223.6110 C   0  0  0  0  0  0  0  0  0  0  0  0
  139.5660   70.3570  223.4200 C   0  0  0  0  0  0  0  0  0  0  0  0
  139.4280   69.4110  224.4120 C   0  0  0  0  0  0  0  0  0  0  0  0
  139.9360   69.7300  225.6610 C   0  0  0  0  0  0  0  0  0  0  0  0
  139.8250   68.8200  226.6930 C   0  0  0  0  0  0  0  0  0  0  0  0
  140.3360   69.1540  227.9260 C   0  0  0  0  0  0  0  0  0  0  0  0
  140.2260   68.2500  228.9520 F   0  0  0  0  0  0  0  0  0  0  0  0
  140.9420   70.3780  228.1080 C   0  0  0  0  0  0  0  0  0  0  0  0
  141.0740   71.3160  227.1040 C   0  0  0  0  0  0  0  0  0  0  0  0
  140.5460   70.9500  225.8610 C   0  0  0  0  0  0  0  0  0  0  0  0
  140.6640   71.8580  224.8550 N   0  0  0  0  0  0  0  0  0  0  0  0
  138.4450   73.4660  223.0040 H   0  0  0  0  0  0  0  0  0  0  0  0
  139.8987   73.9449  220.4363 H   0  0  0  0  0  0  0  0  0  0  0  0
  138.3996   74.8126  221.0226 H   0  0  0  0  0  0  0  0  0  0  0  0
  140.9201   78.1979  220.2715 H   0  0  0  0  0  0  0  0  0  0  0  0
  139.6274   77.2032  219.5862 H   0  0  0  0  0  0  0  0  0  0  0  0
  139.4775   79.8800  220.7490 H   0  0  0  0  0  0  0  0  0  0  0  0
  138.2012   79.0010  219.9098 H   0  0  0  0  0  0  0  0  0  0  0  0
  138.0199   79.5095  222.5629 H   0  0  0  0  0  0  0  0  0  0  0  0
  137.4150   77.9952  221.9791 H   0  0  0  0  0  0  0  0  0  0  0  0
  139.2960   77.4670  223.7089 H   0  0  0  0  0  0  0  0  0  0  0  0
  142.1197   81.6681  223.8049 H   0  0  0  0  0  0  0  0  0  0  0  0
  143.7655   79.7581  222.8607 H   0  0  0  0  0  0  0  0  0  0  0  0
  142.2760   77.7440  222.2930 H   0  0  0  0  0  0  0  0  0  0  0  0
  139.1679   70.1250  222.4211 H   0  0  0  0  0  0  0  0  0  0  0  0
  138.9365   68.4456  224.2210 H   0  0  0  0  0  0  0  0  0  0  0  0
  139.3376   67.8470  226.5327 H   0  0  0  0  0  0  0  0  0  0  0  0
  141.3409   70.6200  229.1042 H   0  0  0  0  0  0  0  0  0  0  0  0
  141.5623   72.2876  227.2702 H   0  0  0  0  0  0  0  0  0  0  0  0
  1  2  2  0
  2  3  1  0
  3  4  1  0
  4  5  1  0
  5  6  2  0
  5  7  1  0
  7  8  1  0
  8  9  1  0
  9 10  1  0
 10 11  1  0
 11 12  1  0
 12 13  2  0
 13 14  1  0
 14 15  2  0
 15 16  1  0
  2 17  1  0
 17 18  2  0
 18 19  1  0
 19 20  2  0
 20 21  1  0
 21 22  2  0
 22 23  1  0
 22 24  1  0
 24 25  2  0
 25 26  1  0
 26 27  2  0
 11  7  1  0
 16 12  1  0
 27 17  1  0
 26 20  1  0
  3 28  1  0
  4 29  1  0
  4 30  1  0
  8 31  1  0
  8 32  1  0
  9 33  1  0
  9 34  1  0
 10 35  1  0
 10 36  1  0
 11 37  1  1
 14 38  1  0
 15 39  1  0
 16 40  1  0
 18 41  1  0
 19 42  1  0
 21 43  1  0
 24 44  1  0
 25 45  1  0
M  END
>  <smiles>  (21) 
O=C(NCC(=O)N1CCC[C@@H]1c1ncc[nH]1)c1ccc2cc(F)ccc2n1

>  <score_type>  (21) 
oracle

>  <origin>  (21) 
autodockgpu

>  <m_score__min__energy>  (21) 
-8.2699999999999996

>  <m_primary>  (21) 
energy

>  <rmsd>  (21) 
2.5255639352136776

>  <m_score__min__rmsd>  (21) 
2.5255639352136776

>  <meeko>  (21) 
{"free_energy": -8.26, "intermolecular_energy": -9.76, "internal_energy": -1.44, "cluster_size": 30, "cluster_id": 1, "rank_in_cluster": 2}

>  <energy>  (21) 
-7.71

>  <cluster_rmsd>  (21) 
1.11

>  <cluster>  (21) 
1

$$$$

     RDKit          3D

 45 48  0  0  0  0  0  0  0  0999 V2000
  141.2790   72.5510  221.8120 O   0  0  0  0  0  0  0  0  0  0  0  0
  140.2940   72.5060  222.5910 C   0  0  0  0  0  0  0  0  0  0  0  0
  139.2570   73.4570  222.3630 N   0  0  0  0  0  0  0  0  0  0  0  0
  139.4200   74.3730  221.2780 C   0  0  0  0  0  0  0  0  0  0  0  0
  140.1820   75.5540  221.6220 C   0  0  0  0  0  0  0  0  0  0  0  0
  141.4310   75.3100  221.9360 O   0  0  0  0  0  0  0  0  0  0  0  0
  139.8680   76.9200  221.6850 N   0  0  0  0  0  0  0  0  0  0  0  0
  139.8920   77.7350  220.4490 C   0  0  0  0  0  0  0  0  0  0  0  0
  138.9010   78.8300  220.6670 C   0  0  0  0  0  0  0  0  0  0  0  0
  138.2520   78.5000  221.9690 C   0  0  0  0  0  0  0  0  0  0  0  0
  139.4330   77.8340  222.6990 C   0  0  2  0  0  0  0  0  0  0  0  0
  140.4930   78.8300  222.9450 C   0  0  0  0  0  0  0  0  0  0  0  0
  140.4500   80.0740  223.4200 N   0  0  0  0  0  0  0  0  0  0  0  0
  141.6730   80.6300  223.4980 C   0  0  0  0  0  0  0  0  0  0  0  0
  142.5420   79.6670  223.0390 C   0  0  0  0  0  0  0  0  0  0  0  0
  141.8200   78.5980  222.7120 N   0  0  0  0  0  0  0  0  0  0  0  0
  140.1640   71.5530  223.6810 C   0  0  0  0  0  0  0  0  0  0  0  0
  139.5400   70.3340  223.5150 C   0  0  0  0  0  0  0  0  0  0  0  0
  139.3910   69.4110  224.5260 C   0  0  0  0  0  0  0  0  0  0  0  0
  139.9030   69.7480  225.7680 C   0  0  0  0  0  0  0  0  0  0  0  0
  139.7810   68.8600  226.8180 C   0  0  0  0  0  0  0  0  0  0  0  0
  140.2960   69.2130  228.0440 C   0  0  0  0  0  0  0  0  0  0  0  0
  140.1750   68.3320  229.0890 F   0  0  0  0  0  0  0  0  0  0  0  0
  140.9170   70.4330  228.2010 C   0  0  0  0  0  0  0  0  0  0  0  0
  141.0600   71.3490  227.1790 C   0  0  0  0  0  0  0  0  0  0  0  0
  140.5280   70.9640  225.9430 C   0  0  0  0  0  0  0  0  0  0  0  0
  140.6560   71.8500  224.9200 N   0  0  0  0  0  0  0  0  0  0  0  0
  138.4380   73.4220  223.0110 H   0  0  0  0  0  0  0  0  0  0  0  0
  139.9377   73.8523  220.4590 H   0  0  0  0  0  0  0  0  0  0  0  0
  138.4139   74.7125  220.9906 H   0  0  0  0  0  0  0  0  0  0  0  0
  140.8960   78.1535  220.2852 H   0  0  0  0  0  0  0  0  0  0  0  0
  139.6438   77.1339  219.5618 H   0  0  0  0  0  0  0  0  0  0  0  0
  139.4065   79.8054  220.7218 H   0  0  0  0  0  0  0  0  0  0  0  0
  138.1729   78.9019  219.8456 H   0  0  0  0  0  0  0  0  0  0  0  0
  137.9061   79.4034  222.4927 H   0  0  0  0  0  0  0  0  0  0  0  0
  137.3478   77.8786  221.8902 H   0  0  0  0  0  0  0  0  0  0  0  0
  139.1883   77.3836  223.6723 H   0  0  0  0  0  0  0  0  0  0  0  0
  141.9246   81.6402  223.8534 H   0  0  0  0  0  0  0  0  0  0  0  0
  143.6347   79.7632  222.9572 H   0  0  0  0  0  0  0  0  0  0  0  0
  142.2030   77.7220  222.3450 H   0  0  0  0  0  0  0  0  0  0  0  0
  139.1396   70.0858  222.5210 H   0  0  0  0  0  0  0  0  0  0  0  0
  138.8874   68.4482  224.3547 H   0  0  0  0  0  0  0  0  0  0  0  0
  139.2821   67.8898  226.6772 H   0  0  0  0  0  0  0  0  0  0  0  0
  141.3194   70.6899  229.1920 H   0  0  0  0  0  0  0  0  0  0  0  0
  141.5593   72.3181  227.3260 H   0  0  0  0  0  0  0  0  0  0  0  0
  1  2  2  0
  2  3  1  0
  3  4  1  0
  4  5  1  0
  5  6  2  0
  5  7  1  0
  7  8  1  0
  8  9  1  0
  9 10  1  0
 10 11  1  0
 11 12  1  0
 12 13  2  0
 13 14  1  0
 14 15  2  0
 15 16  1  0
  2 17  1  0
 17 18  2  0
 18 19  1  0
 19 20  2  0
 20 21  1  0
 21 22  2  0
 22 23  1  0
 22 24  1  0
 24 25  2  0
 25 26  1  0
 26 27  2  0
 11  7  1  0
 16 12  1  0
 27 17  1  0
 26 20  1  0
  3 28  1  0
  4 29  1  0
  4 30  1  0
  8 31  1  0
  8 32  1  0
  9 33  1  0
  9 34  1  0
 10 35  1  0
 10 36  1  0
 11 37  1  1
 14 38  1  0
 15 39  1  0
 16 40  1  0
 18 41  1  0
 19 42  1  0
 21 43  1  0
 24 44  1  0
 25 45  1  0
M  END
>  <smiles>  (22) 
O=C(NCC(=O)N1CCC[C@@H]1c1ncc[nH]1)c1ccc2cc(F)ccc2n1

>  <score_type>  (22) 
oracle

>  <origin>  (22) 
autodockgpu

>  <m_score__min__energy>  (22) 
-8.2699999999999996

>  <m_primary>  (22) 
energy

>  <rmsd>  (22) 
2.503613131725603

>  <m_score__min__rmsd>  (22) 
2.503613131725603

>  <meeko>  (22) 
{"free_energy": -8.26, "intermolecular_energy": -9.76, "internal_energy": -1.45, "cluster_size": 30, "cluster_id": 1, "rank_in_cluster": 3}

>  <energy>  (22) 
-7.61

>  <cluster_rmsd>  (22) 
1.27

>  <cluster>  (22) 
1

$$$$

     RDKit          3D

 45 48  0  0  0  0  0  0  0  0999 V2000
  141.0970   72.2330  221.4310 O   0  0  0  0  0  0  0  0  0  0  0  0
  140.2790   72.3940  222.3710 C   0  0  0  0  0  0  0  0  0  0  0  0
  139.4150   73.5240  222.2770 N   0  0  0  0  0  0  0  0  0  0  0  0
  139.5450   74.3700  221.1320 C   0  0  0  0  0  0  0  0  0  0  0  0
  140.8260   75.0360  221.0440 C   0  0  0  0  0  0  0  0  0  0  0  0
  141.0310   75.9250  221.9860 O   0  0  0  0  0  0  0  0  0  0  0  0
  141.9110   74.9270  220.1610 N   0  0  0  0  0  0  0  0  0  0  0  0
  141.7340   74.2330  218.8650 C   0  0  0  0  0  0  0  0  0  0  0  0
  142.7160   74.8600  217.9320 C   0  0  0  0  0  0  0  0  0  0  0  0
  143.3100   75.9870  218.7090 C   0  0  0  0  0  0  0  0  0  0  0  0
  143.2670   75.3900  220.1280 C   0  0  2  0  0  0  0  0  0  0  0  0
  144.1790   74.2340  220.2100 C   0  0  0  0  0  0  0  0  0  0  0  0
  145.5060   74.1430  220.1300 N   0  0  0  0  0  0  0  0  0  0  0  0
  145.9370   72.8760  220.2760 C   0  0  0  0  0  0  0  0  0  0  0  0
  144.8010   72.1230  220.4620 C   0  0  0  0  0  0  0  0  0  0  0  0
  143.7600   72.9500  220.4190 N   0  0  0  0  0  0  0  0  0  0  0  0
  140.1750   71.5050  223.5170 C   0  0  0  0  0  0  0  0  0  0  0  0
  139.5830   70.2630  223.4240 C   0  0  0  0  0  0  0  0  0  0  0  0
  139.4580   69.3980  224.4900 C   0  0  0  0  0  0  0  0  0  0  0  0
  139.9600   69.8230  225.7080 C   0  0  0  0  0  0  0  0  0  0  0  0
  139.8610   68.9970  226.8110 C   0  0  0  0  0  0  0  0  0  0  0  0
  140.3660   69.4370  228.0130 C   0  0  0  0  0  0  0  0  0  0  0  0
  140.2680   68.6170  229.1080 F   0  0  0  0  0  0  0  0  0  0  0  0
  140.9550   70.6800  228.0950 C   0  0  0  0  0  0  0  0  0  0  0  0
  141.0740   71.5360  227.0190 C   0  0  0  0  0  0  0  0  0  0  0  0
  140.5520   71.0640  225.8100 C   0  0  0  0  0  0  0  0  0  0  0  0
  140.6580   71.8900  224.7350 N   0  0  0  0  0  0  0  0  0  0  0  0
  138.7350   73.6600  223.0590 H   0  0  0  0  0  0  0  0  0  0  0  0
  139.4100   73.7560  220.2293 H   0  0  0  0  0  0  0  0  0  0  0  0
  138.7800   75.1551  221.2236 H   0  0  0  0  0  0  0  0  0  0  0  0
  141.9414   73.1583  218.9743 H   0  0  0  0  0  0  0  0  0  0  0  0
  140.7034   74.3272  218.4921 H   0  0  0  0  0  0  0  0  0  0  0  0
  143.4925   74.1366  217.6425 H   0  0  0  0  0  0  0  0  0  0  0  0
  142.2443   75.2010  216.9986 H   0  0  0  0  0  0  0  0  0  0  0  0
  144.3398   76.2045  218.3892 H   0  0  0  0  0  0  0  0  0  0  0  0
  142.7902   76.9500  218.5969 H   0  0  0  0  0  0  0  0  0  0  0  0
  143.5543   76.0793  220.9357 H   0  0  0  0  0  0  0  0  0  0  0  0
  146.9771   72.5187  220.2517 H   0  0  0  0  0  0  0  0  0  0  0  0
  144.7607   71.0349  220.6179 H   0  0  0  0  0  0  0  0  0  0  0  0
  142.7810   72.6680  220.5320 H   0  0  0  0  0  0  0  0  0  0  0  0
  139.1895   69.9456  222.4470 H   0  0  0  0  0  0  0  0  0  0  0  0
  138.9804   68.4135  224.3777 H   0  0  0  0  0  0  0  0  0  0  0  0
  139.3879   68.0073  226.7299 H   0  0  0  0  0  0  0  0  0  0  0  0
  141.3506   71.0068  229.0680 H   0  0  0  0  0  0  0  0  0  0  0  0
  141.5483   72.5247  227.1063 H   0  0  0  0  0  0  0  0  0  0  0  0
  1  2  2  0
  2  3  1  0
  3  4  1  0
  4  5  1  0
  5  6  2  0
  5  7  1  0
  7  8  1  0
  8  9  1  0
  9 10  1  0
 10 11  1  0
 11 12  1  0
 12 13  2  0
 13 14  1  0
 14 15  2  0
 15 16  1  0
  2 17  1  0
 17 18  2  0
 18 19  1  0
 19 20  2  0
 20 21  1  0
 21 22  2  0
 22 23  1  0
 22 24  1  0
 24 25  2  0
 25 26  1  0
 26 27  2  0
 11  7  1  0
 16 12  1  0
 27 17  1  0
 26 20  1  0
  3 28  1  0
  4 29  1  0
  4 30  1  0
  8 31  1  0
  8 32  1  0
  9 33  1  0
  9 34  1  0
 10 35  1  0
 10 36  1  0
 11 37  1  1
 14 38  1  0
 15 39  1  0
 16 40  1  0
 18 41  1  0
 19 42  1  0
 21 43  1  0
 24 44  1  0
 25 45  1  0
M  END
>  <smiles>  (23) 
O=C(NCC(=O)N1CCC[C@@H]1c1ncc[nH]1)c1ccc2cc(F)ccc2n1

>  <score_type>  (23) 
oracle

>  <origin>  (23) 
autodockgpu

>  <m_score__min__energy>  (23) 
-8.2699999999999996

>  <m_primary>  (23) 
energy

>  <rmsd>  (23) 
3.5515367822500936

>  <m_score__min__rmsd>  (23) 
3.5515367822500936

>  <meeko>  (23) 
{"free_energy": -7.39, "intermolecular_energy": -8.88, "internal_energy": -2.1, "cluster_size": 10, "cluster_id": 2, "rank_in_cluster": 4}

>  <energy>  (23) 
-7.59

>  <cluster_rmsd>  (23) 
0.83

>  <cluster>  (23) 
1

$$$$

     RDKit          3D

 45 48  0  0  0  0  0  0  0  0999 V2000
  138.6410   70.9430  221.6760 O   0  0  0  0  0  0  0  0  0  0  0  0
  139.1800   71.3300  222.7430 C   0  0  0  0  0  0  0  0  0  0  0  0
  139.5710   72.7000  222.7990 N   0  0  0  0  0  0  0  0  0  0  0  0
  139.3200   73.5120  221.6500 C   0  0  0  0  0  0  0  0  0  0  0  0
  140.0410   74.7670  221.6560 C   0  0  0  0  0  0  0  0  0  0  0  0
  141.3440   74.6330  221.7100 O   0  0  0  0  0  0  0  0  0  0  0  0
  139.6390   76.1100  221.6080 N   0  0  0  0  0  0  0  0  0  0  0  0
  139.6400   76.8300  220.3150 C   0  0  0  0  0  0  0  0  0  0  0  0
  138.5770   77.8710  220.4300 C   0  0  0  0  0  0  0  0  0  0  0  0
  137.9190   77.5970  221.7400 C   0  0  0  0  0  0  0  0  0  0  0  0
  139.1220   77.0670  222.5420 C   0  0  2  0  0  0  0  0  0  0  0  0
  140.1100   78.1460  222.7310 C   0  0  0  0  0  0  0  0  0  0  0  0
  139.9730   79.4210  223.0920 N   0  0  0  0  0  0  0  0  0  0  0  0
  141.1570   80.0590  223.1590 C   0  0  0  0  0  0  0  0  0  0  0  0
  142.0990   79.1170  222.8150 C   0  0  0  0  0  0  0  0  0  0  0  0
  141.4560   77.9800  222.5620 N   0  0  0  0  0  0  0  0  0  0  0  0
  139.4130   70.4710  223.8930 C   0  0  0  0  0  0  0  0  0  0  0  0
  139.0390   69.1430  223.8980 C   0  0  0  0  0  0  0  0  0  0  0  0
  139.2350   68.3010  224.9710 C   0  0  0  0  0  0  0  0  0  0  0  0
  139.8410   68.8420  226.0930 C   0  0  0  0  0  0  0  0  0  0  0  0
  140.0620   68.0440  227.1980 C   0  0  0  0  0  0  0  0  0  0  0  0
  140.6650   68.5990  228.3030 C   0  0  0  0  0  0  0  0  0  0  0  0
  140.8850   67.8070  229.4020 F   0  0  0  0  0  0  0  0  0  0  0  0
  141.0340   69.9270  228.2890 C   0  0  0  0  0  0  0  0  0  0  0  0
  140.8320   70.7580  227.2060 C   0  0  0  0  0  0  0  0  0  0  0  0
  140.2170   70.1680  226.0960 C   0  0  0  0  0  0  0  0  0  0  0  0
  140.0070   70.9680  225.0170 N   0  0  0  0  0  0  0  0  0  0  0  0
  140.0210   73.0220  223.6860 H   0  0  0  0  0  0  0  0  0  0  0  0
  139.6148   72.9464  220.7538 H   0  0  0  0  0  0  0  0  0  0  0  0
  138.2477   73.7571  221.6575 H   0  0  0  0  0  0  0  0  0  0  0  0
  140.6189   77.2997  220.1386 H   0  0  0  0  0  0  0  0  0  0  0  0
  139.4513   76.1493  219.4718 H   0  0  0  0  0  0  0  0  0  0  0  0
  139.0182   78.8786  220.4207 H   0  0  0  0  0  0  0  0  0  0  0  0
  137.8661   77.8343  219.5914 H   0  0  0  0  0  0  0  0  0  0  0  0
  137.5028   78.5121  222.1864 H   0  0  0  0  0  0  0  0  0  0  0  0
  137.0591   76.9128  221.6909 H   0  0  0  0  0  0  0  0  0  0  0  0
  138.8833   76.6761  223.5421 H   0  0  0  0  0  0  0  0  0  0  0  0
  141.3336   81.1101  223.4310 H   0  0  0  0  0  0  0  0  0  0  0  0
  143.1861   79.2752  222.7593 H   0  0  0  0  0  0  0  0  0  0  0  0
  141.9040   77.1010  222.2860 H   0  0  0  0  0  0  0  0  0  0  0  0
  138.5585   68.7343  222.9968 H   0  0  0  0  0  0  0  0  0  0  0  0
  138.9241   67.2464  224.9381 H   0  0  0  0  0  0  0  0  0  0  0  0
  139.7619   66.9857  227.1948 H   0  0  0  0  0  0  0  0  0  0  0  0
  141.5136   70.3454  229.1862 H   0  0  0  0  0  0  0  0  0  0  0  0
  141.1347   71.8155  227.2146 H   0  0  0  0  0  0  0  0  0  0  0  0
  1  2  2  0
  2  3  1  0
  3  4  1  0
  4  5  1  0
  5  6  2  0
  5  7  1  0
  7  8  1  0
  8  9  1  0
  9 10  1  0
 10 11  1  0
 11 12  1  0
 12 13  2  0
 13 14  1  0
 14 15  2  0
 15 16  1  0
  2 17  1  0
 17 18  2  0
 18 19  1  0
 19 20  2  0
 20 21  1  0
 21 22  2  0
 22 23  1  0
 22 24  1  0
 24 25  2  0
 25 26  1  0
 26 27  2  0
 11  7  1  0
 16 12  1  0
 27 17  1  0
 26 20  1  0
  3 28  1  0
  4 29  1  0
  4 30  1  0
  8 31  1  0
  8 32  1  0
  9 33  1  0
  9 34  1  0
 10 35  1  0
 10 36  1  0
 11 37  1  1
 14 38  1  0
 15 39  1  0
 16 40  1  0
 18 41  1  0
 19 42  1  0
 21 43  1  0
 24 44  1  0
 25 45  1  0
M  END
>  <smiles>  (24) 
O=C(NCC(=O)N1CCC[C@@H]1c1ncc[nH]1)c1ccc2cc(F)ccc2n1

>  <score_type>  (24) 
oracle

>  <origin>  (24) 
autodockgpu

>  <m_score__min__energy>  (24) 
-8.2699999999999996

>  <m_primary>  (24) 
energy

>  <rmsd>  (24) 
2.2260625875246234

>  <m_score__min__rmsd>  (24) 
2.2260625875246234

>  <meeko>  (24) 
{"free_energy": -7.51, "intermolecular_energy": -9.01, "internal_energy": -1.8, "cluster_size": 30, "cluster_id": 1, "rank_in_cluster": 25}

>  <energy>  (24) 
-7.59

>  <cluster_rmsd>  (24) 
1.31

>  <cluster>  (24) 
1

$$$$

     RDKit          3D

 45 48  0  0  0  0  0  0  0  0999 V2000
  141.1640   72.5580  221.7390 O   0  0  0  0  0  0  0  0  0  0  0  0
  140.2040   72.4860  222.5460 C   0  0  0  0  0  0  0  0  0  0  0  0
  139.1280   73.3980  222.3410 N   0  0  0  0  0  0  0  0  0  0  0  0
  139.2260   74.3080  221.2430 C   0  0  0  0  0  0  0  0  0  0  0  0
  139.5300   75.6660  221.6390 C   0  0  0  0  0  0  0  0  0  0  0  0
  138.8020   76.1060  222.6360 O   0  0  0  0  0  0  0  0  0  0  0  0
  140.4510   76.6200  221.1820 N   0  0  0  0  0  0  0  0  0  0  0  0
  141.8240   76.1980  220.8190 C   0  0  0  0  0  0  0  0  0  0  0  0
  142.2820   77.1660  219.7790 C   0  0  0  0  0  0  0  0  0  0  0  0
  141.0870   78.0120  219.4950 C   0  0  0  0  0  0  0  0  0  0  0  0
  140.4260   78.0220  220.8850 C   0  0  2  0  0  0  0  0  0  0  0  0
  141.2890   78.7390  221.8430 C   0  0  0  0  0  0  0  0  0  0  0  0
  142.1350   79.7570  221.6860 N   0  0  0  0  0  0  0  0  0  0  0  0
  142.7150   80.1170  222.8450 C   0  0  0  0  0  0  0  0  0  0  0  0
  142.1960   79.2660  223.7940 C   0  0  0  0  0  0  0  0  0  0  0  0
  141.3460   78.4490  223.1770 N   0  0  0  0  0  0  0  0  0  0  0  0
  140.1410   71.5400  223.6490 C   0  0  0  0  0  0  0  0  0  0  0  0
  139.6000   70.2800  223.4990 C   0  0  0  0  0  0  0  0  0  0  0  0
  139.5140   69.3610  224.5220 C   0  0  0  0  0  0  0  0  0  0  0  0
  140.0040   69.7470  225.7580 C   0  0  0  0  0  0  0  0  0  0  0  0
  139.9440   68.8670  226.8200 C   0  0  0  0  0  0  0  0  0  0  0  0
  140.4350   69.2690  228.0400 C   0  0  0  0  0  0  0  0  0  0  0  0
  140.3760   68.3940  229.0950 F   0  0  0  0  0  0  0  0  0  0  0  0
  140.9730   70.5300  228.1810 C   0  0  0  0  0  0  0  0  0  0  0  0
  141.0530   71.4400  227.1470 C   0  0  0  0  0  0  0  0  0  0  0  0
  140.5460   71.0050  225.9170 C   0  0  0  0  0  0  0  0  0  0  0  0
  140.6130   71.8850  224.8830 N   0  0  0  0  0  0  0  0  0  0  0  0
  138.3300   73.3400  223.0130 H   0  0  0  0  0  0  0  0  0  0  0  0
  140.0218   73.9560  220.5701 H   0  0  0  0  0  0  0  0  0  0  0  0
  138.2412   74.3285  220.7533 H   0  0  0  0  0  0  0  0  0  0  0  0
  142.4833   76.2395  221.6986 H   0  0  0  0  0  0  0  0  0  0  0  0
  141.8460   75.1627  220.4480 H   0  0  0  0  0  0  0  0  0  0  0  0
  143.1107   77.7810  220.1599 H   0  0  0  0  0  0  0  0  0  0  0  0
  142.6573   76.6604  218.8770 H   0  0  0  0  0  0  0  0  0  0  0  0
  141.3716   79.0241  219.1716 H   0  0  0  0  0  0  0  0  0  0  0  0
  140.4447   77.6459  218.6805 H   0  0  0  0  0  0  0  0  0  0  0  0
  139.4364   78.5002  220.9296 H   0  0  0  0  0  0  0  0  0  0  0  0
  143.4489   80.9214  223.0013 H   0  0  0  0  0  0  0  0  0  0  0  0
  142.4394   79.2619  224.8667 H   0  0  0  0  0  0  0  0  0  0  0  0
  140.8050   77.7100  223.6360 H   0  0  0  0  0  0  0  0  0  0  0  0
  139.2164   69.9933  222.5087 H   0  0  0  0  0  0  0  0  0  0  0  0
  139.0754   68.3647  224.3637 H   0  0  0  0  0  0  0  0  0  0  0  0
  139.5117   67.8635  226.6928 H   0  0  0  0  0  0  0  0  0  0  0  0
  141.3582   70.8259  229.1679 H   0  0  0  0  0  0  0  0  0  0  0  0
  141.4869   72.4420  227.2806 H   0  0  0  0  0  0  0  0  0  0  0  0
  1  2  2  0
  2  3  1  0
  3  4  1  0
  4  5  1  0
  5  6  2  0
  5  7  1  0
  7  8  1  0
  8  9  1  0
  9 10  1  0
 10 11  1  0
 11 12  1  0
 12 13  2  0
 13 14  1  0
 14 15  2  0
 15 16  1  0
  2 17  1  0
 17 18  2  0
 18 19  1  0
 19 20  2  0
 20 21  1  0
 21 22  2  0
 22 23  1  0
 22 24  1  0
 24 25  2  0
 25 26  1  0
 26 27  2  0
 11  7  1  0
 16 12  1  0
 27 17  1  0
 26 20  1  0
  3 28  1  0
  4 29  1  0
  4 30  1  0
  8 31  1  0
  8 32  1  0
  9 33  1  0
  9 34  1  0
 10 35  1  0
 10 36  1  0
 11 37  1  6
 14 38  1  0
 15 39  1  0
 16 40  1  0
 18 41  1  0
 19 42  1  0
 21 43  1  0
 24 44  1  0
 25 45  1  0
M  END
>  <smiles>  (25) 
O=C(NCC(=O)N1CCC[C@@H]1c1ncc[nH]1)c1ccc2cc(F)ccc2n1

>  <score_type>  (25) 
oracle

>  <origin>  (25) 
autodockgpu

>  <m_score__min__energy>  (25) 
-8.2699999999999996

>  <m_primary>  (25) 
energy

>  <rmsd>  (25) 
2.0379518392044487

>  <m_score__min__rmsd>  (25) 
2.0379518392044487

>  <meeko>  (25) 
{"free_energy": -7.71, "intermolecular_energy": -9.21, "internal_energy": -1.52, "cluster_size": 30, "cluster_id": 1, "rank_in_cluster": 21}

>  <energy>  (25) 
-7.51

>  <cluster_rmsd>  (25) 
1.09

>  <cluster>  (25) 
1

$$$$

     RDKit          3D

 45 48  0  0  0  0  0  0  0  0999 V2000
  141.3580   73.5620  221.6630 O   0  0  0  0  0  0  0  0  0  0  0  0
  140.2940   73.3060  222.2820 C   0  0  0  0  0  0  0  0  0  0  0  0
  139.3180   74.3430  222.3260 N   0  0  0  0  0  0  0  0  0  0  0  0
  139.6230   75.5750  221.6690 C   0  0  0  0  0  0  0  0  0  0  0  0
  138.8220   76.6900  222.1230 C   0  0  0  0  0  0  0  0  0  0  0  0
  137.5890   76.3700  222.4330 O   0  0  0  0  0  0  0  0  0  0  0  0
  139.0870   78.0550  222.3120 N   0  0  0  0  0  0  0  0  0  0  0  0
  138.9340   78.9950  221.1780 C   0  0  0  0  0  0  0  0  0  0  0  0
  138.5880   80.3120  221.7880 C   0  0  0  0  0  0  0  0  0  0  0  0
  138.4190   80.0230  223.2420 C   0  0  0  0  0  0  0  0  0  0  0  0
  139.4510   78.8940  223.4150 C   0  0  2  0  0  0  0  0  0  0  0  0
  140.8100   79.4230  223.1990 C   0  0  0  0  0  0  0  0  0  0  0  0
  141.3140   80.6510  223.3140 N   0  0  0  0  0  0  0  0  0  0  0  0
  142.6290   80.6890  223.0330 C   0  0  0  0  0  0  0  0  0  0  0  0
  142.9730   79.3940  222.7200 C   0  0  0  0  0  0  0  0  0  0  0  0
  141.8740   78.6510  222.8240 N   0  0  0  0  0  0  0  0  0  0  0  0
  140.0200   72.0340  222.9330 C   0  0  0  0  0  0  0  0  0  0  0  0
  139.3460   71.0160  222.2920 C   0  0  0  0  0  0  0  0  0  0  0  0
  139.0600   69.8040  222.8790 C   0  0  0  0  0  0  0  0  0  0  0  0
  139.4830   69.6220  224.1860 C   0  0  0  0  0  0  0  0  0  0  0  0
  139.2240   68.4260  224.8250 C   0  0  0  0  0  0  0  0  0  0  0  0
  139.6510   68.2630  226.1220 C   0  0  0  0  0  0  0  0  0  0  0  0
  139.3940   67.0750  226.7580 F   0  0  0  0  0  0  0  0  0  0  0  0
  140.3240   69.2870  226.7550 C   0  0  0  0  0  0  0  0  0  0  0  0
  140.6030   70.4970  226.1540 C   0  0  0  0  0  0  0  0  0  0  0  0
  140.1570   70.6340  224.8340 C   0  0  0  0  0  0  0  0  0  0  0  0
  140.4210   71.8180  224.2200 N   0  0  0  0  0  0  0  0  0  0  0  0
  138.4330   74.1310  222.8420 H   0  0  0  0  0  0  0  0  0  0  0  0
  140.6819   75.8119  221.8495 H   0  0  0  0  0  0  0  0  0  0  0  0
  139.4006   75.4333  220.6011 H   0  0  0  0  0  0  0  0  0  0  0  0
  139.8745   79.0697  220.6124 H   0  0  0  0  0  0  0  0  0  0  0  0
  138.1592   78.6581  220.4736 H   0  0  0  0  0  0  0  0  0  0  0  0
  139.3985   81.0384  221.6285 H   0  0  0  0  0  0  0  0  0  0  0  0
  137.6833   80.7520  221.3431 H   0  0  0  0  0  0  0  0  0  0  0  0
  138.6636   80.8976  223.8627 H   0  0  0  0  0  0  0  0  0  0  0  0
  137.3942   79.7629  223.5455 H   0  0  0  0  0  0  0  0  0  0  0  0
  139.4535   78.4079  224.4018 H   0  0  0  0  0  0  0  0  0  0  0  0
  143.2892   81.5687  223.0499 H   0  0  0  0  0  0  0  0  0  0  0  0
  143.9741   79.0378  222.4356 H   0  0  0  0  0  0  0  0  0  0  0  0
  141.8290   77.6420  222.6530 H   0  0  0  0  0  0  0  0  0  0  0  0
  139.0189   71.1814  221.2549 H   0  0  0  0  0  0  0  0  0  0  0  0
  138.5198   69.0153  222.3348 H   0  0  0  0  0  0  0  0  0  0  0  0
  138.6862   67.6186  224.3065 H   0  0  0  0  0  0  0  0  0  0  0  0
  140.6553   69.1309  227.7923 H   0  0  0  0  0  0  0  0  0  0  0  0
  141.1406   71.3013  226.6775 H   0  0  0  0  0  0  0  0  0  0  0  0
  1  2  2  0
  2  3  1  0
  3  4  1  0
  4  5  1  0
  5  6  2  0
  5  7  1  0
  7  8  1  0
  8  9  1  0
  9 10  1  0
 10 11  1  0
 11 12  1  0
 12 13  2  0
 13 14  1  0
 14 15  2  0
 15 16  1  0
  2 17  1  0
 17 18  2  0
 18 19  1  0
 19 20  2  0
 20 21  1  0
 21 22  2  0
 22 23  1  0
 22 24  1  0
 24 25  2  0
 25 26  1  0
 26 27  2  0
 11  7  1  0
 16 12  1  0
 27 17  1  0
 26 20  1  0
  3 28  1  0
  4 29  1  0
  4 30  1  0
  8 31  1  0
  8 32  1  0
  9 33  1  0
  9 34  1  0
 10 35  1  0
 10 36  1  0
 11 37  1  1
 14 38  1  0
 15 39  1  0
 16 40  1  0
 18 41  1  0
 19 42  1  0
 21 43  1  0
 24 44  1  0
 25 45  1  0
M  END
>  <smiles>  (26) 
O=C(NCC(=O)N1CCC[C@@H]1c1ncc[nH]1)c1ccc2cc(F)ccc2n1

>  <score_type>  (26) 
oracle

>  <origin>  (26) 
autodockgpu

>  <m_score__min__energy>  (26) 
-8.2699999999999996

>  <m_primary>  (26) 
energy

>  <rmsd>  (26) 
3.458673923822959

>  <m_score__min__rmsd>  (26) 
3.458673923822959

>  <meeko>  (26) 
{"free_energy": -7.29, "intermolecular_energy": -8.78, "internal_energy": -1.52, "cluster_size": 30, "cluster_id": 1, "rank_in_cluster": 28}

>  <energy>  (26) 
-7.5

>  <cluster_rmsd>  (26) 
1.38

>  <cluster>  (26) 
1

$$$$

     RDKit          3D

 45 48  0  0  0  0  0  0  0  0999 V2000
  141.4310   72.9740  222.1300 O   0  0  0  0  0  0  0  0  0  0  0  0
  140.3500   72.7150  222.7160 C   0  0  0  0  0  0  0  0  0  0  0  0
  139.2140   73.4830  222.3280 N   0  0  0  0  0  0  0  0  0  0  0  0
  139.3940   74.4730  221.3130 C   0  0  0  0  0  0  0  0  0  0  0  0
  140.1390   74.0020  220.1660 C   0  0  0  0  0  0  0  0  0  0  0  0
  139.5250   73.0700  219.4770 O   0  0  0  0  0  0  0  0  0  0  0  0
  141.3880   74.3380  219.6230 N   0  0  0  0  0  0  0  0  0  0  0  0
  141.8140   73.7400  218.3360 C   0  0  0  0  0  0  0  0  0  0  0  0
  142.7300   74.7380  217.7100 C   0  0  0  0  0  0  0  0  0  0  0  0
  142.6690   75.9260  218.6090 C   0  0  0  0  0  0  0  0  0  0  0  0
  142.4580   75.2280  219.9660 C   0  0  2  0  0  0  0  0  0  0  0  0
  143.6560   74.4400  220.3120 C   0  0  0  0  0  0  0  0  0  0  0  0
  144.9320   74.7880  220.4690 N   0  0  0  0  0  0  0  0  0  0  0  0
  145.7060   73.7400  220.8080 C   0  0  0  0  0  0  0  0  0  0  0  0
  144.8540   72.6610  220.8670 C   0  0  0  0  0  0  0  0  0  0  0  0
  143.6320   73.0980  220.5680 N   0  0  0  0  0  0  0  0  0  0  0  0
  140.2080   71.6940  223.7420 C   0  0  0  0  0  0  0  0  0  0  0  0
  139.5750   70.4940  223.4940 C   0  0  0  0  0  0  0  0  0  0  0  0
  139.4130   69.5080  224.4420 C   0  0  0  0  0  0  0  0  0  0  0  0
  139.9220   69.7600  225.7050 C   0  0  0  0  0  0  0  0  0  0  0  0
  139.7880   68.8070  226.6960 C   0  0  0  0  0  0  0  0  0  0  0  0
  140.3000   69.0750  227.9440 C   0  0  0  0  0  0  0  0  0  0  0  0
  140.1670   68.1280  228.9280 F   0  0  0  0  0  0  0  0  0  0  0  0
  140.9310   70.2770  228.1830 C   0  0  0  0  0  0  0  0  0  0  0  0
  141.0860   71.2560  227.2220 C   0  0  0  0  0  0  0  0  0  0  0  0
  140.5560   70.9560  225.9620 C   0  0  0  0  0  0  0  0  0  0  0  0
  140.6970   71.9060  224.9990 N   0  0  0  0  0  0  0  0  0  0  0  0
  138.3150   73.2700  222.8160 H   0  0  0  0  0  0  0  0  0  0  0  0
  138.4022   74.8037  220.9708 H   0  0  0  0  0  0  0  0  0  0  0  0
  139.9777   75.2904  221.7615 H   0  0  0  0  0  0  0  0  0  0  0  0
  142.3423   72.7911  218.5103 H   0  0  0  0  0  0  0  0  0  0  0  0
  140.9537   73.5164  217.6880 H   0  0  0  0  0  0  0  0  0  0  0  0
  143.7555   74.3436  217.6578 H   0  0  0  0  0  0  0  0  0  0  0  0
  142.4363   74.9819  216.6784 H   0  0  0  0  0  0  0  0  0  0  0  0
  143.6061   76.5017  218.5880 H   0  0  0  0  0  0  0  0  0  0  0  0
  141.8991   76.6660  218.3453 H   0  0  0  0  0  0  0  0  0  0  0  0
  142.2638   75.9006  220.8145 H   0  0  0  0  0  0  0  0  0  0  0  0
  146.7895   73.7451  220.9976 H   0  0  0  0  0  0  0  0  0  0  0  0
  145.1317   71.6261  221.1158 H   0  0  0  0  0  0  0  0  0  0  0  0
  142.7910   72.5140  220.5390 H   0  0  0  0  0  0  0  0  0  0  0  0
  139.1779   70.3146  222.4840 H   0  0  0  0  0  0  0  0  0  0  0  0
  138.9022   68.5627  224.2064 H   0  0  0  0  0  0  0  0  0  0  0  0
  139.2816   67.8523  226.4909 H   0  0  0  0  0  0  0  0  0  0  0  0
  141.3312   70.4657  229.1901 H   0  0  0  0  0  0  0  0  0  0  0  0
  141.5928   72.2092  227.4328 H   0  0  0  0  0  0  0  0  0  0  0  0
  1  2  2  0
  2  3  1  0
  3  4  1  0
  4  5  1  0
  5  6  2  0
  5  7  1  0
  7  8  1  0
  8  9  1  0
  9 10  1  0
 10 11  1  0
 11 12  1  0
 12 13  2  0
 13 14  1  0
 14 15  2  0
 15 16  1  0
  2 17  1  0
 17 18  2  0
 18 19  1  0
 19 20  2  0
 20 21  1  0
 21 22  2  0
 22 23  1  0
 22 24  1  0
 24 25  2  0
 25 26  1  0
 26 27  2  0
 11  7  1  0
 16 12  1  0
 27 17  1  0
 26 20  1  0
  3 28  1  0
  4 29  1  0
  4 30  1  0
  8 31  1  0
  8 32  1  0
  9 33  1  0
  9 34  1  0
 10 35  1  0
 10 36  1  0
 11 37  1  1
 14 38  1  0
 15 39  1  0
 16 40  1  0
 18 41  1  0
 19 42  1  0
 21 43  1  0
 24 44  1  0
 25 45  1  0
M  END
>  <smiles>  (27) 
O=C(NCC(=O)N1CCC[C@@H]1c1ncc[nH]1)c1ccc2cc(F)ccc2n1

>  <score_type>  (27) 
oracle

>  <origin>  (27) 
autodockgpu

>  <m_score__min__energy>  (27) 
-8.2699999999999996

>  <m_primary>  (27) 
energy

>  <rmsd>  (27) 
3.402068277973428

>  <m_score__min__rmsd>  (27) 
3.402068277973428

>  <meeko>  (27) 
{"free_energy": -6.76, "intermolecular_energy": -8.25, "internal_energy": -1.83, "cluster_size": 10, "cluster_id": 2, "rank_in_cluster": 10}

>  <energy>  (27) 
-7.42

>  <cluster_rmsd>  (27) 
1.37

>  <cluster>  (27) 
1

$$$$

     RDKit          3D

 45 48  0  0  0  0  0  0  0  0999 V2000
  141.0800   72.1960  221.4180 O   0  0  0  0  0  0  0  0  0  0  0  0
  140.2800   72.3720  222.3710 C   0  0  0  0  0  0  0  0  0  0  0  0
  139.4320   73.5140  222.2880 N   0  0  0  0  0  0  0  0  0  0  0  0
  139.5560   74.3550  221.1390 C   0  0  0  0  0  0  0  0  0  0  0  0
  140.8290   75.0360  221.0520 C   0  0  0  0  0  0  0  0  0  0  0  0
  141.0200   75.9340  221.9880 O   0  0  0  0  0  0  0  0  0  0  0  0
  141.9190   74.9340  220.1740 N   0  0  0  0  0  0  0  0  0  0  0  0
  141.7470   74.2580  218.8680 C   0  0  0  0  0  0  0  0  0  0  0  0
  142.7370   74.8930  217.9490 C   0  0  0  0  0  0  0  0  0  0  0  0
  143.3300   76.0080  218.7440 C   0  0  0  0  0  0  0  0  0  0  0  0
  143.2770   75.3930  220.1550 C   0  0  2  0  0  0  0  0  0  0  0  0
  144.1840   74.2320  220.2270 C   0  0  0  0  0  0  0  0  0  0  0  0
  145.5110   74.1370  220.1480 N   0  0  0  0  0  0  0  0  0  0  0  0
  145.9370   72.8670  220.2840 C   0  0  0  0  0  0  0  0  0  0  0  0
  144.7980   72.1160  220.4600 C   0  0  0  0  0  0  0  0  0  0  0  0
  143.7590   72.9480  220.4240 N   0  0  0  0  0  0  0  0  0  0  0  0
  140.1810   71.4870  223.5210 C   0  0  0  0  0  0  0  0  0  0  0  0
  139.5920   70.2430  223.4360 C   0  0  0  0  0  0  0  0  0  0  0  0
  139.4720   69.3820  224.5050 C   0  0  0  0  0  0  0  0  0  0  0  0
  139.9770   69.8140  225.7200 C   0  0  0  0  0  0  0  0  0  0  0  0
  139.8840   68.9920  226.8260 C   0  0  0  0  0  0  0  0  0  0  0  0
  140.3920   69.4380  228.0250 C   0  0  0  0  0  0  0  0  0  0  0  0
  140.2990   68.6220  229.1240 F   0  0  0  0  0  0  0  0  0  0  0  0
  140.9780   70.6830  228.1000 C   0  0  0  0  0  0  0  0  0  0  0  0
  141.0920   71.5350  227.0200 C   0  0  0  0  0  0  0  0  0  0  0  0
  140.5680   71.0560  225.8150 C   0  0  0  0  0  0  0  0  0  0  0  0
  140.6680   71.8780  224.7360 N   0  0  0  0  0  0  0  0  0  0  0  0
  138.7670   73.6620  223.0810 H   0  0  0  0  0  0  0  0  0  0  0  0
  139.4319   73.7344  220.2393 H   0  0  0  0  0  0  0  0  0  0  0  0
  138.7811   75.1312  221.2235 H   0  0  0  0  0  0  0  0  0  0  0  0
  141.9494   73.1811  218.9643 H   0  0  0  0  0  0  0  0  0  0  0  0
  140.7190   74.3615  218.4904 H   0  0  0  0  0  0  0  0  0  0  0  0
  143.5127   74.1705  217.6553 H   0  0  0  0  0  0  0  0  0  0  0  0
  142.2724   75.2473  217.0170 H   0  0  0  0  0  0  0  0  0  0  0  0
  144.3623   76.2263  218.4330 H   0  0  0  0  0  0  0  0  0  0  0  0
  142.8138   76.9739  218.6414 H   0  0  0  0  0  0  0  0  0  0  0  0
  143.5623   76.0709  220.9729 H   0  0  0  0  0  0  0  0  0  0  0  0
  146.9759   72.5063  220.2595 H   0  0  0  0  0  0  0  0  0  0  0  0
  144.7536   71.0264  220.6043 H   0  0  0  0  0  0  0  0  0  0  0  0
  142.7800   72.6690  220.5330 H   0  0  0  0  0  0  0  0  0  0  0  0
  139.1964   69.9205  222.4616 H   0  0  0  0  0  0  0  0  0  0  0  0
  138.9965   68.3959  224.3982 H   0  0  0  0  0  0  0  0  0  0  0  0
  139.4133   68.0007  226.7502 H   0  0  0  0  0  0  0  0  0  0  0  0
  141.3754   71.0149  229.0705 H   0  0  0  0  0  0  0  0  0  0  0  0
  141.5638   72.5253  227.1017 H   0  0  0  0  0  0  0  0  0  0  0  0
  1  2  2  0
  2  3  1  0
  3  4  1  0
  4  5  1  0
  5  6  2  0
  5  7  1  0
  7  8  1  0
  8  9  1  0
  9 10  1  0
 10 11  1  0
 11 12  1  0
 12 13  2  0
 13 14  1  0
 14 15  2  0
 15 16  1  0
  2 17  1  0
 17 18  2  0
 18 19  1  0
 19 20  2  0
 20 21  1  0
 21 22  2  0
 22 23  1  0
 22 24  1  0
 24 25  2  0
 25 26  1  0
 26 27  2  0
 11  7  1  0
 16 12  1  0
 27 17  1  0
 26 20  1  0
  3 28  1  0
  4 29  1  0
  4 30  1  0
  8 31  1  0
  8 32  1  0
  9 33  1  0
  9 34  1  0
 10 35  1  0
 10 36  1  0
 11 37  1  1
 14 38  1  0
 15 39  1  0
 16 40  1  0
 18 41  1  0
 19 42  1  0
 21 43  1  0
 24 44  1  0
 25 45  1  0
M  END
>  <smiles>  (28) 
O=C(NCC(=O)N1CCC[C@@H]1c1ncc[nH]1)c1ccc2cc(F)ccc2n1

>  <score_type>  (28) 
oracle

>  <origin>  (28) 
autodockgpu

>  <m_score__min__energy>  (28) 
-8.2699999999999996

>  <m_primary>  (28) 
energy

>  <rmsd>  (28) 
3.554006373112317

>  <m_score__min__rmsd>  (28) 
3.554006373112317

>  <meeko>  (28) 
{"free_energy": -7.36, "intermolecular_energy": -8.85, "internal_energy": -2.11, "cluster_size": 10, "cluster_id": 2, "rank_in_cluster": 8}

>  <energy>  (28) 
-7.29

>  <cluster_rmsd>  (28) 
1.34

>  <cluster>  (28) 
1

$$$$

     RDKit          3D

 45 48  0  0  0  0  0  0  0  0999 V2000
  140.9570   72.9730  222.1780 O   0  0  0  0  0  0  0  0  0  0  0  0
  139.9230   72.5640  222.7620 C   0  0  0  0  0  0  0  0  0  0  0  0
  138.6860   73.1340  222.3420 N   0  0  0  0  0  0  0  0  0  0  0  0
  138.7220   74.1110  221.2990 C   0  0  0  0  0  0  0  0  0  0  0  0
  139.1020   75.4310  221.7520 C   0  0  0  0  0  0  0  0  0  0  0  0
  138.3540   75.8990  222.7220 O   0  0  0  0  0  0  0  0  0  0  0  0
  140.1160   76.3240  221.3760 N   0  0  0  0  0  0  0  0  0  0  0  0
  141.4890   75.8190  221.1450 C   0  0  0  0  0  0  0  0  0  0  0  0
  142.0980   76.7450  220.1440 C   0  0  0  0  0  0  0  0  0  0  0  0
  140.9860   77.6540  219.7430 C   0  0  0  0  0  0  0  0  0  0  0  0
  140.2010   77.7210  221.0670 C   0  0  2  0  0  0  0  0  0  0  0  0
  141.0120   78.4000  222.0940 C   0  0  0  0  0  0  0  0  0  0  0  0
  140.8810   78.4820  223.4170 N   0  0  0  0  0  0  0  0  0  0  0  0
  141.8700   79.2000  223.9820 C   0  0  0  0  0  0  0  0  0  0  0  0
  142.6760   79.5940  222.9390 C   0  0  0  0  0  0  0  0  0  0  0  0
  142.1490   79.1070  221.8180 N   0  0  0  0  0  0  0  0  0  0  0  0
  139.9290   71.5620  223.8170 C   0  0  0  0  0  0  0  0  0  0  0  0
  139.3770   70.3110  223.6370 C   0  0  0  0  0  0  0  0  0  0  0  0
  139.3560   69.3410  224.6150 C   0  0  0  0  0  0  0  0  0  0  0  0
  139.9250   69.6640  225.8350 C   0  0  0  0  0  0  0  0  0  0  0  0
  139.9310   68.7300  226.8520 C   0  0  0  0  0  0  0  0  0  0  0  0
  140.5010   69.0700  228.0570 C   0  0  0  0  0  0  0  0  0  0  0  0
  140.5080   68.1420  229.0680 F   0  0  0  0  0  0  0  0  0  0  0  0
  141.0500   70.3230  228.2270 C   0  0  0  0  0  0  0  0  0  0  0  0
  141.0640   71.2850  227.2380 C   0  0  0  0  0  0  0  0  0  0  0  0
  140.4780   70.9130  226.0230 C   0  0  0  0  0  0  0  0  0  0  0  0
  140.4810   71.8450  225.0330 N   0  0  0  0  0  0  0  0  0  0  0  0
  137.8250   72.7960  222.8290 H   0  0  0  0  0  0  0  0  0  0  0  0
  139.4471   73.7822  220.5400 H   0  0  0  0  0  0  0  0  0  0  0  0
  137.7010   74.1904  220.8974 H   0  0  0  0  0  0  0  0  0  0  0  0
  142.0656   75.8339  222.0816 H   0  0  0  0  0  0  0  0  0  0  0  0
  141.4837   74.7795  220.7854 H   0  0  0  0  0  0  0  0  0  0  0  0
  142.9224   77.3164  220.5955 H   0  0  0  0  0  0  0  0  0  0  0  0
  142.5254   76.2066  219.2853 H   0  0  0  0  0  0  0  0  0  0  0  0
  141.3577   78.6436  219.4388 H   0  0  0  0  0  0  0  0  0  0  0  0
  140.4012   77.3143  218.8755 H   0  0  0  0  0  0  0  0  0  0  0  0
  139.2412   78.2560  221.0163 H   0  0  0  0  0  0  0  0  0  0  0  0
  142.0049   79.4240  225.0505 H   0  0  0  0  0  0  0  0  0  0  0  0
  143.5899   80.2012  223.0173 H   0  0  0  0  0  0  0  0  0  0  0  0
  142.5400   79.2380  220.8800 H   0  0  0  0  0  0  0  0  0  0  0  0
  138.9295   70.0751  222.6602 H   0  0  0  0  0  0  0  0  0  0  0  0
  138.9069   68.3532  224.4345 H   0  0  0  0  0  0  0  0  0  0  0  0
  139.4889   67.7341  226.7017 H   0  0  0  0  0  0  0  0  0  0  0  0
  141.4997   70.5683  229.2004 H   0  0  0  0  0  0  0  0  0  0  0  0
  141.5070   72.2796  227.3945 H   0  0  0  0  0  0  0  0  0  0  0  0
  1  2  2  0
  2  3  1  0
  3  4  1  0
  4  5  1  0
  5  6  2  0
  5  7  1  0
  7  8  1  0
  8  9  1  0
  9 10  1  0
 10 11  1  0
 11 12  1  0
 12 13  2  0
 13 14  1  0
 14 15  2  0
 15 16  1  0
  2 17  1  0
 17 18  2  0
 18 19  1  0
 19 20  2  0
 20 21  1  0
 21 22  2  0
 22 23  1  0
 22 24  1  0
 24 25  2  0
 25 26  1  0
 26 27  2  0
 11  7  1  0
 16 12  1  0
 27 17  1  0
 26 20  1  0
  3 28  1  0
  4 29  1  0
  4 30  1  0
  8 31  1  0
  8 32  1  0
  9 33  1  0
  9 34  1  0
 10 35  1  0
 10 36  1  0
 11 37  1  6
 14 38  1  0
 15 39  1  0
 16 40  1  0
 18 41  1  0
 19 42  1  0
 21 43  1  0
 24 44  1  0
 25 45  1  0
M  END
>  <smiles>  (29) 
O=C(NCC(=O)N1CCC[C@@H]1c1ncc[nH]1)c1ccc2cc(F)ccc2n1

>  <score_type>  (29) 
oracle

>  <origin>  (29) 
autodockgpu

>  <m_score__min__energy>  (29) 
-8.2699999999999996

>  <m_primary>  (29) 
energy

>  <rmsd>  (29) 
2.004417699069583

>  <m_score__min__rmsd>  (29) 
2.004417699069583

>  <meeko>  (29) 
{"free_energy": -8.08, "intermolecular_energy": -9.57, "internal_energy": -1.25, "cluster_size": 30, "cluster_id": 1, "rank_in_cluster": 11}

>  <energy>  (29) 
-7.22

>  <cluster_rmsd>  (29) 
0.9

>  <cluster>  (29) 
1

$$$$

     RDKit          3D

 45 48  0  0  0  0  0  0  0  0999 V2000
  139.3810   76.1470  220.2080 O   0  0  0  0  0  0  0  0  0  0  0  0
  139.8250   75.3840  221.1010 C   0  0  0  0  0  0  0  0  0  0  0  0
  139.1700   75.4340  222.3660 N   0  0  0  0  0  0  0  0  0  0  0  0
  138.0720   76.3370  222.5120 C   0  0  0  0  0  0  0  0  0  0  0  0
  138.4720   77.7120  222.7160 C   0  0  0  0  0  0  0  0  0  0  0  0
  137.4970   78.5000  223.1000 O   0  0  0  0  0  0  0  0  0  0  0  0
  139.6950   78.3880  222.5960 N   0  0  0  0  0  0  0  0  0  0  0  0
  139.7440   79.8560  222.7880 C   0  0  0  0  0  0  0  0  0  0  0  0
  141.1170   80.1530  223.2920 C   0  0  0  0  0  0  0  0  0  0  0  0
  141.7420   78.8150  223.5010 C   0  0  0  0  0  0  0  0  0  0  0  0
  141.0620   78.0190  222.3710 C   0  0  2  0  0  0  0  0  0  0  0  0
  141.4980   78.5400  221.0620 C   0  0  0  0  0  0  0  0  0  0  0  0
  141.8480   79.7630  220.6650 N   0  0  0  0  0  0  0  0  0  0  0  0
  142.2000   79.7930  219.3660 C   0  0  0  0  0  0  0  0  0  0  0  0
  142.0610   78.4990  218.9190 C   0  0  0  0  0  0  0  0  0  0  0  0
  141.6410   77.7640  219.9460 N   0  0  0  0  0  0  0  0  0  0  0  0
  140.9440   74.4740  220.9090 C   0  0  0  0  0  0  0  0  0  0  0  0
  140.7740   73.1060  220.8750 C   0  0  0  0  0  0  0  0  0  0  0  0
  141.8100   72.2140  220.7050 C   0  0  0  0  0  0  0  0  0  0  0  0
  143.0810   72.7450  220.5630 C   0  0  0  0  0  0  0  0  0  0  0  0
  144.1570   71.8970  220.3900 C   0  0  0  0  0  0  0  0  0  0  0  0
  145.4120   72.4430  220.2510 C   0  0  0  0  0  0  0  0  0  0  0  0
  146.4820   71.6020  220.0790 F   0  0  0  0  0  0  0  0  0  0  0  0
  145.5720   73.8120  220.2870 C   0  0  0  0  0  0  0  0  0  0  0  0
  144.5250   74.6940  220.4580 C   0  0  0  0  0  0  0  0  0  0  0  0
  143.2600   74.1110  220.5960 C   0  0  0  0  0  0  0  0  0  0  0  0
  142.2120   74.9610  220.7660 N   0  0  0  0  0  0  0  0  0  0  0  0
  139.5400   74.8010  223.1110 H   0  0  0  0  0  0  0  0  0  0  0  0
  137.4571   76.2859  221.6014 H   0  0  0  0  0  0  0  0  0  0  0  0
  137.5186   76.0269  223.4107 H   0  0  0  0  0  0  0  0  0  0  0  0
  139.5656   80.3735  221.8339 H   0  0  0  0  0  0  0  0  0  0  0  0
  138.9709   80.1990  223.4913 H   0  0  0  0  0  0  0  0  0  0  0  0
  141.6848   80.7347  222.5509 H   0  0  0  0  0  0  0  0  0  0  0  0
  141.1009   80.7531  224.2138 H   0  0  0  0  0  0  0  0  0  0  0  0
  142.8341   78.8509  223.3743 H   0  0  0  0  0  0  0  0  0  0  0  0
  141.6072   78.3943  224.5084 H   0  0  0  0  0  0  0  0  0  0  0  0
  141.2694   76.9387  222.3682 H   0  0  0  0  0  0  0  0  0  0  0  0
  142.5291   80.6670  218.7848 H   0  0  0  0  0  0  0  0  0  0  0  0
  142.2606   78.1380  217.8993 H   0  0  0  0  0  0  0  0  0  0  0  0
  141.4550   76.7570  219.9100 H   0  0  0  0  0  0  0  0  0  0  0  0
  139.7560   72.7053  220.9898 H   0  0  0  0  0  0  0  0  0  0  0  0
  141.6353   71.1282  220.6830 H   0  0  0  0  0  0  0  0  0  0  0  0
  144.0135   70.8067  220.3638 H   0  0  0  0  0  0  0  0  0  0  0  0
  146.5864   74.2220  220.1736 H   0  0  0  0  0  0  0  0  0  0  0  0
  144.6745   75.7835  220.4841 H   0  0  0  0  0  0  0  0  0  0  0  0
  1  2  2  0
  2  3  1  0
  3  4  1  0
  4  5  1  0
  5  6  2  0
  5  7  1  0
  7  8  1  0
  8  9  1  0
  9 10  1  0
 10 11  1  0
 11 12  1  0
 12 13  2  0
 13 14  1  0
 14 15  2  0
 15 16  1  0
  2 17  1  0
 17 18  2  0
 18 19  1  0
 19 20  2  0
 20 21  1  0
 21 22  2  0
 22 23  1  0
 22 24  1  0
 24 25  2  0
 25 26  1  0
 26 27  2  0
 11  7  1  0
 16 12  1  0
 27 17  1  0
 26 20  1  0
  3 28  1  0
  4 29  1  0
  4 30  1  0
  8 31  1  0
  8 32  1  0
  9 33  1  0
  9 34  1  0
 10 35  1  0
 10 36  1  0
 11 37  1  6
 14 38  1  0
 15 39  1  0
 16 40  1  0
 18 41  1  0
 19 42  1  0
 21 43  1  0
 24 44  1  0
 25 45  1  0
M  END
>  <smiles>  (30) 
O=C(NCC(=O)N1CCC[C@@H]1c1ncc[nH]1)c1ccc2cc(F)ccc2n1

>  <score_type>  (30) 
oracle

>  <origin>  (30) 
autodockgpu

>  <m_score__min__energy>  (30) 
-8.2699999999999996

>  <m_primary>  (30) 
energy

>  <rmsd>  (30) 
5.989991232440415

>  <m_score__min__rmsd>  (30) 
5.989991232440415

>  <meeko>  (30) 
{"free_energy": -6.04, "intermolecular_energy": -7.53, "internal_energy": -2.87, "cluster_size": 5, "cluster_id": 6, "rank_in_cluster": 4}

>  <energy>  (30) 
-7.14

>  <cluster_rmsd>  (30) 
1.15

>  <cluster>  (30) 
1

$$$$

     RDKit          3D

 45 48  0  0  0  0  0  0  0  0999 V2000
  140.4950   72.9530  222.6010 O   0  0  0  0  0  0  0  0  0  0  0  0
  140.3500   71.7350  222.8730 C   0  0  0  0  0  0  0  0  0  0  0  0
  140.0710   70.8660  221.7780 N   0  0  0  0  0  0  0  0  0  0  0  0
  139.9830   71.4440  220.4740 C   0  0  0  0  0  0  0  0  0  0  0  0
  141.2640   71.6050  219.8210 C   0  0  0  0  0  0  0  0  0  0  0  0
  141.6160   70.5830  219.0790 O   0  0  0  0  0  0  0  0  0  0  0  0
  142.2160   72.6350  219.8060 N   0  0  0  0  0  0  0  0  0  0  0  0
  143.2530   72.6900  220.8620 C   0  0  0  0  0  0  0  0  0  0  0  0
  144.4320   73.3580  220.2370 C   0  0  0  0  0  0  0  0  0  0  0  0
  144.0570   73.5240  218.8030 C   0  0  0  0  0  0  0  0  0  0  0  0
  142.5380   73.7320  218.9420 C   0  0  2  0  0  0  0  0  0  0  0  0
  142.2710   75.0010  219.6450 C   0  0  0  0  0  0  0  0  0  0  0  0
  142.7170   76.2400  219.4410 N   0  0  0  0  0  0  0  0  0  0  0  0
  142.1980   77.1170  220.3190 C   0  0  0  0  0  0  0  0  0  0  0  0
  141.3690   76.3760  221.1300 C   0  0  0  0  0  0  0  0  0  0  0  0
  141.4250   75.1130  220.7120 N   0  0  0  0  0  0  0  0  0  0  0  0
  140.4530   71.1850  224.2160 C   0  0  0  0  0  0  0  0  0  0  0  0
  141.0110   71.9000  225.2550 C   0  0  0  0  0  0  0  0  0  0  0  0
  141.1340   71.4090  226.5370 C   0  0  0  0  0  0  0  0  0  0  0  0
  140.6650   70.1270  226.7680 C   0  0  0  0  0  0  0  0  0  0  0  0
  140.7630   69.5840  228.0340 C   0  0  0  0  0  0  0  0  0  0  0  0
  140.2920   68.3090  228.2440 C   0  0  0  0  0  0  0  0  0  0  0  0
  140.3890   67.7690  229.5020 F   0  0  0  0  0  0  0  0  0  0  0  0
  139.7360   67.6030  227.1990 C   0  0  0  0  0  0  0  0  0  0  0  0
  139.6190   68.1070  225.9200 C   0  0  0  0  0  0  0  0  0  0  0  0
  140.1060   69.4060  225.7350 C   0  0  0  0  0  0  0  0  0  0  0  0
  140.0020   69.9250  224.4820 N   0  0  0  0  0  0  0  0  0  0  0  0
  139.9480   69.8530  222.0040 H   0  0  0  0  0  0  0  0  0  0  0  0
  139.3535   70.7945  219.8481 H   0  0  0  0  0  0  0  0  0  0  0  0
  139.5563   72.4504  220.5968 H   0  0  0  0  0  0  0  0  0  0  0  0
  142.8934   73.2733  221.7225 H   0  0  0  0  0  0  0  0  0  0  0  0
  143.5058   71.6865  221.2349 H   0  0  0  0  0  0  0  0  0  0  0  0
  144.6171   74.3360  220.7053 H   0  0  0  0  0  0  0  0  0  0  0  0
  145.3556   72.7734  220.3607 H   0  0  0  0  0  0  0  0  0  0  0  0
  144.5485   74.3985  218.3518 H   0  0  0  0  0  0  0  0  0  0  0  0
  144.3509   72.6896  218.1492 H   0  0  0  0  0  0  0  0  0  0  0  0
  141.9812   73.7706  217.9941 H   0  0  0  0  0  0  0  0  0  0  0  0
  142.3946   78.1978  220.3766 H   0  0  0  0  0  0  0  0  0  0  0  0
  140.7697   76.7574  221.9699 H   0  0  0  0  0  0  0  0  0  0  0  0
  140.9040   74.3350  221.1270 H   0  0  0  0  0  0  0  0  0  0  0  0
  141.3775   72.9166  225.0495 H   0  0  0  0  0  0  0  0  0  0  0  0
  141.5849   72.0092  227.3411 H   0  0  0  0  0  0  0  0  0  0  0  0
  141.2090   70.1599  228.8582 H   0  0  0  0  0  0  0  0  0  0  0  0
  139.3666   66.5855  227.3947 H   0  0  0  0  0  0  0  0  0  0  0  0
  139.1723   67.5261  225.0996 H   0  0  0  0  0  0  0  0  0  0  0  0
  1  2  2  0
  2  3  1  0
  3  4  1  0
  4  5  1  0
  5  6  2  0
  5  7  1  0
  7  8  1  0
  8  9  1  0
  9 10  1  0
 10 11  1  0
 11 12  1  0
 12 13  2  0
 13 14  1  0
 14 15  2  0
 15 16  1  0
  2 17  1  0
 17 18  2  0
 18 19  1  0
 19 20  2  0
 20 21  1  0
 21 22  2  0
 22 23  1  0
 22 24  1  0
 24 25  2  0
 25 26  1  0
 26 27  2  0
 11  7  1  0
 16 12  1  0
 27 17  1  0
 26 20  1  0
  3 28  1  0
  4 29  1  0
  4 30  1  0
  8 31  1  0
  8 32  1  0
  9 33  1  0
  9 34  1  0
 10 35  1  0
 10 36  1  0
 11 37  1  6
 14 38  1  0
 15 39  1  0
 16 40  1  0
 18 41  1  0
 19 42  1  0
 21 43  1  0
 24 44  1  0
 25 45  1  0
M  END
>  <smiles>  (31) 
O=C(NCC(=O)N1CCC[C@@H]1c1ncc[nH]1)c1ccc2cc(F)ccc2n1

>  <score_type>  (31) 
oracle

>  <origin>  (31) 
autodockgpu

>  <m_score__min__energy>  (31) 
-8.2699999999999996

>  <m_primary>  (31) 
energy

>  <rmsd>  (31) 
3.9579744205622407

>  <m_score__min__rmsd>  (31) 
3.9579744205622407

>  <meeko>  (31) 
{"free_energy": -6.17, "intermolecular_energy": -7.66, "internal_energy": -2.51, "cluster_size": 3, "cluster_id": 4, "rank_in_cluster": 3}

>  <energy>  (31) 
-7.6

>  <cluster_rmsd>  (31) 
0.0

>  <cluster>  (31) 
2

$$$$

     RDKit          3D

 45 48  0  0  0  0  0  0  0  0999 V2000
  141.0620   71.6580  221.7030 O   0  0  0  0  0  0  0  0  0  0  0  0
  140.1640   71.7320  222.5780 C   0  0  0  0  0  0  0  0  0  0  0  0
  139.1600   72.7240  222.3780 N   0  0  0  0  0  0  0  0  0  0  0  0
  139.2550   73.5430  221.2110 C   0  0  0  0  0  0  0  0  0  0  0  0
  140.3930   74.4360  221.2180 C   0  0  0  0  0  0  0  0  0  0  0  0
  140.3800   75.3100  222.1950 O   0  0  0  0  0  0  0  0  0  0  0  0
  141.5230   74.5630  220.3970 N   0  0  0  0  0  0  0  0  0  0  0  0
  141.5390   73.9170  219.0650 C   0  0  0  0  0  0  0  0  0  0  0  0
  142.4420   74.7530  218.2200 C   0  0  0  0  0  0  0  0  0  0  0  0
  142.7860   75.9240  219.0770 C   0  0  0  0  0  0  0  0  0  0  0  0
  142.7770   75.2560  220.4640 C   0  0  2  0  0  0  0  0  0  0  0  0
  143.8730   74.2740  220.5520 C   0  0  0  0  0  0  0  0  0  0  0  0
  145.1960   74.4100  220.4680 N   0  0  0  0  0  0  0  0  0  0  0  0
  145.8370   73.2370  220.6230 C   0  0  0  0  0  0  0  0  0  0  0  0
  144.8470   72.3020  220.8190 C   0  0  0  0  0  0  0  0  0  0  0  0
  143.6790   72.9390  220.7730 N   0  0  0  0  0  0  0  0  0  0  0  0
  140.1000   70.8740  223.7500 C   0  0  0  0  0  0  0  0  0  0  0  0
  139.5310   69.6180  223.7050 C   0  0  0  0  0  0  0  0  0  0  0  0
  139.4450   68.7820  224.7970 C   0  0  0  0  0  0  0  0  0  0  0  0
  139.9640   69.2510  225.9920 C   0  0  0  0  0  0  0  0  0  0  0  0
  139.9050   68.4550  227.1190 C   0  0  0  0  0  0  0  0  0  0  0  0
  140.4260   68.9380  228.2970 C   0  0  0  0  0  0  0  0  0  0  0  0
  140.3670   68.1480  229.4170 F   0  0  0  0  0  0  0  0  0  0  0  0
  140.9920   70.1940  228.3320 C   0  0  0  0  0  0  0  0  0  0  0  0
  141.0710   71.0220  227.2300 C   0  0  0  0  0  0  0  0  0  0  0  0
  140.5340   70.5050  226.0460 C   0  0  0  0  0  0  0  0  0  0  0  0
  140.6010   71.3020  224.9460 N   0  0  0  0  0  0  0  0  0  0  0  0
  138.4130   72.7880  223.1070 H   0  0  0  0  0  0  0  0  0  0  0  0
  139.3340   72.8867  220.3317 H   0  0  0  0  0  0  0  0  0  0  0  0
  138.3530   74.1721  221.1857 H   0  0  0  0  0  0  0  0  0  0  0  0
  141.9271   72.8906  219.1414 H   0  0  0  0  0  0  0  0  0  0  0  0
  140.5288   73.8495  218.6350 H   0  0  0  0  0  0  0  0  0  0  0  0
  143.3482   74.1919  217.9480 H   0  0  0  0  0  0  0  0  0  0  0  0
  141.9665   75.0544  217.2750 H   0  0  0  0  0  0  0  0  0  0  0  0
  143.7759   76.3343  218.8285 H   0  0  0  0  0  0  0  0  0  0  0  0
  142.1102   76.7859  218.9748 H   0  0  0  0  0  0  0  0  0  0  0  0
  142.8968   75.9420  221.3155 H   0  0  0  0  0  0  0  0  0  0  0  0
  146.9228   73.0626  220.5982 H   0  0  0  0  0  0  0  0  0  0  0  0
  144.9938   71.2244  220.9837 H   0  0  0  0  0  0  0  0  0  0  0  0
  142.7640   72.4950  220.8920 H   0  0  0  0  0  0  0  0  0  0  0  0
  139.1241   69.2650  222.7459 H   0  0  0  0  0  0  0  0  0  0  0  0
  138.9843   67.7859  224.7227 H   0  0  0  0  0  0  0  0  0  0  0  0
  139.4503   67.4543  227.0756 H   0  0  0  0  0  0  0  0  0  0  0  0
  141.4018   70.5553  229.2867 H   0  0  0  0  0  0  0  0  0  0  0  0
  141.5261   72.0222  227.2796 H   0  0  0  0  0  0  0  0  0  0  0  0
  1  2  2  0
  2  3  1  0
  3  4  1  0
  4  5  1  0
  5  6  2  0
  5  7  1  0
  7  8  1  0
  8  9  1  0
  9 10  1  0
 10 11  1  0
 11 12  1  0
 12 13  2  0
 13 14  1  0
 14 15  2  0
 15 16  1  0
  2 17  1  0
 17 18  2  0
 18 19  1  0
 19 20  2  0
 20 21  1  0
 21 22  2  0
 22 23  1  0
 22 24  1  0
 24 25  2  0
 25 26  1  0
 26 27  2  0
 11  7  1  0
 16 12  1  0
 27 17  1  0
 26 20  1  0
  3 28  1  0
  4 29  1  0
  4 30  1  0
  8 31  1  0
  8 32  1  0
  9 33  1  0
  9 34  1  0
 10 35  1  0
 10 36  1  0
 11 37  1  1
 14 38  1  0
 15 39  1  0
 16 40  1  0
 18 41  1  0
 19 42  1  0
 21 43  1  0
 24 44  1  0
 25 45  1  0
M  END
>  <smiles>  (32) 
O=C(NCC(=O)N1CCC[C@@H]1c1ncc[nH]1)c1ccc2cc(F)ccc2n1

>  <score_type>  (32) 
oracle

>  <origin>  (32) 
autodockgpu

>  <m_score__min__energy>  (32) 
-8.2699999999999996

>  <m_primary>  (32) 
energy

>  <rmsd>  (32) 
3.38451555001378

>  <m_score__min__rmsd>  (32) 
3.38451555001378

>  <meeko>  (32) 
{"free_energy": -7.39, "intermolecular_energy": -8.88, "internal_energy": -2.1, "cluster_size": 10, "cluster_id": 2, "rank_in_cluster": 3}

>  <energy>  (32) 
-7.46

>  <cluster_rmsd>  (32) 
1.0

>  <cluster>  (32) 
2

$$$$

     RDKit          3D

 45 48  0  0  0  0  0  0  0  0999 V2000
  141.2220   72.1160  221.4020 O   0  0  0  0  0  0  0  0  0  0  0  0
  140.4800   72.3880  222.3790 C   0  0  0  0  0  0  0  0  0  0  0  0
  139.8190   73.6500  222.3440 N   0  0  0  0  0  0  0  0  0  0  0  0
  140.0490   74.4920  221.2120 C   0  0  0  0  0  0  0  0  0  0  0  0
  139.8700   75.9010  221.4890 C   0  0  0  0  0  0  0  0  0  0  0  0
  138.9360   76.1560  222.3730 O   0  0  0  0  0  0  0  0  0  0  0  0
  140.4940   77.0640  221.0140 N   0  0  0  0  0  0  0  0  0  0  0  0
  141.8070   76.9660  220.3350 C   0  0  0  0  0  0  0  0  0  0  0  0
  141.8570   78.1160  219.3850 C   0  0  0  0  0  0  0  0  0  0  0  0
  140.5020   78.7350  219.4660 C   0  0  0  0  0  0  0  0  0  0  0  0
  140.1660   78.4570  220.9430 C   0  0  2  0  0  0  0  0  0  0  0  0
  141.0800   79.2190  221.8150 C   0  0  0  0  0  0  0  0  0  0  0  0
  141.3580   80.5200  221.8890 N   0  0  0  0  0  0  0  0  0  0  0  0
  142.2550   80.7930  222.8540 C   0  0  0  0  0  0  0  0  0  0  0  0
  142.5600   79.5780  223.4240 C   0  0  0  0  0  0  0  0  0  0  0  0
  141.8490   78.6480  222.7900 N   0  0  0  0  0  0  0  0  0  0  0  0
  140.2690   71.4990  223.5100 C   0  0  0  0  0  0  0  0  0  0  0  0
  139.6200   70.2890  223.3750 C   0  0  0  0  0  0  0  0  0  0  0  0
  139.3940   69.4260  224.4250 C   0  0  0  0  0  0  0  0  0  0  0  0
  139.8500   69.8170  225.6720 C   0  0  0  0  0  0  0  0  0  0  0  0
  139.6500   68.9920  226.7610 C   0  0  0  0  0  0  0  0  0  0  0  0
  140.1100   69.3980  227.9920 C   0  0  0  0  0  0  0  0  0  0  0  0
  139.9120   68.5780  229.0740 F   0  0  0  0  0  0  0  0  0  0  0  0
  140.7560   70.6090  228.1160 C   0  0  0  0  0  0  0  0  0  0  0  0
  140.9770   71.4640  227.0560 C   0  0  0  0  0  0  0  0  0  0  0  0
  140.4990   71.0260  225.8160 C   0  0  0  0  0  0  0  0  0  0  0  0
  140.7040   71.8510  224.7550 N   0  0  0  0  0  0  0  0  0  0  0  0
  139.2020   73.8780  223.1570 H   0  0  0  0  0  0  0  0  0  0  0  0
  141.0812   74.3345  220.8661 H   0  0  0  0  0  0  0  0  0  0  0  0
  139.3045   74.2170  220.4504 H   0  0  0  0  0  0  0  0  0  0  0  0
  142.6241   77.0381  221.0679 H   0  0  0  0  0  0  0  0  0  0  0  0
  141.9243   76.0040  219.8146 H   0  0  0  0  0  0  0  0  0  0  0  0
  142.6310   78.8362  219.6885 H   0  0  0  0  0  0  0  0  0  0  0  0
  142.1089   77.7995  218.3621 H   0  0  0  0  0  0  0  0  0  0  0  0
  140.5327   79.8133  219.2507 H   0  0  0  0  0  0  0  0  0  0  0  0
  139.7707   78.3430  218.7438 H   0  0  0  0  0  0  0  0  0  0  0  0
  139.1428   78.7210  221.2485 H   0  0  0  0  0  0  0  0  0  0  0  0
  142.6590   81.7785  223.1291 H   0  0  0  0  0  0  0  0  0  0  0  0
  143.2631   79.4066  224.2524 H   0  0  0  0  0  0  0  0  0  0  0  0
  141.8680   77.6470  223.0050 H   0  0  0  0  0  0  0  0  0  0  0  0
  139.2640   69.9977  222.3758 H   0  0  0  0  0  0  0  0  0  0  0  0
  138.8738   68.4679  224.2786 H   0  0  0  0  0  0  0  0  0  0  0  0
  139.1325   68.0281  226.6462 H   0  0  0  0  0  0  0  0  0  0  0  0
  141.1140   70.9095  229.1118 H   0  0  0  0  0  0  0  0  0  0  0  0
  141.4950   72.4268  227.1777 H   0  0  0  0  0  0  0  0  0  0  0  0
  1  2  2  0
  2  3  1  0
  3  4  1  0
  4  5  1  0
  5  6  2  0
  5  7  1  0
  7  8  1  0
  8  9  1  0
  9 10  1  0
 10 11  1  0
 11 12  1  0
 12 13  2  0
 13 14  1  0
 14 15  2  0
 15 16  1  0
  2 17  1  0
 17 18  2  0
 18 19  1  0
 19 20  2  0
 20 21  1  0
 21 22  2  0
 22 23  1  0
 22 24  1  0
 24 25  2  0
 25 26  1  0
 26 27  2  0
 11  7  1  0
 16 12  1  0
 27 17  1  0
 26 20  1  0
  3 28  1  0
  4 29  1  0
  4 30  1  0
  8 31  1  0
  8 32  1  0
  9 33  1  0
  9 34  1  0
 10 35  1  0
 10 36  1  0
 11 37  1  6
 14 38  1  0
 15 39  1  0
 16 40  1  0
 18 41  1  0
 19 42  1  0
 21 43  1  0
 24 44  1  0
 25 45  1  0
M  END
>  <smiles>  (33) 
O=C(NCC(=O)N1CCC[C@@H]1c1ncc[nH]1)c1ccc2cc(F)ccc2n1

>  <score_type>  (33) 
oracle

>  <origin>  (33) 
autodockgpu

>  <m_score__min__energy>  (33) 
-8.2699999999999996

>  <m_primary>  (33) 
energy

>  <rmsd>  (33) 
2.1687393214445243

>  <m_score__min__rmsd>  (33) 
2.1687393214445243

>  <meeko>  (33) 
{"free_energy": -7.9, "intermolecular_energy": -9.39, "internal_energy": -1.58, "cluster_size": 30, "cluster_id": 1, "rank_in_cluster": 17}

>  <energy>  (33) 
-7.39

>  <cluster_rmsd>  (33) 
1.19

>  <cluster>  (33) 
2

$$$$

     RDKit          3D

 45 48  0  0  0  0  0  0  0  0999 V2000
  141.3170   72.6270  221.8630 O   0  0  0  0  0  0  0  0  0  0  0  0
  140.3050   72.5640  222.6040 C   0  0  0  0  0  0  0  0  0  0  0  0
  139.2580   73.4930  222.3340 N   0  0  0  0  0  0  0  0  0  0  0  0
  139.4430   74.4090  221.2530 C   0  0  0  0  0  0  0  0  0  0  0  0
  140.1970   75.5900  221.6120 C   0  0  0  0  0  0  0  0  0  0  0  0
  141.4450   75.3490  221.9330 O   0  0  0  0  0  0  0  0  0  0  0  0
  139.8770   76.9540  221.6850 N   0  0  0  0  0  0  0  0  0  0  0  0
  139.8760   77.7740  220.4520 C   0  0  0  0  0  0  0  0  0  0  0  0
  138.8830   78.8630  220.6900 C   0  0  0  0  0  0  0  0  0  0  0  0
  138.2570   78.5240  222.0020 C   0  0  0  0  0  0  0  0  0  0  0  0
  139.4540   77.8630  222.7100 C   0  0  2  0  0  0  0  0  0  0  0  0
  140.5120   78.8640  222.9410 C   0  0  0  0  0  0  0  0  0  0  0  0
  140.4650   80.1160  223.3940 N   0  0  0  0  0  0  0  0  0  0  0  0
  141.6880   80.6750  223.4670 C   0  0  0  0  0  0  0  0  0  0  0  0
  142.5600   79.7040  223.0290 C   0  0  0  0  0  0  0  0  0  0  0  0
  141.8400   78.6280  222.7190 N   0  0  0  0  0  0  0  0  0  0  0  0
  140.1530   71.6120  223.6930 C   0  0  0  0  0  0  0  0  0  0  0  0
  139.4820   70.4180  223.5290 C   0  0  0  0  0  0  0  0  0  0  0  0
  139.3110   69.4960  224.5390 C   0  0  0  0  0  0  0  0  0  0  0  0
  139.8510   69.8080  225.7750 C   0  0  0  0  0  0  0  0  0  0  0  0
  139.7090   68.9220  226.8240 C   0  0  0  0  0  0  0  0  0  0  0  0
  140.2520   69.2490  228.0450 C   0  0  0  0  0  0  0  0  0  0  0  0
  140.1120   68.3690  229.0870 F   0  0  0  0  0  0  0  0  0  0  0  0
  140.9210   70.4450  228.1980 C   0  0  0  0  0  0  0  0  0  0  0  0
  141.0850   71.3590  227.1780 C   0  0  0  0  0  0  0  0  0  0  0  0
  140.5230   71.0000  225.9470 C   0  0  0  0  0  0  0  0  0  0  0  0
  140.6720   71.8850  224.9260 N   0  0  0  0  0  0  0  0  0  0  0  0
  138.4160   73.4430  222.9510 H   0  0  0  0  0  0  0  0  0  0  0  0
  139.9776   73.8884  220.4448 H   0  0  0  0  0  0  0  0  0  0  0  0
  138.4428   74.7483  220.9454 H   0  0  0  0  0  0  0  0  0  0  0  0
  140.8749   78.1985  220.2733 H   0  0  0  0  0  0  0  0  0  0  0  0
  139.6161   77.1748  219.5669 H   0  0  0  0  0  0  0  0  0  0  0  0
  139.3842   79.8409  220.7403 H   0  0  0  0  0  0  0  0  0  0  0  0
  138.1413   78.9344  219.8808 H   0  0  0  0  0  0  0  0  0  0  0  0
  137.9141   79.4233  222.5346 H   0  0  0  0  0  0  0  0  0  0  0  0
  137.3555   77.8972  221.9357 H   0  0  0  0  0  0  0  0  0  0  0  0
  139.2286   77.4085  223.6860 H   0  0  0  0  0  0  0  0  0  0  0  0
  141.9373   81.6917  223.8049 H   0  0  0  0  0  0  0  0  0  0  0  0
  143.6529   79.7998  222.9496 H   0  0  0  0  0  0  0  0  0  0  0  0
  142.2240   77.7460  222.3690 H   0  0  0  0  0  0  0  0  0  0  0  0
  139.0607   70.1895  222.5389 H   0  0  0  0  0  0  0  0  0  0  0  0
  138.7693   68.5536  224.3705 H   0  0  0  0  0  0  0  0  0  0  0  0
  139.1716   67.9721  226.6862 H   0  0  0  0  0  0  0  0  0  0  0  0
  141.3459   70.6825  229.1845 H   0  0  0  0  0  0  0  0  0  0  0  0
  141.6223   72.3080  227.3223 H   0  0  0  0  0  0  0  0  0  0  0  0
  1  2  2  0
  2  3  1  0
  3  4  1  0
  4  5  1  0
  5  6  2  0
  5  7  1  0
  7  8  1  0
  8  9  1  0
  9 10  1  0
 10 11  1  0
 11 12  1  0
 12 13  2  0
 13 14  1  0
 14 15  2  0
 15 16  1  0
  2 17  1  0
 17 18  2  0
 18 19  1  0
 19 20  2  0
 20 21  1  0
 21 22  2  0
 22 23  1  0
 22 24  1  0
 24 25  2  0
 25 26  1  0
 26 27  2  0
 11  7  1  0
 16 12  1  0
 27 17  1  0
 26 20  1  0
  3 28  1  0
  4 29  1  0
  4 30  1  0
  8 31  1  0
  8 32  1  0
  9 33  1  0
  9 34  1  0
 10 35  1  0
 10 36  1  0
 11 37  1  1
 14 38  1  0
 15 39  1  0
 16 40  1  0
 18 41  1  0
 19 42  1  0
 21 43  1  0
 24 44  1  0
 25 45  1  0
M  END
>  <smiles>  (34) 
O=C(NCC(=O)N1CCC[C@@H]1c1ncc[nH]1)c1ccc2cc(F)ccc2n1

>  <score_type>  (34) 
oracle

>  <origin>  (34) 
autodockgpu

>  <m_score__min__energy>  (34) 
-8.2699999999999996

>  <m_primary>  (34) 
energy

>  <rmsd>  (34) 
2.529961640572477

>  <m_score__min__rmsd>  (34) 
2.529961640572477

>  <meeko>  (34) 
{"free_energy": -8.26, "intermolecular_energy": -9.75, "internal_energy": -1.45, "cluster_size": 30, "cluster_id": 1, "rank_in_cluster": 4}

>  <energy>  (34) 
-7.39

>  <cluster_rmsd>  (34) 
0.95

>  <cluster>  (34) 
2

$$$$

     RDKit          3D

 45 48  0  0  0  0  0  0  0  0999 V2000
  141.2670   72.6110  221.7860 O   0  0  0  0  0  0  0  0  0  0  0  0
  140.2810   72.5660  222.5630 C   0  0  0  0  0  0  0  0  0  0  0  0
  139.2500   73.5250  222.3400 N   0  0  0  0  0  0  0  0  0  0  0  0
  139.4200   74.4480  221.2620 C   0  0  0  0  0  0  0  0  0  0  0  0
  140.1760   75.6280  221.6200 C   0  0  0  0  0  0  0  0  0  0  0  0
  141.4260   75.3860  221.9320 O   0  0  0  0  0  0  0  0  0  0  0  0
  139.8560   76.9910  221.6980 N   0  0  0  0  0  0  0  0  0  0  0  0
  139.8410   77.8130  220.4660 C   0  0  0  0  0  0  0  0  0  0  0  0
  138.8510   78.9010  220.7170 C   0  0  0  0  0  0  0  0  0  0  0  0
  138.2390   78.5600  222.0340 C   0  0  0  0  0  0  0  0  0  0  0  0
  139.4440   77.8990  222.7290 C   0  0  2  0  0  0  0  0  0  0  0  0
  140.5040   78.9000  222.9500 C   0  0  0  0  0  0  0  0  0  0  0  0
  140.4670   80.1380  223.4390 N   0  0  0  0  0  0  0  0  0  0  0  0
  141.6880   80.7030  223.4830 C   0  0  0  0  0  0  0  0  0  0  0  0
  142.5490   79.7510  222.9880 C   0  0  0  0  0  0  0  0  0  0  0  0
  141.8240   78.6790  222.6740 N   0  0  0  0  0  0  0  0  0  0  0  0
  140.1440   71.6050  223.6460 C   0  0  0  0  0  0  0  0  0  0  0  0
  139.5100   70.3930  223.4700 C   0  0  0  0  0  0  0  0  0  0  0  0
  139.3540   69.4630  224.4750 C   0  0  0  0  0  0  0  0  0  0  0  0
  139.8680   69.7870  225.7190 C   0  0  0  0  0  0  0  0  0  0  0  0
  139.7400   68.8920  226.7630 C   0  0  0  0  0  0  0  0  0  0  0  0
  140.2570   69.2320  227.9920 C   0  0  0  0  0  0  0  0  0  0  0  0
  140.1300   68.3430  229.0290 F   0  0  0  0  0  0  0  0  0  0  0  0
  140.8890   70.4460  228.1580 C   0  0  0  0  0  0  0  0  0  0  0  0
  141.0380   71.3680  227.1420 C   0  0  0  0  0  0  0  0  0  0  0  0
  140.5030   70.9970  225.9040 C   0  0  0  0  0  0  0  0  0  0  0  0
  140.6390   71.8900  224.8870 N   0  0  0  0  0  0  0  0  0  0  0  0
  138.4300   73.4890  222.9870 H   0  0  0  0  0  0  0  0  0  0  0  0
  139.9459   73.9336  220.4442 H   0  0  0  0  0  0  0  0  0  0  0  0
  138.4157   74.7869  220.9679 H   0  0  0  0  0  0  0  0  0  0  0  0
  140.8378   78.2380  220.2766 H   0  0  0  0  0  0  0  0  0  0  0  0
  139.5713   77.2152  219.5829 H   0  0  0  0  0  0  0  0  0  0  0  0
  139.3528   79.8787  220.7640 H   0  0  0  0  0  0  0  0  0  0  0  0
  138.1007   78.9738  219.9159 H   0  0  0  0  0  0  0  0  0  0  0  0
  137.9007   79.4583  222.5713 H   0  0  0  0  0  0  0  0  0  0  0  0
  137.3374   77.9325  221.9761 H   0  0  0  0  0  0  0  0  0  0  0  0
  139.2296   77.4437  223.7071 H   0  0  0  0  0  0  0  0  0  0  0  0
  141.9432   81.7120  223.8392 H   0  0  0  0  0  0  0  0  0  0  0  0
  143.6379   79.8561  222.8726 H   0  0  0  0  0  0  0  0  0  0  0  0
  142.2010   77.8090  222.2860 H   0  0  0  0  0  0  0  0  0  0  0  0
  139.1073   70.1559  222.4742 H   0  0  0  0  0  0  0  0  0  0  0  0
  138.8434   68.5051  224.2966 H   0  0  0  0  0  0  0  0  0  0  0  0
  139.2347   67.9262  226.6149 H   0  0  0  0  0  0  0  0  0  0  0  0
  141.2950   70.6921  229.1503 H   0  0  0  0  0  0  0  0  0  0  0  0
  141.5446   72.3322  227.2958 H   0  0  0  0  0  0  0  0  0  0  0  0
  1  2  2  0
  2  3  1  0
  3  4  1  0
  4  5  1  0
  5  6  2  0
  5  7  1  0
  7  8  1  0
  8  9  1  0
  9 10  1  0
 10 11  1  0
 11 12  1  0
 12 13  2  0
 13 14  1  0
 14 15  2  0
 15 16  1  0
  2 17  1  0
 17 18  2  0
 18 19  1  0
 19 20  2  0
 20 21  1  0
 21 22  2  0
 22 23  1  0
 22 24  1  0
 24 25  2  0
 25 26  1  0
 26 27  2  0
 11  7  1  0
 16 12  1  0
 27 17  1  0
 26 20  1  0
  3 28  1  0
  4 29  1  0
  4 30  1  0
  8 31  1  0
  8 32  1  0
  9 33  1  0
  9 34  1  0
 10 35  1  0
 10 36  1  0
 11 37  1  1
 14 38  1  0
 15 39  1  0
 16 40  1  0
 18 41  1  0
 19 42  1  0
 21 43  1  0
 24 44  1  0
 25 45  1  0
M  END
>  <smiles>  (35) 
O=C(NCC(=O)N1CCC[C@@H]1c1ncc[nH]1)c1ccc2cc(F)ccc2n1

>  <score_type>  (35) 
oracle

>  <origin>  (35) 
autodockgpu

>  <m_score__min__energy>  (35) 
-8.2699999999999996

>  <m_primary>  (35) 
energy

>  <rmsd>  (35) 
2.538855521892623

>  <m_score__min__rmsd>  (35) 
2.538855521892623

>  <meeko>  (35) 
{"free_energy": -8.26, "intermolecular_energy": -9.75, "internal_energy": -1.45, "cluster_size": 30, "cluster_id": 1, "rank_in_cluster": 5}

>  <energy>  (35) 
-7.38

>  <cluster_rmsd>  (35) 
0.95

>  <cluster>  (35) 
2

$$$$

     RDKit          3D

 45 48  0  0  0  0  0  0  0  0999 V2000
  140.9860   72.0540  221.3360 O   0  0  0  0  0  0  0  0  0  0  0  0
  140.2500   72.3000  222.3240 C   0  0  0  0  0  0  0  0  0  0  0  0
  139.4990   73.5110  222.2740 N   0  0  0  0  0  0  0  0  0  0  0  0
  139.6400   74.3350  221.1150 C   0  0  0  0  0  0  0  0  0  0  0  0
  140.9170   75.0110  221.0340 C   0  0  0  0  0  0  0  0  0  0  0  0
  141.0900   75.9340  221.9490 O   0  0  0  0  0  0  0  0  0  0  0  0
  142.0230   74.8840  220.1810 N   0  0  0  0  0  0  0  0  0  0  0  0
  141.8190   74.4730  218.7730 C   0  0  0  0  0  0  0  0  0  0  0  0
  142.9440   75.0860  218.0060 C   0  0  0  0  0  0  0  0  0  0  0  0
  143.6590   75.9400  218.9990 C   0  0  0  0  0  0  0  0  0  0  0  0
  143.4340   75.1130  220.2780 C   0  0  2  0  0  0  0  0  0  0  0  0
  144.1460   73.8250  220.1710 C   0  0  0  0  0  0  0  0  0  0  0  0
  143.7280   72.5670  220.2980 N   0  0  0  0  0  0  0  0  0  0  0  0
  144.7200   71.6790  220.1020 C   0  0  0  0  0  0  0  0  0  0  0  0
  145.8380   72.4360  219.8320 C   0  0  0  0  0  0  0  0  0  0  0  0
  145.4760   73.7160  219.8780 N   0  0  0  0  0  0  0  0  0  0  0  0
  140.1300   71.4310  223.4840 C   0  0  0  0  0  0  0  0  0  0  0  0
  139.5470   70.1830  223.4020 C   0  0  0  0  0  0  0  0  0  0  0  0
  139.4080   69.3360  224.4800 C   0  0  0  0  0  0  0  0  0  0  0  0
  139.8860   69.7840  225.6990 C   0  0  0  0  0  0  0  0  0  0  0  0
  139.7730   68.9770  226.8140 C   0  0  0  0  0  0  0  0  0  0  0  0
  140.2540   69.4400  228.0170 C   0  0  0  0  0  0  0  0  0  0  0  0
  140.1420   68.6380  229.1240 F   0  0  0  0  0  0  0  0  0  0  0  0
  140.8350   70.6880  228.0880 C   0  0  0  0  0  0  0  0  0  0  0  0
  140.9680   71.5260  227.0000 C   0  0  0  0  0  0  0  0  0  0  0  0
  140.4710   71.0300  225.7900 C   0  0  0  0  0  0  0  0  0  0  0  0
  140.5900   71.8380  224.7030 N   0  0  0  0  0  0  0  0  0  0  0  0
  138.8880   73.7170  223.0960 H   0  0  0  0  0  0  0  0  0  0  0  0
  139.5249   73.7021  220.2228 H   0  0  0  0  0  0  0  0  0  0  0  0
  138.8668   75.1148  221.1789 H   0  0  0  0  0  0  0  0  0  0  0  0
  141.8476   73.3769  218.6855 H   0  0  0  0  0  0  0  0  0  0  0  0
  140.8410   74.8019  218.3917 H   0  0  0  0  0  0  0  0  0  0  0  0
  143.6133   74.3077  217.6106 H   0  0  0  0  0  0  0  0  0  0  0  0
  142.5905   75.6633  217.1389 H   0  0  0  0  0  0  0  0  0  0  0  0
  144.7281   76.0368  218.7588 H   0  0  0  0  0  0  0  0  0  0  0  0
  143.3060   76.9804  219.0531 H   0  0  0  0  0  0  0  0  0  0  0  0
  143.7756   75.5883  221.2093 H   0  0  0  0  0  0  0  0  0  0  0  0
  144.6521   70.5820  220.1478 H   0  0  0  0  0  0  0  0  0  0  0  0
  146.8465   72.0528  219.6174 H   0  0  0  0  0  0  0  0  0  0  0  0
  146.1030   74.5090  219.7110 H   0  0  0  0  0  0  0  0  0  0  0  0
  139.1732   69.8463  222.4238 H   0  0  0  0  0  0  0  0  0  0  0  0
  138.9377   68.3470  224.3761 H   0  0  0  0  0  0  0  0  0  0  0  0
  139.3073   67.9831  226.7417 H   0  0  0  0  0  0  0  0  0  0  0  0
  141.2119   71.0335  229.0619 H   0  0  0  0  0  0  0  0  0  0  0  0
  141.4343   72.5191  227.0788 H   0  0  0  0  0  0  0  0  0  0  0  0
  1  2  2  0
  2  3  1  0
  3  4  1  0
  4  5  1  0
  5  6  2  0
  5  7  1  0
  7  8  1  0
  8  9  1  0
  9 10  1  0
 10 11  1  0
 11 12  1  0
 12 13  2  0
 13 14  1  0
 14 15  2  0
 15 16  1  0
  2 17  1  0
 17 18  2  0
 18 19  1  0
 19 20  2  0
 20 21  1  0
 21 22  2  0
 22 23  1  0
 22 24  1  0
 24 25  2  0
 25 26  1  0
 26 27  2  0
 11  7  1  0
 16 12  1  0
 27 17  1  0
 26 20  1  0
  3 28  1  0
  4 29  1  0
  4 30  1  0
  8 31  1  0
  8 32  1  0
  9 33  1  0
  9 34  1  0
 10 35  1  0
 10 36  1  0
 11 37  1  1
 14 38  1  0
 15 39  1  0
 16 40  1  0
 18 41  1  0
 19 42  1  0
 21 43  1  0
 24 44  1  0
 25 45  1  0
M  END
>  <smiles>  (36) 
O=C(NCC(=O)N1CCC[C@@H]1c1ncc[nH]1)c1ccc2cc(F)ccc2n1

>  <score_type>  (36) 
oracle

>  <origin>  (36) 
autodockgpu

>  <m_score__min__energy>  (36) 
-8.2699999999999996

>  <m_primary>  (36) 
energy

>  <rmsd>  (36) 
3.771603745824915

>  <m_score__min__rmsd>  (36) 
3.771603745824915

>  <meeko>  (36) 
{"free_energy": -7.6, "intermolecular_energy": -9.09, "internal_energy": -1.51, "cluster_size": 10, "cluster_id": 2, "rank_in_cluster": 1}

>  <energy>  (36) 
-7.38

>  <cluster_rmsd>  (36) 
1.0

>  <cluster>  (36) 
2

$$$$

     RDKit          3D

 45 48  0  0  0  0  0  0  0  0999 V2000
  140.9130   72.1210  221.2800 O   0  0  0  0  0  0  0  0  0  0  0  0
  140.1940   72.3410  222.2870 C   0  0  0  0  0  0  0  0  0  0  0  0
  139.3930   73.5200  222.2530 N   0  0  0  0  0  0  0  0  0  0  0  0
  139.4700   74.3450  221.0880 C   0  0  0  0  0  0  0  0  0  0  0  0
  140.7120   75.0780  220.9750 C   0  0  0  0  0  0  0  0  0  0  0  0
  140.8140   76.0860  221.8080 O   0  0  0  0  0  0  0  0  0  0  0  0
  141.8460   74.9350  220.1620 N   0  0  0  0  0  0  0  0  0  0  0  0
  141.7700   74.1030  218.9380 C   0  0  0  0  0  0  0  0  0  0  0  0
  142.7710   74.6810  217.9940 C   0  0  0  0  0  0  0  0  0  0  0  0
  143.2700   75.9110  218.6760 C   0  0  0  0  0  0  0  0  0  0  0  0
  143.1790   75.4600  220.1460 C   0  0  2  0  0  0  0  0  0  0  0  0
  144.1370   74.3660  220.3930 C   0  0  0  0  0  0  0  0  0  0  0  0
  145.4680   74.3470  220.4450 N   0  0  0  0  0  0  0  0  0  0  0  0
  145.9480   73.1190  220.7180 C   0  0  0  0  0  0  0  0  0  0  0  0
  144.8400   72.3140  220.8450 C   0  0  0  0  0  0  0  0  0  0  0  0
  143.7660   73.0760  220.6480 N   0  0  0  0  0  0  0  0  0  0  0  0
  140.1410   71.4720  223.4510 C   0  0  0  0  0  0  0  0  0  0  0  0
  139.5940   70.2070  223.3930 C   0  0  0  0  0  0  0  0  0  0  0  0
  139.5180   69.3590  224.4760 C   0  0  0  0  0  0  0  0  0  0  0  0
  140.0240   69.8260  225.6780 C   0  0  0  0  0  0  0  0  0  0  0  0
  139.9730   69.0190  226.7970 C   0  0  0  0  0  0  0  0  0  0  0  0
  140.4810   69.5010  227.9820 C   0  0  0  0  0  0  0  0  0  0  0  0
  140.4310   68.6990  229.0940 F   0  0  0  0  0  0  0  0  0  0  0  0
  141.0250   70.7660  228.0310 C   0  0  0  0  0  0  0  0  0  0  0  0
  141.0950   71.6040  226.9370 C   0  0  0  0  0  0  0  0  0  0  0  0
  140.5720   71.0890  225.7450 C   0  0  0  0  0  0  0  0  0  0  0  0
  140.6300   71.8970  224.6530 N   0  0  0  0  0  0  0  0  0  0  0  0
  138.7960   73.7040  223.0910 H   0  0  0  0  0  0  0  0  0  0  0  0
  139.3634   73.7036  220.2007 H   0  0  0  0  0  0  0  0  0  0  0  0
  138.6639   75.0892  221.1675 H   0  0  0  0  0  0  0  0  0  0  0  0
  142.0201   73.0570  219.1691 H   0  0  0  0  0  0  0  0  0  0  0  0
  140.7576   74.1053  218.5078 H   0  0  0  0  0  0  0  0  0  0  0  0
  143.5945   73.9727  217.8205 H   0  0  0  0  0  0  0  0  0  0  0  0
  142.3348   74.9000  217.0082 H   0  0  0  0  0  0  0  0  0  0  0  0
  144.3042   76.1476  218.3852 H   0  0  0  0  0  0  0  0  0  0  0  0
  142.7133   76.8296  218.4387 H   0  0  0  0  0  0  0  0  0  0  0  0
  143.3917   76.2419  220.8899 H   0  0  0  0  0  0  0  0  0  0  0  0
  147.0025   72.8225  220.8182 H   0  0  0  0  0  0  0  0  0  0  0  0
  144.8410   71.2370  221.0686 H   0  0  0  0  0  0  0  0  0  0  0  0
  142.7970   72.7450  220.6870 H   0  0  0  0  0  0  0  0  0  0  0  0
  139.1967   69.8561  222.4291 H   0  0  0  0  0  0  0  0  0  0  0  0
  139.0752   68.3557  224.3901 H   0  0  0  0  0  0  0  0  0  0  0  0
  139.5353   68.0113  226.7427 H   0  0  0  0  0  0  0  0  0  0  0  0
  141.4237   71.1261  228.9909 H   0  0  0  0  0  0  0  0  0  0  0  0
  141.5332   72.6111  226.9976 H   0  0  0  0  0  0  0  0  0  0  0  0
  1  2  2  0
  2  3  1  0
  3  4  1  0
  4  5  1  0
  5  6  2  0
  5  7  1  0
  7  8  1  0
  8  9  1  0
  9 10  1  0
 10 11  1  0
 11 12  1  0
 12 13  2  0
 13 14  1  0
 14 15  2  0
 15 16  1  0
  2 17  1  0
 17 18  2  0
 18 19  1  0
 19 20  2  0
 20 21  1  0
 21 22  2  0
 22 23  1  0
 22 24  1  0
 24 25  2  0
 25 26  1  0
 26 27  2  0
 11  7  1  0
 16 12  1  0
 27 17  1  0
 26 20  1  0
  3 28  1  0
  4 29  1  0
  4 30  1  0
  8 31  1  0
  8 32  1  0
  9 33  1  0
  9 34  1  0
 10 35  1  0
 10 36  1  0
 11 37  1  1
 14 38  1  0
 15 39  1  0
 16 40  1  0
 18 41  1  0
 19 42  1  0
 21 43  1  0
 24 44  1  0
 25 45  1  0
M  END
>  <smiles>  (37) 
O=C(NCC(=O)N1CCC[C@@H]1c1ncc[nH]1)c1ccc2cc(F)ccc2n1

>  <score_type>  (37) 
oracle

>  <origin>  (37) 
autodockgpu

>  <m_score__min__energy>  (37) 
-8.2699999999999996

>  <m_primary>  (37) 
energy

>  <rmsd>  (37) 
3.46297605941597

>  <m_score__min__rmsd>  (37) 
3.46297605941597

>  <meeko>  (37) 
{"free_energy": -7.37, "intermolecular_energy": -8.86, "internal_energy": -2.11, "cluster_size": 10, "cluster_id": 2, "rank_in_cluster": 7}

>  <energy>  (37) 
-7.37

>  <cluster_rmsd>  (37) 
1.0

>  <cluster>  (37) 
2

$$$$

     RDKit          3D

 45 48  0  0  0  0  0  0  0  0999 V2000
  140.9840   72.9430  222.0890 O   0  0  0  0  0  0  0  0  0  0  0  0
  139.9540   72.5920  222.7170 C   0  0  0  0  0  0  0  0  0  0  0  0
  138.7330   73.2260  222.3450 N   0  0  0  0  0  0  0  0  0  0  0  0
  138.7790   74.1980  221.2980 C   0  0  0  0  0  0  0  0  0  0  0  0
  139.1320   75.5250  221.7510 C   0  0  0  0  0  0  0  0  0  0  0  0
  138.3640   75.9840  222.7090 O   0  0  0  0  0  0  0  0  0  0  0  0
  140.1370   76.4330  221.3850 N   0  0  0  0  0  0  0  0  0  0  0  0
  141.5140   75.9450  221.1420 C   0  0  0  0  0  0  0  0  0  0  0  0
  142.1100   76.8920  220.1530 C   0  0  0  0  0  0  0  0  0  0  0  0
  140.9880   77.7970  219.7700 C   0  0  0  0  0  0  0  0  0  0  0  0
  140.2070   77.8360  221.0970 C   0  0  2  0  0  0  0  0  0  0  0  0
  141.0160   78.5060  222.1320 C   0  0  0  0  0  0  0  0  0  0  0  0
  140.8890   78.5660  223.4570 N   0  0  0  0  0  0  0  0  0  0  0  0
  141.8740   79.2850  224.0290 C   0  0  0  0  0  0  0  0  0  0  0  0
  142.6710   79.7040  222.9890 C   0  0  0  0  0  0  0  0  0  0  0  0
  142.1440   79.2300  221.8620 N   0  0  0  0  0  0  0  0  0  0  0  0
  139.9500   71.5930  223.7750 C   0  0  0  0  0  0  0  0  0  0  0  0
  139.4220   70.3330  223.5860 C   0  0  0  0  0  0  0  0  0  0  0  0
  139.3910   69.3650  224.5660 C   0  0  0  0  0  0  0  0  0  0  0  0
  139.9250   69.7010  225.7990 C   0  0  0  0  0  0  0  0  0  0  0  0
  139.9210   68.7700  226.8180 C   0  0  0  0  0  0  0  0  0  0  0  0
  140.4560   69.1210  228.0360 C   0  0  0  0  0  0  0  0  0  0  0  0
  140.4520   68.1970  229.0500 F   0  0  0  0  0  0  0  0  0  0  0  0
  140.9810   70.3830  228.2150 C   0  0  0  0  0  0  0  0  0  0  0  0
  141.0050   71.3430  227.2240 C   0  0  0  0  0  0  0  0  0  0  0  0
  140.4550   70.9580  225.9960 C   0  0  0  0  0  0  0  0  0  0  0  0
  140.4670   71.8870  225.0030 N   0  0  0  0  0  0  0  0  0  0  0  0
  137.8760   72.9360  222.8680 H   0  0  0  0  0  0  0  0  0  0  0  0
  139.5244   73.8746  220.5566 H   0  0  0  0  0  0  0  0  0  0  0  0
  137.7658   74.2621  220.8746 H   0  0  0  0  0  0  0  0  0  0  0  0
  142.0938   75.9516  222.0768 H   0  0  0  0  0  0  0  0  0  0  0  0
  141.5179   74.9109  220.7670 H   0  0  0  0  0  0  0  0  0  0  0  0
  142.9309   77.4641  220.6100 H   0  0  0  0  0  0  0  0  0  0  0  0
  142.5386   76.3707  219.2844 H   0  0  0  0  0  0  0  0  0  0  0  0
  141.3496   78.7946  219.4802 H   0  0  0  0  0  0  0  0  0  0  0  0
  140.4034   77.4654  218.8992 H   0  0  0  0  0  0  0  0  0  0  0  0
  139.2420   78.3625  221.0576 H   0  0  0  0  0  0  0  0  0  0  0  0
  142.0118   79.4930  225.1003 H   0  0  0  0  0  0  0  0  0  0  0  0
  143.5790   80.3191  223.0732 H   0  0  0  0  0  0  0  0  0  0  0  0
  142.5300   79.3790  220.9250 H   0  0  0  0  0  0  0  0  0  0  0  0
  139.0028   70.0875  222.5991 H   0  0  0  0  0  0  0  0  0  0  0  0
  138.9615   68.3700  224.3776 H   0  0  0  0  0  0  0  0  0  0  0  0
  139.4983   67.7669  226.6594 H   0  0  0  0  0  0  0  0  0  0  0  0
  141.4025   70.6379  229.1985 H   0  0  0  0  0  0  0  0  0  0  0  0
  141.4285   72.3448  227.3884 H   0  0  0  0  0  0  0  0  0  0  0  0
  1  2  2  0
  2  3  1  0
  3  4  1  0
  4  5  1  0
  5  6  2  0
  5  7  1  0
  7  8  1  0
  8  9  1  0
  9 10  1  0
 10 11  1  0
 11 12  1  0
 12 13  2  0
 13 14  1  0
 14 15  2  0
 15 16  1  0
  2 17  1  0
 17 18  2  0
 18 19  1  0
 19 20  2  0
 20 21  1  0
 21 22  2  0
 22 23  1  0
 22 24  1  0
 24 25  2  0
 25 26  1  0
 26 27  2  0
 11  7  1  0
 16 12  1  0
 27 17  1  0
 26 20  1  0
  3 28  1  0
  4 29  1  0
  4 30  1  0
  8 31  1  0
  8 32  1  0
  9 33  1  0
  9 34  1  0
 10 35  1  0
 10 36  1  0
 11 37  1  6
 14 38  1  0
 15 39  1  0
 16 40  1  0
 18 41  1  0
 19 42  1  0
 21 43  1  0
 24 44  1  0
 25 45  1  0
M  END
>  <smiles>  (38) 
O=C(NCC(=O)N1CCC[C@@H]1c1ncc[nH]1)c1ccc2cc(F)ccc2n1

>  <score_type>  (38) 
oracle

>  <origin>  (38) 
autodockgpu

>  <m_score__min__energy>  (38) 
-8.2699999999999996

>  <m_primary>  (38) 
energy

>  <rmsd>  (38) 
2.0341149598722903

>  <m_score__min__rmsd>  (38) 
2.0341149598722903

>  <meeko>  (38) 
{"free_energy": -8.09, "intermolecular_energy": -9.58, "internal_energy": -1.26, "cluster_size": 30, "cluster_id": 1, "rank_in_cluster": 8}

>  <energy>  (38) 
-7.36

>  <cluster_rmsd>  (38) 
0.95

>  <cluster>  (38) 
2

$$$$

     RDKit          3D

 45 48  0  0  0  0  0  0  0  0999 V2000
  139.7970   71.7940  220.8230 O   0  0  0  0  0  0  0  0  0  0  0  0
  140.2630   72.1690  221.9270 C   0  0  0  0  0  0  0  0  0  0  0  0
  141.0110   73.3820  221.9250 N   0  0  0  0  0  0  0  0  0  0  0  0
  141.1660   74.0670  220.6800 C   0  0  0  0  0  0  0  0  0  0  0  0
  141.4310   75.4820  220.8240 C   0  0  0  0  0  0  0  0  0  0  0  0
  142.5770   75.8640  220.3130 O   0  0  0  0  0  0  0  0  0  0  0  0
  140.7140   76.5440  221.3920 N   0  0  0  0  0  0  0  0  0  0  0  0
  139.9660   77.4760  220.5160 C   0  0  0  0  0  0  0  0  0  0  0  0
  138.8270   77.9790  221.3390 C   0  0  0  0  0  0  0  0  0  0  0  0
  138.8990   77.1950  222.6060 C   0  0  0  0  0  0  0  0  0  0  0  0
  140.4230   77.0030  222.7190 C   0  0  2  0  0  0  0  0  0  0  0  0
  141.0760   78.3070  222.9380 C   0  0  0  0  0  0  0  0  0  0  0  0
  140.7710   79.3290  223.7370 N   0  0  0  0  0  0  0  0  0  0  0  0
  141.6590   80.3350  223.6350 C   0  0  0  0  0  0  0  0  0  0  0  0
  142.5840   79.9130  222.7080 C   0  0  0  0  0  0  0  0  0  0  0  0
  142.2200   78.6990  222.3020 N   0  0  0  0  0  0  0  0  0  0  0  0
  140.0790   71.4430  223.1740 C   0  0  0  0  0  0  0  0  0  0  0  0
  139.3310   70.2860  223.2410 C   0  0  0  0  0  0  0  0  0  0  0  0
  139.1270   69.5780  224.4050 C   0  0  0  0  0  0  0  0  0  0  0  0
  139.7130   70.0750  225.5560 C   0  0  0  0  0  0  0  0  0  0  0  0
  139.5410   69.4070  226.7520 C   0  0  0  0  0  0  0  0  0  0  0  0
  140.1310   69.9160  227.8850 C   0  0  0  0  0  0  0  0  0  0  0  0
  139.9600   69.2520  229.0730 F   0  0  0  0  0  0  0  0  0  0  0  0
  140.8750   71.0740  227.8090 C   0  0  0  0  0  0  0  0  0  0  0  0
  141.0720   71.7730  226.6350 C   0  0  0  0  0  0  0  0  0  0  0  0
  140.4610   71.2320  225.4990 C   0  0  0  0  0  0  0  0  0  0  0  0
  140.6410   71.9040  224.3300 N   0  0  0  0  0  0  0  0  0  0  0  0
  141.4020   73.6930  222.8430 H   0  0  0  0  0  0  0  0  0  0  0  0
  142.0049   73.6103  220.1344 H   0  0  0  0  0  0  0  0  0  0  0  0
  140.2126   73.9718  220.1397 H   0  0  0  0  0  0  0  0  0  0  0  0
  140.6114   78.3103  220.2041 H   0  0  0  0  0  0  0  0  0  0  0  0
  139.6157   76.9784  219.5997 H   0  0  0  0  0  0  0  0  0  0  0  0
  138.9400   79.0543  221.5414 H   0  0  0  0  0  0  0  0  0  0  0  0
  137.8599   77.8574  220.8291 H   0  0  0  0  0  0  0  0  0  0  0  0
  138.4949   77.7602  223.4588 H   0  0  0  0  0  0  0  0  0  0  0  0
  138.3144   76.2632  222.6068 H   0  0  0  0  0  0  0  0  0  0  0  0
  140.7527   76.3424  223.5344 H   0  0  0  0  0  0  0  0  0  0  0  0
  141.6477   81.2918  224.1777 H   0  0  0  0  0  0  0  0  0  0  0  0
  143.4642   80.4765  222.3649 H   0  0  0  0  0  0  0  0  0  0  0  0
  142.7270   78.1330  221.6150 H   0  0  0  0  0  0  0  0  0  0  0  0
  138.8727   69.9083  222.3151 H   0  0  0  0  0  0  0  0  0  0  0  0
  138.5246   68.6577  224.4190 H   0  0  0  0  0  0  0  0  0  0  0  0
  138.9431   68.4848  226.7977 H   0  0  0  0  0  0  0  0  0  0  0  0
  141.3350   71.4606  228.7304 H   0  0  0  0  0  0  0  0  0  0  0  0
  141.6704   72.6952  226.5955 H   0  0  0  0  0  0  0  0  0  0  0  0
  1  2  2  0
  2  3  1  0
  3  4  1  0
  4  5  1  0
  5  6  2  0
  5  7  1  0
  7  8  1  0
  8  9  1  0
  9 10  1  0
 10 11  1  0
 11 12  1  0
 12 13  2  0
 13 14  1  0
 14 15  2  0
 15 16  1  0
  2 17  1  0
 17 18  2  0
 18 19  1  0
 19 20  2  0
 20 21  1  0
 21 22  2  0
 22 23  1  0
 22 24  1  0
 24 25  2  0
 25 26  1  0
 26 27  2  0
 11  7  1  0
 16 12  1  0
 27 17  1  0
 26 20  1  0
  3 28  1  0
  4 29  1  0
  4 30  1  0
  8 31  1  0
  8 32  1  0
  9 33  1  0
  9 34  1  0
 10 35  1  0
 10 36  1  0
 11 37  1  1
 14 38  1  0
 15 39  1  0
 16 40  1  0
 18 41  1  0
 19 42  1  0
 21 43  1  0
 24 44  1  0
 25 45  1  0
M  END
>  <smiles>  (39) 
O=C(NCC(=O)N1CCC[C@@H]1c1ncc[nH]1)c1ccc2cc(F)ccc2n1

>  <score_type>  (39) 
oracle

>  <origin>  (39) 
autodockgpu

>  <m_score__min__energy>  (39) 
-8.2699999999999996

>  <m_primary>  (39) 
energy

>  <rmsd>  (39) 
2.6568190558205007

>  <m_score__min__rmsd>  (39) 
2.6568190558205007

>  <meeko>  (39) 
{"free_energy": -7.14, "intermolecular_energy": -8.63, "internal_energy": -1.83, "cluster_size": 30, "cluster_id": 1, "rank_in_cluster": 30}

>  <energy>  (39) 
-7.01

>  <cluster_rmsd>  (39) 
1.13

>  <cluster>  (39) 
2

$$$$

     RDKit          3D

 45 48  0  0  0  0  0  0  0  0999 V2000
  141.3650   72.2670  221.5500 O   0  0  0  0  0  0  0  0  0  0  0  0
  140.5110   72.4570  222.4520 C   0  0  0  0  0  0  0  0  0  0  0  0
  139.7210   73.6390  222.3430 N   0  0  0  0  0  0  0  0  0  0  0  0
  139.9600   74.5000  221.2280 C   0  0  0  0  0  0  0  0  0  0  0  0
  140.0910   75.8950  221.5870 C   0  0  0  0  0  0  0  0  0  0  0  0
  139.5030   76.2120  222.7150 O   0  0  0  0  0  0  0  0  0  0  0  0
  140.7260   76.9910  220.9840 N   0  0  0  0  0  0  0  0  0  0  0  0
  142.0360   76.8040  220.3200 C   0  0  0  0  0  0  0  0  0  0  0  0
  142.0970   77.8390  219.2460 C   0  0  0  0  0  0  0  0  0  0  0  0
  140.7480   78.4760  219.2570 C   0  0  0  0  0  0  0  0  0  0  0  0
  140.4110   78.3710  220.7560 C   0  0  2  0  0  0  0  0  0  0  0  0
  141.3350   79.2160  221.5360 C   0  0  0  0  0  0  0  0  0  0  0  0
  141.6030   80.5200  221.4830 N   0  0  0  0  0  0  0  0  0  0  0  0
  142.5140   80.8890  222.4020 C   0  0  0  0  0  0  0  0  0  0  0  0
  142.8390   79.7350  223.0780 C   0  0  0  0  0  0  0  0  0  0  0  0
  142.1240   78.7450  222.5470 N   0  0  0  0  0  0  0  0  0  0  0  0
  140.2950   71.5520  223.5690 C   0  0  0  0  0  0  0  0  0  0  0  0
  139.6400   70.3470  223.4160 C   0  0  0  0  0  0  0  0  0  0  0  0
  139.4100   69.4690  224.4520 C   0  0  0  0  0  0  0  0  0  0  0  0
  139.8690   69.8380  225.7050 C   0  0  0  0  0  0  0  0  0  0  0  0
  139.6650   68.9960  226.7800 C   0  0  0  0  0  0  0  0  0  0  0  0
  140.1290   69.3800  228.0170 C   0  0  0  0  0  0  0  0  0  0  0  0
  139.9270   68.5440  229.0860 F   0  0  0  0  0  0  0  0  0  0  0  0
  140.7820   70.5860  228.1600 C   0  0  0  0  0  0  0  0  0  0  0  0
  141.0060   71.4560  227.1130 C   0  0  0  0  0  0  0  0  0  0  0  0
  140.5240   71.0400  225.8670 C   0  0  0  0  0  0  0  0  0  0  0  0
  140.7340   71.8820  224.8190 N   0  0  0  0  0  0  0  0  0  0  0  0
  139.0120   73.7990  223.0940 H   0  0  0  0  0  0  0  0  0  0  0  0
  140.8898   74.1797  220.7351 H   0  0  0  0  0  0  0  0  0  0  0  0
  139.0846   74.4195  220.5668 H   0  0  0  0  0  0  0  0  0  0  0  0
  142.8549   76.9498  221.0398 H   0  0  0  0  0  0  0  0  0  0  0  0
  142.1421   75.7884  219.9110 H   0  0  0  0  0  0  0  0  0  0  0  0
  142.8783   78.5813  219.4665 H   0  0  0  0  0  0  0  0  0  0  0  0
  142.3453   77.4070  218.2653 H   0  0  0  0  0  0  0  0  0  0  0  0
  140.7886   79.5225  218.9206 H   0  0  0  0  0  0  0  0  0  0  0  0
  140.0121   78.0112  218.5844 H   0  0  0  0  0  0  0  0  0  0  0  0
  139.3910   78.6790  221.0296 H   0  0  0  0  0  0  0  0  0  0  0  0
  142.9141   81.8988  222.5760 H   0  0  0  0  0  0  0  0  0  0  0  0
  143.5581   79.6466  223.9057 H   0  0  0  0  0  0  0  0  0  0  0  0
  142.1550   77.7680  222.8550 H   0  0  0  0  0  0  0  0  0  0  0  0
  139.2823   70.0729  222.4125 H   0  0  0  0  0  0  0  0  0  0  0  0
  138.8845   68.5161  224.2909 H   0  0  0  0  0  0  0  0  0  0  0  0
  139.1418   68.0371  226.6501 H   0  0  0  0  0  0  0  0  0  0  0  0
  141.1427   70.8688  229.1599 H   0  0  0  0  0  0  0  0  0  0  0  0
  141.5293   72.4140  227.2488 H   0  0  0  0  0  0  0  0  0  0  0  0
  1  2  2  0
  2  3  1  0
  3  4  1  0
  4  5  1  0
  5  6  2  0
  5  7  1  0
  7  8  1  0
  8  9  1  0
  9 10  1  0
 10 11  1  0
 11 12  1  0
 12 13  2  0
 13 14  1  0
 14 15  2  0
 15 16  1  0
  2 17  1  0
 17 18  2  0
 18 19  1  0
 19 20  2  0
 20 21  1  0
 21 22  2  0
 22 23  1  0
 22 24  1  0
 24 25  2  0
 25 26  1  0
 26 27  2  0
 11  7  1  0
 16 12  1  0
 27 17  1  0
 26 20  1  0
  3 28  1  0
  4 29  1  0
  4 30  1  0
  8 31  1  0
  8 32  1  0
  9 33  1  0
  9 34  1  0
 10 35  1  0
 10 36  1  0
 11 37  1  6
 14 38  1  0
 15 39  1  0
 16 40  1  0
 18 41  1  0
 19 42  1  0
 21 43  1  0
 24 44  1  0
 25 45  1  0
M  END
>  <smiles>  (40) 
O=C(NCC(=O)N1CCC[C@@H]1c1ncc[nH]1)c1ccc2cc(F)ccc2n1

>  <score_type>  (40) 
oracle

>  <origin>  (40) 
autodockgpu

>  <m_score__min__energy>  (40) 
-8.2699999999999996

>  <m_primary>  (40) 
energy

>  <rmsd>  (40) 
2.1429893396084814

>  <m_score__min__rmsd>  (40) 
2.1429893396084814

>  <meeko>  (40) 
{"free_energy": -8.01, "intermolecular_energy": -9.5, "internal_energy": -1.54, "cluster_size": 30, "cluster_id": 1, "rank_in_cluster": 13}

>  <energy>  (40) 
-6.76

>  <cluster_rmsd>  (40) 
1.28

>  <cluster>  (40) 
2

$$$$

     RDKit          3D

 45 48  0  0  0  0  0  0  0  0999 V2000
  140.2710   73.0090  222.8730 O   0  0  0  0  0  0  0  0  0  0  0  0
  140.3100   71.7750  223.1010 C   0  0  0  0  0  0  0  0  0  0  0  0
  140.1920   70.9140  221.9710 N   0  0  0  0  0  0  0  0  0  0  0  0
  140.0420   71.5190  220.6850 C   0  0  0  0  0  0  0  0  0  0  0  0
  141.2770   72.0370  220.1380 C   0  0  0  0  0  0  0  0  0  0  0  0
  142.0480   71.1230  219.6020 O   0  0  0  0  0  0  0  0  0  0  0  0
  141.8270   73.3250  220.0520 N   0  0  0  0  0  0  0  0  0  0  0  0
  143.1540   73.5960  220.6510 C   0  0  0  0  0  0  0  0  0  0  0  0
  143.7430   74.7040  219.8430 C   0  0  0  0  0  0  0  0  0  0  0  0
  142.7770   74.9150  218.7260 C   0  0  0  0  0  0  0  0  0  0  0  0
  141.4580   74.5680  219.4410 C   0  0  2  0  0  0  0  0  0  0  0  0
  141.1830   75.5650  220.4920 C   0  0  0  0  0  0  0  0  0  0  0  0
  141.5020   76.8540  220.5970 N   0  0  0  0  0  0  0  0  0  0  0  0
  141.0300   77.4030  221.7320 C   0  0  0  0  0  0  0  0  0  0  0  0
  140.3690   76.3860  222.3810 C   0  0  0  0  0  0  0  0  0  0  0  0
  140.4700   75.2950  221.6260 N   0  0  0  0  0  0  0  0  0  0  0  0
  140.4690   71.1990  224.4270 C   0  0  0  0  0  0  0  0  0  0  0  0
  140.7600   71.9760  225.5290 C   0  0  0  0  0  0  0  0  0  0  0  0
  140.9270   71.4650  226.7980 C   0  0  0  0  0  0  0  0  0  0  0  0
  140.7910   70.0950  226.9480 C   0  0  0  0  0  0  0  0  0  0  0  0
  140.9490   69.5290  228.1970 C   0  0  0  0  0  0  0  0  0  0  0  0
  140.8100   68.1660  228.3270 C   0  0  0  0  0  0  0  0  0  0  0  0
  140.9660   67.6030  229.5680 F   0  0  0  0  0  0  0  0  0  0  0  0
  140.5200   67.3980  227.2200 C   0  0  0  0  0  0  0  0  0  0  0  0
  140.3550   67.9240  225.9550 C   0  0  0  0  0  0  0  0  0  0  0  0
  140.5010   69.3120  225.8520 C   0  0  0  0  0  0  0  0  0  0  0  0
  140.3430   69.8530  224.6140 N   0  0  0  0  0  0  0  0  0  0  0  0
  140.2220   69.8860  222.1600 H   0  0  0  0  0  0  0  0  0  0  0  0
  139.6443   70.7643  219.9905 H   0  0  0  0  0  0  0  0  0  0  0  0
  139.3621   72.3746  220.8098 H   0  0  0  0  0  0  0  0  0  0  0  0
  143.0451   73.9034  221.7016 H   0  0  0  0  0  0  0  0  0  0  0  0
  143.7942   72.7016  220.6412 H   0  0  0  0  0  0  0  0  0  0  0  0
  143.8400   75.6167  220.4493 H   0  0  0  0  0  0  0  0  0  0  0  0
  144.7525   74.4619  219.4793 H   0  0  0  0  0  0  0  0  0  0  0  0
  142.7863   75.9557  218.3698 H   0  0  0  0  0  0  0  0  0  0  0  0
  142.9812   74.3250  217.8203 H   0  0  0  0  0  0  0  0  0  0  0  0
  140.5689   74.5351  218.7942 H   0  0  0  0  0  0  0  0  0  0  0  0
  141.1478   78.4435  222.0688 H   0  0  0  0  0  0  0  0  0  0  0  0
  139.8510   76.4611  223.3485 H   0  0  0  0  0  0  0  0  0  0  0  0
  140.0670   74.3820  221.8570 H   0  0  0  0  0  0  0  0  0  0  0  0
  140.8644   73.0618  225.3873 H   0  0  0  0  0  0  0  0  0  0  0  0
  141.1581   72.1164  227.6537 H   0  0  0  0  0  0  0  0  0  0  0  0
  141.1814   70.1550  229.0711 H   0  0  0  0  0  0  0  0  0  0  0  0
  140.4148   66.3110  227.3515 H   0  0  0  0  0  0  0  0  0  0  0  0
  140.1237   67.2932  225.0840 H   0  0  0  0  0  0  0  0  0  0  0  0
  1  2  2  0
  2  3  1  0
  3  4  1  0
  4  5  1  0
  5  6  2  0
  5  7  1  0
  7  8  1  0
  8  9  1  0
  9 10  1  0
 10 11  1  0
 11 12  1  0
 12 13  2  0
 13 14  1  0
 14 15  2  0
 15 16  1  0
  2 17  1  0
 17 18  2  0
 18 19  1  0
 19 20  2  0
 20 21  1  0
 21 22  2  0
 22 23  1  0
 22 24  1  0
 24 25  2  0
 25 26  1  0
 26 27  2  0
 11  7  1  0
 16 12  1  0
 27 17  1  0
 26 20  1  0
  3 28  1  0
  4 29  1  0
  4 30  1  0
  8 31  1  0
  8 32  1  0
  9 33  1  0
  9 34  1  0
 10 35  1  0
 10 36  1  0
 11 37  1  6
 14 38  1  0
 15 39  1  0
 16 40  1  0
 18 41  1  0
 19 42  1  0
 21 43  1  0
 24 44  1  0
 25 45  1  0
M  END
>  <smiles>  (41) 
O=C(NCC(=O)N1CCC[C@@H]1c1ncc[nH]1)c1ccc2cc(F)ccc2n1

>  <score_type>  (41) 
oracle

>  <origin>  (41) 
autodockgpu

>  <m_score__min__energy>  (41) 
-8.2699999999999996

>  <m_primary>  (41) 
energy

>  <rmsd>  (41) 
3.5779337274542744

>  <m_score__min__rmsd>  (41) 
3.5779337274542744

>  <meeko>  (41) 
{"free_energy": -6.41, "intermolecular_energy": -7.9, "internal_energy": -2.5, "cluster_size": 3, "cluster_id": 4, "rank_in_cluster": 2}

>  <energy>  (41) 
-7.33

>  <cluster_rmsd>  (41) 
0.0

>  <cluster>  (41) 
3

$$$$

     RDKit          3D

 45 48  0  0  0  0  0  0  0  0999 V2000
  141.2000   72.0680  221.3510 O   0  0  0  0  0  0  0  0  0  0  0  0
  140.5090   72.3720  222.3560 C   0  0  0  0  0  0  0  0  0  0  0  0
  139.9070   73.6640  222.3490 N   0  0  0  0  0  0  0  0  0  0  0  0
  140.1340   74.4990  221.2110 C   0  0  0  0  0  0  0  0  0  0  0  0
  140.1490   75.9120  221.5210 C   0  0  0  0  0  0  0  0  0  0  0  0
  139.4310   76.2360  222.5690 O   0  0  0  0  0  0  0  0  0  0  0  0
  140.7800   77.0200  220.9360 N   0  0  0  0  0  0  0  0  0  0  0  0
  142.0890   76.8490  220.2650 C   0  0  0  0  0  0  0  0  0  0  0  0
  142.1450   77.9040  219.2110 C   0  0  0  0  0  0  0  0  0  0  0  0
  140.7950   78.5380  219.2380 C   0  0  0  0  0  0  0  0  0  0  0  0
  140.4630   78.4030  220.7360 C   0  0  2  0  0  0  0  0  0  0  0  0
  141.3870   79.2360  221.5290 C   0  0  0  0  0  0  0  0  0  0  0  0
  141.6660   80.5380  221.4870 N   0  0  0  0  0  0  0  0  0  0  0  0
  142.5730   80.8920  222.4160 C   0  0  0  0  0  0  0  0  0  0  0  0
  142.8830   79.7300  223.0860 C   0  0  0  0  0  0  0  0  0  0  0  0
  142.1650   78.7500  222.5420 N   0  0  0  0  0  0  0  0  0  0  0  0
  140.2980   71.4890  223.4920 C   0  0  0  0  0  0  0  0  0  0  0  0
  139.6660   70.2700  223.3620 C   0  0  0  0  0  0  0  0  0  0  0  0
  139.4410   69.4120  224.4160 C   0  0  0  0  0  0  0  0  0  0  0  0
  139.8810   69.8190  225.6640 C   0  0  0  0  0  0  0  0  0  0  0  0
  139.6810   69.0000  226.7580 C   0  0  0  0  0  0  0  0  0  0  0  0
  140.1260   69.4210  227.9890 C   0  0  0  0  0  0  0  0  0  0  0  0
  139.9280   68.6070  229.0760 F   0  0  0  0  0  0  0  0  0  0  0  0
  140.7560   70.6410  228.1100 C   0  0  0  0  0  0  0  0  0  0  0  0
  140.9750   71.4910  227.0440 C   0  0  0  0  0  0  0  0  0  0  0  0
  140.5130   71.0370  225.8040 C   0  0  0  0  0  0  0  0  0  0  0  0
  140.7180   71.8560  224.7390 N   0  0  0  0  0  0  0  0  0  0  0  0
  139.3340   73.9180  223.1850 H   0  0  0  0  0  0  0  0  0  0  0  0
  141.1054   74.2296  220.7707 H   0  0  0  0  0  0  0  0  0  0  0  0
  139.2977   74.3308  220.5166 H   0  0  0  0  0  0  0  0  0  0  0  0
  142.9094   76.9830  220.9854 H   0  0  0  0  0  0  0  0  0  0  0  0
  142.1963   75.8416  219.8364 H   0  0  0  0  0  0  0  0  0  0  0  0
  142.9256   78.6434  219.4433 H   0  0  0  0  0  0  0  0  0  0  0  0
  142.3913   77.4913  218.2216 H   0  0  0  0  0  0  0  0  0  0  0  0
  140.8326   79.5909  218.9219 H   0  0  0  0  0  0  0  0  0  0  0  0
  140.0579   78.0852  218.5585 H   0  0  0  0  0  0  0  0  0  0  0  0
  139.4434   78.7031  221.0194 H   0  0  0  0  0  0  0  0  0  0  0  0
  142.9804   81.8969  222.6009 H   0  0  0  0  0  0  0  0  0  0  0  0
  143.5943   79.6297  223.9190 H   0  0  0  0  0  0  0  0  0  0  0  0
  142.1870   77.7710  222.8420 H   0  0  0  0  0  0  0  0  0  0  0  0
  139.3229   69.9663  222.3620 H   0  0  0  0  0  0  0  0  0  0  0  0
  138.9342   68.4463  224.2724 H   0  0  0  0  0  0  0  0  0  0  0  0
  139.1754   68.0295  226.6466 H   0  0  0  0  0  0  0  0  0  0  0  0
  141.1019   70.9534  229.1064 H   0  0  0  0  0  0  0  0  0  0  0  0
  141.4796   72.4613  227.1621 H   0  0  0  0  0  0  0  0  0  0  0  0
  1  2  2  0
  2  3  1  0
  3  4  1  0
  4  5  1  0
  5  6  2  0
  5  7  1  0
  7  8  1  0
  8  9  1  0
  9 10  1  0
 10 11  1  0
 11 12  1  0
 12 13  2  0
 13 14  1  0
 14 15  2  0
 15 16  1  0
  2 17  1  0
 17 18  2  0
 18 19  1  0
 19 20  2  0
 20 21  1  0
 21 22  2  0
 22 23  1  0
 22 24  1  0
 24 25  2  0
 25 26  1  0
 26 27  2  0
 11  7  1  0
 16 12  1  0
 27 17  1  0
 26 20  1  0
  3 28  1  0
  4 29  1  0
  4 30  1  0
  8 31  1  0
  8 32  1  0
  9 33  1  0
  9 34  1  0
 10 35  1  0
 10 36  1  0
 11 37  1  6
 14 38  1  0
 15 39  1  0
 16 40  1  0
 18 41  1  0
 19 42  1  0
 21 43  1  0
 24 44  1  0
 25 45  1  0
M  END
>  <smiles>  (42) 
O=C(NCC(=O)N1CCC[C@@H]1c1ncc[nH]1)c1ccc2cc(F)ccc2n1

>  <score_type>  (42) 
oracle

>  <origin>  (42) 
autodockgpu

>  <m_score__min__energy>  (42) 
-8.2699999999999996

>  <m_primary>  (42) 
energy

>  <rmsd>  (42) 
2.160260361765552

>  <m_score__min__rmsd>  (42) 
2.160260361765552

>  <meeko>  (42) 
{"free_energy": -7.9, "intermolecular_energy": -9.39, "internal_energy": -1.64, "cluster_size": 30, "cluster_id": 1, "rank_in_cluster": 18}

>  <energy>  (42) 
-6.48

>  <cluster_rmsd>  (42) 
0.0

>  <cluster>  (42) 
4

$$$$

     RDKit          3D

 45 48  0  0  0  0  0  0  0  0999 V2000
  140.8940   72.0670  221.2330 O   0  0  0  0  0  0  0  0  0  0  0  0
  140.1890   72.3090  222.2440 C   0  0  0  0  0  0  0  0  0  0  0  0
  139.4080   73.5010  222.2060 N   0  0  0  0  0  0  0  0  0  0  0  0
  139.4880   74.3130  221.0330 C   0  0  0  0  0  0  0  0  0  0  0  0
  140.7250   75.0550  220.9230 C   0  0  0  0  0  0  0  0  0  0  0  0
  140.8110   76.0740  221.7430 O   0  0  0  0  0  0  0  0  0  0  0  0
  141.8680   74.9110  220.1220 N   0  0  0  0  0  0  0  0  0  0  0  0
  141.8060   74.0780  218.8980 C   0  0  0  0  0  0  0  0  0  0  0  0
  142.8170   74.6550  217.9640 C   0  0  0  0  0  0  0  0  0  0  0  0
  143.3090   75.8850  218.6510 C   0  0  0  0  0  0  0  0  0  0  0  0
  143.2020   75.4360  220.1200 C   0  0  2  0  0  0  0  0  0  0  0  0
  144.1570   74.3420  220.3780 C   0  0  0  0  0  0  0  0  0  0  0  0
  145.4870   74.3250  220.4590 N   0  0  0  0  0  0  0  0  0  0  0  0
  145.9630   73.0960  220.7320 C   0  0  0  0  0  0  0  0  0  0  0  0
  144.8540   72.2880  220.8290 C   0  0  0  0  0  0  0  0  0  0  0  0
  143.7830   73.0490  220.6150 N   0  0  0  0  0  0  0  0  0  0  0  0
  140.1310   71.4510  223.4170 C   0  0  0  0  0  0  0  0  0  0  0  0
  139.5740   70.1900  223.3720 C   0  0  0  0  0  0  0  0  0  0  0  0
  139.4930   69.3540  224.4640 C   0  0  0  0  0  0  0  0  0  0  0  0
  140.0050   69.8290  225.6600 C   0  0  0  0  0  0  0  0  0  0  0  0
  139.9500   69.0340  226.7880 C   0  0  0  0  0  0  0  0  0  0  0  0
  140.4640   69.5230  227.9660 C   0  0  0  0  0  0  0  0  0  0  0  0
  140.4100   68.7330  229.0870 F   0  0  0  0  0  0  0  0  0  0  0  0
  141.0170   70.7840  228.0020 C   0  0  0  0  0  0  0  0  0  0  0  0
  141.0920   71.6110  226.8990 C   0  0  0  0  0  0  0  0  0  0  0  0
  140.5630   71.0890  225.7140 C   0  0  0  0  0  0  0  0  0  0  0  0
  140.6250   71.8850  224.6140 N   0  0  0  0  0  0  0  0  0  0  0  0
  138.8210   73.7030  223.0470 H   0  0  0  0  0  0  0  0  0  0  0  0
  139.3946   73.6609  220.1521 H   0  0  0  0  0  0  0  0  0  0  0  0
  138.6748   75.0511  221.0967 H   0  0  0  0  0  0  0  0  0  0  0  0
  142.0539   73.0324  219.1329 H   0  0  0  0  0  0  0  0  0  0  0  0
  140.7984   74.0800  218.4567 H   0  0  0  0  0  0  0  0  0  0  0  0
  143.6420   73.9463  217.7994 H   0  0  0  0  0  0  0  0  0  0  0  0
  142.3915   74.8736  216.9735 H   0  0  0  0  0  0  0  0  0  0  0  0
  144.3464   76.1208  218.3713 H   0  0  0  0  0  0  0  0  0  0  0  0
  142.7549   76.8034  218.4071 H   0  0  0  0  0  0  0  0  0  0  0  0
  143.4067   76.2185  220.8655 H   0  0  0  0  0  0  0  0  0  0  0  0
  147.0157   72.8004  220.8521 H   0  0  0  0  0  0  0  0  0  0  0  0
  144.8525   71.2093  221.0442 H   0  0  0  0  0  0  0  0  0  0  0  0
  142.8140   72.7160  220.6300 H   0  0  0  0  0  0  0  0  0  0  0  0
  139.1727   69.8325  222.4122 H   0  0  0  0  0  0  0  0  0  0  0  0
  139.0417   68.3536  224.3893 H   0  0  0  0  0  0  0  0  0  0  0  0
  139.5038   68.0295  226.7449 H   0  0  0  0  0  0  0  0  0  0  0  0
  141.4192   71.1507  228.9579 H   0  0  0  0  0  0  0  0  0  0  0  0
  141.5387   72.6150  226.9489 H   0  0  0  0  0  0  0  0  0  0  0  0
  1  2  2  0
  2  3  1  0
  3  4  1  0
  4  5  1  0
  5  6  2  0
  5  7  1  0
  7  8  1  0
  8  9  1  0
  9 10  1  0
 10 11  1  0
 11 12  1  0
 12 13  2  0
 13 14  1  0
 14 15  2  0
 15 16  1  0
  2 17  1  0
 17 18  2  0
 18 19  1  0
 19 20  2  0
 20 21  1  0
 21 22  2  0
 22 23  1  0
 22 24  1  0
 24 25  2  0
 25 26  1  0
 26 27  2  0
 11  7  1  0
 16 12  1  0
 27 17  1  0
 26 20  1  0
  3 28  1  0
  4 29  1  0
  4 30  1  0
  8 31  1  0
  8 32  1  0
  9 33  1  0
  9 34  1  0
 10 35  1  0
 10 36  1  0
 11 37  1  1
 14 38  1  0
 15 39  1  0
 16 40  1  0
 18 41  1  0
 19 42  1  0
 21 43  1  0
 24 44  1  0
 25 45  1  0
M  END
>  <smiles>  (43) 
O=C(NCC(=O)N1CCC[C@@H]1c1ncc[nH]1)c1ccc2cc(F)ccc2n1

>  <score_type>  (43) 
oracle

>  <origin>  (43) 
autodockgpu

>  <m_score__min__energy>  (43) 
-8.2699999999999996

>  <m_primary>  (43) 
energy

>  <rmsd>  (43) 
3.4782202052567683

>  <m_score__min__rmsd>  (43) 
3.4782202052567683

>  <meeko>  (43) 
{"free_energy": -7.38, "intermolecular_energy": -8.87, "internal_energy": -2.1, "cluster_size": 10, "cluster_id": 2, "rank_in_cluster": 6}

>  <energy>  (43) 
-6.41

>  <cluster_rmsd>  (43) 
0.16

>  <cluster>  (43) 
4

$$$$

     RDKit          3D

 45 48  0  0  0  0  0  0  0  0999 V2000
  139.8180   71.1460  221.1510 O   0  0  0  0  0  0  0  0  0  0  0  0
  139.8380   71.5890  222.3260 C   0  0  0  0  0  0  0  0  0  0  0  0
  139.8680   73.0070  222.4720 N   0  0  0  0  0  0  0  0  0  0  0  0
  139.8700   73.8000  221.2830 C   0  0  0  0  0  0  0  0  0  0  0  0
  140.1150   75.2050  221.5210 C   0  0  0  0  0  0  0  0  0  0  0  0
  139.6170   75.6500  222.6490 O   0  0  0  0  0  0  0  0  0  0  0  0
  140.7850   76.2030  220.7980 N   0  0  0  0  0  0  0  0  0  0  0  0
  142.1860   75.9840  220.3710 C   0  0  0  0  0  0  0  0  0  0  0  0
  142.3600   76.7890  219.1260 C   0  0  0  0  0  0  0  0  0  0  0  0
  140.9990   77.3180  218.8230 C   0  0  0  0  0  0  0  0  0  0  0  0
  140.4500   77.4850  220.2520 C   0  0  2  0  0  0  0  0  0  0  0  0
  141.2110   78.5320  220.9590 C   0  0  0  0  0  0  0  0  0  0  0  0
  141.4580   79.8060  220.6590 N   0  0  0  0  0  0  0  0  0  0  0  0
  142.1940   80.4170  221.6060 C   0  0  0  0  0  0  0  0  0  0  0  0
  142.4230   79.4570  222.5660 C   0  0  0  0  0  0  0  0  0  0  0  0
  141.8290   78.3370  222.1630 N   0  0  0  0  0  0  0  0  0  0  0  0
  139.8300   70.7470  223.5120 C   0  0  0  0  0  0  0  0  0  0  0  0
  139.2940   69.4760  223.4990 C   0  0  0  0  0  0  0  0  0  0  0  0
  139.2600   68.6540  224.6040 C   0  0  0  0  0  0  0  0  0  0  0  0
  139.8000   69.1530  225.7780 C   0  0  0  0  0  0  0  0  0  0  0  0
  139.7930   68.3720  226.9170 C   0  0  0  0  0  0  0  0  0  0  0  0
  140.3330   68.8850  228.0730 C   0  0  0  0  0  0  0  0  0  0  0  0
  140.3270   68.1090  229.2050 F   0  0  0  0  0  0  0  0  0  0  0  0
  140.8670   70.1560  228.0750 C   0  0  0  0  0  0  0  0  0  0  0  0
  140.8940   70.9690  226.9600 C   0  0  0  0  0  0  0  0  0  0  0  0
  140.3380   70.4220  225.7990 C   0  0  0  0  0  0  0  0  0  0  0  0
  140.3530   71.2050  224.6870 N   0  0  0  0  0  0  0  0  0  0  0  0
  139.8880   73.3770  223.4500 H   0  0  0  0  0  0  0  0  0  0  0  0
  140.6551   73.4193  220.6132 H   0  0  0  0  0  0  0  0  0  0  0  0
  138.8657   73.7194  220.8416 H   0  0  0  0  0  0  0  0  0  0  0  0
  142.8824   76.3274  221.1501 H   0  0  0  0  0  0  0  0  0  0  0  0
  142.3954   74.9181  220.1976 H   0  0  0  0  0  0  0  0  0  0  0  0
  143.0682   77.6139  219.2934 H   0  0  0  0  0  0  0  0  0  0  0  0
  142.7676   76.1910  218.2977 H   0  0  0  0  0  0  0  0  0  0  0  0
  141.0444   78.2785  218.2887 H   0  0  0  0  0  0  0  0  0  0  0  0
  140.3906   76.6795  218.1656 H   0  0  0  0  0  0  0  0  0  0  0  0
  139.3885   77.7662  220.3169 H   0  0  0  0  0  0  0  0  0  0  0  0
  142.5392   81.4614  221.6117 H   0  0  0  0  0  0  0  0  0  0  0  0
  142.9934   79.5916  223.4969 H   0  0  0  0  0  0  0  0  0  0  0  0
  141.8270   77.4540  222.6820 H   0  0  0  0  0  0  0  0  0  0  0  0
  138.8713   69.0987  222.5561 H   0  0  0  0  0  0  0  0  0  0  0  0
  138.8232   67.6456  224.5562 H   0  0  0  0  0  0  0  0  0  0  0  0
  139.3638   67.3593  226.8999 H   0  0  0  0  0  0  0  0  0  0  0  0
  141.2932   70.5417  229.0128 H   0  0  0  0  0  0  0  0  0  0  0  0
  141.3246   71.9810  226.9829 H   0  0  0  0  0  0  0  0  0  0  0  0
  1  2  2  0
  2  3  1  0
  3  4  1  0
  4  5  1  0
  5  6  2  0
  5  7  1  0
  7  8  1  0
  8  9  1  0
  9 10  1  0
 10 11  1  0
 11 12  1  0
 12 13  2  0
 13 14  1  0
 14 15  2  0
 15 16  1  0
  2 17  1  0
 17 18  2  0
 18 19  1  0
 19 20  2  0
 20 21  1  0
 21 22  2  0
 22 23  1  0
 22 24  1  0
 24 25  2  0
 25 26  1  0
 26 27  2  0
 11  7  1  0
 16 12  1  0
 27 17  1  0
 26 20  1  0
  3 28  1  0
  4 29  1  0
  4 30  1  0
  8 31  1  0
  8 32  1  0
  9 33  1  0
  9 34  1  0
 10 35  1  0
 10 36  1  0
 11 37  1  6
 14 38  1  0
 15 39  1  0
 16 40  1  0
 18 41  1  0
 19 42  1  0
 21 43  1  0
 24 44  1  0
 25 45  1  0
M  END
>  <smiles>  (44) 
O=C(NCC(=O)N1CCC[C@@H]1c1ncc[nH]1)c1ccc2cc(F)ccc2n1

>  <score_type>  (44) 
oracle

>  <origin>  (44) 
autodockgpu

>  <m_score__min__energy>  (44) 
-8.2699999999999996

>  <m_primary>  (44) 
energy

>  <rmsd>  (44) 
1.8111609805173248

>  <m_score__min__rmsd>  (44) 
1.8111609805173248

>  <meeko>  (44) 
{"free_energy": -7.5, "intermolecular_energy": -8.99, "internal_energy": -1.85, "cluster_size": 30, "cluster_id": 1, "rank_in_cluster": 26}

>  <energy>  (44) 
-6.17

>  <cluster_rmsd>  (44) 
0.88

>  <cluster>  (44) 
4

$$$$

     RDKit          3D

 45 48  0  0  0  0  0  0  0  0999 V2000
  141.2440   72.1210  221.3930 O   0  0  0  0  0  0  0  0  0  0  0  0
  140.5050   72.4070  222.3680 C   0  0  0  0  0  0  0  0  0  0  0  0
  139.8600   73.6780  222.3280 N   0  0  0  0  0  0  0  0  0  0  0  0
  140.1040   74.5130  221.1940 C   0  0  0  0  0  0  0  0  0  0  0  0
  140.0780   75.9280  221.4980 C   0  0  0  0  0  0  0  0  0  0  0  0
  139.3360   76.2370  222.5330 O   0  0  0  0  0  0  0  0  0  0  0  0
  140.6890   77.0490  220.9180 N   0  0  0  0  0  0  0  0  0  0  0  0
  141.9750   76.8940  220.2000 C   0  0  0  0  0  0  0  0  0  0  0  0
  141.9950   77.9740  219.1690 C   0  0  0  0  0  0  0  0  0  0  0  0
  140.6470   78.6060  219.2560 C   0  0  0  0  0  0  0  0  0  0  0  0
  140.3650   78.4370  220.7610 C   0  0  2  0  0  0  0  0  0  0  0  0
  141.3150   79.2510  221.5410 C   0  0  0  0  0  0  0  0  0  0  0  0
  141.5930   80.5540  221.5200 N   0  0  0  0  0  0  0  0  0  0  0  0
  142.5310   80.8870  222.4260 C   0  0  0  0  0  0  0  0  0  0  0  0
  142.8630   79.7110  223.0580 C   0  0  0  0  0  0  0  0  0  0  0  0
  142.1270   78.7430  222.5170 N   0  0  0  0  0  0  0  0  0  0  0  0
  140.2790   71.5240  223.5010 C   0  0  0  0  0  0  0  0  0  0  0  0
  139.6140   70.3230  223.3690 C   0  0  0  0  0  0  0  0  0  0  0  0
  139.3740   69.4660  224.4210 C   0  0  0  0  0  0  0  0  0  0  0  0
  139.8340   69.8550  225.6680 C   0  0  0  0  0  0  0  0  0  0  0  0
  139.6210   69.0350  226.7580 C   0  0  0  0  0  0  0  0  0  0  0  0
  140.0850   69.4380  227.9890 C   0  0  0  0  0  0  0  0  0  0  0  0
  139.8740   68.6240  229.0730 F   0  0  0  0  0  0  0  0  0  0  0  0
  140.7480   70.6410  228.1110 C   0  0  0  0  0  0  0  0  0  0  0  0
  140.9820   71.4890  227.0480 C   0  0  0  0  0  0  0  0  0  0  0  0
  140.4990   71.0540  225.8090 C   0  0  0  0  0  0  0  0  0  0  0  0
  140.7180   71.8740  224.7460 N   0  0  0  0  0  0  0  0  0  0  0  0
  139.2460   73.9170  223.1390 H   0  0  0  0  0  0  0  0  0  0  0  0
  141.0944   74.2635  220.7855 H   0  0  0  0  0  0  0  0  0  0  0  0
  139.2939   74.3234  220.4745 H   0  0  0  0  0  0  0  0  0  0  0  0
  142.8191   77.0119  220.8954 H   0  0  0  0  0  0  0  0  0  0  0  0
  142.0684   75.8968  219.7452 H   0  0  0  0  0  0  0  0  0  0  0  0
  142.7829   78.7085  219.3920 H   0  0  0  0  0  0  0  0  0  0  0  0
  142.2076   77.5844  218.1625 H   0  0  0  0  0  0  0  0  0  0  0  0
  140.6740   79.6659  218.9628 H   0  0  0  0  0  0  0  0  0  0  0  0
  139.8876   78.1679  218.5916 H   0  0  0  0  0  0  0  0  0  0  0  0
  139.3556   78.7303  221.0853 H   0  0  0  0  0  0  0  0  0  0  0  0
  142.9446   81.8876  222.6200 H   0  0  0  0  0  0  0  0  0  0  0  0
  143.6023   79.5923  223.8639 H   0  0  0  0  0  0  0  0  0  0  0  0
  142.1580   77.7570  222.7940 H   0  0  0  0  0  0  0  0  0  0  0  0
  139.2559   70.0336  222.3700 H   0  0  0  0  0  0  0  0  0  0  0  0
  138.8406   68.5149  224.2767 H   0  0  0  0  0  0  0  0  0  0  0  0
  139.0906   68.0780  226.6445 H   0  0  0  0  0  0  0  0  0  0  0  0
  141.1086   70.9397  229.1063 H   0  0  0  0  0  0  0  0  0  0  0  0
  141.5136   72.4447  227.1669 H   0  0  0  0  0  0  0  0  0  0  0  0
  1  2  2  0
  2  3  1  0
  3  4  1  0
  4  5  1  0
  5  6  2  0
  5  7  1  0
  7  8  1  0
  8  9  1  0
  9 10  1  0
 10 11  1  0
 11 12  1  0
 12 13  2  0
 13 14  1  0
 14 15  2  0
 15 16  1  0
  2 17  1  0
 17 18  2  0
 18 19  1  0
 19 20  2  0
 20 21  1  0
 21 22  2  0
 22 23  1  0
 22 24  1  0
 24 25  2  0
 25 26  1  0
 26 27  2  0
 11  7  1  0
 16 12  1  0
 27 17  1  0
 26 20  1  0
  3 28  1  0
  4 29  1  0
  4 30  1  0
  8 31  1  0
  8 32  1  0
  9 33  1  0
  9 34  1  0
 10 35  1  0
 10 36  1  0
 11 37  1  6
 14 38  1  0
 15 39  1  0
 16 40  1  0
 18 41  1  0
 19 42  1  0
 21 43  1  0
 24 44  1  0
 25 45  1  0
M  END
>  <smiles>  (45) 
O=C(NCC(=O)N1CCC[C@@H]1c1ncc[nH]1)c1ccc2cc(F)ccc2n1

>  <score_type>  (45) 
oracle

>  <origin>  (45) 
autodockgpu

>  <m_score__min__energy>  (45) 
-8.2699999999999996

>  <m_primary>  (45) 
energy

>  <rmsd>  (45) 
2.152359044303674

>  <m_score__min__rmsd>  (45) 
2.152359044303674

>  <meeko>  (45) 
{"free_energy": -7.9, "intermolecular_energy": -9.4, "internal_energy": -1.62, "cluster_size": 30, "cluster_id": 1, "rank_in_cluster": 16}

>  <energy>  (45) 
-6.38

>  <cluster_rmsd>  (45) 
0.0

>  <cluster>  (45) 
5

$$$$

     RDKit          3D

 45 48  0  0  0  0  0  0  0  0999 V2000
  141.1780   72.5070  221.7280 O   0  0  0  0  0  0  0  0  0  0  0  0
  140.2140   72.4490  222.5320 C   0  0  0  0  0  0  0  0  0  0  0  0
  139.1440   73.3640  222.3110 N   0  0  0  0  0  0  0  0  0  0  0  0
  139.2510   74.2600  221.2030 C   0  0  0  0  0  0  0  0  0  0  0  0
  139.4420   75.6410  221.5880 C   0  0  0  0  0  0  0  0  0  0  0  0
  138.5780   76.0720  222.4760 O   0  0  0  0  0  0  0  0  0  0  0  0
  140.3670   76.6270  221.2160 N   0  0  0  0  0  0  0  0  0  0  0  0
  141.7430   76.2340  220.8340 C   0  0  0  0  0  0  0  0  0  0  0  0
  142.2120   77.2780  219.8770 C   0  0  0  0  0  0  0  0  0  0  0  0
  141.0190   78.1450  219.6470 C   0  0  0  0  0  0  0  0  0  0  0  0
  140.3450   78.0480  221.0280 C   0  0  2  0  0  0  0  0  0  0  0  0
  141.1990   78.6880  222.0460 C   0  0  0  0  0  0  0  0  0  0  0  0
  141.1480   78.6830  223.3770 N   0  0  0  0  0  0  0  0  0  0  0  0
  142.1490   79.3970  223.9260 C   0  0  0  0  0  0  0  0  0  0  0  0
  142.8760   79.8830  222.8630 C   0  0  0  0  0  0  0  0  0  0  0  0
  142.2940   79.4490  221.7470 N   0  0  0  0  0  0  0  0  0  0  0  0
  140.1420   71.5170  223.6460 C   0  0  0  0  0  0  0  0  0  0  0  0
  139.5810   70.2640  223.5130 C   0  0  0  0  0  0  0  0  0  0  0  0
  139.4860   69.3580  224.5470 C   0  0  0  0  0  0  0  0  0  0  0  0
  139.9880   69.7510  225.7760 C   0  0  0  0  0  0  0  0  0  0  0  0
  139.9190   68.8840  226.8480 C   0  0  0  0  0  0  0  0  0  0  0  0
  140.4220   69.2920  228.0620 C   0  0  0  0  0  0  0  0  0  0  0  0
  140.3550   68.4310  229.1270 F   0  0  0  0  0  0  0  0  0  0  0  0
  140.9810   70.5460  228.1850 C   0  0  0  0  0  0  0  0  0  0  0  0
  141.0690   71.4440  227.1410 C   0  0  0  0  0  0  0  0  0  0  0  0
  140.5500   71.0020  225.9180 C   0  0  0  0  0  0  0  0  0  0  0  0
  140.6260   71.8690  224.8740 N   0  0  0  0  0  0  0  0  0  0  0  0
  138.3430   73.3180  222.9810 H   0  0  0  0  0  0  0  0  0  0  0  0
  140.1078   73.9496  220.5870 H   0  0  0  0  0  0  0  0  0  0  0  0
  138.2989   74.2080  220.6546 H   0  0  0  0  0  0  0  0  0  0  0  0
  142.3938   76.2066  221.7204 H   0  0  0  0  0  0  0  0  0  0  0  0
  141.7676   75.2308  220.3834 H   0  0  0  0  0  0  0  0  0  0  0  0
  143.0369   77.8609  220.3126 H   0  0  0  0  0  0  0  0  0  0  0  0
  142.5967   76.8433  218.9427 H   0  0  0  0  0  0  0  0  0  0  0  0
  141.3066   79.1788  219.4052 H   0  0  0  0  0  0  0  0  0  0  0  0
  140.3845   77.8436  218.8005 H   0  0  0  0  0  0  0  0  0  0  0  0
  139.3551   78.5221  221.1004 H   0  0  0  0  0  0  0  0  0  0  0  0
  142.3443   79.5577  224.9965 H   0  0  0  0  0  0  0  0  0  0  0  0
  143.7743   80.5149  222.9244 H   0  0  0  0  0  0  0  0  0  0  0  0
  142.6220   79.6520  220.7980 H   0  0  0  0  0  0  0  0  0  0  0  0
  139.1880   69.9720  222.5279 H   0  0  0  0  0  0  0  0  0  0  0  0
  139.0316   68.3667  224.4024 H   0  0  0  0  0  0  0  0  0  0  0  0
  139.4705   67.8861  226.7339 H   0  0  0  0  0  0  0  0  0  0  0  0
  141.3774   70.8464  229.1661 H   0  0  0  0  0  0  0  0  0  0  0  0
  141.5173   72.4412  227.2616 H   0  0  0  0  0  0  0  0  0  0  0  0
  1  2  2  0
  2  3  1  0
  3  4  1  0
  4  5  1  0
  5  6  2  0
  5  7  1  0
  7  8  1  0
  8  9  1  0
  9 10  1  0
 10 11  1  0
 11 12  1  0
 12 13  2  0
 13 14  1  0
 14 15  2  0
 15 16  1  0
  2 17  1  0
 17 18  2  0
 18 19  1  0
 19 20  2  0
 20 21  1  0
 21 22  2  0
 22 23  1  0
 22 24  1  0
 24 25  2  0
 25 26  1  0
 26 27  2  0
 11  7  1  0
 16 12  1  0
 27 17  1  0
 26 20  1  0
  3 28  1  0
  4 29  1  0
  4 30  1  0
  8 31  1  0
  8 32  1  0
  9 33  1  0
  9 34  1  0
 10 35  1  0
 10 36  1  0
 11 37  1  6
 14 38  1  0
 15 39  1  0
 16 40  1  0
 18 41  1  0
 19 42  1  0
 21 43  1  0
 24 44  1  0
 25 45  1  0
M  END
>  <smiles>  (46) 
O=C(NCC(=O)N1CCC[C@@H]1c1ncc[nH]1)c1ccc2cc(F)ccc2n1

>  <score_type>  (46) 
oracle

>  <origin>  (46) 
autodockgpu

>  <m_score__min__energy>  (46) 
-8.2699999999999996

>  <m_primary>  (46) 
energy

>  <rmsd>  (46) 
2.0661487850063818

>  <m_score__min__rmsd>  (46) 
2.0661487850063818

>  <meeko>  (46) 
{"free_energy": -8.08, "intermolecular_energy": -9.57, "internal_energy": -1.24, "cluster_size": 30, "cluster_id": 1, "rank_in_cluster": 10}

>  <energy>  (46) 
-6.13

>  <cluster_rmsd>  (46) 
0.0

>  <cluster>  (46) 
6

$$$$

     RDKit          3D

 45 48  0  0  0  0  0  0  0  0999 V2000
  139.3790   76.3300  220.4060 O   0  0  0  0  0  0  0  0  0  0  0  0
  139.7990   75.5380  221.2860 C   0  0  0  0  0  0  0  0  0  0  0  0
  139.1270   75.5660  222.5420 N   0  0  0  0  0  0  0  0  0  0  0  0
  138.0410   76.4810  222.6970 C   0  0  0  0  0  0  0  0  0  0  0  0
  138.4550   77.8610  222.8230 C   0  0  0  0  0  0  0  0  0  0  0  0
  137.4770   78.6880  223.1000 O   0  0  0  0  0  0  0  0  0  0  0  0
  139.6950   78.5090  222.7170 N   0  0  0  0  0  0  0  0  0  0  0  0
  139.7840   79.9660  222.9640 C   0  0  0  0  0  0  0  0  0  0  0  0
  141.1690   80.2070  223.4660 C   0  0  0  0  0  0  0  0  0  0  0  0
  141.7600   78.8460  223.6170 C   0  0  0  0  0  0  0  0  0  0  0  0
  141.0490   78.1130  222.4650 C   0  0  2  0  0  0  0  0  0  0  0  0
  141.4880   78.6720  221.1720 C   0  0  0  0  0  0  0  0  0  0  0  0
  141.8500   79.9030  220.8150 N   0  0  0  0  0  0  0  0  0  0  0  0
  142.1990   79.9730  219.5170 C   0  0  0  0  0  0  0  0  0  0  0  0
  142.0450   78.6960  219.0280 C   0  0  0  0  0  0  0  0  0  0  0  0
  141.6200   77.9310  220.0310 N   0  0  0  0  0  0  0  0  0  0  0  0
  140.9070   74.6170  221.0860 C   0  0  0  0  0  0  0  0  0  0  0  0
  140.7460   73.2500  221.1810 C   0  0  0  0  0  0  0  0  0  0  0  0
  141.7730   72.3480  221.0070 C   0  0  0  0  0  0  0  0  0  0  0  0
  143.0260   72.8670  220.7240 C   0  0  0  0  0  0  0  0  0  0  0  0
  144.0920   72.0090  220.5410 C   0  0  0  0  0  0  0  0  0  0  0  0
  145.3280   72.5430  220.2610 C   0  0  0  0  0  0  0  0  0  0  0  0
  146.3890   71.6920  220.0790 F   0  0  0  0  0  0  0  0  0  0  0  0
  145.4800   73.9100  220.1690 C   0  0  0  0  0  0  0  0  0  0  0  0
  144.4420   74.8020  220.3450 C   0  0  0  0  0  0  0  0  0  0  0  0
  143.1960   74.2320  220.6280 C   0  0  0  0  0  0  0  0  0  0  0  0
  142.1570   75.0910  220.8060 N   0  0  0  0  0  0  0  0  0  0  0  0
  139.4780   74.9080  223.2760 H   0  0  0  0  0  0  0  0  0  0  0  0
  137.3859   76.3942  221.8176 H   0  0  0  0  0  0  0  0  0  0  0  0
  137.5272   76.2136  223.6322 H   0  0  0  0  0  0  0  0  0  0  0  0
  139.6113   80.5242  222.0320 H   0  0  0  0  0  0  0  0  0  0  0  0
  139.0260   80.3022  223.6868 H   0  0  0  0  0  0  0  0  0  0  0  0
  141.7456   80.8021  222.7425 H   0  0  0  0  0  0  0  0  0  0  0  0
  141.1768   80.7709  224.4104 H   0  0  0  0  0  0  0  0  0  0  0  0
  142.8514   78.8580  223.4806 H   0  0  0  0  0  0  0  0  0  0  0  0
  141.6234   78.3903  224.6088 H   0  0  0  0  0  0  0  0  0  0  0  0
  141.2268   77.0284  222.4191 H   0  0  0  0  0  0  0  0  0  0  0  0
  142.5359   80.8624  218.9643 H   0  0  0  0  0  0  0  0  0  0  0  0
  142.2380   78.3672  217.9962 H   0  0  0  0  0  0  0  0  0  0  0  0
  141.4230   76.9280  219.9620 H   0  0  0  0  0  0  0  0  0  0  0  0
  139.7432   72.8590  221.4080 H   0  0  0  0  0  0  0  0  0  0  0  0
  141.6055   71.2639  221.0892 H   0  0  0  0  0  0  0  0  0  0  0  0
  143.9555   70.9202  220.6176 H   0  0  0  0  0  0  0  0  0  0  0  0
  146.4796   74.3101  219.9438 H   0  0  0  0  0  0  0  0  0  0  0  0
  144.5848   75.8900  220.2679 H   0  0  0  0  0  0  0  0  0  0  0  0
  1  2  2  0
  2  3  1  0
  3  4  1  0
  4  5  1  0
  5  6  2  0
  5  7  1  0
  7  8  1  0
  8  9  1  0
  9 10  1  0
 10 11  1  0
 11 12  1  0
 12 13  2  0
 13 14  1  0
 14 15  2  0
 15 16  1  0
  2 17  1  0
 17 18  2  0
 18 19  1  0
 19 20  2  0
 20 21  1  0
 21 22  2  0
 22 23  1  0
 22 24  1  0
 24 25  2  0
 25 26  1  0
 26 27  2  0
 11  7  1  0
 16 12  1  0
 27 17  1  0
 26 20  1  0
  3 28  1  0
  4 29  1  0
  4 30  1  0
  8 31  1  0
  8 32  1  0
  9 33  1  0
  9 34  1  0
 10 35  1  0
 10 36  1  0
 11 37  1  6
 14 38  1  0
 15 39  1  0
 16 40  1  0
 18 41  1  0
 19 42  1  0
 21 43  1  0
 24 44  1  0
 25 45  1  0
M  END
>  <smiles>  (47) 
O=C(NCC(=O)N1CCC[C@@H]1c1ncc[nH]1)c1ccc2cc(F)ccc2n1

>  <score_type>  (47) 
oracle

>  <origin>  (47) 
autodockgpu

>  <m_score__min__energy>  (47) 
-8.2699999999999996

>  <m_primary>  (47) 
energy

>  <rmsd>  (47) 
6.0416931754189855

>  <m_score__min__rmsd>  (47) 
6.0416931754189855

>  <meeko>  (47) 
{"free_energy": -6.07, "intermolecular_energy": -7.56, "internal_energy": -2.83, "cluster_size": 5, "cluster_id": 6, "rank_in_cluster": 2}

>  <energy>  (47) 
-6.07

>  <cluster_rmsd>  (47) 
0.1

>  <cluster>  (47) 
6

$$$$

     RDKit          3D

 45 48  0  0  0  0  0  0  0  0999 V2000
  140.3950   71.2100  221.2720 O   0  0  0  0  0  0  0  0  0  0  0  0
  140.1360   71.6420  222.4230 C   0  0  0  0  0  0  0  0  0  0  0  0
  139.9040   73.0430  222.5410 N   0  0  0  0  0  0  0  0  0  0  0  0
  139.9810   73.8340  221.3530 C   0  0  0  0  0  0  0  0  0  0  0  0
  140.1380   75.2500  221.6050 C   0  0  0  0  0  0  0  0  0  0  0  0
  139.5780   75.6580  222.7170 O   0  0  0  0  0  0  0  0  0  0  0  0
  140.7750   76.2880  220.9090 N   0  0  0  0  0  0  0  0  0  0  0  0
  142.1490   76.0910  220.3940 C   0  0  0  0  0  0  0  0  0  0  0  0
  142.2620   76.9700  219.1940 C   0  0  0  0  0  0  0  0  0  0  0  0
  140.8900   77.5220  218.9980 C   0  0  0  0  0  0  0  0  0  0  0  0
  140.4190   77.6030  220.4620 C   0  0  2  0  0  0  0  0  0  0  0  0
  141.2250   78.6000  221.1900 C   0  0  0  0  0  0  0  0  0  0  0  0
  141.5220   79.8710  220.9190 N   0  0  0  0  0  0  0  0  0  0  0  0
  142.2850   80.4290  221.8770 C   0  0  0  0  0  0  0  0  0  0  0  0
  142.4790   79.4390  222.8120 C   0  0  0  0  0  0  0  0  0  0  0  0
  141.8380   78.3530  222.3860 N   0  0  0  0  0  0  0  0  0  0  0  0
  140.0610   70.8010  223.6080 C   0  0  0  0  0  0  0  0  0  0  0  0
  139.4650   69.5580  223.5830 C   0  0  0  0  0  0  0  0  0  0  0  0
  139.3680   68.7380  224.6860 C   0  0  0  0  0  0  0  0  0  0  0  0
  139.9040   69.2110  225.8720 C   0  0  0  0  0  0  0  0  0  0  0  0
  139.8340   68.4320  227.0090 C   0  0  0  0  0  0  0  0  0  0  0  0
  140.3720   68.9190  228.1780 C   0  0  0  0  0  0  0  0  0  0  0  0
  140.3030   68.1460  229.3090 F   0  0  0  0  0  0  0  0  0  0  0  0
  140.9650   70.1640  228.1930 C   0  0  0  0  0  0  0  0  0  0  0  0
  141.0560   70.9740  227.0800 C   0  0  0  0  0  0  0  0  0  0  0  0
  140.5010   70.4530  225.9050 C   0  0  0  0  0  0  0  0  0  0  0  0
  140.5780   71.2340  224.7950 N   0  0  0  0  0  0  0  0  0  0  0  0
  139.6900   73.4040  223.4980 H   0  0  0  0  0  0  0  0  0  0  0  0
  140.8420   73.4892  220.7616 H   0  0  0  0  0  0  0  0  0  0  0  0
  139.0271   73.7066  220.8202 H   0  0  0  0  0  0  0  0  0  0  0  0
  142.8887   76.3830  221.1540 H   0  0  0  0  0  0  0  0  0  0  0  0
  142.3409   75.0371  220.1440 H   0  0  0  0  0  0  0  0  0  0  0  0
  142.9841   77.7802  219.3733 H   0  0  0  0  0  0  0  0  0  0  0  0
  142.6206   76.4228  218.3097 H   0  0  0  0  0  0  0  0  0  0  0  0
  140.9136   78.5133  218.5219 H   0  0  0  0  0  0  0  0  0  0  0  0
  140.2428   76.9273  218.3366 H   0  0  0  0  0  0  0  0  0  0  0  0
  139.3647   77.8841  220.6010 H   0  0  0  0  0  0  0  0  0  0  0  0
  142.6715   81.4585  221.9061 H   0  0  0  0  0  0  0  0  0  0  0  0
  143.0586   79.5285  223.7426 H   0  0  0  0  0  0  0  0  0  0  0  0
  141.8040   77.4580  222.8840 H   0  0  0  0  0  0  0  0  0  0  0  0
  139.0442   69.2017  222.6311 H   0  0  0  0  0  0  0  0  0  0  0  0
  138.8860   67.7510  224.6271 H   0  0  0  0  0  0  0  0  0  0  0  0
  139.3574   67.4410  226.9813 H   0  0  0  0  0  0  0  0  0  0  0  0
  141.3869   70.5298  229.1407 H   0  0  0  0  0  0  0  0  0  0  0  0
  141.5334   71.9644  227.1135 H   0  0  0  0  0  0  0  0  0  0  0  0
  1  2  2  0
  2  3  1  0
  3  4  1  0
  4  5  1  0
  5  6  2  0
  5  7  1  0
  7  8  1  0
  8  9  1  0
  9 10  1  0
 10 11  1  0
 11 12  1  0
 12 13  2  0
 13 14  1  0
 14 15  2  0
 15 16  1  0
  2 17  1  0
 17 18  2  0
 18 19  1  0
 19 20  2  0
 20 21  1  0
 21 22  2  0
 22 23  1  0
 22 24  1  0
 24 25  2  0
 25 26  1  0
 26 27  2  0
 11  7  1  0
 16 12  1  0
 27 17  1  0
 26 20  1  0
  3 28  1  0
  4 29  1  0
  4 30  1  0
  8 31  1  0
  8 32  1  0
  9 33  1  0
  9 34  1  0
 10 35  1  0
 10 36  1  0
 11 37  1  6
 14 38  1  0
 15 39  1  0
 16 40  1  0
 18 41  1  0
 19 42  1  0
 21 43  1  0
 24 44  1  0
 25 45  1  0
M  END
>  <smiles>  (48) 
O=C(NCC(=O)N1CCC[C@@H]1c1ncc[nH]1)c1ccc2cc(F)ccc2n1

>  <score_type>  (48) 
oracle

>  <origin>  (48) 
autodockgpu

>  <m_score__min__energy>  (48) 
-8.2699999999999996

>  <m_primary>  (48) 
energy

>  <rmsd>  (48) 
1.8723744853805344

>  <m_score__min__rmsd>  (48) 
1.8723744853805344

>  <meeko>  (48) 
{"free_energy": -7.61, "intermolecular_energy": -9.1, "internal_energy": -1.81, "cluster_size": 30, "cluster_id": 1, "rank_in_cluster": 22}

>  <energy>  (48) 
-6.04

>  <cluster_rmsd>  (48) 
0.19

>  <cluster>  (48) 
6

$$$$

     RDKit          3D

 45 48  0  0  0  0  0  0  0  0999 V2000
  141.2340   72.2940  221.5210 O   0  0  0  0  0  0  0  0  0  0  0  0
  140.3750   72.4500  222.4240 C   0  0  0  0  0  0  0  0  0  0  0  0
  139.5230   73.5870  222.3030 N   0  0  0  0  0  0  0  0  0  0  0  0
  139.7130   74.4450  221.1760 C   0  0  0  0  0  0  0  0  0  0  0  0
  140.4970   75.6250  221.4690 C   0  0  0  0  0  0  0  0  0  0  0  0
  141.7800   75.3930  221.6040 O   0  0  0  0  0  0  0  0  0  0  0  0
  140.1750   76.9800  221.6340 N   0  0  0  0  0  0  0  0  0  0  0  0
  140.0400   77.8520  220.4440 C   0  0  0  0  0  0  0  0  0  0  0  0
  139.0690   78.9170  220.8310 C   0  0  0  0  0  0  0  0  0  0  0  0
  138.5850   78.5160  222.1840 C   0  0  0  0  0  0  0  0  0  0  0  0
  139.8540   77.8400  222.7350 C   0  0  2  0  0  0  0  0  0  0  0  0
  140.9220   78.8430  222.9000 C   0  0  0  0  0  0  0  0  0  0  0  0
  140.9300   80.0450  223.4740 N   0  0  0  0  0  0  0  0  0  0  0  0
  142.1420   80.6280  223.4140 C   0  0  0  0  0  0  0  0  0  0  0  0
  142.9480   79.7270  222.7570 C   0  0  0  0  0  0  0  0  0  0  0  0
  142.2030   78.6660  222.4570 N   0  0  0  0  0  0  0  0  0  0  0  0
  140.2110   71.5480  223.5530 C   0  0  0  0  0  0  0  0  0  0  0  0
  139.5580   70.3390  223.4320 C   0  0  0  0  0  0  0  0  0  0  0  0
  139.3760   69.4640  224.4800 C   0  0  0  0  0  0  0  0  0  0  0  0
  139.8840   69.8420  225.7120 C   0  0  0  0  0  0  0  0  0  0  0  0
  139.7290   69.0050  226.7980 C   0  0  0  0  0  0  0  0  0  0  0  0
  140.2410   69.3970  228.0140 C   0  0  0  0  0  0  0  0  0  0  0  0
  140.0880   68.5650  229.0930 F   0  0  0  0  0  0  0  0  0  0  0  0
  140.8910   70.6080  228.1250 C   0  0  0  0  0  0  0  0  0  0  0  0
  141.0670   71.4740  227.0650 C   0  0  0  0  0  0  0  0  0  0  0  0
  140.5370   71.0490  225.8420 C   0  0  0  0  0  0  0  0  0  0  0  0
  140.6980   71.8870  224.7830 N   0  0  0  0  0  0  0  0  0  0  0  0
  138.8090   73.7180  223.0550 H   0  0  0  0  0  0  0  0  0  0  0  0
  140.2257   73.8744  220.3876 H   0  0  0  0  0  0  0  0  0  0  0  0
  138.7165   74.7906  220.8635 H   0  0  0  0  0  0  0  0  0  0  0  0
  141.0117   78.2960  220.1818 H   0  0  0  0  0  0  0  0  0  0  0  0
  139.6947   77.2881  219.5649 H   0  0  0  0  0  0  0  0  0  0  0  0
  139.5652   79.8979  220.8716 H   0  0  0  0  0  0  0  0  0  0  0  0
  138.2466   79.0130  220.1068 H   0  0  0  0  0  0  0  0  0  0  0  0
  138.2926   79.3879  222.7875 H   0  0  0  0  0  0  0  0  0  0  0  0
  137.6860   77.8821  222.1844 H   0  0  0  0  0  0  0  0  0  0  0  0
  139.7348   77.3415  223.7083 H   0  0  0  0  0  0  0  0  0  0  0  0
  142.4273   81.6151  223.8068 H   0  0  0  0  0  0  0  0  0  0  0  0
  144.0145   79.8596  222.5224 H   0  0  0  0  0  0  0  0  0  0  0  0
  142.5400   77.8310  221.9680 H   0  0  0  0  0  0  0  0  0  0  0  0
  139.1611   70.0585  222.4452 H   0  0  0  0  0  0  0  0  0  0  0  0
  138.8504   68.5072  224.3446 H   0  0  0  0  0  0  0  0  0  0  0  0
  139.2062   68.0428  226.6939 H   0  0  0  0  0  0  0  0  0  0  0  0
  141.2895   70.8985  229.1083 H   0  0  0  0  0  0  0  0  0  0  0  0
  141.5898   72.4356  227.1745 H   0  0  0  0  0  0  0  0  0  0  0  0
  1  2  2  0
  2  3  1  0
  3  4  1  0
  4  5  1  0
  5  6  2  0
  5  7  1  0
  7  8  1  0
  8  9  1  0
  9 10  1  0
 10 11  1  0
 11 12  1  0
 12 13  2  0
 13 14  1  0
 14 15  2  0
 15 16  1  0
  2 17  1  0
 17 18  2  0
 18 19  1  0
 19 20  2  0
 20 21  1  0
 21 22  2  0
 22 23  1  0
 22 24  1  0
 24 25  2  0
 25 26  1  0
 26 27  2  0
 11  7  1  0
 16 12  1  0
 27 17  1  0
 26 20  1  0
  3 28  1  0
  4 29  1  0
  4 30  1  0
  8 31  1  0
  8 32  1  0
  9 33  1  0
  9 34  1  0
 10 35  1  0
 10 36  1  0
 11 37  1  1
 14 38  1  0
 15 39  1  0
 16 40  1  0
 18 41  1  0
 19 42  1  0
 21 43  1  0
 24 44  1  0
 25 45  1  0
M  END
>  <smiles>  (49) 
O=C(NCC(=O)N1CCC[C@@H]1c1ncc[nH]1)c1ccc2cc(F)ccc2n1

>  <score_type>  (49) 
oracle

>  <origin>  (49) 
autodockgpu

>  <m_score__min__energy>  (49) 
-8.2699999999999996

>  <m_primary>  (49) 
energy

>  <rmsd>  (49) 
2.5464281091117282

>  <m_score__min__rmsd>  (49) 
2.5464281091117282

>  <meeko>  (49) 
{"free_energy": -8.23, "intermolecular_energy": -9.72, "internal_energy": -1.46, "cluster_size": 30, "cluster_id": 1, "rank_in_cluster": 6}

>  <energy>  (49) 
-6.04

>  <cluster_rmsd>  (49) 
0.16

>  <cluster>  (49) 
6

$$$$

     RDKit          3D

 45 48  0  0  0  0  0  0  0  0999 V2000
  137.1800   75.5220  221.8750 O   0  0  0  0  0  0  0  0  0  0  0  0
  138.3670   75.7530  222.2140 C   0  0  0  0  0  0  0  0  0  0  0  0
  139.2450   74.6320  222.2670 N   0  0  0  0  0  0  0  0  0  0  0  0
  138.7100   73.3500  221.9310 C   0  0  0  0  0  0  0  0  0  0  0  0
  139.2670   72.2650  222.7090 C   0  0  0  0  0  0  0  0  0  0  0  0
  140.4990   72.4720  223.1070 O   0  0  0  0  0  0  0  0  0  0  0  0
  138.7630   71.0290  223.1380 N   0  0  0  0  0  0  0  0  0  0  0  0
  137.4430   70.9670  223.8070 C   0  0  0  0  0  0  0  0  0  0  0  0
  136.8970   69.6120  223.5020 C   0  0  0  0  0  0  0  0  0  0  0  0
  137.8770   69.0150  222.5490 C   0  0  0  0  0  0  0  0  0  0  0  0
  139.1790   69.6590  223.0590 C   0  0  2  0  0  0  0  0  0  0  0  0
  139.4830   69.1620  224.4140 C   0  0  0  0  0  0  0  0  0  0  0  0
  139.2240   68.0010  225.0130 N   0  0  0  0  0  0  0  0  0  0  0  0
  139.7020   67.9600  226.2710 C   0  0  0  0  0  0  0  0  0  0  0  0
  140.3020   69.1820  226.4730 C   0  0  0  0  0  0  0  0  0  0  0  0
  140.1620   69.8880  225.3530 N   0  0  0  0  0  0  0  0  0  0  0  0
  138.8730   77.0760  222.5440 C   0  0  0  0  0  0  0  0  0  0  0  0
  138.0340   78.1600  222.7010 C   0  0  0  0  0  0  0  0  0  0  0  0
  138.4780   79.4290  223.0040 C   0  0  0  0  0  0  0  0  0  0  0  0
  139.8450   79.5990  223.1520 C   0  0  0  0  0  0  0  0  0  0  0  0
  140.3460   80.8500  223.4550 C   0  0  0  0  0  0  0  0  0  0  0  0
  141.7060   81.0000  223.5980 C   0  0  0  0  0  0  0  0  0  0  0  0
  142.2040   82.2420  223.8990 F   0  0  0  0  0  0  0  0  0  0  0  0
  142.5360   79.9110  223.4380 C   0  0  0  0  0  0  0  0  0  0  0  0
  142.0770   78.6450  223.1350 C   0  0  0  0  0  0  0  0  0  0  0  0
  140.6900   78.5220  222.9960 C   0  0  0  0  0  0  0  0  0  0  0  0
  140.2140   77.2830  222.6970 N   0  0  0  0  0  0  0  0  0  0  0  0
  140.2330   74.8240  222.5510 H   0  0  0  0  0  0  0  0  0  0  0  0
  137.6227   73.3733  222.0963 H   0  0  0  0  0  0  0  0  0  0  0  0
  138.9709   73.1585  220.8797 H   0  0  0  0  0  0  0  0  0  0  0  0
  137.5573   71.0986  224.8931 H   0  0  0  0  0  0  0  0  0  0  0  0
  136.7717   71.7635  223.4535 H   0  0  0  0  0  0  0  0  0  0  0  0
  136.8280   69.0064  224.4177 H   0  0  0  0  0  0  0  0  0  0  0  0
  135.8817   69.6573  223.0812 H   0  0  0  0  0  0  0  0  0  0  0  0
  137.9065   67.9183  222.6285 H   0  0  0  0  0  0  0  0  0  0  0  0
  137.6573   69.1969  221.4866 H   0  0  0  0  0  0  0  0  0  0  0  0
  140.0701   69.4672  222.4432 H   0  0  0  0  0  0  0  0  0  0  0  0
  139.6286   67.1269  226.9855 H   0  0  0  0  0  0  0  0  0  0  0  0
  140.8056   69.5148  227.3926 H   0  0  0  0  0  0  0  0  0  0  0  0
  140.5170   70.8380  225.2100 H   0  0  0  0  0  0  0  0  0  0  0  0
  136.9523   78.0029  222.5777 H   0  0  0  0  0  0  0  0  0  0  0  0
  137.7783   80.2694  223.1230 H   0  0  0  0  0  0  0  0  0  0  0  0
  139.6708   81.7094  223.5795 H   0  0  0  0  0  0  0  0  0  0  0  0
  143.6194   80.0585  223.5579 H   0  0  0  0  0  0  0  0  0  0  0  0
  142.7568   77.7891  223.0109 H   0  0  0  0  0  0  0  0  0  0  0  0
  1  2  2  0
  2  3  1  0
  3  4  1  0
  4  5  1  0
  5  6  2  0
  5  7  1  0
  7  8  1  0
  8  9  1  0
  9 10  1  0
 10 11  1  0
 11 12  1  0
 12 13  2  0
 13 14  1  0
 14 15  2  0
 15 16  1  0
  2 17  1  0
 17 18  2  0
 18 19  1  0
 19 20  2  0
 20 21  1  0
 21 22  2  0
 22 23  1  0
 22 24  1  0
 24 25  2  0
 25 26  1  0
 26 27  2  0
 11  7  1  0
 16 12  1  0
 27 17  1  0
 26 20  1  0
  3 28  1  0
  4 29  1  0
  4 30  1  0
  8 31  1  0
  8 32  1  0
  9 33  1  0
  9 34  1  0
 10 35  1  0
 10 36  1  0
 11 37  1  6
 14 38  1  0
 15 39  1  0
 16 40  1  0
 18 41  1  0
 19 42  1  0
 21 43  1  0
 24 44  1  0
 25 45  1  0
M  END
>  <smiles>  (50) 
O=C(NCC(=O)N1CCC[C@@H]1c1ncc[nH]1)c1ccc2cc(F)ccc2n1

>  <score_type>  (50) 
oracle

>  <origin>  (50) 
autodockgpu

>  <m_score__min__energy>  (50) 
-8.2699999999999996

>  <m_primary>  (50) 
energy

>  <rmsd>  (50) 
9.062051453772705

>  <m_score__min__rmsd>  (50) 
9.062051453772705

>  <meeko>  (50) 
{"free_energy": -6.38, "intermolecular_energy": -7.87, "internal_energy": -2.05, "cluster_size": 1, "cluster_id": 5, "rank_in_cluster": 1}

>  <energy>  (50) 
-5.98

>  <cluster_rmsd>  (50) 
0.24

>  <cluster>  (50) 
6

$$$$
