
     RDKit          3D

 42 44  0  0  0  0  0  0  0  0999 V2000
  141.1710   82.7590  221.6270 C   0  0  0  0  0  0  0  0  0  0  0  0
  141.7010   81.9870  222.6900 O   0  0  0  0  0  0  0  0  0  0  0  0
  141.6050   80.6050  222.5830 C   0  0  0  0  0  0  0  0  0  0  0  0
  141.5370   80.0910  221.2910 C   0  0  0  0  0  0  0  0  0  0  0  0
  141.4400   78.7360  221.0720 C   0  0  0  0  0  0  0  0  0  0  0  0
  141.4130   77.8960  222.1850 C   0  0  0  0  0  0  0  0  0  0  0  0
  141.3120   76.4990  221.9040 N   0  0  0  0  0  0  0  0  0  0  0  0
  140.0540   75.9850  221.5020 C   0  0  0  0  0  0  0  0  0  0  0  0
  139.0900   76.8150  221.4130 O   0  0  0  0  0  0  0  0  0  0  0  0
  139.7670   74.5850  221.1790 C   0  0  0  0  0  0  0  0  0  0  0  0
  139.7150   73.6810  222.2820 N   0  0  0  0  0  0  0  0  0  0  0  0
  140.2590   72.3620  222.2370 C   0  0  0  0  0  0  0  0  0  0  0  0
  140.8390   71.9120  221.1900 O   0  0  0  0  0  0  0  0  0  0  0  0
  140.1580   71.4830  223.4230 C   0  0  0  0  0  0  0  0  0  0  0  0
  139.5780   70.2400  223.3020 C   0  0  0  0  0  0  0  0  0  0  0  0
  139.4780   69.4040  224.4190 C   0  0  0  0  0  0  0  0  0  0  0  0
  139.9810   69.8840  225.6180 C   0  0  0  0  0  0  0  0  0  0  0  0
  139.9260   69.1260  226.7760 C   0  0  0  0  0  0  0  0  0  0  0  0
  140.4280   69.6030  227.9740 C   0  0  0  0  0  0  0  0  0  0  0  0
  140.3720   68.8620  229.0970 F   0  0  0  0  0  0  0  0  0  0  0  0
  141.0050   70.8540  228.0610 C   0  0  0  0  0  0  0  0  0  0  0  0
  141.0690   71.6300  226.9100 C   0  0  0  0  0  0  0  0  0  0  0  0
  140.5640   71.1400  225.7240 C   0  0  0  0  0  0  0  0  0  0  0  0
  140.6250   71.8810  224.6210 N   0  0  0  0  0  0  0  0  0  0  0  0
  141.4800   78.3950  223.4720 C   0  0  0  0  0  0  0  0  0  0  0  0
  141.5780   79.7680  223.6800 C   0  0  0  0  0  0  0  0  0  0  0  0
  140.5934   83.6004  222.0374 H   0  0  0  0  0  0  0  0  0  0  0  0
  141.9945   83.1464  221.0091 H   0  0  0  0  0  0  0  0  0  0  0  0
  140.5136   82.1297  221.0091 H   0  0  0  0  0  0  0  0  0  0  0  0
  141.5612   80.7783  220.4325 H   0  0  0  0  0  0  0  0  0  0  0  0
  141.3855   78.3284  220.0518 H   0  0  0  0  0  0  0  0  0  0  0  0
  142.1280   75.8820  221.9840 H   0  0  0  0  0  0  0  0  0  0  0  0
  138.7918   74.5510  220.6712 H   0  0  0  0  0  0  0  0  0  0  0  0
  140.6119   74.2467  220.5612 H   0  0  0  0  0  0  0  0  0  0  0  0
  139.2640   73.9420  223.2070 H   0  0  0  0  0  0  0  0  0  0  0  0
  139.1935   69.9046  222.3275 H   0  0  0  0  0  0  0  0  0  0  0  0
  139.0191   68.4068  224.3487 H   0  0  0  0  0  0  0  0  0  0  0  0
  139.4738   68.1238  226.7426 H   0  0  0  0  0  0  0  0  0  0  0  0
  141.4036   71.2267  229.0161 H   0  0  0  0  0  0  0  0  0  0  0  0
  141.5212   72.6322  226.9448 H   0  0  0  0  0  0  0  0  0  0  0  0
  141.4559   77.7082  224.3309 H   0  0  0  0  0  0  0  0  0  0  0  0
  141.6329   80.1780  224.6993 H   0  0  0  0  0  0  0  0  0  0  0  0
  1  2  1  0
  2  3  1  0
  3  4  2  0
  4  5  1  0
  5  6  2  0
  6  7  1  0
  7  8  1  0
  8  9  2  0
  8 10  1  0
 10 11  1  0
 11 12  1  0
 12 13  2  0
 12 14  1  0
 14 15  2  0
 15 16  1  0
 16 17  2  0
 17 18  1  0
 18 19  2  0
 19 20  1  0
 19 21  1  0
 21 22  2  0
 22 23  1  0
 23 24  2  0
  6 25  1  0
 25 26  2  0
 26  3  1  0
 24 14  1  0
 23 17  1  0
  1 27  1  0
  1 28  1  0
  1 29  1  0
  4 30  1  0
  5 31  1  0
  7 32  1  0
 10 33  1  0
 10 34  1  0
 11 35  1  0
 15 36  1  0
 16 37  1  0
 18 38  1  0
 21 39  1  0
 22 40  1  0
 25 41  1  0
 26 42  1  0
M  END
>  <smiles>  (1) 
COc1ccc(NC(=O)CNC(=O)c2ccc3cc(F)ccc3n2)cc1

>  <score_type>  (1) 
oracle

>  <origin>  (1) 
autodockgpu

>  <m_score__min__energy>  (1) 
-8.4100000000000001

>  <m_primary>  (1) 
energy

>  <rmsd>  (1) 
3.036825900809058

>  <m_score__min__rmsd>  (1) 
3.036825900809058

>  <meeko>  (1) 
{"free_energy": -8.3, "intermolecular_energy": -9.79, "internal_energy": -0.86, "cluster_size": 36, "cluster_id": 1, "rank_in_cluster": 4}

>  <energy>  (1) 
-8.41

>  <cluster_rmsd>  (1) 
0.0

>  <cluster>  (1) 
1

$$$$

     RDKit          3D

 42 44  0  0  0  0  0  0  0  0999 V2000
  142.2750   80.8990  223.4410 C   0  0  0  0  0  0  0  0  0  0  0  0
  140.9610   80.7420  222.9370 O   0  0  0  0  0  0  0  0  0  0  0  0
  140.4800   79.4450  222.8060 C   0  0  0  0  0  0  0  0  0  0  0  0
  141.4360   78.4490  222.6280 C   0  0  0  0  0  0  0  0  0  0  0  0
  141.0680   77.1300  222.4880 C   0  0  0  0  0  0  0  0  0  0  0  0
  139.7080   76.8250  222.5300 C   0  0  0  0  0  0  0  0  0  0  0  0
  139.3780   75.4430  222.3800 N   0  0  0  0  0  0  0  0  0  0  0  0
  138.7810   75.0250  221.1650 C   0  0  0  0  0  0  0  0  0  0  0  0
  138.5820   75.9190  220.2780 O   0  0  0  0  0  0  0  0  0  0  0  0
  138.3750   73.6550  220.8410 C   0  0  0  0  0  0  0  0  0  0  0  0
  138.4900   72.6970  221.8920 N   0  0  0  0  0  0  0  0  0  0  0  0
  139.7010   72.4690  222.6130 C   0  0  0  0  0  0  0  0  0  0  0  0
  140.7670   73.1260  222.3550 O   0  0  0  0  0  0  0  0  0  0  0  0
  139.7370   71.4510  223.6870 C   0  0  0  0  0  0  0  0  0  0  0  0
  139.1650   70.2170  223.4740 C   0  0  0  0  0  0  0  0  0  0  0  0
  139.1950   69.2500  224.4840 C   0  0  0  0  0  0  0  0  0  0  0  0
  139.8150   69.5950  225.6750 C   0  0  0  0  0  0  0  0  0  0  0  0
  139.8930   68.7010  226.7310 C   0  0  0  0  0  0  0  0  0  0  0  0
  140.5120   69.0440  227.9200 C   0  0  0  0  0  0  0  0  0  0  0  0
  140.5850   68.1710  228.9440 F   0  0  0  0  0  0  0  0  0  0  0  0
  141.0770   70.2910  228.1000 C   0  0  0  0  0  0  0  0  0  0  0  0
  141.0080   71.2000  227.0530 C   0  0  0  0  0  0  0  0  0  0  0  0
  140.3880   70.8440  225.8730 C   0  0  0  0  0  0  0  0  0  0  0  0
  140.3230   71.7150  224.8700 N   0  0  0  0  0  0  0  0  0  0  0  0
  138.7500   77.8060  222.7060 C   0  0  0  0  0  0  0  0  0  0  0  0
  139.1350   79.1350  222.8470 C   0  0  0  0  0  0  0  0  0  0  0  0
  142.2487   80.8959  224.5407 H   0  0  0  0  0  0  0  0  0  0  0  0
  142.9050   80.0698  223.0869 H   0  0  0  0  0  0  0  0  0  0  0  0
  142.6919   81.8534  223.0869 H   0  0  0  0  0  0  0  0  0  0  0  0
  142.5017   78.7201  222.5988 H   0  0  0  0  0  0  0  0  0  0  0  0
  141.8225   76.3419  222.3475 H   0  0  0  0  0  0  0  0  0  0  0  0
  139.5730   74.7680  223.1270 H   0  0  0  0  0  0  0  0  0  0  0  0
  137.3212   73.6831  220.5268 H   0  0  0  0  0  0  0  0  0  0  0  0
  139.0727   73.3190  220.0598 H   0  0  0  0  0  0  0  0  0  0  0  0
  137.6720   72.0950  222.2010 H   0  0  0  0  0  0  0  0  0  0  0  0
  138.6848   69.9918  222.5103 H   0  0  0  0  0  0  0  0  0  0  0  0
  138.7452   68.2566  224.3393 H   0  0  0  0  0  0  0  0  0  0  0  0
  139.4539   67.6984  226.6218 H   0  0  0  0  0  0  0  0  0  0  0  0
  141.5685   70.5570  229.0475 H   0  0  0  0  0  0  0  0  0  0  0  0
  141.4469   72.2025  227.1640 H   0  0  0  0  0  0  0  0  0  0  0  0
  137.6841   77.5357  222.7345 H   0  0  0  0  0  0  0  0  0  0  0  0
  138.3821   79.9244  222.9885 H   0  0  0  0  0  0  0  0  0  0  0  0
  1  2  1  0
  2  3  1  0
  3  4  2  0
  4  5  1  0
  5  6  2  0
  6  7  1  0
  7  8  1  0
  8  9  2  0
  8 10  1  0
 10 11  1  0
 11 12  1  0
 12 13  2  0
 12 14  1  0
 14 15  2  0
 15 16  1  0
 16 17  2  0
 17 18  1  0
 18 19  2  0
 19 20  1  0
 19 21  1  0
 21 22  2  0
 22 23  1  0
 23 24  2  0
  6 25  1  0
 25 26  2  0
 26  3  1  0
 24 14  1  0
 23 17  1  0
  1 27  1  0
  1 28  1  0
  1 29  1  0
  4 30  1  0
  5 31  1  0
  7 32  1  0
 10 33  1  0
 10 34  1  0
 11 35  1  0
 15 36  1  0
 16 37  1  0
 18 38  1  0
 21 39  1  0
 22 40  1  0
 25 41  1  0
 26 42  1  0
M  END
>  <smiles>  (2) 
COc1ccc(NC(=O)CNC(=O)c2ccc3cc(F)ccc3n2)cc1

>  <score_type>  (2) 
oracle

>  <origin>  (2) 
autodockgpu

>  <m_score__min__energy>  (2) 
-8.4100000000000001

>  <m_primary>  (2) 
energy

>  <rmsd>  (2) 
3.0503678236311793

>  <m_score__min__rmsd>  (2) 
3.0503678236311793

>  <meeko>  (2) 
{"free_energy": -7.67, "intermolecular_energy": -9.16, "internal_energy": -1.47, "cluster_size": 36, "cluster_id": 1, "rank_in_cluster": 20}

>  <energy>  (2) 
-8.39

>  <cluster_rmsd>  (2) 
0.1

>  <cluster>  (2) 
1

$$$$

     RDKit          3D

 42 44  0  0  0  0  0  0  0  0999 V2000
  139.9760   67.7790  226.8430 C   0  0  0  0  0  0  0  0  0  0  0  0
  138.8790   68.1580  226.0300 O   0  0  0  0  0  0  0  0  0  0  0  0
  139.0630   69.2370  225.1750 C   0  0  0  0  0  0  0  0  0  0  0  0
  140.1200   70.0900  225.4780 C   0  0  0  0  0  0  0  0  0  0  0  0
  140.3910   71.1910  224.6970 C   0  0  0  0  0  0  0  0  0  0  0  0
  139.5720   71.4230  223.5930 C   0  0  0  0  0  0  0  0  0  0  0  0
  139.8940   72.5760  222.8140 N   0  0  0  0  0  0  0  0  0  0  0  0
  140.6740   72.3980  221.6450 C   0  0  0  0  0  0  0  0  0  0  0  0
  141.0340   71.2080  221.3630 O   0  0  0  0  0  0  0  0  0  0  0  0
  141.1000   73.4630  220.7330 C   0  0  0  0  0  0  0  0  0  0  0  0
  141.1760   74.7760  221.2880 N   0  0  0  0  0  0  0  0  0  0  0  0
  140.0320   75.5010  221.7400 C   0  0  0  0  0  0  0  0  0  0  0  0
  138.8560   75.0030  221.6770 O   0  0  0  0  0  0  0  0  0  0  0  0
  140.1970   76.8620  222.2970 C   0  0  0  0  0  0  0  0  0  0  0  0
  139.0910   77.5580  222.7300 C   0  0  0  0  0  0  0  0  0  0  0  0
  139.2380   78.8450  223.2580 C   0  0  0  0  0  0  0  0  0  0  0  0
  140.5220   79.3630  223.3180 C   0  0  0  0  0  0  0  0  0  0  0  0
  140.7640   80.6290  223.8260 C   0  0  0  0  0  0  0  0  0  0  0  0
  142.0450   81.1490  223.8870 C   0  0  0  0  0  0  0  0  0  0  0  0
  142.2750   82.3800  224.3820 F   0  0  0  0  0  0  0  0  0  0  0  0
  143.1330   80.4230  223.4450 C   0  0  0  0  0  0  0  0  0  0  0  0
  142.9110   79.1510  222.9320 C   0  0  0  0  0  0  0  0  0  0  0  0
  141.6270   78.6480  222.8780 C   0  0  0  0  0  0  0  0  0  0  0  0
  141.4140   77.4300  222.3880 N   0  0  0  0  0  0  0  0  0  0  0  0
  138.5190   70.5820  223.2820 C   0  0  0  0  0  0  0  0  0  0  0  0
  138.2560   69.4740  224.0800 C   0  0  0  0  0  0  0  0  0  0  0  0
  139.6975   67.8752  227.9028 H   0  0  0  0  0  0  0  0  0  0  0  0
  140.2478   66.7349  226.6287 H   0  0  0  0  0  0  0  0  0  0  0  0
  140.8343   68.4327  226.6287 H   0  0  0  0  0  0  0  0  0  0  0  0
  140.7492   69.8812  226.3558 H   0  0  0  0  0  0  0  0  0  0  0  0
  141.2264   71.8655  224.9363 H   0  0  0  0  0  0  0  0  0  0  0  0
  139.5650   73.5080  223.0880 H   0  0  0  0  0  0  0  0  0  0  0  0
  142.0988   73.2006  220.3541 H   0  0  0  0  0  0  0  0  0  0  0  0
  140.3209   73.5159  219.9583 H   0  0  0  0  0  0  0  0  0  0  0  0
  142.0980   75.2920  221.3960 H   0  0  0  0  0  0  0  0  0  0  0  0
  138.0922   77.1023  222.6608 H   0  0  0  0  0  0  0  0  0  0  0  0
  138.3705   79.4219  223.6109 H   0  0  0  0  0  0  0  0  0  0  0  0
  139.9198   81.2338  224.1887 H   0  0  0  0  0  0  0  0  0  0  0  0
  144.1492   80.8408  223.4976 H   0  0  0  0  0  0  0  0  0  0  0  0
  143.7560   78.5468  222.5701 H   0  0  0  0  0  0  0  0  0  0  0  0
  137.8899   70.7895  222.4038 H   0  0  0  0  0  0  0  0  0  0  0  0
  137.4205   68.7988  223.8433 H   0  0  0  0  0  0  0  0  0  0  0  0
  1  2  1  0
  2  3  1  0
  3  4  2  0
  4  5  1  0
  5  6  2  0
  6  7  1  0
  7  8  1  0
  8  9  2  0
  8 10  1  0
 10 11  1  0
 11 12  1  0
 12 13  2  0
 12 14  1  0
 14 15  2  0
 15 16  1  0
 16 17  2  0
 17 18  1  0
 18 19  2  0
 19 20  1  0
 19 21  1  0
 21 22  2  0
 22 23  1  0
 23 24  2  0
  6 25  1  0
 25 26  2  0
 26  3  1  0
 24 14  1  0
 23 17  1  0
  1 27  1  0
  1 28  1  0
  1 29  1  0
  4 30  1  0
  5 31  1  0
  7 32  1  0
 10 33  1  0
 10 34  1  0
 11 35  1  0
 15 36  1  0
 16 37  1  0
 18 38  1  0
 21 39  1  0
 22 40  1  0
 25 41  1  0
 26 42  1  0
M  END
>  <smiles>  (3) 
COc1ccc(NC(=O)CNC(=O)c2ccc3cc(F)ccc3n2)cc1

>  <score_type>  (3) 
oracle

>  <origin>  (3) 
autodockgpu

>  <m_score__min__energy>  (3) 
-8.4100000000000001

>  <m_primary>  (3) 
energy

>  <rmsd>  (3) 
8.869267167453657

>  <m_score__min__rmsd>  (3) 
8.869267167453657

>  <meeko>  (3) 
{"free_energy": -7.34, "intermolecular_energy": -8.84, "internal_energy": -1.86, "cluster_size": 14, "cluster_id": 2, "rank_in_cluster": 11}

>  <energy>  (3) 
-8.36

>  <cluster_rmsd>  (3) 
0.19

>  <cluster>  (3) 
1

$$$$

     RDKit          3D

 42 44  0  0  0  0  0  0  0  0999 V2000
  141.9640   80.9930  223.2880 C   0  0  0  0  0  0  0  0  0  0  0  0
  140.7020   80.6250  222.7620 O   0  0  0  0  0  0  0  0  0  0  0  0
  140.4330   79.2660  222.6450 C   0  0  0  0  0  0  0  0  0  0  0  0
  139.1020   78.8870  222.7940 C   0  0  0  0  0  0  0  0  0  0  0  0
  138.7260   77.5670  222.6970 C   0  0  0  0  0  0  0  0  0  0  0  0
  139.7210   76.6220  222.4460 C   0  0  0  0  0  0  0  0  0  0  0  0
  139.2790   75.2670  222.3540 N   0  0  0  0  0  0  0  0  0  0  0  0
  138.9220   74.7640  221.0780 C   0  0  0  0  0  0  0  0  0  0  0  0
  139.0250   75.5620  220.0900 O   0  0  0  0  0  0  0  0  0  0  0  0
  138.4470   73.4060  220.7990 C   0  0  0  0  0  0  0  0  0  0  0  0
  138.5550   72.4670  221.8680 N   0  0  0  0  0  0  0  0  0  0  0  0
  139.7020   72.3750  222.7140 C   0  0  0  0  0  0  0  0  0  0  0  0
  140.7100   73.1450  222.5610 O   0  0  0  0  0  0  0  0  0  0  0  0
  139.7370   71.3680  223.7980 C   0  0  0  0  0  0  0  0  0  0  0  0
  139.1700   70.1300  223.5940 C   0  0  0  0  0  0  0  0  0  0  0  0
  139.1980   69.1720  224.6140 C   0  0  0  0  0  0  0  0  0  0  0  0
  139.8120   69.5310  225.8050 C   0  0  0  0  0  0  0  0  0  0  0  0
  139.8880   68.6480  226.8690 C   0  0  0  0  0  0  0  0  0  0  0  0
  140.5000   69.0040  228.0580 C   0  0  0  0  0  0  0  0  0  0  0  0
  140.5720   68.1420  229.0900 F   0  0  0  0  0  0  0  0  0  0  0  0
  141.0600   70.2550  228.2280 C   0  0  0  0  0  0  0  0  0  0  0  0
  140.9940   71.1540  227.1720 C   0  0  0  0  0  0  0  0  0  0  0  0
  140.3800   70.7840  225.9930 C   0  0  0  0  0  0  0  0  0  0  0  0
  140.3160   71.6440  224.9810 N   0  0  0  0  0  0  0  0  0  0  0  0
  141.0460   76.9880  222.2960 C   0  0  0  0  0  0  0  0  0  0  0  0
  141.4120   78.3260  222.3960 C   0  0  0  0  0  0  0  0  0  0  0  0
  141.9209   80.9804  224.3871 H   0  0  0  0  0  0  0  0  0  0  0  0
  142.7272   80.2800  222.9428 H   0  0  0  0  0  0  0  0  0  0  0  0
  142.2243   82.0045  222.9428 H   0  0  0  0  0  0  0  0  0  0  0  0
  138.3392   79.6544  222.9923 H   0  0  0  0  0  0  0  0  0  0  0  0
  137.6743   77.2664  222.8137 H   0  0  0  0  0  0  0  0  0  0  0  0
  139.2280   74.6690  223.1860 H   0  0  0  0  0  0  0  0  0  0  0  0
  137.3857   73.4732  220.5177 H   0  0  0  0  0  0  0  0  0  0  0  0
  139.1038   73.0228  220.0041 H   0  0  0  0  0  0  0  0  0  0  0  0
  137.7800   71.7790  222.0970 H   0  0  0  0  0  0  0  0  0  0  0  0
  138.6954   69.8940  222.6301 H   0  0  0  0  0  0  0  0  0  0  0  0
  138.7517   68.1760  224.4770 H   0  0  0  0  0  0  0  0  0  0  0  0
  139.4529   67.6429  226.7670 H   0  0  0  0  0  0  0  0  0  0  0  0
  141.5456   70.5319  229.1753 H   0  0  0  0  0  0  0  0  0  0  0  0
  141.4301   72.1586  227.2750 H   0  0  0  0  0  0  0  0  0  0  0  0
  141.8098   76.2216  222.0978 H   0  0  0  0  0  0  0  0  0  0  0  0
  142.4628   78.6294  222.2787 H   0  0  0  0  0  0  0  0  0  0  0  0
  1  2  1  0
  2  3  1  0
  3  4  2  0
  4  5  1  0
  5  6  2  0
  6  7  1  0
  7  8  1  0
  8  9  2  0
  8 10  1  0
 10 11  1  0
 11 12  1  0
 12 13  2  0
 12 14  1  0
 14 15  2  0
 15 16  1  0
 16 17  2  0
 17 18  1  0
 18 19  2  0
 19 20  1  0
 19 21  1  0
 21 22  2  0
 22 23  1  0
 23 24  2  0
  6 25  1  0
 25 26  2  0
 26  3  1  0
 24 14  1  0
 23 17  1  0
  1 27  1  0
  1 28  1  0
  1 29  1  0
  4 30  1  0
  5 31  1  0
  7 32  1  0
 10 33  1  0
 10 34  1  0
 11 35  1  0
 15 36  1  0
 16 37  1  0
 18 38  1  0
 21 39  1  0
 22 40  1  0
 25 41  1  0
 26 42  1  0
M  END
>  <smiles>  (4) 
COc1ccc(NC(=O)CNC(=O)c2ccc3cc(F)ccc3n2)cc1

>  <score_type>  (4) 
oracle

>  <origin>  (4) 
autodockgpu

>  <m_score__min__energy>  (4) 
-8.4100000000000001

>  <m_primary>  (4) 
energy

>  <rmsd>  (4) 
3.093548065385721

>  <m_score__min__rmsd>  (4) 
3.093548065385721

>  <meeko>  (4) 
{"free_energy": -7.67, "intermolecular_energy": -9.16, "internal_energy": -1.33, "cluster_size": 36, "cluster_id": 1, "rank_in_cluster": 22}

>  <energy>  (4) 
-8.3

>  <cluster_rmsd>  (4) 
0.27

>  <cluster>  (4) 
1

$$$$

     RDKit          3D

 42 44  0  0  0  0  0  0  0  0999 V2000
  141.0870   82.8270  221.6160 C   0  0  0  0  0  0  0  0  0  0  0  0
  141.6040   82.0090  222.6500 O   0  0  0  0  0  0  0  0  0  0  0  0
  141.5450   80.6330  222.4640 C   0  0  0  0  0  0  0  0  0  0  0  0
  141.5850   80.1880  221.1460 C   0  0  0  0  0  0  0  0  0  0  0  0
  141.5320   78.8450  220.8480 C   0  0  0  0  0  0  0  0  0  0  0  0
  141.4360   77.9460  221.9100 C   0  0  0  0  0  0  0  0  0  0  0  0
  141.3850   76.5650  221.5500 N   0  0  0  0  0  0  0  0  0  0  0  0
  140.1190   75.9280  221.5180 C   0  0  0  0  0  0  0  0  0  0  0  0
  139.1030   76.6400  221.8110 O   0  0  0  0  0  0  0  0  0  0  0  0
  139.8800   74.5230  221.1750 C   0  0  0  0  0  0  0  0  0  0  0  0
  139.7290   73.6230  222.2720 N   0  0  0  0  0  0  0  0  0  0  0  0
  140.4410   72.3900  222.3740 C   0  0  0  0  0  0  0  0  0  0  0  0
  141.2730   72.0210  221.4760 O   0  0  0  0  0  0  0  0  0  0  0  0
  140.2220   71.5090  223.5430 C   0  0  0  0  0  0  0  0  0  0  0  0
  139.5640   70.3110  223.3770 C   0  0  0  0  0  0  0  0  0  0  0  0
  139.3530   69.4720  224.4760 C   0  0  0  0  0  0  0  0  0  0  0  0
  139.8300   69.9040  225.7050 C   0  0  0  0  0  0  0  0  0  0  0  0
  139.6670   69.1390  226.8480 C   0  0  0  0  0  0  0  0  0  0  0  0
  140.1420   69.5670  228.0750 C   0  0  0  0  0  0  0  0  0  0  0  0
  139.9810   68.8200  229.1840 F   0  0  0  0  0  0  0  0  0  0  0  0
  140.7990   70.7750  228.2060 C   0  0  0  0  0  0  0  0  0  0  0  0
  140.9720   71.5550  227.0700 C   0  0  0  0  0  0  0  0  0  0  0  0
  140.4920   71.1140  225.8550 C   0  0  0  0  0  0  0  0  0  0  0  0
  140.6580   71.8610  224.7670 N   0  0  0  0  0  0  0  0  0  0  0  0
  141.3960   78.3770  223.2240 C   0  0  0  0  0  0  0  0  0  0  0  0
  141.4500   79.7370  223.5100 C   0  0  0  0  0  0  0  0  0  0  0  0
  140.5486   83.6789  222.0569 H   0  0  0  0  0  0  0  0  0  0  0  0
  141.9146   83.1986  220.9940 H   0  0  0  0  0  0  0  0  0  0  0  0
  140.3962   82.2389  220.9940 H   0  0  0  0  0  0  0  0  0  0  0  0
  141.6602   80.9210  220.3293 H   0  0  0  0  0  0  0  0  0  0  0  0
  141.5643   78.4925  219.8065 H   0  0  0  0  0  0  0  0  0  0  0  0
  142.2380   76.0470  221.3140 H   0  0  0  0  0  0  0  0  0  0  0  0
  138.9601   74.4763  220.5736 H   0  0  0  0  0  0  0  0  0  0  0  0
  140.7852   74.1915  220.6451 H   0  0  0  0  0  0  0  0  0  0  0  0
  139.0710   73.8220  223.0810 H   0  0  0  0  0  0  0  0  0  0  0  0
  139.2045   70.0139  222.3807 H   0  0  0  0  0  0  0  0  0  0  0  0
  138.8306   68.5097  224.3703 H   0  0  0  0  0  0  0  0  0  0  0  0
  139.1491   68.1710  226.7789 H   0  0  0  0  0  0  0  0  0  0  0  0
  141.1751   71.1102  229.1839 H   0  0  0  0  0  0  0  0  0  0  0  0
  141.4908   72.5225  227.1394 H   0  0  0  0  0  0  0  0  0  0  0  0
  141.3216   77.6449  224.0416 H   0  0  0  0  0  0  0  0  0  0  0  0
  141.4176   80.0922  224.5506 H   0  0  0  0  0  0  0  0  0  0  0  0
  1  2  1  0
  2  3  1  0
  3  4  2  0
  4  5  1  0
  5  6  2  0
  6  7  1  0
  7  8  1  0
  8  9  2  0
  8 10  1  0
 10 11  1  0
 11 12  1  0
 12 13  2  0
 12 14  1  0
 14 15  2  0
 15 16  1  0
 16 17  2  0
 17 18  1  0
 18 19  2  0
 19 20  1  0
 19 21  1  0
 21 22  2  0
 22 23  1  0
 23 24  2  0
  6 25  1  0
 25 26  2  0
 26  3  1  0
 24 14  1  0
 23 17  1  0
  1 27  1  0
  1 28  1  0
  1 29  1  0
  4 30  1  0
  5 31  1  0
  7 32  1  0
 10 33  1  0
 10 34  1  0
 11 35  1  0
 15 36  1  0
 16 37  1  0
 18 38  1  0
 21 39  1  0
 22 40  1  0
 25 41  1  0
 26 42  1  0
M  END
>  <smiles>  (5) 
COc1ccc(NC(=O)CNC(=O)c2ccc3cc(F)ccc3n2)cc1

>  <score_type>  (5) 
oracle

>  <origin>  (5) 
autodockgpu

>  <m_score__min__energy>  (5) 
-8.4100000000000001

>  <m_primary>  (5) 
energy

>  <rmsd>  (5) 
3.0385037405380135

>  <m_score__min__rmsd>  (5) 
3.0385037405380135

>  <meeko>  (5) 
{"free_energy": -8.36, "intermolecular_energy": -9.85, "internal_energy": -0.84, "cluster_size": 36, "cluster_id": 1, "rank_in_cluster": 3}

>  <energy>  (5) 
-8.22

>  <cluster_rmsd>  (5) 
0.4

>  <cluster>  (5) 
1

$$$$

     RDKit          3D

 42 44  0  0  0  0  0  0  0  0999 V2000
  140.0110   67.6820  226.8600 C   0  0  0  0  0  0  0  0  0  0  0  0
  139.1510   67.9490  225.7670 O   0  0  0  0  0  0  0  0  0  0  0  0
  139.3460   69.1410  225.0810 C   0  0  0  0  0  0  0  0  0  0  0  0
  138.6040   69.3090  223.9150 C   0  0  0  0  0  0  0  0  0  0  0  0
  138.7210   70.4530  223.1580 C   0  0  0  0  0  0  0  0  0  0  0  0
  139.6070   71.4360  223.5970 C   0  0  0  0  0  0  0  0  0  0  0  0
  139.6920   72.6030  222.7770 N   0  0  0  0  0  0  0  0  0  0  0  0
  140.4160   72.5170  221.5610 C   0  0  0  0  0  0  0  0  0  0  0  0
  140.9410   71.3910  221.2780 O   0  0  0  0  0  0  0  0  0  0  0  0
  140.6080   73.6090  220.6040 C   0  0  0  0  0  0  0  0  0  0  0  0
  140.7770   74.9130  221.1590 N   0  0  0  0  0  0  0  0  0  0  0  0
  139.7210   75.6360  221.7910 C   0  0  0  0  0  0  0  0  0  0  0  0
  138.5460   75.1440  221.9020 O   0  0  0  0  0  0  0  0  0  0  0  0
  139.9780   76.9870  222.3360 C   0  0  0  0  0  0  0  0  0  0  0  0
  138.9260   77.7460  222.7980 C   0  0  0  0  0  0  0  0  0  0  0  0
  139.1600   79.0250  223.3140 C   0  0  0  0  0  0  0  0  0  0  0  0
  140.4730   79.4700  223.3340 C   0  0  0  0  0  0  0  0  0  0  0  0
  140.8000   80.7230  223.8280 C   0  0  0  0  0  0  0  0  0  0  0  0
  142.1100   81.1690  223.8490 C   0  0  0  0  0  0  0  0  0  0  0  0
  142.4230   82.3880  224.3300 F   0  0  0  0  0  0  0  0  0  0  0  0
  143.1420   80.3810  223.3790 C   0  0  0  0  0  0  0  0  0  0  0  0
  142.8340   79.1230  222.8800 C   0  0  0  0  0  0  0  0  0  0  0  0
  141.5230   78.6920  222.8660 C   0  0  0  0  0  0  0  0  0  0  0  0
  141.2270   77.4870  222.3880 N   0  0  0  0  0  0  0  0  0  0  0  0
  140.3490   71.2810  224.7530 C   0  0  0  0  0  0  0  0  0  0  0  0
  140.2210   70.1200  225.5090 C   0  0  0  0  0  0  0  0  0  0  0  0
  139.4692   67.8502  227.8024 H   0  0  0  0  0  0  0  0  0  0  0  0
  140.3496   66.6364  226.8133 H   0  0  0  0  0  0  0  0  0  0  0  0
  140.8822   68.3520  226.8133 H   0  0  0  0  0  0  0  0  0  0  0  0
  137.9135   68.5153  223.5935 H   0  0  0  0  0  0  0  0  0  0  0  0
  138.1347   70.5871  222.2370 H   0  0  0  0  0  0  0  0  0  0  0  0
  139.2380   73.4800  223.0550 H   0  0  0  0  0  0  0  0  0  0  0  0
  141.5040   73.3793  220.0086 H   0  0  0  0  0  0  0  0  0  0  0  0
  139.6760   73.6563  220.0217 H   0  0  0  0  0  0  0  0  0  0  0  0
  141.7080   75.4230  221.1330 H   0  0  0  0  0  0  0  0  0  0  0  0
  137.9017   77.3466  222.7613 H   0  0  0  0  0  0  0  0  0  0  0  0
  138.3369   79.6514  223.6882 H   0  0  0  0  0  0  0  0  0  0  0  0
  140.0022   81.3762  224.2111 H   0  0  0  0  0  0  0  0  0  0  0  0
  144.1812   80.7410  223.3995 H   0  0  0  0  0  0  0  0  0  0  0  0
  143.6328   78.4711  222.4967 H   0  0  0  0  0  0  0  0  0  0  0  0
  141.0396   72.0744  225.0747 H   0  0  0  0  0  0  0  0  0  0  0  0
  140.8060   69.9844  226.4306 H   0  0  0  0  0  0  0  0  0  0  0  0
  1  2  1  0
  2  3  1  0
  3  4  2  0
  4  5  1  0
  5  6  2  0
  6  7  1  0
  7  8  1  0
  8  9  2  0
  8 10  1  0
 10 11  1  0
 11 12  1  0
 12 13  2  0
 12 14  1  0
 14 15  2  0
 15 16  1  0
 16 17  2  0
 17 18  1  0
 18 19  2  0
 19 20  1  0
 19 21  1  0
 21 22  2  0
 22 23  1  0
 23 24  2  0
  6 25  1  0
 25 26  2  0
 26  3  1  0
 24 14  1  0
 23 17  1  0
  1 27  1  0
  1 28  1  0
  1 29  1  0
  4 30  1  0
  5 31  1  0
  7 32  1  0
 10 33  1  0
 10 34  1  0
 11 35  1  0
 15 36  1  0
 16 37  1  0
 18 38  1  0
 21 39  1  0
 22 40  1  0
 25 41  1  0
 26 42  1  0
M  END
>  <smiles>  (6) 
COc1ccc(NC(=O)CNC(=O)c2ccc3cc(F)ccc3n2)cc1

>  <score_type>  (6) 
oracle

>  <origin>  (6) 
autodockgpu

>  <m_score__min__energy>  (6) 
-8.4100000000000001

>  <m_primary>  (6) 
energy

>  <rmsd>  (6) 
8.797234352111527

>  <m_score__min__rmsd>  (6) 
8.797234352111527

>  <meeko>  (6) 
{"free_energy": -7.41, "intermolecular_energy": -8.9, "internal_energy": -1.85, "cluster_size": 14, "cluster_id": 2, "rank_in_cluster": 5}

>  <energy>  (6) 
-8.2

>  <cluster_rmsd>  (6) 
0.36

>  <cluster>  (6) 
1

$$$$

     RDKit          3D

 42 44  0  0  0  0  0  0  0  0999 V2000
  142.5740   80.9630  223.8230 C   0  0  0  0  0  0  0  0  0  0  0  0
  142.0530   80.8040  222.5150 O   0  0  0  0  0  0  0  0  0  0  0  0
  141.7520   79.5120  222.1020 C   0  0  0  0  0  0  0  0  0  0  0  0
  141.3880   78.6150  223.1030 C   0  0  0  0  0  0  0  0  0  0  0  0
  141.0700   77.3090  222.8030 C   0  0  0  0  0  0  0  0  0  0  0  0
  141.1250   76.9160  221.4670 C   0  0  0  0  0  0  0  0  0  0  0  0
  140.7860   75.5520  221.2080 N   0  0  0  0  0  0  0  0  0  0  0  0
  141.8070   74.6830  220.7500 C   0  0  0  0  0  0  0  0  0  0  0  0
  142.9710   75.1820  220.6040 O   0  0  0  0  0  0  0  0  0  0  0  0
  141.6400   73.2630  220.4330 C   0  0  0  0  0  0  0  0  0  0  0  0
  141.4080   72.3920  221.5390 N   0  0  0  0  0  0  0  0  0  0  0  0
  140.3450   72.5820  222.4730 C   0  0  0  0  0  0  0  0  0  0  0  0
  139.5240   73.5560  222.3640 O   0  0  0  0  0  0  0  0  0  0  0  0
  140.1760   71.6360  223.5980 C   0  0  0  0  0  0  0  0  0  0  0  0
  139.4860   70.4610  223.4010 C   0  0  0  0  0  0  0  0  0  0  0  0
  139.3210   69.5610  224.4590 C   0  0  0  0  0  0  0  0  0  0  0  0
  139.8770   69.9100  225.6810 C   0  0  0  0  0  0  0  0  0  0  0  0
  139.7650   69.0810  226.7850 C   0  0  0  0  0  0  0  0  0  0  0  0
  140.3200   69.4270  228.0050 C   0  0  0  0  0  0  0  0  0  0  0  0
  140.2090   68.6170  229.0750 F   0  0  0  0  0  0  0  0  0  0  0  0
  141.0080   70.6130  228.1670 C   0  0  0  0  0  0  0  0  0  0  0  0
  141.1300   71.4580  227.0720 C   0  0  0  0  0  0  0  0  0  0  0  0
  140.5710   71.0980  225.8630 C   0  0  0  0  0  0  0  0  0  0  0  0
  140.6890   71.9070  224.8130 N   0  0  0  0  0  0  0  0  0  0  0  0
  141.4850   77.7980  220.4650 C   0  0  0  0  0  0  0  0  0  0  0  0
  141.8040   79.1150  220.7810 C   0  0  0  0  0  0  0  0  0  0  0  0
  141.7931   80.7247  224.5602 H   0  0  0  0  0  0  0  0  0  0  0  0
  143.4288   80.2848  223.9621 H   0  0  0  0  0  0  0  0  0  0  0  0
  142.9045   82.0029  223.9621 H   0  0  0  0  0  0  0  0  0  0  0  0
  141.3539   78.9545  224.1487 H   0  0  0  0  0  0  0  0  0  0  0  0
  140.7819   76.5991  223.5923 H   0  0  0  0  0  0  0  0  0  0  0  0
  139.8310   75.2070  221.3560 H   0  0  0  0  0  0  0  0  0  0  0  0
  140.7840   73.1708  219.7483 H   0  0  0  0  0  0  0  0  0  0  0  0
  142.6010   72.9430  220.0039 H   0  0  0  0  0  0  0  0  0  0  0  0
  142.0190   71.5460  221.7310 H   0  0  0  0  0  0  0  0  0  0  0  0
  139.0645   70.2300  222.4116 H   0  0  0  0  0  0  0  0  0  0  0  0
  138.7733   68.6161  224.3275 H   0  0  0  0  0  0  0  0  0  0  0  0
  139.2238   68.1280  226.6903 H   0  0  0  0  0  0  0  0  0  0  0  0
  141.4482   70.8816  229.1386 H   0  0  0  0  0  0  0  0  0  0  0  0
  141.6705   72.4112  227.1681 H   0  0  0  0  0  0  0  0  0  0  0  0
  141.5192   77.4589  219.4191 H   0  0  0  0  0  0  0  0  0  0  0  0
  142.0922   79.8263  219.9930 H   0  0  0  0  0  0  0  0  0  0  0  0
  1  2  1  0
  2  3  1  0
  3  4  2  0
  4  5  1  0
  5  6  2  0
  6  7  1  0
  7  8  1  0
  8  9  2  0
  8 10  1  0
 10 11  1  0
 11 12  1  0
 12 13  2  0
 12 14  1  0
 14 15  2  0
 15 16  1  0
 16 17  2  0
 17 18  1  0
 18 19  2  0
 19 20  1  0
 19 21  1  0
 21 22  2  0
 22 23  1  0
 23 24  2  0
  6 25  1  0
 25 26  2  0
 26  3  1  0
 24 14  1  0
 23 17  1  0
  1 27  1  0
  1 28  1  0
  1 29  1  0
  4 30  1  0
  5 31  1  0
  7 32  1  0
 10 33  1  0
 10 34  1  0
 11 35  1  0
 15 36  1  0
 16 37  1  0
 18 38  1  0
 21 39  1  0
 22 40  1  0
 25 41  1  0
 26 42  1  0
M  END
>  <smiles>  (7) 
COc1ccc(NC(=O)CNC(=O)c2ccc3cc(F)ccc3n2)cc1

>  <score_type>  (7) 
oracle

>  <origin>  (7) 
autodockgpu

>  <m_score__min__energy>  (7) 
-8.4100000000000001

>  <m_primary>  (7) 
energy

>  <rmsd>  (7) 
3.422177609026526

>  <m_score__min__rmsd>  (7) 
3.422177609026526

>  <meeko>  (7) 
{"free_energy": -7.58, "intermolecular_energy": -9.07, "internal_energy": -1.49, "cluster_size": 36, "cluster_id": 1, "rank_in_cluster": 33}

>  <energy>  (7) 
-8.2

>  <cluster_rmsd>  (7) 
0.35

>  <cluster>  (7) 
1

$$$$

     RDKit          3D

 42 44  0  0  0  0  0  0  0  0999 V2000
  142.5340   81.3130  223.7480 C   0  0  0  0  0  0  0  0  0  0  0  0
  142.3900   80.8260  222.4260 O   0  0  0  0  0  0  0  0  0  0  0  0
  141.9220   79.5260  222.2740 C   0  0  0  0  0  0  0  0  0  0  0  0
  141.8300   79.0530  220.9690 C   0  0  0  0  0  0  0  0  0  0  0  0
  141.3790   77.7790  220.7060 C   0  0  0  0  0  0  0  0  0  0  0  0
  141.0170   76.9800  221.7900 C   0  0  0  0  0  0  0  0  0  0  0  0
  140.5560   75.6680  221.4640 N   0  0  0  0  0  0  0  0  0  0  0  0
  139.1750   75.3860  221.6160 C   0  0  0  0  0  0  0  0  0  0  0  0
  138.4320   76.3350  222.0320 O   0  0  0  0  0  0  0  0  0  0  0  0
  138.5310   74.1010  221.3350 C   0  0  0  0  0  0  0  0  0  0  0  0
  138.6620   73.0950  222.3390 N   0  0  0  0  0  0  0  0  0  0  0  0
  139.9240   72.6140  222.8020 C   0  0  0  0  0  0  0  0  0  0  0  0
  141.0260   73.0690  222.3380 O   0  0  0  0  0  0  0  0  0  0  0  0
  139.9740   71.5630  223.8430 C   0  0  0  0  0  0  0  0  0  0  0  0
  139.5330   70.2930  223.5480 C   0  0  0  0  0  0  0  0  0  0  0  0
  139.5760   69.2940  224.5270 C   0  0  0  0  0  0  0  0  0  0  0  0
  140.0730   69.6470  225.7720 C   0  0  0  0  0  0  0  0  0  0  0  0
  140.1540   68.7240  226.8020 C   0  0  0  0  0  0  0  0  0  0  0  0
  140.6500   69.0740  228.0460 C   0  0  0  0  0  0  0  0  0  0  0  0
  140.7270   68.1730  229.0440 F   0  0  0  0  0  0  0  0  0  0  0  0
  141.0850   70.3580  228.3070 C   0  0  0  0  0  0  0  0  0  0  0  0
  141.0120   71.2970  227.2870 C   0  0  0  0  0  0  0  0  0  0  0  0
  140.5140   70.9330  226.0530 C   0  0  0  0  0  0  0  0  0  0  0  0
  140.4440   71.8320  225.0750 N   0  0  0  0  0  0  0  0  0  0  0  0
  141.1040   77.4390  223.0910 C   0  0  0  0  0  0  0  0  0  0  0  0
  141.5620   78.7290  223.3420 C   0  0  0  0  0  0  0  0  0  0  0  0
  142.2968   80.5107  224.4622 H   0  0  0  0  0  0  0  0  0  0  0  0
  143.5698   81.6486  223.9043 H   0  0  0  0  0  0  0  0  0  0  0  0
  141.8472   82.1579  223.9043 H   0  0  0  0  0  0  0  0  0  0  0  0
  142.1221   79.7070  220.1342 H   0  0  0  0  0  0  0  0  0  0  0  0
  141.3066   77.4037  219.6745 H   0  0  0  0  0  0  0  0  0  0  0  0
  141.2030   74.9480  221.1240 H   0  0  0  0  0  0  0  0  0  0  0  0
  137.4574   74.2894  221.1874 H   0  0  0  0  0  0  0  0  0  0  0  0
  139.0478   73.7012  220.4501 H   0  0  0  0  0  0  0  0  0  0  0  0
  137.8200   72.6450  222.8030 H   0  0  0  0  0  0  0  0  0  0  0  0
  139.1472   70.0635  222.5438 H   0  0  0  0  0  0  0  0  0  0  0  0
  139.2298   68.2712  224.3173 H   0  0  0  0  0  0  0  0  0  0  0  0
  139.8172   67.6915  226.6276 H   0  0  0  0  0  0  0  0  0  0  0  0
  141.4792   70.6300  229.2973 H   0  0  0  0  0  0  0  0  0  0  0  0
  141.3504   72.3288  227.4624 H   0  0  0  0  0  0  0  0  0  0  0  0
  140.8118   76.7858  223.9264 H   0  0  0  0  0  0  0  0  0  0  0  0
  141.6358   79.1066  224.3725 H   0  0  0  0  0  0  0  0  0  0  0  0
  1  2  1  0
  2  3  1  0
  3  4  2  0
  4  5  1  0
  5  6  2  0
  6  7  1  0
  7  8  1  0
  8  9  2  0
  8 10  1  0
 10 11  1  0
 11 12  1  0
 12 13  2  0
 12 14  1  0
 14 15  2  0
 15 16  1  0
 16 17  2  0
 17 18  1  0
 18 19  2  0
 19 20  1  0
 19 21  1  0
 21 22  2  0
 22 23  1  0
 23 24  2  0
  6 25  1  0
 25 26  2  0
 26  3  1  0
 24 14  1  0
 23 17  1  0
  1 27  1  0
  1 28  1  0
  1 29  1  0
  4 30  1  0
  5 31  1  0
  7 32  1  0
 10 33  1  0
 10 34  1  0
 11 35  1  0
 15 36  1  0
 16 37  1  0
 18 38  1  0
 21 39  1  0
 22 40  1  0
 25 41  1  0
 26 42  1  0
M  END
>  <smiles>  (8) 
COc1ccc(NC(=O)CNC(=O)c2ccc3cc(F)ccc3n2)cc1

>  <score_type>  (8) 
oracle

>  <origin>  (8) 
autodockgpu

>  <m_score__min__energy>  (8) 
-8.4100000000000001

>  <m_primary>  (8) 
energy

>  <rmsd>  (8) 
2.6717346288091903

>  <m_score__min__rmsd>  (8) 
2.6717346288091903

>  <meeko>  (8) 
{"free_energy": -7.69, "intermolecular_energy": -9.18, "internal_energy": -1.45, "cluster_size": 36, "cluster_id": 1, "rank_in_cluster": 15}

>  <energy>  (8) 
-8.14

>  <cluster_rmsd>  (8) 
0.5

>  <cluster>  (8) 
1

$$$$

     RDKit          3D

 42 44  0  0  0  0  0  0  0  0999 V2000
  140.0140   67.7890  226.7820 C   0  0  0  0  0  0  0  0  0  0  0  0
  138.8580   68.1600  226.0520 O   0  0  0  0  0  0  0  0  0  0  0  0
  138.9770   69.2300  225.1740 C   0  0  0  0  0  0  0  0  0  0  0  0
  140.0760   70.0640  225.3630 C   0  0  0  0  0  0  0  0  0  0  0  0
  140.2880   71.1530  224.5500 C   0  0  0  0  0  0  0  0  0  0  0  0
  139.3670   71.3950  223.5310 C   0  0  0  0  0  0  0  0  0  0  0  0
  139.6330   72.5370  222.7150 N   0  0  0  0  0  0  0  0  0  0  0  0
  140.6200   72.4240  221.7050 C   0  0  0  0  0  0  0  0  0  0  0  0
  141.2060   71.2970  221.5900 O   0  0  0  0  0  0  0  0  0  0  0  0
  141.0230   73.4880  220.7820 C   0  0  0  0  0  0  0  0  0  0  0  0
  141.1360   74.7970  221.3390 N   0  0  0  0  0  0  0  0  0  0  0  0
  140.0070   75.5810  221.7280 C   0  0  0  0  0  0  0  0  0  0  0  0
  138.8120   75.1430  221.6030 O   0  0  0  0  0  0  0  0  0  0  0  0
  140.2100   76.9330  222.2920 C   0  0  0  0  0  0  0  0  0  0  0  0
  139.1250   77.6530  222.7390 C   0  0  0  0  0  0  0  0  0  0  0  0
  139.3080   78.9330  223.2740 C   0  0  0  0  0  0  0  0  0  0  0  0
  140.6060   79.4190  223.3260 C   0  0  0  0  0  0  0  0  0  0  0  0
  140.8830   80.6760  223.8400 C   0  0  0  0  0  0  0  0  0  0  0  0
  142.1780   81.1630  223.8940 C   0  0  0  0  0  0  0  0  0  0  0  0
  142.4420   82.3850  224.3940 F   0  0  0  0  0  0  0  0  0  0  0  0
  143.2430   80.4130  223.4370 C   0  0  0  0  0  0  0  0  0  0  0  0
  142.9850   79.1500  222.9190 C   0  0  0  0  0  0  0  0  0  0  0  0
  141.6890   78.6800  222.8720 C   0  0  0  0  0  0  0  0  0  0  0  0
  141.4420   77.4710  222.3760 N   0  0  0  0  0  0  0  0  0  0  0  0
  138.2730   70.5740  223.3330 C   0  0  0  0  0  0  0  0  0  0  0  0
  138.0700   69.4760  224.1630 C   0  0  0  0  0  0  0  0  0  0  0  0
  139.8044   67.8563  227.8597 H   0  0  0  0  0  0  0  0  0  0  0  0
  140.2932   66.7561  226.5265 H   0  0  0  0  0  0  0  0  0  0  0  0
  140.8421   68.4665  226.5265 H   0  0  0  0  0  0  0  0  0  0  0  0
  140.7858   69.8485  226.1753 H   0  0  0  0  0  0  0  0  0  0  0  0
  141.1561   71.8120  224.6987 H   0  0  0  0  0  0  0  0  0  0  0  0
  139.1190   73.4140  222.8490 H   0  0  0  0  0  0  0  0  0  0  0  0
  142.0032   73.2157  220.3636 H   0  0  0  0  0  0  0  0  0  0  0  0
  140.2151   73.5537  220.0383 H   0  0  0  0  0  0  0  0  0  0  0  0
  142.0750   75.2660  221.4960 H   0  0  0  0  0  0  0  0  0  0  0  0
  138.1148   77.2223  222.6756 H   0  0  0  0  0  0  0  0  0  0  0  0
  138.4580   79.5288  223.6381 H   0  0  0  0  0  0  0  0  0  0  0  0
  140.0570   81.2996  224.2127 H   0  0  0  0  0  0  0  0  0  0  0  0
  144.2697   80.8054  223.4818 H   0  0  0  0  0  0  0  0  0  0  0  0
  143.8117   78.5267  222.5475 H   0  0  0  0  0  0  0  0  0  0  0  0
  137.5636   70.7884  222.5201 H   0  0  0  0  0  0  0  0  0  0  0  0
  137.2024   68.8159  224.0162 H   0  0  0  0  0  0  0  0  0  0  0  0
  1  2  1  0
  2  3  1  0
  3  4  2  0
  4  5  1  0
  5  6  2  0
  6  7  1  0
  7  8  1  0
  8  9  2  0
  8 10  1  0
 10 11  1  0
 11 12  1  0
 12 13  2  0
 12 14  1  0
 14 15  2  0
 15 16  1  0
 16 17  2  0
 17 18  1  0
 18 19  2  0
 19 20  1  0
 19 21  1  0
 21 22  2  0
 22 23  1  0
 23 24  2  0
  6 25  1  0
 25 26  2  0
 26  3  1  0
 24 14  1  0
 23 17  1  0
  1 27  1  0
  1 28  1  0
  1 29  1  0
  4 30  1  0
  5 31  1  0
  7 32  1  0
 10 33  1  0
 10 34  1  0
 11 35  1  0
 15 36  1  0
 16 37  1  0
 18 38  1  0
 21 39  1  0
 22 40  1  0
 25 41  1  0
 26 42  1  0
M  END
>  <smiles>  (9) 
COc1ccc(NC(=O)CNC(=O)c2ccc3cc(F)ccc3n2)cc1

>  <score_type>  (9) 
oracle

>  <origin>  (9) 
autodockgpu

>  <m_score__min__energy>  (9) 
-8.4100000000000001

>  <m_primary>  (9) 
energy

>  <rmsd>  (9) 
8.884535246393018

>  <m_score__min__rmsd>  (9) 
8.884535246393018

>  <meeko>  (9) 
{"free_energy": -7.29, "intermolecular_energy": -8.78, "internal_energy": -1.86, "cluster_size": 14, "cluster_id": 2, "rank_in_cluster": 14}

>  <energy>  (9) 
-7.71

>  <cluster_rmsd>  (9) 
1.43

>  <cluster>  (9) 
1

$$$$

     RDKit          3D

 42 44  0  0  0  0  0  0  0  0999 V2000
  141.1030   82.6700  221.6200 C   0  0  0  0  0  0  0  0  0  0  0  0
  141.7960   81.9110  222.5940 O   0  0  0  0  0  0  0  0  0  0  0  0
  141.6330   80.5310  222.5620 C   0  0  0  0  0  0  0  0  0  0  0  0
  141.5030   79.9560  221.3010 C   0  0  0  0  0  0  0  0  0  0  0  0
  141.3360   78.5980  221.1540 C   0  0  0  0  0  0  0  0  0  0  0  0
  141.3010   77.8180  222.3100 C   0  0  0  0  0  0  0  0  0  0  0  0
  141.1260   76.4150  222.1050 N   0  0  0  0  0  0  0  0  0  0  0  0
  139.9170   75.9690  221.5150 C   0  0  0  0  0  0  0  0  0  0  0  0
  139.0620   76.8610  221.2000 O   0  0  0  0  0  0  0  0  0  0  0  0
  139.5670   74.5740  221.2350 C   0  0  0  0  0  0  0  0  0  0  0  0
  139.6470   73.6710  222.3370 N   0  0  0  0  0  0  0  0  0  0  0  0
  139.8720   72.2690  222.1830 C   0  0  0  0  0  0  0  0  0  0  0  0
  140.0250   71.7380  221.0300 O   0  0  0  0  0  0  0  0  0  0  0  0
  139.9350   71.3990  223.3780 C   0  0  0  0  0  0  0  0  0  0  0  0
  139.5040   70.0940  223.2910 C   0  0  0  0  0  0  0  0  0  0  0  0
  139.5590   69.2640  224.4170 C   0  0  0  0  0  0  0  0  0  0  0  0
  140.0580   69.8150  225.5870 C   0  0  0  0  0  0  0  0  0  0  0  0
  140.1510   69.0680  226.7500 C   0  0  0  0  0  0  0  0  0  0  0  0
  140.6490   69.6160  227.9200 C   0  0  0  0  0  0  0  0  0  0  0  0
  140.7370   68.8870  229.0480 F   0  0  0  0  0  0  0  0  0  0  0  0
  141.0740   70.9290  227.9710 C   0  0  0  0  0  0  0  0  0  0  0  0
  140.9890   71.6930  226.8140 C   0  0  0  0  0  0  0  0  0  0  0  0
  140.4900   71.1320  225.6570 C   0  0  0  0  0  0  0  0  0  0  0  0
  140.4080   71.8640  224.5490 N   0  0  0  0  0  0  0  0  0  0  0  0
  141.4280   78.3780  223.5670 C   0  0  0  0  0  0  0  0  0  0  0  0
  141.5970   79.7530  223.7010 C   0  0  0  0  0  0  0  0  0  0  0  0
  140.4425   83.3933  222.1205 H   0  0  0  0  0  0  0  0  0  0  0  0
  141.8273   83.2087  220.9914 H   0  0  0  0  0  0  0  0  0  0  0  0
  140.5008   81.9975  220.9914 H   0  0  0  0  0  0  0  0  0  0  0  0
  141.5343   80.5973  220.4078 H   0  0  0  0  0  0  0  0  0  0  0  0
  141.2335   78.1426  220.1580 H   0  0  0  0  0  0  0  0  0  0  0  0
  141.8570   75.7460  222.3700 H   0  0  0  0  0  0  0  0  0  0  0  0
  138.5327   74.5561  220.8608 H   0  0  0  0  0  0  0  0  0  0  0  0
  140.3166   74.2220  220.5110 H   0  0  0  0  0  0  0  0  0  0  0  0
  139.5410   73.9940  223.3420 H   0  0  0  0  0  0  0  0  0  0  0  0
  139.1170   69.7042  222.3379 H   0  0  0  0  0  0  0  0  0  0  0  0
  139.2204   68.2183  224.3751 H   0  0  0  0  0  0  0  0  0  0  0  0
  139.8225   68.0182  226.7438 H   0  0  0  0  0  0  0  0  0  0  0  0
  141.4694   71.3585  228.9033 H   0  0  0  0  0  0  0  0  0  0  0  0
  141.3187   72.7424  226.8205 H   0  0  0  0  0  0  0  0  0  0  0  0
  141.3955   77.7376  224.4608 H   0  0  0  0  0  0  0  0  0  0  0  0
  141.6999   80.2107  224.6959 H   0  0  0  0  0  0  0  0  0  0  0  0
  1  2  1  0
  2  3  1  0
  3  4  2  0
  4  5  1  0
  5  6  2  0
  6  7  1  0
  7  8  1  0
  8  9  2  0
  8 10  1  0
 10 11  1  0
 11 12  1  0
 12 13  2  0
 12 14  1  0
 14 15  2  0
 15 16  1  0
 16 17  2  0
 17 18  1  0
 18 19  2  0
 19 20  1  0
 19 21  1  0
 21 22  2  0
 22 23  1  0
 23 24  2  0
  6 25  1  0
 25 26  2  0
 26  3  1  0
 24 14  1  0
 23 17  1  0
  1 27  1  0
  1 28  1  0
  1 29  1  0
  4 30  1  0
  5 31  1  0
  7 32  1  0
 10 33  1  0
 10 34  1  0
 11 35  1  0
 15 36  1  0
 16 37  1  0
 18 38  1  0
 21 39  1  0
 22 40  1  0
 25 41  1  0
 26 42  1  0
M  END
>  <smiles>  (10) 
COc1ccc(NC(=O)CNC(=O)c2ccc3cc(F)ccc3n2)cc1

>  <score_type>  (10) 
oracle

>  <origin>  (10) 
autodockgpu

>  <m_score__min__energy>  (10) 
-8.4100000000000001

>  <m_primary>  (10) 
energy

>  <rmsd>  (10) 
2.9694783104084954

>  <m_score__min__rmsd>  (10) 
2.9694783104084954

>  <meeko>  (10) 
{"free_energy": -8.14, "intermolecular_energy": -9.63, "internal_energy": -0.93, "cluster_size": 36, "cluster_id": 1, "rank_in_cluster": 8}

>  <energy>  (10) 
-7.7

>  <cluster_rmsd>  (10) 
1.4

>  <cluster>  (10) 
1

$$$$

     RDKit          3D

 42 44  0  0  0  0  0  0  0  0999 V2000
  142.6480   80.8580  223.8220 C   0  0  0  0  0  0  0  0  0  0  0  0
  142.1160   80.7420  222.5150 O   0  0  0  0  0  0  0  0  0  0  0  0
  141.7880   79.4670  222.0720 C   0  0  0  0  0  0  0  0  0  0  0  0
  141.4100   78.5530  223.0510 C   0  0  0  0  0  0  0  0  0  0  0  0
  141.0650   77.2620  222.7220 C   0  0  0  0  0  0  0  0  0  0  0  0
  141.1070   76.9000  221.3760 C   0  0  0  0  0  0  0  0  0  0  0  0
  140.7400   75.5500  221.0860 N   0  0  0  0  0  0  0  0  0  0  0  0
  141.7670   74.6340  220.7480 C   0  0  0  0  0  0  0  0  0  0  0  0
  142.9610   75.0810  220.7330 O   0  0  0  0  0  0  0  0  0  0  0  0
  141.5750   73.2190  220.4200 C   0  0  0  0  0  0  0  0  0  0  0  0
  141.3660   72.3380  221.5220 N   0  0  0  0  0  0  0  0  0  0  0  0
  140.3750   72.5630  222.5250 C   0  0  0  0  0  0  0  0  0  0  0  0
  139.6020   73.5810  222.4870 O   0  0  0  0  0  0  0  0  0  0  0  0
  140.2270   71.6020  223.6410 C   0  0  0  0  0  0  0  0  0  0  0  0
  139.6050   70.3940  223.4190 C   0  0  0  0  0  0  0  0  0  0  0  0
  139.4600   69.4800  224.4690 C   0  0  0  0  0  0  0  0  0  0  0  0
  139.9630   69.8500  225.7060 C   0  0  0  0  0  0  0  0  0  0  0  0
  139.8660   69.0090  226.8030 C   0  0  0  0  0  0  0  0  0  0  0  0
  140.3680   69.3770  228.0400 C   0  0  0  0  0  0  0  0  0  0  0  0
  140.2700   68.5560  229.1030 F   0  0  0  0  0  0  0  0  0  0  0  0
  140.9860   70.5970  228.2260 C   0  0  0  0  0  0  0  0  0  0  0  0
  141.0930   71.4540  227.1390 C   0  0  0  0  0  0  0  0  0  0  0  0
  140.5880   71.0720  225.9130 C   0  0  0  0  0  0  0  0  0  0  0  0
  140.6910   71.8920  224.8710 N   0  0  0  0  0  0  0  0  0  0  0  0
  141.4810   77.7990  220.3940 C   0  0  0  0  0  0  0  0  0  0  0  0
  141.8270   79.1010  220.7410 C   0  0  0  0  0  0  0  0  0  0  0  0
  141.8504   80.6841  224.5593 H   0  0  0  0  0  0  0  0  0  0  0  0
  143.4448   80.1125  223.9611 H   0  0  0  0  0  0  0  0  0  0  0  0
  143.0621   81.8675  223.9611 H   0  0  0  0  0  0  0  0  0  0  0  0
  141.3866   78.8675  224.1048 H   0  0  0  0  0  0  0  0  0  0  0  0
  140.7659   76.5393  223.4955 H   0  0  0  0  0  0  0  0  0  0  0  0
  139.7610   75.2470  221.1260 H   0  0  0  0  0  0  0  0  0  0  0  0
  140.6983   73.1439  219.7598 H   0  0  0  0  0  0  0  0  0  0  0  0
  142.5194   72.8938  219.9593 H   0  0  0  0  0  0  0  0  0  0  0  0
  141.9420   71.4570  221.6590 H   0  0  0  0  0  0  0  0  0  0  0  0
  139.2224   70.1475  222.4176 H   0  0  0  0  0  0  0  0  0  0  0  0
  138.9672   68.5082  224.3185 H   0  0  0  0  0  0  0  0  0  0  0  0
  139.3802   68.0287  226.6888 H   0  0  0  0  0  0  0  0  0  0  0  0
  141.3838   70.8831  229.2108 H   0  0  0  0  0  0  0  0  0  0  0  0
  141.5787   72.4342  227.2547 H   0  0  0  0  0  0  0  0  0  0  0  0
  141.5049   77.4850  219.3400 H   0  0  0  0  0  0  0  0  0  0  0  0
  142.1261   79.8256  219.9694 H   0  0  0  0  0  0  0  0  0  0  0  0
  1  2  1  0
  2  3  1  0
  3  4  2  0
  4  5  1  0
  5  6  2  0
  6  7  1  0
  7  8  1  0
  8  9  2  0
  8 10  1  0
 10 11  1  0
 11 12  1  0
 12 13  2  0
 12 14  1  0
 14 15  2  0
 15 16  1  0
 16 17  2  0
 17 18  1  0
 18 19  2  0
 19 20  1  0
 19 21  1  0
 21 22  2  0
 22 23  1  0
 23 24  2  0
  6 25  1  0
 25 26  2  0
 26  3  1  0
 24 14  1  0
 23 17  1  0
  1 27  1  0
  1 28  1  0
  1 29  1  0
  4 30  1  0
  5 31  1  0
  7 32  1  0
 10 33  1  0
 10 34  1  0
 11 35  1  0
 15 36  1  0
 16 37  1  0
 18 38  1  0
 21 39  1  0
 22 40  1  0
 25 41  1  0
 26 42  1  0
M  END
>  <smiles>  (11) 
COc1ccc(NC(=O)CNC(=O)c2ccc3cc(F)ccc3n2)cc1

>  <score_type>  (11) 
oracle

>  <origin>  (11) 
autodockgpu

>  <m_score__min__energy>  (11) 
-8.4100000000000001

>  <m_primary>  (11) 
energy

>  <rmsd>  (11) 
3.3894267833452063

>  <m_score__min__rmsd>  (11) 
3.3894267833452063

>  <meeko>  (11) 
{"free_energy": -7.61, "intermolecular_energy": -9.1, "internal_energy": -1.49, "cluster_size": 36, "cluster_id": 1, "rank_in_cluster": 28}

>  <energy>  (11) 
-7.7

>  <cluster_rmsd>  (11) 
1.42

>  <cluster>  (11) 
1

$$$$

     RDKit          3D

 42 44  0  0  0  0  0  0  0  0999 V2000
  142.2180   80.7110  223.3560 C   0  0  0  0  0  0  0  0  0  0  0  0
  140.9300   80.5680  222.7850 O   0  0  0  0  0  0  0  0  0  0  0  0
  140.4170   79.2800  222.6850 C   0  0  0  0  0  0  0  0  0  0  0  0
  141.3430   78.2640  222.4660 C   0  0  0  0  0  0  0  0  0  0  0  0
  140.9420   76.9520  222.3510 C   0  0  0  0  0  0  0  0  0  0  0  0
  139.5800   76.6750  222.4620 C   0  0  0  0  0  0  0  0  0  0  0  0
  139.2150   75.3000  222.3370 N   0  0  0  0  0  0  0  0  0  0  0  0
  138.8940   74.8060  221.0480 C   0  0  0  0  0  0  0  0  0  0  0  0
  138.9590   75.6320  220.0780 O   0  0  0  0  0  0  0  0  0  0  0  0
  138.4970   73.4310  220.7350 C   0  0  0  0  0  0  0  0  0  0  0  0
  138.5890   72.4890  221.8030 N   0  0  0  0  0  0  0  0  0  0  0  0
  139.7130   72.4100  222.6800 C   0  0  0  0  0  0  0  0  0  0  0  0
  140.7130   73.1970  222.5590 O   0  0  0  0  0  0  0  0  0  0  0  0
  139.7330   71.3990  223.7600 C   0  0  0  0  0  0  0  0  0  0  0  0
  139.1310   70.1770  223.5580 C   0  0  0  0  0  0  0  0  0  0  0  0
  139.1450   69.2150  224.5740 C   0  0  0  0  0  0  0  0  0  0  0  0
  139.7800   69.5540  225.7600 C   0  0  0  0  0  0  0  0  0  0  0  0
  139.8440   68.6650  226.8200 C   0  0  0  0  0  0  0  0  0  0  0  0
  140.4780   69.0010  228.0040 C   0  0  0  0  0  0  0  0  0  0  0  0
  140.5370   68.1330  229.0330 F   0  0  0  0  0  0  0  0  0  0  0  0
  141.0720   70.2360  228.1720 C   0  0  0  0  0  0  0  0  0  0  0  0
  141.0180   71.1400  227.1200 C   0  0  0  0  0  0  0  0  0  0  0  0
  140.3820   70.7900  225.9470 C   0  0  0  0  0  0  0  0  0  0  0  0
  140.3310   71.6560  224.9380 N   0  0  0  0  0  0  0  0  0  0  0  0
  138.6520   77.6760  222.6810 C   0  0  0  0  0  0  0  0  0  0  0  0
  139.0700   78.9980  222.7940 C   0  0  0  0  0  0  0  0  0  0  0  0
  142.1359   80.7019  224.4529 H   0  0  0  0  0  0  0  0  0  0  0  0
  142.8584   79.8784  223.0293 H   0  0  0  0  0  0  0  0  0  0  0  0
  142.6602   81.6638  223.0293 H   0  0  0  0  0  0  0  0  0  0  0  0
  142.4112   78.5132  222.3836 H   0  0  0  0  0  0  0  0  0  0  0  0
  141.6725   76.1482  222.1771 H   0  0  0  0  0  0  0  0  0  0  0  0
  139.1910   74.6810  223.1550 H   0  0  0  0  0  0  0  0  0  0  0  0
  137.4507   73.4529  220.3963 H   0  0  0  0  0  0  0  0  0  0  0  0
  139.2125   73.0843  219.9749 H   0  0  0  0  0  0  0  0  0  0  0  0
  137.8190   71.7880  222.0060 H   0  0  0  0  0  0  0  0  0  0  0  0
  138.6395   69.9574  222.5987 H   0  0  0  0  0  0  0  0  0  0  0  0
  138.6723   68.2311  224.4381 H   0  0  0  0  0  0  0  0  0  0  0  0
  139.3818   67.6719  226.7192 H   0  0  0  0  0  0  0  0  0  0  0  0
  141.5749   70.4968  229.1149 H   0  0  0  0  0  0  0  0  0  0  0  0
  141.4810   72.1326  227.2214 H   0  0  0  0  0  0  0  0  0  0  0  0
  137.5838   77.4273  222.7658 H   0  0  0  0  0  0  0  0  0  0  0  0
  138.3410   79.8034  222.9670 H   0  0  0  0  0  0  0  0  0  0  0  0
  1  2  1  0
  2  3  1  0
  3  4  2  0
  4  5  1  0
  5  6  2  0
  6  7  1  0
  7  8  1  0
  8  9  2  0
  8 10  1  0
 10 11  1  0
 11 12  1  0
 12 13  2  0
 12 14  1  0
 14 15  2  0
 15 16  1  0
 16 17  2  0
 17 18  1  0
 18 19  2  0
 19 20  1  0
 19 21  1  0
 21 22  2  0
 22 23  1  0
 23 24  2  0
  6 25  1  0
 25 26  2  0
 26  3  1  0
 24 14  1  0
 23 17  1  0
  1 27  1  0
  1 28  1  0
  1 29  1  0
  4 30  1  0
  5 31  1  0
  7 32  1  0
 10 33  1  0
 10 34  1  0
 11 35  1  0
 15 36  1  0
 16 37  1  0
 18 38  1  0
 21 39  1  0
 22 40  1  0
 25 41  1  0
 26 42  1  0
M  END
>  <smiles>  (12) 
COc1ccc(NC(=O)CNC(=O)c2ccc3cc(F)ccc3n2)cc1

>  <score_type>  (12) 
oracle

>  <origin>  (12) 
autodockgpu

>  <m_score__min__energy>  (12) 
-8.4100000000000001

>  <m_primary>  (12) 
energy

>  <rmsd>  (12) 
2.98176612678414

>  <m_score__min__rmsd>  (12) 
2.98176612678414

>  <meeko>  (12) 
{"free_energy": -7.69, "intermolecular_energy": -9.18, "internal_energy": -1.37, "cluster_size": 36, "cluster_id": 1, "rank_in_cluster": 18}

>  <energy>  (12) 
-7.7

>  <cluster_rmsd>  (12) 
1.4

>  <cluster>  (12) 
1

$$$$

     RDKit          3D

 42 44  0  0  0  0  0  0  0  0999 V2000
  140.7140   68.4150  227.5410 C   0  0  0  0  0  0  0  0  0  0  0  0
  139.7540   68.3300  226.5030 O   0  0  0  0  0  0  0  0  0  0  0  0
  139.7210   69.3680  225.5800 C   0  0  0  0  0  0  0  0  0  0  0  0
  140.6340   70.3990  225.7800 C   0  0  0  0  0  0  0  0  0  0  0  0
  140.6860   71.4760  224.9250 C   0  0  0  0  0  0  0  0  0  0  0  0
  139.7950   71.5000  223.8530 C   0  0  0  0  0  0  0  0  0  0  0  0
  139.8890   72.6380  222.9940 N   0  0  0  0  0  0  0  0  0  0  0  0
  140.7060   72.5410  221.8400 C   0  0  0  0  0  0  0  0  0  0  0  0
  141.3020   71.4320  221.6430 O   0  0  0  0  0  0  0  0  0  0  0  0
  140.9210   73.6050  220.8560 C   0  0  0  0  0  0  0  0  0  0  0  0
  141.0660   74.9260  221.3750 N   0  0  0  0  0  0  0  0  0  0  0  0
  139.9800   75.6750  221.9200 C   0  0  0  0  0  0  0  0  0  0  0  0
  138.7970   75.1930  221.9800 O   0  0  0  0  0  0  0  0  0  0  0  0
  140.2140   77.0430  222.4320 C   0  0  0  0  0  0  0  0  0  0  0  0
  139.1490   77.7940  222.8760 C   0  0  0  0  0  0  0  0  0  0  0  0
  139.3610   79.0890  223.3620 C   0  0  0  0  0  0  0  0  0  0  0  0
  140.6670   79.5570  223.3700 C   0  0  0  0  0  0  0  0  0  0  0  0
  140.9720   80.8260  223.8340 C   0  0  0  0  0  0  0  0  0  0  0  0
  142.2740   81.2960  223.8440 C   0  0  0  0  0  0  0  0  0  0  0  0
  142.5660   82.5300  224.2950 F   0  0  0  0  0  0  0  0  0  0  0  0
  143.3190   80.5150  223.3920 C   0  0  0  0  0  0  0  0  0  0  0  0
  143.0330   79.2390  222.9230 C   0  0  0  0  0  0  0  0  0  0  0  0
  141.7290   78.7870  222.9200 C   0  0  0  0  0  0  0  0  0  0  0  0
  141.4540   77.5650  222.4720 N   0  0  0  0  0  0  0  0  0  0  0  0
  138.8840   70.4810  223.6440 C   0  0  0  0  0  0  0  0  0  0  0  0
  138.8420   69.3990  224.5160 C   0  0  0  0  0  0  0  0  0  0  0  0
  140.2055   68.3700  228.5154 H   0  0  0  0  0  0  0  0  0  0  0  0
  141.4203   67.5759  227.4569 H   0  0  0  0  0  0  0  0  0  0  0  0
  141.2618   69.3652  227.4569 H   0  0  0  0  0  0  0  0  0  0  0  0
  141.3248   70.3523  226.6348 H   0  0  0  0  0  0  0  0  0  0  0  0
  141.4072   72.2915  225.0823 H   0  0  0  0  0  0  0  0  0  0  0  0
  139.3750   73.5020  223.2010 H   0  0  0  0  0  0  0  0  0  0  0  0
  141.8358   73.3630  220.2952 H   0  0  0  0  0  0  0  0  0  0  0  0
  140.0066   73.6286  220.2450 H   0  0  0  0  0  0  0  0  0  0  0  0
  142.0000   75.4300  221.3840 H   0  0  0  0  0  0  0  0  0  0  0  0
  138.1318   77.3762  222.8487 H   0  0  0  0  0  0  0  0  0  0  0  0
  138.5274   79.7096  223.7224 H   0  0  0  0  0  0  0  0  0  0  0  0
  140.1628   81.4737  224.2022 H   0  0  0  0  0  0  0  0  0  0  0  0
  144.3518   80.8935  223.4030 H   0  0  0  0  0  0  0  0  0  0  0  0
  143.8427   78.5914  222.5555 H   0  0  0  0  0  0  0  0  0  0  0  0
  138.1935   70.5264  222.7890 H   0  0  0  0  0  0  0  0  0  0  0  0
  138.1214   68.5825  224.3609 H   0  0  0  0  0  0  0  0  0  0  0  0
  1  2  1  0
  2  3  1  0
  3  4  2  0
  4  5  1  0
  5  6  2  0
  6  7  1  0
  7  8  1  0
  8  9  2  0
  8 10  1  0
 10 11  1  0
 11 12  1  0
 12 13  2  0
 12 14  1  0
 14 15  2  0
 15 16  1  0
 16 17  2  0
 17 18  1  0
 18 19  2  0
 19 20  1  0
 19 21  1  0
 21 22  2  0
 22 23  1  0
 23 24  2  0
  6 25  1  0
 25 26  2  0
 26  3  1  0
 24 14  1  0
 23 17  1  0
  1 27  1  0
  1 28  1  0
  1 29  1  0
  4 30  1  0
  5 31  1  0
  7 32  1  0
 10 33  1  0
 10 34  1  0
 11 35  1  0
 15 36  1  0
 16 37  1  0
 18 38  1  0
 21 39  1  0
 22 40  1  0
 25 41  1  0
 26 42  1  0
M  END
>  <smiles>  (13) 
COc1ccc(NC(=O)CNC(=O)c2ccc3cc(F)ccc3n2)cc1

>  <score_type>  (13) 
oracle

>  <origin>  (13) 
autodockgpu

>  <m_score__min__energy>  (13) 
-8.4100000000000001

>  <m_primary>  (13) 
energy

>  <rmsd>  (13) 
8.981471656222705

>  <m_score__min__rmsd>  (13) 
8.981471656222705

>  <meeko>  (13) 
{"free_energy": -7.34, "intermolecular_energy": -8.83, "internal_energy": -1.86, "cluster_size": 14, "cluster_id": 2, "rank_in_cluster": 12}

>  <energy>  (13) 
-7.69

>  <cluster_rmsd>  (13) 
1.46

>  <cluster>  (13) 
1

$$$$

     RDKit          3D

 42 44  0  0  0  0  0  0  0  0999 V2000
  142.3640   80.8900  223.4860 C   0  0  0  0  0  0  0  0  0  0  0  0
  141.0210   80.7690  223.0520 O   0  0  0  0  0  0  0  0  0  0  0  0
  140.5170   79.4830  222.8960 C   0  0  0  0  0  0  0  0  0  0  0  0
  141.4560   78.4650  222.7610 C   0  0  0  0  0  0  0  0  0  0  0  0
  141.0640   77.1550  222.6010 C   0  0  0  0  0  0  0  0  0  0  0  0
  139.6970   76.8830  222.5770 C   0  0  0  0  0  0  0  0  0  0  0  0
  139.3420   75.5090  222.4080 N   0  0  0  0  0  0  0  0  0  0  0  0
  138.7910   75.1070  221.1660 C   0  0  0  0  0  0  0  0  0  0  0  0
  138.6550   76.0070  220.2730 O   0  0  0  0  0  0  0  0  0  0  0  0
  138.3690   73.7470  220.8200 C   0  0  0  0  0  0  0  0  0  0  0  0
  138.4980   72.7660  221.8480 N   0  0  0  0  0  0  0  0  0  0  0  0
  139.7070   72.5520  222.5770 C   0  0  0  0  0  0  0  0  0  0  0  0
  140.7570   73.2450  222.3500 O   0  0  0  0  0  0  0  0  0  0  0  0
  139.7590   71.5080  223.6240 C   0  0  0  0  0  0  0  0  0  0  0  0
  139.2280   70.2630  223.3700 C   0  0  0  0  0  0  0  0  0  0  0  0
  139.2730   69.2710  224.3550 C   0  0  0  0  0  0  0  0  0  0  0  0
  139.8650   69.6030  225.5650 C   0  0  0  0  0  0  0  0  0  0  0  0
  139.9550   68.6840  226.5970 C   0  0  0  0  0  0  0  0  0  0  0  0
  140.5460   69.0130  227.8050 C   0  0  0  0  0  0  0  0  0  0  0  0
  140.6310   68.1170  228.8060 F   0  0  0  0  0  0  0  0  0  0  0  0
  141.0690   70.2720  228.0260 C   0  0  0  0  0  0  0  0  0  0  0  0
  140.9880   71.2070  227.0020 C   0  0  0  0  0  0  0  0  0  0  0  0
  140.3960   70.8630  225.8040 C   0  0  0  0  0  0  0  0  0  0  0  0
  140.3190   71.7570  224.8230 N   0  0  0  0  0  0  0  0  0  0  0  0
  138.7550   77.8860  222.7100 C   0  0  0  0  0  0  0  0  0  0  0  0
  139.1650   79.2060  222.8710 C   0  0  0  0  0  0  0  0  0  0  0  0
  142.3952   80.8928  224.5855 H   0  0  0  0  0  0  0  0  0  0  0  0
  142.9504   80.0411  223.1047 H   0  0  0  0  0  0  0  0  0  0  0  0
  142.7893   81.8301  223.1047 H   0  0  0  0  0  0  0  0  0  0  0  0
  142.5280   78.7107  222.7825 H   0  0  0  0  0  0  0  0  0  0  0  0
  141.8053   76.3492  222.4955 H   0  0  0  0  0  0  0  0  0  0  0  0
  139.4860   74.8290  223.1620 H   0  0  0  0  0  0  0  0  0  0  0  0
  137.3095   73.7888  220.5272 H   0  0  0  0  0  0  0  0  0  0  0  0
  139.0485   73.4234  220.0178 H   0  0  0  0  0  0  0  0  0  0  0  0
  137.6940   72.1330  222.1300 H   0  0  0  0  0  0  0  0  0  0  0  0
  138.7690   70.0489  222.3935 H   0  0  0  0  0  0  0  0  0  0  0  0
  138.8561   68.2687  224.1776 H   0  0  0  0  0  0  0  0  0  0  0  0
  139.5486   67.6719  226.4540 H   0  0  0  0  0  0  0  0  0  0  0  0
  141.5375   70.5276  228.9879 H   0  0  0  0  0  0  0  0  0  0  0  0
  141.3947   72.2189  227.1457 H   0  0  0  0  0  0  0  0  0  0  0  0
  137.6829   77.6410  222.6886 H   0  0  0  0  0  0  0  0  0  0  0  0
  138.4255   80.0135  222.9764 H   0  0  0  0  0  0  0  0  0  0  0  0
  1  2  1  0
  2  3  1  0
  3  4  2  0
  4  5  1  0
  5  6  2  0
  6  7  1  0
  7  8  1  0
  8  9  2  0
  8 10  1  0
 10 11  1  0
 11 12  1  0
 12 13  2  0
 12 14  1  0
 14 15  2  0
 15 16  1  0
 16 17  2  0
 17 18  1  0
 18 19  2  0
 19 20  1  0
 19 21  1  0
 21 22  2  0
 22 23  1  0
 23 24  2  0
  6 25  1  0
 25 26  2  0
 26  3  1  0
 24 14  1  0
 23 17  1  0
  1 27  1  0
  1 28  1  0
  1 29  1  0
  4 30  1  0
  5 31  1  0
  7 32  1  0
 10 33  1  0
 10 34  1  0
 11 35  1  0
 15 36  1  0
 16 37  1  0
 18 38  1  0
 21 39  1  0
 22 40  1  0
 25 41  1  0
 26 42  1  0
M  END
>  <smiles>  (14) 
COc1ccc(NC(=O)CNC(=O)c2ccc3cc(F)ccc3n2)cc1

>  <score_type>  (14) 
oracle

>  <origin>  (14) 
autodockgpu

>  <m_score__min__energy>  (14) 
-8.4100000000000001

>  <m_primary>  (14) 
energy

>  <rmsd>  (14) 
3.1002588189997766

>  <m_score__min__rmsd>  (14) 
3.1002588189997766

>  <meeko>  (14) 
{"free_energy": -7.7, "intermolecular_energy": -9.19, "internal_energy": -1.44, "cluster_size": 36, "cluster_id": 1, "rank_in_cluster": 10}

>  <energy>  (14) 
-7.69

>  <cluster_rmsd>  (14) 
1.4

>  <cluster>  (14) 
1

$$$$

     RDKit          3D

 42 44  0  0  0  0  0  0  0  0999 V2000
  139.8690   67.6260  226.8300 C   0  0  0  0  0  0  0  0  0  0  0  0
  139.0040   67.9700  225.7620 O   0  0  0  0  0  0  0  0  0  0  0  0
  139.2740   69.1500  225.0790 C   0  0  0  0  0  0  0  0  0  0  0  0
  138.5290   69.3780  223.9260 C   0  0  0  0  0  0  0  0  0  0  0  0
  138.7170   70.5150  223.1730 C   0  0  0  0  0  0  0  0  0  0  0  0
  139.6770   71.4300  223.6040 C   0  0  0  0  0  0  0  0  0  0  0  0
  139.8340   72.5930  222.7900 N   0  0  0  0  0  0  0  0  0  0  0  0
  140.6180   72.4870  221.6140 C   0  0  0  0  0  0  0  0  0  0  0  0
  141.1300   71.3480  221.3590 O   0  0  0  0  0  0  0  0  0  0  0  0
  140.8870   73.5730  220.6680 C   0  0  0  0  0  0  0  0  0  0  0  0
  141.0260   74.8780  221.2280 N   0  0  0  0  0  0  0  0  0  0  0  0
  139.9310   75.6150  221.7720 C   0  0  0  0  0  0  0  0  0  0  0  0
  138.7460   75.1350  221.7950 O   0  0  0  0  0  0  0  0  0  0  0  0
  140.1580   76.9670  222.3280 C   0  0  0  0  0  0  0  0  0  0  0  0
  139.0910   77.6940  222.8070 C   0  0  0  0  0  0  0  0  0  0  0  0
  139.2970   78.9730  223.3340 C   0  0  0  0  0  0  0  0  0  0  0  0
  140.5990   79.4520  223.3460 C   0  0  0  0  0  0  0  0  0  0  0  0
  140.8980   80.7080  223.8500 C   0  0  0  0  0  0  0  0  0  0  0  0
  142.1960   81.1880  223.8640 C   0  0  0  0  0  0  0  0  0  0  0  0
  142.4820   82.4090  224.3540 F   0  0  0  0  0  0  0  0  0  0  0  0
  143.2430   80.4310  223.3760 C   0  0  0  0  0  0  0  0  0  0  0  0
  142.9630   79.1700  222.8670 C   0  0  0  0  0  0  0  0  0  0  0  0
  141.6640   78.7060  222.8610 C   0  0  0  0  0  0  0  0  0  0  0  0
  141.3940   77.4980  222.3740 N   0  0  0  0  0  0  0  0  0  0  0  0
  140.4230   71.2140  224.7480 C   0  0  0  0  0  0  0  0  0  0  0  0
  140.2230   70.0600  225.4990 C   0  0  0  0  0  0  0  0  0  0  0  0
  139.3664   67.8259  227.7878 H   0  0  0  0  0  0  0  0  0  0  0  0
  140.1242   66.5579  226.7657 H   0  0  0  0  0  0  0  0  0  0  0  0
  140.7880   68.2271  226.7657 H   0  0  0  0  0  0  0  0  0  0  0  0
  137.7782   68.6382  223.6114 H   0  0  0  0  0  0  0  0  0  0  0  0
  138.1291   70.6959  222.2611 H   0  0  0  0  0  0  0  0  0  0  0  0
  139.3860   73.4810  223.0430 H   0  0  0  0  0  0  0  0  0  0  0  0
  141.8215   73.3336  220.1395 H   0  0  0  0  0  0  0  0  0  0  0  0
  139.9997   73.6245  220.0198 H   0  0  0  0  0  0  0  0  0  0  0  0
  141.9600   75.3790  221.2700 H   0  0  0  0  0  0  0  0  0  0  0  0
  138.0770   77.2689  222.7751 H   0  0  0  0  0  0  0  0  0  0  0  0
  138.4617   79.5740  223.7227 H   0  0  0  0  0  0  0  0  0  0  0  0
  140.0870   81.3362  224.2470 H   0  0  0  0  0  0  0  0  0  0  0  0
  144.2728   80.8174  223.3903 H   0  0  0  0  0  0  0  0  0  0  0  0
  143.7746   78.5428  222.4697 H   0  0  0  0  0  0  0  0  0  0  0  0
  141.1736   71.9535  225.0639 H   0  0  0  0  0  0  0  0  0  0  0  0
  140.8104   69.8762  226.4107 H   0  0  0  0  0  0  0  0  0  0  0  0
  1  2  1  0
  2  3  1  0
  3  4  2  0
  4  5  1  0
  5  6  2  0
  6  7  1  0
  7  8  1  0
  8  9  2  0
  8 10  1  0
 10 11  1  0
 11 12  1  0
 12 13  2  0
 12 14  1  0
 14 15  2  0
 15 16  1  0
 16 17  2  0
 17 18  1  0
 18 19  2  0
 19 20  1  0
 19 21  1  0
 21 22  2  0
 22 23  1  0
 23 24  2  0
  6 25  1  0
 25 26  2  0
 26  3  1  0
 24 14  1  0
 23 17  1  0
  1 27  1  0
  1 28  1  0
  1 29  1  0
  4 30  1  0
  5 31  1  0
  7 32  1  0
 10 33  1  0
 10 34  1  0
 11 35  1  0
 15 36  1  0
 16 37  1  0
 18 38  1  0
 21 39  1  0
 22 40  1  0
 25 41  1  0
 26 42  1  0
M  END
>  <smiles>  (15) 
COc1ccc(NC(=O)CNC(=O)c2ccc3cc(F)ccc3n2)cc1

>  <score_type>  (15) 
oracle

>  <origin>  (15) 
autodockgpu

>  <m_score__min__energy>  (15) 
-8.4100000000000001

>  <m_primary>  (15) 
energy

>  <rmsd>  (15) 
8.809657671169823

>  <m_score__min__rmsd>  (15) 
8.809657671169823

>  <meeko>  (15) 
{"free_energy": -7.45, "intermolecular_energy": -8.94, "internal_energy": -1.85, "cluster_size": 14, "cluster_id": 2, "rank_in_cluster": 2}

>  <energy>  (15) 
-7.69

>  <cluster_rmsd>  (15) 
1.0

>  <cluster>  (15) 
1

$$$$

     RDKit          3D

 42 44  0  0  0  0  0  0  0  0999 V2000
  142.2430   80.6980  223.3950 C   0  0  0  0  0  0  0  0  0  0  0  0
  140.9710   80.5600  222.7880 O   0  0  0  0  0  0  0  0  0  0  0  0
  140.4500   79.2750  222.6870 C   0  0  0  0  0  0  0  0  0  0  0  0
  141.3710   78.2520  222.4820 C   0  0  0  0  0  0  0  0  0  0  0  0
  140.9620   76.9420  222.3670 C   0  0  0  0  0  0  0  0  0  0  0  0
  139.5970   76.6760  222.4640 C   0  0  0  0  0  0  0  0  0  0  0  0
  139.2240   75.3020  222.3390 N   0  0  0  0  0  0  0  0  0  0  0  0
  138.8930   74.8120  221.0510 C   0  0  0  0  0  0  0  0  0  0  0  0
  138.9560   75.6380  220.0820 O   0  0  0  0  0  0  0  0  0  0  0  0
  138.4860   73.4400  220.7390 C   0  0  0  0  0  0  0  0  0  0  0  0
  138.5850   72.4950  221.8030 N   0  0  0  0  0  0  0  0  0  0  0  0
  139.7160   72.4110  222.6710 C   0  0  0  0  0  0  0  0  0  0  0  0
  140.7180   73.1950  222.5440 O   0  0  0  0  0  0  0  0  0  0  0  0
  139.7430   71.3960  223.7480 C   0  0  0  0  0  0  0  0  0  0  0  0
  139.1660   70.1650  223.5370 C   0  0  0  0  0  0  0  0  0  0  0  0
  139.1860   69.2000  224.5500 C   0  0  0  0  0  0  0  0  0  0  0  0
  139.8040   69.5460  225.7430 C   0  0  0  0  0  0  0  0  0  0  0  0
  139.8730   68.6550  226.8010 C   0  0  0  0  0  0  0  0  0  0  0  0
  140.4890   68.9980  227.9920 C   0  0  0  0  0  0  0  0  0  0  0  0
  140.5530   68.1280  229.0190 F   0  0  0  0  0  0  0  0  0  0  0  0
  141.0590   70.2430  228.1700 C   0  0  0  0  0  0  0  0  0  0  0  0
  141.0000   71.1490  227.1200 C   0  0  0  0  0  0  0  0  0  0  0  0
  140.3820   70.7920  225.9390 C   0  0  0  0  0  0  0  0  0  0  0  0
  140.3250   71.6600  224.9330 N   0  0  0  0  0  0  0  0  0  0  0  0
  138.6740   77.6840  222.6680 C   0  0  0  0  0  0  0  0  0  0  0  0
  139.1000   79.0030  222.7820 C   0  0  0  0  0  0  0  0  0  0  0  0
  142.1304   80.6858  224.4892 H   0  0  0  0  0  0  0  0  0  0  0  0
  142.8902   79.8648  223.0837 H   0  0  0  0  0  0  0  0  0  0  0  0
  142.6964   81.6506  223.0837 H   0  0  0  0  0  0  0  0  0  0  0  0
  142.4418   78.4934  222.4107 H   0  0  0  0  0  0  0  0  0  0  0  0
  141.6884   76.1322  222.2040 H   0  0  0  0  0  0  0  0  0  0  0  0
  139.2020   74.6830  223.1570 H   0  0  0  0  0  0  0  0  0  0  0  0
  137.4361   73.4678  220.4118 H   0  0  0  0  0  0  0  0  0  0  0  0
  139.1916   73.0919  219.9703 H   0  0  0  0  0  0  0  0  0  0  0  0
  137.8160   71.7940  222.0110 H   0  0  0  0  0  0  0  0  0  0  0  0
  138.6889   69.9394  222.5719 H   0  0  0  0  0  0  0  0  0  0  0  0
  138.7310   68.2089  224.4066 H   0  0  0  0  0  0  0  0  0  0  0  0
  139.4292   67.6544  226.6926 H   0  0  0  0  0  0  0  0  0  0  0  0
  141.5471   70.5099  229.1190 H   0  0  0  0  0  0  0  0  0  0  0  0
  141.4448   72.1491  227.2291 H   0  0  0  0  0  0  0  0  0  0  0  0
  137.6031   77.4433  222.7402 H   0  0  0  0  0  0  0  0  0  0  0  0
  138.3750   79.8141  222.9448 H   0  0  0  0  0  0  0  0  0  0  0  0
  1  2  1  0
  2  3  1  0
  3  4  2  0
  4  5  1  0
  5  6  2  0
  6  7  1  0
  7  8  1  0
  8  9  2  0
  8 10  1  0
 10 11  1  0
 11 12  1  0
 12 13  2  0
 12 14  1  0
 14 15  2  0
 15 16  1  0
 16 17  2  0
 17 18  1  0
 18 19  2  0
 19 20  1  0
 19 21  1  0
 21 22  2  0
 22 23  1  0
 23 24  2  0
  6 25  1  0
 25 26  2  0
 26  3  1  0
 24 14  1  0
 23 17  1  0
  1 27  1  0
  1 28  1  0
  1 29  1  0
  4 30  1  0
  5 31  1  0
  7 32  1  0
 10 33  1  0
 10 34  1  0
 11 35  1  0
 15 36  1  0
 16 37  1  0
 18 38  1  0
 21 39  1  0
 22 40  1  0
 25 41  1  0
 26 42  1  0
M  END
>  <smiles>  (16) 
COc1ccc(NC(=O)CNC(=O)c2ccc3cc(F)ccc3n2)cc1

>  <score_type>  (16) 
oracle

>  <origin>  (16) 
autodockgpu

>  <m_score__min__energy>  (16) 
-8.4100000000000001

>  <m_primary>  (16) 
energy

>  <rmsd>  (16) 
2.9828139273205476

>  <m_score__min__rmsd>  (16) 
2.9828139273205476

>  <meeko>  (16) 
{"free_energy": -7.69, "intermolecular_energy": -9.19, "internal_energy": -1.37, "cluster_size": 36, "cluster_id": 1, "rank_in_cluster": 13}

>  <energy>  (16) 
-7.69

>  <cluster_rmsd>  (16) 
1.43

>  <cluster>  (16) 
1

$$$$

     RDKit          3D

 42 44  0  0  0  0  0  0  0  0999 V2000
  142.2060   81.5300  223.6470 C   0  0  0  0  0  0  0  0  0  0  0  0
  142.3890   80.8940  222.3940 O   0  0  0  0  0  0  0  0  0  0  0  0
  141.9380   79.5860  222.2720 C   0  0  0  0  0  0  0  0  0  0  0  0
  141.8190   79.0930  220.9760 C   0  0  0  0  0  0  0  0  0  0  0  0
  141.3810   77.8100  220.7420 C   0  0  0  0  0  0  0  0  0  0  0  0
  141.0590   77.0200  221.8450 C   0  0  0  0  0  0  0  0  0  0  0  0
  140.6100   75.6970  221.5500 N   0  0  0  0  0  0  0  0  0  0  0  0
  139.2160   75.4410  221.5760 C   0  0  0  0  0  0  0  0  0  0  0  0
  138.4520   76.4210  221.8590 O   0  0  0  0  0  0  0  0  0  0  0  0
  138.5810   74.1490  221.3040 C   0  0  0  0  0  0  0  0  0  0  0  0
  138.6960   73.1610  222.3270 N   0  0  0  0  0  0  0  0  0  0  0  0
  139.9470   72.6170  222.7510 C   0  0  0  0  0  0  0  0  0  0  0  0
  141.0520   72.9960  222.2320 O   0  0  0  0  0  0  0  0  0  0  0  0
  139.9790   71.5890  223.8150 C   0  0  0  0  0  0  0  0  0  0  0  0
  139.5170   70.3200  223.5490 C   0  0  0  0  0  0  0  0  0  0  0  0
  139.5440   69.3430  224.5490 C   0  0  0  0  0  0  0  0  0  0  0  0
  140.0470   69.7150  225.7870 C   0  0  0  0  0  0  0  0  0  0  0  0
  140.1130   68.8140  226.8370 C   0  0  0  0  0  0  0  0  0  0  0  0
  140.6150   69.1840  228.0730 C   0  0  0  0  0  0  0  0  0  0  0  0
  140.6760   68.3040  229.0910 F   0  0  0  0  0  0  0  0  0  0  0  0
  141.0710   70.4660  228.3050 C   0  0  0  0  0  0  0  0  0  0  0  0
  141.0130   71.3830  227.2640 C   0  0  0  0  0  0  0  0  0  0  0  0
  140.5090   70.9990  226.0390 C   0  0  0  0  0  0  0  0  0  0  0  0
  140.4540   71.8770  225.0410 N   0  0  0  0  0  0  0  0  0  0  0  0
  141.1730   77.4980  223.1380 C   0  0  0  0  0  0  0  0  0  0  0  0
  141.6180   78.7980  223.3600 C   0  0  0  0  0  0  0  0  0  0  0  0
  142.4122   80.8133  224.4556 H   0  0  0  0  0  0  0  0  0  0  0  0
  142.8950   82.3836  223.7290 H   0  0  0  0  0  0  0  0  0  0  0  0
  141.1687   81.8868  223.7290 H   0  0  0  0  0  0  0  0  0  0  0  0
  142.0793   79.7396  220.1250 H   0  0  0  0  0  0  0  0  0  0  0  0
  141.2878   77.4199  219.7177 H   0  0  0  0  0  0  0  0  0  0  0  0
  141.2750   74.9510  221.3180 H   0  0  0  0  0  0  0  0  0  0  0  0
  137.5098   74.3313  221.1329 H   0  0  0  0  0  0  0  0  0  0  0  0
  139.1154   73.7362  220.4357 H   0  0  0  0  0  0  0  0  0  0  0  0
  137.8500   72.7710  222.8350 H   0  0  0  0  0  0  0  0  0  0  0  0
  139.1267   70.0746  222.5503 H   0  0  0  0  0  0  0  0  0  0  0  0
  139.1813   68.3216  224.3616 H   0  0  0  0  0  0  0  0  0  0  0  0
  139.7593   67.7835  226.6857 H   0  0  0  0  0  0  0  0  0  0  0  0
  141.4699   70.7537  229.2889 H   0  0  0  0  0  0  0  0  0  0  0  0
  141.3681   72.4130  227.4159 H   0  0  0  0  0  0  0  0  0  0  0  0
  140.9124   76.8519  223.9893 H   0  0  0  0  0  0  0  0  0  0  0  0
  141.7130   79.1905  224.3832 H   0  0  0  0  0  0  0  0  0  0  0  0
  1  2  1  0
  2  3  1  0
  3  4  2  0
  4  5  1  0
  5  6  2  0
  6  7  1  0
  7  8  1  0
  8  9  2  0
  8 10  1  0
 10 11  1  0
 11 12  1  0
 12 13  2  0
 12 14  1  0
 14 15  2  0
 15 16  1  0
 16 17  2  0
 17 18  1  0
 18 19  2  0
 19 20  1  0
 19 21  1  0
 21 22  2  0
 22 23  1  0
 23 24  2  0
  6 25  1  0
 25 26  2  0
 26  3  1  0
 24 14  1  0
 23 17  1  0
  1 27  1  0
  1 28  1  0
  1 29  1  0
  4 30  1  0
  5 31  1  0
  7 32  1  0
 10 33  1  0
 10 34  1  0
 11 35  1  0
 15 36  1  0
 16 37  1  0
 18 38  1  0
 21 39  1  0
 22 40  1  0
 25 41  1  0
 26 42  1  0
M  END
>  <smiles>  (17) 
COc1ccc(NC(=O)CNC(=O)c2ccc3cc(F)ccc3n2)cc1

>  <score_type>  (17) 
oracle

>  <origin>  (17) 
autodockgpu

>  <m_score__min__energy>  (17) 
-8.4100000000000001

>  <m_primary>  (17) 
energy

>  <rmsd>  (17) 
2.683999823343322

>  <m_score__min__rmsd>  (17) 
2.683999823343322

>  <meeko>  (17) 
{"free_energy": -7.67, "intermolecular_energy": -9.16, "internal_energy": -1.51, "cluster_size": 36, "cluster_id": 1, "rank_in_cluster": 21}

>  <energy>  (17) 
-7.69

>  <cluster_rmsd>  (17) 
1.4

>  <cluster>  (17) 
1

$$$$

     RDKit          3D

 42 44  0  0  0  0  0  0  0  0999 V2000
  141.4430   82.7560  221.8200 C   0  0  0  0  0  0  0  0  0  0  0  0
  141.7620   81.9080  222.9090 O   0  0  0  0  0  0  0  0  0  0  0  0
  141.6560   80.5380  222.7010 C   0  0  0  0  0  0  0  0  0  0  0  0
  141.6060   80.1180  221.3750 C   0  0  0  0  0  0  0  0  0  0  0  0
  141.5010   78.7830  221.0570 C   0  0  0  0  0  0  0  0  0  0  0  0
  141.4460   77.8660  222.1060 C   0  0  0  0  0  0  0  0  0  0  0  0
  141.3380   76.4940  221.7240 N   0  0  0  0  0  0  0  0  0  0  0  0
  140.0430   75.9310  221.6090 C   0  0  0  0  0  0  0  0  0  0  0  0
  139.0530   76.6970  221.8510 O   0  0  0  0  0  0  0  0  0  0  0  0
  139.7450   74.5460  221.2340 C   0  0  0  0  0  0  0  0  0  0  0  0
  139.6170   73.6150  222.3070 N   0  0  0  0  0  0  0  0  0  0  0  0
  140.4430   72.4580  222.4400 C   0  0  0  0  0  0  0  0  0  0  0  0
  141.3630   72.1910  221.5930 O   0  0  0  0  0  0  0  0  0  0  0  0
  140.2410   71.5370  223.5810 C   0  0  0  0  0  0  0  0  0  0  0  0
  139.5740   70.3480  223.3850 C   0  0  0  0  0  0  0  0  0  0  0  0
  139.3790   69.4720  224.4590 C   0  0  0  0  0  0  0  0  0  0  0  0
  139.8800   69.8590  225.6920 C   0  0  0  0  0  0  0  0  0  0  0  0
  139.7350   69.0550  226.8110 C   0  0  0  0  0  0  0  0  0  0  0  0
  140.2350   69.4390  228.0430 C   0  0  0  0  0  0  0  0  0  0  0  0
  140.0900   68.6540  229.1290 F   0  0  0  0  0  0  0  0  0  0  0  0
  140.9000   70.6380  228.2040 C   0  0  0  0  0  0  0  0  0  0  0  0
  141.0560   71.4570  227.0930 C   0  0  0  0  0  0  0  0  0  0  0  0
  140.5510   71.0610  225.8720 C   0  0  0  0  0  0  0  0  0  0  0  0
  140.7010   71.8440  224.8080 N   0  0  0  0  0  0  0  0  0  0  0  0
  141.4960   78.2720  223.4270 C   0  0  0  0  0  0  0  0  0  0  0  0
  141.6020   79.6240  223.7340 C   0  0  0  0  0  0  0  0  0  0  0  0
  141.0797   83.7217  222.2014 H   0  0  0  0  0  0  0  0  0  0  0  0
  142.3414   82.9186  221.2065 H   0  0  0  0  0  0  0  0  0  0  0  0
  140.6601   82.2862  221.2065 H   0  0  0  0  0  0  0  0  0  0  0  0
  141.6511   80.8647  220.5685 H   0  0  0  0  0  0  0  0  0  0  0  0
  141.4618   78.4502  220.0093 H   0  0  0  0  0  0  0  0  0  0  0  0
  142.1730   75.9300  221.5320 H   0  0  0  0  0  0  0  0  0  0  0  0
  138.7973   74.5464  220.6756 H   0  0  0  0  0  0  0  0  0  0  0  0
  140.6144   74.2058  220.6522 H   0  0  0  0  0  0  0  0  0  0  0  0
  138.8930   73.7320  223.0740 H   0  0  0  0  0  0  0  0  0  0  0  0
  139.1951   70.0873  222.3858 H   0  0  0  0  0  0  0  0  0  0  0  0
  138.8501   68.5162  224.3299 H   0  0  0  0  0  0  0  0  0  0  0  0
  139.2118   68.0918  226.7183 H   0  0  0  0  0  0  0  0  0  0  0  0
  141.2958   70.9368  229.1859 H   0  0  0  0  0  0  0  0  0  0  0  0
  141.5810   72.4191  227.1867 H   0  0  0  0  0  0  0  0  0  0  0  0
  141.4520   77.5260  224.2342 H   0  0  0  0  0  0  0  0  0  0  0  0
  141.6421   79.9591  224.7809 H   0  0  0  0  0  0  0  0  0  0  0  0
  1  2  1  0
  2  3  1  0
  3  4  2  0
  4  5  1  0
  5  6  2  0
  6  7  1  0
  7  8  1  0
  8  9  2  0
  8 10  1  0
 10 11  1  0
 11 12  1  0
 12 13  2  0
 12 14  1  0
 14 15  2  0
 15 16  1  0
 16 17  2  0
 17 18  1  0
 18 19  2  0
 19 20  1  0
 19 21  1  0
 21 22  2  0
 22 23  1  0
 23 24  2  0
  6 25  1  0
 25 26  2  0
 26  3  1  0
 24 14  1  0
 23 17  1  0
  1 27  1  0
  1 28  1  0
  1 29  1  0
  4 30  1  0
  5 31  1  0
  7 32  1  0
 10 33  1  0
 10 34  1  0
 11 35  1  0
 15 36  1  0
 16 37  1  0
 18 38  1  0
 21 39  1  0
 22 40  1  0
 25 41  1  0
 26 42  1  0
M  END
>  <smiles>  (18) 
COc1ccc(NC(=O)CNC(=O)c2ccc3cc(F)ccc3n2)cc1

>  <score_type>  (18) 
oracle

>  <origin>  (18) 
autodockgpu

>  <m_score__min__energy>  (18) 
-8.4100000000000001

>  <m_primary>  (18) 
energy

>  <rmsd>  (18) 
3.0802982082495225

>  <m_score__min__rmsd>  (18) 
3.0802982082495225

>  <meeko>  (18) 
{"free_energy": -8.41, "intermolecular_energy": -9.9, "internal_energy": -0.84, "cluster_size": 36, "cluster_id": 1, "rank_in_cluster": 1}

>  <energy>  (18) 
-7.69

>  <cluster_rmsd>  (18) 
1.46

>  <cluster>  (18) 
1

$$$$

     RDKit          3D

 42 44  0  0  0  0  0  0  0  0999 V2000
  142.3700   80.8970  223.5310 C   0  0  0  0  0  0  0  0  0  0  0  0
  141.0440   80.7770  223.0470 O   0  0  0  0  0  0  0  0  0  0  0  0
  140.5330   79.4940  222.9010 C   0  0  0  0  0  0  0  0  0  0  0  0
  141.4660   78.4680  222.7820 C   0  0  0  0  0  0  0  0  0  0  0  0
  141.0680   77.1590  222.6330 C   0  0  0  0  0  0  0  0  0  0  0  0
  139.6990   76.8950  222.6050 C   0  0  0  0  0  0  0  0  0  0  0  0
  139.3370   75.5220  222.4490 N   0  0  0  0  0  0  0  0  0  0  0  0
  138.7390   75.1210  221.2280 C   0  0  0  0  0  0  0  0  0  0  0  0
  138.5700   76.0220  220.3420 O   0  0  0  0  0  0  0  0  0  0  0  0
  138.3030   73.7620  220.8970 C   0  0  0  0  0  0  0  0  0  0  0  0
  138.4540   72.7830  221.9240 N   0  0  0  0  0  0  0  0  0  0  0  0
  139.6830   72.5600  222.6170 C   0  0  0  0  0  0  0  0  0  0  0  0
  140.7330   73.2420  222.3540 O   0  0  0  0  0  0  0  0  0  0  0  0
  139.7580   71.5200  223.6660 C   0  0  0  0  0  0  0  0  0  0  0  0
  139.2590   70.2610  223.4120 C   0  0  0  0  0  0  0  0  0  0  0  0
  139.3250   69.2720  224.3990 C   0  0  0  0  0  0  0  0  0  0  0  0
  139.9040   69.6210  225.6100 C   0  0  0  0  0  0  0  0  0  0  0  0
  140.0140   68.7060  226.6440 C   0  0  0  0  0  0  0  0  0  0  0  0
  140.5920   69.0520  227.8540 C   0  0  0  0  0  0  0  0  0  0  0  0
  140.6960   68.1600  228.8570 F   0  0  0  0  0  0  0  0  0  0  0  0
  141.0830   70.3240  228.0740 C   0  0  0  0  0  0  0  0  0  0  0  0
  140.9820   71.2550  227.0480 C   0  0  0  0  0  0  0  0  0  0  0  0
  140.4030   70.8940  225.8490 C   0  0  0  0  0  0  0  0  0  0  0  0
  140.3070   71.7850  224.8660 N   0  0  0  0  0  0  0  0  0  0  0  0
  138.7620   77.9050  222.7220 C   0  0  0  0  0  0  0  0  0  0  0  0
  139.1790   79.2240  222.8720 C   0  0  0  0  0  0  0  0  0  0  0  0
  142.3603   80.8961  224.6310 H   0  0  0  0  0  0  0  0  0  0  0  0
  142.9706   80.0495  223.1689 H   0  0  0  0  0  0  0  0  0  0  0  0
  142.8087   81.8385  223.1689 H   0  0  0  0  0  0  0  0  0  0  0  0
  142.5393   78.7074  222.8075 H   0  0  0  0  0  0  0  0  0  0  0  0
  141.8052   76.3480  222.5391 H   0  0  0  0  0  0  0  0  0  0  0  0
  139.5090   74.8400  223.1960 H   0  0  0  0  0  0  0  0  0  0  0  0
  137.2366   73.8074  220.6311 H   0  0  0  0  0  0  0  0  0  0  0  0
  138.9608   73.4335  220.0789 H   0  0  0  0  0  0  0  0  0  0  0  0
  137.6530   72.1600  222.2340 H   0  0  0  0  0  0  0  0  0  0  0  0
  138.8093   70.0339  222.4342 H   0  0  0  0  0  0  0  0  0  0  0  0
  138.9338   68.2593  224.2220 H   0  0  0  0  0  0  0  0  0  0  0  0
  139.6345   67.6835  226.5011 H   0  0  0  0  0  0  0  0  0  0  0  0
  141.5421   70.5929  229.0368 H   0  0  0  0  0  0  0  0  0  0  0  0
  141.3626   72.2771  227.1912 H   0  0  0  0  0  0  0  0  0  0  0  0
  137.6885   77.6662  222.6965 H   0  0  0  0  0  0  0  0  0  0  0  0
  138.4437   80.0367  222.9657 H   0  0  0  0  0  0  0  0  0  0  0  0
  1  2  1  0
  2  3  1  0
  3  4  2  0
  4  5  1  0
  5  6  2  0
  6  7  1  0
  7  8  1  0
  8  9  2  0
  8 10  1  0
 10 11  1  0
 11 12  1  0
 12 13  2  0
 12 14  1  0
 14 15  2  0
 15 16  1  0
 16 17  2  0
 17 18  1  0
 18 19  2  0
 19 20  1  0
 19 21  1  0
 21 22  2  0
 22 23  1  0
 23 24  2  0
  6 25  1  0
 25 26  2  0
 26  3  1  0
 24 14  1  0
 23 17  1  0
  1 27  1  0
  1 28  1  0
  1 29  1  0
  4 30  1  0
  5 31  1  0
  7 32  1  0
 10 33  1  0
 10 34  1  0
 11 35  1  0
 15 36  1  0
 16 37  1  0
 18 38  1  0
 21 39  1  0
 22 40  1  0
 25 41  1  0
 26 42  1  0
M  END
>  <smiles>  (19) 
COc1ccc(NC(=O)CNC(=O)c2ccc3cc(F)ccc3n2)cc1

>  <score_type>  (19) 
oracle

>  <origin>  (19) 
autodockgpu

>  <m_score__min__energy>  (19) 
-8.4100000000000001

>  <m_primary>  (19) 
energy

>  <rmsd>  (19) 
3.1087120503223753

>  <m_score__min__rmsd>  (19) 
3.1087120503223753

>  <meeko>  (19) 
{"free_energy": -7.7, "intermolecular_energy": -9.19, "internal_energy": -1.45, "cluster_size": 36, "cluster_id": 1, "rank_in_cluster": 12}

>  <energy>  (19) 
-7.68

>  <cluster_rmsd>  (19) 
1.06

>  <cluster>  (19) 
1

$$$$

     RDKit          3D

 42 44  0  0  0  0  0  0  0  0999 V2000
  140.0820   67.4370  226.4610 C   0  0  0  0  0  0  0  0  0  0  0  0
  139.0110   67.9790  225.7090 O   0  0  0  0  0  0  0  0  0  0  0  0
  139.2510   69.1630  225.0220 C   0  0  0  0  0  0  0  0  0  0  0  0
  138.5870   69.3150  223.8080 C   0  0  0  0  0  0  0  0  0  0  0  0
  138.7530   70.4500  223.0460 C   0  0  0  0  0  0  0  0  0  0  0  0
  139.6080   71.4390  223.5290 C   0  0  0  0  0  0  0  0  0  0  0  0
  139.7460   72.5960  222.7030 N   0  0  0  0  0  0  0  0  0  0  0  0
  140.6360   72.5300  221.6010 C   0  0  0  0  0  0  0  0  0  0  0  0
  141.2530   71.4300  221.4200 O   0  0  0  0  0  0  0  0  0  0  0  0
  140.9040   73.6160  220.6550 C   0  0  0  0  0  0  0  0  0  0  0  0
  141.0500   74.9200  221.2150 N   0  0  0  0  0  0  0  0  0  0  0  0
  139.9510   75.6840  221.7120 C   0  0  0  0  0  0  0  0  0  0  0  0
  138.7550   75.2310  221.6880 O   0  0  0  0  0  0  0  0  0  0  0  0
  140.1860   77.0330  222.2720 C   0  0  0  0  0  0  0  0  0  0  0  0
  139.1290   77.7500  222.7870 C   0  0  0  0  0  0  0  0  0  0  0  0
  139.3440   79.0260  223.3180 C   0  0  0  0  0  0  0  0  0  0  0  0
  140.6420   79.5130  223.2970 C   0  0  0  0  0  0  0  0  0  0  0  0
  140.9480   80.7660  223.8020 C   0  0  0  0  0  0  0  0  0  0  0  0
  142.2440   81.2530  223.7820 C   0  0  0  0  0  0  0  0  0  0  0  0
  142.5370   82.4720  224.2730 F   0  0  0  0  0  0  0  0  0  0  0  0
  143.2810   80.5070  223.2590 C   0  0  0  0  0  0  0  0  0  0  0  0
  142.9930   79.2480  222.7480 C   0  0  0  0  0  0  0  0  0  0  0  0
  141.6970   78.7770  222.7750 C   0  0  0  0  0  0  0  0  0  0  0  0
  141.4210   77.5710  222.2870 N   0  0  0  0  0  0  0  0  0  0  0  0
  140.2730   71.2990  224.7330 C   0  0  0  0  0  0  0  0  0  0  0  0
  140.0960   70.1470  225.4930 C   0  0  0  0  0  0  0  0  0  0  0  0
  139.8680   67.5453  227.5345 H   0  0  0  0  0  0  0  0  0  0  0  0
  140.1993   66.3710  226.2162 H   0  0  0  0  0  0  0  0  0  0  0  0
  141.0104   67.9738  226.2162 H   0  0  0  0  0  0  0  0  0  0  0  0
  137.9196   68.5164  223.4520 H   0  0  0  0  0  0  0  0  0  0  0  0
  138.2278   70.5721  222.0872 H   0  0  0  0  0  0  0  0  0  0  0  0
  139.2130   73.4510  222.8940 H   0  0  0  0  0  0  0  0  0  0  0  0
  141.8352   73.3740  220.1219 H   0  0  0  0  0  0  0  0  0  0  0  0
  140.0136   73.6710  220.0115 H   0  0  0  0  0  0  0  0  0  0  0  0
  141.9930   75.4000  221.2940 H   0  0  0  0  0  0  0  0  0  0  0  0
  138.1167   77.3196  222.7808 H   0  0  0  0  0  0  0  0  0  0  0  0
  138.5169   79.6191  223.7353 H   0  0  0  0  0  0  0  0  0  0  0  0
  140.1455   81.3865  224.2274 H   0  0  0  0  0  0  0  0  0  0  0  0
  144.3086   80.8994  223.2472 H   0  0  0  0  0  0  0  0  0  0  0  0
  143.7963   78.6283  222.3230 H   0  0  0  0  0  0  0  0  0  0  0  0
  140.9409   72.0970  225.0895 H   0  0  0  0  0  0  0  0  0  0  0  0
  140.6202   70.0229  226.4520 H   0  0  0  0  0  0  0  0  0  0  0  0
  1  2  1  0
  2  3  1  0
  3  4  2  0
  4  5  1  0
  5  6  2  0
  6  7  1  0
  7  8  1  0
  8  9  2  0
  8 10  1  0
 10 11  1  0
 11 12  1  0
 12 13  2  0
 12 14  1  0
 14 15  2  0
 15 16  1  0
 16 17  2  0
 17 18  1  0
 18 19  2  0
 19 20  1  0
 19 21  1  0
 21 22  2  0
 22 23  1  0
 23 24  2  0
  6 25  1  0
 25 26  2  0
 26  3  1  0
 24 14  1  0
 23 17  1  0
  1 27  1  0
  1 28  1  0
  1 29  1  0
  4 30  1  0
  5 31  1  0
  7 32  1  0
 10 33  1  0
 10 34  1  0
 11 35  1  0
 15 36  1  0
 16 37  1  0
 18 38  1  0
 21 39  1  0
 22 40  1  0
 25 41  1  0
 26 42  1  0
M  END
>  <smiles>  (20) 
COc1ccc(NC(=O)CNC(=O)c2ccc3cc(F)ccc3n2)cc1

>  <score_type>  (20) 
oracle

>  <origin>  (20) 
autodockgpu

>  <m_score__min__energy>  (20) 
-8.4100000000000001

>  <m_primary>  (20) 
energy

>  <rmsd>  (20) 
8.849285300550347

>  <m_score__min__rmsd>  (20) 
8.849285300550347

>  <meeko>  (20) 
{"free_energy": -7.48, "intermolecular_energy": -8.97, "internal_energy": -1.84, "cluster_size": 14, "cluster_id": 2, "rank_in_cluster": 1}

>  <energy>  (20) 
-7.67

>  <cluster_rmsd>  (20) 
1.4

>  <cluster>  (20) 
1

$$$$

     RDKit          3D

 42 44  0  0  0  0  0  0  0  0999 V2000
  140.0380   67.6560  226.8480 C   0  0  0  0  0  0  0  0  0  0  0  0
  139.1890   67.9370  225.7500 O   0  0  0  0  0  0  0  0  0  0  0  0
  139.4000   69.1310  225.0710 C   0  0  0  0  0  0  0  0  0  0  0  0
  138.6570   69.3180  223.9090 C   0  0  0  0  0  0  0  0  0  0  0  0
  138.7890   70.4650  223.1590 C   0  0  0  0  0  0  0  0  0  0  0  0
  139.6900   71.4320  223.6020 C   0  0  0  0  0  0  0  0  0  0  0  0
  139.7900   72.6030  222.7910 N   0  0  0  0  0  0  0  0  0  0  0  0
  140.4900   72.5090  221.5620 C   0  0  0  0  0  0  0  0  0  0  0  0
  140.9820   71.3730  221.2600 O   0  0  0  0  0  0  0  0  0  0  0  0
  140.6930   73.6040  220.6100 C   0  0  0  0  0  0  0  0  0  0  0  0
  140.8510   74.9070  221.1710 N   0  0  0  0  0  0  0  0  0  0  0  0
  139.7840   75.6250  221.7910 C   0  0  0  0  0  0  0  0  0  0  0  0
  138.6090   75.1290  221.8860 O   0  0  0  0  0  0  0  0  0  0  0  0
  140.0300   76.9760  222.3430 C   0  0  0  0  0  0  0  0  0  0  0  0
  138.9760   77.7090  222.8400 C   0  0  0  0  0  0  0  0  0  0  0  0
  139.1990   78.9880  223.3630 C   0  0  0  0  0  0  0  0  0  0  0  0
  140.5040   79.4580  223.3520 C   0  0  0  0  0  0  0  0  0  0  0  0
  140.8200   80.7120  223.8500 C   0  0  0  0  0  0  0  0  0  0  0  0
  142.1210   81.1830  223.8410 C   0  0  0  0  0  0  0  0  0  0  0  0
  142.4230   82.4030  224.3260 F   0  0  0  0  0  0  0  0  0  0  0  0
  143.1550   80.4200  223.3360 C   0  0  0  0  0  0  0  0  0  0  0  0
  142.8580   79.1610  222.8330 C   0  0  0  0  0  0  0  0  0  0  0  0
  141.5550   78.7050  222.8490 C   0  0  0  0  0  0  0  0  0  0  0  0
  141.2700   77.4990  222.3670 N   0  0  0  0  0  0  0  0  0  0  0  0
  140.4330   71.2570  224.7550 C   0  0  0  0  0  0  0  0  0  0  0  0
  140.2900   70.0930  225.5030 C   0  0  0  0  0  0  0  0  0  0  0  0
  139.4944   67.8359  227.7872 H   0  0  0  0  0  0  0  0  0  0  0  0
  140.3573   66.6043  226.8048 H   0  0  0  0  0  0  0  0  0  0  0  0
  140.9217   68.3096  226.8048 H   0  0  0  0  0  0  0  0  0  0  0  0
  137.9533   68.5372  223.5848 H   0  0  0  0  0  0  0  0  0  0  0  0
  138.2026   70.6135  222.2402 H   0  0  0  0  0  0  0  0  0  0  0  0
  139.3630   73.4890  223.0840 H   0  0  0  0  0  0  0  0  0  0  0  0
  141.5978   73.3780  220.0268 H   0  0  0  0  0  0  0  0  0  0  0  0
  139.7694   73.6505  220.0143 H   0  0  0  0  0  0  0  0  0  0  0  0
  141.7800   75.4200  221.1570 H   0  0  0  0  0  0  0  0  0  0  0  0
  137.9591   77.2898  222.8261 H   0  0  0  0  0  0  0  0  0  0  0  0
  138.3744   79.5946  223.7656 H   0  0  0  0  0  0  0  0  0  0  0  0
  140.0203   81.3458  224.2608 H   0  0  0  0  0  0  0  0  0  0  0  0
  144.1873   80.8000  223.3324 H   0  0  0  0  0  0  0  0  0  0  0  0
  143.6587   78.5282  222.4227 H   0  0  0  0  0  0  0  0  0  0  0  0
  141.1365   72.0375  225.0804 H   0  0  0  0  0  0  0  0  0  0  0  0
  140.8755   69.9422  226.4219 H   0  0  0  0  0  0  0  0  0  0  0  0
  1  2  1  0
  2  3  1  0
  3  4  2  0
  4  5  1  0
  5  6  2  0
  6  7  1  0
  7  8  1  0
  8  9  2  0
  8 10  1  0
 10 11  1  0
 11 12  1  0
 12 13  2  0
 12 14  1  0
 14 15  2  0
 15 16  1  0
 16 17  2  0
 17 18  1  0
 18 19  2  0
 19 20  1  0
 19 21  1  0
 21 22  2  0
 22 23  1  0
 23 24  2  0
  6 25  1  0
 25 26  2  0
 26  3  1  0
 24 14  1  0
 23 17  1  0
  1 27  1  0
  1 28  1  0
  1 29  1  0
  4 30  1  0
  5 31  1  0
  7 32  1  0
 10 33  1  0
 10 34  1  0
 11 35  1  0
 15 36  1  0
 16 37  1  0
 18 38  1  0
 21 39  1  0
 22 40  1  0
 25 41  1  0
 26 42  1  0
M  END
>  <smiles>  (21) 
COc1ccc(NC(=O)CNC(=O)c2ccc3cc(F)ccc3n2)cc1

>  <score_type>  (21) 
oracle

>  <origin>  (21) 
autodockgpu

>  <m_score__min__energy>  (21) 
-8.4100000000000001

>  <m_primary>  (21) 
energy

>  <rmsd>  (21) 
8.799234753447418

>  <m_score__min__rmsd>  (21) 
8.799234753447418

>  <meeko>  (21) 
{"free_energy": -7.41, "intermolecular_energy": -8.9, "internal_energy": -1.84, "cluster_size": 14, "cluster_id": 2, "rank_in_cluster": 4}

>  <energy>  (21) 
-7.67

>  <cluster_rmsd>  (21) 
0.92

>  <cluster>  (21) 
1

$$$$

     RDKit          3D

 42 44  0  0  0  0  0  0  0  0999 V2000
  141.0850   82.7930  221.5970 C   0  0  0  0  0  0  0  0  0  0  0  0
  141.5640   81.9950  222.6640 O   0  0  0  0  0  0  0  0  0  0  0  0
  141.5160   80.6160  222.4990 C   0  0  0  0  0  0  0  0  0  0  0  0
  141.4840   80.1540  221.1860 C   0  0  0  0  0  0  0  0  0  0  0  0
  141.4350   78.8060  220.9100 C   0  0  0  0  0  0  0  0  0  0  0  0
  141.4180   77.9210  221.9870 C   0  0  0  0  0  0  0  0  0  0  0  0
  141.3680   76.5340  221.6480 N   0  0  0  0  0  0  0  0  0  0  0  0
  140.0980   75.9090  221.5720 C   0  0  0  0  0  0  0  0  0  0  0  0
  139.0780   76.6360  221.8090 O   0  0  0  0  0  0  0  0  0  0  0  0
  139.8590   74.5010  221.2430 C   0  0  0  0  0  0  0  0  0  0  0  0
  139.8100   73.5950  222.3440 N   0  0  0  0  0  0  0  0  0  0  0  0
  140.0960   72.2010  222.2220 C   0  0  0  0  0  0  0  0  0  0  0  0
  140.4230   71.6800  221.1020 O   0  0  0  0  0  0  0  0  0  0  0  0
  140.0160   71.3280  223.4140 C   0  0  0  0  0  0  0  0  0  0  0  0
  139.5080   70.0540  223.2900 C   0  0  0  0  0  0  0  0  0  0  0  0
  139.4290   69.2210  224.4110 C   0  0  0  0  0  0  0  0  0  0  0  0
  139.8780   69.7370  225.6170 C   0  0  0  0  0  0  0  0  0  0  0  0
  139.8390   68.9850  226.7800 C   0  0  0  0  0  0  0  0  0  0  0  0
  140.2870   69.4970  227.9850 C   0  0  0  0  0  0  0  0  0  0  0  0
  140.2470   68.7630  229.1130 F   0  0  0  0  0  0  0  0  0  0  0  0
  140.7930   70.7790  228.0730 C   0  0  0  0  0  0  0  0  0  0  0  0
  140.8400   71.5490  226.9180 C   0  0  0  0  0  0  0  0  0  0  0  0
  140.3890   71.0230  225.7250 C   0  0  0  0  0  0  0  0  0  0  0  0
  140.4340   71.7590  224.6180 N   0  0  0  0  0  0  0  0  0  0  0  0
  141.4500   78.3680  223.2940 C   0  0  0  0  0  0  0  0  0  0  0  0
  141.5000   79.7330  223.5600 C   0  0  0  0  0  0  0  0  0  0  0  0
  140.5587   83.6698  222.0024 H   0  0  0  0  0  0  0  0  0  0  0  0
  141.9321   83.1268  220.9798 H   0  0  0  0  0  0  0  0  0  0  0  0
  140.3920   82.2024  220.9798 H   0  0  0  0  0  0  0  0  0  0  0  0
  141.4981   80.8767  220.3568 H   0  0  0  0  0  0  0  0  0  0  0  0
  141.4101   78.4392  219.8733 H   0  0  0  0  0  0  0  0  0  0  0  0
  142.2250   76.0040  221.4570 H   0  0  0  0  0  0  0  0  0  0  0  0
  138.8963   74.4389  220.7145 H   0  0  0  0  0  0  0  0  0  0  0  0
  140.7266   74.1881  220.6435 H   0  0  0  0  0  0  0  0  0  0  0  0
  139.5560   73.9100  223.3250 H   0  0  0  0  0  0  0  0  0  0  0  0
  139.1645   69.6916  222.3099 H   0  0  0  0  0  0  0  0  0  0  0  0
  139.0275   68.1994  224.3387 H   0  0  0  0  0  0  0  0  0  0  0  0
  139.4435   67.9592  226.7447 H   0  0  0  0  0  0  0  0  0  0  0  0
  141.1497   71.1800  229.0332 H   0  0  0  0  0  0  0  0  0  0  0  0
  141.2355   72.5748  226.9544 H   0  0  0  0  0  0  0  0  0  0  0  0
  141.4360   77.6456  224.1234 H   0  0  0  0  0  0  0  0  0  0  0  0
  141.5263   80.1014  224.5961 H   0  0  0  0  0  0  0  0  0  0  0  0
  1  2  1  0
  2  3  1  0
  3  4  2  0
  4  5  1  0
  5  6  2  0
  6  7  1  0
  7  8  1  0
  8  9  2  0
  8 10  1  0
 10 11  1  0
 11 12  1  0
 12 13  2  0
 12 14  1  0
 14 15  2  0
 15 16  1  0
 16 17  2  0
 17 18  1  0
 18 19  2  0
 19 20  1  0
 19 21  1  0
 21 22  2  0
 22 23  1  0
 23 24  2  0
  6 25  1  0
 25 26  2  0
 26  3  1  0
 24 14  1  0
 23 17  1  0
  1 27  1  0
  1 28  1  0
  1 29  1  0
  4 30  1  0
  5 31  1  0
  7 32  1  0
 10 33  1  0
 10 34  1  0
 11 35  1  0
 15 36  1  0
 16 37  1  0
 18 38  1  0
 21 39  1  0
 22 40  1  0
 25 41  1  0
 26 42  1  0
M  END
>  <smiles>  (22) 
COc1ccc(NC(=O)CNC(=O)c2ccc3cc(F)ccc3n2)cc1

>  <score_type>  (22) 
oracle

>  <origin>  (22) 
autodockgpu

>  <m_score__min__energy>  (22) 
-8.4100000000000001

>  <m_primary>  (22) 
energy

>  <rmsd>  (22) 
2.983022906366018

>  <m_score__min__rmsd>  (22) 
2.983022906366018

>  <meeko>  (22) 
{"free_energy": -8.2, "intermolecular_energy": -9.69, "internal_energy": -0.94, "cluster_size": 36, "cluster_id": 1, "rank_in_cluster": 7}

>  <energy>  (22) 
-7.67

>  <cluster_rmsd>  (22) 
1.43

>  <cluster>  (22) 
1

$$$$

     RDKit          3D

 42 44  0  0  0  0  0  0  0  0999 V2000
  140.1870   67.5460  226.7000 C   0  0  0  0  0  0  0  0  0  0  0  0
  139.2090   67.9340  225.7510 O   0  0  0  0  0  0  0  0  0  0  0  0
  139.4210   69.1260  225.0700 C   0  0  0  0  0  0  0  0  0  0  0  0
  138.6680   69.3190  223.9160 C   0  0  0  0  0  0  0  0  0  0  0  0
  138.7990   70.4650  223.1660 C   0  0  0  0  0  0  0  0  0  0  0  0
  139.7120   71.4260  223.5990 C   0  0  0  0  0  0  0  0  0  0  0  0
  139.8120   72.5970  222.7870 N   0  0  0  0  0  0  0  0  0  0  0  0
  140.4980   72.4980  221.5510 C   0  0  0  0  0  0  0  0  0  0  0  0
  140.9790   71.3580  221.2430 O   0  0  0  0  0  0  0  0  0  0  0  0
  140.6990   73.5920  220.5970 C   0  0  0  0  0  0  0  0  0  0  0  0
  140.8560   74.8950  221.1550 N   0  0  0  0  0  0  0  0  0  0  0  0
  139.7920   75.6100  221.7840 C   0  0  0  0  0  0  0  0  0  0  0  0
  138.6200   75.1100  221.8890 O   0  0  0  0  0  0  0  0  0  0  0  0
  140.0370   76.9620  222.3330 C   0  0  0  0  0  0  0  0  0  0  0  0
  138.9820   77.6990  222.8230 C   0  0  0  0  0  0  0  0  0  0  0  0
  139.2050   78.9780  223.3430 C   0  0  0  0  0  0  0  0  0  0  0  0
  140.5100   79.4470  223.3370 C   0  0  0  0  0  0  0  0  0  0  0  0
  140.8260   80.7010  223.8330 C   0  0  0  0  0  0  0  0  0  0  0  0
  142.1280   81.1710  223.8280 C   0  0  0  0  0  0  0  0  0  0  0  0
  142.4300   82.3910  224.3110 F   0  0  0  0  0  0  0  0  0  0  0  0
  143.1630   80.4050  223.3300 C   0  0  0  0  0  0  0  0  0  0  0  0
  142.8660   79.1440  222.8290 C   0  0  0  0  0  0  0  0  0  0  0  0
  141.5630   78.6910  222.8400 C   0  0  0  0  0  0  0  0  0  0  0  0
  141.2780   77.4830  222.3610 N   0  0  0  0  0  0  0  0  0  0  0  0
  140.4660   71.2460  224.7440 C   0  0  0  0  0  0  0  0  0  0  0  0
  140.3230   70.0820  225.4930 C   0  0  0  0  0  0  0  0  0  0  0  0
  139.7944   67.7017  227.7157 H   0  0  0  0  0  0  0  0  0  0  0  0
  140.4317   66.4827  226.5605 H   0  0  0  0  0  0  0  0  0  0  0  0
  141.0941   68.1524  226.5605 H   0  0  0  0  0  0  0  0  0  0  0  0
  137.9564   68.5427  223.5981 H   0  0  0  0  0  0  0  0  0  0  0  0
  138.2028   70.6182  222.2543 H   0  0  0  0  0  0  0  0  0  0  0  0
  139.3940   73.4850  223.0840 H   0  0  0  0  0  0  0  0  0  0  0  0
  141.6036   73.3660  220.0133 H   0  0  0  0  0  0  0  0  0  0  0  0
  139.7747   73.6366  220.0023 H   0  0  0  0  0  0  0  0  0  0  0  0
  141.7830   75.4120  221.1340 H   0  0  0  0  0  0  0  0  0  0  0  0
  137.9643   77.2819  222.8054 H   0  0  0  0  0  0  0  0  0  0  0  0
  138.3794   79.5867  223.7403 H   0  0  0  0  0  0  0  0  0  0  0  0
  140.0256   81.3367  224.2394 H   0  0  0  0  0  0  0  0  0  0  0  0
  144.1959   80.7834  223.3300 H   0  0  0  0  0  0  0  0  0  0  0  0
  143.6675   78.5084  222.4246 H   0  0  0  0  0  0  0  0  0  0  0  0
  141.1779   72.0218  225.0623 H   0  0  0  0  0  0  0  0  0  0  0  0
  140.9176   69.9263  226.4053 H   0  0  0  0  0  0  0  0  0  0  0  0
  1  2  1  0
  2  3  1  0
  3  4  2  0
  4  5  1  0
  5  6  2  0
  6  7  1  0
  7  8  1  0
  8  9  2  0
  8 10  1  0
 10 11  1  0
 11 12  1  0
 12 13  2  0
 12 14  1  0
 14 15  2  0
 15 16  1  0
 16 17  2  0
 17 18  1  0
 18 19  2  0
 19 20  1  0
 19 21  1  0
 21 22  2  0
 22 23  1  0
 23 24  2  0
  6 25  1  0
 25 26  2  0
 26  3  1  0
 24 14  1  0
 23 17  1  0
  1 27  1  0
  1 28  1  0
  1 29  1  0
  4 30  1  0
  5 31  1  0
  7 32  1  0
 10 33  1  0
 10 34  1  0
 11 35  1  0
 15 36  1  0
 16 37  1  0
 18 38  1  0
 21 39  1  0
 22 40  1  0
 25 41  1  0
 26 42  1  0
M  END
>  <smiles>  (23) 
COc1ccc(NC(=O)CNC(=O)c2ccc3cc(F)ccc3n2)cc1

>  <score_type>  (23) 
oracle

>  <origin>  (23) 
autodockgpu

>  <m_score__min__energy>  (23) 
-8.4100000000000001

>  <m_primary>  (23) 
energy

>  <rmsd>  (23) 
8.795072927461389

>  <m_score__min__rmsd>  (23) 
8.795072927461389

>  <meeko>  (23) 
{"free_energy": -7.41, "intermolecular_energy": -8.9, "internal_energy": -1.85, "cluster_size": 14, "cluster_id": 2, "rank_in_cluster": 3}

>  <energy>  (23) 
-7.66

>  <cluster_rmsd>  (23) 
1.08

>  <cluster>  (23) 
1

$$$$

     RDKit          3D

 42 44  0  0  0  0  0  0  0  0999 V2000
  140.0440   67.6700  226.8040 C   0  0  0  0  0  0  0  0  0  0  0  0
  139.1700   67.9520  225.7250 O   0  0  0  0  0  0  0  0  0  0  0  0
  139.3670   69.1450  225.0420 C   0  0  0  0  0  0  0  0  0  0  0  0
  138.5980   69.3330  223.8960 C   0  0  0  0  0  0  0  0  0  0  0  0
  138.7140   70.4800  223.1440 C   0  0  0  0  0  0  0  0  0  0  0  0
  139.6270   71.4460  223.5660 C   0  0  0  0  0  0  0  0  0  0  0  0
  139.7100   72.6170  222.7520 N   0  0  0  0  0  0  0  0  0  0  0  0
  140.4070   72.5290  221.5210 C   0  0  0  0  0  0  0  0  0  0  0  0
  140.9110   71.3980  221.2200 O   0  0  0  0  0  0  0  0  0  0  0  0
  140.5930   73.6250  220.5670 C   0  0  0  0  0  0  0  0  0  0  0  0
  140.7670   74.9260  221.1260 N   0  0  0  0  0  0  0  0  0  0  0  0
  139.7160   75.6470  221.7680 C   0  0  0  0  0  0  0  0  0  0  0  0
  138.5410   75.1560  221.8860 O   0  0  0  0  0  0  0  0  0  0  0  0
  139.9780   76.9960  222.3170 C   0  0  0  0  0  0  0  0  0  0  0  0
  138.9290   77.7540  222.7890 C   0  0  0  0  0  0  0  0  0  0  0  0
  139.1680   79.0310  223.3090 C   0  0  0  0  0  0  0  0  0  0  0  0
  140.4810   79.4750  223.3210 C   0  0  0  0  0  0  0  0  0  0  0  0
  140.8120   80.7250  223.8170 C   0  0  0  0  0  0  0  0  0  0  0  0
  142.1230   81.1710  223.8310 C   0  0  0  0  0  0  0  0  0  0  0  0
  142.4400   82.3870  224.3140 F   0  0  0  0  0  0  0  0  0  0  0  0
  143.1510   80.3850  223.3500 C   0  0  0  0  0  0  0  0  0  0  0  0
  142.8380   79.1280  222.8480 C   0  0  0  0  0  0  0  0  0  0  0  0
  141.5270   78.6990  222.8420 C   0  0  0  0  0  0  0  0  0  0  0  0
  141.2270   77.4950  222.3620 N   0  0  0  0  0  0  0  0  0  0  0  0
  140.3960   71.2700  224.7020 C   0  0  0  0  0  0  0  0  0  0  0  0
  140.2680   70.1060  225.4530 C   0  0  0  0  0  0  0  0  0  0  0  0
  139.5186   67.8395  227.7554 H   0  0  0  0  0  0  0  0  0  0  0  0
  140.3702   66.6210  226.7471 H   0  0  0  0  0  0  0  0  0  0  0  0
  140.9218   68.3305  226.7471 H   0  0  0  0  0  0  0  0  0  0  0  0
  137.8869   68.5527  223.5871 H   0  0  0  0  0  0  0  0  0  0  0  0
  138.1062   70.6298  222.2395 H   0  0  0  0  0  0  0  0  0  0  0  0
  139.2720   73.4970  223.0450 H   0  0  0  0  0  0  0  0  0  0  0  0
  141.4845   73.3971  219.9642 H   0  0  0  0  0  0  0  0  0  0  0  0
  139.6569   73.6755  219.9916 H   0  0  0  0  0  0  0  0  0  0  0  0
  141.6980   75.4360  221.0950 H   0  0  0  0  0  0  0  0  0  0  0  0
  137.9041   77.3557  222.7572 H   0  0  0  0  0  0  0  0  0  0  0  0
  138.3482   79.6563  223.6922 H   0  0  0  0  0  0  0  0  0  0  0  0
  140.0171   81.3771  224.2080 H   0  0  0  0  0  0  0  0  0  0  0  0
  144.1905   80.7445  223.3639 H   0  0  0  0  0  0  0  0  0  0  0  0
  143.6333   78.4767  222.4565 H   0  0  0  0  0  0  0  0  0  0  0  0
  141.1079   72.0494  225.0113 H   0  0  0  0  0  0  0  0  0  0  0  0
  140.8742   69.9544  226.3583 H   0  0  0  0  0  0  0  0  0  0  0  0
  1  2  1  0
  2  3  1  0
  3  4  2  0
  4  5  1  0
  5  6  2  0
  6  7  1  0
  7  8  1  0
  8  9  2  0
  8 10  1  0
 10 11  1  0
 11 12  1  0
 12 13  2  0
 12 14  1  0
 14 15  2  0
 15 16  1  0
 16 17  2  0
 17 18  1  0
 18 19  2  0
 19 20  1  0
 19 21  1  0
 21 22  2  0
 22 23  1  0
 23 24  2  0
  6 25  1  0
 25 26  2  0
 26  3  1  0
 24 14  1  0
 23 17  1  0
  1 27  1  0
  1 28  1  0
  1 29  1  0
  4 30  1  0
  5 31  1  0
  7 32  1  0
 10 33  1  0
 10 34  1  0
 11 35  1  0
 15 36  1  0
 16 37  1  0
 18 38  1  0
 21 39  1  0
 22 40  1  0
 25 41  1  0
 26 42  1  0
M  END
>  <smiles>  (24) 
COc1ccc(NC(=O)CNC(=O)c2ccc3cc(F)ccc3n2)cc1

>  <score_type>  (24) 
oracle

>  <origin>  (24) 
autodockgpu

>  <m_score__min__energy>  (24) 
-8.4100000000000001

>  <m_primary>  (24) 
energy

>  <rmsd>  (24) 
8.795477868560699

>  <m_score__min__rmsd>  (24) 
8.795477868560699

>  <meeko>  (24) 
{"free_energy": -7.4, "intermolecular_energy": -8.89, "internal_energy": -1.85, "cluster_size": 14, "cluster_id": 2, "rank_in_cluster": 6}

>  <energy>  (24) 
-7.65

>  <cluster_rmsd>  (24) 
1.4

>  <cluster>  (24) 
1

$$$$

     RDKit          3D

 42 44  0  0  0  0  0  0  0  0999 V2000
  141.9070   81.0450  223.2110 C   0  0  0  0  0  0  0  0  0  0  0  0
  140.5950   80.6490  222.8540 O   0  0  0  0  0  0  0  0  0  0  0  0
  140.3570   79.2870  222.7140 C   0  0  0  0  0  0  0  0  0  0  0  0
  139.0300   78.8790  222.8210 C   0  0  0  0  0  0  0  0  0  0  0  0
  138.6840   77.5520  222.6990 C   0  0  0  0  0  0  0  0  0  0  0  0
  139.7050   76.6320  222.4660 C   0  0  0  0  0  0  0  0  0  0  0  0
  139.2940   75.2690  222.3470 N   0  0  0  0  0  0  0  0  0  0  0  0
  139.0250   74.7610  221.0520 C   0  0  0  0  0  0  0  0  0  0  0  0
  139.1740   75.5620  220.0720 O   0  0  0  0  0  0  0  0  0  0  0  0
  138.5920   73.3950  220.7440 C   0  0  0  0  0  0  0  0  0  0  0  0
  138.6680   72.4530  221.8120 N   0  0  0  0  0  0  0  0  0  0  0  0
  139.7690   72.3880  222.7200 C   0  0  0  0  0  0  0  0  0  0  0  0
  140.7610   73.1900  222.6280 O   0  0  0  0  0  0  0  0  0  0  0  0
  139.7740   71.3750  223.7990 C   0  0  0  0  0  0  0  0  0  0  0  0
  139.1720   70.1550  223.5880 C   0  0  0  0  0  0  0  0  0  0  0  0
  139.1720   69.1920  224.6030 C   0  0  0  0  0  0  0  0  0  0  0  0
  139.7940   69.5280  225.7960 C   0  0  0  0  0  0  0  0  0  0  0  0
  139.8430   68.6370  226.8560 C   0  0  0  0  0  0  0  0  0  0  0  0
  140.4630   68.9700  228.0480 C   0  0  0  0  0  0  0  0  0  0  0  0
  140.5090   68.1010  229.0760 F   0  0  0  0  0  0  0  0  0  0  0  0
  141.0580   70.2030  228.2250 C   0  0  0  0  0  0  0  0  0  0  0  0
  141.0180   71.1090  227.1740 C   0  0  0  0  0  0  0  0  0  0  0  0
  140.3960   70.7620  225.9920 C   0  0  0  0  0  0  0  0  0  0  0  0
  140.3580   71.6300  224.9850 N   0  0  0  0  0  0  0  0  0  0  0  0
  141.0260   77.0250  222.3590 C   0  0  0  0  0  0  0  0  0  0  0  0
  141.3620   78.3690  222.4840 C   0  0  0  0  0  0  0  0  0  0  0  0
  141.9964   81.0720  224.3070 H   0  0  0  0  0  0  0  0  0  0  0  0
  142.6314   80.3255  222.8016 H   0  0  0  0  0  0  0  0  0  0  0  0
  142.1123   82.0451  222.8016 H   0  0  0  0  0  0  0  0  0  0  0  0
  138.2462   79.6283  223.0058 H   0  0  0  0  0  0  0  0  0  0  0  0
  137.6360   77.2283  222.7827 H   0  0  0  0  0  0  0  0  0  0  0  0
  139.2030   74.6690  223.1740 H   0  0  0  0  0  0  0  0  0  0  0  0
  137.5442   73.4421  220.4124 H   0  0  0  0  0  0  0  0  0  0  0  0
  139.2938   73.0297  219.9797 H   0  0  0  0  0  0  0  0  0  0  0  0
  137.9030   71.7400  221.9940 H   0  0  0  0  0  0  0  0  0  0  0  0
  138.6916   69.9376  222.6226 H   0  0  0  0  0  0  0  0  0  0  0  0
  138.6984   68.2094  224.4606 H   0  0  0  0  0  0  0  0  0  0  0  0
  139.3799   67.6451  226.7481 H   0  0  0  0  0  0  0  0  0  0  0  0
  141.5509   70.4608  229.1740 H   0  0  0  0  0  0  0  0  0  0  0  0
  141.4809   72.1009  227.2831 H   0  0  0  0  0  0  0  0  0  0  0  0
  141.8103   76.2760  222.1753 H   0  0  0  0  0  0  0  0  0  0  0  0
  142.4095   78.6944  222.4011 H   0  0  0  0  0  0  0  0  0  0  0  0
  1  2  1  0
  2  3  1  0
  3  4  2  0
  4  5  1  0
  5  6  2  0
  6  7  1  0
  7  8  1  0
  8  9  2  0
  8 10  1  0
 10 11  1  0
 11 12  1  0
 12 13  2  0
 12 14  1  0
 14 15  2  0
 15 16  1  0
 16 17  2  0
 17 18  1  0
 18 19  2  0
 19 20  1  0
 19 21  1  0
 21 22  2  0
 22 23  1  0
 23 24  2  0
  6 25  1  0
 25 26  2  0
 26  3  1  0
 24 14  1  0
 23 17  1  0
  1 27  1  0
  1 28  1  0
  1 29  1  0
  4 30  1  0
  5 31  1  0
  7 32  1  0
 10 33  1  0
 10 34  1  0
 11 35  1  0
 15 36  1  0
 16 37  1  0
 18 38  1  0
 21 39  1  0
 22 40  1  0
 25 41  1  0
 26 42  1  0
M  END
>  <smiles>  (25) 
COc1ccc(NC(=O)CNC(=O)c2ccc3cc(F)ccc3n2)cc1

>  <score_type>  (25) 
oracle

>  <origin>  (25) 
autodockgpu

>  <m_score__min__energy>  (25) 
-8.4100000000000001

>  <m_primary>  (25) 
energy

>  <rmsd>  (25) 
3.1190055133820866

>  <m_score__min__rmsd>  (25) 
3.1190055133820866

>  <meeko>  (25) 
{"free_energy": -7.63, "intermolecular_energy": -9.12, "internal_energy": -1.32, "cluster_size": 36, "cluster_id": 1, "rank_in_cluster": 25}

>  <energy>  (25) 
-7.63

>  <cluster_rmsd>  (25) 
1.43

>  <cluster>  (25) 
1

$$$$

     RDKit          3D

 42 44  0  0  0  0  0  0  0  0999 V2000
  140.7100   68.5420  227.6590 C   0  0  0  0  0  0  0  0  0  0  0  0
  139.8700   68.3400  226.5370 O   0  0  0  0  0  0  0  0  0  0  0  0
  139.7990   69.3650  225.6010 C   0  0  0  0  0  0  0  0  0  0  0  0
  140.6540   70.4440  225.8040 C   0  0  0  0  0  0  0  0  0  0  0  0
  140.6660   71.5130  224.9370 C   0  0  0  0  0  0  0  0  0  0  0  0
  139.7930   71.4790  223.8500 C   0  0  0  0  0  0  0  0  0  0  0  0
  139.8430   72.6110  222.9800 N   0  0  0  0  0  0  0  0  0  0  0  0
  140.7160   72.5620  221.8660 C   0  0  0  0  0  0  0  0  0  0  0  0
  141.4000   71.4970  221.7110 O   0  0  0  0  0  0  0  0  0  0  0  0
  140.8980   73.6270  220.8760 C   0  0  0  0  0  0  0  0  0  0  0  0
  141.0470   74.9490  221.3920 N   0  0  0  0  0  0  0  0  0  0  0  0
  139.9640   75.6980  221.9450 C   0  0  0  0  0  0  0  0  0  0  0  0
  138.7830   75.2150  222.0150 O   0  0  0  0  0  0  0  0  0  0  0  0
  140.2020   77.0670  222.4530 C   0  0  0  0  0  0  0  0  0  0  0  0
  139.1380   77.8260  222.8870 C   0  0  0  0  0  0  0  0  0  0  0  0
  139.3530   79.1210  223.3680 C   0  0  0  0  0  0  0  0  0  0  0  0
  140.6610   79.5830  223.3830 C   0  0  0  0  0  0  0  0  0  0  0  0
  140.9690   80.8530  223.8440 C   0  0  0  0  0  0  0  0  0  0  0  0
  142.2740   81.3160  223.8600 C   0  0  0  0  0  0  0  0  0  0  0  0
  142.5690   82.5510  224.3080 F   0  0  0  0  0  0  0  0  0  0  0  0
  143.3180   80.5280  223.4180 C   0  0  0  0  0  0  0  0  0  0  0  0
  143.0280   79.2520  222.9530 C   0  0  0  0  0  0  0  0  0  0  0  0
  141.7230   78.8060  222.9430 C   0  0  0  0  0  0  0  0  0  0  0  0
  141.4450   77.5830  222.4980 N   0  0  0  0  0  0  0  0  0  0  0  0
  138.9390   70.4130  223.6380 C   0  0  0  0  0  0  0  0  0  0  0  0
  138.9380   69.3390  224.5230 C   0  0  0  0  0  0  0  0  0  0  0  0
  140.1286   68.4022  228.5822 H   0  0  0  0  0  0  0  0  0  0  0  0
  141.5370   67.8171  227.6331 H   0  0  0  0  0  0  0  0  0  0  0  0
  141.1170   69.5636  227.6331 H   0  0  0  0  0  0  0  0  0  0  0  0
  141.3310   70.4426  226.6710 H   0  0  0  0  0  0  0  0  0  0  0  0
  141.3420   72.3661  225.0963 H   0  0  0  0  0  0  0  0  0  0  0  0
  139.2580   73.4370  223.1520 H   0  0  0  0  0  0  0  0  0  0  0  0
  141.7997   73.3913  220.2917 H   0  0  0  0  0  0  0  0  0  0  0  0
  139.9685   73.6439  220.2881 H   0  0  0  0  0  0  0  0  0  0  0  0
  141.9800   75.4540  221.3930 H   0  0  0  0  0  0  0  0  0  0  0  0
  138.1188   77.4133  222.8552 H   0  0  0  0  0  0  0  0  0  0  0  0
  138.5199   79.7473  223.7198 H   0  0  0  0  0  0  0  0  0  0  0  0
  140.1608   81.5064  224.2044 H   0  0  0  0  0  0  0  0  0  0  0  0
  144.3526   80.9012  223.4338 H   0  0  0  0  0  0  0  0  0  0  0  0
  143.8369   78.5988  222.5937 H   0  0  0  0  0  0  0  0  0  0  0  0
  138.2615   70.4136  222.7714 H   0  0  0  0  0  0  0  0  0  0  0  0
  138.2630   68.4847  224.3660 H   0  0  0  0  0  0  0  0  0  0  0  0
  1  2  1  0
  2  3  1  0
  3  4  2  0
  4  5  1  0
  5  6  2  0
  6  7  1  0
  7  8  1  0
  8  9  2  0
  8 10  1  0
 10 11  1  0
 11 12  1  0
 12 13  2  0
 12 14  1  0
 14 15  2  0
 15 16  1  0
 16 17  2  0
 17 18  1  0
 18 19  2  0
 19 20  1  0
 19 21  1  0
 21 22  2  0
 22 23  1  0
 23 24  2  0
  6 25  1  0
 25 26  2  0
 26  3  1  0
 24 14  1  0
 23 17  1  0
  1 27  1  0
  1 28  1  0
  1 29  1  0
  4 30  1  0
  5 31  1  0
  7 32  1  0
 10 33  1  0
 10 34  1  0
 11 35  1  0
 15 36  1  0
 16 37  1  0
 18 38  1  0
 21 39  1  0
 22 40  1  0
 25 41  1  0
 26 42  1  0
M  END
>  <smiles>  (26) 
COc1ccc(NC(=O)CNC(=O)c2ccc3cc(F)ccc3n2)cc1

>  <score_type>  (26) 
oracle

>  <origin>  (26) 
autodockgpu

>  <m_score__min__energy>  (26) 
-8.4100000000000001

>  <m_primary>  (26) 
energy

>  <rmsd>  (26) 
8.989782134497082

>  <m_score__min__rmsd>  (26) 
8.989782134497082

>  <meeko>  (26) 
{"free_energy": -7.37, "intermolecular_energy": -8.86, "internal_energy": -1.86, "cluster_size": 14, "cluster_id": 2, "rank_in_cluster": 7}

>  <energy>  (26) 
-7.62

>  <cluster_rmsd>  (26) 
1.42

>  <cluster>  (26) 
1

$$$$

     RDKit          3D

 42 44  0  0  0  0  0  0  0  0999 V2000
  141.8350   81.3080  223.8050 C   0  0  0  0  0  0  0  0  0  0  0  0
  142.4460   80.7000  222.6810 O   0  0  0  0  0  0  0  0  0  0  0  0
  141.9470   79.4680  222.2740 C   0  0  0  0  0  0  0  0  0  0  0  0
  141.5840   78.5860  223.2880 C   0  0  0  0  0  0  0  0  0  0  0  0
  141.0790   77.3390  222.9960 C   0  0  0  0  0  0  0  0  0  0  0  0
  140.9430   76.9900  221.6530 C   0  0  0  0  0  0  0  0  0  0  0  0
  140.4140   75.6860  221.4030 N   0  0  0  0  0  0  0  0  0  0  0  0
  139.0210   75.4860  221.5650 C   0  0  0  0  0  0  0  0  0  0  0  0
  138.3270   76.4950  221.9210 O   0  0  0  0  0  0  0  0  0  0  0  0
  138.3110   74.2220  221.3560 C   0  0  0  0  0  0  0  0  0  0  0  0
  138.4940   73.2220  222.3570 N   0  0  0  0  0  0  0  0  0  0  0  0
  139.7600   72.6280  222.6460 C   0  0  0  0  0  0  0  0  0  0  0  0
  140.8190   72.9710  222.0170 O   0  0  0  0  0  0  0  0  0  0  0  0
  139.8640   71.5920  223.6970 C   0  0  0  0  0  0  0  0  0  0  0  0
  139.4770   70.3000  223.4180 C   0  0  0  0  0  0  0  0  0  0  0  0
  139.5710   69.3140  224.4060 C   0  0  0  0  0  0  0  0  0  0  0  0
  140.0620   69.7010  225.6440 C   0  0  0  0  0  0  0  0  0  0  0  0
  140.1910   68.7930  226.6820 C   0  0  0  0  0  0  0  0  0  0  0  0
  140.6810   69.1770  227.9180 C   0  0  0  0  0  0  0  0  0  0  0  0
  140.8050   68.2910  228.9240 F   0  0  0  0  0  0  0  0  0  0  0  0
  141.0610   70.4820  228.1630 C   0  0  0  0  0  0  0  0  0  0  0  0
  140.9390   71.4070  227.1350 C   0  0  0  0  0  0  0  0  0  0  0  0
  140.4490   71.0080  225.9080 C   0  0  0  0  0  0  0  0  0  0  0  0
  140.3320   71.8930  224.9220 N   0  0  0  0  0  0  0  0  0  0  0  0
  141.3000   77.8580  220.6380 C   0  0  0  0  0  0  0  0  0  0  0  0
  141.8090   79.1150  220.9470 C   0  0  0  0  0  0  0  0  0  0  0  0
  142.2602   80.8849  224.7271 H   0  0  0  0  0  0  0  0  0  0  0  0
  142.0187   82.3923  223.7804 H   0  0  0  0  0  0  0  0  0  0  0  0
  140.7516   81.1190  223.7804 H   0  0  0  0  0  0  0  0  0  0  0  0
  141.7025   78.8900  224.3385 H   0  0  0  0  0  0  0  0  0  0  0  0
  140.7922   76.6408  223.7961 H   0  0  0  0  0  0  0  0  0  0  0  0
  141.0240   74.9160  221.1070 H   0  0  0  0  0  0  0  0  0  0  0  0
  137.2357   74.4468  221.2993 H   0  0  0  0  0  0  0  0  0  0  0  0
  138.7347   73.7961  220.4346 H   0  0  0  0  0  0  0  0  0  0  0  0
  137.6910   72.8600  222.9480 H   0  0  0  0  0  0  0  0  0  0  0  0
  139.0943   70.0436  222.4191 H   0  0  0  0  0  0  0  0  0  0  0  0
  139.2681   68.2750  224.2091 H   0  0  0  0  0  0  0  0  0  0  0  0
  139.8979   67.7451  226.5206 H   0  0  0  0  0  0  0  0  0  0  0  0
  141.4504   70.7808  229.1474 H   0  0  0  0  0  0  0  0  0  0  0  0
  141.2319   72.4547  227.2979 H   0  0  0  0  0  0  0  0  0  0  0  0
  141.1817   77.5549  219.5872 H   0  0  0  0  0  0  0  0  0  0  0  0
  142.0963   79.8148  220.1484 H   0  0  0  0  0  0  0  0  0  0  0  0
  1  2  1  0
  2  3  1  0
  3  4  2  0
  4  5  1  0
  5  6  2  0
  6  7  1  0
  7  8  1  0
  8  9  2  0
  8 10  1  0
 10 11  1  0
 11 12  1  0
 12 13  2  0
 12 14  1  0
 14 15  2  0
 15 16  1  0
 16 17  2  0
 17 18  1  0
 18 19  2  0
 19 20  1  0
 19 21  1  0
 21 22  2  0
 22 23  1  0
 23 24  2  0
  6 25  1  0
 25 26  2  0
 26  3  1  0
 24 14  1  0
 23 17  1  0
  1 27  1  0
  1 28  1  0
  1 29  1  0
  4 30  1  0
  5 31  1  0
  7 32  1  0
 10 33  1  0
 10 34  1  0
 11 35  1  0
 15 36  1  0
 16 37  1  0
 18 38  1  0
 21 39  1  0
 22 40  1  0
 25 41  1  0
 26 42  1  0
M  END
>  <smiles>  (27) 
COc1ccc(NC(=O)CNC(=O)c2ccc3cc(F)ccc3n2)cc1

>  <score_type>  (27) 
oracle

>  <origin>  (27) 
autodockgpu

>  <m_score__min__energy>  (27) 
-8.4100000000000001

>  <m_primary>  (27) 
energy

>  <rmsd>  (27) 
3.1432040106552543

>  <m_score__min__rmsd>  (27) 
3.1432040106552543

>  <meeko>  (27) 
{"free_energy": -7.59, "intermolecular_energy": -9.08, "internal_energy": -1.53, "cluster_size": 36, "cluster_id": 1, "rank_in_cluster": 31}

>  <energy>  (27) 
-7.61

>  <cluster_rmsd>  (27) 
0.8

>  <cluster>  (27) 
1

$$$$

     RDKit          3D

 42 44  0  0  0  0  0  0  0  0999 V2000
  142.2920   80.7190  223.4390 C   0  0  0  0  0  0  0  0  0  0  0  0
  141.0540   80.5700  222.7690 O   0  0  0  0  0  0  0  0  0  0  0  0
  140.5300   79.2860  222.6780 C   0  0  0  0  0  0  0  0  0  0  0  0
  141.4450   78.2620  222.4510 C   0  0  0  0  0  0  0  0  0  0  0  0
  141.0330   76.9530  222.3450 C   0  0  0  0  0  0  0  0  0  0  0  0
  139.6700   76.6870  222.4700 C   0  0  0  0  0  0  0  0  0  0  0  0
  139.2930   75.3140  222.3520 N   0  0  0  0  0  0  0  0  0  0  0  0
  138.8190   74.8550  221.0980 C   0  0  0  0  0  0  0  0  0  0  0  0
  138.7660   75.7070  220.1500 O   0  0  0  0  0  0  0  0  0  0  0  0
  138.3880   73.4880  220.7970 C   0  0  0  0  0  0  0  0  0  0  0  0
  138.5150   72.5390  221.8560 N   0  0  0  0  0  0  0  0  0  0  0  0
  139.7030   72.3900  222.6330 C   0  0  0  0  0  0  0  0  0  0  0  0
  140.7350   73.1150  222.4250 O   0  0  0  0  0  0  0  0  0  0  0  0
  139.7550   71.3760  223.7100 C   0  0  0  0  0  0  0  0  0  0  0  0
  139.2200   70.1260  223.4930 C   0  0  0  0  0  0  0  0  0  0  0  0
  139.2650   69.1620  224.5060 C   0  0  0  0  0  0  0  0  0  0  0  0
  139.8600   69.5280  225.7040 C   0  0  0  0  0  0  0  0  0  0  0  0
  139.9500   68.6390  226.7630 C   0  0  0  0  0  0  0  0  0  0  0  0
  140.5440   69.0010  227.9590 C   0  0  0  0  0  0  0  0  0  0  0  0
  140.6290   68.1340  228.9860 F   0  0  0  0  0  0  0  0  0  0  0  0
  141.0710   70.2640  228.1420 C   0  0  0  0  0  0  0  0  0  0  0  0
  140.9910   71.1690  227.0920 C   0  0  0  0  0  0  0  0  0  0  0  0
  140.3950   70.7920  225.9060 C   0  0  0  0  0  0  0  0  0  0  0  0
  140.3180   71.6590  224.9000 N   0  0  0  0  0  0  0  0  0  0  0  0
  138.7520   77.6960  222.6950 C   0  0  0  0  0  0  0  0  0  0  0  0
  139.1820   79.0150  222.8010 C   0  0  0  0  0  0  0  0  0  0  0  0
  142.1253   80.6989  224.5261 H   0  0  0  0  0  0  0  0  0  0  0  0
  142.9637   79.8952  223.1558 H   0  0  0  0  0  0  0  0  0  0  0  0
  142.7490   81.6786  223.1558 H   0  0  0  0  0  0  0  0  0  0  0  0
  142.5141   78.5026  222.3548 H   0  0  0  0  0  0  0  0  0  0  0  0
  141.7557   76.1429  222.1674 H   0  0  0  0  0  0  0  0  0  0  0  0
  139.3690   74.6740  223.1500 H   0  0  0  0  0  0  0  0  0  0  0  0
  137.3277   73.5268  220.5066 H   0  0  0  0  0  0  0  0  0  0  0  0
  139.0626   73.1349  220.0031 H   0  0  0  0  0  0  0  0  0  0  0  0
  137.7240   71.8840  222.1260 H   0  0  0  0  0  0  0  0  0  0  0  0
  138.7577   69.8855  222.5242 H   0  0  0  0  0  0  0  0  0  0  0  0
  138.8459   68.1557  224.3583 H   0  0  0  0  0  0  0  0  0  0  0  0
  139.5406   67.6242  226.6505 H   0  0  0  0  0  0  0  0  0  0  0  0
  141.5421   70.5460  229.0952 H   0  0  0  0  0  0  0  0  0  0  0  0
  141.4014   72.1833  227.2053 H   0  0  0  0  0  0  0  0  0  0  0  0
  137.6827   77.4562  222.7901 H   0  0  0  0  0  0  0  0  0  0  0  0
  138.4613   79.8266  222.9795 H   0  0  0  0  0  0  0  0  0  0  0  0
  1  2  1  0
  2  3  1  0
  3  4  2  0
  4  5  1  0
  5  6  2  0
  6  7  1  0
  7  8  1  0
  8  9  2  0
  8 10  1  0
 10 11  1  0
 11 12  1  0
 12 13  2  0
 12 14  1  0
 14 15  2  0
 15 16  1  0
 16 17  2  0
 17 18  1  0
 18 19  2  0
 19 20  1  0
 19 21  1  0
 21 22  2  0
 22 23  1  0
 23 24  2  0
  6 25  1  0
 25 26  2  0
 26  3  1  0
 24 14  1  0
 23 17  1  0
  1 27  1  0
  1 28  1  0
  1 29  1  0
  4 30  1  0
  5 31  1  0
  7 32  1  0
 10 33  1  0
 10 34  1  0
 11 35  1  0
 15 36  1  0
 16 37  1  0
 18 38  1  0
 21 39  1  0
 22 40  1  0
 25 41  1  0
 26 42  1  0
M  END
>  <smiles>  (28) 
COc1ccc(NC(=O)CNC(=O)c2ccc3cc(F)ccc3n2)cc1

>  <score_type>  (28) 
oracle

>  <origin>  (28) 
autodockgpu

>  <m_score__min__energy>  (28) 
-8.4100000000000001

>  <m_primary>  (28) 
energy

>  <rmsd>  (28) 
2.9675708802928855

>  <m_score__min__rmsd>  (28) 
2.9675708802928855

>  <meeko>  (28) 
{"free_energy": -7.69, "intermolecular_energy": -9.18, "internal_energy": -1.42, "cluster_size": 36, "cluster_id": 1, "rank_in_cluster": 16}

>  <energy>  (28) 
-7.61

>  <cluster_rmsd>  (28) 
1.62

>  <cluster>  (28) 
1

$$$$

     RDKit          3D

 42 44  0  0  0  0  0  0  0  0999 V2000
  141.4350   81.9760  222.2940 C   0  0  0  0  0  0  0  0  0  0  0  0
  142.4060   80.9470  222.3550 O   0  0  0  0  0  0  0  0  0  0  0  0
  141.9540   79.6380  222.2440 C   0  0  0  0  0  0  0  0  0  0  0  0
  141.8220   79.1400  220.9500 C   0  0  0  0  0  0  0  0  0  0  0  0
  141.3820   77.8550  220.7260 C   0  0  0  0  0  0  0  0  0  0  0  0
  141.0720   77.0700  221.8360 C   0  0  0  0  0  0  0  0  0  0  0  0
  140.6200   75.7450  221.5510 N   0  0  0  0  0  0  0  0  0  0  0  0
  139.2260   75.4930  221.5730 C   0  0  0  0  0  0  0  0  0  0  0  0
  138.4630   76.4780  221.8430 O   0  0  0  0  0  0  0  0  0  0  0  0
  138.5880   74.2010  221.3100 C   0  0  0  0  0  0  0  0  0  0  0  0
  138.7180   73.2130  222.3310 N   0  0  0  0  0  0  0  0  0  0  0  0
  139.9720   72.6460  222.7140 C   0  0  0  0  0  0  0  0  0  0  0  0
  141.0660   73.0040  222.1590 O   0  0  0  0  0  0  0  0  0  0  0  0
  140.0200   71.6210  223.7800 C   0  0  0  0  0  0  0  0  0  0  0  0
  139.5640   70.3480  223.5190 C   0  0  0  0  0  0  0  0  0  0  0  0
  139.6060   69.3720  224.5210 C   0  0  0  0  0  0  0  0  0  0  0  0
  140.1170   69.7500  225.7540 C   0  0  0  0  0  0  0  0  0  0  0  0
  140.1980   68.8510  226.8050 C   0  0  0  0  0  0  0  0  0  0  0  0
  140.7080   69.2260  228.0350 C   0  0  0  0  0  0  0  0  0  0  0  0
  140.7840   68.3480  229.0540 F   0  0  0  0  0  0  0  0  0  0  0  0
  141.1580   70.5110  228.2620 C   0  0  0  0  0  0  0  0  0  0  0  0
  141.0850   71.4270  227.2200 C   0  0  0  0  0  0  0  0  0  0  0  0
  140.5730   71.0380  226.0000 C   0  0  0  0  0  0  0  0  0  0  0  0
  140.5040   71.9140  225.0010 N   0  0  0  0  0  0  0  0  0  0  0  0
  141.2000   77.5530  223.1250 C   0  0  0  0  0  0  0  0  0  0  0  0
  141.6460   78.8540  223.3370 C   0  0  0  0  0  0  0  0  0  0  0  0
  141.1529   82.2749  223.3143 H   0  0  0  0  0  0  0  0  0  0  0  0
  141.8521   82.8426  221.7602 H   0  0  0  0  0  0  0  0  0  0  0  0
  140.5457   81.6098  221.7602 H   0  0  0  0  0  0  0  0  0  0  0  0
  142.0732   79.7834  220.0939 H   0  0  0  0  0  0  0  0  0  0  0  0
  141.2783   77.4603  219.7045 H   0  0  0  0  0  0  0  0  0  0  0  0
  141.2850   74.9950  221.3290 H   0  0  0  0  0  0  0  0  0  0  0  0
  137.5144   74.3828  221.1541 H   0  0  0  0  0  0  0  0  0  0  0  0
  139.1103   73.7886  220.4341 H   0  0  0  0  0  0  0  0  0  0  0  0
  137.8820   72.8400  222.8680 H   0  0  0  0  0  0  0  0  0  0  0  0
  139.1671   70.0986  222.5239 H   0  0  0  0  0  0  0  0  0  0  0  0
  139.2487   68.3478  224.3385 H   0  0  0  0  0  0  0  0  0  0  0  0
  139.8497   67.8180  226.6584 H   0  0  0  0  0  0  0  0  0  0  0  0
  141.5637   70.8021  229.2421 H   0  0  0  0  0  0  0  0  0  0  0  0
  141.4346   72.4595  227.3677 H   0  0  0  0  0  0  0  0  0  0  0  0
  140.9497   76.9100  223.9816 H   0  0  0  0  0  0  0  0  0  0  0  0
  141.7512   79.2504  224.3577 H   0  0  0  0  0  0  0  0  0  0  0  0
  1  2  1  0
  2  3  1  0
  3  4  2  0
  4  5  1  0
  5  6  2  0
  6  7  1  0
  7  8  1  0
  8  9  2  0
  8 10  1  0
 10 11  1  0
 11 12  1  0
 12 13  2  0
 12 14  1  0
 14 15  2  0
 15 16  1  0
 16 17  2  0
 17 18  1  0
 18 19  2  0
 19 20  1  0
 19 21  1  0
 21 22  2  0
 22 23  1  0
 23 24  2  0
  6 25  1  0
 25 26  2  0
 26  3  1  0
 24 14  1  0
 23 17  1  0
  1 27  1  0
  1 28  1  0
  1 29  1  0
  4 30  1  0
  5 31  1  0
  7 32  1  0
 10 33  1  0
 10 34  1  0
 11 35  1  0
 15 36  1  0
 16 37  1  0
 18 38  1  0
 21 39  1  0
 22 40  1  0
 25 41  1  0
 26 42  1  0
M  END
>  <smiles>  (29) 
COc1ccc(NC(=O)CNC(=O)c2ccc3cc(F)ccc3n2)cc1

>  <score_type>  (29) 
oracle

>  <origin>  (29) 
autodockgpu

>  <m_score__min__energy>  (29) 
-8.4100000000000001

>  <m_primary>  (29) 
energy

>  <rmsd>  (29) 
2.6920694342500817

>  <m_score__min__rmsd>  (29) 
2.6920694342500817

>  <meeko>  (29) 
{"free_energy": -7.61, "intermolecular_energy": -9.1, "internal_energy": -1.52, "cluster_size": 36, "cluster_id": 1, "rank_in_cluster": 27}

>  <energy>  (29) 
-7.6

>  <cluster_rmsd>  (29) 
1.63

>  <cluster>  (29) 
1

$$$$

     RDKit          3D

 42 44  0  0  0  0  0  0  0  0999 V2000
  142.6030   80.8150  223.8330 C   0  0  0  0  0  0  0  0  0  0  0  0
  142.0660   80.7060  222.5270 O   0  0  0  0  0  0  0  0  0  0  0  0
  141.7440   79.4320  222.0750 C   0  0  0  0  0  0  0  0  0  0  0  0
  141.3730   78.5090  223.0490 C   0  0  0  0  0  0  0  0  0  0  0  0
  141.0340   77.2180  222.7110 C   0  0  0  0  0  0  0  0  0  0  0  0
  141.0750   76.8660  221.3620 C   0  0  0  0  0  0  0  0  0  0  0  0
  140.7150   75.5170  221.0630 N   0  0  0  0  0  0  0  0  0  0  0  0
  141.7500   74.6000  220.7510 C   0  0  0  0  0  0  0  0  0  0  0  0
  142.9440   75.0470  220.7640 O   0  0  0  0  0  0  0  0  0  0  0  0
  141.5640   73.1860  220.4180 C   0  0  0  0  0  0  0  0  0  0  0  0
  141.3460   72.3020  221.5160 N   0  0  0  0  0  0  0  0  0  0  0  0
  140.3760   72.5470  222.5350 C   0  0  0  0  0  0  0  0  0  0  0  0
  139.6340   73.5870  222.5170 O   0  0  0  0  0  0  0  0  0  0  0  0
  140.2160   71.5820  223.6450 C   0  0  0  0  0  0  0  0  0  0  0  0
  139.5950   70.3750  223.4130 C   0  0  0  0  0  0  0  0  0  0  0  0
  139.4390   69.4570  224.4570 C   0  0  0  0  0  0  0  0  0  0  0  0
  139.9310   69.8220  225.7010 C   0  0  0  0  0  0  0  0  0  0  0  0
  139.8220   68.9760  226.7930 C   0  0  0  0  0  0  0  0  0  0  0  0
  140.3130   69.3370  228.0360 C   0  0  0  0  0  0  0  0  0  0  0  0
  140.2050   68.5120  229.0950 F   0  0  0  0  0  0  0  0  0  0  0  0
  140.9320   70.5560  228.2330 C   0  0  0  0  0  0  0  0  0  0  0  0
  141.0510   71.4170  227.1500 C   0  0  0  0  0  0  0  0  0  0  0  0
  140.5560   71.0420  225.9190 C   0  0  0  0  0  0  0  0  0  0  0  0
  140.6700   71.8660  224.8810 N   0  0  0  0  0  0  0  0  0  0  0  0
  141.4420   77.7740  220.3870 C   0  0  0  0  0  0  0  0  0  0  0  0
  141.7830   79.0750  220.7420 C   0  0  0  0  0  0  0  0  0  0  0  0
  141.8048   80.6530  224.5723 H   0  0  0  0  0  0  0  0  0  0  0  0
  143.3893   80.0581  223.9705 H   0  0  0  0  0  0  0  0  0  0  0  0
  143.0320   81.8185  223.9705 H   0  0  0  0  0  0  0  0  0  0  0  0
  141.3503   78.8159  224.1051 H   0  0  0  0  0  0  0  0  0  0  0  0
  140.7404   76.4881  223.4798 H   0  0  0  0  0  0  0  0  0  0  0  0
  139.7350   75.2140  221.0800 H   0  0  0  0  0  0  0  0  0  0  0  0
  140.6939   73.1107  219.7492 H   0  0  0  0  0  0  0  0  0  0  0  0
  142.5134   72.8636  219.9657 H   0  0  0  0  0  0  0  0  0  0  0  0
  141.8970   71.4030  221.6380 H   0  0  0  0  0  0  0  0  0  0  0  0
  139.2217   70.1328  222.4070 H   0  0  0  0  0  0  0  0  0  0  0  0
  138.9467   68.4863  224.2978 H   0  0  0  0  0  0  0  0  0  0  0  0
  139.3353   67.9973  226.6696 H   0  0  0  0  0  0  0  0  0  0  0  0
  141.3209   70.8376  229.2227 H   0  0  0  0  0  0  0  0  0  0  0  0
  141.5387   72.3952  227.2738 H   0  0  0  0  0  0  0  0  0  0  0  0
  141.4645   77.4681  219.3306 H   0  0  0  0  0  0  0  0  0  0  0  0
  142.0783   79.8059  219.9748 H   0  0  0  0  0  0  0  0  0  0  0  0
  1  2  1  0
  2  3  1  0
  3  4  2  0
  4  5  1  0
  5  6  2  0
  6  7  1  0
  7  8  1  0
  8  9  2  0
  8 10  1  0
 10 11  1  0
 11 12  1  0
 12 13  2  0
 12 14  1  0
 14 15  2  0
 15 16  1  0
 16 17  2  0
 17 18  1  0
 18 19  2  0
 19 20  1  0
 19 21  1  0
 21 22  2  0
 22 23  1  0
 23 24  2  0
  6 25  1  0
 25 26  2  0
 26  3  1  0
 24 14  1  0
 23 17  1  0
  1 27  1  0
  1 28  1  0
  1 29  1  0
  4 30  1  0
  5 31  1  0
  7 32  1  0
 10 33  1  0
 10 34  1  0
 11 35  1  0
 15 36  1  0
 16 37  1  0
 18 38  1  0
 21 39  1  0
 22 40  1  0
 25 41  1  0
 26 42  1  0
M  END
>  <smiles>  (30) 
COc1ccc(NC(=O)CNC(=O)c2ccc3cc(F)ccc3n2)cc1

>  <score_type>  (30) 
oracle

>  <origin>  (30) 
autodockgpu

>  <m_score__min__energy>  (30) 
-8.4100000000000001

>  <m_primary>  (30) 
energy

>  <rmsd>  (30) 
3.3783260584636876

>  <m_score__min__rmsd>  (30) 
3.3783260584636876

>  <meeko>  (30) 
{"free_energy": -7.6, "intermolecular_energy": -9.09, "internal_energy": -1.48, "cluster_size": 36, "cluster_id": 1, "rank_in_cluster": 29}

>  <energy>  (30) 
-7.59

>  <cluster_rmsd>  (30) 
1.38

>  <cluster>  (30) 
1

$$$$

     RDKit          3D

 42 44  0  0  0  0  0  0  0  0999 V2000
  141.4270   82.7600  221.8370 C   0  0  0  0  0  0  0  0  0  0  0  0
  141.7470   81.9150  222.9270 O   0  0  0  0  0  0  0  0  0  0  0  0
  141.6370   80.5440  222.7240 C   0  0  0  0  0  0  0  0  0  0  0  0
  141.5560   80.1220  221.4000 C   0  0  0  0  0  0  0  0  0  0  0  0
  141.4450   78.7870  221.0870 C   0  0  0  0  0  0  0  0  0  0  0  0
  141.4140   77.8710  222.1390 C   0  0  0  0  0  0  0  0  0  0  0  0
  141.2980   76.4980  221.7620 N   0  0  0  0  0  0  0  0  0  0  0  0
  139.9990   75.9610  221.5820 C   0  0  0  0  0  0  0  0  0  0  0  0
  139.0140   76.7490  221.7660 O   0  0  0  0  0  0  0  0  0  0  0  0
  139.6930   74.5800  221.2020 C   0  0  0  0  0  0  0  0  0  0  0  0
  139.5380   73.6490  222.2730 N   0  0  0  0  0  0  0  0  0  0  0  0
  140.4170   72.5430  222.4800 C   0  0  0  0  0  0  0  0  0  0  0  0
  141.4130   72.3250  221.7080 O   0  0  0  0  0  0  0  0  0  0  0  0
  140.1830   71.6200  223.6130 C   0  0  0  0  0  0  0  0  0  0  0  0
  139.4540   70.4700  223.4120 C   0  0  0  0  0  0  0  0  0  0  0  0
  139.2270   69.5910  224.4780 C   0  0  0  0  0  0  0  0  0  0  0  0
  139.7630   69.9370  225.7090 C   0  0  0  0  0  0  0  0  0  0  0  0
  139.5910   69.1270  226.8200 C   0  0  0  0  0  0  0  0  0  0  0  0
  140.1250   69.4700  228.0500 C   0  0  0  0  0  0  0  0  0  0  0  0
  139.9540   68.6800  229.1280 F   0  0  0  0  0  0  0  0  0  0  0  0
  140.8520   70.6320  228.2160 C   0  0  0  0  0  0  0  0  0  0  0  0
  141.0360   71.4560  227.1130 C   0  0  0  0  0  0  0  0  0  0  0  0
  140.4970   71.1000  225.8940 C   0  0  0  0  0  0  0  0  0  0  0  0
  140.6730   71.8890  224.8380 N   0  0  0  0  0  0  0  0  0  0  0  0
  141.4940   78.2790  223.4570 C   0  0  0  0  0  0  0  0  0  0  0  0
  141.6060   79.6320  223.7600 C   0  0  0  0  0  0  0  0  0  0  0  0
  141.0614   83.7255  222.2166 H   0  0  0  0  0  0  0  0  0  0  0  0
  142.3254   82.9236  221.2238 H   0  0  0  0  0  0  0  0  0  0  0  0
  140.6456   82.2874  221.2238 H   0  0  0  0  0  0  0  0  0  0  0  0
  141.5811   80.8675  220.5915 H   0  0  0  0  0  0  0  0  0  0  0  0
  141.3827   78.4524  220.0410 H   0  0  0  0  0  0  0  0  0  0  0  0
  142.1300   75.9160  221.6180 H   0  0  0  0  0  0  0  0  0  0  0  0
  138.7544   74.5903  220.6284 H   0  0  0  0  0  0  0  0  0  0  0  0
  140.5683   74.2311  220.6344 H   0  0  0  0  0  0  0  0  0  0  0  0
  138.7520   73.7290  222.9820 H   0  0  0  0  0  0  0  0  0  0  0  0
  139.0500   70.2416  222.4147 H   0  0  0  0  0  0  0  0  0  0  0  0
  138.6480   68.6653  224.3445 H   0  0  0  0  0  0  0  0  0  0  0  0
  139.0186   68.1927  226.7225 H   0  0  0  0  0  0  0  0  0  0  0  0
  141.2745   70.8983  229.1961 H   0  0  0  0  0  0  0  0  0  0  0  0
  141.6096   72.3894  227.2112 H   0  0  0  0  0  0  0  0  0  0  0  0
  141.4691   77.5342  224.2661 H   0  0  0  0  0  0  0  0  0  0  0  0
  141.6687   79.9689  224.8053 H   0  0  0  0  0  0  0  0  0  0  0  0
  1  2  1  0
  2  3  1  0
  3  4  2  0
  4  5  1  0
  5  6  2  0
  6  7  1  0
  7  8  1  0
  8  9  2  0
  8 10  1  0
 10 11  1  0
 11 12  1  0
 12 13  2  0
 12 14  1  0
 14 15  2  0
 15 16  1  0
 16 17  2  0
 17 18  1  0
 18 19  2  0
 19 20  1  0
 19 21  1  0
 21 22  2  0
 22 23  1  0
 23 24  2  0
  6 25  1  0
 25 26  2  0
 26  3  1  0
 24 14  1  0
 23 17  1  0
  1 27  1  0
  1 28  1  0
  1 29  1  0
  4 30  1  0
  5 31  1  0
  7 32  1  0
 10 33  1  0
 10 34  1  0
 11 35  1  0
 15 36  1  0
 16 37  1  0
 18 38  1  0
 21 39  1  0
 22 40  1  0
 25 41  1  0
 26 42  1  0
M  END
>  <smiles>  (31) 
COc1ccc(NC(=O)CNC(=O)c2ccc3cc(F)ccc3n2)cc1

>  <score_type>  (31) 
oracle

>  <origin>  (31) 
autodockgpu

>  <m_score__min__energy>  (31) 
-8.4100000000000001

>  <m_primary>  (31) 
energy

>  <rmsd>  (31) 
3.099278265537881

>  <m_score__min__rmsd>  (31) 
3.099278265537881

>  <meeko>  (31) 
{"free_energy": -8.39, "intermolecular_energy": -9.88, "internal_energy": -0.83, "cluster_size": 36, "cluster_id": 1, "rank_in_cluster": 2}

>  <energy>  (31) 
-7.59

>  <cluster_rmsd>  (31) 
1.01

>  <cluster>  (31) 
1

$$$$

     RDKit          3D

 42 44  0  0  0  0  0  0  0  0999 V2000
  141.1870   81.2340  223.0990 C   0  0  0  0  0  0  0  0  0  0  0  0
  139.9460   80.5520  223.1210 O   0  0  0  0  0  0  0  0  0  0  0  0
  139.9720   79.1760  222.9250 C   0  0  0  0  0  0  0  0  0  0  0  0
  138.7420   78.5610  222.7110 C   0  0  0  0  0  0  0  0  0  0  0  0
  138.6550   77.2030  222.5070 C   0  0  0  0  0  0  0  0  0  0  0  0
  139.8370   76.4640  222.5220 C   0  0  0  0  0  0  0  0  0  0  0  0
  139.6930   75.0600  222.3050 N   0  0  0  0  0  0  0  0  0  0  0  0
  140.4020   74.4720  221.2280 C   0  0  0  0  0  0  0  0  0  0  0  0
  141.1320   75.2440  220.5230 O   0  0  0  0  0  0  0  0  0  0  0  0
  140.3700   73.0550  220.8570 C   0  0  0  0  0  0  0  0  0  0  0  0
  140.4440   72.1200  221.9330 N   0  0  0  0  0  0  0  0  0  0  0  0
  139.3650   71.8810  222.8360 C   0  0  0  0  0  0  0  0  0  0  0  0
  138.2500   72.4980  222.7260 O   0  0  0  0  0  0  0  0  0  0  0  0
  139.5250   70.8980  223.9300 C   0  0  0  0  0  0  0  0  0  0  0  0
  139.0670   69.6100  223.7600 C   0  0  0  0  0  0  0  0  0  0  0  0
  139.2140   68.6750  224.7900 C   0  0  0  0  0  0  0  0  0  0  0  0
  139.8300   69.1050  225.9550 C   0  0  0  0  0  0  0  0  0  0  0  0
  140.0190   68.2480  227.0270 C   0  0  0  0  0  0  0  0  0  0  0  0
  140.6340   68.6760  228.1910 C   0  0  0  0  0  0  0  0  0  0  0  0
  140.8160   67.8390  229.2310 F   0  0  0  0  0  0  0  0  0  0  0  0
  141.0830   69.9740  228.3280 C   0  0  0  0  0  0  0  0  0  0  0  0
  140.9020   70.8480  227.2640 C   0  0  0  0  0  0  0  0  0  0  0  0
  140.2870   70.4060  226.1100 C   0  0  0  0  0  0  0  0  0  0  0  0
  140.1140   71.2430  225.0910 N   0  0  0  0  0  0  0  0  0  0  0  0
  141.0640   77.0640  222.7330 C   0  0  0  0  0  0  0  0  0  0  0  0
  141.1390   78.4380  222.9390 C   0  0  0  0  0  0  0  0  0  0  0  0
  141.5224   81.4183  224.1303 H   0  0  0  0  0  0  0  0  0  0  0  0
  141.9338   80.6196  222.5748 H   0  0  0  0  0  0  0  0  0  0  0  0
  141.0687   82.1938  222.5748 H   0  0  0  0  0  0  0  0  0  0  0  0
  137.8257   79.1696  222.7048 H   0  0  0  0  0  0  0  0  0  0  0  0
  137.6834   76.7159  222.3374 H   0  0  0  0  0  0  0  0  0  0  0  0
  139.0980   74.4880  222.9140 H   0  0  0  0  0  0  0  0  0  0  0  0
  139.4299   72.8708  220.3164 H   0  0  0  0  0  0  0  0  0  0  0  0
  141.2772   72.8870  220.2581 H   0  0  0  0  0  0  0  0  0  0  0  0
  141.3150   71.5440  222.1220 H   0  0  0  0  0  0  0  0  0  0  0  0
  138.5861   69.3170  222.8151 H   0  0  0  0  0  0  0  0  0  0  0  0
  138.8555   67.6409  224.6800 H   0  0  0  0  0  0  0  0  0  0  0  0
  139.6734   67.2064  226.9517 H   0  0  0  0  0  0  0  0  0  0  0  0
  141.5713   70.3074  229.2556 H   0  0  0  0  0  0  0  0  0  0  0  0
  141.2477   71.8894  227.3407 H   0  0  0  0  0  0  0  0  0  0  0  0
  141.9805   76.4558  222.7381 H   0  0  0  0  0  0  0  0  0  0  0  0
  142.1094   78.9270  223.1097 H   0  0  0  0  0  0  0  0  0  0  0  0
  1  2  1  0
  2  3  1  0
  3  4  2  0
  4  5  1  0
  5  6  2  0
  6  7  1  0
  7  8  1  0
  8  9  2  0
  8 10  1  0
 10 11  1  0
 11 12  1  0
 12 13  2  0
 12 14  1  0
 14 15  2  0
 15 16  1  0
 16 17  2  0
 17 18  1  0
 18 19  2  0
 19 20  1  0
 19 21  1  0
 21 22  2  0
 22 23  1  0
 23 24  2  0
  6 25  1  0
 25 26  2  0
 26  3  1  0
 24 14  1  0
 23 17  1  0
  1 27  1  0
  1 28  1  0
  1 29  1  0
  4 30  1  0
  5 31  1  0
  7 32  1  0
 10 33  1  0
 10 34  1  0
 11 35  1  0
 15 36  1  0
 16 37  1  0
 18 38  1  0
 21 39  1  0
 22 40  1  0
 25 41  1  0
 26 42  1  0
M  END
>  <smiles>  (32) 
COc1ccc(NC(=O)CNC(=O)c2ccc3cc(F)ccc3n2)cc1

>  <score_type>  (32) 
oracle

>  <origin>  (32) 
autodockgpu

>  <m_score__min__energy>  (32) 
-8.4100000000000001

>  <m_primary>  (32) 
energy

>  <rmsd>  (32) 
3.178714076141868

>  <m_score__min__rmsd>  (32) 
3.178714076141868

>  <meeko>  (32) 
{"free_energy": -7.19, "intermolecular_energy": -8.68, "internal_energy": -1.49, "cluster_size": 36, "cluster_id": 1, "rank_in_cluster": 36}

>  <energy>  (32) 
-7.58

>  <cluster_rmsd>  (32) 
1.42

>  <cluster>  (32) 
1

$$$$

     RDKit          3D

 42 44  0  0  0  0  0  0  0  0999 V2000
  142.9110   80.7670  224.0980 C   0  0  0  0  0  0  0  0  0  0  0  0
  142.3740   80.7040  222.7880 O   0  0  0  0  0  0  0  0  0  0  0  0
  141.9140   79.4690  222.3480 C   0  0  0  0  0  0  0  0  0  0  0  0
  141.5340   78.5650  223.3360 C   0  0  0  0  0  0  0  0  0  0  0  0
  141.0630   77.3140  223.0090 C   0  0  0  0  0  0  0  0  0  0  0  0
  140.9800   76.9810  221.6580 C   0  0  0  0  0  0  0  0  0  0  0  0
  140.4860   75.6720  221.3710 N   0  0  0  0  0  0  0  0  0  0  0  0
  139.1010   75.4260  221.5450 C   0  0  0  0  0  0  0  0  0  0  0  0
  138.3840   76.4010  221.9450 O   0  0  0  0  0  0  0  0  0  0  0  0
  138.4250   74.1490  221.3040 C   0  0  0  0  0  0  0  0  0  0  0  0
  138.5780   73.1520  222.3140 N   0  0  0  0  0  0  0  0  0  0  0  0
  139.8480   72.6480  222.7270 C   0  0  0  0  0  0  0  0  0  0  0  0
  140.9380   73.0730  222.2120 O   0  0  0  0  0  0  0  0  0  0  0  0
  139.9200   71.6090  223.7780 C   0  0  0  0  0  0  0  0  0  0  0  0
  139.5000   70.3280  223.4980 C   0  0  0  0  0  0  0  0  0  0  0  0
  139.5640   69.3390  224.4860 C   0  0  0  0  0  0  0  0  0  0  0  0
  140.0600   69.7130  225.7260 C   0  0  0  0  0  0  0  0  0  0  0  0
  140.1600   68.8020  226.7640 C   0  0  0  0  0  0  0  0  0  0  0  0
  140.6550   69.1720  228.0030 C   0  0  0  0  0  0  0  0  0  0  0  0
  140.7510   68.2830  229.0090 F   0  0  0  0  0  0  0  0  0  0  0  0
  141.0680   70.4660  228.2500 C   0  0  0  0  0  0  0  0  0  0  0  0
  140.9750   71.3950  227.2210 C   0  0  0  0  0  0  0  0  0  0  0  0
  140.4790   71.0090  225.9920 C   0  0  0  0  0  0  0  0  0  0  0  0
  140.3900   71.8970  225.0060 N   0  0  0  0  0  0  0  0  0  0  0  0
  141.3540   77.8710  220.6680 C   0  0  0  0  0  0  0  0  0  0  0  0
  141.8280   79.1330  221.0120 C   0  0  0  0  0  0  0  0  0  0  0  0
  142.0978   80.6716  224.8326 H   0  0  0  0  0  0  0  0  0  0  0  0
  143.6306   79.9471  224.2391 H   0  0  0  0  0  0  0  0  0  0  0  0
  143.4213   81.7312  224.2391 H   0  0  0  0  0  0  0  0  0  0  0  0
  141.6114   78.8550  224.3942 H   0  0  0  0  0  0  0  0  0  0  0  0
  140.7616   76.5994  223.7891 H   0  0  0  0  0  0  0  0  0  0  0  0
  141.1120   74.9300  221.0410 H   0  0  0  0  0  0  0  0  0  0  0  0
  137.3497   74.3542  221.1958 H   0  0  0  0  0  0  0  0  0  0  0  0
  138.9003   73.7307  220.4045 H   0  0  0  0  0  0  0  0  0  0  0  0
  137.7470   72.7260  222.8180 H   0  0  0  0  0  0  0  0  0  0  0  0
  139.1142   70.0820  222.4977 H   0  0  0  0  0  0  0  0  0  0  0  0
  139.2348   68.3084  224.2875 H   0  0  0  0  0  0  0  0  0  0  0  0
  139.8394   67.7625  226.6008 H   0  0  0  0  0  0  0  0  0  0  0  0
  141.4607   70.7542  229.2363 H   0  0  0  0  0  0  0  0  0  0  0  0
  141.2955   72.4344  227.3851 H   0  0  0  0  0  0  0  0  0  0  0  0
  141.2768   77.5815  219.6096 H   0  0  0  0  0  0  0  0  0  0  0  0
  142.1287   79.8498  220.2336 H   0  0  0  0  0  0  0  0  0  0  0  0
  1  2  1  0
  2  3  1  0
  3  4  2  0
  4  5  1  0
  5  6  2  0
  6  7  1  0
  7  8  1  0
  8  9  2  0
  8 10  1  0
 10 11  1  0
 11 12  1  0
 12 13  2  0
 12 14  1  0
 14 15  2  0
 15 16  1  0
 16 17  2  0
 17 18  1  0
 18 19  2  0
 19 20  1  0
 19 21  1  0
 21 22  2  0
 22 23  1  0
 23 24  2  0
  6 25  1  0
 25 26  2  0
 26  3  1  0
 24 14  1  0
 23 17  1  0
  1 27  1  0
  1 28  1  0
  1 29  1  0
  4 30  1  0
  5 31  1  0
  7 32  1  0
 10 33  1  0
 10 34  1  0
 11 35  1  0
 15 36  1  0
 16 37  1  0
 18 38  1  0
 21 39  1  0
 22 40  1  0
 25 41  1  0
 26 42  1  0
M  END
>  <smiles>  (33) 
COc1ccc(NC(=O)CNC(=O)c2ccc3cc(F)ccc3n2)cc1

>  <score_type>  (33) 
oracle

>  <origin>  (33) 
autodockgpu

>  <m_score__min__energy>  (33) 
-8.4100000000000001

>  <m_primary>  (33) 
energy

>  <rmsd>  (33) 
3.1660293815218377

>  <m_score__min__rmsd>  (33) 
3.1660293815218377

>  <meeko>  (33) 
{"free_energy": -7.66, "intermolecular_energy": -9.15, "internal_energy": -1.49, "cluster_size": 36, "cluster_id": 1, "rank_in_cluster": 23}

>  <energy>  (33) 
-7.58

>  <cluster_rmsd>  (33) 
1.62

>  <cluster>  (33) 
1

$$$$

     RDKit          3D

 42 44  0  0  0  0  0  0  0  0999 V2000
  141.4410   81.4880  221.9040 C   0  0  0  0  0  0  0  0  0  0  0  0
  140.9970   80.8140  223.0680 O   0  0  0  0  0  0  0  0  0  0  0  0
  140.4890   79.5310  222.9060 C   0  0  0  0  0  0  0  0  0  0  0  0
  141.4260   78.5110  222.7630 C   0  0  0  0  0  0  0  0  0  0  0  0
  141.0300   77.2040  222.5960 C   0  0  0  0  0  0  0  0  0  0  0  0
  139.6620   76.9340  222.5750 C   0  0  0  0  0  0  0  0  0  0  0  0
  139.3040   75.5630  222.4000 N   0  0  0  0  0  0  0  0  0  0  0  0
  138.7930   75.1590  221.1410 C   0  0  0  0  0  0  0  0  0  0  0  0
  138.6920   76.0560  220.2410 O   0  0  0  0  0  0  0  0  0  0  0  0
  138.3730   73.8010  220.7870 C   0  0  0  0  0  0  0  0  0  0  0  0
  138.4960   72.8150  221.8100 N   0  0  0  0  0  0  0  0  0  0  0  0
  139.6930   72.6130  222.5620 C   0  0  0  0  0  0  0  0  0  0  0  0
  140.7380   73.3220  222.3590 O   0  0  0  0  0  0  0  0  0  0  0  0
  139.7400   71.5640  223.6030 C   0  0  0  0  0  0  0  0  0  0  0  0
  139.1880   70.3280  223.3480 C   0  0  0  0  0  0  0  0  0  0  0  0
  139.2280   69.3300  224.3280 C   0  0  0  0  0  0  0  0  0  0  0  0
  139.8370   69.6470  225.5330 C   0  0  0  0  0  0  0  0  0  0  0  0
  139.9230   68.7210  226.5600 C   0  0  0  0  0  0  0  0  0  0  0  0
  140.5300   69.0360  227.7630 C   0  0  0  0  0  0  0  0  0  0  0  0
  140.6120   68.1330  228.7590 F   0  0  0  0  0  0  0  0  0  0  0  0
  141.0750   70.2850  227.9850 C   0  0  0  0  0  0  0  0  0  0  0  0
  140.9970   71.2260  226.9670 C   0  0  0  0  0  0  0  0  0  0  0  0
  140.3890   70.8970  225.7730 C   0  0  0  0  0  0  0  0  0  0  0  0
  140.3150   71.7980  224.7970 N   0  0  0  0  0  0  0  0  0  0  0  0
  138.7230   77.9390  222.7160 C   0  0  0  0  0  0  0  0  0  0  0  0
  139.1370   79.2570  222.8840 C   0  0  0  0  0  0  0  0  0  0  0  0
  142.0248   82.3742  222.1936 H   0  0  0  0  0  0  0  0  0  0  0  0
  142.0715   80.8125  221.3072 H   0  0  0  0  0  0  0  0  0  0  0  0
  140.5715   81.8007  221.3072 H   0  0  0  0  0  0  0  0  0  0  0  0
  142.4987   78.7538  222.7839 H   0  0  0  0  0  0  0  0  0  0  0  0
  141.7692   76.3974  222.4826 H   0  0  0  0  0  0  0  0  0  0  0  0
  139.4180   74.8840  223.1610 H   0  0  0  0  0  0  0  0  0  0  0  0
  137.3151   73.8444  220.4887 H   0  0  0  0  0  0  0  0  0  0  0  0
  139.0574   73.4812  219.9874 H   0  0  0  0  0  0  0  0  0  0  0  0
  137.6950   72.1690  222.0730 H   0  0  0  0  0  0  0  0  0  0  0  0
  138.7163   70.1257  222.3751 H   0  0  0  0  0  0  0  0  0  0  0  0
  138.7942   68.3349  224.1500 H   0  0  0  0  0  0  0  0  0  0  0  0
  139.5005   67.7156  226.4163 H   0  0  0  0  0  0  0  0  0  0  0  0
  141.5581   70.5281  228.9429 H   0  0  0  0  0  0  0  0  0  0  0  0
  141.4189   72.2314  227.1121 H   0  0  0  0  0  0  0  0  0  0  0  0
  137.6501   77.6971  222.6954 H   0  0  0  0  0  0  0  0  0  0  0  0
  138.3998   80.0655  222.9972 H   0  0  0  0  0  0  0  0  0  0  0  0
  1  2  1  0
  2  3  1  0
  3  4  2  0
  4  5  1  0
  5  6  2  0
  6  7  1  0
  7  8  1  0
  8  9  2  0
  8 10  1  0
 10 11  1  0
 11 12  1  0
 12 13  2  0
 12 14  1  0
 14 15  2  0
 15 16  1  0
 16 17  2  0
 17 18  1  0
 18 19  2  0
 19 20  1  0
 19 21  1  0
 21 22  2  0
 22 23  1  0
 23 24  2  0
  6 25  1  0
 25 26  2  0
 26  3  1  0
 24 14  1  0
 23 17  1  0
  1 27  1  0
  1 28  1  0
  1 29  1  0
  4 30  1  0
  5 31  1  0
  7 32  1  0
 10 33  1  0
 10 34  1  0
 11 35  1  0
 15 36  1  0
 16 37  1  0
 18 38  1  0
 21 39  1  0
 22 40  1  0
 25 41  1  0
 26 42  1  0
M  END
>  <smiles>  (34) 
COc1ccc(NC(=O)CNC(=O)c2ccc3cc(F)ccc3n2)cc1

>  <score_type>  (34) 
oracle

>  <origin>  (34) 
autodockgpu

>  <m_score__min__energy>  (34) 
-8.4100000000000001

>  <m_primary>  (34) 
energy

>  <rmsd>  (34) 
3.1137867919650937

>  <m_score__min__rmsd>  (34) 
3.1137867919650937

>  <meeko>  (34) 
{"free_energy": -7.57, "intermolecular_energy": -9.06, "internal_energy": -1.43, "cluster_size": 36, "cluster_id": 1, "rank_in_cluster": 34}

>  <energy>  (34) 
-7.57

>  <cluster_rmsd>  (34) 
1.34

>  <cluster>  (34) 
1

$$$$

     RDKit          3D

 42 44  0  0  0  0  0  0  0  0999 V2000
  141.8180   81.0610  223.4520 C   0  0  0  0  0  0  0  0  0  0  0  0
  140.6730   80.6710  222.7150 O   0  0  0  0  0  0  0  0  0  0  0  0
  140.4270   79.3090  222.5950 C   0  0  0  0  0  0  0  0  0  0  0  0
  139.1140   78.8990  222.8100 C   0  0  0  0  0  0  0  0  0  0  0  0
  138.7610   77.5720  222.7160 C   0  0  0  0  0  0  0  0  0  0  0  0
  139.7600   76.6530  222.4000 C   0  0  0  0  0  0  0  0  0  0  0  0
  139.3430   75.2890  222.3150 N   0  0  0  0  0  0  0  0  0  0  0  0
  138.8020   74.8300  221.0880 C   0  0  0  0  0  0  0  0  0  0  0  0
  138.7300   75.6720  220.1340 O   0  0  0  0  0  0  0  0  0  0  0  0
  138.3230   73.4710  220.8230 C   0  0  0  0  0  0  0  0  0  0  0  0
  138.4440   72.5380  221.8960 N   0  0  0  0  0  0  0  0  0  0  0  0
  139.6480   72.3590  222.6440 C   0  0  0  0  0  0  0  0  0  0  0  0
  140.6990   73.0420  222.3930 O   0  0  0  0  0  0  0  0  0  0  0  0
  139.6920   71.3650  223.7380 C   0  0  0  0  0  0  0  0  0  0  0  0
  139.1210   70.1260  223.5550 C   0  0  0  0  0  0  0  0  0  0  0  0
  139.1590   69.1800  224.5850 C   0  0  0  0  0  0  0  0  0  0  0  0
  139.7850   69.5510  225.7650 C   0  0  0  0  0  0  0  0  0  0  0  0
  139.8710   68.6800  226.8390 C   0  0  0  0  0  0  0  0  0  0  0  0
  140.4960   69.0490  228.0170 C   0  0  0  0  0  0  0  0  0  0  0  0
  140.5760   68.1980  229.0590 F   0  0  0  0  0  0  0  0  0  0  0  0
  141.0590   70.3000  228.1670 C   0  0  0  0  0  0  0  0  0  0  0  0
  140.9830   71.1880  227.1020 C   0  0  0  0  0  0  0  0  0  0  0  0
  140.3570   70.8050  225.9340 C   0  0  0  0  0  0  0  0  0  0  0  0
  140.2840   71.6540  224.9130 N   0  0  0  0  0  0  0  0  0  0  0  0
  141.0670   77.0480  222.1850 C   0  0  0  0  0  0  0  0  0  0  0  0
  141.4110   78.3930  222.2830 C   0  0  0  0  0  0  0  0  0  0  0  0
  141.6036   80.9880  224.5284 H   0  0  0  0  0  0  0  0  0  0  0  0
  142.6594   80.3988  223.2000 H   0  0  0  0  0  0  0  0  0  0  0  0
  142.0802   82.0991  223.2000 H   0  0  0  0  0  0  0  0  0  0  0  0
  138.3469   79.6471  223.0588 H   0  0  0  0  0  0  0  0  0  0  0  0
  137.7237   77.2472  222.8849 H   0  0  0  0  0  0  0  0  0  0  0  0
  139.4380   74.6550  223.1160 H   0  0  0  0  0  0  0  0  0  0  0  0
  137.2583   73.5372  220.5548 H   0  0  0  0  0  0  0  0  0  0  0  0
  138.9695   73.0828  220.0222 H   0  0  0  0  0  0  0  0  0  0  0  0
  137.6380   71.9190  222.2010 H   0  0  0  0  0  0  0  0  0  0  0  0
  138.6351   69.8798  222.5994 H   0  0  0  0  0  0  0  0  0  0  0  0
  138.7106   68.1829  224.4636 H   0  0  0  0  0  0  0  0  0  0  0  0
  139.4334   67.6744  226.7534 H   0  0  0  0  0  0  0  0  0  0  0  0
  141.5552   70.5864  229.1060 H   0  0  0  0  0  0  0  0  0  0  0  0
  141.4205   72.1934  227.1895 H   0  0  0  0  0  0  0  0  0  0  0  0
  141.8345   76.3001  221.9367 H   0  0  0  0  0  0  0  0  0  0  0  0
  142.4478   78.7198  222.1149 H   0  0  0  0  0  0  0  0  0  0  0  0
  1  2  1  0
  2  3  1  0
  3  4  2  0
  4  5  1  0
  5  6  2  0
  6  7  1  0
  7  8  1  0
  8  9  2  0
  8 10  1  0
 10 11  1  0
 11 12  1  0
 12 13  2  0
 12 14  1  0
 14 15  2  0
 15 16  1  0
 16 17  2  0
 17 18  1  0
 18 19  2  0
 19 20  1  0
 19 21  1  0
 21 22  2  0
 22 23  1  0
 23 24  2  0
  6 25  1  0
 25 26  2  0
 26  3  1  0
 24 14  1  0
 23 17  1  0
  1 27  1  0
  1 28  1  0
  1 29  1  0
  4 30  1  0
  5 31  1  0
  7 32  1  0
 10 33  1  0
 10 34  1  0
 11 35  1  0
 15 36  1  0
 16 37  1  0
 18 38  1  0
 21 39  1  0
 22 40  1  0
 25 41  1  0
 26 42  1  0
M  END
>  <smiles>  (35) 
COc1ccc(NC(=O)CNC(=O)c2ccc3cc(F)ccc3n2)cc1

>  <score_type>  (35) 
oracle

>  <origin>  (35) 
autodockgpu

>  <m_score__min__energy>  (35) 
-8.4100000000000001

>  <m_primary>  (35) 
energy

>  <rmsd>  (35) 
3.086253143507215

>  <m_score__min__rmsd>  (35) 
3.086253143507215

>  <meeko>  (35) 
{"free_energy": -7.62, "intermolecular_energy": -9.11, "internal_energy": -1.42, "cluster_size": 36, "cluster_id": 1, "rank_in_cluster": 26}

>  <energy>  (35) 
-7.44

>  <cluster_rmsd>  (35) 
1.57

>  <cluster>  (35) 
1

$$$$

     RDKit          3D

 42 44  0  0  0  0  0  0  0  0999 V2000
  139.6750   67.7850  226.9890 C   0  0  0  0  0  0  0  0  0  0  0  0
  138.9670   68.0310  225.7870 O   0  0  0  0  0  0  0  0  0  0  0  0
  139.2770   69.1930  225.0920 C   0  0  0  0  0  0  0  0  0  0  0  0
  138.3840   69.5700  224.0930 C   0  0  0  0  0  0  0  0  0  0  0  0
  138.5950   70.7050  223.3440 C   0  0  0  0  0  0  0  0  0  0  0  0
  139.7340   71.4630  223.6170 C   0  0  0  0  0  0  0  0  0  0  0  0
  139.9080   72.6300  222.8120 N   0  0  0  0  0  0  0  0  0  0  0  0
  140.6110   72.5010  221.5880 C   0  0  0  0  0  0  0  0  0  0  0  0
  141.0390   71.3390  221.2840 O   0  0  0  0  0  0  0  0  0  0  0  0
  140.8860   73.5870  220.6440 C   0  0  0  0  0  0  0  0  0  0  0  0
  141.0250   74.8920  221.2050 N   0  0  0  0  0  0  0  0  0  0  0  0
  139.9380   75.6100  221.7900 C   0  0  0  0  0  0  0  0  0  0  0  0
  138.7620   75.1140  221.8500 O   0  0  0  0  0  0  0  0  0  0  0  0
  140.1660   76.9630  222.3440 C   0  0  0  0  0  0  0  0  0  0  0  0
  139.0970   77.6950  222.8120 C   0  0  0  0  0  0  0  0  0  0  0  0
  139.3030   78.9750  223.3370 C   0  0  0  0  0  0  0  0  0  0  0  0
  140.6050   79.4490  223.3600 C   0  0  0  0  0  0  0  0  0  0  0  0
  140.9040   80.7050  223.8630 C   0  0  0  0  0  0  0  0  0  0  0  0
  142.2040   81.1810  223.8860 C   0  0  0  0  0  0  0  0  0  0  0  0
  142.4900   82.4030  224.3760 F   0  0  0  0  0  0  0  0  0  0  0  0
  143.2530   80.4200  223.4100 C   0  0  0  0  0  0  0  0  0  0  0  0
  142.9730   79.1580  222.9020 C   0  0  0  0  0  0  0  0  0  0  0  0
  141.6720   78.6990  222.8850 C   0  0  0  0  0  0  0  0  0  0  0  0
  141.4030   77.4900  222.3990 N   0  0  0  0  0  0  0  0  0  0  0  0
  140.6280   71.0980  224.6060 C   0  0  0  0  0  0  0  0  0  0  0  0
  140.4010   69.9480  225.3560 C   0  0  0  0  0  0  0  0  0  0  0  0
  139.0270   68.0102  227.8489 H   0  0  0  0  0  0  0  0  0  0  0  0
  139.9791   66.7285  227.0258 H   0  0  0  0  0  0  0  0  0  0  0  0
  140.5687   68.4253  227.0258 H   0  0  0  0  0  0  0  0  0  0  0  0
  137.4956   68.9509  223.8992 H   0  0  0  0  0  0  0  0  0  0  0  0
  137.8887   71.0048  222.5558 H   0  0  0  0  0  0  0  0  0  0  0  0
  139.5300   73.5370  223.1060 H   0  0  0  0  0  0  0  0  0  0  0  0
  141.8224   73.3461  220.1195 H   0  0  0  0  0  0  0  0  0  0  0  0
  140.0014   73.6404  219.9923 H   0  0  0  0  0  0  0  0  0  0  0  0
  141.9530   75.4060  221.2180 H   0  0  0  0  0  0  0  0  0  0  0  0
  138.0819   77.2731  222.7728 H   0  0  0  0  0  0  0  0  0  0  0  0
  138.4663   79.5802  223.7159 H   0  0  0  0  0  0  0  0  0  0  0  0
  140.0920   81.3369  224.2520 H   0  0  0  0  0  0  0  0  0  0  0  0
  144.2838   80.8032  223.4325 H   0  0  0  0  0  0  0  0  0  0  0  0
  143.7860   78.5264  222.5144 H   0  0  0  0  0  0  0  0  0  0  0  0
  141.5174   71.7155  224.7999 H   0  0  0  0  0  0  0  0  0  0  0  0
  141.1053   69.6463  226.1453 H   0  0  0  0  0  0  0  0  0  0  0  0
  1  2  1  0
  2  3  1  0
  3  4  2  0
  4  5  1  0
  5  6  2  0
  6  7  1  0
  7  8  1  0
  8  9  2  0
  8 10  1  0
 10 11  1  0
 11 12  1  0
 12 13  2  0
 12 14  1  0
 14 15  2  0
 15 16  1  0
 16 17  2  0
 17 18  1  0
 18 19  2  0
 19 20  1  0
 19 21  1  0
 21 22  2  0
 22 23  1  0
 23 24  2  0
  6 25  1  0
 25 26  2  0
 26  3  1  0
 24 14  1  0
 23 17  1  0
  1 27  1  0
  1 28  1  0
  1 29  1  0
  4 30  1  0
  5 31  1  0
  7 32  1  0
 10 33  1  0
 10 34  1  0
 11 35  1  0
 15 36  1  0
 16 37  1  0
 18 38  1  0
 21 39  1  0
 22 40  1  0
 25 41  1  0
 26 42  1  0
M  END
>  <smiles>  (36) 
COc1ccc(NC(=O)CNC(=O)c2ccc3cc(F)ccc3n2)cc1

>  <score_type>  (36) 
oracle

>  <origin>  (36) 
autodockgpu

>  <m_score__min__energy>  (36) 
-8.4100000000000001

>  <m_primary>  (36) 
energy

>  <rmsd>  (36) 
8.803518348400686

>  <m_score__min__rmsd>  (36) 
8.803518348400686

>  <meeko>  (36) 
{"free_energy": -7.36, "intermolecular_energy": -8.85, "internal_energy": -1.86, "cluster_size": 14, "cluster_id": 2, "rank_in_cluster": 8}

>  <energy>  (36) 
-7.19

>  <cluster_rmsd>  (36) 
1.74

>  <cluster>  (36) 
1

$$$$

     RDKit          3D

 42 44  0  0  0  0  0  0  0  0999 V2000
  141.8200   81.2720  222.2280 C   0  0  0  0  0  0  0  0  0  0  0  0
  140.6640   80.7670  222.8710 O   0  0  0  0  0  0  0  0  0  0  0  0
  140.4000   79.4100  222.7330 C   0  0  0  0  0  0  0  0  0  0  0  0
  139.0650   79.0290  222.8270 C   0  0  0  0  0  0  0  0  0  0  0  0
  138.6930   77.7090  222.7050 C   0  0  0  0  0  0  0  0  0  0  0  0
  139.6980   76.7670  222.4870 C   0  0  0  0  0  0  0  0  0  0  0  0
  139.2620   75.4120  222.3680 N   0  0  0  0  0  0  0  0  0  0  0  0
  138.8980   74.9360  221.0840 C   0  0  0  0  0  0  0  0  0  0  0  0
  138.9920   75.7560  220.1120 O   0  0  0  0  0  0  0  0  0  0  0  0
  138.4270   73.5830  220.7780 C   0  0  0  0  0  0  0  0  0  0  0  0
  138.5470   72.6210  221.8250 N   0  0  0  0  0  0  0  0  0  0  0  0
  139.7010   72.5140  222.6590 C   0  0  0  0  0  0  0  0  0  0  0  0
  140.7050   73.2920  222.5150 O   0  0  0  0  0  0  0  0  0  0  0  0
  139.7490   71.4830  223.7190 C   0  0  0  0  0  0  0  0  0  0  0  0
  139.2090   70.2390  223.4830 C   0  0  0  0  0  0  0  0  0  0  0  0
  139.2500   69.2580  224.4800 C   0  0  0  0  0  0  0  0  0  0  0  0
  139.8470   69.6020  225.6830 C   0  0  0  0  0  0  0  0  0  0  0  0
  139.9340   68.6960  226.7280 C   0  0  0  0  0  0  0  0  0  0  0  0
  140.5300   69.0360  227.9290 C   0  0  0  0  0  0  0  0  0  0  0  0
  140.6120   68.1520  228.9420 F   0  0  0  0  0  0  0  0  0  0  0  0
  141.0630   70.2940  228.1320 C   0  0  0  0  0  0  0  0  0  0  0  0
  140.9850   71.2160  227.0970 C   0  0  0  0  0  0  0  0  0  0  0  0
  140.3880   70.8610  225.9050 C   0  0  0  0  0  0  0  0  0  0  0  0
  140.3140   71.7440  224.9130 N   0  0  0  0  0  0  0  0  0  0  0  0
  141.0280   77.1340  222.3920 C   0  0  0  0  0  0  0  0  0  0  0  0
  141.3890   78.4720  222.5170 C   0  0  0  0  0  0  0  0  0  0  0  0
  142.5509   81.5913  222.9855 H   0  0  0  0  0  0  0  0  0  0  0  0
  142.2631   80.4855  221.5995 H   0  0  0  0  0  0  0  0  0  0  0  0
  141.5440   82.1315  221.5995 H   0  0  0  0  0  0  0  0  0  0  0  0
  138.2946   79.7946  223.0015 H   0  0  0  0  0  0  0  0  0  0  0  0
  137.6376   77.4073  222.7771 H   0  0  0  0  0  0  0  0  0  0  0  0
  139.2180   74.7960  223.1870 H   0  0  0  0  0  0  0  0  0  0  0  0
  137.3634   73.6517  220.5060 H   0  0  0  0  0  0  0  0  0  0  0  0
  139.0794   73.2206  219.9699 H   0  0  0  0  0  0  0  0  0  0  0  0
  137.7770   71.9240  222.0430 H   0  0  0  0  0  0  0  0  0  0  0  0
  138.7453   70.0161  222.5107 H   0  0  0  0  0  0  0  0  0  0  0  0
  138.8264   68.2561  224.3161 H   0  0  0  0  0  0  0  0  0  0  0  0
  139.5203   67.6849  226.5996 H   0  0  0  0  0  0  0  0  0  0  0  0
  141.5369   70.5584  229.0888 H   0  0  0  0  0  0  0  0  0  0  0  0
  141.3982   72.2271  227.2270 H   0  0  0  0  0  0  0  0  0  0  0  0
  141.7993   76.3693  222.2179 H   0  0  0  0  0  0  0  0  0  0  0  0
  142.4435   78.7766  222.4450 H   0  0  0  0  0  0  0  0  0  0  0  0
  1  2  1  0
  2  3  1  0
  3  4  2  0
  4  5  1  0
  5  6  2  0
  6  7  1  0
  7  8  1  0
  8  9  2  0
  8 10  1  0
 10 11  1  0
 11 12  1  0
 12 13  2  0
 12 14  1  0
 14 15  2  0
 15 16  1  0
 16 17  2  0
 17 18  1  0
 18 19  2  0
 19 20  1  0
 19 21  1  0
 21 22  2  0
 22 23  1  0
 23 24  2  0
  6 25  1  0
 25 26  2  0
 26  3  1  0
 24 14  1  0
 23 17  1  0
  1 27  1  0
  1 28  1  0
  1 29  1  0
  4 30  1  0
  5 31  1  0
  7 32  1  0
 10 33  1  0
 10 34  1  0
 11 35  1  0
 15 36  1  0
 16 37  1  0
 18 38  1  0
 21 39  1  0
 22 40  1  0
 25 41  1  0
 26 42  1  0
M  END
>  <smiles>  (37) 
COc1ccc(NC(=O)CNC(=O)c2ccc3cc(F)ccc3n2)cc1

>  <score_type>  (37) 
oracle

>  <origin>  (37) 
autodockgpu

>  <m_score__min__energy>  (37) 
-8.4100000000000001

>  <m_primary>  (37) 
energy

>  <rmsd>  (37) 
3.137541238441306

>  <m_score__min__rmsd>  (37) 
3.137541238441306

>  <meeko>  (37) 
{"free_energy": -7.59, "intermolecular_energy": -9.08, "internal_energy": -1.34, "cluster_size": 36, "cluster_id": 1, "rank_in_cluster": 30}

>  <energy>  (37) 
-7.48

>  <cluster_rmsd>  (37) 
0.0

>  <cluster>  (37) 
2

$$$$

     RDKit          3D

 42 44  0  0  0  0  0  0  0  0999 V2000
  141.1590   82.7750  221.5990 C   0  0  0  0  0  0  0  0  0  0  0  0
  141.7300   82.0100  222.6450 O   0  0  0  0  0  0  0  0  0  0  0  0
  141.6240   80.6280  222.5530 C   0  0  0  0  0  0  0  0  0  0  0  0
  141.5640   80.0980  221.2670 C   0  0  0  0  0  0  0  0  0  0  0  0
  141.4580   78.7420  221.0620 C   0  0  0  0  0  0  0  0  0  0  0  0
  141.4120   77.9150  222.1850 C   0  0  0  0  0  0  0  0  0  0  0  0
  141.3020   76.5160  221.9200 N   0  0  0  0  0  0  0  0  0  0  0  0
  140.0350   76.0020  221.5460 C   0  0  0  0  0  0  0  0  0  0  0  0
  139.0730   76.8340  221.4660 O   0  0  0  0  0  0  0  0  0  0  0  0
  139.7390   74.6000  221.2420 C   0  0  0  0  0  0  0  0  0  0  0  0
  139.7650   73.6960  222.3460 N   0  0  0  0  0  0  0  0  0  0  0  0
  140.0500   72.3030  222.2090 C   0  0  0  0  0  0  0  0  0  0  0  0
  140.3080   71.7820  221.0700 O   0  0  0  0  0  0  0  0  0  0  0  0
  140.0510   71.4320  223.4040 C   0  0  0  0  0  0  0  0  0  0  0  0
  139.5650   70.1470  223.3090 C   0  0  0  0  0  0  0  0  0  0  0  0
  139.5610   69.3160  224.4350 C   0  0  0  0  0  0  0  0  0  0  0  0
  140.0610   69.8450  225.6150 C   0  0  0  0  0  0  0  0  0  0  0  0
  140.0980   69.0960  226.7800 C   0  0  0  0  0  0  0  0  0  0  0  0
  140.5970   69.6220  227.9590 C   0  0  0  0  0  0  0  0  0  0  0  0
  140.6310   68.8890  229.0890 F   0  0  0  0  0  0  0  0  0  0  0  0
  141.0780   70.9140  228.0190 C   0  0  0  0  0  0  0  0  0  0  0  0
  141.0490   71.6810  226.8610 C   0  0  0  0  0  0  0  0  0  0  0  0
  140.5490   71.1420  225.6940 C   0  0  0  0  0  0  0  0  0  0  0  0
  140.5210   71.8760  224.5850 N   0  0  0  0  0  0  0  0  0  0  0  0
  141.4720   78.4300  223.4670 C   0  0  0  0  0  0  0  0  0  0  0  0
  141.5790   79.8030  223.6590 C   0  0  0  0  0  0  0  0  0  0  0  0
  140.5529   83.5870  222.0273 H   0  0  0  0  0  0  0  0  0  0  0  0
  141.9600   83.2034  220.9786 H   0  0  0  0  0  0  0  0  0  0  0  0
  140.5205   82.1289  220.9786 H   0  0  0  0  0  0  0  0  0  0  0  0
  141.6020   80.7748  220.4007 H   0  0  0  0  0  0  0  0  0  0  0  0
  141.4110   78.3232  220.0459 H   0  0  0  0  0  0  0  0  0  0  0  0
  142.1180   75.8980  221.9910 H   0  0  0  0  0  0  0  0  0  0  0  0
  138.7336   74.5581  220.7978 H   0  0  0  0  0  0  0  0  0  0  0  0
  140.5451   74.2681  220.5712 H   0  0  0  0  0  0  0  0  0  0  0  0
  139.5720   74.0120  223.3410 H   0  0  0  0  0  0  0  0  0  0  0  0
  139.1801   69.7739  222.3485 H   0  0  0  0  0  0  0  0  0  0  0  0
  139.1773   68.2863  224.3859 H   0  0  0  0  0  0  0  0  0  0  0  0
  139.7231   68.0619  226.7677 H   0  0  0  0  0  0  0  0  0  0  0  0
  141.4740   71.3258  228.9590 H   0  0  0  0  0  0  0  0  0  0  0  0
  141.4237   72.7151  226.8748 H   0  0  0  0  0  0  0  0  0  0  0  0
  141.4351   77.7541  224.3341 H   0  0  0  0  0  0  0  0  0  0  0  0
  141.6269   80.2243  224.6740 H   0  0  0  0  0  0  0  0  0  0  0  0
  1  2  1  0
  2  3  1  0
  3  4  2  0
  4  5  1  0
  5  6  2  0
  6  7  1  0
  7  8  1  0
  8  9  2  0
  8 10  1  0
 10 11  1  0
 11 12  1  0
 12 13  2  0
 12 14  1  0
 14 15  2  0
 15 16  1  0
 16 17  2  0
 17 18  1  0
 18 19  2  0
 19 20  1  0
 19 21  1  0
 21 22  2  0
 22 23  1  0
 23 24  2  0
  6 25  1  0
 25 26  2  0
 26  3  1  0
 24 14  1  0
 23 17  1  0
  1 27  1  0
  1 28  1  0
  1 29  1  0
  4 30  1  0
  5 31  1  0
  7 32  1  0
 10 33  1  0
 10 34  1  0
 11 35  1  0
 15 36  1  0
 16 37  1  0
 18 38  1  0
 21 39  1  0
 22 40  1  0
 25 41  1  0
 26 42  1  0
M  END
>  <smiles>  (38) 
COc1ccc(NC(=O)CNC(=O)c2ccc3cc(F)ccc3n2)cc1

>  <score_type>  (38) 
oracle

>  <origin>  (38) 
autodockgpu

>  <m_score__min__energy>  (38) 
-8.4100000000000001

>  <m_primary>  (38) 
energy

>  <rmsd>  (38) 
3.0185054470076427

>  <m_score__min__rmsd>  (38) 
3.0185054470076427

>  <meeko>  (38) 
{"free_energy": -8.22, "intermolecular_energy": -9.71, "internal_energy": -0.94, "cluster_size": 36, "cluster_id": 1, "rank_in_cluster": 5}

>  <energy>  (38) 
-7.45

>  <cluster_rmsd>  (38) 
0.15

>  <cluster>  (38) 
2

$$$$

     RDKit          3D

 42 44  0  0  0  0  0  0  0  0999 V2000
  142.2260   80.9370  223.4370 C   0  0  0  0  0  0  0  0  0  0  0  0
  140.8980   80.7710  222.9720 O   0  0  0  0  0  0  0  0  0  0  0  0
  140.4330   79.4690  222.8260 C   0  0  0  0  0  0  0  0  0  0  0  0
  141.4020   78.4840  222.6580 C   0  0  0  0  0  0  0  0  0  0  0  0
  141.0500   77.1620  222.5040 C   0  0  0  0  0  0  0  0  0  0  0  0
  139.6930   76.8430  222.5210 C   0  0  0  0  0  0  0  0  0  0  0  0
  139.3800   75.4590  222.3580 N   0  0  0  0  0  0  0  0  0  0  0  0
  138.7950   75.0440  221.1350 C   0  0  0  0  0  0  0  0  0  0  0  0
  138.5930   75.9430  220.2540 O   0  0  0  0  0  0  0  0  0  0  0  0
  138.4080   73.6720  220.7970 C   0  0  0  0  0  0  0  0  0  0  0  0
  138.5010   72.7130  221.8490 N   0  0  0  0  0  0  0  0  0  0  0  0
  139.7000   72.4780  222.5890 C   0  0  0  0  0  0  0  0  0  0  0  0
  140.7730   73.1310  222.3500 O   0  0  0  0  0  0  0  0  0  0  0  0
  139.7150   71.4590  223.6620 C   0  0  0  0  0  0  0  0  0  0  0  0
  139.0940   70.2480  223.4570 C   0  0  0  0  0  0  0  0  0  0  0  0
  139.1030   69.2790  224.4670 C   0  0  0  0  0  0  0  0  0  0  0  0
  139.7530   69.6000  225.6480 C   0  0  0  0  0  0  0  0  0  0  0  0
  139.8140   68.7020  226.7020 C   0  0  0  0  0  0  0  0  0  0  0  0
  140.4630   69.0200  227.8830 C   0  0  0  0  0  0  0  0  0  0  0  0
  140.5190   68.1450  228.9040 F   0  0  0  0  0  0  0  0  0  0  0  0
  141.0760   70.2450  228.0540 C   0  0  0  0  0  0  0  0  0  0  0  0
  141.0260   71.1580  227.0080 C   0  0  0  0  0  0  0  0  0  0  0  0
  140.3750   70.8260  225.8380 C   0  0  0  0  0  0  0  0  0  0  0  0
  140.3270   71.6990  224.8370 N   0  0  0  0  0  0  0  0  0  0  0  0
  138.7220   77.8130  222.6870 C   0  0  0  0  0  0  0  0  0  0  0  0
  139.0910   79.1460  222.8410 C   0  0  0  0  0  0  0  0  0  0  0  0
  142.2319   80.9377  224.5370 H   0  0  0  0  0  0  0  0  0  0  0  0
  142.8499   80.1099  223.0675 H   0  0  0  0  0  0  0  0  0  0  0  0
  142.6272   81.8923  223.0675 H   0  0  0  0  0  0  0  0  0  0  0  0
  142.4651   78.7661  222.6481 H   0  0  0  0  0  0  0  0  0  0  0  0
  141.8148   76.3825  222.3718 H   0  0  0  0  0  0  0  0  0  0  0  0
  139.5770   74.7800  223.1010 H   0  0  0  0  0  0  0  0  0  0  0  0
  137.3631   73.6931  220.4538 H   0  0  0  0  0  0  0  0  0  0  0  0
  139.1291   73.3426  220.0345 H   0  0  0  0  0  0  0  0  0  0  0  0
  137.6760   72.1130  222.1430 H   0  0  0  0  0  0  0  0  0  0  0  0
  138.5912   70.0419  222.5006 H   0  0  0  0  0  0  0  0  0  0  0  0
  138.6144   68.3032  224.3290 H   0  0  0  0  0  0  0  0  0  0  0  0
  139.3369   67.7163  226.5981 H   0  0  0  0  0  0  0  0  0  0  0  0
  141.5908   70.4919  228.9942 H   0  0  0  0  0  0  0  0  0  0  0  0
  141.5043   72.1430  227.1125 H   0  0  0  0  0  0  0  0  0  0  0  0
  137.6587   77.5314  222.6973 H   0  0  0  0  0  0  0  0  0  0  0  0
  138.3279   79.9273  222.9722 H   0  0  0  0  0  0  0  0  0  0  0  0
  1  2  1  0
  2  3  1  0
  3  4  2  0
  4  5  1  0
  5  6  2  0
  6  7  1  0
  7  8  1  0
  8  9  2  0
  8 10  1  0
 10 11  1  0
 11 12  1  0
 12 13  2  0
 12 14  1  0
 14 15  2  0
 15 16  1  0
 16 17  2  0
 17 18  1  0
 18 19  2  0
 19 20  1  0
 19 21  1  0
 21 22  2  0
 22 23  1  0
 23 24  2  0
  6 25  1  0
 25 26  2  0
 26  3  1  0
 24 14  1  0
 23 17  1  0
  1 27  1  0
  1 28  1  0
  1 29  1  0
  4 30  1  0
  5 31  1  0
  7 32  1  0
 10 33  1  0
 10 34  1  0
 11 35  1  0
 15 36  1  0
 16 37  1  0
 18 38  1  0
 21 39  1  0
 22 40  1  0
 25 41  1  0
 26 42  1  0
M  END
>  <smiles>  (39) 
COc1ccc(NC(=O)CNC(=O)c2ccc3cc(F)ccc3n2)cc1

>  <score_type>  (39) 
oracle

>  <origin>  (39) 
autodockgpu

>  <m_score__min__energy>  (39) 
-8.4100000000000001

>  <m_primary>  (39) 
energy

>  <rmsd>  (39) 
3.0654488557003865

>  <m_score__min__rmsd>  (39) 
3.0654488557003865

>  <meeko>  (39) 
{"free_energy": -7.65, "intermolecular_energy": -9.15, "internal_energy": -1.47, "cluster_size": 36, "cluster_id": 1, "rank_in_cluster": 24}

>  <energy>  (39) 
-7.41

>  <cluster_rmsd>  (39) 
0.2

>  <cluster>  (39) 
2

$$$$

     RDKit          3D

 42 44  0  0  0  0  0  0  0  0999 V2000
  140.6810   68.2290  227.3630 C   0  0  0  0  0  0  0  0  0  0  0  0
  139.6170   68.2540  226.4290 O   0  0  0  0  0  0  0  0  0  0  0  0
  139.5960   69.3000  225.5140 C   0  0  0  0  0  0  0  0  0  0  0  0
  140.5500   70.2970  225.6970 C   0  0  0  0  0  0  0  0  0  0  0  0
  140.6180   71.3780  224.8490 C   0  0  0  0  0  0  0  0  0  0  0  0
  139.7000   71.4420  223.8010 C   0  0  0  0  0  0  0  0  0  0  0  0
  139.8120   72.5830  222.9490 N   0  0  0  0  0  0  0  0  0  0  0  0
  140.6500   72.4900  221.8100 C   0  0  0  0  0  0  0  0  0  0  0  0
  141.2480   71.3800  221.6200 O   0  0  0  0  0  0  0  0  0  0  0  0
  140.8850   73.5560  220.8340 C   0  0  0  0  0  0  0  0  0  0  0  0
  141.0200   74.8750  221.3600 N   0  0  0  0  0  0  0  0  0  0  0  0
  139.9220   75.6250  221.8810 C   0  0  0  0  0  0  0  0  0  0  0  0
  138.7370   75.1440  221.9110 O   0  0  0  0  0  0  0  0  0  0  0  0
  140.1450   76.9910  222.4030 C   0  0  0  0  0  0  0  0  0  0  0  0
  139.0730   77.7350  222.8430 C   0  0  0  0  0  0  0  0  0  0  0  0
  139.2760   79.0270  223.3380 C   0  0  0  0  0  0  0  0  0  0  0  0
  140.5790   79.5020  223.3590 C   0  0  0  0  0  0  0  0  0  0  0  0
  140.8750   80.7700  223.8320 C   0  0  0  0  0  0  0  0  0  0  0  0
  142.1740   81.2450  223.8540 C   0  0  0  0  0  0  0  0  0  0  0  0
  142.4570   82.4790  224.3150 F   0  0  0  0  0  0  0  0  0  0  0  0
  143.2270   80.4720  223.4060 C   0  0  0  0  0  0  0  0  0  0  0  0
  142.9500   79.1980  222.9270 C   0  0  0  0  0  0  0  0  0  0  0  0
  141.6490   78.7390  222.9120 C   0  0  0  0  0  0  0  0  0  0  0  0
  141.3830   77.5190  222.4550 N   0  0  0  0  0  0  0  0  0  0  0  0
  138.7480   70.4580  223.6100 C   0  0  0  0  0  0  0  0  0  0  0  0
  138.6910   69.3700  224.4750 C   0  0  0  0  0  0  0  0  0  0  0  0
  140.2726   68.2386  228.3843 H   0  0  0  0  0  0  0  0  0  0  0  0
  141.2774   67.3166  227.2151 H   0  0  0  0  0  0  0  0  0  0  0  0
  141.3196   69.1124  227.2151 H   0  0  0  0  0  0  0  0  0  0  0  0
  141.2608   70.2192  226.5329 H   0  0  0  0  0  0  0  0  0  0  0  0
  141.3717   72.1662  224.9928 H   0  0  0  0  0  0  0  0  0  0  0  0
  139.2960   73.4470  223.1500 H   0  0  0  0  0  0  0  0  0  0  0  0
  141.8108   73.3152  220.2909 H   0  0  0  0  0  0  0  0  0  0  0  0
  139.9833   73.5818  220.2045 H   0  0  0  0  0  0  0  0  0  0  0  0
  141.9540   75.3780  221.3940 H   0  0  0  0  0  0  0  0  0  0  0  0
  138.0577   77.3133  222.8051 H   0  0  0  0  0  0  0  0  0  0  0  0
  138.4368   79.6414  223.6960 H   0  0  0  0  0  0  0  0  0  0  0  0
  140.0603   81.4123  224.1976 H   0  0  0  0  0  0  0  0  0  0  0  0
  144.2579   80.8551  223.4279 H   0  0  0  0  0  0  0  0  0  0  0  0
  143.7654   78.5570  222.5607 H   0  0  0  0  0  0  0  0  0  0  0  0
  138.0363   70.5352  222.7749 H   0  0  0  0  0  0  0  0  0  0  0  0
  137.9385   68.5803  224.3333 H   0  0  0  0  0  0  0  0  0  0  0  0
  1  2  1  0
  2  3  1  0
  3  4  2  0
  4  5  1  0
  5  6  2  0
  6  7  1  0
  7  8  1  0
  8  9  2  0
  8 10  1  0
 10 11  1  0
 11 12  1  0
 12 13  2  0
 12 14  1  0
 14 15  2  0
 15 16  1  0
 16 17  2  0
 17 18  1  0
 18 19  2  0
 19 20  1  0
 19 21  1  0
 21 22  2  0
 22 23  1  0
 23 24  2  0
  6 25  1  0
 25 26  2  0
 26  3  1  0
 24 14  1  0
 23 17  1  0
  1 27  1  0
  1 28  1  0
  1 29  1  0
  4 30  1  0
  5 31  1  0
  7 32  1  0
 10 33  1  0
 10 34  1  0
 11 35  1  0
 15 36  1  0
 16 37  1  0
 18 38  1  0
 21 39  1  0
 22 40  1  0
 25 41  1  0
 26 42  1  0
M  END
>  <smiles>  (40) 
COc1ccc(NC(=O)CNC(=O)c2ccc3cc(F)ccc3n2)cc1

>  <score_type>  (40) 
oracle

>  <origin>  (40) 
autodockgpu

>  <m_score__min__energy>  (40) 
-8.4100000000000001

>  <m_primary>  (40) 
energy

>  <rmsd>  (40) 
8.944798907733071

>  <m_score__min__rmsd>  (40) 
8.944798907733071

>  <meeko>  (40) 
{"free_energy": -7.29, "intermolecular_energy": -8.78, "internal_energy": -1.86, "cluster_size": 14, "cluster_id": 2, "rank_in_cluster": 13}

>  <energy>  (40) 
-7.41

>  <cluster_rmsd>  (40) 
0.2

>  <cluster>  (40) 
2

$$$$

     RDKit          3D

 42 44  0  0  0  0  0  0  0  0999 V2000
  142.3390   80.8140  223.4850 C   0  0  0  0  0  0  0  0  0  0  0  0
  141.0550   80.6970  222.8980 O   0  0  0  0  0  0  0  0  0  0  0  0
  140.5260   79.4190  222.7760 C   0  0  0  0  0  0  0  0  0  0  0  0
  141.4390   78.3920  222.5530 C   0  0  0  0  0  0  0  0  0  0  0  0
  141.0210   77.0880  222.4170 C   0  0  0  0  0  0  0  0  0  0  0  0
  139.6540   76.8290  222.5080 C   0  0  0  0  0  0  0  0  0  0  0  0
  139.2710   75.4610  222.3610 N   0  0  0  0  0  0  0  0  0  0  0  0
  138.8790   75.0100  221.0760 C   0  0  0  0  0  0  0  0  0  0  0  0
  138.9010   75.8640  220.1290 O   0  0  0  0  0  0  0  0  0  0  0  0
  138.4550   73.6480  220.7420 C   0  0  0  0  0  0  0  0  0  0  0  0
  138.5570   72.6810  221.7870 N   0  0  0  0  0  0  0  0  0  0  0  0
  139.7110   72.5480  222.6170 C   0  0  0  0  0  0  0  0  0  0  0  0
  140.7320   73.3040  222.4720 O   0  0  0  0  0  0  0  0  0  0  0  0
  139.7400   71.5140  223.6760 C   0  0  0  0  0  0  0  0  0  0  0  0
  139.1550   70.2890  223.4450 C   0  0  0  0  0  0  0  0  0  0  0  0
  139.1780   69.3060  224.4410 C   0  0  0  0  0  0  0  0  0  0  0  0
  139.8040   69.6270  225.6360 C   0  0  0  0  0  0  0  0  0  0  0  0
  139.8750   68.7170  226.6770 C   0  0  0  0  0  0  0  0  0  0  0  0
  140.4990   69.0350  227.8710 C   0  0  0  0  0  0  0  0  0  0  0  0
  140.5660   68.1470  228.8810 F   0  0  0  0  0  0  0  0  0  0  0  0
  141.0770   70.2740  228.0680 C   0  0  0  0  0  0  0  0  0  0  0  0
  141.0150   71.2000  227.0350 C   0  0  0  0  0  0  0  0  0  0  0  0
  140.3890   70.8670  225.8520 C   0  0  0  0  0  0  0  0  0  0  0  0
  140.3300   71.7530  224.8620 N   0  0  0  0  0  0  0  0  0  0  0  0
  138.7370   77.8410  222.7290 C   0  0  0  0  0  0  0  0  0  0  0  0
  139.1740   79.1550  222.8650 C   0  0  0  0  0  0  0  0  0  0  0  0
  142.2434   80.8053  224.5808 H   0  0  0  0  0  0  0  0  0  0  0  0
  142.9668   79.9693  223.1650 H   0  0  0  0  0  0  0  0  0  0  0  0
  142.8038   81.7582  223.1650 H   0  0  0  0  0  0  0  0  0  0  0  0
  142.5115   78.6266  222.4844 H   0  0  0  0  0  0  0  0  0  0  0  0
  141.7422   76.2760  222.2421 H   0  0  0  0  0  0  0  0  0  0  0  0
  139.2850   74.8180  223.1600 H   0  0  0  0  0  0  0  0  0  0  0  0
  137.4018   73.6922  220.4276 H   0  0  0  0  0  0  0  0  0  0  0  0
  139.1483   73.3082  219.9585 H   0  0  0  0  0  0  0  0  0  0  0  0
  137.7730   72.0000  222.0070 H   0  0  0  0  0  0  0  0  0  0  0  0
  138.6704   70.0834  222.4792 H   0  0  0  0  0  0  0  0  0  0  0  0
  138.7184   68.3193  224.2824 H   0  0  0  0  0  0  0  0  0  0  0  0
  139.4262   67.7205  226.5527 H   0  0  0  0  0  0  0  0  0  0  0  0
  141.5733   70.5207  229.0181 H   0  0  0  0  0  0  0  0  0  0  0  0
  141.4639   72.1964  227.1599 H   0  0  0  0  0  0  0  0  0  0  0  0
  137.6643   77.6073  222.7971 H   0  0  0  0  0  0  0  0  0  0  0  0
  138.4550   79.9688  223.0403 H   0  0  0  0  0  0  0  0  0  0  0  0
  1  2  1  0
  2  3  1  0
  3  4  2  0
  4  5  1  0
  5  6  2  0
  6  7  1  0
  7  8  1  0
  8  9  2  0
  8 10  1  0
 10 11  1  0
 11 12  1  0
 12 13  2  0
 12 14  1  0
 14 15  2  0
 15 16  1  0
 16 17  2  0
 17 18  1  0
 18 19  2  0
 19 20  1  0
 19 21  1  0
 21 22  2  0
 22 23  1  0
 23 24  2  0
  6 25  1  0
 25 26  2  0
 26  3  1  0
 24 14  1  0
 23 17  1  0
  1 27  1  0
  1 28  1  0
  1 29  1  0
  4 30  1  0
  5 31  1  0
  7 32  1  0
 10 33  1  0
 10 34  1  0
 11 35  1  0
 15 36  1  0
 16 37  1  0
 18 38  1  0
 21 39  1  0
 22 40  1  0
 25 41  1  0
 26 42  1  0
M  END
>  <smiles>  (41) 
COc1ccc(NC(=O)CNC(=O)c2ccc3cc(F)ccc3n2)cc1

>  <score_type>  (41) 
oracle

>  <origin>  (41) 
autodockgpu

>  <m_score__min__energy>  (41) 
-8.4100000000000001

>  <m_primary>  (41) 
energy

>  <rmsd>  (41) 
3.0318876299018838

>  <m_score__min__rmsd>  (41) 
3.0318876299018838

>  <meeko>  (41) 
{"free_energy": -7.7, "intermolecular_energy": -9.19, "internal_energy": -1.4, "cluster_size": 36, "cluster_id": 1, "rank_in_cluster": 11}

>  <energy>  (41) 
-7.41

>  <cluster_rmsd>  (41) 
0.22

>  <cluster>  (41) 
2

$$$$

     RDKit          3D

 42 44  0  0  0  0  0  0  0  0999 V2000
  141.1760   82.7880  221.6180 C   0  0  0  0  0  0  0  0  0  0  0  0
  141.7150   81.9940  222.6600 O   0  0  0  0  0  0  0  0  0  0  0  0
  141.6200   80.6150  222.5230 C   0  0  0  0  0  0  0  0  0  0  0  0
  141.5950   80.1250  221.2210 C   0  0  0  0  0  0  0  0  0  0  0  0
  141.5030   78.7740  220.9720 C   0  0  0  0  0  0  0  0  0  0  0  0
  141.4350   77.9140  222.0680 C   0  0  0  0  0  0  0  0  0  0  0  0
  141.3400   76.5220  221.7580 N   0  0  0  0  0  0  0  0  0  0  0  0
  140.0520   75.9650  221.5640 C   0  0  0  0  0  0  0  0  0  0  0  0
  139.0560   76.7530  221.6760 O   0  0  0  0  0  0  0  0  0  0  0  0
  139.7670   74.5640  221.2450 C   0  0  0  0  0  0  0  0  0  0  0  0
  139.7620   73.6540  222.3450 N   0  0  0  0  0  0  0  0  0  0  0  0
  140.0480   72.2620  222.2090 C   0  0  0  0  0  0  0  0  0  0  0  0
  140.3370   71.7450  221.0760 O   0  0  0  0  0  0  0  0  0  0  0  0
  140.0150   71.3850  223.4000 C   0  0  0  0  0  0  0  0  0  0  0  0
  139.5450   70.0960  223.2820 C   0  0  0  0  0  0  0  0  0  0  0  0
  139.5100   69.2600  224.4030 C   0  0  0  0  0  0  0  0  0  0  0  0
  139.9620   69.7890  225.6030 C   0  0  0  0  0  0  0  0  0  0  0  0
  139.9650   69.0340  226.7650 C   0  0  0  0  0  0  0  0  0  0  0  0
  140.4160   69.5590  227.9640 C   0  0  0  0  0  0  0  0  0  0  0  0
  140.4160   68.8220  229.0910 F   0  0  0  0  0  0  0  0  0  0  0  0
  140.8820   70.8560  228.0460 C   0  0  0  0  0  0  0  0  0  0  0  0
  140.8870   71.6280  226.8920 C   0  0  0  0  0  0  0  0  0  0  0  0
  140.4330   71.0900  225.7050 C   0  0  0  0  0  0  0  0  0  0  0  0
  140.4380   71.8280  224.5990 N   0  0  0  0  0  0  0  0  0  0  0  0
  141.4590   78.3890  223.3660 C   0  0  0  0  0  0  0  0  0  0  0  0
  141.5520   79.7570  223.6020 C   0  0  0  0  0  0  0  0  0  0  0  0
  140.6080   83.6247  222.0509 H   0  0  0  0  0  0  0  0  0  0  0  0
  141.9938   83.1824  220.9970 H   0  0  0  0  0  0  0  0  0  0  0  0
  140.5076   82.1735  220.9970 H   0  0  0  0  0  0  0  0  0  0  0  0
  141.6496   80.8283  220.3770 H   0  0  0  0  0  0  0  0  0  0  0  0
  141.4838   78.3858  219.9430 H   0  0  0  0  0  0  0  0  0  0  0  0
  142.1810   75.9410  221.6700 H   0  0  0  0  0  0  0  0  0  0  0  0
  138.7750   74.5231  220.7714 H   0  0  0  0  0  0  0  0  0  0  0  0
  140.5931   74.2365  220.5967 H   0  0  0  0  0  0  0  0  0  0  0  0
  139.5420   73.9660  223.3350 H   0  0  0  0  0  0  0  0  0  0  0  0
  139.1973   69.7240  222.3069 H   0  0  0  0  0  0  0  0  0  0  0  0
  139.1396   68.2264  224.3357 H   0  0  0  0  0  0  0  0  0  0  0  0
  139.6016   67.9962  226.7341 H   0  0  0  0  0  0  0  0  0  0  0  0
  141.2402   71.2673  229.0013 H   0  0  0  0  0  0  0  0  0  0  0  0
  141.2517   72.6653  226.9238 H   0  0  0  0  0  0  0  0  0  0  0  0
  141.4047   77.6866  224.2108 H   0  0  0  0  0  0  0  0  0  0  0  0
  141.5710   80.1478  224.6301 H   0  0  0  0  0  0  0  0  0  0  0  0
  1  2  1  0
  2  3  1  0
  3  4  2  0
  4  5  1  0
  5  6  2  0
  6  7  1  0
  7  8  1  0
  8  9  2  0
  8 10  1  0
 10 11  1  0
 11 12  1  0
 12 13  2  0
 12 14  1  0
 14 15  2  0
 15 16  1  0
 16 17  2  0
 17 18  1  0
 18 19  2  0
 19 20  1  0
 19 21  1  0
 21 22  2  0
 22 23  1  0
 23 24  2  0
  6 25  1  0
 25 26  2  0
 26  3  1  0
 24 14  1  0
 23 17  1  0
  1 27  1  0
  1 28  1  0
  1 29  1  0
  4 30  1  0
  5 31  1  0
  7 32  1  0
 10 33  1  0
 10 34  1  0
 11 35  1  0
 15 36  1  0
 16 37  1  0
 18 38  1  0
 21 39  1  0
 22 40  1  0
 25 41  1  0
 26 42  1  0
M  END
>  <smiles>  (42) 
COc1ccc(NC(=O)CNC(=O)c2ccc3cc(F)ccc3n2)cc1

>  <score_type>  (42) 
oracle

>  <origin>  (42) 
autodockgpu

>  <m_score__min__energy>  (42) 
-8.4100000000000001

>  <m_primary>  (42) 
energy

>  <rmsd>  (42) 
2.997975035359077

>  <m_score__min__rmsd>  (42) 
2.997975035359077

>  <meeko>  (42) 
{"free_energy": -8.2, "intermolecular_energy": -9.69, "internal_energy": -0.95, "cluster_size": 36, "cluster_id": 1, "rank_in_cluster": 6}

>  <energy>  (42) 
-7.4

>  <cluster_rmsd>  (42) 
0.22

>  <cluster>  (42) 
2

$$$$

     RDKit          3D

 42 44  0  0  0  0  0  0  0  0999 V2000
  140.7420   68.6380  227.8030 C   0  0  0  0  0  0  0  0  0  0  0  0
  140.0140   68.3500  226.6220 O   0  0  0  0  0  0  0  0  0  0  0  0
  139.9170   69.3600  225.6720 C   0  0  0  0  0  0  0  0  0  0  0  0
  140.6740   70.5030  225.9090 C   0  0  0  0  0  0  0  0  0  0  0  0
  140.6510   71.5640  225.0320 C   0  0  0  0  0  0  0  0  0  0  0  0
  139.8440   71.4550  223.9000 C   0  0  0  0  0  0  0  0  0  0  0  0
  139.8550   72.5810  223.0210 N   0  0  0  0  0  0  0  0  0  0  0  0
  140.7240   72.5490  221.9020 C   0  0  0  0  0  0  0  0  0  0  0  0
  141.4390   71.5050  221.7520 O   0  0  0  0  0  0  0  0  0  0  0  0
  140.8680   73.6120  220.9030 C   0  0  0  0  0  0  0  0  0  0  0  0
  141.0210   74.9370  221.4090 N   0  0  0  0  0  0  0  0  0  0  0  0
  139.9470   75.6820  221.9840 C   0  0  0  0  0  0  0  0  0  0  0  0
  138.7700   75.1920  222.0850 O   0  0  0  0  0  0  0  0  0  0  0  0
  140.1880   77.0550  222.4800 C   0  0  0  0  0  0  0  0  0  0  0  0
  139.1240   77.8250  222.8950 C   0  0  0  0  0  0  0  0  0  0  0  0
  139.3420   79.1240  223.3650 C   0  0  0  0  0  0  0  0  0  0  0  0
  140.6530   79.5780  223.3880 C   0  0  0  0  0  0  0  0  0  0  0  0
  140.9640   80.8510  223.8380 C   0  0  0  0  0  0  0  0  0  0  0  0
  142.2710   81.3060  223.8630 C   0  0  0  0  0  0  0  0  0  0  0  0
  142.5690   82.5440  224.3010 F   0  0  0  0  0  0  0  0  0  0  0  0
  143.3150   80.5070  223.4410 C   0  0  0  0  0  0  0  0  0  0  0  0
  143.0220   79.2280  222.9860 C   0  0  0  0  0  0  0  0  0  0  0  0
  141.7140   78.7890  222.9680 C   0  0  0  0  0  0  0  0  0  0  0  0
  141.4330   77.5640  222.5330 N   0  0  0  0  0  0  0  0  0  0  0  0
  139.0880   70.3240  223.6540 C   0  0  0  0  0  0  0  0  0  0  0  0
  139.1200   69.2600  224.5490 C   0  0  0  0  0  0  0  0  0  0  0  0
  140.1266   68.3945  228.6816 H   0  0  0  0  0  0  0  0  0  0  0  0
  141.6627   68.0364  227.8221 H   0  0  0  0  0  0  0  0  0  0  0  0
  141.0019   69.7067  227.8221 H   0  0  0  0  0  0  0  0  0  0  0  0
  141.3007   70.5599  226.8112 H   0  0  0  0  0  0  0  0  0  0  0  0
  141.2495   72.4680  225.2181 H   0  0  0  0  0  0  0  0  0  0  0  0
  139.2470   73.3900  223.1890 H   0  0  0  0  0  0  0  0  0  0  0  0
  141.7541   73.3814  220.2933 H   0  0  0  0  0  0  0  0  0  0  0  0
  139.9213   73.6189  220.3428 H   0  0  0  0  0  0  0  0  0  0  0  0
  141.9510   75.4480  221.3850 H   0  0  0  0  0  0  0  0  0  0  0  0
  138.1027   77.4182  222.8567 H   0  0  0  0  0  0  0  0  0  0  0  0
  138.5094   79.7589  223.7022 H   0  0  0  0  0  0  0  0  0  0  0  0
  140.1560   81.5133  224.1823 H   0  0  0  0  0  0  0  0  0  0  0  0
  144.3517   80.8739  223.4646 H   0  0  0  0  0  0  0  0  0  0  0  0
  143.8305   78.5667  222.6409 H   0  0  0  0  0  0  0  0  0  0  0  0
  138.4619   70.2657  222.7515 H   0  0  0  0  0  0  0  0  0  0  0  0
  138.5214   68.3555  224.3656 H   0  0  0  0  0  0  0  0  0  0  0  0
  1  2  1  0
  2  3  1  0
  3  4  2  0
  4  5  1  0
  5  6  2  0
  6  7  1  0
  7  8  1  0
  8  9  2  0
  8 10  1  0
 10 11  1  0
 11 12  1  0
 12 13  2  0
 12 14  1  0
 14 15  2  0
 15 16  1  0
 16 17  2  0
 17 18  1  0
 18 19  2  0
 19 20  1  0
 19 21  1  0
 21 22  2  0
 22 23  1  0
 23 24  2  0
  6 25  1  0
 25 26  2  0
 26  3  1  0
 24 14  1  0
 23 17  1  0
  1 27  1  0
  1 28  1  0
  1 29  1  0
  4 30  1  0
  5 31  1  0
  7 32  1  0
 10 33  1  0
 10 34  1  0
 11 35  1  0
 15 36  1  0
 16 37  1  0
 18 38  1  0
 21 39  1  0
 22 40  1  0
 25 41  1  0
 26 42  1  0
M  END
>  <smiles>  (43) 
COc1ccc(NC(=O)CNC(=O)c2ccc3cc(F)ccc3n2)cc1

>  <score_type>  (43) 
oracle

>  <origin>  (43) 
autodockgpu

>  <m_score__min__energy>  (43) 
-8.4100000000000001

>  <m_primary>  (43) 
energy

>  <rmsd>  (43) 
8.99386994710145

>  <m_score__min__rmsd>  (43) 
8.99386994710145

>  <meeko>  (43) 
{"free_energy": -7.36, "intermolecular_energy": -8.85, "internal_energy": -1.86, "cluster_size": 14, "cluster_id": 2, "rank_in_cluster": 9}

>  <energy>  (43) 
-7.37

>  <cluster_rmsd>  (43) 
0.53

>  <cluster>  (43) 
2

$$$$

     RDKit          3D

 42 44  0  0  0  0  0  0  0  0999 V2000
  141.0440   68.3460  227.4340 C   0  0  0  0  0  0  0  0  0  0  0  0
  139.9130   68.3560  226.5810 O   0  0  0  0  0  0  0  0  0  0  0  0
  139.8350   69.3770  225.6410 C   0  0  0  0  0  0  0  0  0  0  0  0
  140.6770   70.4660  225.8430 C   0  0  0  0  0  0  0  0  0  0  0  0
  140.6800   71.5320  224.9710 C   0  0  0  0  0  0  0  0  0  0  0  0
  139.8110   71.4840  223.8810 C   0  0  0  0  0  0  0  0  0  0  0  0
  139.8520   72.6130  223.0070 N   0  0  0  0  0  0  0  0  0  0  0  0
  140.7220   72.5640  221.8900 C   0  0  0  0  0  0  0  0  0  0  0  0
  141.4120   71.5030  221.7380 O   0  0  0  0  0  0  0  0  0  0  0  0
  140.8950   73.6260  220.8960 C   0  0  0  0  0  0  0  0  0  0  0  0
  141.0450   74.9500  221.4060 N   0  0  0  0  0  0  0  0  0  0  0  0
  139.9650   75.6990  221.9640 C   0  0  0  0  0  0  0  0  0  0  0  0
  138.7840   75.2140  222.0440 O   0  0  0  0  0  0  0  0  0  0  0  0
  140.2030   77.0710  222.4660 C   0  0  0  0  0  0  0  0  0  0  0  0
  139.1380   77.8340  222.8880 C   0  0  0  0  0  0  0  0  0  0  0  0
  139.3540   79.1320  223.3640 C   0  0  0  0  0  0  0  0  0  0  0  0
  140.6630   79.5900  223.3850 C   0  0  0  0  0  0  0  0  0  0  0  0
  140.9720   80.8620  223.8410 C   0  0  0  0  0  0  0  0  0  0  0  0
  142.2780   81.3210  223.8630 C   0  0  0  0  0  0  0  0  0  0  0  0
  142.5730   82.5570  224.3060 F   0  0  0  0  0  0  0  0  0  0  0  0
  143.3220   80.5270  223.4330 C   0  0  0  0  0  0  0  0  0  0  0  0
  143.0320   79.2500  222.9730 C   0  0  0  0  0  0  0  0  0  0  0  0
  141.7250   78.8070  222.9570 C   0  0  0  0  0  0  0  0  0  0  0  0
  141.4460   77.5830  222.5170 N   0  0  0  0  0  0  0  0  0  0  0  0
  138.9710   70.4070  223.6710 C   0  0  0  0  0  0  0  0  0  0  0  0
  138.9780   69.3360  224.5590 C   0  0  0  0  0  0  0  0  0  0  0  0
  140.7123   68.3489  228.4828 H   0  0  0  0  0  0  0  0  0  0  0  0
  141.6410   67.4425  227.2408 H   0  0  0  0  0  0  0  0  0  0  0  0
  141.6569   69.2388  227.2408 H   0  0  0  0  0  0  0  0  0  0  0  0
  141.3507   70.4757  226.7125 H   0  0  0  0  0  0  0  0  0  0  0  0
  141.3459   72.3931  225.1290 H   0  0  0  0  0  0  0  0  0  0  0  0
  139.2630   73.4350  223.1770 H   0  0  0  0  0  0  0  0  0  0  0  0
  141.7931   73.3901  220.3062 H   0  0  0  0  0  0  0  0  0  0  0  0
  139.9611   73.6393  220.3149 H   0  0  0  0  0  0  0  0  0  0  0  0
  141.9770   75.4570  221.3990 H   0  0  0  0  0  0  0  0  0  0  0  0
  138.1180   77.4238  222.8511 H   0  0  0  0  0  0  0  0  0  0  0  0
  138.5206   79.7627  223.7071 H   0  0  0  0  0  0  0  0  0  0  0  0
  140.1634   81.5198  224.1924 H   0  0  0  0  0  0  0  0  0  0  0  0
  144.3577   80.8970  223.4543 H   0  0  0  0  0  0  0  0  0  0  0  0
  143.8415   78.5930  222.6222 H   0  0  0  0  0  0  0  0  0  0  0  0
  138.2969   70.3965  222.8018 H   0  0  0  0  0  0  0  0  0  0  0  0
  138.3138   68.4733  224.4022 H   0  0  0  0  0  0  0  0  0  0  0  0
  1  2  1  0
  2  3  1  0
  3  4  2  0
  4  5  1  0
  5  6  2  0
  6  7  1  0
  7  8  1  0
  8  9  2  0
  8 10  1  0
 10 11  1  0
 11 12  1  0
 12 13  2  0
 12 14  1  0
 14 15  2  0
 15 16  1  0
 16 17  2  0
 17 18  1  0
 18 19  2  0
 19 20  1  0
 19 21  1  0
 21 22  2  0
 22 23  1  0
 23 24  2  0
  6 25  1  0
 25 26  2  0
 26  3  1  0
 24 14  1  0
 23 17  1  0
  1 27  1  0
  1 28  1  0
  1 29  1  0
  4 30  1  0
  5 31  1  0
  7 32  1  0
 10 33  1  0
 10 34  1  0
 11 35  1  0
 15 36  1  0
 16 37  1  0
 18 38  1  0
 21 39  1  0
 22 40  1  0
 25 41  1  0
 26 42  1  0
M  END
>  <smiles>  (44) 
COc1ccc(NC(=O)CNC(=O)c2ccc3cc(F)ccc3n2)cc1

>  <score_type>  (44) 
oracle

>  <origin>  (44) 
autodockgpu

>  <m_score__min__energy>  (44) 
-8.4100000000000001

>  <m_primary>  (44) 
energy

>  <rmsd>  (44) 
8.996222554700699

>  <m_score__min__rmsd>  (44) 
8.996222554700699

>  <meeko>  (44) 
{"free_energy": -7.35, "intermolecular_energy": -8.84, "internal_energy": -1.86, "cluster_size": 14, "cluster_id": 2, "rank_in_cluster": 10}

>  <energy>  (44) 
-7.36

>  <cluster_rmsd>  (44) 
0.25

>  <cluster>  (44) 
2

$$$$

     RDKit          3D

 42 44  0  0  0  0  0  0  0  0999 V2000
  142.9070   80.8020  224.1290 C   0  0  0  0  0  0  0  0  0  0  0  0
  142.3640   80.7250  222.8230 O   0  0  0  0  0  0  0  0  0  0  0  0
  141.9260   79.4800  222.3890 C   0  0  0  0  0  0  0  0  0  0  0  0
  141.5600   78.5750  223.3810 C   0  0  0  0  0  0  0  0  0  0  0  0
  141.1120   77.3130  223.0600 C   0  0  0  0  0  0  0  0  0  0  0  0
  141.0390   76.9720  221.7100 C   0  0  0  0  0  0  0  0  0  0  0  0
  140.5680   75.6530  221.4300 N   0  0  0  0  0  0  0  0  0  0  0  0
  139.1800   75.3970  221.5490 C   0  0  0  0  0  0  0  0  0  0  0  0
  138.4380   76.3740  221.8950 O   0  0  0  0  0  0  0  0  0  0  0  0
  138.5250   74.1090  221.3050 C   0  0  0  0  0  0  0  0  0  0  0  0
  138.6680   73.1250  222.3280 N   0  0  0  0  0  0  0  0  0  0  0  0
  139.9320   72.6060  222.7420 C   0  0  0  0  0  0  0  0  0  0  0  0
  141.0260   73.0070  222.2150 O   0  0  0  0  0  0  0  0  0  0  0  0
  139.9930   71.5810  223.8070 C   0  0  0  0  0  0  0  0  0  0  0  0
  139.5470   70.3040  223.5480 C   0  0  0  0  0  0  0  0  0  0  0  0
  139.6010   69.3290  224.5500 C   0  0  0  0  0  0  0  0  0  0  0  0
  140.1130   69.7110  225.7810 C   0  0  0  0  0  0  0  0  0  0  0  0
  140.2050   68.8120  226.8310 C   0  0  0  0  0  0  0  0  0  0  0  0
  140.7160   69.1910  228.0600 C   0  0  0  0  0  0  0  0  0  0  0  0
  140.8030   68.3140  229.0790 F   0  0  0  0  0  0  0  0  0  0  0  0
  141.1550   70.4810  228.2860 C   0  0  0  0  0  0  0  0  0  0  0  0
  141.0710   71.3960  227.2440 C   0  0  0  0  0  0  0  0  0  0  0  0
  140.5590   71.0020  226.0250 C   0  0  0  0  0  0  0  0  0  0  0  0
  140.4780   71.8780  225.0270 N   0  0  0  0  0  0  0  0  0  0  0  0
  141.4000   77.8620  220.7160 C   0  0  0  0  0  0  0  0  0  0  0  0
  141.8510   79.1340  221.0540 C   0  0  0  0  0  0  0  0  0  0  0  0
  142.1008   80.6877  224.8686 H   0  0  0  0  0  0  0  0  0  0  0  0
  143.6470   79.9998  224.2663 H   0  0  0  0  0  0  0  0  0  0  0  0
  143.3948   81.7783  224.2663 H   0  0  0  0  0  0  0  0  0  0  0  0
  141.6297   78.8724  224.4377 H   0  0  0  0  0  0  0  0  0  0  0  0
  140.8212   76.5973  223.8431 H   0  0  0  0  0  0  0  0  0  0  0  0
  141.2150   74.9090  221.1440 H   0  0  0  0  0  0  0  0  0  0  0  0
  137.4500   74.2995  221.1707 H   0  0  0  0  0  0  0  0  0  0  0  0
  139.0248   73.6880  220.4201 H   0  0  0  0  0  0  0  0  0  0  0  0
  137.8330   72.7190  222.8420 H   0  0  0  0  0  0  0  0  0  0  0  0
  139.1487   70.0509  222.5544 H   0  0  0  0  0  0  0  0  0  0  0  0
  139.2517   68.3018  224.3689 H   0  0  0  0  0  0  0  0  0  0  0  0
  139.8651   67.7761  226.6849 H   0  0  0  0  0  0  0  0  0  0  0  0
  141.5604   70.7760  229.2651 H   0  0  0  0  0  0  0  0  0  0  0  0
  141.4117   72.4316  227.3905 H   0  0  0  0  0  0  0  0  0  0  0  0
  141.3308   77.5650  219.6591 H   0  0  0  0  0  0  0  0  0  0  0  0
  142.1425   79.8510  220.2723 H   0  0  0  0  0  0  0  0  0  0  0  0
  1  2  1  0
  2  3  1  0
  3  4  2  0
  4  5  1  0
  5  6  2  0
  6  7  1  0
  7  8  1  0
  8  9  2  0
  8 10  1  0
 10 11  1  0
 11 12  1  0
 12 13  2  0
 12 14  1  0
 14 15  2  0
 15 16  1  0
 16 17  2  0
 17 18  1  0
 18 19  2  0
 19 20  1  0
 19 21  1  0
 21 22  2  0
 22 23  1  0
 23 24  2  0
  6 25  1  0
 25 26  2  0
 26  3  1  0
 24 14  1  0
 23 17  1  0
  1 27  1  0
  1 28  1  0
  1 29  1  0
  4 30  1  0
  5 31  1  0
  7 32  1  0
 10 33  1  0
 10 34  1  0
 11 35  1  0
 15 36  1  0
 16 37  1  0
 18 38  1  0
 21 39  1  0
 22 40  1  0
 25 41  1  0
 26 42  1  0
M  END
>  <smiles>  (45) 
COc1ccc(NC(=O)CNC(=O)c2ccc3cc(F)ccc3n2)cc1

>  <score_type>  (45) 
oracle

>  <origin>  (45) 
autodockgpu

>  <m_score__min__energy>  (45) 
-8.4100000000000001

>  <m_primary>  (45) 
energy

>  <rmsd>  (45) 
3.188767517718206

>  <m_score__min__rmsd>  (45) 
3.188767517718206

>  <meeko>  (45) 
{"free_energy": -7.68, "intermolecular_energy": -9.18, "internal_energy": -1.5, "cluster_size": 36, "cluster_id": 1, "rank_in_cluster": 19}

>  <energy>  (45) 
-7.36

>  <cluster_rmsd>  (45) 
0.58

>  <cluster>  (45) 
2

$$$$

     RDKit          3D

 42 44  0  0  0  0  0  0  0  0999 V2000
  141.9310   81.4770  223.2120 C   0  0  0  0  0  0  0  0  0  0  0  0
  142.1620   80.8400  221.9680 O   0  0  0  0  0  0  0  0  0  0  0  0
  141.7960   79.5030  221.8600 C   0  0  0  0  0  0  0  0  0  0  0  0
  141.8160   78.9610  220.5780 C   0  0  0  0  0  0  0  0  0  0  0  0
  141.4710   77.6470  220.3590 C   0  0  0  0  0  0  0  0  0  0  0  0
  141.1010   76.8780  221.4610 C   0  0  0  0  0  0  0  0  0  0  0  0
  140.7530   75.5210  221.1810 N   0  0  0  0  0  0  0  0  0  0  0  0
  141.7780   74.6400  220.7550 C   0  0  0  0  0  0  0  0  0  0  0  0
  142.9530   75.1230  220.6560 O   0  0  0  0  0  0  0  0  0  0  0  0
  141.6020   73.2240  220.4230 C   0  0  0  0  0  0  0  0  0  0  0  0
  141.3910   72.3390  221.5220 N   0  0  0  0  0  0  0  0  0  0  0  0
  140.3730   72.5410  222.5030 C   0  0  0  0  0  0  0  0  0  0  0  0
  139.5780   73.5410  222.4470 O   0  0  0  0  0  0  0  0  0  0  0  0
  140.2240   71.5790  223.6170 C   0  0  0  0  0  0  0  0  0  0  0  0
  139.6140   70.3650  223.3890 C   0  0  0  0  0  0  0  0  0  0  0  0
  139.4680   69.4490  224.4370 C   0  0  0  0  0  0  0  0  0  0  0  0
  139.9590   69.8230  225.6790 C   0  0  0  0  0  0  0  0  0  0  0  0
  139.8590   68.9800  226.7740 C   0  0  0  0  0  0  0  0  0  0  0  0
  140.3480   69.3510  228.0150 C   0  0  0  0  0  0  0  0  0  0  0  0
  140.2490   68.5280  229.0760 F   0  0  0  0  0  0  0  0  0  0  0  0
  140.9550   70.5760  228.2070 C   0  0  0  0  0  0  0  0  0  0  0  0
  141.0640   71.4340  227.1210 C   0  0  0  0  0  0  0  0  0  0  0  0
  140.5720   71.0500  225.8910 C   0  0  0  0  0  0  0  0  0  0  0  0
  140.6760   71.8710  224.8500 N   0  0  0  0  0  0  0  0  0  0  0  0
  141.0770   77.4060  222.7390 C   0  0  0  0  0  0  0  0  0  0  0  0
  141.4280   78.7360  222.9470 C   0  0  0  0  0  0  0  0  0  0  0  0
  142.1817   80.7857  224.0301 H   0  0  0  0  0  0  0  0  0  0  0  0
  142.5603   82.3762  223.2860 H   0  0  0  0  0  0  0  0  0  0  0  0
  140.8716   81.7638  223.2860 H   0  0  0  0  0  0  0  0  0  0  0  0
  142.1120   79.5925  219.7273 H   0  0  0  0  0  0  0  0  0  0  0  0
  141.4867   77.2173  219.3465 H   0  0  0  0  0  0  0  0  0  0  0  0
  139.7880   75.1880  221.2910 H   0  0  0  0  0  0  0  0  0  0  0  0
  140.7321   73.1420  219.7547 H   0  0  0  0  0  0  0  0  0  0  0  0
  142.5535   72.9082  219.9704 H   0  0  0  0  0  0  0  0  0  0  0  0
  141.9840   71.4720  221.6720 H   0  0  0  0  0  0  0  0  0  0  0  0
  139.2420   70.1159  222.3842 H   0  0  0  0  0  0  0  0  0  0  0  0
  138.9841   68.4733  224.2821 H   0  0  0  0  0  0  0  0  0  0  0  0
  139.3815   67.9962  226.6550 H   0  0  0  0  0  0  0  0  0  0  0  0
  141.3424   70.8649  229.1952 H   0  0  0  0  0  0  0  0  0  0  0  0
  141.5415   72.4176  227.2412 H   0  0  0  0  0  0  0  0  0  0  0  0
  140.7807   76.7751  223.5900 H   0  0  0  0  0  0  0  0  0  0  0  0
  141.4125   79.1682  223.9584 H   0  0  0  0  0  0  0  0  0  0  0  0
  1  2  1  0
  2  3  1  0
  3  4  2  0
  4  5  1  0
  5  6  2  0
  6  7  1  0
  7  8  1  0
  8  9  2  0
  8 10  1  0
 10 11  1  0
 11 12  1  0
 12 13  2  0
 12 14  1  0
 14 15  2  0
 15 16  1  0
 16 17  2  0
 17 18  1  0
 18 19  2  0
 19 20  1  0
 19 21  1  0
 21 22  2  0
 22 23  1  0
 23 24  2  0
  6 25  1  0
 25 26  2  0
 26  3  1  0
 24 14  1  0
 23 17  1  0
  1 27  1  0
  1 28  1  0
  1 29  1  0
  4 30  1  0
  5 31  1  0
  7 32  1  0
 10 33  1  0
 10 34  1  0
 11 35  1  0
 15 36  1  0
 16 37  1  0
 18 38  1  0
 21 39  1  0
 22 40  1  0
 25 41  1  0
 26 42  1  0
M  END
>  <smiles>  (46) 
COc1ccc(NC(=O)CNC(=O)c2ccc3cc(F)ccc3n2)cc1

>  <score_type>  (46) 
oracle

>  <origin>  (46) 
autodockgpu

>  <m_score__min__energy>  (46) 
-8.4100000000000001

>  <m_primary>  (46) 
energy

>  <rmsd>  (46) 
2.92801993401299

>  <m_score__min__rmsd>  (46) 
2.92801993401299

>  <meeko>  (46) 
{"free_energy": -7.44, "intermolecular_energy": -8.93, "internal_energy": -1.46, "cluster_size": 36, "cluster_id": 1, "rank_in_cluster": 35}

>  <energy>  (46) 
-7.35

>  <cluster_rmsd>  (46) 
0.53

>  <cluster>  (46) 
2

$$$$

     RDKit          3D

 42 44  0  0  0  0  0  0  0  0999 V2000
  142.3270   80.9280  223.5450 C   0  0  0  0  0  0  0  0  0  0  0  0
  140.9980   80.7980  223.0750 O   0  0  0  0  0  0  0  0  0  0  0  0
  140.5010   79.5090  222.9190 C   0  0  0  0  0  0  0  0  0  0  0  0
  141.4470   78.4940  222.8080 C   0  0  0  0  0  0  0  0  0  0  0  0
  141.0640   77.1810  222.6500 C   0  0  0  0  0  0  0  0  0  0  0  0
  139.6980   76.9030  222.6040 C   0  0  0  0  0  0  0  0  0  0  0  0
  139.3520   75.5270  222.4390 N   0  0  0  0  0  0  0  0  0  0  0  0
  138.7470   75.1290  221.2210 C   0  0  0  0  0  0  0  0  0  0  0  0
  138.5560   76.0360  220.3450 O   0  0  0  0  0  0  0  0  0  0  0  0
  138.3250   73.7680  220.8820 C   0  0  0  0  0  0  0  0  0  0  0  0
  138.4550   72.7910  221.9140 N   0  0  0  0  0  0  0  0  0  0  0  0
  139.6770   72.5530  222.6140 C   0  0  0  0  0  0  0  0  0  0  0  0
  140.7380   73.2170  222.3550 O   0  0  0  0  0  0  0  0  0  0  0  0
  139.7300   71.5160  223.6690 C   0  0  0  0  0  0  0  0  0  0  0  0
  139.1860   70.2740  223.4290 C   0  0  0  0  0  0  0  0  0  0  0  0
  139.2320   69.2880  224.4200 C   0  0  0  0  0  0  0  0  0  0  0  0
  139.8380   69.6240  225.6210 C   0  0  0  0  0  0  0  0  0  0  0  0
  139.9300   68.7120  226.6600 C   0  0  0  0  0  0  0  0  0  0  0  0
  140.5340   69.0450  227.8600 C   0  0  0  0  0  0  0  0  0  0  0  0
  140.6210   68.1550  228.8670 F   0  0  0  0  0  0  0  0  0  0  0  0
  141.0700   70.3000  228.0660 C   0  0  0  0  0  0  0  0  0  0  0  0
  140.9880   71.2280  227.0370 C   0  0  0  0  0  0  0  0  0  0  0  0
  140.3820   70.8810  225.8470 C   0  0  0  0  0  0  0  0  0  0  0  0
  140.3030   71.7690  224.8600 N   0  0  0  0  0  0  0  0  0  0  0  0
  138.7500   77.9030  222.7130 C   0  0  0  0  0  0  0  0  0  0  0  0
  139.1510   79.2260  222.8720 C   0  0  0  0  0  0  0  0  0  0  0  0
  142.3285   80.9282  224.6450 H   0  0  0  0  0  0  0  0  0  0  0  0
  142.9300   80.0846  223.1776 H   0  0  0  0  0  0  0  0  0  0  0  0
  142.7551   81.8723  223.1776 H   0  0  0  0  0  0  0  0  0  0  0  0
  142.5173   78.7448  222.8471 H   0  0  0  0  0  0  0  0  0  0  0  0
  141.8106   76.3779  222.5629 H   0  0  0  0  0  0  0  0  0  0  0  0
  139.5410   74.8410  223.1780 H   0  0  0  0  0  0  0  0  0  0  0  0
  137.2652   73.8085  220.5902 H   0  0  0  0  0  0  0  0  0  0  0  0
  139.0041   73.4410  220.0808 H   0  0  0  0  0  0  0  0  0  0  0  0
  137.6430   72.1820  222.2220 H   0  0  0  0  0  0  0  0  0  0  0  0
  138.7156   70.0574  222.4585 H   0  0  0  0  0  0  0  0  0  0  0  0
  138.8053   68.2879  224.2535 H   0  0  0  0  0  0  0  0  0  0  0  0
  139.5143   67.7021  226.5284 H   0  0  0  0  0  0  0  0  0  0  0  0
  141.5500   70.5583  229.0214 H   0  0  0  0  0  0  0  0  0  0  0  0
  141.4050   72.2372  227.1699 H   0  0  0  0  0  0  0  0  0  0  0  0
  137.6794   77.6532  222.6741 H   0  0  0  0  0  0  0  0  0  0  0  0
  138.4062   80.0309  222.9586 H   0  0  0  0  0  0  0  0  0  0  0  0
  1  2  1  0
  2  3  1  0
  3  4  2  0
  4  5  1  0
  5  6  2  0
  6  7  1  0
  7  8  1  0
  8  9  2  0
  8 10  1  0
 10 11  1  0
 11 12  1  0
 12 13  2  0
 12 14  1  0
 14 15  2  0
 15 16  1  0
 16 17  2  0
 17 18  1  0
 18 19  2  0
 19 20  1  0
 19 21  1  0
 21 22  2  0
 22 23  1  0
 23 24  2  0
  6 25  1  0
 25 26  2  0
 26  3  1  0
 24 14  1  0
 23 17  1  0
  1 27  1  0
  1 28  1  0
  1 29  1  0
  4 30  1  0
  5 31  1  0
  7 32  1  0
 10 33  1  0
 10 34  1  0
 11 35  1  0
 15 36  1  0
 16 37  1  0
 18 38  1  0
 21 39  1  0
 22 40  1  0
 25 41  1  0
 26 42  1  0
M  END
>  <smiles>  (47) 
COc1ccc(NC(=O)CNC(=O)c2ccc3cc(F)ccc3n2)cc1

>  <score_type>  (47) 
oracle

>  <origin>  (47) 
autodockgpu

>  <m_score__min__energy>  (47) 
-8.4100000000000001

>  <m_primary>  (47) 
energy

>  <rmsd>  (47) 
3.1191362876550333

>  <m_score__min__rmsd>  (47) 
3.1191362876550333

>  <meeko>  (47) 
{"free_energy": -7.69, "intermolecular_energy": -9.19, "internal_energy": -1.45, "cluster_size": 36, "cluster_id": 1, "rank_in_cluster": 14}

>  <energy>  (47) 
-7.34

>  <cluster_rmsd>  (47) 
0.26

>  <cluster>  (47) 
2

$$$$

     RDKit          3D

 42 44  0  0  0  0  0  0  0  0999 V2000
  142.3820   80.8520  223.5120 C   0  0  0  0  0  0  0  0  0  0  0  0
  141.0860   80.7570  222.9490 O   0  0  0  0  0  0  0  0  0  0  0  0
  140.5410   79.4850  222.8180 C   0  0  0  0  0  0  0  0  0  0  0  0
  141.4460   78.4400  222.6590 C   0  0  0  0  0  0  0  0  0  0  0  0
  141.0130   77.1410  222.5210 C   0  0  0  0  0  0  0  0  0  0  0  0
  139.6390   76.9070  222.5440 C   0  0  0  0  0  0  0  0  0  0  0  0
  139.2410   75.5430  222.3970 N   0  0  0  0  0  0  0  0  0  0  0  0
  138.7450   75.1210  221.1380 C   0  0  0  0  0  0  0  0  0  0  0  0
  138.6940   75.9970  220.2120 O   0  0  0  0  0  0  0  0  0  0  0  0
  138.2910   73.7680  220.8090 C   0  0  0  0  0  0  0  0  0  0  0  0
  138.4640   72.7800  221.8240 N   0  0  0  0  0  0  0  0  0  0  0  0
  139.6780   72.6180  222.5580 C   0  0  0  0  0  0  0  0  0  0  0  0
  140.6930   73.3660  222.3470 O   0  0  0  0  0  0  0  0  0  0  0  0
  139.7780   71.5640  223.5910 C   0  0  0  0  0  0  0  0  0  0  0  0
  139.3410   70.2890  223.3060 C   0  0  0  0  0  0  0  0  0  0  0  0
  139.4320   69.2860  224.2780 C   0  0  0  0  0  0  0  0  0  0  0  0
  139.9700   69.6400  225.5060 C   0  0  0  0  0  0  0  0  0  0  0  0
  140.0990   68.7130  226.5270 C   0  0  0  0  0  0  0  0  0  0  0  0
  140.6360   69.0630  227.7540 C   0  0  0  0  0  0  0  0  0  0  0  0
  140.7590   68.1580  228.7440 F   0  0  0  0  0  0  0  0  0  0  0  0
  141.0650   70.3510  228.0060 C   0  0  0  0  0  0  0  0  0  0  0  0
  140.9430   71.2940  226.9940 C   0  0  0  0  0  0  0  0  0  0  0  0
  140.4060   70.9290  225.7770 C   0  0  0  0  0  0  0  0  0  0  0  0
  140.2900   71.8320  224.8070 N   0  0  0  0  0  0  0  0  0  0  0  0
  138.7300   77.9370  222.7020 C   0  0  0  0  0  0  0  0  0  0  0  0
  139.1810   79.2450  222.8410 C   0  0  0  0  0  0  0  0  0  0  0  0
  142.3064   80.8465  224.6094 H   0  0  0  0  0  0  0  0  0  0  0  0
  142.9888   79.9959  223.1819 H   0  0  0  0  0  0  0  0  0  0  0  0
  142.8575   81.7874  223.1819 H   0  0  0  0  0  0  0  0  0  0  0  0
  142.5245   78.6556  222.6434 H   0  0  0  0  0  0  0  0  0  0  0  0
  141.7279   76.3143  222.3966 H   0  0  0  0  0  0  0  0  0  0  0  0
  139.3160   74.8820  223.1780 H   0  0  0  0  0  0  0  0  0  0  0  0
  137.2179   73.8223  220.5733 H   0  0  0  0  0  0  0  0  0  0  0  0
  138.9236   73.4416  219.9704 H   0  0  0  0  0  0  0  0  0  0  0  0
  137.6910   72.1040  222.0930 H   0  0  0  0  0  0  0  0  0  0  0  0
  138.9210   70.0594  222.3156 H   0  0  0  0  0  0  0  0  0  0  0  0
  139.0910   68.2599  224.0762 H   0  0  0  0  0  0  0  0  0  0  0  0
  139.7680   67.6775  226.3594 H   0  0  0  0  0  0  0  0  0  0  0  0
  141.4921   70.6229  228.9825 H   0  0  0  0  0  0  0  0  0  0  0  0
  141.2737   72.3295  227.1624 H   0  0  0  0  0  0  0  0  0  0  0  0
  137.6513   77.7219  222.7177 H   0  0  0  0  0  0  0  0  0  0  0  0
  138.4680   80.0731  222.9669 H   0  0  0  0  0  0  0  0  0  0  0  0
  1  2  1  0
  2  3  1  0
  3  4  2  0
  4  5  1  0
  5  6  2  0
  6  7  1  0
  7  8  1  0
  8  9  2  0
  8 10  1  0
 10 11  1  0
 11 12  1  0
 12 13  2  0
 12 14  1  0
 14 15  2  0
 15 16  1  0
 16 17  2  0
 17 18  1  0
 18 19  2  0
 19 20  1  0
 19 21  1  0
 21 22  2  0
 22 23  1  0
 23 24  2  0
  6 25  1  0
 25 26  2  0
 26  3  1  0
 24 14  1  0
 23 17  1  0
  1 27  1  0
  1 28  1  0
  1 29  1  0
  4 30  1  0
  5 31  1  0
  7 32  1  0
 10 33  1  0
 10 34  1  0
 11 35  1  0
 15 36  1  0
 16 37  1  0
 18 38  1  0
 21 39  1  0
 22 40  1  0
 25 41  1  0
 26 42  1  0
M  END
>  <smiles>  (48) 
COc1ccc(NC(=O)CNC(=O)c2ccc3cc(F)ccc3n2)cc1

>  <score_type>  (48) 
oracle

>  <origin>  (48) 
autodockgpu

>  <m_score__min__energy>  (48) 
-8.4100000000000001

>  <m_primary>  (48) 
energy

>  <rmsd>  (48) 
3.0714566177540825

>  <m_score__min__rmsd>  (48) 
3.0714566177540825

>  <meeko>  (48) 
{"free_energy": -7.71, "intermolecular_energy": -9.2, "internal_energy": -1.4, "cluster_size": 36, "cluster_id": 1, "rank_in_cluster": 9}

>  <energy>  (48) 
-7.34

>  <cluster_rmsd>  (48) 
0.49

>  <cluster>  (48) 
2

$$$$

     RDKit          3D

 42 44  0  0  0  0  0  0  0  0999 V2000
  142.3280   80.9130  223.5310 C   0  0  0  0  0  0  0  0  0  0  0  0
  140.9950   80.7780  223.0720 O   0  0  0  0  0  0  0  0  0  0  0  0
  140.5020   79.4880  222.9180 C   0  0  0  0  0  0  0  0  0  0  0  0
  141.4510   78.4770  222.7950 C   0  0  0  0  0  0  0  0  0  0  0  0
  141.0710   77.1640  222.6380 C   0  0  0  0  0  0  0  0  0  0  0  0
  139.7060   76.8800  222.6050 C   0  0  0  0  0  0  0  0  0  0  0  0
  139.3640   75.5030  222.4410 N   0  0  0  0  0  0  0  0  0  0  0  0
  138.7410   75.1070  221.2310 C   0  0  0  0  0  0  0  0  0  0  0  0
  138.5320   76.0160  220.3620 O   0  0  0  0  0  0  0  0  0  0  0  0
  138.3190   73.7450  220.8940 C   0  0  0  0  0  0  0  0  0  0  0  0
  138.4510   72.7700  221.9280 N   0  0  0  0  0  0  0  0  0  0  0  0
  139.6760   72.5230  222.6180 C   0  0  0  0  0  0  0  0  0  0  0  0
  140.7400   73.1780  222.3480 O   0  0  0  0  0  0  0  0  0  0  0  0
  139.7290   71.4880  223.6740 C   0  0  0  0  0  0  0  0  0  0  0  0
  139.1840   70.2460  223.4370 C   0  0  0  0  0  0  0  0  0  0  0  0
  139.2300   69.2620  224.4310 C   0  0  0  0  0  0  0  0  0  0  0  0
  139.8380   69.6000  225.6310 C   0  0  0  0  0  0  0  0  0  0  0  0
  139.9300   68.6890  226.6710 C   0  0  0  0  0  0  0  0  0  0  0  0
  140.5360   69.0240  227.8690 C   0  0  0  0  0  0  0  0  0  0  0  0
  140.6230   68.1360  228.8780 F   0  0  0  0  0  0  0  0  0  0  0  0
  141.0740   70.2790  228.0730 C   0  0  0  0  0  0  0  0  0  0  0  0
  140.9910   71.2060  227.0410 C   0  0  0  0  0  0  0  0  0  0  0  0
  140.3830   70.8560  225.8530 C   0  0  0  0  0  0  0  0  0  0  0  0
  140.3040   71.7430  224.8650 N   0  0  0  0  0  0  0  0  0  0  0  0
  138.7550   77.8760  222.7270 C   0  0  0  0  0  0  0  0  0  0  0  0
  139.1530   79.1990  222.8850 C   0  0  0  0  0  0  0  0  0  0  0  0
  142.3387   80.9141  224.6310 H   0  0  0  0  0  0  0  0  0  0  0  0
  142.9308   80.0713  223.1593 H   0  0  0  0  0  0  0  0  0  0  0  0
  142.7498   81.8585  223.1593 H   0  0  0  0  0  0  0  0  0  0  0  0
  142.5207   78.7317  222.8238 H   0  0  0  0  0  0  0  0  0  0  0  0
  141.8198   76.3640  222.5416 H   0  0  0  0  0  0  0  0  0  0  0  0
  139.5680   74.8150  223.1740 H   0  0  0  0  0  0  0  0  0  0  0  0
  137.2588   73.7844  220.6034 H   0  0  0  0  0  0  0  0  0  0  0  0
  138.9967   73.4170  220.0920 H   0  0  0  0  0  0  0  0  0  0  0  0
  137.6360   72.1670  222.2440 H   0  0  0  0  0  0  0  0  0  0  0  0
  138.7129   70.0274  222.4673 H   0  0  0  0  0  0  0  0  0  0  0  0
  138.8018   68.2621  224.2675 H   0  0  0  0  0  0  0  0  0  0  0  0
  139.5130   67.6794  226.5417 H   0  0  0  0  0  0  0  0  0  0  0  0
  141.5557   70.5383  229.0273 H   0  0  0  0  0  0  0  0  0  0  0  0
  141.4086   72.2153  227.1709 H   0  0  0  0  0  0  0  0  0  0  0  0
  137.6850   77.6223  222.6991 H   0  0  0  0  0  0  0  0  0  0  0  0
  138.4061   80.0007  222.9819 H   0  0  0  0  0  0  0  0  0  0  0  0
  1  2  1  0
  2  3  1  0
  3  4  2  0
  4  5  1  0
  5  6  2  0
  6  7  1  0
  7  8  1  0
  8  9  2  0
  8 10  1  0
 10 11  1  0
 11 12  1  0
 12 13  2  0
 12 14  1  0
 14 15  2  0
 15 16  1  0
 16 17  2  0
 17 18  1  0
 18 19  2  0
 19 20  1  0
 19 21  1  0
 21 22  2  0
 22 23  1  0
 23 24  2  0
  6 25  1  0
 25 26  2  0
 26  3  1  0
 24 14  1  0
 23 17  1  0
  1 27  1  0
  1 28  1  0
  1 29  1  0
  4 30  1  0
  5 31  1  0
  7 32  1  0
 10 33  1  0
 10 34  1  0
 11 35  1  0
 15 36  1  0
 16 37  1  0
 18 38  1  0
 21 39  1  0
 22 40  1  0
 25 41  1  0
 26 42  1  0
M  END
>  <smiles>  (49) 
COc1ccc(NC(=O)CNC(=O)c2ccc3cc(F)ccc3n2)cc1

>  <score_type>  (49) 
oracle

>  <origin>  (49) 
autodockgpu

>  <m_score__min__energy>  (49) 
-8.4100000000000001

>  <m_primary>  (49) 
energy

>  <rmsd>  (49) 
3.11050286779204

>  <m_score__min__rmsd>  (49) 
3.11050286779204

>  <meeko>  (49) 
{"free_energy": -7.69, "intermolecular_energy": -9.18, "internal_energy": -1.45, "cluster_size": 36, "cluster_id": 1, "rank_in_cluster": 17}

>  <energy>  (49) 
-7.29

>  <cluster_rmsd>  (49) 
0.42

>  <cluster>  (49) 
2

$$$$

     RDKit          3D

 42 44  0  0  0  0  0  0  0  0999 V2000
  141.7750   81.2460  223.3580 C   0  0  0  0  0  0  0  0  0  0  0  0
  140.5020   80.8190  222.9090 O   0  0  0  0  0  0  0  0  0  0  0  0
  140.3010   79.4500  222.7730 C   0  0  0  0  0  0  0  0  0  0  0  0
  138.9800   79.0130  222.8240 C   0  0  0  0  0  0  0  0  0  0  0  0
  138.6700   77.6780  222.7010 C   0  0  0  0  0  0  0  0  0  0  0  0
  139.7210   76.7790  222.5240 C   0  0  0  0  0  0  0  0  0  0  0  0
  139.3460   75.4060  222.4010 N   0  0  0  0  0  0  0  0  0  0  0  0
  138.6970   74.9920  221.2110 C   0  0  0  0  0  0  0  0  0  0  0  0
  138.4950   75.8830  220.3210 O   0  0  0  0  0  0  0  0  0  0  0  0
  138.2420   73.6310  220.9160 C   0  0  0  0  0  0  0  0  0  0  0  0
  138.3820   72.6770  221.9670 N   0  0  0  0  0  0  0  0  0  0  0  0
  139.6160   72.4340  222.6430 C   0  0  0  0  0  0  0  0  0  0  0  0
  140.6820   73.0740  222.3420 O   0  0  0  0  0  0  0  0  0  0  0  0
  139.6780   71.4220  223.7200 C   0  0  0  0  0  0  0  0  0  0  0  0
  139.1390   70.1720  223.5100 C   0  0  0  0  0  0  0  0  0  0  0  0
  139.1930   69.2090  224.5240 C   0  0  0  0  0  0  0  0  0  0  0  0
  139.8020   69.5740  225.7140 C   0  0  0  0  0  0  0  0  0  0  0  0
  139.9020   68.6860  226.7730 C   0  0  0  0  0  0  0  0  0  0  0  0
  140.5110   69.0480  227.9620 C   0  0  0  0  0  0  0  0  0  0  0  0
  140.6050   68.1810  228.9880 F   0  0  0  0  0  0  0  0  0  0  0  0
  141.0420   70.3100  228.1380 C   0  0  0  0  0  0  0  0  0  0  0  0
  140.9520   71.2150  227.0880 C   0  0  0  0  0  0  0  0  0  0  0  0
  140.3420   70.8380  225.9090 C   0  0  0  0  0  0  0  0  0  0  0  0
  140.2550   71.7040  224.9030 N   0  0  0  0  0  0  0  0  0  0  0  0
  141.0360   77.2010  222.4710 C   0  0  0  0  0  0  0  0  0  0  0  0
  141.3360   78.5540  222.5980 C   0  0  0  0  0  0  0  0  0  0  0  0
  141.7928   81.2520  224.4578 H   0  0  0  0  0  0  0  0  0  0  0  0
  142.5462   80.5574  222.9825 H   0  0  0  0  0  0  0  0  0  0  0  0
  141.9750   82.2604  222.9825 H   0  0  0  0  0  0  0  0  0  0  0  0
  138.1720   79.7460  222.9648 H   0  0  0  0  0  0  0  0  0  0  0  0
  137.6268   77.3313  222.7410 H   0  0  0  0  0  0  0  0  0  0  0  0
  139.5470   74.7330  223.1490 H   0  0  0  0  0  0  0  0  0  0  0  0
  137.1757   73.6840  220.6511 H   0  0  0  0  0  0  0  0  0  0  0  0
  138.8936   73.2727  220.1054 H   0  0  0  0  0  0  0  0  0  0  0  0
  137.5680   72.0890  222.3090 H   0  0  0  0  0  0  0  0  0  0  0  0
  138.6666   69.9309  222.5463 H   0  0  0  0  0  0  0  0  0  0  0  0
  138.7694   68.2038  224.3822 H   0  0  0  0  0  0  0  0  0  0  0  0
  139.4887   67.6722  226.6665 H   0  0  0  0  0  0  0  0  0  0  0  0
  141.5242   70.5918  229.0857 H   0  0  0  0  0  0  0  0  0  0  0  0
  141.3655   72.2286  227.1960 H   0  0  0  0  0  0  0  0  0  0  0  0
  141.8442   76.4686  222.3286 H   0  0  0  0  0  0  0  0  0  0  0  0
  142.3785   78.9028  222.5596 H   0  0  0  0  0  0  0  0  0  0  0  0
  1  2  1  0
  2  3  1  0
  3  4  2  0
  4  5  1  0
  5  6  2  0
  6  7  1  0
  7  8  1  0
  8  9  2  0
  8 10  1  0
 10 11  1  0
 11 12  1  0
 12 13  2  0
 12 14  1  0
 14 15  2  0
 15 16  1  0
 16 17  2  0
 17 18  1  0
 18 19  2  0
 19 20  1  0
 19 21  1  0
 21 22  2  0
 22 23  1  0
 23 24  2  0
  6 25  1  0
 25 26  2  0
 26  3  1  0
 24 14  1  0
 23 17  1  0
  1 27  1  0
  1 28  1  0
  1 29  1  0
  4 30  1  0
  5 31  1  0
  7 32  1  0
 10 33  1  0
 10 34  1  0
 11 35  1  0
 15 36  1  0
 16 37  1  0
 18 38  1  0
 21 39  1  0
 22 40  1  0
 25 41  1  0
 26 42  1  0
M  END
>  <smiles>  (50) 
COc1ccc(NC(=O)CNC(=O)c2ccc3cc(F)ccc3n2)cc1

>  <score_type>  (50) 
oracle

>  <origin>  (50) 
autodockgpu

>  <m_score__min__energy>  (50) 
-8.4100000000000001

>  <m_primary>  (50) 
energy

>  <rmsd>  (50) 
3.1367064819633046

>  <m_score__min__rmsd>  (50) 
3.1367064819633046

>  <meeko>  (50) 
{"free_energy": -7.58, "intermolecular_energy": -9.07, "internal_energy": -1.44, "cluster_size": 36, "cluster_id": 1, "rank_in_cluster": 32}

>  <energy>  (50) 
-7.29

>  <cluster_rmsd>  (50) 
0.26

>  <cluster>  (50) 
2

$$$$
