
     RDKit          3D

 52 55  0  0  0  0  0  0  0  0999 V2000
  139.6200   74.3320  221.9660 O   0  0  0  0  0  0  0  0  0  0  0  0
  140.0110   75.5280  221.9560 C   0  0  0  0  0  0  0  0  0  0  0  0
  141.3380   75.8740  221.5540 N   0  0  0  0  0  0  0  0  0  0  0  0
  142.2500   74.8200  221.1500 C   0  0  0  0  0  0  0  0  0  0  0  0
  143.0900   75.3350  220.0570 C   0  0  0  0  0  0  0  0  0  0  0  0
  144.3250   75.1120  219.9960 O   0  0  0  0  0  0  0  0  0  0  0  0
  142.5050   76.1020  219.0440 N   0  0  0  0  0  0  0  0  0  0  0  0
  141.4100   75.7770  218.1240 C   0  0  0  0  0  0  0  0  0  0  0  0
  141.5860   76.6630  216.9020 C   0  0  0  0  0  0  0  0  0  0  0  0
  142.9560   77.2700  217.1700 C   0  0  2  0  0  0  0  0  0  0  0  0
  143.8410   76.1770  217.0040 F   0  0  0  0  0  0  0  0  0  0  0  0
  142.8710   77.4920  218.6380 C   0  0  1  0  0  0  0  0  0  0  0  0
  141.7920   78.3780  219.1580 C   0  0  0  0  0  0  0  0  0  0  0  0
  141.8230   78.6350  220.4600 O   0  0  0  0  0  0  0  0  0  0  0  0
  141.9150   79.5320  221.4310 C   0  0  0  0  0  0  0  0  0  0  0  0
  141.5620   80.8610  221.4230 C   0  0  0  0  0  0  0  0  0  0  0  0
  141.7010   81.7180  222.4800 C   0  0  0  0  0  0  0  0  0  0  0  0
  142.2320   81.2200  223.6440 C   0  0  0  0  0  0  0  0  0  0  0  0
  142.6100   79.9040  223.7380 C   0  0  0  0  0  0  0  0  0  0  0  0
  142.4560   79.0790  222.6590 C   0  0  0  0  0  0  0  0  0  0  0  0
  139.1210   76.6130  222.3570 C   0  0  0  0  0  0  0  0  0  0  0  0
  137.7570   76.4780  222.1840 C   0  0  0  0  0  0  0  0  0  0  0  0
  136.8790   77.4900  222.5540 C   0  0  0  0  0  0  0  0  0  0  0  0
  137.3990   78.6420  223.1020 C   0  0  0  0  0  0  0  0  0  0  0  0
  136.6040   79.7060  223.5010 C   0  0  0  0  0  0  0  0  0  0  0  0
  137.1480   80.8470  224.0470 C   0  0  0  0  0  0  0  0  0  0  0  0
  136.1570   82.1900  224.5520 Cl  0  0  0  0  0  0  0  0  0  0  0  0
  138.5180   80.9390  224.2010 C   0  0  0  0  0  0  0  0  0  0  0  0
  139.3350   79.9040  223.8150 C   0  0  0  0  0  0  0  0  0  0  0  0
  138.7700   78.7650  223.2700 C   0  0  0  0  0  0  0  0  0  0  0  0
  139.5750   77.7570  222.8950 N   0  0  0  0  0  0  0  0  0  0  0  0
  141.6270   76.8930  221.5610 H   0  0  0  0  0  0  0  0  0  0  0  0
  142.8831   74.5285  222.0010 H   0  0  0  0  0  0  0  0  0  0  0  0
  141.6865   73.9373  220.8135 H   0  0  0  0  0  0  0  0  0  0  0  0
  141.4610   74.7172  217.8339 H   0  0  0  0  0  0  0  0  0  0  0  0
  140.4322   75.9479  218.5980 H   0  0  0  0  0  0  0  0  0  0  0  0
  141.5811   76.0738  215.9731 H   0  0  0  0  0  0  0  0  0  0  0  0
  140.7843   77.4032  216.7624 H   0  0  0  0  0  0  0  0  0  0  0  0
  143.2418   78.1486  216.5731 H   0  0  0  0  0  0  0  0  0  0  0  0
  143.7863   77.9789  219.0056 H   0  0  0  0  0  0  0  0  0  0  0  0
  141.8591   79.3376  218.6245 H   0  0  0  0  0  0  0  0  0  0  0  0
  140.8531   77.8308  218.9876 H   0  0  0  0  0  0  0  0  0  0  0  0
  141.1345   81.2666  220.4942 H   0  0  0  0  0  0  0  0  0  0  0  0
  141.3972   82.7722  222.4000 H   0  0  0  0  0  0  0  0  0  0  0  0
  142.3560   81.8841  224.5121 H   0  0  0  0  0  0  0  0  0  0  0  0
  143.0342   79.5156  224.6757 H   0  0  0  0  0  0  0  0  0  0  0  0
  142.7630   78.0264  222.7476 H   0  0  0  0  0  0  0  0  0  0  0  0
  137.3581   75.5517  221.7449 H   0  0  0  0  0  0  0  0  0  0  0  0
  135.7943   77.3738  222.4126 H   0  0  0  0  0  0  0  0  0  0  0  0
  135.5131   79.6368  223.3784 H   0  0  0  0  0  0  0  0  0  0  0  0
  138.9582   81.8483  224.6362 H   0  0  0  0  0  0  0  0  0  0  0  0
  140.4255   79.9802  223.9379 H   0  0  0  0  0  0  0  0  0  0  0  0
  1  2  2  0
  2  3  1  0
  3  4  1  0
  4  5  1  0
  5  6  2  0
  5  7  1  0
  7  8  1  0
  8  9  1  0
  9 10  1  0
 10 11  1  0
 10 12  1  0
 12 13  1  0
 13 14  1  0
 14 15  1  0
 15 16  2  0
 16 17  1  0
 17 18  2  0
 18 19  1  0
 19 20  2  0
  2 21  1  0
 21 22  2  0
 22 23  1  0
 23 24  2  0
 24 25  1  0
 25 26  2  0
 26 27  1  0
 26 28  1  0
 28 29  2  0
 29 30  1  0
 30 31  2  0
 12  7  1  0
 20 15  1  0
 31 21  1  0
 30 24  1  0
  3 32  1  0
  4 33  1  0
  4 34  1  0
  8 35  1  0
  8 36  1  0
  9 37  1  0
  9 38  1  0
 10 39  1  6
 12 40  1  1
 13 41  1  0
 13 42  1  0
 16 43  1  0
 17 44  1  0
 18 45  1  0
 19 46  1  0
 20 47  1  0
 22 48  1  0
 23 49  1  0
 25 50  1  0
 28 51  1  0
 29 52  1  0
M  END
>  <smiles>  (1) 
O=C(NCC(=O)N1CC[C@H](F)[C@H]1COc1ccccc1)c1ccc2cc(Cl)ccc2n1

>  <score_type>  (1) 
oracle

>  <origin>  (1) 
autodockgpu

>  <m_score__min__energy>  (1) 
-8.2599999999999998

>  <m_primary>  (1) 
energy

>  <rmsd>  (1) 
6.889793363827324

>  <m_score__min__rmsd>  (1) 
6.889793363827324

>  <meeko>  (1) 
{"free_energy": -6.45, "intermolecular_energy": -8.54, "internal_energy": -3.43, "cluster_size": 6, "cluster_id": 6, "rank_in_cluster": 3}

>  <energy>  (1) 
-8.26

>  <cluster_rmsd>  (1) 
0.0

>  <cluster>  (1) 
1

$$$$

     RDKit          3D

 52 55  0  0  0  0  0  0  0  0999 V2000
  140.1980   72.2850  220.6260 O   0  0  0  0  0  0  0  0  0  0  0  0
  139.9860   72.6820  221.8020 C   0  0  0  0  0  0  0  0  0  0  0  0
  139.7570   74.0630  222.0900 N   0  0  0  0  0  0  0  0  0  0  0  0
  139.7690   75.0220  221.0020 C   0  0  0  0  0  0  0  0  0  0  0  0
  140.3520   76.2770  221.5040 C   0  0  0  0  0  0  0  0  0  0  0  0
  140.4190   76.5440  222.7300 O   0  0  0  0  0  0  0  0  0  0  0  0
  140.8510   77.2150  220.5940 N   0  0  0  0  0  0  0  0  0  0  0  0
  140.9630   78.6730  220.7030 C   0  0  0  0  0  0  0  0  0  0  0  0
  140.9870   79.2190  219.2850 C   0  0  0  0  0  0  0  0  0  0  0  0
  140.6460   77.9720  218.4810 C   0  0  2  0  0  0  0  0  0  0  0  0
  139.2850   77.7370  218.7970 F   0  0  0  0  0  0  0  0  0  0  0  0
  141.4120   76.9450  219.2360 C   0  0  1  0  0  0  0  0  0  0  0  0
  142.8880   77.1090  219.3530 C   0  0  0  0  0  0  0  0  0  0  0  0
  143.6010   75.9890  219.3720 O   0  0  0  0  0  0  0  0  0  0  0  0
  143.7820   74.7750  219.8710 C   0  0  0  0  0  0  0  0  0  0  0  0
  142.9230   73.7000  219.8760 C   0  0  0  0  0  0  0  0  0  0  0  0
  143.1970   72.4780  220.4250 C   0  0  0  0  0  0  0  0  0  0  0  0
  144.4220   72.3000  221.0180 C   0  0  0  0  0  0  0  0  0  0  0  0
  145.3400   73.3200  221.0550 C   0  0  0  0  0  0  0  0  0  0  0  0
  145.0290   74.5280  220.4970 C   0  0  0  0  0  0  0  0  0  0  0  0
  139.9670   71.7440  222.9200 C   0  0  0  0  0  0  0  0  0  0  0  0
  139.3920   70.4980  222.7590 C   0  0  0  0  0  0  0  0  0  0  0  0
  139.3560   69.5800  223.8020 C   0  0  0  0  0  0  0  0  0  0  0  0
  139.9090   69.9380  225.0110 C   0  0  0  0  0  0  0  0  0  0  0  0
  139.9210   69.0910  226.1090 C   0  0  0  0  0  0  0  0  0  0  0  0
  140.4810   69.4720  227.3070 C   0  0  0  0  0  0  0  0  0  0  0  0
  140.5010   68.4130  228.6940 Cl  0  0  0  0  0  0  0  0  0  0  0  0
  141.0460   70.7280  227.4240 C   0  0  0  0  0  0  0  0  0  0  0  0
  141.0510   71.5930  226.3560 C   0  0  0  0  0  0  0  0  0  0  0  0
  140.4840   71.1920  225.1600 C   0  0  0  0  0  0  0  0  0  0  0  0
  140.4920   72.0420  224.1200 N   0  0  0  0  0  0  0  0  0  0  0  0
  139.5830   74.3550  223.0940 H   0  0  0  0  0  0  0  0  0  0  0  0
  140.3767   74.6350  220.1708 H   0  0  0  0  0  0  0  0  0  0  0  0
  138.7461   75.1966  220.6370 H   0  0  0  0  0  0  0  0  0  0  0  0
  140.0998   79.0792  221.2506 H   0  0  0  0  0  0  0  0  0  0  0  0
  141.8727   78.9590  221.2514 H   0  0  0  0  0  0  0  0  0  0  0  0
  140.2334   80.0078  219.1442 H   0  0  0  0  0  0  0  0  0  0  0  0
  141.9378   79.6932  219.0003 H   0  0  0  0  0  0  0  0  0  0  0  0
  140.8365   78.0041  217.3981 H   0  0  0  0  0  0  0  0  0  0  0  0
  141.3115   75.9609  218.7548 H   0  0  0  0  0  0  0  0  0  0  0  0
  143.2283   77.7094  218.4964 H   0  0  0  0  0  0  0  0  0  0  0  0
  143.0558   77.5824  220.3316 H   0  0  0  0  0  0  0  0  0  0  0  0
  141.9397   73.8341  219.4016 H   0  0  0  0  0  0  0  0  0  0  0  0
  142.4588   71.6631  220.3924 H   0  0  0  0  0  0  0  0  0  0  0  0
  144.6712   71.3282  221.4691 H   0  0  0  0  0  0  0  0  0  0  0  0
  146.3197   73.1659  221.5308 H   0  0  0  0  0  0  0  0  0  0  0  0
  145.7730   75.3373  220.5351 H   0  0  0  0  0  0  0  0  0  0  0  0
  138.9543   70.2274  221.7868 H   0  0  0  0  0  0  0  0  0  0  0  0
  138.8963   68.5902  223.6647 H   0  0  0  0  0  0  0  0  0  0  0  0
  139.4722   68.0907  226.0202 H   0  0  0  0  0  0  0  0  0  0  0  0
  141.4951   71.0376  228.3792 H   0  0  0  0  0  0  0  0  0  0  0  0
  141.5006   72.5924  226.4513 H   0  0  0  0  0  0  0  0  0  0  0  0
  1  2  2  0
  2  3  1  0
  3  4  1  0
  4  5  1  0
  5  6  2  0
  5  7  1  0
  7  8  1  0
  8  9  1  0
  9 10  1  0
 10 11  1  0
 10 12  1  0
 12 13  1  0
 13 14  1  0
 14 15  1  0
 15 16  2  0
 16 17  1  0
 17 18  2  0
 18 19  1  0
 19 20  2  0
  2 21  1  0
 21 22  2  0
 22 23  1  0
 23 24  2  0
 24 25  1  0
 25 26  2  0
 26 27  1  0
 26 28  1  0
 28 29  2  0
 29 30  1  0
 30 31  2  0
 12  7  1  0
 20 15  1  0
 31 21  1  0
 30 24  1  0
  3 32  1  0
  4 33  1  0
  4 34  1  0
  8 35  1  0
  8 36  1  0
  9 37  1  0
  9 38  1  0
 10 39  1  6
 12 40  1  6
 13 41  1  0
 13 42  1  0
 16 43  1  0
 17 44  1  0
 18 45  1  0
 19 46  1  0
 20 47  1  0
 22 48  1  0
 23 49  1  0
 25 50  1  0
 28 51  1  0
 29 52  1  0
M  END
>  <smiles>  (2) 
O=C(NCC(=O)N1CC[C@H](F)[C@H]1COc1ccccc1)c1ccc2cc(Cl)ccc2n1

>  <score_type>  (2) 
oracle

>  <origin>  (2) 
autodockgpu

>  <m_score__min__energy>  (2) 
-8.2599999999999998

>  <m_primary>  (2) 
energy

>  <rmsd>  (2) 
2.4056492387261827

>  <m_score__min__rmsd>  (2) 
2.4056492387261827

>  <meeko>  (2) 
{"free_energy": -7.74, "intermolecular_energy": -9.83, "internal_energy": -2.4, "cluster_size": 14, "cluster_id": 2, "rank_in_cluster": 7}

>  <energy>  (2) 
-8.1

>  <cluster_rmsd>  (2) 
0.79

>  <cluster>  (2) 
1

$$$$

     RDKit          3D

 52 55  0  0  0  0  0  0  0  0999 V2000
  139.8710   72.3470  220.6520 O   0  0  0  0  0  0  0  0  0  0  0  0
  139.7860   72.7460  221.8430 C   0  0  0  0  0  0  0  0  0  0  0  0
  139.6170   74.1310  222.1520 N   0  0  0  0  0  0  0  0  0  0  0  0
  139.5440   75.0920  221.0680 C   0  0  0  0  0  0  0  0  0  0  0  0
  139.4800   76.4410  221.6550 C   0  0  0  0  0  0  0  0  0  0  0  0
  140.5060   77.1430  221.8390 O   0  0  0  0  0  0  0  0  0  0  0  0
  138.2400   76.9710  222.0250 N   0  0  0  0  0  0  0  0  0  0  0  0
  137.1030   76.3360  222.6990 C   0  0  0  0  0  0  0  0  0  0  0  0
  135.8660   77.1310  222.3160 C   0  0  0  0  0  0  0  0  0  0  0  0
  136.4240   78.0450  221.2340 C   0  0  2  0  0  0  0  0  0  0  0  0
  136.6820   77.1630  220.1570 F   0  0  0  0  0  0  0  0  0  0  0  0
  137.7550   78.3680  221.8120 C   0  0  1  0  0  0  0  0  0  0  0  0
  137.8050   79.0360  223.1430 C   0  0  0  0  0  0  0  0  0  0  0  0
  138.9040   79.7330  223.4060 O   0  0  0  0  0  0  0  0  0  0  0  0
  140.2040   79.9060  223.2150 C   0  0  0  0  0  0  0  0  0  0  0  0
  141.2620   79.2230  223.7670 C   0  0  0  0  0  0  0  0  0  0  0  0
  142.5810   79.4780  223.5130 C   0  0  0  0  0  0  0  0  0  0  0  0
  142.8820   80.4920  222.6370 C   0  0  0  0  0  0  0  0  0  0  0  0
  141.8860   81.2240  222.0400 C   0  0  0  0  0  0  0  0  0  0  0  0
  140.5790   80.9390  222.3210 C   0  0  0  0  0  0  0  0  0  0  0  0
  139.8560   71.8060  222.9570 C   0  0  0  0  0  0  0  0  0  0  0  0
  139.3910   70.5150  222.7940 C   0  0  0  0  0  0  0  0  0  0  0  0
  139.4420   69.5930  223.8330 C   0  0  0  0  0  0  0  0  0  0  0  0
  139.9690   69.9950  225.0410 C   0  0  0  0  0  0  0  0  0  0  0  0
  140.0620   69.1480  226.1350 C   0  0  0  0  0  0  0  0  0  0  0  0
  140.5930   69.5730  227.3310 C   0  0  0  0  0  0  0  0  0  0  0  0
  140.7140   68.5150  228.7140 Cl  0  0  0  0  0  0  0  0  0  0  0  0
  141.0450   70.8730  227.4510 C   0  0  0  0  0  0  0  0  0  0  0  0
  140.9680   71.7390  226.3860 C   0  0  0  0  0  0  0  0  0  0  0  0
  140.4310   71.2940  225.1910 C   0  0  0  0  0  0  0  0  0  0  0  0
  140.3590   72.1450  224.1550 N   0  0  0  0  0  0  0  0  0  0  0  0
  139.5490   74.4240  223.1680 H   0  0  0  0  0  0  0  0  0  0  0  0
  140.4369   75.0045  220.4316 H   0  0  0  0  0  0  0  0  0  0  0  0
  138.6534   74.9027  220.4507 H   0  0  0  0  0  0  0  0  0  0  0  0
  137.0004   75.2924  222.3667 H   0  0  0  0  0  0  0  0  0  0  0  0
  137.2450   76.3279  223.7898 H   0  0  0  0  0  0  0  0  0  0  0  0
  135.0732   76.4779  221.9224 H   0  0  0  0  0  0  0  0  0  0  0  0
  135.3932   77.6620  223.1554 H   0  0  0  0  0  0  0  0  0  0  0  0
  135.8119   78.9111  220.9423 H   0  0  0  0  0  0  0  0  0  0  0  0
  138.2938   79.0741  221.1631 H   0  0  0  0  0  0  0  0  0  0  0  0
  136.9482   79.7229  223.2067 H   0  0  0  0  0  0  0  0  0  0  0  0
  137.7873   78.2221  223.8828 H   0  0  0  0  0  0  0  0  0  0  0  0
  141.0290   78.4077  224.4677 H   0  0  0  0  0  0  0  0  0  0  0  0
  143.3758   78.8897  223.9949 H   0  0  0  0  0  0  0  0  0  0  0  0
  143.9340   80.7203  222.4110 H   0  0  0  0  0  0  0  0  0  0  0  0
  142.1379   82.0344  221.3402 H   0  0  0  0  0  0  0  0  0  0  0  0
  139.7904   81.5328  221.8357 H   0  0  0  0  0  0  0  0  0  0  0  0
  138.9724   70.2110  221.8232 H   0  0  0  0  0  0  0  0  0  0  0  0
  139.0705   68.5670  223.6941 H   0  0  0  0  0  0  0  0  0  0  0  0
  139.7029   68.1122  226.0445 H   0  0  0  0  0  0  0  0  0  0  0  0
  141.4695   71.2176  228.4055 H   0  0  0  0  0  0  0  0  0  0  0  0
  141.3291   72.7735  226.4828 H   0  0  0  0  0  0  0  0  0  0  0  0
  1  2  2  0
  2  3  1  0
  3  4  1  0
  4  5  1  0
  5  6  2  0
  5  7  1  0
  7  8  1  0
  8  9  1  0
  9 10  1  0
 10 11  1  0
 10 12  1  0
 12 13  1  0
 13 14  1  0
 14 15  1  0
 15 16  2  0
 16 17  1  0
 17 18  2  0
 18 19  1  0
 19 20  2  0
  2 21  1  0
 21 22  2  0
 22 23  1  0
 23 24  2  0
 24 25  1  0
 25 26  2  0
 26 27  1  0
 26 28  1  0
 28 29  2  0
 29 30  1  0
 30 31  2  0
 12  7  1  0
 20 15  1  0
 31 21  1  0
 30 24  1  0
  3 32  1  0
  4 33  1  0
  4 34  1  0
  8 35  1  0
  8 36  1  0
  9 37  1  0
  9 38  1  0
 10 39  1  6
 12 40  1  6
 13 41  1  0
 13 42  1  0
 16 43  1  0
 17 44  1  0
 18 45  1  0
 19 46  1  0
 20 47  1  0
 22 48  1  0
 23 49  1  0
 25 50  1  0
 28 51  1  0
 29 52  1  0
M  END
>  <smiles>  (3) 
O=C(NCC(=O)N1CC[C@H](F)[C@H]1COc1ccccc1)c1ccc2cc(Cl)ccc2n1

>  <score_type>  (3) 
oracle

>  <origin>  (3) 
autodockgpu

>  <m_score__min__energy>  (3) 
-8.2599999999999998

>  <m_primary>  (3) 
energy

>  <rmsd>  (3) 
3.363837367290101

>  <m_score__min__rmsd>  (3) 
3.363837367290101

>  <meeko>  (3) 
{"free_energy": -8.07, "intermolecular_energy": -10.16, "internal_energy": -1.7, "cluster_size": 4, "cluster_id": 3, "rank_in_cluster": 2}

>  <energy>  (3) 
-8.08

>  <cluster_rmsd>  (3) 
1.03

>  <cluster>  (3) 
1

$$$$

     RDKit          3D

 52 55  0  0  0  0  0  0  0  0999 V2000
  138.3220   72.2800  220.9450 O   0  0  0  0  0  0  0  0  0  0  0  0
  139.2360   72.4510  221.7940 C   0  0  0  0  0  0  0  0  0  0  0  0
  140.1780   73.5180  221.6670 N   0  0  0  0  0  0  0  0  0  0  0  0
  140.0750   74.4190  220.5350 C   0  0  0  0  0  0  0  0  0  0  0  0
  141.3300   75.1830  220.4420 C   0  0  0  0  0  0  0  0  0  0  0  0
  142.1670   75.2180  221.3780 O   0  0  0  0  0  0  0  0  0  0  0  0
  141.6110   75.9000  219.2740 N   0  0  0  0  0  0  0  0  0  0  0  0
  141.0140   75.8050  217.9380 C   0  0  0  0  0  0  0  0  0  0  0  0
  142.0480   76.3310  216.9570 C   0  0  0  0  0  0  0  0  0  0  0  0
  143.2680   76.4690  217.8560 C   0  0  2  0  0  0  0  0  0  0  0  0
  143.6260   75.1270  218.1360 F   0  0  0  0  0  0  0  0  0  0  0  0
  142.6320   76.9780  219.1000 C   0  0  1  0  0  0  0  0  0  0  0  0
  141.8780   78.2610  219.0350 C   0  0  0  0  0  0  0  0  0  0  0  0
  141.4350   78.7390  220.1920 O   0  0  0  0  0  0  0  0  0  0  0  0
  141.7120   79.1850  221.4080 C   0  0  0  0  0  0  0  0  0  0  0  0
  142.2370   80.3970  221.7910 C   0  0  0  0  0  0  0  0  0  0  0  0
  142.4960   80.7690  223.0810 C   0  0  0  0  0  0  0  0  0  0  0  0
  142.2100   79.8690  224.0790 C   0  0  0  0  0  0  0  0  0  0  0  0
  141.6820   78.6370  223.7840 C   0  0  0  0  0  0  0  0  0  0  0  0
  141.4390   78.3020  222.4820 C   0  0  0  0  0  0  0  0  0  0  0  0
  139.3680   71.5630  222.9450 C   0  0  0  0  0  0  0  0  0  0  0  0
  138.7560   70.3250  222.9290 C   0  0  0  0  0  0  0  0  0  0  0  0
  138.8610   69.4530  224.0060 C   0  0  0  0  0  0  0  0  0  0  0  0
  139.5940   69.8510  225.1020 C   0  0  0  0  0  0  0  0  0  0  0  0
  139.7560   69.0520  226.2240 C   0  0  0  0  0  0  0  0  0  0  0  0
  140.4940   69.4720  227.3070 C   0  0  0  0  0  0  0  0  0  0  0  0
  140.7040   68.4740  228.7230 Cl  0  0  0  0  0  0  0  0  0  0  0  0
  141.0890   70.7190  227.2810 C   0  0  0  0  0  0  0  0  0  0  0  0
  140.9490   71.5360  226.1850 C   0  0  0  0  0  0  0  0  0  0  0  0
  140.2040   71.0970  225.1060 C   0  0  0  0  0  0  0  0  0  0  0  0
  140.0710   71.9010  224.0390 N   0  0  0  0  0  0  0  0  0  0  0  0
  140.9310   73.6260  222.4040 H   0  0  0  0  0  0  0  0  0  0  0  0
  139.9210   73.8413  219.6116 H   0  0  0  0  0  0  0  0  0  0  0  0
  139.2226   75.1015  220.6679 H   0  0  0  0  0  0  0  0  0  0  0  0
  140.7700   74.7578  217.7058 H   0  0  0  0  0  0  0  0  0  0  0  0
  140.0824   76.3870  217.8796 H   0  0  0  0  0  0  0  0  0  0  0  0
  142.2283   75.6166  216.1402 H   0  0  0  0  0  0  0  0  0  0  0  0
  141.7549   77.2616  216.4491 H   0  0  0  0  0  0  0  0  0  0  0  0
  144.1084   77.0674  217.4745 H   0  0  0  0  0  0  0  0  0  0  0  0
  143.3953   77.1806  219.8657 H   0  0  0  0  0  0  0  0  0  0  0  0
  142.5410   79.0180  218.5907 H   0  0  0  0  0  0  0  0  0  0  0  0
  140.9776   78.0441  218.4415 H   0  0  0  0  0  0  0  0  0  0  0  0
  142.4664   81.1238  220.9978 H   0  0  0  0  0  0  0  0  0  0  0  0
  142.9198   81.7573  223.3124 H   0  0  0  0  0  0  0  0  0  0  0  0
  142.4066   80.1391  225.1270 H   0  0  0  0  0  0  0  0  0  0  0  0
  141.4560   77.9240  224.5906 H   0  0  0  0  0  0  0  0  0  0  0  0
  141.0162   77.3112  222.2595 H   0  0  0  0  0  0  0  0  0  0  0  0
  138.1737   70.0231  222.0460 H   0  0  0  0  0  0  0  0  0  0  0  0
  138.3705   68.4687  223.9837 H   0  0  0  0  0  0  0  0  0  0  0  0
  139.2834   68.0590  226.2488 H   0  0  0  0  0  0  0  0  0  0  0  0
  141.6792   71.0602  228.1443 H   0  0  0  0  0  0  0  0  0  0  0  0
  141.4242   72.5279  226.1662 H   0  0  0  0  0  0  0  0  0  0  0  0
  1  2  2  0
  2  3  1  0
  3  4  1  0
  4  5  1  0
  5  6  2  0
  5  7  1  0
  7  8  1  0
  8  9  1  0
  9 10  1  0
 10 11  1  0
 10 12  1  0
 12 13  1  0
 13 14  1  0
 14 15  1  0
 15 16  2  0
 16 17  1  0
 17 18  2  0
 18 19  1  0
 19 20  2  0
  2 21  1  0
 21 22  2  0
 22 23  1  0
 23 24  2  0
 24 25  1  0
 25 26  2  0
 26 27  1  0
 26 28  1  0
 28 29  2  0
 29 30  1  0
 30 31  2  0
 12  7  1  0
 20 15  1  0
 31 21  1  0
 30 24  1  0
  3 32  1  0
  4 33  1  0
  4 34  1  0
  8 35  1  0
  8 36  1  0
  9 37  1  0
  9 38  1  0
 10 39  1  6
 12 40  1  1
 13 41  1  0
 13 42  1  0
 16 43  1  0
 17 44  1  0
 18 45  1  0
 19 46  1  0
 20 47  1  0
 22 48  1  0
 23 49  1  0
 25 50  1  0
 28 51  1  0
 29 52  1  0
M  END
>  <smiles>  (4) 
O=C(NCC(=O)N1CC[C@H](F)[C@H]1COc1ccccc1)c1ccc2cc(Cl)ccc2n1

>  <score_type>  (4) 
oracle

>  <origin>  (4) 
autodockgpu

>  <m_score__min__energy>  (4) 
-8.2599999999999998

>  <m_primary>  (4) 
energy

>  <rmsd>  (4) 
1.724112889000326

>  <m_score__min__rmsd>  (4) 
1.724112889000326

>  <meeko>  (4) 
{"free_energy": -7.47, "intermolecular_energy": -9.56, "internal_energy": -2.19, "cluster_size": 14, "cluster_id": 1, "rank_in_cluster": 13}

>  <energy>  (4) 
-8.06

>  <cluster_rmsd>  (4) 
0.7

>  <cluster>  (4) 
1

$$$$

     RDKit          3D

 52 55  0  0  0  0  0  0  0  0999 V2000
  133.8250   69.7170  226.1340 O   0  0  0  0  0  0  0  0  0  0  0  0
  134.1840   70.8750  225.7920 C   0  0  0  0  0  0  0  0  0  0  0  0
  135.2530   71.0780  224.8660 N   0  0  0  0  0  0  0  0  0  0  0  0
  135.9350   69.9240  224.3110 C   0  0  0  0  0  0  0  0  0  0  0  0
  137.2780   70.3480  223.8830 C   0  0  0  0  0  0  0  0  0  0  0  0
  137.7680   71.4590  224.2050 O   0  0  0  0  0  0  0  0  0  0  0  0
  138.0470   69.4910  223.0880 N   0  0  0  0  0  0  0  0  0  0  0  0
  139.1420   69.7910  222.1590 C   0  0  0  0  0  0  0  0  0  0  0  0
  139.1950   68.6470  221.1590 C   0  0  0  0  0  0  0  0  0  0  0  0
  137.9210   67.8900  221.5070 C   0  0  2  0  0  0  0  0  0  0  0  0
  136.8900   68.7580  221.0690 F   0  0  0  0  0  0  0  0  0  0  0  0
  137.9330   68.0050  222.9890 C   0  0  1  0  0  0  0  0  0  0  0  0
  139.0970   67.4450  223.7320 C   0  0  0  0  0  0  0  0  0  0  0  0
  139.2150   67.8170  225.0010 O   0  0  0  0  0  0  0  0  0  0  0  0
  139.7000   68.6770  225.8850 C   0  0  0  0  0  0  0  0  0  0  0  0
  140.1570   69.9600  225.6880 C   0  0  0  0  0  0  0  0  0  0  0  0
  140.6490   70.7770  226.6670 C   0  0  0  0  0  0  0  0  0  0  0  0
  140.6940   70.2880  227.9500 C   0  0  0  0  0  0  0  0  0  0  0  0
  140.2560   69.0180  228.2340 C   0  0  0  0  0  0  0  0  0  0  0  0
  139.7720   68.2310  227.2270 C   0  0  0  0  0  0  0  0  0  0  0  0
  133.5200   72.0580  226.3310 C   0  0  0  0  0  0  0  0  0  0  0  0
  132.3570   71.9160  227.0640 C   0  0  0  0  0  0  0  0  0  0  0  0
  131.6980   73.0190  227.5920 C   0  0  0  0  0  0  0  0  0  0  0  0
  132.2300   74.2700  227.3680 C   0  0  0  0  0  0  0  0  0  0  0  0
  131.6440   75.4300  227.8540 C   0  0  0  0  0  0  0  0  0  0  0  0
  132.1960   76.6680  227.6170 C   0  0  0  0  0  0  0  0  0  0  0  0
  131.4670   78.1330  228.2240 Cl  0  0  0  0  0  0  0  0  0  0  0  0
  133.3590   76.7640  226.8780 C   0  0  0  0  0  0  0  0  0  0  0  0
  133.9650   75.6350  226.3820 C   0  0  0  0  0  0  0  0  0  0  0  0
  133.3970   74.3990  226.6310 C   0  0  0  0  0  0  0  0  0  0  0  0
  133.9950   73.2990  226.1420 N   0  0  0  0  0  0  0  0  0  0  0  0
  135.5230   72.0690  224.6040 H   0  0  0  0  0  0  0  0  0  0  0  0
  136.0184   69.1372  225.0752 H   0  0  0  0  0  0  0  0  0  0  0  0
  135.3713   69.5235  223.4555 H   0  0  0  0  0  0  0  0  0  0  0  0
  138.9477   70.7404  221.6385 H   0  0  0  0  0  0  0  0  0  0  0  0
  140.0976   69.8920  222.6944 H   0  0  0  0  0  0  0  0  0  0  0  0
  139.1742   69.0161  220.1230 H   0  0  0  0  0  0  0  0  0  0  0  0
  140.1105   68.0399  221.2160 H   0  0  0  0  0  0  0  0  0  0  0  0
  137.8199   66.8684  221.1118 H   0  0  0  0  0  0  0  0  0  0  0  0
  137.0807   67.4614  223.4226 H   0  0  0  0  0  0  0  0  0  0  0  0
  139.0135   66.3484  223.7099 H   0  0  0  0  0  0  0  0  0  0  0  0
  139.9890   67.8409  223.2244 H   0  0  0  0  0  0  0  0  0  0  0  0
  140.1237   70.3588  224.6634 H   0  0  0  0  0  0  0  0  0  0  0  0
  140.9980   71.7940  226.4349 H   0  0  0  0  0  0  0  0  0  0  0  0
  141.0856   70.9215  228.7595 H   0  0  0  0  0  0  0  0  0  0  0  0
  140.2944   68.6366  229.2651 H   0  0  0  0  0  0  0  0  0  0  0  0
  139.4261   67.2149  227.4675 H   0  0  0  0  0  0  0  0  0  0  0  0
  131.9452   70.9100  227.2326 H   0  0  0  0  0  0  0  0  0  0  0  0
  130.7733   72.8965  228.1751 H   0  0  0  0  0  0  0  0  0  0  0  0
  130.7172   75.3584  228.4421 H   0  0  0  0  0  0  0  0  0  0  0  0
  133.8033   77.7516  226.6851 H   0  0  0  0  0  0  0  0  0  0  0  0
  134.8912   75.7134  225.7937 H   0  0  0  0  0  0  0  0  0  0  0  0
  1  2  2  0
  2  3  1  0
  3  4  1  0
  4  5  1  0
  5  6  2  0
  5  7  1  0
  7  8  1  0
  8  9  1  0
  9 10  1  0
 10 11  1  0
 10 12  1  0
 12 13  1  0
 13 14  1  0
 14 15  1  0
 15 16  2  0
 16 17  1  0
 17 18  2  0
 18 19  1  0
 19 20  2  0
  2 21  1  0
 21 22  2  0
 22 23  1  0
 23 24  2  0
 24 25  1  0
 25 26  2  0
 26 27  1  0
 26 28  1  0
 28 29  2  0
 29 30  1  0
 30 31  2  0
 12  7  1  0
 20 15  1  0
 31 21  1  0
 30 24  1  0
  3 32  1  0
  4 33  1  0
  4 34  1  0
  8 35  1  0
  8 36  1  0
  9 37  1  0
  9 38  1  0
 10 39  1  1
 12 40  1  1
 13 41  1  0
 13 42  1  0
 16 43  1  0
 17 44  1  0
 18 45  1  0
 19 46  1  0
 20 47  1  0
 22 48  1  0
 23 49  1  0
 25 50  1  0
 28 51  1  0
 29 52  1  0
M  END
>  <smiles>  (5) 
O=C(NCC(=O)N1CC[C@H](F)[C@H]1COc1ccccc1)c1ccc2cc(Cl)ccc2n1

>  <score_type>  (5) 
oracle

>  <origin>  (5) 
autodockgpu

>  <m_score__min__energy>  (5) 
-8.2599999999999998

>  <m_primary>  (5) 
energy

>  <rmsd>  (5) 
8.422647954974531

>  <m_score__min__rmsd>  (5) 
8.422647954974531

>  <meeko>  (5) 
{"free_energy": -7.57, "intermolecular_energy": -9.66, "internal_energy": -2.3, "cluster_size": 5, "cluster_id": 5, "rank_in_cluster": 4}

>  <energy>  (5) 
-8.0

>  <cluster_rmsd>  (5) 
1.51

>  <cluster>  (5) 
1

$$$$

     RDKit          3D

 52 55  0  0  0  0  0  0  0  0999 V2000
  138.7940   71.7210  220.7920 O   0  0  0  0  0  0  0  0  0  0  0  0
  139.1410   72.1670  221.9170 C   0  0  0  0  0  0  0  0  0  0  0  0
  139.3100   73.5680  222.1410 N   0  0  0  0  0  0  0  0  0  0  0  0
  139.0770   74.4910  221.0470 C   0  0  0  0  0  0  0  0  0  0  0  0
  139.9450   75.6640  221.2420 C   0  0  0  0  0  0  0  0  0  0  0  0
  140.4630   75.9390  222.3530 O   0  0  0  0  0  0  0  0  0  0  0  0
  140.2100   76.5090  220.1600 N   0  0  0  0  0  0  0  0  0  0  0  0
  139.3790   77.5510  219.5470 C   0  0  0  0  0  0  0  0  0  0  0  0
  139.8630   77.7130  218.1150 C   0  0  0  0  0  0  0  0  0  0  0  0
  140.8180   76.5340  217.9900 C   0  0  2  0  0  0  0  0  0  0  0  0
  139.9570   75.4090  217.9970 F   0  0  0  0  0  0  0  0  0  0  0  0
  141.4540   76.5560  219.3330 C   0  0  1  0  0  0  0  0  0  0  0  0
  142.1870   77.7840  219.7490 C   0  0  0  0  0  0  0  0  0  0  0  0
  141.6130   78.5150  220.6970 O   0  0  0  0  0  0  0  0  0  0  0  0
  141.7310   79.4550  221.6240 C   0  0  0  0  0  0  0  0  0  0  0  0
  141.3310   80.7700  221.5830 C   0  0  0  0  0  0  0  0  0  0  0  0
  141.5010   81.6750  222.5940 C   0  0  0  0  0  0  0  0  0  0  0  0
  142.1170   81.2460  223.7430 C   0  0  0  0  0  0  0  0  0  0  0  0
  142.5460   79.9480  223.8680 C   0  0  0  0  0  0  0  0  0  0  0  0
  142.3590   79.0730  222.8350 C   0  0  0  0  0  0  0  0  0  0  0  0
  139.3840   71.2670  223.0410 C   0  0  0  0  0  0  0  0  0  0  0  0
  138.9810   69.9480  222.9610 C   0  0  0  0  0  0  0  0  0  0  0  0
  139.1960   69.0630  224.0100 C   0  0  0  0  0  0  0  0  0  0  0  0
  139.8250   69.5300  225.1430 C   0  0  0  0  0  0  0  0  0  0  0  0
  140.0840   68.7230  226.2420 C   0  0  0  0  0  0  0  0  0  0  0  0
  140.7140   69.2130  227.3620 C   0  0  0  0  0  0  0  0  0  0  0  0
  141.0440   68.2070  228.7490 Cl  0  0  0  0  0  0  0  0  0  0  0  0
  141.1000   70.5390  227.3990 C   0  0  0  0  0  0  0  0  0  0  0  0
  140.8600   71.3660  226.3290 C   0  0  0  0  0  0  0  0  0  0  0  0
  140.2250   70.8560  225.2110 C   0  0  0  0  0  0  0  0  0  0  0  0
  139.9930   71.6700  224.1680 N   0  0  0  0  0  0  0  0  0  0  0  0
  139.6020   73.9020  223.1040 H   0  0  0  0  0  0  0  0  0  0  0  0
  139.3187   74.0038  220.0909 H   0  0  0  0  0  0  0  0  0  0  0  0
  138.0211   74.7987  221.0278 H   0  0  0  0  0  0  0  0  0  0  0  0
  138.3219   77.2471  219.5573 H   0  0  0  0  0  0  0  0  0  0  0  0
  139.4610   78.4979  220.1008 H   0  0  0  0  0  0  0  0  0  0  0  0
  139.0325   77.6367  217.3978 H   0  0  0  0  0  0  0  0  0  0  0  0
  140.3215   78.6898  217.9014 H   0  0  0  0  0  0  0  0  0  0  0  0
  141.5127   76.5382  217.1372 H   0  0  0  0  0  0  0  0  0  0  0  0
  142.2251   75.7748  219.4043 H   0  0  0  0  0  0  0  0  0  0  0  0
  143.1773   77.4760  220.1157 H   0  0  0  0  0  0  0  0  0  0  0  0
  142.2151   78.4271  218.8570 H   0  0  0  0  0  0  0  0  0  0  0  0
  140.8358   81.1212  220.6657 H   0  0  0  0  0  0  0  0  0  0  0  0
  141.1550   82.7139  222.4896 H   0  0  0  0  0  0  0  0  0  0  0  0
  142.2688   81.9508  224.5738 H   0  0  0  0  0  0  0  0  0  0  0  0
  143.0373   79.6143  224.7939 H   0  0  0  0  0  0  0  0  0  0  0  0
  142.7082   78.0360  222.9478 H   0  0  0  0  0  0  0  0  0  0  0  0
  138.4801   69.5916  222.0488 H   0  0  0  0  0  0  0  0  0  0  0  0
  138.8717   68.0144  223.9376 H   0  0  0  0  0  0  0  0  0  0  0  0
  139.7782   67.6667  226.2167 H   0  0  0  0  0  0  0  0  0  0  0  0
  141.6037   70.9357  228.2928 H   0  0  0  0  0  0  0  0  0  0  0  0
  141.1691   72.4212  226.3608 H   0  0  0  0  0  0  0  0  0  0  0  0
  1  2  2  0
  2  3  1  0
  3  4  1  0
  4  5  1  0
  5  6  2  0
  5  7  1  0
  7  8  1  0
  8  9  1  0
  9 10  1  0
 10 11  1  0
 10 12  1  0
 12 13  1  0
 13 14  1  0
 14 15  1  0
 15 16  2  0
 16 17  1  0
 17 18  2  0
 18 19  1  0
 19 20  2  0
  2 21  1  0
 21 22  2  0
 22 23  1  0
 23 24  2  0
 24 25  1  0
 25 26  2  0
 26 27  1  0
 26 28  1  0
 28 29  2  0
 29 30  1  0
 30 31  2  0
 12  7  1  0
 20 15  1  0
 31 21  1  0
 30 24  1  0
  3 32  1  0
  4 33  1  0
  4 34  1  0
  8 35  1  0
  8 36  1  0
  9 37  1  0
  9 38  1  0
 10 39  1  6
 12 40  1  6
 13 41  1  0
 13 42  1  0
 16 43  1  0
 17 44  1  0
 18 45  1  0
 19 46  1  0
 20 47  1  0
 22 48  1  0
 23 49  1  0
 25 50  1  0
 28 51  1  0
 29 52  1  0
M  END
>  <smiles>  (6) 
O=C(NCC(=O)N1CC[C@H](F)[C@H]1COc1ccccc1)c1ccc2cc(Cl)ccc2n1

>  <score_type>  (6) 
oracle

>  <origin>  (6) 
autodockgpu

>  <m_score__min__energy>  (6) 
-8.2599999999999998

>  <m_primary>  (6) 
energy

>  <rmsd>  (6) 
1.584346716831493

>  <m_score__min__rmsd>  (6) 
1.584346716831493

>  <meeko>  (6) 
{"free_energy": -7.9, "intermolecular_energy": -9.99, "internal_energy": -2.0, "cluster_size": 14, "cluster_id": 1, "rank_in_cluster": 7}

>  <energy>  (6) 
-7.96

>  <cluster_rmsd>  (6) 
1.05

>  <cluster>  (6) 
1

$$$$

     RDKit          3D

 52 55  0  0  0  0  0  0  0  0999 V2000
  139.9650   72.5640  220.5760 O   0  0  0  0  0  0  0  0  0  0  0  0
  139.8470   72.9290  221.7750 C   0  0  0  0  0  0  0  0  0  0  0  0
  139.6530   74.3020  222.1190 N   0  0  0  0  0  0  0  0  0  0  0  0
  139.5900   75.2930  221.0610 C   0  0  0  0  0  0  0  0  0  0  0  0
  140.4280   76.4370  221.4540 C   0  0  0  0  0  0  0  0  0  0  0  0
  140.4760   76.8620  222.6360 O   0  0  0  0  0  0  0  0  0  0  0  0
  141.2040   77.0840  220.4860 N   0  0  0  0  0  0  0  0  0  0  0  0
  141.5160   78.5080  220.3210 C   0  0  0  0  0  0  0  0  0  0  0  0
  141.8510   78.7160  218.8530 C   0  0  0  0  0  0  0  0  0  0  0  0
  141.4600   77.3670  218.2650 C   0  0  2  0  0  0  0  0  0  0  0  0
  140.0460   77.3640  218.3570 F   0  0  0  0  0  0  0  0  0  0  0  0
  141.9300   76.4560  219.3420 C   0  0  1  0  0  0  0  0  0  0  0  0
  143.3750   76.4730  219.7020 C   0  0  0  0  0  0  0  0  0  0  0  0
  144.0340   75.3320  219.5320 O   0  0  0  0  0  0  0  0  0  0  0  0
  144.1210   74.0330  219.7740 C   0  0  0  0  0  0  0  0  0  0  0  0
  145.1100   73.1460  219.4140 C   0  0  0  0  0  0  0  0  0  0  0  0
  145.1110   71.8100  219.7050 C   0  0  0  0  0  0  0  0  0  0  0  0
  144.0470   71.3060  220.4130 C   0  0  0  0  0  0  0  0  0  0  0  0
  143.0190   72.1220  220.8130 C   0  0  0  0  0  0  0  0  0  0  0  0
  143.0530   73.4520  220.5010 C   0  0  0  0  0  0  0  0  0  0  0  0
  139.9060   71.9600  222.8650 C   0  0  0  0  0  0  0  0  0  0  0  0
  139.4340   70.6760  222.6650 C   0  0  0  0  0  0  0  0  0  0  0  0
  139.4730   69.7270  223.6790 C   0  0  0  0  0  0  0  0  0  0  0  0
  139.9970   70.0920  224.9000 C   0  0  0  0  0  0  0  0  0  0  0  0
  140.0790   69.2160  225.9720 C   0  0  0  0  0  0  0  0  0  0  0  0
  140.6070   69.6060  227.1810 C   0  0  0  0  0  0  0  0  0  0  0  0
  140.7140   68.5110  228.5360 Cl  0  0  0  0  0  0  0  0  0  0  0  0
  141.0660   70.8990  227.3370 C   0  0  0  0  0  0  0  0  0  0  0  0
  141.0000   71.7930  226.2960 C   0  0  0  0  0  0  0  0  0  0  0  0
  140.4670   71.3840  225.0870 C   0  0  0  0  0  0  0  0  0  0  0  0
  140.4060   72.2630  224.0740 N   0  0  0  0  0  0  0  0  0  0  0  0
  139.5580   74.5660  223.1410 H   0  0  0  0  0  0  0  0  0  0  0  0
  139.9665   74.8604  220.1223 H   0  0  0  0  0  0  0  0  0  0  0  0
  138.5507   75.6182  220.9055 H   0  0  0  0  0  0  0  0  0  0  0  0
  140.6471   79.1212  220.6019 H   0  0  0  0  0  0  0  0  0  0  0  0
  142.3574   78.8052  220.9642 H   0  0  0  0  0  0  0  0  0  0  0  0
  141.2579   79.5330  218.4163 H   0  0  0  0  0  0  0  0  0  0  0  0
  142.8959   79.0039  218.6653 H   0  0  0  0  0  0  0  0  0  0  0  0
  141.8255   77.1338  217.2541 H   0  0  0  0  0  0  0  0  0  0  0  0
  141.7612   75.4069  219.0574 H   0  0  0  0  0  0  0  0  0  0  0  0
  143.8660   77.2397  219.0846 H   0  0  0  0  0  0  0  0  0  0  0  0
  143.4074   76.6742  220.7830 H   0  0  0  0  0  0  0  0  0  0  0  0
  145.9660   73.5427  218.8483 H   0  0  0  0  0  0  0  0  0  0  0  0
  145.9373   71.1595  219.3825 H   0  0  0  0  0  0  0  0  0  0  0  0
  144.0189   70.2350  220.6623 H   0  0  0  0  0  0  0  0  0  0  0  0
  142.1729   71.7082  221.3812 H   0  0  0  0  0  0  0  0  0  0  0  0
  142.2213   74.0944  220.8260 H   0  0  0  0  0  0  0  0  0  0  0  0
  139.0196   70.4004  221.6840 H   0  0  0  0  0  0  0  0  0  0  0  0
  139.0944   68.7080  223.5110 H   0  0  0  0  0  0  0  0  0  0  0  0
  139.7134   68.1854  225.8528 H   0  0  0  0  0  0  0  0  0  0  0  0
  141.4878   71.2156  228.3023 H   0  0  0  0  0  0  0  0  0  0  0  0
  141.3668   72.8223  226.4225 H   0  0  0  0  0  0  0  0  0  0  0  0
  1  2  2  0
  2  3  1  0
  3  4  1  0
  4  5  1  0
  5  6  2  0
  5  7  1  0
  7  8  1  0
  8  9  1  0
  9 10  1  0
 10 11  1  0
 10 12  1  0
 12 13  1  0
 13 14  1  0
 14 15  1  0
 15 16  2  0
 16 17  1  0
 17 18  2  0
 18 19  1  0
 19 20  2  0
  2 21  1  0
 21 22  2  0
 22 23  1  0
 23 24  2  0
 24 25  1  0
 25 26  2  0
 26 27  1  0
 26 28  1  0
 28 29  2  0
 29 30  1  0
 30 31  2  0
 12  7  1  0
 20 15  1  0
 31 21  1  0
 30 24  1  0
  3 32  1  0
  4 33  1  0
  4 34  1  0
  8 35  1  0
  8 36  1  0
  9 37  1  0
  9 38  1  0
 10 39  1  6
 12 40  1  6
 13 41  1  0
 13 42  1  0
 16 43  1  0
 17 44  1  0
 18 45  1  0
 19 46  1  0
 20 47  1  0
 22 48  1  0
 23 49  1  0
 25 50  1  0
 28 51  1  0
 29 52  1  0
M  END
>  <smiles>  (7) 
O=C(NCC(=O)N1CC[C@H](F)[C@H]1COc1ccccc1)c1ccc2cc(Cl)ccc2n1

>  <score_type>  (7) 
oracle

>  <origin>  (7) 
autodockgpu

>  <m_score__min__energy>  (7) 
-8.2599999999999998

>  <m_primary>  (7) 
energy

>  <rmsd>  (7) 
2.493587409100663

>  <m_score__min__rmsd>  (7) 
2.493587409100663

>  <meeko>  (7) 
{"free_energy": -7.51, "intermolecular_energy": -9.6, "internal_energy": -2.28, "cluster_size": 14, "cluster_id": 2, "rank_in_cluster": 12}

>  <energy>  (7) 
-7.9

>  <cluster_rmsd>  (7) 
0.88

>  <cluster>  (7) 
1

$$$$

     RDKit          3D

 52 55  0  0  0  0  0  0  0  0999 V2000
  139.8100   74.2250  221.0240 O   0  0  0  0  0  0  0  0  0  0  0  0
  140.2500   75.3540  221.3660 C   0  0  0  0  0  0  0  0  0  0  0  0
  141.6440   75.6620  221.2960 N   0  0  0  0  0  0  0  0  0  0  0  0
  142.5670   74.6490  220.8200 C   0  0  0  0  0  0  0  0  0  0  0  0
  143.0220   75.0380  219.4750 C   0  0  0  0  0  0  0  0  0  0  0  0
  143.9950   74.4820  218.9070 O   0  0  0  0  0  0  0  0  0  0  0  0
  142.3550   76.0630  218.7950 N   0  0  0  0  0  0  0  0  0  0  0  0
  141.2090   76.0030  217.8810 C   0  0  0  0  0  0  0  0  0  0  0  0
  141.2860   77.2370  216.9990 C   0  0  0  0  0  0  0  0  0  0  0  0
  142.6570   77.7840  217.3710 C   0  0  2  0  0  0  0  0  0  0  0  0
  143.5520   76.8370  216.8150 F   0  0  0  0  0  0  0  0  0  0  0  0
  142.6640   77.5240  218.8350 C   0  0  1  0  0  0  0  0  0  0  0  0
  141.6030   78.1530  219.6700 C   0  0  0  0  0  0  0  0  0  0  0  0
  141.9930   78.6430  220.8410 O   0  0  0  0  0  0  0  0  0  0  0  0
  142.0030   79.6570  221.6940 C   0  0  0  0  0  0  0  0  0  0  0  0
  141.4730   80.9180  221.5500 C   0  0  0  0  0  0  0  0  0  0  0  0
  141.5370   81.9090  222.4890 C   0  0  0  0  0  0  0  0  0  0  0  0
  142.1780   81.6330  223.6720 C   0  0  0  0  0  0  0  0  0  0  0  0
  142.7340   80.3980  223.8980 C   0  0  0  0  0  0  0  0  0  0  0  0
  142.6500   79.4340  222.9340 C   0  0  0  0  0  0  0  0  0  0  0  0
  139.3500   76.3970  221.8500 C   0  0  0  0  0  0  0  0  0  0  0  0
  137.9950   76.3030  221.5960 C   0  0  0  0  0  0  0  0  0  0  0  0
  137.1090   77.2760  222.0410 C   0  0  0  0  0  0  0  0  0  0  0  0
  137.6100   78.3470  222.7470 C   0  0  0  0  0  0  0  0  0  0  0  0
  136.8060   79.3680  223.2320 C   0  0  0  0  0  0  0  0  0  0  0  0
  137.3320   80.4270  223.9350 C   0  0  0  0  0  0  0  0  0  0  0  0
  136.3270   81.7150  224.5490 Cl  0  0  0  0  0  0  0  0  0  0  0  0
  138.6930   80.4810  224.1650 C   0  0  0  0  0  0  0  0  0  0  0  0
  139.5190   79.4870  223.6990 C   0  0  0  0  0  0  0  0  0  0  0  0
  138.9730   78.4290  222.9950 C   0  0  0  0  0  0  0  0  0  0  0  0
  139.7860   77.4610  222.5420 N   0  0  0  0  0  0  0  0  0  0  0  0
  141.9720   76.6240  221.5930 H   0  0  0  0  0  0  0  0  0  0  0  0
  143.4291   74.5815  221.4999 H   0  0  0  0  0  0  0  0  0  0  0  0
  142.0701   73.6683  220.7846 H   0  0  0  0  0  0  0  0  0  0  0  0
  141.2632   75.0933  217.2650 H   0  0  0  0  0  0  0  0  0  0  0  0
  140.2609   75.9746  218.4381 H   0  0  0  0  0  0  0  0  0  0  0  0
  141.2334   76.9735  215.9323 H   0  0  0  0  0  0  0  0  0  0  0  0
  140.4611   77.9494  217.1477 H   0  0  0  0  0  0  0  0  0  0  0  0
  142.8841   78.8179  217.0720 H   0  0  0  0  0  0  0  0  0  0  0  0
  143.5910   77.9062  219.2873 H   0  0  0  0  0  0  0  0  0  0  0  0
  141.1644   78.9783  219.0899 H   0  0  0  0  0  0  0  0  0  0  0  0
  140.8977   77.3435  219.9094 H   0  0  0  0  0  0  0  0  0  0  0  0
  140.9575   81.1467  220.6056 H   0  0  0  0  0  0  0  0  0  0  0  0
  141.0893   82.8964  222.3032 H   0  0  0  0  0  0  0  0  0  0  0  0
  142.2467   82.4103  224.4473 H   0  0  0  0  0  0  0  0  0  0  0  0
  143.2439   80.1863  224.8494 H   0  0  0  0  0  0  0  0  0  0  0  0
  143.1008   78.4495  223.1276 H   0  0  0  0  0  0  0  0  0  0  0  0
  137.6106   75.4413  221.0306 H   0  0  0  0  0  0  0  0  0  0  0  0
  136.0318   77.1929  221.8342 H   0  0  0  0  0  0  0  0  0  0  0  0
  135.7218   79.3299  223.0501 H   0  0  0  0  0  0  0  0  0  0  0  0
  139.1187   81.3263  224.7255 H   0  0  0  0  0  0  0  0  0  0  0  0
  140.6024   79.5320  223.8837 H   0  0  0  0  0  0  0  0  0  0  0  0
  1  2  2  0
  2  3  1  0
  3  4  1  0
  4  5  1  0
  5  6  2  0
  5  7  1  0
  7  8  1  0
  8  9  1  0
  9 10  1  0
 10 11  1  0
 10 12  1  0
 12 13  1  0
 13 14  1  0
 14 15  1  0
 15 16  2  0
 16 17  1  0
 17 18  2  0
 18 19  1  0
 19 20  2  0
  2 21  1  0
 21 22  2  0
 22 23  1  0
 23 24  2  0
 24 25  1  0
 25 26  2  0
 26 27  1  0
 26 28  1  0
 28 29  2  0
 29 30  1  0
 30 31  2  0
 12  7  1  0
 20 15  1  0
 31 21  1  0
 30 24  1  0
  3 32  1  0
  4 33  1  0
  4 34  1  0
  8 35  1  0
  8 36  1  0
  9 37  1  0
  9 38  1  0
 10 39  1  1
 12 40  1  1
 13 41  1  0
 13 42  1  0
 16 43  1  0
 17 44  1  0
 18 45  1  0
 19 46  1  0
 20 47  1  0
 22 48  1  0
 23 49  1  0
 25 50  1  0
 28 51  1  0
 29 52  1  0
M  END
>  <smiles>  (8) 
O=C(NCC(=O)N1CC[C@H](F)[C@H]1COc1ccccc1)c1ccc2cc(Cl)ccc2n1

>  <score_type>  (8) 
oracle

>  <origin>  (8) 
autodockgpu

>  <m_score__min__energy>  (8) 
-8.2599999999999998

>  <m_primary>  (8) 
energy

>  <rmsd>  (8) 
6.740081391674382

>  <m_score__min__rmsd>  (8) 
6.740081391674382

>  <meeko>  (8) 
{"free_energy": -6.25, "intermolecular_energy": -8.33, "internal_energy": -3.46, "cluster_size": 6, "cluster_id": 6, "rank_in_cluster": 6}

>  <energy>  (8) 
-7.9

>  <cluster_rmsd>  (8) 
0.68

>  <cluster>  (8) 
1

$$$$

     RDKit          3D

 52 55  0  0  0  0  0  0  0  0999 V2000
  139.9580   72.4600  220.6030 O   0  0  0  0  0  0  0  0  0  0  0  0
  139.8470   72.8370  221.7990 C   0  0  0  0  0  0  0  0  0  0  0  0
  139.6410   74.2110  222.1300 N   0  0  0  0  0  0  0  0  0  0  0  0
  139.5590   75.1890  221.0610 C   0  0  0  0  0  0  0  0  0  0  0  0
  139.9630   76.4960  221.6040 C   0  0  0  0  0  0  0  0  0  0  0  0
  139.6460   76.8720  222.7600 O   0  0  0  0  0  0  0  0  0  0  0  0
  140.7280   77.3610  220.8130 N   0  0  0  0  0  0  0  0  0  0  0  0
  141.2560   78.6960  221.1110 C   0  0  0  0  0  0  0  0  0  0  0  0
  141.4610   79.3940  219.7770 C   0  0  0  0  0  0  0  0  0  0  0  0
  140.7870   78.4170  218.8240 C   0  0  2  0  0  0  0  0  0  0  0  0
  139.4110   78.5470  219.1370 F   0  0  0  0  0  0  0  0  0  0  0  0
  141.2090   77.1220  219.4190 C   0  0  1  0  0  0  0  0  0  0  0  0
  142.6670   76.8340  219.5230 C   0  0  0  0  0  0  0  0  0  0  0  0
  142.9990   75.5660  219.7350 O   0  0  0  0  0  0  0  0  0  0  0  0
  143.9030   74.6900  220.1500 C   0  0  0  0  0  0  0  0  0  0  0  0
  145.2060   74.9030  220.5350 C   0  0  0  0  0  0  0  0  0  0  0  0
  146.0730   73.9290  220.9460 C   0  0  0  0  0  0  0  0  0  0  0  0
  145.6150   72.6350  220.9810 C   0  0  0  0  0  0  0  0  0  0  0  0
  144.3270   72.3350  220.6140 C   0  0  0  0  0  0  0  0  0  0  0  0
  143.4910   73.3360  220.2080 C   0  0  0  0  0  0  0  0  0  0  0  0
  139.9260   71.8800  222.8990 C   0  0  0  0  0  0  0  0  0  0  0  0
  139.5010   70.5790  222.7060 C   0  0  0  0  0  0  0  0  0  0  0  0
  139.5610   69.6410  223.7300 C   0  0  0  0  0  0  0  0  0  0  0  0
  140.0560   70.0360  224.9530 C   0  0  0  0  0  0  0  0  0  0  0  0
  140.1550   69.1730  226.0350 C   0  0  0  0  0  0  0  0  0  0  0  0
  140.6540   69.5920  227.2470 C   0  0  0  0  0  0  0  0  0  0  0  0
  140.7820   68.5140  228.6130 Cl  0  0  0  0  0  0  0  0  0  0  0  0
  141.0670   70.9020  227.3950 C   0  0  0  0  0  0  0  0  0  0  0  0
  140.9820   71.7840  226.3440 C   0  0  0  0  0  0  0  0  0  0  0  0
  140.4790   71.3450  225.1330 C   0  0  0  0  0  0  0  0  0  0  0  0
  140.4000   72.2120  224.1110 N   0  0  0  0  0  0  0  0  0  0  0  0
  139.5530   74.4860  223.1490 H   0  0  0  0  0  0  0  0  0  0  0  0
  140.2331   74.9018  220.2406 H   0  0  0  0  0  0  0  0  0  0  0  0
  138.5322   75.2402  220.6697 H   0  0  0  0  0  0  0  0  0  0  0  0
  140.5385   79.2584  221.7265 H   0  0  0  0  0  0  0  0  0  0  0  0
  142.1999   78.6313  221.6721 H   0  0  0  0  0  0  0  0  0  0  0  0
  140.9708   80.3785  219.7579 H   0  0  0  0  0  0  0  0  0  0  0  0
  142.5131   79.6060  219.5359 H   0  0  0  0  0  0  0  0  0  0  0  0
  140.9972   78.5355  217.7508 H   0  0  0  0  0  0  0  0  0  0  0  0
  140.8354   76.2821  218.8150 H   0  0  0  0  0  0  0  0  0  0  0  0
  143.1402   77.1524  218.5824 H   0  0  0  0  0  0  0  0  0  0  0  0
  143.0135   77.3823  220.4114 H   0  0  0  0  0  0  0  0  0  0  0  0
  145.5796   75.9373  220.5104 H   0  0  0  0  0  0  0  0  0  0  0  0
  147.1045   74.1742  221.2392 H   0  0  0  0  0  0  0  0  0  0  0  0
  146.2887   71.8289  221.3072 H   0  0  0  0  0  0  0  0  0  0  0  0
  143.9702   71.2950  220.6466 H   0  0  0  0  0  0  0  0  0  0  0  0
  142.4615   73.0817  219.9158 H   0  0  0  0  0  0  0  0  0  0  0  0
  139.1077   70.2802  221.7231 H   0  0  0  0  0  0  0  0  0  0  0  0
  139.2211   68.6075  223.5674 H   0  0  0  0  0  0  0  0  0  0  0  0
  139.8268   68.1293  225.9212 H   0  0  0  0  0  0  0  0  0  0  0  0
  141.4671   71.2420  228.3616 H   0  0  0  0  0  0  0  0  0  0  0  0
  141.3103   72.8269  226.4649 H   0  0  0  0  0  0  0  0  0  0  0  0
  1  2  2  0
  2  3  1  0
  3  4  1  0
  4  5  1  0
  5  6  2  0
  5  7  1  0
  7  8  1  0
  8  9  1  0
  9 10  1  0
 10 11  1  0
 10 12  1  0
 12 13  1  0
 13 14  1  0
 14 15  1  0
 15 16  2  0
 16 17  1  0
 17 18  2  0
 18 19  1  0
 19 20  2  0
  2 21  1  0
 21 22  2  0
 22 23  1  0
 23 24  2  0
 24 25  1  0
 25 26  2  0
 26 27  1  0
 26 28  1  0
 28 29  2  0
 29 30  1  0
 30 31  2  0
 12  7  1  0
 20 15  1  0
 31 21  1  0
 30 24  1  0
  3 32  1  0
  4 33  1  0
  4 34  1  0
  8 35  1  0
  8 36  1  0
  9 37  1  0
  9 38  1  0
 10 39  1  6
 12 40  1  6
 13 41  1  0
 13 42  1  0
 16 43  1  0
 17 44  1  0
 18 45  1  0
 19 46  1  0
 20 47  1  0
 22 48  1  0
 23 49  1  0
 25 50  1  0
 28 51  1  0
 29 52  1  0
M  END
>  <smiles>  (9) 
O=C(NCC(=O)N1CC[C@H](F)[C@H]1COc1ccccc1)c1ccc2cc(Cl)ccc2n1

>  <score_type>  (9) 
oracle

>  <origin>  (9) 
autodockgpu

>  <m_score__min__energy>  (9) 
-8.2599999999999998

>  <m_primary>  (9) 
energy

>  <rmsd>  (9) 
2.5641551927700186

>  <m_score__min__rmsd>  (9) 
2.5641551927700186

>  <meeko>  (9) 
{"free_energy": -7.9, "intermolecular_energy": -9.99, "internal_energy": -2.13, "cluster_size": 14, "cluster_id": 2, "rank_in_cluster": 3}

>  <energy>  (9) 
-7.76

>  <cluster_rmsd>  (9) 
1.91

>  <cluster>  (9) 
1

$$$$

     RDKit          3D

 52 55  0  0  0  0  0  0  0  0999 V2000
  139.5740   71.9850  220.6180 O   0  0  0  0  0  0  0  0  0  0  0  0
  139.4620   72.3990  221.8020 C   0  0  0  0  0  0  0  0  0  0  0  0
  139.1780   73.7700  222.0870 N   0  0  0  0  0  0  0  0  0  0  0  0
  139.0160   74.7010  220.9860 C   0  0  0  0  0  0  0  0  0  0  0  0
  138.8660   76.0530  221.5470 C   0  0  0  0  0  0  0  0  0  0  0  0
  137.8160   76.4280  222.1260 O   0  0  0  0  0  0  0  0  0  0  0  0
  139.9230   76.9630  221.4370 N   0  0  0  0  0  0  0  0  0  0  0  0
  141.0600   77.2040  222.3320 C   0  0  0  0  0  0  0  0  0  0  0  0
  141.5240   78.6280  222.0780 C   0  0  0  0  0  0  0  0  0  0  0  0
  140.4090   79.1490  221.1820 C   0  0  2  0  0  0  0  0  0  0  0  0
  139.2980   79.2390  222.0550 F   0  0  0  0  0  0  0  0  0  0  0  0
  140.1560   77.9490  220.3400 C   0  0  1  0  0  0  0  0  0  0  0  0
  141.2780   77.4090  219.5230 C   0  0  0  0  0  0  0  0  0  0  0  0
  141.5300   76.1130  219.6590 O   0  0  0  0  0  0  0  0  0  0  0  0
  142.3650   75.1600  220.0470 C   0  0  0  0  0  0  0  0  0  0  0  0
  142.0910   73.8690  220.4350 C   0  0  0  0  0  0  0  0  0  0  0  0
  143.0260   72.9520  220.8270 C   0  0  0  0  0  0  0  0  0  0  0  0
  144.3430   73.3400  220.8370 C   0  0  0  0  0  0  0  0  0  0  0  0
  144.7040   74.6110  220.4630 C   0  0  0  0  0  0  0  0  0  0  0  0
  143.7400   75.5000  220.0770 C   0  0  0  0  0  0  0  0  0  0  0  0
  139.6190   71.4900  222.9330 C   0  0  0  0  0  0  0  0  0  0  0  0
  139.1780   70.1850  222.8300 C   0  0  0  0  0  0  0  0  0  0  0  0
  139.3110   69.2920  223.8860 C   0  0  0  0  0  0  0  0  0  0  0  0
  139.8970   69.7370  225.0510 C   0  0  0  0  0  0  0  0  0  0  0  0
  140.0730   68.9210  226.1590 C   0  0  0  0  0  0  0  0  0  0  0  0
  140.6610   69.3890  227.3110 C   0  0  0  0  0  0  0  0  0  0  0  0
  140.8870   68.3700  228.7100 Cl  0  0  0  0  0  0  0  0  0  0  0  0
  141.0870   70.7020  227.3720 C   0  0  0  0  0  0  0  0  0  0  0  0
  140.9280   71.5370  226.2930 C   0  0  0  0  0  0  0  0  0  0  0  0
  140.3350   71.0490  225.1420 C   0  0  0  0  0  0  0  0  0  0  0  0
  140.1820   71.8720  224.0910 N   0  0  0  0  0  0  0  0  0  0  0  0
  139.0910   74.0760  223.0980 H   0  0  0  0  0  0  0  0  0  0  0  0
  139.9010   74.6643  220.3338 H   0  0  0  0  0  0  0  0  0  0  0  0
  138.1300   74.4357  220.3906 H   0  0  0  0  0  0  0  0  0  0  0  0
  140.7478   77.0887  223.3804 H   0  0  0  0  0  0  0  0  0  0  0  0
  141.8707   76.4849  222.1429 H   0  0  0  0  0  0  0  0  0  0  0  0
  141.5908   79.2028  223.0135 H   0  0  0  0  0  0  0  0  0  0  0  0
  142.5289   78.7027  221.6368 H   0  0  0  0  0  0  0  0  0  0  0  0
  140.6002   80.0824  220.6323 H   0  0  0  0  0  0  0  0  0  0  0  0
  139.3858   78.1660  219.5852 H   0  0  0  0  0  0  0  0  0  0  0  0
  141.0432   77.5962  218.4648 H   0  0  0  0  0  0  0  0  0  0  0  0
  142.1803   77.9243  219.8841 H   0  0  0  0  0  0  0  0  0  0  0  0
  141.0383   73.5499  220.4294 H   0  0  0  0  0  0  0  0  0  0  0  0
  142.7323   71.9347  221.1252 H   0  0  0  0  0  0  0  0  0  0  0  0
  145.1181   72.6242  221.1483 H   0  0  0  0  0  0  0  0  0  0  0  0
  145.7620   74.9118  220.4739 H   0  0  0  0  0  0  0  0  0  0  0  0
  144.0425   76.5148  219.7793 H   0  0  0  0  0  0  0  0  0  0  0  0
  138.7121   69.8460  221.8930 H   0  0  0  0  0  0  0  0  0  0  0  0
  138.9570   68.2546  223.7942 H   0  0  0  0  0  0  0  0  0  0  0  0
  139.7344   67.8753  226.1152 H   0  0  0  0  0  0  0  0  0  0  0  0
  141.5569   71.0814  228.2914 H   0  0  0  0  0  0  0  0  0  0  0  0
  141.2682   72.5818  226.3434 H   0  0  0  0  0  0  0  0  0  0  0  0
  1  2  2  0
  2  3  1  0
  3  4  1  0
  4  5  1  0
  5  6  2  0
  5  7  1  0
  7  8  1  0
  8  9  1  0
  9 10  1  0
 10 11  1  0
 10 12  1  0
 12 13  1  0
 13 14  1  0
 14 15  1  0
 15 16  2  0
 16 17  1  0
 17 18  2  0
 18 19  1  0
 19 20  2  0
  2 21  1  0
 21 22  2  0
 22 23  1  0
 23 24  2  0
 24 25  1  0
 25 26  2  0
 26 27  1  0
 26 28  1  0
 28 29  2  0
 29 30  1  0
 30 31  2  0
 12  7  1  0
 20 15  1  0
 31 21  1  0
 30 24  1  0
  3 32  1  0
  4 33  1  0
  4 34  1  0
  8 35  1  0
  8 36  1  0
  9 37  1  0
  9 38  1  0
 10 39  1  6
 12 40  1  6
 13 41  1  0
 13 42  1  0
 16 43  1  0
 17 44  1  0
 18 45  1  0
 19 46  1  0
 20 47  1  0
 22 48  1  0
 23 49  1  0
 25 50  1  0
 28 51  1  0
 29 52  1  0
M  END
>  <smiles>  (10) 
O=C(NCC(=O)N1CC[C@H](F)[C@H]1COc1ccccc1)c1ccc2cc(Cl)ccc2n1

>  <score_type>  (10) 
oracle

>  <origin>  (10) 
autodockgpu

>  <m_score__min__energy>  (10) 
-8.2599999999999998

>  <m_primary>  (10) 
energy

>  <rmsd>  (10) 
2.5093699981465725

>  <m_score__min__rmsd>  (10) 
2.5093699981465725

>  <meeko>  (10) 
{"free_energy": -7.62, "intermolecular_energy": -9.7, "internal_energy": -2.17, "cluster_size": 14, "cluster_id": 2, "rank_in_cluster": 10}

>  <energy>  (10) 
-7.75

>  <cluster_rmsd>  (10) 
1.3

>  <cluster>  (10) 
1

$$$$

     RDKit          3D

 52 55  0  0  0  0  0  0  0  0999 V2000
  140.1590   72.4290  220.5750 O   0  0  0  0  0  0  0  0  0  0  0  0
  139.9840   72.8200  221.7590 C   0  0  0  0  0  0  0  0  0  0  0  0
  139.8020   74.2040  222.0660 N   0  0  0  0  0  0  0  0  0  0  0  0
  139.8220   75.1740  220.9870 C   0  0  0  0  0  0  0  0  0  0  0  0
  140.5770   76.3520  221.4440 C   0  0  0  0  0  0  0  0  0  0  0  0
  140.8110   76.5720  222.6590 O   0  0  0  0  0  0  0  0  0  0  0  0
  141.0570   77.2680  220.5020 N   0  0  0  0  0  0  0  0  0  0  0  0
  141.3750   78.6930  220.6430 C   0  0  0  0  0  0  0  0  0  0  0  0
  141.2630   79.3070  219.2580 C   0  0  0  0  0  0  0  0  0  0  0  0
  140.6470   78.1580  218.4720 C   0  0  2  0  0  0  0  0  0  0  0  0
  139.3280   78.0780  218.9830 F   0  0  0  0  0  0  0  0  0  0  0  0
  141.3730   77.0040  219.0650 C   0  0  1  0  0  0  0  0  0  0  0  0
  142.8590   76.9750  218.9620 C   0  0  0  0  0  0  0  0  0  0  0  0
  143.4830   76.1050  219.7470 O   0  0  0  0  0  0  0  0  0  0  0  0
  143.7220   74.8410  220.0660 C   0  0  0  0  0  0  0  0  0  0  0  0
  142.8670   73.7640  220.0490 C   0  0  0  0  0  0  0  0  0  0  0  0
  143.2040   72.4870  220.4030 C   0  0  0  0  0  0  0  0  0  0  0  0
  144.4960   72.2520  220.8060 C   0  0  0  0  0  0  0  0  0  0  0  0
  145.4140   73.2710  220.8500 C   0  0  0  0  0  0  0  0  0  0  0  0
  145.0380   74.5340  220.4900 C   0  0  0  0  0  0  0  0  0  0  0  0
  139.9580   71.8710  222.8680 C   0  0  0  0  0  0  0  0  0  0  0  0
  139.4250   70.6110  222.6780 C   0  0  0  0  0  0  0  0  0  0  0  0
  139.3840   69.6820  223.7110 C   0  0  0  0  0  0  0  0  0  0  0  0
  139.8910   70.0440  224.9400 C   0  0  0  0  0  0  0  0  0  0  0  0
  139.8950   69.1870  226.0300 C   0  0  0  0  0  0  0  0  0  0  0  0
  140.4070   69.5730  227.2470 C   0  0  0  0  0  0  0  0  0  0  0  0
  140.4170   68.5010  228.6250 Cl  0  0  0  0  0  0  0  0  0  0  0  0
  140.9310   70.8430  227.3920 C   0  0  0  0  0  0  0  0  0  0  0  0
  140.9420   71.7180  226.3330 C   0  0  0  0  0  0  0  0  0  0  0  0
  140.4230   71.3120  225.1160 C   0  0  0  0  0  0  0  0  0  0  0  0
  140.4380   72.1730  224.0850 N   0  0  0  0  0  0  0  0  0  0  0  0
  139.6570   74.4900  223.0750 H   0  0  0  0  0  0  0  0  0  0  0  0
  140.3105   74.7382  220.1030 H   0  0  0  0  0  0  0  0  0  0  0  0
  138.7958   75.4616  220.7145 H   0  0  0  0  0  0  0  0  0  0  0  0
  140.6623   79.1739  221.3292 H   0  0  0  0  0  0  0  0  0  0  0  0
  142.3848   78.8330  221.0563 H   0  0  0  0  0  0  0  0  0  0  0  0
  140.6074   80.1903  219.2608 H   0  0  0  0  0  0  0  0  0  0  0  0
  142.2162   79.6731  218.8488 H   0  0  0  0  0  0  0  0  0  0  0  0
  140.6797   78.2250  217.3745 H   0  0  0  0  0  0  0  0  0  0  0  0
  141.0744   76.0680  218.5703 H   0  0  0  0  0  0  0  0  0  0  0  0
  143.1188   76.7342  217.9206 H   0  0  0  0  0  0  0  0  0  0  0  0
  143.1971   77.9675  219.2945 H   0  0  0  0  0  0  0  0  0  0  0  0
  141.8312   73.9439  219.7254 H   0  0  0  0  0  0  0  0  0  0  0  0
  142.4641   71.6738  220.3662 H   0  0  0  0  0  0  0  0  0  0  0  0
  144.7983   71.2351  221.0968 H   0  0  0  0  0  0  0  0  0  0  0  0
  146.4464   73.0720  221.1732 H   0  0  0  0  0  0  0  0  0  0  0  0
  145.7840   75.3414  220.5309 H   0  0  0  0  0  0  0  0  0  0  0  0
  139.0254   70.3376  221.6903 H   0  0  0  0  0  0  0  0  0  0  0  0
  138.9567   68.6811  223.5511 H   0  0  0  0  0  0  0  0  0  0  0  0
  139.4790   68.1748  225.9189 H   0  0  0  0  0  0  0  0  0  0  0  0
  141.3426   71.1560  228.3629 H   0  0  0  0  0  0  0  0  0  0  0  0
  141.3584   72.7293  226.4509 H   0  0  0  0  0  0  0  0  0  0  0  0
  1  2  2  0
  2  3  1  0
  3  4  1  0
  4  5  1  0
  5  6  2  0
  5  7  1  0
  7  8  1  0
  8  9  1  0
  9 10  1  0
 10 11  1  0
 10 12  1  0
 12 13  1  0
 13 14  1  0
 14 15  1  0
 15 16  2  0
 16 17  1  0
 17 18  2  0
 18 19  1  0
 19 20  2  0
  2 21  1  0
 21 22  2  0
 22 23  1  0
 23 24  2  0
 24 25  1  0
 25 26  2  0
 26 27  1  0
 26 28  1  0
 28 29  2  0
 29 30  1  0
 30 31  2  0
 12  7  1  0
 20 15  1  0
 31 21  1  0
 30 24  1  0
  3 32  1  0
  4 33  1  0
  4 34  1  0
  8 35  1  0
  8 36  1  0
  9 37  1  0
  9 38  1  0
 10 39  1  6
 12 40  1  6
 13 41  1  0
 13 42  1  0
 16 43  1  0
 17 44  1  0
 18 45  1  0
 19 46  1  0
 20 47  1  0
 22 48  1  0
 23 49  1  0
 25 50  1  0
 28 51  1  0
 29 52  1  0
M  END
>  <smiles>  (11) 
O=C(NCC(=O)N1CC[C@H](F)[C@H]1COc1ccccc1)c1ccc2cc(Cl)ccc2n1

>  <score_type>  (11) 
oracle

>  <origin>  (11) 
autodockgpu

>  <m_score__min__energy>  (11) 
-8.2599999999999998

>  <m_primary>  (11) 
energy

>  <rmsd>  (11) 
2.4911233117399103

>  <m_score__min__rmsd>  (11) 
2.4911233117399103

>  <meeko>  (11) 
{"free_energy": -7.81, "intermolecular_energy": -9.9, "internal_energy": -2.44, "cluster_size": 14, "cluster_id": 2, "rank_in_cluster": 5}

>  <energy>  (11) 
-7.6

>  <cluster_rmsd>  (11) 
1.02

>  <cluster>  (11) 
1

$$$$

     RDKit          3D

 52 55  0  0  0  0  0  0  0  0999 V2000
  141.0850   73.8430  221.8980 O   0  0  0  0  0  0  0  0  0  0  0  0
  140.2330   72.9160  221.8790 C   0  0  0  0  0  0  0  0  0  0  0  0
  139.3360   72.7530  220.7790 N   0  0  0  0  0  0  0  0  0  0  0  0
  139.4110   73.6780  219.6640 C   0  0  0  0  0  0  0  0  0  0  0  0
  138.3990   74.7270  219.8690 C   0  0  0  0  0  0  0  0  0  0  0  0
  137.4780   74.9430  219.0430 O   0  0  0  0  0  0  0  0  0  0  0  0
  138.4550   75.5190  221.0210 N   0  0  0  0  0  0  0  0  0  0  0  0
  137.8620   75.3050  222.3450 C   0  0  0  0  0  0  0  0  0  0  0  0
  137.7130   76.6750  222.9860 C   0  0  0  0  0  0  0  0  0  0  0  0
  138.0480   77.5880  221.8150 C   0  0  2  0  0  0  0  0  0  0  0  0
  136.9400   77.4300  220.9460 F   0  0  0  0  0  0  0  0  0  0  0  0
  139.1590   76.8260  221.1860 C   0  0  1  0  0  0  0  0  0  0  0  0
  140.3750   76.5480  221.9990 C   0  0  0  0  0  0  0  0  0  0  0  0
  140.7310   77.4930  222.8610 O   0  0  0  0  0  0  0  0  0  0  0  0
  141.2780   78.6810  223.0710 C   0  0  0  0  0  0  0  0  0  0  0  0
  142.5850   79.0780  222.9070 C   0  0  0  0  0  0  0  0  0  0  0  0
  143.0610   80.3350  223.1560 C   0  0  0  0  0  0  0  0  0  0  0  0
  142.1730   81.2820  223.6020 C   0  0  0  0  0  0  0  0  0  0  0  0
  140.8490   80.9710  223.7910 C   0  0  0  0  0  0  0  0  0  0  0  0
  140.4110   79.7030  223.5320 C   0  0  0  0  0  0  0  0  0  0  0  0
  140.1300   71.9680  222.9830 C   0  0  0  0  0  0  0  0  0  0  0  0
  139.4620   70.7720  222.7990 C   0  0  0  0  0  0  0  0  0  0  0  0
  139.3440   69.8450  223.8280 C   0  0  0  0  0  0  0  0  0  0  0  0
  139.9110   70.1440  225.0480 C   0  0  0  0  0  0  0  0  0  0  0  0
  139.8450   69.2840  226.1340 C   0  0  0  0  0  0  0  0  0  0  0  0
  140.4200   69.6050  227.3420 C   0  0  0  0  0  0  0  0  0  0  0  0
  140.3430   68.5290  228.7140 Cl  0  0  0  0  0  0  0  0  0  0  0  0
  141.0770   70.8120  227.4820 C   0  0  0  0  0  0  0  0  0  0  0  0
  141.1610   71.6880  226.4270 C   0  0  0  0  0  0  0  0  0  0  0  0
  140.5780   71.3480  225.2200 C   0  0  0  0  0  0  0  0  0  0  0  0
  140.6630   72.2090  224.1920 N   0  0  0  0  0  0  0  0  0  0  0  0
  138.6350   71.9590  220.8020 H   0  0  0  0  0  0  0  0  0  0  0  0
  140.4129   74.1301  219.6218 H   0  0  0  0  0  0  0  0  0  0  0  0
  139.2243   73.1491  218.7178 H   0  0  0  0  0  0  0  0  0  0  0  0
  136.8776   74.8242  222.2458 H   0  0  0  0  0  0  0  0  0  0  0  0
  138.4953   74.6484  222.9597 H   0  0  0  0  0  0  0  0  0  0  0  0
  136.6872   76.8419  223.3465 H   0  0  0  0  0  0  0  0  0  0  0  0
  138.3445   76.8291  223.8734 H   0  0  0  0  0  0  0  0  0  0  0  0
  138.2673   78.6411  222.0448 H   0  0  0  0  0  0  0  0  0  0  0  0
  139.5625   77.3774  220.3239 H   0  0  0  0  0  0  0  0  0  0  0  0
  140.1943   75.6245  222.5687 H   0  0  0  0  0  0  0  0  0  0  0  0
  141.2028   76.4795  221.2778 H   0  0  0  0  0  0  0  0  0  0  0  0
  143.3025   78.3257  222.5477 H   0  0  0  0  0  0  0  0  0  0  0  0
  144.1225   80.5800  223.0037 H   0  0  0  0  0  0  0  0  0  0  0  0
  142.5264   82.3026  223.8106 H   0  0  0  0  0  0  0  0  0  0  0  0
  140.1457   81.7375  224.1485 H   0  0  0  0  0  0  0  0  0  0  0  0
  139.3478   79.4670  223.6867 H   0  0  0  0  0  0  0  0  0  0  0  0
  139.0150   70.5494  221.8189 H   0  0  0  0  0  0  0  0  0  0  0  0
  138.8108   68.8955  223.6723 H   0  0  0  0  0  0  0  0  0  0  0  0
  139.3208   68.3229  226.0271 H   0  0  0  0  0  0  0  0  0  0  0  0
  141.5368   71.0740  228.4463 H   0  0  0  0  0  0  0  0  0  0  0  0
  141.6856   72.6481  226.5410 H   0  0  0  0  0  0  0  0  0  0  0  0
  1  2  2  0
  2  3  1  0
  3  4  1  0
  4  5  1  0
  5  6  2  0
  5  7  1  0
  7  8  1  0
  8  9  1  0
  9 10  1  0
 10 11  1  0
 10 12  1  0
 12 13  1  0
 13 14  1  0
 14 15  1  0
 15 16  2  0
 16 17  1  0
 17 18  2  0
 18 19  1  0
 19 20  2  0
  2 21  1  0
 21 22  2  0
 22 23  1  0
 23 24  2  0
 24 25  1  0
 25 26  2  0
 26 27  1  0
 26 28  1  0
 28 29  2  0
 29 30  1  0
 30 31  2  0
 12  7  1  0
 20 15  1  0
 31 21  1  0
 30 24  1  0
  3 32  1  0
  4 33  1  0
  4 34  1  0
  8 35  1  0
  8 36  1  0
  9 37  1  0
  9 38  1  0
 10 39  1  1
 12 40  1  6
 13 41  1  0
 13 42  1  0
 16 43  1  0
 17 44  1  0
 18 45  1  0
 19 46  1  0
 20 47  1  0
 22 48  1  0
 23 49  1  0
 25 50  1  0
 28 51  1  0
 29 52  1  0
M  END
>  <smiles>  (12) 
O=C(NCC(=O)N1CC[C@H](F)[C@H]1COc1ccccc1)c1ccc2cc(Cl)ccc2n1

>  <score_type>  (12) 
oracle

>  <origin>  (12) 
autodockgpu

>  <m_score__min__energy>  (12) 
-8.2599999999999998

>  <m_primary>  (12) 
energy

>  <rmsd>  (12) 
2.9107369482344105

>  <m_score__min__rmsd>  (12) 
2.9107369482344105

>  <meeko>  (12) 
{"free_energy": -7.92, "intermolecular_energy": -10.01, "internal_energy": -1.52, "cluster_size": 4, "cluster_id": 3, "rank_in_cluster": 3}

>  <energy>  (12) 
-7.56

>  <cluster_rmsd>  (12) 
0.76

>  <cluster>  (12) 
1

$$$$

     RDKit          3D

 52 55  0  0  0  0  0  0  0  0999 V2000
  136.3980   75.1840  221.3900 O   0  0  0  0  0  0  0  0  0  0  0  0
  137.5290   75.2230  221.9420 C   0  0  0  0  0  0  0  0  0  0  0  0
  138.2400   74.0270  222.2660 N   0  0  0  0  0  0  0  0  0  0  0  0
  137.6420   72.7440  221.9520 C   0  0  0  0  0  0  0  0  0  0  0  0
  138.4160   71.6960  222.6380 C   0  0  0  0  0  0  0  0  0  0  0  0
  139.5210   71.9290  223.1880 O   0  0  0  0  0  0  0  0  0  0  0  0
  137.9140   70.3920  222.6860 N   0  0  0  0  0  0  0  0  0  0  0  0
  137.5220   69.4880  221.6000 C   0  0  0  0  0  0  0  0  0  0  0  0
  136.5240   68.5030  222.1860 C   0  0  0  0  0  0  0  0  0  0  0  0
  136.2710   69.1170  223.5560 C   0  0  2  0  0  0  0  0  0  0  0  0
  135.5440   70.2960  223.2610 F   0  0  0  0  0  0  0  0  0  0  0  0
  137.6420   69.5730  223.9060 C   0  0  1  0  0  0  0  0  0  0  0  0
  138.7290   68.5560  223.9780 C   0  0  0  0  0  0  0  0  0  0  0  0
  139.5700   68.6690  224.9990 O   0  0  0  0  0  0  0  0  0  0  0  0
  140.0180   69.3890  226.0170 C   0  0  0  0  0  0  0  0  0  0  0  0
  140.1540   69.0340  227.3390 C   0  0  0  0  0  0  0  0  0  0  0  0
  140.6240   69.8530  228.3280 C   0  0  0  0  0  0  0  0  0  0  0  0
  140.9930   71.1300  227.9830 C   0  0  0  0  0  0  0  0  0  0  0  0
  140.8920   71.5650  226.6850 C   0  0  0  0  0  0  0  0  0  0  0  0
  140.4160   70.7170  225.7250 C   0  0  0  0  0  0  0  0  0  0  0  0
  138.1600   76.4970  222.2720 C   0  0  0  0  0  0  0  0  0  0  0  0
  137.3830   77.6310  222.4110 C   0  0  0  0  0  0  0  0  0  0  0  0
  137.9490   78.8600  222.7250 C   0  0  0  0  0  0  0  0  0  0  0  0
  139.3140   78.9290  222.8960 C   0  0  0  0  0  0  0  0  0  0  0  0
  139.9710   80.1100  223.2110 C   0  0  0  0  0  0  0  0  0  0  0  0
  141.3360   80.1520  223.3770 C   0  0  0  0  0  0  0  0  0  0  0  0
  142.1700   81.6330  223.7730 Cl  0  0  0  0  0  0  0  0  0  0  0  0
  142.0750   78.9950  223.2280 C   0  0  0  0  0  0  0  0  0  0  0  0
  141.4560   77.8080  222.9170 C   0  0  0  0  0  0  0  0  0  0  0  0
  140.0830   77.7840  222.7540 C   0  0  0  0  0  0  0  0  0  0  0  0
  139.4860   76.6200  222.4490 N   0  0  0  0  0  0  0  0  0  0  0  0
  139.1900   74.1050  222.7290 H   0  0  0  0  0  0  0  0  0  0  0  0
  136.5986   72.7243  222.2997 H   0  0  0  0  0  0  0  0  0  0  0  0
  137.6534   72.5751  220.8651 H   0  0  0  0  0  0  0  0  0  0  0  0
  137.0560   70.0579  220.7827 H   0  0  0  0  0  0  0  0  0  0  0  0
  138.3971   68.9644  221.1876 H   0  0  0  0  0  0  0  0  0  0  0  0
  135.6021   68.4593  221.5875 H   0  0  0  0  0  0  0  0  0  0  0  0
  136.8813   67.4631  222.2166 H   0  0  0  0  0  0  0  0  0  0  0  0
  135.7761   68.4837  224.3070 H   0  0  0  0  0  0  0  0  0  0  0  0
  137.6529   70.0156  224.9130 H   0  0  0  0  0  0  0  0  0  0  0  0
  138.2573   67.5642  224.0398 H   0  0  0  0  0  0  0  0  0  0  0  0
  139.3385   68.7118  223.0756 H   0  0  0  0  0  0  0  0  0  0  0  0
  139.8621   68.0121  227.6225 H   0  0  0  0  0  0  0  0  0  0  0  0
  140.7040   69.5002  229.3668 H   0  0  0  0  0  0  0  0  0  0  0  0
  141.3743   71.8128  228.7565 H   0  0  0  0  0  0  0  0  0  0  0  0
  141.1922   72.5894  226.4194 H   0  0  0  0  0  0  0  0  0  0  0  0
  140.3391   71.0782  224.6889 H   0  0  0  0  0  0  0  0  0  0  0  0
  136.2944   77.5591  222.2702 H   0  0  0  0  0  0  0  0  0  0  0  0
  137.3219   79.7571  222.8345 H   0  0  0  0  0  0  0  0  0  0  0  0
  139.3867   81.0342  223.3308 H   0  0  0  0  0  0  0  0  0  0  0  0
  143.1668   79.0236  223.3591 H   0  0  0  0  0  0  0  0  0  0  0  0
  142.0462   76.8873  222.7991 H   0  0  0  0  0  0  0  0  0  0  0  0
  1  2  2  0
  2  3  1  0
  3  4  1  0
  4  5  1  0
  5  6  2  0
  5  7  1  0
  7  8  1  0
  8  9  1  0
  9 10  1  0
 10 11  1  0
 10 12  1  0
 12 13  1  0
 13 14  1  0
 14 15  1  0
 15 16  2  0
 16 17  1  0
 17 18  2  0
 18 19  1  0
 19 20  2  0
  2 21  1  0
 21 22  2  0
 22 23  1  0
 23 24  2  0
 24 25  1  0
 25 26  2  0
 26 27  1  0
 26 28  1  0
 28 29  2  0
 29 30  1  0
 30 31  2  0
 12  7  1  0
 20 15  1  0
 31 21  1  0
 30 24  1  0
  3 32  1  0
  4 33  1  0
  4 34  1  0
  8 35  1  0
  8 36  1  0
  9 37  1  0
  9 38  1  0
 10 39  1  1
 12 40  1  1
 13 41  1  0
 13 42  1  0
 16 43  1  0
 17 44  1  0
 18 45  1  0
 19 46  1  0
 20 47  1  0
 22 48  1  0
 23 49  1  0
 25 50  1  0
 28 51  1  0
 29 52  1  0
M  END
>  <smiles>  (13) 
O=C(NCC(=O)N1CC[C@H](F)[C@H]1COc1ccccc1)c1ccc2cc(Cl)ccc2n1

>  <score_type>  (13) 
oracle

>  <origin>  (13) 
autodockgpu

>  <m_score__min__energy>  (13) 
-8.2599999999999998

>  <m_primary>  (13) 
energy

>  <rmsd>  (13) 
8.246169091416714

>  <m_score__min__rmsd>  (13) 
8.246169091416714

>  <meeko>  (13) 
{"free_energy": -7.55, "intermolecular_energy": -9.64, "internal_energy": -2.13, "cluster_size": 6, "cluster_id": 4, "rank_in_cluster": 2}

>  <energy>  (13) 
-7.47

>  <cluster_rmsd>  (13) 
0.95

>  <cluster>  (13) 
1

$$$$

     RDKit          3D

 52 55  0  0  0  0  0  0  0  0999 V2000
  139.7350   74.7510  222.3160 O   0  0  0  0  0  0  0  0  0  0  0  0
  139.8550   75.9520  221.9600 C   0  0  0  0  0  0  0  0  0  0  0  0
  140.9140   76.3700  221.0960 N   0  0  0  0  0  0  0  0  0  0  0  0
  141.8680   75.3850  220.6240 C   0  0  0  0  0  0  0  0  0  0  0  0
  142.8220   76.0620  219.7300 C   0  0  0  0  0  0  0  0  0  0  0  0
  144.0660   75.9830  219.8900 O   0  0  0  0  0  0  0  0  0  0  0  0
  142.3390   76.8230  218.6610 N   0  0  0  0  0  0  0  0  0  0  0  0
  141.2760   76.5300  217.6940 C   0  0  0  0  0  0  0  0  0  0  0  0
  141.5700   77.3560  216.4530 C   0  0  0  0  0  0  0  0  0  0  0  0
  142.9580   77.8910  216.7750 C   0  0  2  0  0  0  0  0  0  0  0  0
  143.7820   76.7410  216.6950 F   0  0  0  0  0  0  0  0  0  0  0  0
  142.8110   78.1730  218.2270 C   0  0  1  0  0  0  0  0  0  0  0  0
  141.7620   79.1410  218.6560 C   0  0  0  0  0  0  0  0  0  0  0  0
  141.4870   79.1670  219.9550 O   0  0  0  0  0  0  0  0  0  0  0  0
  141.7570   79.6580  221.1560 C   0  0  0  0  0  0  0  0  0  0  0  0
  142.2520   79.0150  222.2660 C   0  0  0  0  0  0  0  0  0  0  0  0
  142.4950   79.6070  223.4740 C   0  0  0  0  0  0  0  0  0  0  0  0
  142.2270   80.9480  223.5970 C   0  0  0  0  0  0  0  0  0  0  0  0
  141.7320   81.6670  222.5380 C   0  0  0  0  0  0  0  0  0  0  0  0
  141.5020   81.0380  221.3460 C   0  0  0  0  0  0  0  0  0  0  0  0
  138.9120   76.9690  222.4160 C   0  0  0  0  0  0  0  0  0  0  0  0
  137.5540   76.7410  222.3110 C   0  0  0  0  0  0  0  0  0  0  0  0
  136.6280   77.6860  222.7360 C   0  0  0  0  0  0  0  0  0  0  0  0
  137.0940   78.8680  223.2690 C   0  0  0  0  0  0  0  0  0  0  0  0
  136.2480   79.8710  223.7190 C   0  0  0  0  0  0  0  0  0  0  0  0
  136.7390   81.0420  224.2480 C   0  0  0  0  0  0  0  0  0  0  0  0
  135.6840   82.3100  224.8180 Cl  0  0  0  0  0  0  0  0  0  0  0  0
  138.1050   81.2290  224.3340 C   0  0  0  0  0  0  0  0  0  0  0  0
  138.9720   80.2560  223.8970 C   0  0  0  0  0  0  0  0  0  0  0  0
  138.4600   79.0850  223.3680 C   0  0  0  0  0  0  0  0  0  0  0  0
  139.3130   78.1380  222.9430 N   0  0  0  0  0  0  0  0  0  0  0  0
  140.9780   77.3910  220.8200 H   0  0  0  0  0  0  0  0  0  0  0  0
  142.4046   74.9467  221.4784 H   0  0  0  0  0  0  0  0  0  0  0  0
  141.3479   74.5791  220.0854 H   0  0  0  0  0  0  0  0  0  0  0  0
  141.2762   75.4587  217.4444 H   0  0  0  0  0  0  0  0  0  0  0  0
  140.2874   76.7781  218.1076 H   0  0  0  0  0  0  0  0  0  0  0  0
  141.5786   76.7326  215.5467 H   0  0  0  0  0  0  0  0  0  0  0  0
  140.8234   78.1360  216.2429 H   0  0  0  0  0  0  0  0  0  0  0  0
  143.3274   78.7286  216.1651 H   0  0  0  0  0  0  0  0  0  0  0  0
  143.7343   78.6178  218.6267 H   0  0  0  0  0  0  0  0  0  0  0  0
  142.0936   80.1479  218.3625 H   0  0  0  0  0  0  0  0  0  0  0  0
  140.8354   78.8096  218.1645 H   0  0  0  0  0  0  0  0  0  0  0  0
  142.4694   77.9406  222.1749 H   0  0  0  0  0  0  0  0  0  0  0  0
  142.8925   79.0276  224.3204 H   0  0  0  0  0  0  0  0  0  0  0  0
  142.4115   81.4526  224.5569 H   0  0  0  0  0  0  0  0  0  0  0  0
  141.5219   82.7412  222.6474 H   0  0  0  0  0  0  0  0  0  0  0  0
  141.1047   81.6248  220.5046 H   0  0  0  0  0  0  0  0  0  0  0  0
  137.1982   75.7924  221.8824 H   0  0  0  0  0  0  0  0  0  0  0  0
  135.5483   77.4948  222.6489 H   0  0  0  0  0  0  0  0  0  0  0  0
  135.1596   79.7267  223.6513 H   0  0  0  0  0  0  0  0  0  0  0  0
  138.5021   82.1642  224.7556 H   0  0  0  0  0  0  0  0  0  0  0  0
  140.0594   80.4067  223.9671 H   0  0  0  0  0  0  0  0  0  0  0  0
  1  2  2  0
  2  3  1  0
  3  4  1  0
  4  5  1  0
  5  6  2  0
  5  7  1  0
  7  8  1  0
  8  9  1  0
  9 10  1  0
 10 11  1  0
 10 12  1  0
 12 13  1  0
 13 14  1  0
 14 15  1  0
 15 16  2  0
 16 17  1  0
 17 18  2  0
 18 19  1  0
 19 20  2  0
  2 21  1  0
 21 22  2  0
 22 23  1  0
 23 24  2  0
 24 25  1  0
 25 26  2  0
 26 27  1  0
 26 28  1  0
 28 29  2  0
 29 30  1  0
 30 31  2  0
 12  7  1  0
 20 15  1  0
 31 21  1  0
 30 24  1  0
  3 32  1  0
  4 33  1  0
  4 34  1  0
  8 35  1  0
  8 36  1  0
  9 37  1  0
  9 38  1  0
 10 39  1  6
 12 40  1  1
 13 41  1  0
 13 42  1  0
 16 43  1  0
 17 44  1  0
 18 45  1  0
 19 46  1  0
 20 47  1  0
 22 48  1  0
 23 49  1  0
 25 50  1  0
 28 51  1  0
 29 52  1  0
M  END
>  <smiles>  (14) 
O=C(NCC(=O)N1CC[C@H](F)[C@H]1COc1ccccc1)c1ccc2cc(Cl)ccc2n1

>  <score_type>  (14) 
oracle

>  <origin>  (14) 
autodockgpu

>  <m_score__min__energy>  (14) 
-8.2599999999999998

>  <m_primary>  (14) 
energy

>  <rmsd>  (14) 
7.111544337876616

>  <m_score__min__rmsd>  (14) 
7.111544337876616

>  <meeko>  (14) 
{"free_energy": -6.28, "intermolecular_energy": -8.37, "internal_energy": -3.38, "cluster_size": 6, "cluster_id": 6, "rank_in_cluster": 5}

>  <energy>  (14) 
-7.45

>  <cluster_rmsd>  (14) 
0.99

>  <cluster>  (14) 
1

$$$$

     RDKit          3D

 52 55  0  0  0  0  0  0  0  0999 V2000
  140.2700   72.3430  220.6440 O   0  0  0  0  0  0  0  0  0  0  0  0
  140.0360   72.7430  221.8150 C   0  0  0  0  0  0  0  0  0  0  0  0
  139.7950   74.1230  222.0960 N   0  0  0  0  0  0  0  0  0  0  0  0
  139.8220   75.0800  221.0060 C   0  0  0  0  0  0  0  0  0  0  0  0
  140.4250   76.3260  221.5050 C   0  0  0  0  0  0  0  0  0  0  0  0
  140.4400   76.6250  222.7260 O   0  0  0  0  0  0  0  0  0  0  0  0
  141.0060   77.2190  220.5980 N   0  0  0  0  0  0  0  0  0  0  0  0
  141.7970   78.4310  220.8390 C   0  0  0  0  0  0  0  0  0  0  0  0
  141.6510   79.3020  219.6020 C   0  0  0  0  0  0  0  0  0  0  0  0
  140.5610   78.5590  218.8420 C   0  0  2  0  0  0  0  0  0  0  0  0
  139.4030   78.7800  219.6270 F   0  0  0  0  0  0  0  0  0  0  0  0
  140.9570   77.1510  219.1070 C   0  0  1  0  0  0  0  0  0  0  0  0
  142.3070   76.7010  218.6640 C   0  0  0  0  0  0  0  0  0  0  0  0
  143.0250   76.0360  219.5610 O   0  0  0  0  0  0  0  0  0  0  0  0
  143.5090   74.8780  219.9860 C   0  0  0  0  0  0  0  0  0  0  0  0
  142.9010   73.6450  220.0250 C   0  0  0  0  0  0  0  0  0  0  0  0
  143.4810   72.4980  220.4900 C   0  0  0  0  0  0  0  0  0  0  0  0
  144.7710   72.5730  220.9540 C   0  0  0  0  0  0  0  0  0  0  0  0
  145.4520   73.7640  220.9490 C   0  0  0  0  0  0  0  0  0  0  0  0
  144.8370   74.8900  220.4770 C   0  0  0  0  0  0  0  0  0  0  0  0
  140.0010   71.8070  222.9350 C   0  0  0  0  0  0  0  0  0  0  0  0
  139.4330   70.5590  222.7670 C   0  0  0  0  0  0  0  0  0  0  0  0
  139.3830   69.6430  223.8110 C   0  0  0  0  0  0  0  0  0  0  0  0
  139.9150   70.0050  225.0290 C   0  0  0  0  0  0  0  0  0  0  0  0
  139.9120   69.1610  226.1290 C   0  0  0  0  0  0  0  0  0  0  0  0
  140.4500   69.5470  227.3350 C   0  0  0  0  0  0  0  0  0  0  0  0
  140.4510   68.4910  228.7240 Cl  0  0  0  0  0  0  0  0  0  0  0  0
  141.0080   70.8050  227.4580 C   0  0  0  0  0  0  0  0  0  0  0  0
  141.0280   71.6670  226.3880 C   0  0  0  0  0  0  0  0  0  0  0  0
  140.4820   71.2620  225.1840 C   0  0  0  0  0  0  0  0  0  0  0  0
  140.5050   72.1100  224.1420 N   0  0  0  0  0  0  0  0  0  0  0  0
  139.6020   74.4160  223.0960 H   0  0  0  0  0  0  0  0  0  0  0  0
  140.4231   74.6818  220.1753 H   0  0  0  0  0  0  0  0  0  0  0  0
  138.8018   75.2703  220.6412 H   0  0  0  0  0  0  0  0  0  0  0  0
  141.4162   78.9623  221.7237 H   0  0  0  0  0  0  0  0  0  0  0  0
  142.8524   78.1836  221.0260 H   0  0  0  0  0  0  0  0  0  0  0  0
  141.3356   80.3229  219.8632 H   0  0  0  0  0  0  0  0  0  0  0  0
  142.5832   79.4387  219.0344 H   0  0  0  0  0  0  0  0  0  0  0  0
  140.4193   78.8197  217.7828 H   0  0  0  0  0  0  0  0  0  0  0  0
  140.2827   76.4580  218.5825 H   0  0  0  0  0  0  0  0  0  0  0  0
  142.1731   76.0474  217.7894 H   0  0  0  0  0  0  0  0  0  0  0  0
  142.8721   77.6219  218.4575 H   0  0  0  0  0  0  0  0  0  0  0  0
  141.8680   73.5766  219.6532 H   0  0  0  0  0  0  0  0  0  0  0  0
  142.9316   71.5450  220.4924 H   0  0  0  0  0  0  0  0  0  0  0  0
  145.2648   71.6667  221.3346 H   0  0  0  0  0  0  0  0  0  0  0  0
  146.4856   73.8125  221.3222 H   0  0  0  0  0  0  0  0  0  0  0  0
  145.3935   75.8388  220.4787 H   0  0  0  0  0  0  0  0  0  0  0  0
  139.0123   70.2850  221.7883 H   0  0  0  0  0  0  0  0  0  0  0  0
  138.9289   68.6514  223.6680 H   0  0  0  0  0  0  0  0  0  0  0  0
  139.4688   68.1586  226.0352 H   0  0  0  0  0  0  0  0  0  0  0  0
  141.4396   71.1189  228.4199 H   0  0  0  0  0  0  0  0  0  0  0  0
  141.4733   72.6678  226.4882 H   0  0  0  0  0  0  0  0  0  0  0  0
  1  2  2  0
  2  3  1  0
  3  4  1  0
  4  5  1  0
  5  6  2  0
  5  7  1  0
  7  8  1  0
  8  9  1  0
  9 10  1  0
 10 11  1  0
 10 12  1  0
 12 13  1  0
 13 14  1  0
 14 15  1  0
 15 16  2  0
 16 17  1  0
 17 18  2  0
 18 19  1  0
 19 20  2  0
  2 21  1  0
 21 22  2  0
 22 23  1  0
 23 24  2  0
 24 25  1  0
 25 26  2  0
 26 27  1  0
 26 28  1  0
 28 29  2  0
 29 30  1  0
 30 31  2  0
 12  7  1  0
 20 15  1  0
 31 21  1  0
 30 24  1  0
  3 32  1  0
  4 33  1  0
  4 34  1  0
  8 35  1  0
  8 36  1  0
  9 37  1  0
  9 38  1  0
 10 39  1  6
 12 40  1  1
 13 41  1  0
 13 42  1  0
 16 43  1  0
 17 44  1  0
 18 45  1  0
 19 46  1  0
 20 47  1  0
 22 48  1  0
 23 49  1  0
 25 50  1  0
 28 51  1  0
 29 52  1  0
M  END
>  <smiles>  (15) 
O=C(NCC(=O)N1CC[C@H](F)[C@H]1COc1ccccc1)c1ccc2cc(Cl)ccc2n1

>  <score_type>  (15) 
oracle

>  <origin>  (15) 
autodockgpu

>  <m_score__min__energy>  (15) 
-8.2599999999999998

>  <m_primary>  (15) 
energy

>  <rmsd>  (15) 
2.496730863032579

>  <m_score__min__rmsd>  (15) 
2.496730863032579

>  <meeko>  (15) 
{"free_energy": -7.83, "intermolecular_energy": -9.91, "internal_energy": -2.45, "cluster_size": 14, "cluster_id": 2, "rank_in_cluster": 4}

>  <energy>  (15) 
-8.24

>  <cluster_rmsd>  (15) 
0.0

>  <cluster>  (15) 
2

$$$$

     RDKit          3D

 52 55  0  0  0  0  0  0  0  0999 V2000
  139.6950   74.1860  222.3160 O   0  0  0  0  0  0  0  0  0  0  0  0
  139.8070   72.9600  222.0530 C   0  0  0  0  0  0  0  0  0  0  0  0
  139.8560   72.4900  220.7040 N   0  0  0  0  0  0  0  0  0  0  0  0
  139.7750   73.4500  219.6200 C   0  0  0  0  0  0  0  0  0  0  0  0
  141.1110   73.5730  219.0140 C   0  0  0  0  0  0  0  0  0  0  0  0
  141.7370   72.5820  218.5610 O   0  0  0  0  0  0  0  0  0  0  0  0
  141.7150   74.8320  218.9340 N   0  0  0  0  0  0  0  0  0  0  0  0
  142.3510   75.5060  217.7970 C   0  0  0  0  0  0  0  0  0  0  0  0
  143.3310   76.5130  218.3750 C   0  0  0  0  0  0  0  0  0  0  0  0
  143.3120   76.1330  219.8490 C   0  0  2  0  0  0  0  0  0  0  0  0
  143.9660   74.8770  219.8750 F   0  0  0  0  0  0  0  0  0  0  0  0
  141.8670   75.8320  220.0330 C   0  0  1  0  0  0  0  0  0  0  0  0
  140.8790   76.9120  219.7560 C   0  0  0  0  0  0  0  0  0  0  0  0
  141.1010   78.0760  220.3550 O   0  0  0  0  0  0  0  0  0  0  0  0
  141.5490   78.7320  221.4160 C   0  0  0  0  0  0  0  0  0  0  0  0
  142.2040   79.9400  221.4770 C   0  0  0  0  0  0  0  0  0  0  0  0
  142.6380   80.5400  222.6260 C   0  0  0  0  0  0  0  0  0  0  0  0
  142.4050   79.8950  223.8160 C   0  0  0  0  0  0  0  0  0  0  0  0
  141.7570   78.6850  223.8440 C   0  0  0  0  0  0  0  0  0  0  0  0
  141.3400   78.1160  222.6740 C   0  0  0  0  0  0  0  0  0  0  0  0
  139.8910   71.9670  223.1190 C   0  0  0  0  0  0  0  0  0  0  0  0
  139.4620   70.6740  222.8870 C   0  0  0  0  0  0  0  0  0  0  0  0
  139.5280   69.7030  223.8780 C   0  0  0  0  0  0  0  0  0  0  0  0
  140.0340   70.0560  225.1100 C   0  0  0  0  0  0  0  0  0  0  0  0
  140.1390   69.1570  226.1620 C   0  0  0  0  0  0  0  0  0  0  0  0
  140.6480   69.5350  227.3830 C   0  0  0  0  0  0  0  0  0  0  0  0
  140.7840   68.4120  228.7110 Cl  0  0  0  0  0  0  0  0  0  0  0  0
  141.0650   70.8380  227.5720 C   0  0  0  0  0  0  0  0  0  0  0  0
  140.9750   71.7540  226.5510 C   0  0  0  0  0  0  0  0  0  0  0  0
  140.4610   71.3570  225.3300 C   0  0  0  0  0  0  0  0  0  0  0  0
  140.3760   72.2580  224.3380 N   0  0  0  0  0  0  0  0  0  0  0  0
  139.9520   71.4500  220.5270 H   0  0  0  0  0  0  0  0  0  0  0  0
  139.0547   73.1002  218.8658 H   0  0  0  0  0  0  0  0  0  0  0  0
  139.4391   74.4258  220.0008 H   0  0  0  0  0  0  0  0  0  0  0  0
  142.8844   74.7738  217.1730 H   0  0  0  0  0  0  0  0  0  0  0  0
  141.6016   76.0035  217.1639 H   0  0  0  0  0  0  0  0  0  0  0  0
  144.3346   76.3934  217.9409 H   0  0  0  0  0  0  0  0  0  0  0  0
  143.0689   77.5627  218.1763 H   0  0  0  0  0  0  0  0  0  0  0  0
  143.7398   76.8553  220.5598 H   0  0  0  0  0  0  0  0  0  0  0  0
  141.6598   75.5733  221.0819 H   0  0  0  0  0  0  0  0  0  0  0  0
  140.8707   77.0892  218.6704 H   0  0  0  0  0  0  0  0  0  0  0  0
  139.9235   76.5488  220.1622 H   0  0  0  0  0  0  0  0  0  0  0  0
  142.3931   80.4635  220.5282 H   0  0  0  0  0  0  0  0  0  0  0  0
  143.1576   81.5091  222.5984 H   0  0  0  0  0  0  0  0  0  0  0  0
  142.7415   80.3533  224.7577 H   0  0  0  0  0  0  0  0  0  0  0  0
  141.5747   78.1768  224.8024 H   0  0  0  0  0  0  0  0  0  0  0  0
  140.8238   77.1453  222.7104 H   0  0  0  0  0  0  0  0  0  0  0  0
  139.0603   70.4085  221.8980 H   0  0  0  0  0  0  0  0  0  0  0  0
  139.1844   68.6763  223.6838 H   0  0  0  0  0  0  0  0  0  0  0  0
  139.8077   68.1183  226.0163 H   0  0  0  0  0  0  0  0  0  0  0  0
  141.4721   71.1450  228.5467 H   0  0  0  0  0  0  0  0  0  0  0  0
  141.3081   72.7912  226.7034 H   0  0  0  0  0  0  0  0  0  0  0  0
  1  2  2  0
  2  3  1  0
  3  4  1  0
  4  5  1  0
  5  6  2  0
  5  7  1  0
  7  8  1  0
  8  9  1  0
  9 10  1  0
 10 11  1  0
 10 12  1  0
 12 13  1  0
 13 14  1  0
 14 15  1  0
 15 16  2  0
 16 17  1  0
 17 18  2  0
 18 19  1  0
 19 20  2  0
  2 21  1  0
 21 22  2  0
 22 23  1  0
 23 24  2  0
 24 25  1  0
 25 26  2  0
 26 27  1  0
 26 28  1  0
 28 29  2  0
 29 30  1  0
 30 31  2  0
 12  7  1  0
 20 15  1  0
 31 21  1  0
 30 24  1  0
  3 32  1  0
  4 33  1  0
  4 34  1  0
  8 35  1  0
  8 36  1  0
  9 37  1  0
  9 38  1  0
 10 39  1  1
 12 40  1  1
 13 41  1  0
 13 42  1  0
 16 43  1  0
 17 44  1  0
 18 45  1  0
 19 46  1  0
 20 47  1  0
 22 48  1  0
 23 49  1  0
 25 50  1  0
 28 51  1  0
 29 52  1  0
M  END
>  <smiles>  (16) 
O=C(NCC(=O)N1CC[C@H](F)[C@H]1COc1ccccc1)c1ccc2cc(Cl)ccc2n1

>  <score_type>  (16) 
oracle

>  <origin>  (16) 
autodockgpu

>  <m_score__min__energy>  (16) 
-8.2599999999999998

>  <m_primary>  (16) 
energy

>  <rmsd>  (16) 
2.283205181486434

>  <m_score__min__rmsd>  (16) 
2.283205181486434

>  <meeko>  (16) 
{"free_energy": -8.0, "intermolecular_energy": -10.09, "internal_energy": -1.49, "cluster_size": 14, "cluster_id": 1, "rank_in_cluster": 5}

>  <energy>  (16) 
-8.16

>  <cluster_rmsd>  (16) 
1.04

>  <cluster>  (16) 
2

$$$$

     RDKit          3D

 52 55  0  0  0  0  0  0  0  0999 V2000
  135.1270   68.5220  224.2590 O   0  0  0  0  0  0  0  0  0  0  0  0
  135.7070   69.6150  224.4920 C   0  0  0  0  0  0  0  0  0  0  0  0
  137.0840   69.8100  224.1670 N   0  0  0  0  0  0  0  0  0  0  0  0
  137.8260   68.7230  223.5560 C   0  0  0  0  0  0  0  0  0  0  0  0
  138.2440   69.1530  222.2120 C   0  0  0  0  0  0  0  0  0  0  0  0
  138.3270   68.3530  221.2460 O   0  0  0  0  0  0  0  0  0  0  0  0
  138.5640   70.4960  221.9890 N   0  0  0  0  0  0  0  0  0  0  0  0
  137.6980   71.6330  221.6580 C   0  0  0  0  0  0  0  0  0  0  0  0
  138.5690   72.6590  220.9540 C   0  0  0  0  0  0  0  0  0  0  0  0
  139.8530   71.8670  220.7490 C   0  0  2  0  0  0  0  0  0  0  0  0
  139.4970   70.9060  219.7720 F   0  0  0  0  0  0  0  0  0  0  0  0
  139.9200   71.1210  222.0340 C   0  0  1  0  0  0  0  0  0  0  0  0
  139.9800   71.9020  223.3020 C   0  0  0  0  0  0  0  0  0  0  0  0
  139.6460   71.2470  224.4070 O   0  0  0  0  0  0  0  0  0  0  0  0
  139.9370   70.9230  225.6590 C   0  0  0  0  0  0  0  0  0  0  0  0
  139.5860   69.7990  226.3690 C   0  0  0  0  0  0  0  0  0  0  0  0
  139.9310   69.5510  227.6690 C   0  0  0  0  0  0  0  0  0  0  0  0
  140.6880   70.4920  228.3230 C   0  0  0  0  0  0  0  0  0  0  0  0
  141.0830   71.6420  227.6860 C   0  0  0  0  0  0  0  0  0  0  0  0
  140.7170   71.8540  226.3870 C   0  0  0  0  0  0  0  0  0  0  0  0
  134.9910   70.7290  225.1070 C   0  0  0  0  0  0  0  0  0  0  0  0
  134.0020   70.4770  226.0390 C   0  0  0  0  0  0  0  0  0  0  0  0
  133.3010   71.5120  226.6440 C   0  0  0  0  0  0  0  0  0  0  0  0
  133.6110   72.8080  226.2940 C   0  0  0  0  0  0  0  0  0  0  0  0
  132.9660   73.9070  226.8420 C   0  0  0  0  0  0  0  0  0  0  0  0
  133.2950   75.1920  226.4760 C   0  0  0  0  0  0  0  0  0  0  0  0
  132.4900   76.5800  227.1600 Cl  0  0  0  0  0  0  0  0  0  0  0  0
  134.2900   75.3970  225.5390 C   0  0  0  0  0  0  0  0  0  0  0  0
  134.9490   74.3310  224.9750 C   0  0  0  0  0  0  0  0  0  0  0  0
  134.6050   73.0470  225.3560 C   0  0  0  0  0  0  0  0  0  0  0  0
  135.2530   72.0100  224.8010 N   0  0  0  0  0  0  0  0  0  0  0  0
  137.5330   70.7460  224.3800 H   0  0  0  0  0  0  0  0  0  0  0  0
  138.7117   68.4880  224.1645 H   0  0  0  0  0  0  0  0  0  0  0  0
  137.1974   67.8227  223.4896 H   0  0  0  0  0  0  0  0  0  0  0  0
  136.8839   71.3079  220.9936 H   0  0  0  0  0  0  0  0  0  0  0  0
  137.2420   72.0583  222.5642 H   0  0  0  0  0  0  0  0  0  0  0  0
  138.1299   72.9701  219.9946 H   0  0  0  0  0  0  0  0  0  0  0  0
  138.7019   73.5973  221.5124 H   0  0  0  0  0  0  0  0  0  0  0  0
  140.7566   72.4352  220.4834 H   0  0  0  0  0  0  0  0  0  0  0  0
  140.8351   70.5121  222.0774 H   0  0  0  0  0  0  0  0  0  0  0  0
  141.0111   72.2648  223.4249 H   0  0  0  0  0  0  0  0  0  0  0  0
  139.2308   72.7001  223.1935 H   0  0  0  0  0  0  0  0  0  0  0  0
  138.9807   69.0404  225.8512 H   0  0  0  0  0  0  0  0  0  0  0  0
  139.6124   68.6275  228.1746 H   0  0  0  0  0  0  0  0  0  0  0  0
  140.9812   70.3221  229.3695 H   0  0  0  0  0  0  0  0  0  0  0  0
  141.6907   72.3885  228.2184 H   0  0  0  0  0  0  0  0  0  0  0  0
  141.0395   72.7803  225.8891 H   0  0  0  0  0  0  0  0  0  0  0  0
  133.7656   69.4366  226.3067 H   0  0  0  0  0  0  0  0  0  0  0  0
  132.5162   71.3019  227.3856 H   0  0  0  0  0  0  0  0  0  0  0  0
  132.1725   73.7475  227.5870 H   0  0  0  0  0  0  0  0  0  0  0  0
  134.5567   76.4221  225.2421 H   0  0  0  0  0  0  0  0  0  0  0  0
  135.7406   74.4972  224.2295 H   0  0  0  0  0  0  0  0  0  0  0  0
  1  2  2  0
  2  3  1  0
  3  4  1  0
  4  5  1  0
  5  6  2  0
  5  7  1  0
  7  8  1  0
  8  9  1  0
  9 10  1  0
 10 11  1  0
 10 12  1  0
 12 13  1  0
 13 14  1  0
 14 15  1  0
 15 16  2  0
 16 17  1  0
 17 18  2  0
 18 19  1  0
 19 20  2  0
  2 21  1  0
 21 22  2  0
 22 23  1  0
 23 24  2  0
 24 25  1  0
 25 26  2  0
 26 27  1  0
 26 28  1  0
 28 29  2  0
 29 30  1  0
 30 31  2  0
 12  7  1  0
 20 15  1  0
 31 21  1  0
 30 24  1  0
  3 32  1  0
  4 33  1  0
  4 34  1  0
  8 35  1  0
  8 36  1  0
  9 37  1  0
  9 38  1  0
 10 39  1  6
 12 40  1  6
 13 41  1  0
 13 42  1  0
 16 43  1  0
 17 44  1  0
 18 45  1  0
 19 46  1  0
 20 47  1  0
 22 48  1  0
 23 49  1  0
 25 50  1  0
 28 51  1  0
 29 52  1  0
M  END
>  <smiles>  (17) 
O=C(NCC(=O)N1CC[C@H](F)[C@H]1COc1ccccc1)c1ccc2cc(Cl)ccc2n1

>  <score_type>  (17) 
oracle

>  <origin>  (17) 
autodockgpu

>  <m_score__min__energy>  (17) 
-8.2599999999999998

>  <m_primary>  (17) 
energy

>  <rmsd>  (17) 
6.47570325150252

>  <m_score__min__rmsd>  (17) 
6.47570325150252

>  <meeko>  (17) 
{"free_energy": -6.7, "intermolecular_energy": -8.79, "internal_energy": -2.79, "cluster_size": 5, "cluster_id": 5, "rank_in_cluster": 5}

>  <energy>  (17) 
-7.9

>  <cluster_rmsd>  (17) 
0.43

>  <cluster>  (17) 
2

$$$$

     RDKit          3D

 52 55  0  0  0  0  0  0  0  0999 V2000
  136.0300   74.5590  221.6590 O   0  0  0  0  0  0  0  0  0  0  0  0
  137.2090   74.6490  222.0910 C   0  0  0  0  0  0  0  0  0  0  0  0
  137.9970   73.4860  222.3520 N   0  0  0  0  0  0  0  0  0  0  0  0
  137.4210   72.1760  222.1130 C   0  0  0  0  0  0  0  0  0  0  0  0
  138.4900   71.1730  222.2530 C   0  0  0  0  0  0  0  0  0  0  0  0
  139.6770   71.4880  222.5180 O   0  0  0  0  0  0  0  0  0  0  0  0
  138.1850   69.8180  222.0880 N   0  0  0  0  0  0  0  0  0  0  0  0
  138.2770   68.9660  220.8980 C   0  0  0  0  0  0  0  0  0  0  0  0
  137.2960   67.8230  221.1000 C   0  0  0  0  0  0  0  0  0  0  0  0
  136.5510   68.2870  222.3440 C   0  0  2  0  0  0  0  0  0  0  0  0
  135.7920   69.3900  221.8820 F   0  0  0  0  0  0  0  0  0  0  0  0
  137.6700   68.8750  223.1260 C   0  0  1  0  0  0  0  0  0  0  0  0
  138.8140   67.9940  223.4960 C   0  0  0  0  0  0  0  0  0  0  0  0
  139.1740   68.0080  224.7730 O   0  0  0  0  0  0  0  0  0  0  0  0
  139.7030   68.6740  225.7900 C   0  0  0  0  0  0  0  0  0  0  0  0
  139.9390   70.0230  225.9150 C   0  0  0  0  0  0  0  0  0  0  0  0
  140.4990   70.6240  227.0080 C   0  0  0  0  0  0  0  0  0  0  0  0
  140.8550   69.8270  228.0680 C   0  0  0  0  0  0  0  0  0  0  0  0
  140.6520   68.4700  228.0260 C   0  0  0  0  0  0  0  0  0  0  0  0
  140.0910   67.9060  226.9150 C   0  0  0  0  0  0  0  0  0  0  0  0
  137.8190   75.9510  222.3430 C   0  0  0  0  0  0  0  0  0  0  0  0
  137.0190   77.0710  222.4640 C   0  0  0  0  0  0  0  0  0  0  0  0
  137.5650   78.3260  222.7040 C   0  0  0  0  0  0  0  0  0  0  0  0
  138.9330   78.4350  222.8200 C   0  0  0  0  0  0  0  0  0  0  0  0
  139.5700   79.6430  223.0590 C   0  0  0  0  0  0  0  0  0  0  0  0
  140.9390   79.7260  223.1710 C   0  0  0  0  0  0  0  0  0  0  0  0
  141.7500   81.2420  223.4710 Cl  0  0  0  0  0  0  0  0  0  0  0  0
  141.7010   78.5810  223.0420 C   0  0  0  0  0  0  0  0  0  0  0  0
  141.1030   77.3670  222.8050 C   0  0  0  0  0  0  0  0  0  0  0  0
  139.7250   77.3030  222.6960 C   0  0  0  0  0  0  0  0  0  0  0  0
  139.1470   76.1130  222.4640 N   0  0  0  0  0  0  0  0  0  0  0  0
  138.9850   73.6070  222.7150 H   0  0  0  0  0  0  0  0  0  0  0  0
  136.6262   71.9787  222.8474 H   0  0  0  0  0  0  0  0  0  0  0  0
  136.9854   72.1299  221.1040 H   0  0  0  0  0  0  0  0  0  0  0  0
  138.0091   69.5407  219.9991 H   0  0  0  0  0  0  0  0  0  0  0  0
  139.3009   68.5881  220.7611 H   0  0  0  0  0  0  0  0  0  0  0  0
  136.6180   67.7174  220.2403 H   0  0  0  0  0  0  0  0  0  0  0  0
  137.7692   66.8351  221.2001 H   0  0  0  0  0  0  0  0  0  0  0  0
  135.9436   67.5392  222.8748 H   0  0  0  0  0  0  0  0  0  0  0  0
  137.3093   69.2317  224.1021 H   0  0  0  0  0  0  0  0  0  0  0  0
  138.5401   66.9609  223.2356 H   0  0  0  0  0  0  0  0  0  0  0  0
  139.6793   68.3860  222.9415 H   0  0  0  0  0  0  0  0  0  0  0  0
  139.6554   70.6683  225.0705 H   0  0  0  0  0  0  0  0  0  0  0  0
  140.6593   71.7119  227.0373 H   0  0  0  0  0  0  0  0  0  0  0  0
  141.3082   70.2813  228.9614 H   0  0  0  0  0  0  0  0  0  0  0  0
  140.9391   67.8407  228.8813 H   0  0  0  0  0  0  0  0  0  0  0  0
  139.9353   66.8173  226.8936 H   0  0  0  0  0  0  0  0  0  0  0  0
  135.9281   76.9671  222.3684 H   0  0  0  0  0  0  0  0  0  0  0  0
  136.9197   79.2117  222.7991 H   0  0  0  0  0  0  0  0  0  0  0  0
  138.9666   80.5570  223.1616 H   0  0  0  0  0  0  0  0  0  0  0  0
  142.7958   78.6418  223.1298 H   0  0  0  0  0  0  0  0  0  0  0  0
  141.7123   76.4568  222.7031 H   0  0  0  0  0  0  0  0  0  0  0  0
  1  2  2  0
  2  3  1  0
  3  4  1  0
  4  5  1  0
  5  6  2  0
  5  7  1  0
  7  8  1  0
  8  9  1  0
  9 10  1  0
 10 11  1  0
 10 12  1  0
 12 13  1  0
 13 14  1  0
 14 15  1  0
 15 16  2  0
 16 17  1  0
 17 18  2  0
 18 19  1  0
 19 20  2  0
  2 21  1  0
 21 22  2  0
 22 23  1  0
 23 24  2  0
 24 25  1  0
 25 26  2  0
 26 27  1  0
 26 28  1  0
 28 29  2  0
 29 30  1  0
 30 31  2  0
 12  7  1  0
 20 15  1  0
 31 21  1  0
 30 24  1  0
  3 32  1  0
  4 33  1  0
  4 34  1  0
  8 35  1  0
  8 36  1  0
  9 37  1  0
  9 38  1  0
 10 39  1  1
 12 40  1  1
 13 41  1  0
 13 42  1  0
 16 43  1  0
 17 44  1  0
 18 45  1  0
 19 46  1  0
 20 47  1  0
 22 48  1  0
 23 49  1  0
 25 50  1  0
 28 51  1  0
 29 52  1  0
M  END
>  <smiles>  (18) 
O=C(NCC(=O)N1CC[C@H](F)[C@H]1COc1ccccc1)c1ccc2cc(Cl)ccc2n1

>  <score_type>  (18) 
oracle

>  <origin>  (18) 
autodockgpu

>  <m_score__min__energy>  (18) 
-8.2599999999999998

>  <m_primary>  (18) 
energy

>  <rmsd>  (18) 
8.100845170695937

>  <m_score__min__rmsd>  (18) 
8.100845170695937

>  <meeko>  (18) 
{"free_energy": -7.42, "intermolecular_energy": -9.51, "internal_energy": -2.09, "cluster_size": 6, "cluster_id": 4, "rank_in_cluster": 4}

>  <energy>  (18) 
-7.83

>  <cluster_rmsd>  (18) 
0.57

>  <cluster>  (18) 
2

$$$$

     RDKit          3D

 52 55  0  0  0  0  0  0  0  0999 V2000
  140.0350   74.1650  221.8980 O   0  0  0  0  0  0  0  0  0  0  0  0
  140.3460   75.3810  221.7940 C   0  0  0  0  0  0  0  0  0  0  0  0
  141.6110   75.7820  221.2650 N   0  0  0  0  0  0  0  0  0  0  0  0
  142.5540   74.7630  220.8410 C   0  0  0  0  0  0  0  0  0  0  0  0
  143.0630   75.1340  219.5110 C   0  0  0  0  0  0  0  0  0  0  0  0
  144.0960   74.6160  219.0180 O   0  0  0  0  0  0  0  0  0  0  0  0
  142.3820   76.0970  218.7590 N   0  0  0  0  0  0  0  0  0  0  0  0
  141.1770   75.9730  217.9320 C   0  0  0  0  0  0  0  0  0  0  0  0
  141.2290   77.0950  216.9090 C   0  0  0  0  0  0  0  0  0  0  0  0
  142.6370   77.6320  217.1290 C   0  0  2  0  0  0  0  0  0  0  0  0
  143.4660   76.5970  216.6320 F   0  0  0  0  0  0  0  0  0  0  0  0
  142.7340   77.5410  218.6100 C   0  0  1  0  0  0  0  0  0  0  0  0
  141.7480   78.2990  219.4300 C   0  0  0  0  0  0  0  0  0  0  0  0
  142.1880   78.7610  220.5950 O   0  0  0  0  0  0  0  0  0  0  0  0
  142.1580   79.7140  221.5150 C   0  0  0  0  0  0  0  0  0  0  0  0
  141.6460   80.9880  221.4300 C   0  0  0  0  0  0  0  0  0  0  0  0
  141.6650   81.9110  222.4380 C   0  0  0  0  0  0  0  0  0  0  0  0
  142.2380   81.5460  223.6320 C   0  0  0  0  0  0  0  0  0  0  0  0
  142.7720   80.2930  223.8020 C   0  0  0  0  0  0  0  0  0  0  0  0
  142.7340   79.3990  222.7700 C   0  0  0  0  0  0  0  0  0  0  0  0
  139.4220   76.4310  222.2100 C   0  0  0  0  0  0  0  0  0  0  0  0
  138.0610   76.2400  222.0730 C   0  0  0  0  0  0  0  0  0  0  0  0
  137.1520   77.2180  222.4590 C   0  0  0  0  0  0  0  0  0  0  0  0
  137.6380   78.3940  222.9860 C   0  0  0  0  0  0  0  0  0  0  0  0
  136.8110   79.4280  223.3990 C   0  0  0  0  0  0  0  0  0  0  0  0
  137.3220   80.5930  223.9230 C   0  0  0  0  0  0  0  0  0  0  0  0
  136.2890   81.8990  224.4460 Cl  0  0  0  0  0  0  0  0  0  0  0  0
  138.6900   80.7420  224.0420 C   0  0  0  0  0  0  0  0  0  0  0  0
  139.5390   79.7380  223.6420 C   0  0  0  0  0  0  0  0  0  0  0  0
  139.0070   78.5740  223.1180 C   0  0  0  0  0  0  0  0  0  0  0  0
  139.8430   77.5960  222.7300 N   0  0  0  0  0  0  0  0  0  0  0  0
  141.8330   76.8150  221.1940 H   0  0  0  0  0  0  0  0  0  0  0  0
  143.3876   74.7060  221.5564 H   0  0  0  0  0  0  0  0  0  0  0  0
  142.0598   73.7812  220.7989 H   0  0  0  0  0  0  0  0  0  0  0  0
  141.1653   74.9975  217.4238 H   0  0  0  0  0  0  0  0  0  0  0  0
  140.2676   76.0416  218.5470 H   0  0  0  0  0  0  0  0  0  0  0  0
  141.0986   76.7135  215.8855 H   0  0  0  0  0  0  0  0  0  0  0  0
  140.4357   77.8482  217.0247 H   0  0  0  0  0  0  0  0  0  0  0  0
  142.8726   78.6165  216.6985 H   0  0  0  0  0  0  0  0  0  0  0  0
  143.6992   77.9387  218.9567 H   0  0  0  0  0  0  0  0  0  0  0  0
  141.4067   79.1589  218.8349 H   0  0  0  0  0  0  0  0  0  0  0  0
  140.9551   77.5783  219.6788 H   0  0  0  0  0  0  0  0  0  0  0  0
  141.1856   81.2871  220.4768 H   0  0  0  0  0  0  0  0  0  0  0  0
  141.2353   82.9138  222.2976 H   0  0  0  0  0  0  0  0  0  0  0  0
  142.2693   82.2669  224.4622 H   0  0  0  0  0  0  0  0  0  0  0  0
  143.2274   80.0108  224.7627 H   0  0  0  0  0  0  0  0  0  0  0  0
  143.1662   78.3985  222.9190 H   0  0  0  0  0  0  0  0  0  0  0  0
  137.6891   75.2951  221.6500 H   0  0  0  0  0  0  0  0  0  0  0  0
  136.0698   77.0566  222.3462 H   0  0  0  0  0  0  0  0  0  0  0  0
  135.7209   79.3140  223.3054 H   0  0  0  0  0  0  0  0  0  0  0  0
  139.1032   81.6717  224.4603 H   0  0  0  0  0  0  0  0  0  0  0  0
  140.6282   79.8588  223.7375 H   0  0  0  0  0  0  0  0  0  0  0  0
  1  2  2  0
  2  3  1  0
  3  4  1  0
  4  5  1  0
  5  6  2  0
  5  7  1  0
  7  8  1  0
  8  9  1  0
  9 10  1  0
 10 11  1  0
 10 12  1  0
 12 13  1  0
 13 14  1  0
 14 15  1  0
 15 16  2  0
 16 17  1  0
 17 18  2  0
 18 19  1  0
 19 20  2  0
  2 21  1  0
 21 22  2  0
 22 23  1  0
 23 24  2  0
 24 25  1  0
 25 26  2  0
 26 27  1  0
 26 28  1  0
 28 29  2  0
 29 30  1  0
 30 31  2  0
 12  7  1  0
 20 15  1  0
 31 21  1  0
 30 24  1  0
  3 32  1  0
  4 33  1  0
  4 34  1  0
  8 35  1  0
  8 36  1  0
  9 37  1  0
  9 38  1  0
 10 39  1  6
 12 40  1  1
 13 41  1  0
 13 42  1  0
 16 43  1  0
 17 44  1  0
 18 45  1  0
 19 46  1  0
 20 47  1  0
 22 48  1  0
 23 49  1  0
 25 50  1  0
 28 51  1  0
 29 52  1  0
M  END
>  <smiles>  (19) 
O=C(NCC(=O)N1CC[C@H](F)[C@H]1COc1ccccc1)c1ccc2cc(Cl)ccc2n1

>  <score_type>  (19) 
oracle

>  <origin>  (19) 
autodockgpu

>  <m_score__min__energy>  (19) 
-8.2599999999999998

>  <m_primary>  (19) 
energy

>  <rmsd>  (19) 
6.783283262424358

>  <m_score__min__rmsd>  (19) 
6.783283262424358

>  <meeko>  (19) 
{"free_energy": -6.54, "intermolecular_energy": -8.62, "internal_energy": -3.29, "cluster_size": 6, "cluster_id": 6, "rank_in_cluster": 2}

>  <energy>  (19) 
-7.81

>  <cluster_rmsd>  (19) 
0.55

>  <cluster>  (19) 
2

$$$$

     RDKit          3D

 52 55  0  0  0  0  0  0  0  0999 V2000
  139.7910   74.2500  222.2130 O   0  0  0  0  0  0  0  0  0  0  0  0
  140.0190   75.4600  221.9520 C   0  0  0  0  0  0  0  0  0  0  0  0
  141.2010   75.8620  221.2570 N   0  0  0  0  0  0  0  0  0  0  0  0
  142.1560   74.8490  220.8470 C   0  0  0  0  0  0  0  0  0  0  0  0
  143.0230   75.4310  219.8090 C   0  0  0  0  0  0  0  0  0  0  0  0
  144.2570   75.1990  219.7570 O   0  0  0  0  0  0  0  0  0  0  0  0
  142.4660   76.2730  218.8420 N   0  0  0  0  0  0  0  0  0  0  0  0
  141.4590   75.9960  217.8120 C   0  0  0  0  0  0  0  0  0  0  0  0
  141.6670   77.0180  216.7070 C   0  0  0  0  0  0  0  0  0  0  0  0
  142.9770   77.6610  217.1410 C   0  0  2  0  0  0  0  0  0  0  0  0
  143.9340   76.6390  216.9270 F   0  0  0  0  0  0  0  0  0  0  0  0
  142.7770   77.7170  218.6130 C   0  0  1  0  0  0  0  0  0  0  0  0
  141.6140   78.4840  219.1410 C   0  0  0  0  0  0  0  0  0  0  0  0
  141.5580   78.6300  220.4590 O   0  0  0  0  0  0  0  0  0  0  0  0
  141.8060   79.3800  221.5230 C   0  0  0  0  0  0  0  0  0  0  0  0
  142.3090   79.0100  222.7490 C   0  0  0  0  0  0  0  0  0  0  0  0
  142.5270   79.8590  223.7970 C   0  0  0  0  0  0  0  0  0  0  0  0
  142.2260   81.1880  223.6210 C   0  0  0  0  0  0  0  0  0  0  0  0
  141.7210   81.6420  222.4280 C   0  0  0  0  0  0  0  0  0  0  0  0
  141.5160   80.7610  221.4040 C   0  0  0  0  0  0  0  0  0  0  0  0
  139.0800   76.5040  222.3510 C   0  0  0  0  0  0  0  0  0  0  0  0
  137.7200   76.2790  222.2480 C   0  0  0  0  0  0  0  0  0  0  0  0
  136.7980   77.2490  222.6180 C   0  0  0  0  0  0  0  0  0  0  0  0
  137.2670   78.4540  223.0940 C   0  0  0  0  0  0  0  0  0  0  0  0
  136.4250   79.4830  223.4880 C   0  0  0  0  0  0  0  0  0  0  0  0
  136.9200   80.6770  223.9610 C   0  0  0  0  0  0  0  0  0  0  0  0
  135.8680   81.9770  224.4590 Cl  0  0  0  0  0  0  0  0  0  0  0  0
  138.2860   80.8600  224.0470 C   0  0  0  0  0  0  0  0  0  0  0  0
  139.1490   79.8610  223.6650 C   0  0  0  0  0  0  0  0  0  0  0  0
  138.6340   78.6670  223.1930 C   0  0  0  0  0  0  0  0  0  0  0  0
  139.4840   77.6960  222.8210 N   0  0  0  0  0  0  0  0  0  0  0  0
  141.3530   76.8910  221.0570 H   0  0  0  0  0  0  0  0  0  0  0  0
  142.7639   74.5388  221.7097 H   0  0  0  0  0  0  0  0  0  0  0  0
  141.6301   73.9666  220.4535 H   0  0  0  0  0  0  0  0  0  0  0  0
  141.5923   74.9783  217.4163 H   0  0  0  0  0  0  0  0  0  0  0  0
  140.4423   76.0646  218.2261 H   0  0  0  0  0  0  0  0  0  0  0  0
  141.7618   76.5345  215.7235 H   0  0  0  0  0  0  0  0  0  0  0  0
  140.8348   77.7270  216.5855 H   0  0  0  0  0  0  0  0  0  0  0  0
  143.2519   78.6133  216.6641 H   0  0  0  0  0  0  0  0  0  0  0  0
  143.6342   78.2076  219.0973 H   0  0  0  0  0  0  0  0  0  0  0  0
  141.6430   79.4882  218.6930 H   0  0  0  0  0  0  0  0  0  0  0  0
  140.7256   77.8937  218.8722 H   0  0  0  0  0  0  0  0  0  0  0  0
  142.5548   77.9481  222.8969 H   0  0  0  0  0  0  0  0  0  0  0  0
  142.9307   79.4902  224.7515 H   0  0  0  0  0  0  0  0  0  0  0  0
  142.3917   81.8966  224.4459 H   0  0  0  0  0  0  0  0  0  0  0  0
  141.4830   82.7080  222.2973 H   0  0  0  0  0  0  0  0  0  0  0  0
  141.1112   81.1379  220.4532 H   0  0  0  0  0  0  0  0  0  0  0  0
  137.3610   75.3122  221.8653 H   0  0  0  0  0  0  0  0  0  0  0  0
  135.7177   77.0598  222.5330 H   0  0  0  0  0  0  0  0  0  0  0  0
  135.3362   79.3417  223.4210 H   0  0  0  0  0  0  0  0  0  0  0  0
  138.6864   81.8126  224.4241 H   0  0  0  0  0  0  0  0  0  0  0  0
  140.2368   80.0091  223.7338 H   0  0  0  0  0  0  0  0  0  0  0  0
  1  2  2  0
  2  3  1  0
  3  4  1  0
  4  5  1  0
  5  6  2  0
  5  7  1  0
  7  8  1  0
  8  9  1  0
  9 10  1  0
 10 11  1  0
 10 12  1  0
 12 13  1  0
 13 14  1  0
 14 15  1  0
 15 16  2  0
 16 17  1  0
 17 18  2  0
 18 19  1  0
 19 20  2  0
  2 21  1  0
 21 22  2  0
 22 23  1  0
 23 24  2  0
 24 25  1  0
 25 26  2  0
 26 27  1  0
 26 28  1  0
 28 29  2  0
 29 30  1  0
 30 31  2  0
 12  7  1  0
 20 15  1  0
 31 21  1  0
 30 24  1  0
  3 32  1  0
  4 33  1  0
  4 34  1  0
  8 35  1  0
  8 36  1  0
  9 37  1  0
  9 38  1  0
 10 39  1  6
 12 40  1  1
 13 41  1  0
 13 42  1  0
 16 43  1  0
 17 44  1  0
 18 45  1  0
 19 46  1  0
 20 47  1  0
 22 48  1  0
 23 49  1  0
 25 50  1  0
 28 51  1  0
 29 52  1  0
M  END
>  <smiles>  (20) 
O=C(NCC(=O)N1CC[C@H](F)[C@H]1COc1ccccc1)c1ccc2cc(Cl)ccc2n1

>  <score_type>  (20) 
oracle

>  <origin>  (20) 
autodockgpu

>  <m_score__min__energy>  (20) 
-8.2599999999999998

>  <m_primary>  (20) 
energy

>  <rmsd>  (20) 
6.8406764388318155

>  <m_score__min__rmsd>  (20) 
6.8406764388318155

>  <meeko>  (20) 
{"free_energy": -6.45, "intermolecular_energy": -8.53, "internal_energy": -3.38, "cluster_size": 6, "cluster_id": 6, "rank_in_cluster": 4}

>  <energy>  (20) 
-7.76

>  <cluster_rmsd>  (20) 
0.63

>  <cluster>  (20) 
2

$$$$

     RDKit          3D

 52 55  0  0  0  0  0  0  0  0999 V2000
  139.7370   72.2860  220.7290 O   0  0  0  0  0  0  0  0  0  0  0  0
  139.7120   72.6580  221.9310 C   0  0  0  0  0  0  0  0  0  0  0  0
  139.5620   74.0360  222.2800 N   0  0  0  0  0  0  0  0  0  0  0  0
  139.4370   75.0220  221.2240 C   0  0  0  0  0  0  0  0  0  0  0  0
  139.3620   76.3540  221.8460 C   0  0  0  0  0  0  0  0  0  0  0  0
  138.3680   76.7260  222.5190 O   0  0  0  0  0  0  0  0  0  0  0  0
  140.4270   77.2460  221.6890 N   0  0  0  0  0  0  0  0  0  0  0  0
  141.3300   77.8260  222.6890 C   0  0  0  0  0  0  0  0  0  0  0  0
  141.8600   79.1240  222.1020 C   0  0  0  0  0  0  0  0  0  0  0  0
  140.9890   79.2660  220.8610 C   0  0  2  0  0  0  0  0  0  0  0  0
  139.7070   79.5580  221.3890 F   0  0  0  0  0  0  0  0  0  0  0  0
  140.9210   77.8490  220.4150 C   0  0  1  0  0  0  0  0  0  0  0  0
  142.1950   77.1490  220.0860 C   0  0  0  0  0  0  0  0  0  0  0  0
  142.2560   75.8630  220.4110 O   0  0  0  0  0  0  0  0  0  0  0  0
  142.9790   74.7570  220.5060 C   0  0  0  0  0  0  0  0  0  0  0  0
  142.5610   73.4590  220.6880 C   0  0  0  0  0  0  0  0  0  0  0  0
  143.3870   72.3740  220.7810 C   0  0  0  0  0  0  0  0  0  0  0  0
  144.7400   72.5860  220.6840 C   0  0  0  0  0  0  0  0  0  0  0  0
  145.2420   73.8500  220.5000 C   0  0  0  0  0  0  0  0  0  0  0  0
  144.3840   74.9100  220.4130 C   0  0  0  0  0  0  0  0  0  0  0  0
  139.8350   71.6930  223.0190 C   0  0  0  0  0  0  0  0  0  0  0  0
  139.4440   70.3830  222.8200 C   0  0  0  0  0  0  0  0  0  0  0  0
  139.5470   69.4370  223.8330 C   0  0  0  0  0  0  0  0  0  0  0  0
  140.0520   69.8330  225.0520 C   0  0  0  0  0  0  0  0  0  0  0  0
  140.1920   68.9630  226.1230 C   0  0  0  0  0  0  0  0  0  0  0  0
  140.7000   69.3840  227.3300 C   0  0  0  0  0  0  0  0  0  0  0  0
  140.8800   68.2960  228.6830 Cl  0  0  0  0  0  0  0  0  0  0  0  0
  141.0780   70.7030  227.4860 C   0  0  0  0  0  0  0  0  0  0  0  0
  140.9510   71.5930  226.4460 C   0  0  0  0  0  0  0  0  0  0  0  0
  140.4400   71.1520  225.2390 C   0  0  0  0  0  0  0  0  0  0  0  0
  140.3200   72.0260  224.2270 N   0  0  0  0  0  0  0  0  0  0  0  0
  139.5460   74.3060  223.3050 H   0  0  0  0  0  0  0  0  0  0  0  0
  140.3124   74.9697  220.5600 H   0  0  0  0  0  0  0  0  0  0  0  0
  138.5325   74.8289  220.6285 H   0  0  0  0  0  0  0  0  0  0  0  0
  140.7827   78.0278  223.6216 H   0  0  0  0  0  0  0  0  0  0  0  0
  142.1526   77.1351  222.9258 H   0  0  0  0  0  0  0  0  0  0  0  0
  141.7165   79.9672  222.7937 H   0  0  0  0  0  0  0  0  0  0  0  0
  142.9406   79.1180  221.8964 H   0  0  0  0  0  0  0  0  0  0  0  0
  141.3145   79.9882  220.0978 H   0  0  0  0  0  0  0  0  0  0  0  0
  140.3488   77.7692  219.4789 H   0  0  0  0  0  0  0  0  0  0  0  0
  142.3516   77.2290  219.0001 H   0  0  0  0  0  0  0  0  0  0  0  0
  142.9687   77.6437  220.6916 H   0  0  0  0  0  0  0  0  0  0  0  0
  141.4783   73.2806  220.7646 H   0  0  0  0  0  0  0  0  0  0  0  0
  142.9805   71.3626  220.9289 H   0  0  0  0  0  0  0  0  0  0  0  0
  145.4301   71.7323  220.7546 H   0  0  0  0  0  0  0  0  0  0  0  0
  146.3278   74.0088  220.4231 H   0  0  0  0  0  0  0  0  0  0  0  0
  144.7993   75.9179  220.2655 H   0  0  0  0  0  0  0  0  0  0  0  0
  139.0433   70.0828  221.8406 H   0  0  0  0  0  0  0  0  0  0  0  0
  139.2326   68.3963  223.6653 H   0  0  0  0  0  0  0  0  0  0  0  0
  139.8898   67.9120  226.0045 H   0  0  0  0  0  0  0  0  0  0  0  0
  141.4838   71.0441  228.4498 H   0  0  0  0  0  0  0  0  0  0  0  0
  141.2522   72.6434  226.5724 H   0  0  0  0  0  0  0  0  0  0  0  0
  1  2  2  0
  2  3  1  0
  3  4  1  0
  4  5  1  0
  5  6  2  0
  5  7  1  0
  7  8  1  0
  8  9  1  0
  9 10  1  0
 10 11  1  0
 10 12  1  0
 12 13  1  0
 13 14  1  0
 14 15  1  0
 15 16  2  0
 16 17  1  0
 17 18  2  0
 18 19  1  0
 19 20  2  0
  2 21  1  0
 21 22  2  0
 22 23  1  0
 23 24  2  0
 24 25  1  0
 25 26  2  0
 26 27  1  0
 26 28  1  0
 28 29  2  0
 29 30  1  0
 30 31  2  0
 12  7  1  0
 20 15  1  0
 31 21  1  0
 30 24  1  0
  3 32  1  0
  4 33  1  0
  4 34  1  0
  8 35  1  0
  8 36  1  0
  9 37  1  0
  9 38  1  0
 10 39  1  6
 12 40  1  6
 13 41  1  0
 13 42  1  0
 16 43  1  0
 17 44  1  0
 18 45  1  0
 19 46  1  0
 20 47  1  0
 22 48  1  0
 23 49  1  0
 25 50  1  0
 28 51  1  0
 29 52  1  0
M  END
>  <smiles>  (21) 
O=C(NCC(=O)N1CC[C@H](F)[C@H]1COc1ccccc1)c1ccc2cc(Cl)ccc2n1

>  <score_type>  (21) 
oracle

>  <origin>  (21) 
autodockgpu

>  <m_score__min__energy>  (21) 
-8.2599999999999998

>  <m_primary>  (21) 
energy

>  <rmsd>  (21) 
2.8047868627846793

>  <m_score__min__rmsd>  (21) 
2.8047868627846793

>  <meeko>  (21) 
{"free_energy": -8.16, "intermolecular_energy": -10.25, "internal_energy": -2.17, "cluster_size": 14, "cluster_id": 2, "rank_in_cluster": 2}

>  <energy>  (21) 
-7.74

>  <cluster_rmsd>  (21) 
0.58

>  <cluster>  (21) 
2

$$$$

     RDKit          3D

 52 55  0  0  0  0  0  0  0  0999 V2000
  133.8000   70.0790  226.5380 O   0  0  0  0  0  0  0  0  0  0  0  0
  134.0540   71.2250  226.0820 C   0  0  0  0  0  0  0  0  0  0  0  0
  135.0340   71.4180  225.0610 N   0  0  0  0  0  0  0  0  0  0  0  0
  135.7500   70.2670  224.5430 C   0  0  0  0  0  0  0  0  0  0  0  0
  136.6710   70.7340  223.4930 C   0  0  0  0  0  0  0  0  0  0  0  0
  136.5220   71.8360  222.9090 O   0  0  0  0  0  0  0  0  0  0  0  0
  137.7550   69.9310  223.1240 N   0  0  0  0  0  0  0  0  0  0  0  0
  139.0190   70.2880  222.4720 C   0  0  0  0  0  0  0  0  0  0  0  0
  139.5280   69.0330  221.7830 C   0  0  0  0  0  0  0  0  0  0  0  0
  138.3320   68.1040  221.9360 C   0  0  2  0  0  0  0  0  0  0  0  0
  137.3610   68.6700  221.0730 F   0  0  0  0  0  0  0  0  0  0  0  0
  137.8910   68.4550  223.3120 C   0  0  1  0  0  0  0  0  0  0  0  0
  138.8530   68.2620  224.4330 C   0  0  0  0  0  0  0  0  0  0  0  0
  138.8520   69.2000  225.3730 O   0  0  0  0  0  0  0  0  0  0  0  0
  139.5440   69.9720  226.1980 C   0  0  0  0  0  0  0  0  0  0  0  0
  139.6080   69.9370  227.5720 C   0  0  0  0  0  0  0  0  0  0  0  0
  140.3510   70.7850  228.3450 C   0  0  0  0  0  0  0  0  0  0  0  0
  141.0960   71.7480  227.7090 C   0  0  0  0  0  0  0  0  0  0  0  0
  141.0900   71.8510  226.3410 C   0  0  0  0  0  0  0  0  0  0  0  0
  140.3330   70.9860  225.6020 C   0  0  0  0  0  0  0  0  0  0  0  0
  133.3530   72.4040  226.5800 C   0  0  0  0  0  0  0  0  0  0  0  0
  132.1390   72.2580  227.2240 C   0  0  0  0  0  0  0  0  0  0  0  0
  131.4440   73.3580  227.7110 C   0  0  0  0  0  0  0  0  0  0  0  0
  131.9920   74.6100  227.5380 C   0  0  0  0  0  0  0  0  0  0  0  0
  131.3730   75.7670  227.9890 C   0  0  0  0  0  0  0  0  0  0  0  0
  131.9420   77.0060  227.8040 C   0  0  0  0  0  0  0  0  0  0  0  0
  131.1720   78.4670  228.3680 Cl  0  0  0  0  0  0  0  0  0  0  0  0
  133.1570   77.1060  227.1540 C   0  0  0  0  0  0  0  0  0  0  0  0
  133.7970   75.9800  226.6940 C   0  0  0  0  0  0  0  0  0  0  0  0
  133.2100   74.7430  226.8900 C   0  0  0  0  0  0  0  0  0  0  0  0
  133.8420   73.6470  226.4380 N   0  0  0  0  0  0  0  0  0  0  0  0
  135.2160   72.3990  224.7040 H   0  0  0  0  0  0  0  0  0  0  0  0
  136.3201   69.7876  225.3524 H   0  0  0  0  0  0  0  0  0  0  0  0
  135.0425   69.5331  224.1297 H   0  0  0  0  0  0  0  0  0  0  0  0
  138.8516   71.0846  221.7322 H   0  0  0  0  0  0  0  0  0  0  0  0
  139.7499   70.6595  223.2053 H   0  0  0  0  0  0  0  0  0  0  0  0
  139.7596   69.2205  220.7241 H   0  0  0  0  0  0  0  0  0  0  0  0
  140.4639   68.6360  222.2032 H   0  0  0  0  0  0  0  0  0  0  0  0
  138.5006   67.0329  221.7504 H   0  0  0  0  0  0  0  0  0  0  0  0
  137.0366   67.8305  223.6118 H   0  0  0  0  0  0  0  0  0  0  0  0
  138.6176   67.3022  224.9161 H   0  0  0  0  0  0  0  0  0  0  0  0
  139.8522   68.3046  223.9749 H   0  0  0  0  0  0  0  0  0  0  0  0
  139.0156   69.1673  228.0883 H   0  0  0  0  0  0  0  0  0  0  0  0
  140.3522   70.6989  229.4416 H   0  0  0  0  0  0  0  0  0  0  0  0
  141.7047   72.4450  228.3037 H   0  0  0  0  0  0  0  0  0  0  0  0
  141.6910   72.6254  225.8419 H   0  0  0  0  0  0  0  0  0  0  0  0
  140.3365   71.0805  224.5061 H   0  0  0  0  0  0  0  0  0  0  0  0
  131.7148   71.2514  227.3535 H   0  0  0  0  0  0  0  0  0  0  0  0
  130.4785   73.2321  228.2229 H   0  0  0  0  0  0  0  0  0  0  0  0
  130.4051   75.6920  228.5063 H   0  0  0  0  0  0  0  0  0  0  0  0
  133.6157   78.0944  227.0035 H   0  0  0  0  0  0  0  0  0  0  0  0
  134.7641   76.0616  226.1763 H   0  0  0  0  0  0  0  0  0  0  0  0
  1  2  2  0
  2  3  1  0
  3  4  1  0
  4  5  1  0
  5  6  2  0
  5  7  1  0
  7  8  1  0
  8  9  1  0
  9 10  1  0
 10 11  1  0
 10 12  1  0
 12 13  1  0
 13 14  1  0
 14 15  1  0
 15 16  2  0
 16 17  1  0
 17 18  2  0
 18 19  1  0
 19 20  2  0
  2 21  1  0
 21 22  2  0
 22 23  1  0
 23 24  2  0
 24 25  1  0
 25 26  2  0
 26 27  1  0
 26 28  1  0
 28 29  2  0
 29 30  1  0
 30 31  2  0
 12  7  1  0
 20 15  1  0
 31 21  1  0
 30 24  1  0
  3 32  1  0
  4 33  1  0
  4 34  1  0
  8 35  1  0
  8 36  1  0
  9 37  1  0
  9 38  1  0
 10 39  1  1
 12 40  1  1
 13 41  1  0
 13 42  1  0
 16 43  1  0
 17 44  1  0
 18 45  1  0
 19 46  1  0
 20 47  1  0
 22 48  1  0
 23 49  1  0
 25 50  1  0
 28 51  1  0
 29 52  1  0
M  END
>  <smiles>  (22) 
O=C(NCC(=O)N1CC[C@H](F)[C@H]1COc1ccccc1)c1ccc2cc(Cl)ccc2n1

>  <score_type>  (22) 
oracle

>  <origin>  (22) 
autodockgpu

>  <m_score__min__energy>  (22) 
-8.2599999999999998

>  <m_primary>  (22) 
energy

>  <rmsd>  (22) 
8.552391007881871

>  <m_score__min__rmsd>  (22) 
8.552391007881871

>  <meeko>  (22) 
{"free_energy": -7.67, "intermolecular_energy": -9.76, "internal_energy": -2.26, "cluster_size": 5, "cluster_id": 5, "rank_in_cluster": 1}

>  <energy>  (22) 
-7.71

>  <cluster_rmsd>  (22) 
0.57

>  <cluster>  (22) 
2

$$$$

     RDKit          3D

 52 55  0  0  0  0  0  0  0  0999 V2000
  136.5010   71.6330  221.4330 O   0  0  0  0  0  0  0  0  0  0  0  0
  137.4210   72.0290  222.1970 C   0  0  0  0  0  0  0  0  0  0  0  0
  138.0160   73.3180  222.0380 N   0  0  0  0  0  0  0  0  0  0  0  0
  137.5490   74.1840  220.9730 C   0  0  0  0  0  0  0  0  0  0  0  0
  137.2560   75.5060  221.5520 C   0  0  0  0  0  0  0  0  0  0  0  0
  136.0850   75.8850  221.8060 O   0  0  0  0  0  0  0  0  0  0  0  0
  138.3110   76.3800  221.8340 N   0  0  0  0  0  0  0  0  0  0  0  0
  138.4290   77.4200  222.8630 C   0  0  0  0  0  0  0  0  0  0  0  0
  139.4530   78.4220  222.3580 C   0  0  0  0  0  0  0  0  0  0  0  0
  139.6570   77.9430  220.9270 C   0  0  2  0  0  0  0  0  0  0  0  0
  138.4330   78.2670  220.2930 F   0  0  0  0  0  0  0  0  0  0  0  0
  139.6240   76.4700  221.1270 C   0  0  1  0  0  0  0  0  0  0  0  0
  140.6320   75.8570  222.0350 C   0  0  0  0  0  0  0  0  0  0  0  0
  140.7090   74.5320  222.0150 O   0  0  0  0  0  0  0  0  0  0  0  0
  141.2200   73.4390  221.4660 C   0  0  0  0  0  0  0  0  0  0  0  0
  140.7240   72.1570  221.4590 C   0  0  0  0  0  0  0  0  0  0  0  0
  141.3290   71.0830  220.8680 C   0  0  0  0  0  0  0  0  0  0  0  0
  142.5260   71.2930  220.2270 C   0  0  0  0  0  0  0  0  0  0  0  0
  143.0910   72.5430  220.1850 C   0  0  0  0  0  0  0  0  0  0  0  0
  142.4560   73.5910  220.7900 C   0  0  0  0  0  0  0  0  0  0  0  0
  137.9150   71.1820  223.2790 C   0  0  0  0  0  0  0  0  0  0  0  0
  137.2680   69.9980  223.5720 C   0  0  0  0  0  0  0  0  0  0  0  0
  137.7100   69.1670  224.5940 C   0  0  0  0  0  0  0  0  0  0  0  0
  138.8180   69.5500  225.3180 C   0  0  0  0  0  0  0  0  0  0  0  0
  139.3340   68.7890  226.3560 C   0  0  0  0  0  0  0  0  0  0  0  0
  140.4430   69.1940  227.0630 C   0  0  0  0  0  0  0  0  0  0  0  0
  141.1000   68.2430  228.3710 Cl  0  0  0  0  0  0  0  0  0  0  0  0
  141.0590   70.3860  226.7360 C   0  0  0  0  0  0  0  0  0  0  0  0
  140.5740   71.1650  225.7140 C   0  0  0  0  0  0  0  0  0  0  0  0
  139.4590   70.7420  225.0130 C   0  0  0  0  0  0  0  0  0  0  0  0
  138.9900   71.5090  224.0150 N   0  0  0  0  0  0  0  0  0  0  0  0
  138.7870   73.6120  222.7030 H   0  0  0  0  0  0  0  0  0  0  0  0
  138.3275   74.2792  220.2017 H   0  0  0  0  0  0  0  0  0  0  0  0
  136.6449   73.7629  220.5089 H   0  0  0  0  0  0  0  0  0  0  0  0
  137.4582   77.9144  223.0149 H   0  0  0  0  0  0  0  0  0  0  0  0
  138.7397   76.9891  223.8262 H   0  0  0  0  0  0  0  0  0  0  0  0
  139.0600   79.4490  222.3869 H   0  0  0  0  0  0  0  0  0  0  0  0
  140.3757   78.4637  222.9554 H   0  0  0  0  0  0  0  0  0  0  0  0
  140.5352   78.3279  220.3879 H   0  0  0  0  0  0  0  0  0  0  0  0
  139.8042   75.9494  220.1749 H   0  0  0  0  0  0  0  0  0  0  0  0
  141.6194   76.2549  221.7579 H   0  0  0  0  0  0  0  0  0  0  0  0
  140.3085   76.1180  223.0534 H   0  0  0  0  0  0  0  0  0  0  0  0
  139.7652   71.9816  221.9689 H   0  0  0  0  0  0  0  0  0  0  0  0
  140.8722   70.0830  220.9044 H   0  0  0  0  0  0  0  0  0  0  0  0
  143.0377   70.4489  219.7416 H   0  0  0  0  0  0  0  0  0  0  0  0
  144.0489   72.7003  219.6676 H   0  0  0  0  0  0  0  0  0  0  0  0
  142.9206   74.5873  220.7508 H   0  0  0  0  0  0  0  0  0  0  0  0
  136.3848   69.7068  222.9845 H   0  0  0  0  0  0  0  0  0  0  0  0
  137.1878   68.2256  224.8198 H   0  0  0  0  0  0  0  0  0  0  0  0
  138.8455   67.8395  226.6204 H   0  0  0  0  0  0  0  0  0  0  0  0
  141.9454   70.7143  227.2986 H   0  0  0  0  0  0  0  0  0  0  0  0
  141.0665   72.1142  225.4560 H   0  0  0  0  0  0  0  0  0  0  0  0
  1  2  2  0
  2  3  1  0
  3  4  1  0
  4  5  1  0
  5  6  2  0
  5  7  1  0
  7  8  1  0
  8  9  1  0
  9 10  1  0
 10 11  1  0
 10 12  1  0
 12 13  1  0
 13 14  1  0
 14 15  1  0
 15 16  2  0
 16 17  1  0
 17 18  2  0
 18 19  1  0
 19 20  2  0
  2 21  1  0
 21 22  2  0
 22 23  1  0
 23 24  2  0
 24 25  1  0
 25 26  2  0
 26 27  1  0
 26 28  1  0
 28 29  2  0
 29 30  1  0
 30 31  2  0
 12  7  1  0
 20 15  1  0
 31 21  1  0
 30 24  1  0
  3 32  1  0
  4 33  1  0
  4 34  1  0
  8 35  1  0
  8 36  1  0
  9 37  1  0
  9 38  1  0
 10 39  1  6
 12 40  1  6
 13 41  1  0
 13 42  1  0
 16 43  1  0
 17 44  1  0
 18 45  1  0
 19 46  1  0
 20 47  1  0
 22 48  1  0
 23 49  1  0
 25 50  1  0
 28 51  1  0
 29 52  1  0
M  END
>  <smiles>  (23) 
O=C(NCC(=O)N1CC[C@H](F)[C@H]1COc1ccccc1)c1ccc2cc(Cl)ccc2n1

>  <score_type>  (23) 
oracle

>  <origin>  (23) 
autodockgpu

>  <m_score__min__energy>  (23) 
-8.2599999999999998

>  <m_primary>  (23) 
energy

>  <rmsd>  (23) 
2.9522587945054037

>  <m_score__min__rmsd>  (23) 
2.9522587945054037

>  <meeko>  (23) 
{"free_energy": -6.43, "intermolecular_energy": -8.51, "internal_energy": -2.95, "cluster_size": 1, "cluster_id": 7, "rank_in_cluster": 1}

>  <energy>  (23) 
-7.7

>  <cluster_rmsd>  (23) 
1.1

>  <cluster>  (23) 
2

$$$$

     RDKit          3D

 52 55  0  0  0  0  0  0  0  0999 V2000
  140.5720   72.5550  220.7580 O   0  0  0  0  0  0  0  0  0  0  0  0
  140.0940   72.8530  221.8840 C   0  0  0  0  0  0  0  0  0  0  0  0
  139.5370   74.1450  222.1380 N   0  0  0  0  0  0  0  0  0  0  0  0
  139.5250   75.1290  221.0720 C   0  0  0  0  0  0  0  0  0  0  0  0
  138.9400   76.3710  221.6020 C   0  0  0  0  0  0  0  0  0  0  0  0
  138.4630   76.4490  222.7620 O   0  0  0  0  0  0  0  0  0  0  0  0
  138.9070   77.5140  220.7950 N   0  0  0  0  0  0  0  0  0  0  0  0
  138.4120   78.8630  221.0860 C   0  0  0  0  0  0  0  0  0  0  0  0
  138.0600   79.4990  219.7510 C   0  0  0  0  0  0  0  0  0  0  0  0
  138.1880   78.3070  218.8130 C   0  0  2  0  0  0  0  0  0  0  0  0
  137.0890   77.4870  219.1680 F   0  0  0  0  0  0  0  0  0  0  0  0
  139.3850   77.6380  219.3850 C   0  0  1  0  0  0  0  0  0  0  0  0
  140.6630   78.4010  219.4430 C   0  0  0  0  0  0  0  0  0  0  0  0
  141.3380   78.3270  220.5830 O   0  0  0  0  0  0  0  0  0  0  0  0
  141.6330   78.8660  221.7570 C   0  0  0  0  0  0  0  0  0  0  0  0
  141.4660   78.3450  223.0190 C   0  0  0  0  0  0  0  0  0  0  0  0
  141.7970   78.9820  224.1820 C   0  0  0  0  0  0  0  0  0  0  0  0
  142.3410   80.2400  224.0930 C   0  0  0  0  0  0  0  0  0  0  0  0
  142.5430   80.8340  222.8730 C   0  0  0  0  0  0  0  0  0  0  0  0
  142.1980   80.1650  221.7320 C   0  0  0  0  0  0  0  0  0  0  0  0
  140.0900   71.8870  222.9790 C   0  0  0  0  0  0  0  0  0  0  0  0
  139.5860   70.6180  222.7690 C   0  0  0  0  0  0  0  0  0  0  0  0
  139.5660   69.6720  223.7870 C   0  0  0  0  0  0  0  0  0  0  0  0
  140.0630   70.0270  225.0220 C   0  0  0  0  0  0  0  0  0  0  0  0
  140.0850   69.1540  226.0990 C   0  0  0  0  0  0  0  0  0  0  0  0
  140.5870   69.5330  227.3230 C   0  0  0  0  0  0  0  0  0  0  0  0
  140.6200   68.4410  228.6840 Cl  0  0  0  0  0  0  0  0  0  0  0  0
  141.0810   70.8120  227.4880 C   0  0  0  0  0  0  0  0  0  0  0  0
  141.0730   71.7030  226.4420 C   0  0  0  0  0  0  0  0  0  0  0  0
  140.5650   71.3050  225.2190 C   0  0  0  0  0  0  0  0  0  0  0  0
  140.5610   72.1810  224.2010 N   0  0  0  0  0  0  0  0  0  0  0  0
  139.1440   74.3540  223.0990 H   0  0  0  0  0  0  0  0  0  0  0  0
  140.5525   75.3182  220.7278 H   0  0  0  0  0  0  0  0  0  0  0  0
  138.9323   74.7616  220.2213 H   0  0  0  0  0  0  0  0  0  0  0  0
  137.5195   78.8089  221.7267 H   0  0  0  0  0  0  0  0  0  0  0  0
  139.1709   79.4558  221.6178 H   0  0  0  0  0  0  0  0  0  0  0  0
  137.0364   79.9018  219.7537 H   0  0  0  0  0  0  0  0  0  0  0  0
  138.6919   80.3574  219.4792 H   0  0  0  0  0  0  0  0  0  0  0  0
  138.2348   78.5190  217.7346 H   0  0  0  0  0  0  0  0  0  0  0  0
  139.6535   76.7557  218.7854 H   0  0  0  0  0  0  0  0  0  0  0  0
  141.3155   78.0243  218.6415 H   0  0  0  0  0  0  0  0  0  0  0  0
  140.3797   79.4586  219.3366 H   0  0  0  0  0  0  0  0  0  0  0  0
  141.0323   77.3372  223.0984 H   0  0  0  0  0  0  0  0  0  0  0  0
  141.6329   78.5024  225.1583 H   0  0  0  0  0  0  0  0  0  0  0  0
  142.6182   80.7780  225.0115 H   0  0  0  0  0  0  0  0  0  0  0  0
  142.9797   81.8419  222.8134 H   0  0  0  0  0  0  0  0  0  0  0  0
  142.3649   80.6524  220.7601 H   0  0  0  0  0  0  0  0  0  0  0  0
  139.1929   70.3511  221.7769 H   0  0  0  0  0  0  0  0  0  0  0  0
  139.1629   68.6638  223.6109 H   0  0  0  0  0  0  0  0  0  0  0  0
  139.6920   68.1345  225.9721 H   0  0  0  0  0  0  0  0  0  0  0  0
  141.4839   71.1198  228.4642 H   0  0  0  0  0  0  0  0  0  0  0  0
  141.4663   72.7215  226.5760 H   0  0  0  0  0  0  0  0  0  0  0  0
  1  2  2  0
  2  3  1  0
  3  4  1  0
  4  5  1  0
  5  6  2  0
  5  7  1  0
  7  8  1  0
  8  9  1  0
  9 10  1  0
 10 11  1  0
 10 12  1  0
 12 13  1  0
 13 14  1  0
 14 15  1  0
 15 16  2  0
 16 17  1  0
 17 18  2  0
 18 19  1  0
 19 20  2  0
  2 21  1  0
 21 22  2  0
 22 23  1  0
 23 24  2  0
 24 25  1  0
 25 26  2  0
 26 27  1  0
 26 28  1  0
 28 29  2  0
 29 30  1  0
 30 31  2  0
 12  7  1  0
 20 15  1  0
 31 21  1  0
 30 24  1  0
  3 32  1  0
  4 33  1  0
  4 34  1  0
  8 35  1  0
  8 36  1  0
  9 37  1  0
  9 38  1  0
 10 39  1  6
 12 40  1  6
 13 41  1  0
 13 42  1  0
 16 43  1  0
 17 44  1  0
 18 45  1  0
 19 46  1  0
 20 47  1  0
 22 48  1  0
 23 49  1  0
 25 50  1  0
 28 51  1  0
 29 52  1  0
M  END
>  <smiles>  (24) 
O=C(NCC(=O)N1CC[C@H](F)[C@H]1COc1ccccc1)c1ccc2cc(Cl)ccc2n1

>  <score_type>  (24) 
oracle

>  <origin>  (24) 
autodockgpu

>  <m_score__min__energy>  (24) 
-8.2599999999999998

>  <m_primary>  (24) 
energy

>  <rmsd>  (24) 
2.587408458319648

>  <m_score__min__rmsd>  (24) 
2.587408458319648

>  <meeko>  (24) 
{"free_energy": -7.76, "intermolecular_energy": -9.84, "internal_energy": -2.25, "cluster_size": 14, "cluster_id": 1, "rank_in_cluster": 9}

>  <energy>  (24) 
-7.62

>  <cluster_rmsd>  (24) 
1.27

>  <cluster>  (24) 
2

$$$$

     RDKit          3D

 52 55  0  0  0  0  0  0  0  0999 V2000
  140.5640   72.6620  220.7040 O   0  0  0  0  0  0  0  0  0  0  0  0
  139.9720   73.5530  221.3680 C   0  0  0  0  0  0  0  0  0  0  0  0
  138.8090   73.2530  222.1430 N   0  0  0  0  0  0  0  0  0  0  0  0
  138.3060   71.8930  222.1620 C   0  0  0  0  0  0  0  0  0  0  0  0
  137.1350   71.8490  223.0530 C   0  0  0  0  0  0  0  0  0  0  0  0
  136.5700   72.8910  223.4720 O   0  0  0  0  0  0  0  0  0  0  0  0
  136.6230   70.6110  223.4550 N   0  0  0  0  0  0  0  0  0  0  0  0
  135.9310   69.5770  222.6790 C   0  0  0  0  0  0  0  0  0  0  0  0
  135.0940   68.7770  223.6630 C   0  0  0  0  0  0  0  0  0  0  0  0
  135.2300   69.6200  224.9230 C   0  0  2  0  0  0  0  0  0  0  0  0
  134.4880   70.7870  224.6210 F   0  0  0  0  0  0  0  0  0  0  0  0
  136.6590   70.0210  224.8270 C   0  0  1  0  0  0  0  0  0  0  0  0
  137.6940   68.9500  224.7960 C   0  0  0  0  0  0  0  0  0  0  0  0
  138.8900   69.2790  225.2680 O   0  0  0  0  0  0  0  0  0  0  0  0
  139.6240   70.0880  226.0190 C   0  0  0  0  0  0  0  0  0  0  0  0
  140.4100   71.1500  225.6390 C   0  0  0  0  0  0  0  0  0  0  0  0
  141.1420   71.9300  226.4910 C   0  0  0  0  0  0  0  0  0  0  0  0
  141.0930   71.6370  227.8320 C   0  0  0  0  0  0  0  0  0  0  0  0
  140.3320   70.5940  228.2960 C   0  0  0  0  0  0  0  0  0  0  0  0
  139.6150   69.8370  227.4130 C   0  0  0  0  0  0  0  0  0  0  0  0
  140.4510   74.9310  221.3720 C   0  0  0  0  0  0  0  0  0  0  0  0
  141.4650   75.3060  220.5100 C   0  0  0  0  0  0  0  0  0  0  0  0
  141.9460   76.6090  220.4860 C   0  0  0  0  0  0  0  0  0  0  0  0
  141.3890   77.5310  221.3460 C   0  0  0  0  0  0  0  0  0  0  0  0
  141.8030   78.8540  221.3950 C   0  0  0  0  0  0  0  0  0  0  0  0
  141.2300   79.7550  222.2630 C   0  0  0  0  0  0  0  0  0  0  0  0
  141.7430   81.4210  222.3320 Cl  0  0  0  0  0  0  0  0  0  0  0  0
  140.2190   79.3370  223.1070 C   0  0  0  0  0  0  0  0  0  0  0  0
  139.7860   78.0330  223.0850 C   0  0  0  0  0  0  0  0  0  0  0  0
  140.3730   77.1410  222.2050 C   0  0  0  0  0  0  0  0  0  0  0  0
  139.9440   75.8690  222.1890 N   0  0  0  0  0  0  0  0  0  0  0  0
  138.3420   74.0320  222.6880 H   0  0  0  0  0  0  0  0  0  0  0  0
  138.0127   71.5901  221.1460 H   0  0  0  0  0  0  0  0  0  0  0  0
  139.0844   71.2046  222.5227 H   0  0  0  0  0  0  0  0  0  0  0  0
  135.2833   70.0420  221.9212 H   0  0  0  0  0  0  0  0  0  0  0  0
  136.6493   68.9301  222.1542 H   0  0  0  0  0  0  0  0  0  0  0  0
  134.0459   68.7068  223.3365 H   0  0  0  0  0  0  0  0  0  0  0  0
  135.4154   67.7319  223.7829 H   0  0  0  0  0  0  0  0  0  0  0  0
  134.9313   69.1553  225.8742 H   0  0  0  0  0  0  0  0  0  0  0  0
  136.9501   70.6167  225.7047 H   0  0  0  0  0  0  0  0  0  0  0  0
  137.3195   68.1036  225.3904 H   0  0  0  0  0  0  0  0  0  0  0  0
  137.8497   68.7208  223.7315 H   0  0  0  0  0  0  0  0  0  0  0  0
  140.4535   71.3910  224.5666 H   0  0  0  0  0  0  0  0  0  0  0  0
  141.7506   72.7654  226.1144 H   0  0  0  0  0  0  0  0  0  0  0  0
  141.6710   72.2460  228.5426 H   0  0  0  0  0  0  0  0  0  0  0  0
  140.2993   70.3686  229.3722 H   0  0  0  0  0  0  0  0  0  0  0  0
  139.0095   69.0033  227.7982 H   0  0  0  0  0  0  0  0  0  0  0  0
  141.8992   74.5581  219.8301 H   0  0  0  0  0  0  0  0  0  0  0  0
  142.7528   76.8983  219.7965 H   0  0  0  0  0  0  0  0  0  0  0  0
  142.6077   79.1906  220.7247 H   0  0  0  0  0  0  0  0  0  0  0  0
  139.7571   80.0537  223.8020 H   0  0  0  0  0  0  0  0  0  0  0  0
  138.9822   77.7022  223.7591 H   0  0  0  0  0  0  0  0  0  0  0  0
  1  2  2  0
  2  3  1  0
  3  4  1  0
  4  5  1  0
  5  6  2  0
  5  7  1  0
  7  8  1  0
  8  9  1  0
  9 10  1  0
 10 11  1  0
 10 12  1  0
 12 13  1  0
 13 14  1  0
 14 15  1  0
 15 16  2  0
 16 17  1  0
 17 18  2  0
 18 19  1  0
 19 20  2  0
  2 21  1  0
 21 22  2  0
 22 23  1  0
 23 24  2  0
 24 25  1  0
 25 26  2  0
 26 27  1  0
 26 28  1  0
 28 29  2  0
 29 30  1  0
 30 31  2  0
 12  7  1  0
 20 15  1  0
 31 21  1  0
 30 24  1  0
  3 32  1  0
  4 33  1  0
  4 34  1  0
  8 35  1  0
  8 36  1  0
  9 37  1  0
  9 38  1  0
 10 39  1  1
 12 40  1  1
 13 41  1  0
 13 42  1  0
 16 43  1  0
 17 44  1  0
 18 45  1  0
 19 46  1  0
 20 47  1  0
 22 48  1  0
 23 49  1  0
 25 50  1  0
 28 51  1  0
 29 52  1  0
M  END
>  <smiles>  (25) 
O=C(NCC(=O)N1CC[C@H](F)[C@H]1COc1ccccc1)c1ccc2cc(Cl)ccc2n1

>  <score_type>  (25) 
oracle

>  <origin>  (25) 
autodockgpu

>  <m_score__min__energy>  (25) 
-8.2599999999999998

>  <m_primary>  (25) 
energy

>  <rmsd>  (25) 
8.28296572613031

>  <m_score__min__rmsd>  (25) 
8.28296572613031

>  <meeko>  (25) 
{"free_energy": -7.27, "intermolecular_energy": -9.36, "internal_energy": -2.24, "cluster_size": 6, "cluster_id": 4, "rank_in_cluster": 5}

>  <energy>  (25) 
-7.53

>  <cluster_rmsd>  (25) 
0.66

>  <cluster>  (25) 
2

$$$$

     RDKit          3D

 52 55  0  0  0  0  0  0  0  0999 V2000
  139.7980   72.0420  220.5900 O   0  0  0  0  0  0  0  0  0  0  0  0
  139.7390   72.4780  221.7700 C   0  0  0  0  0  0  0  0  0  0  0  0
  139.6050   73.8740  222.0420 N   0  0  0  0  0  0  0  0  0  0  0  0
  139.5370   74.8050  220.9320 C   0  0  0  0  0  0  0  0  0  0  0  0
  140.9060   75.2450  220.6170 C   0  0  0  0  0  0  0  0  0  0  0  0
  141.8910   74.9470  221.3390 O   0  0  0  0  0  0  0  0  0  0  0  0
  141.1320   76.0230  219.4760 N   0  0  0  0  0  0  0  0  0  0  0  0
  140.3010   76.2180  218.2840 C   0  0  0  0  0  0  0  0  0  0  0  0
  141.2360   76.6290  217.1590 C   0  0  0  0  0  0  0  0  0  0  0  0
  142.5950   76.3980  217.8040 C   0  0  2  0  0  0  0  0  0  0  0  0
  142.6800   74.9870  217.9000 F   0  0  0  0  0  0  0  0  0  0  0  0
  142.3250   76.8740  219.1860 C   0  0  1  0  0  0  0  0  0  0  0  0
  141.8870   78.2860  219.3730 C   0  0  0  0  0  0  0  0  0  0  0  0
  141.4260   78.6000  220.5790 O   0  0  0  0  0  0  0  0  0  0  0  0
  141.6700   79.0740  221.7910 C   0  0  0  0  0  0  0  0  0  0  0  0
  141.4490   78.4860  223.0150 C   0  0  0  0  0  0  0  0  0  0  0  0
  141.7290   79.0590  224.2240 C   0  0  0  0  0  0  0  0  0  0  0  0
  142.2760   80.3190  224.2270 C   0  0  0  0  0  0  0  0  0  0  0  0
  142.5310   80.9770  223.0500 C   0  0  0  0  0  0  0  0  0  0  0  0
  142.2360   80.3710  221.8610 C   0  0  0  0  0  0  0  0  0  0  0  0
  139.8050   71.5690  222.9110 C   0  0  0  0  0  0  0  0  0  0  0  0
  139.2920   70.2910  222.7980 C   0  0  0  0  0  0  0  0  0  0  0  0
  139.3380   69.3990  223.8620 C   0  0  0  0  0  0  0  0  0  0  0  0
  139.9090   69.8160  225.0440 C   0  0  0  0  0  0  0  0  0  0  0  0
  140.0010   68.9990  226.1610 C   0  0  0  0  0  0  0  0  0  0  0  0
  140.5770   69.4400  227.3310 C   0  0  0  0  0  0  0  0  0  0  0  0
  140.6960   68.4190  228.7410 Cl  0  0  0  0  0  0  0  0  0  0  0  0
  141.0760   70.7260  227.3990 C   0  0  0  0  0  0  0  0  0  0  0  0
  141.0010   71.5620  226.3110 C   0  0  0  0  0  0  0  0  0  0  0  0
  140.4200   71.1020  225.1440 C   0  0  0  0  0  0  0  0  0  0  0  0
  140.3500   71.9250  224.0850 N   0  0  0  0  0  0  0  0  0  0  0  0
  139.5590   74.1980  223.0500 H   0  0  0  0  0  0  0  0  0  0  0  0
  139.0945   74.3084  220.0559 H   0  0  0  0  0  0  0  0  0  0  0  0
  138.9116   75.6697  221.1988 H   0  0  0  0  0  0  0  0  0  0  0  0
  139.7853   75.2816  218.0247 H   0  0  0  0  0  0  0  0  0  0  0  0
  139.5334   76.9861  218.4595 H   0  0  0  0  0  0  0  0  0  0  0  0
  141.0991   75.9961  216.2697 H   0  0  0  0  0  0  0  0  0  0  0  0
  141.0785   77.6544  216.7933 H   0  0  0  0  0  0  0  0  0  0  0  0
  143.4684   76.8490  217.3102 H   0  0  0  0  0  0  0  0  0  0  0  0
  143.2377   76.8162  219.7973 H   0  0  0  0  0  0  0  0  0  0  0  0
  142.7492   78.9360  219.1630 H   0  0  0  0  0  0  0  0  0  0  0  0
  141.0387   78.4257  218.6867 H   0  0  0  0  0  0  0  0  0  0  0  0
  141.0130   77.4761  223.0212 H   0  0  0  0  0  0  0  0  0  0  0  0
  141.5228   78.5278  225.1649 H   0  0  0  0  0  0  0  0  0  0  0  0
  142.5125   80.8065  225.1843 H   0  0  0  0  0  0  0  0  0  0  0  0
  142.9700   81.9855  223.0634 H   0  0  0  0  0  0  0  0  0  0  0  0
  142.4455   80.9095  220.9249 H   0  0  0  0  0  0  0  0  0  0  0  0
  138.8385   69.9738  221.8473 H   0  0  0  0  0  0  0  0  0  0  0  0
  138.9279   68.3831  223.7628 H   0  0  0  0  0  0  0  0  0  0  0  0
  139.6043   67.9743  226.1108 H   0  0  0  0  0  0  0  0  0  0  0  0
  141.5371   71.0838  228.3314 H   0  0  0  0  0  0  0  0  0  0  0  0
  141.3989   72.5859  226.3680 H   0  0  0  0  0  0  0  0  0  0  0  0
  1  2  2  0
  2  3  1  0
  3  4  1  0
  4  5  1  0
  5  6  2  0
  5  7  1  0
  7  8  1  0
  8  9  1  0
  9 10  1  0
 10 11  1  0
 10 12  1  0
 12 13  1  0
 13 14  1  0
 14 15  1  0
 15 16  2  0
 16 17  1  0
 17 18  2  0
 18 19  1  0
 19 20  2  0
  2 21  1  0
 21 22  2  0
 22 23  1  0
 23 24  2  0
 24 25  1  0
 25 26  2  0
 26 27  1  0
 26 28  1  0
 28 29  2  0
 29 30  1  0
 30 31  2  0
 12  7  1  0
 20 15  1  0
 31 21  1  0
 30 24  1  0
  3 32  1  0
  4 33  1  0
  4 34  1  0
  8 35  1  0
  8 36  1  0
  9 37  1  0
  9 38  1  0
 10 39  1  6
 12 40  1  1
 13 41  1  0
 13 42  1  0
 16 43  1  0
 17 44  1  0
 18 45  1  0
 19 46  1  0
 20 47  1  0
 22 48  1  0
 23 49  1  0
 25 50  1  0
 28 51  1  0
 29 52  1  0
M  END
>  <smiles>  (26) 
O=C(NCC(=O)N1CC[C@H](F)[C@H]1COc1ccccc1)c1ccc2cc(Cl)ccc2n1

>  <score_type>  (26) 
oracle

>  <origin>  (26) 
autodockgpu

>  <m_score__min__energy>  (26) 
-8.2599999999999998

>  <m_primary>  (26) 
energy

>  <rmsd>  (26) 
1.5358494329867816

>  <m_score__min__rmsd>  (26) 
1.5358494329867816

>  <meeko>  (26) 
{"free_energy": -8.1, "intermolecular_energy": -10.18, "internal_energy": -1.68, "cluster_size": 14, "cluster_id": 1, "rank_in_cluster": 2}

>  <energy>  (26) 
-7.51

>  <cluster_rmsd>  (26) 
0.7

>  <cluster>  (26) 
2

$$$$

     RDKit          3D

 52 55  0  0  0  0  0  0  0  0999 V2000
  136.2730   75.5730  221.4340 O   0  0  0  0  0  0  0  0  0  0  0  0
  137.3230   75.1330  221.9700 C   0  0  0  0  0  0  0  0  0  0  0  0
  137.4490   73.7590  222.3440 N   0  0  0  0  0  0  0  0  0  0  0  0
  136.3400   72.8570  222.0970 C   0  0  0  0  0  0  0  0  0  0  0  0
  136.8730   71.6340  221.4770 C   0  0  0  0  0  0  0  0  0  0  0  0
  136.5350   71.2610  220.3250 O   0  0  0  0  0  0  0  0  0  0  0  0
  137.7890   70.8480  222.1840 N   0  0  0  0  0  0  0  0  0  0  0  0
  138.5510   69.6690  221.7590 C   0  0  0  0  0  0  0  0  0  0  0  0
  138.8910   68.8890  223.0170 C   0  0  0  0  0  0  0  0  0  0  0  0
  138.0550   69.6230  224.0570 C   0  0  2  0  0  0  0  0  0  0  0  0
  136.7250   69.2760  223.7160 F   0  0  0  0  0  0  0  0  0  0  0  0
  138.2280   71.0280  223.6010 C   0  0  1  0  0  0  0  0  0  0  0  0
  139.6080   71.5870  223.5430 C   0  0  0  0  0  0  0  0  0  0  0  0
  140.3150   71.5170  224.6650 O   0  0  0  0  0  0  0  0  0  0  0  0
  140.5430   70.9060  225.8190 C   0  0  0  0  0  0  0  0  0  0  0  0
  140.5650   69.5600  226.0990 C   0  0  0  0  0  0  0  0  0  0  0  0
  140.8060   69.0180  227.3310 C   0  0  0  0  0  0  0  0  0  0  0  0
  141.0470   69.8780  228.3750 C   0  0  0  0  0  0  0  0  0  0  0  0
  141.0460   71.2370  228.1810 C   0  0  0  0  0  0  0  0  0  0  0  0
  140.8000   71.7400  226.9350 C   0  0  0  0  0  0  0  0  0  0  0  0
  138.4580   76.0120  222.2330 C   0  0  0  0  0  0  0  0  0  0  0  0
  139.7420   75.5640  221.9910 C   0  0  0  0  0  0  0  0  0  0  0  0
  140.8460   76.3730  222.2290 C   0  0  0  0  0  0  0  0  0  0  0  0
  140.6350   77.6450  222.7150 C   0  0  0  0  0  0  0  0  0  0  0  0
  141.6720   78.5250  222.9840 C   0  0  0  0  0  0  0  0  0  0  0  0
  141.4350   79.7910  223.4690 C   0  0  0  0  0  0  0  0  0  0  0  0
  142.7330   80.9060  223.8100 Cl  0  0  0  0  0  0  0  0  0  0  0  0
  140.1350   80.1980  223.6970 C   0  0  0  0  0  0  0  0  0  0  0  0
  139.0830   79.3510  223.4420 C   0  0  0  0  0  0  0  0  0  0  0  0
  139.3410   78.0830  222.9540 C   0  0  0  0  0  0  0  0  0  0  0  0
  138.3080   77.2600  222.7070 N   0  0  0  0  0  0  0  0  0  0  0  0
  138.3500   73.4300  222.7920 H   0  0  0  0  0  0  0  0  0  0  0  0
  135.8440   72.6076  223.0466 H   0  0  0  0  0  0  0  0  0  0  0  0
  135.6045   73.3318  221.4309 H   0  0  0  0  0  0  0  0  0  0  0  0
  137.9442   69.0498  221.0820 H   0  0  0  0  0  0  0  0  0  0  0  0
  139.4628   69.9624  221.2181 H   0  0  0  0  0  0  0  0  0  0  0  0
  138.5911   67.8342  222.9304 H   0  0  0  0  0  0  0  0  0  0  0  0
  139.9659   68.8513  223.2474 H   0  0  0  0  0  0  0  0  0  0  0  0
  138.2905   69.4358  225.1151 H   0  0  0  0  0  0  0  0  0  0  0  0
  137.7110   71.7193  224.2828 H   0  0  0  0  0  0  0  0  0  0  0  0
  140.1594   71.0404  222.7638 H   0  0  0  0  0  0  0  0  0  0  0  0
  139.4832   72.6607  223.3393 H   0  0  0  0  0  0  0  0  0  0  0  0
  140.3740   68.8655  225.2676 H   0  0  0  0  0  0  0  0  0  0  0  0
  140.8069   67.9283  227.4814 H   0  0  0  0  0  0  0  0  0  0  0  0
  141.2431   69.4726  229.3786 H   0  0  0  0  0  0  0  0  0  0  0  0
  141.2420   71.9166  229.0235 H   0  0  0  0  0  0  0  0  0  0  0  0
  140.8015   72.8308  226.7932 H   0  0  0  0  0  0  0  0  0  0  0  0
  139.8934   74.5463  221.6020 H   0  0  0  0  0  0  0  0  0  0  0  0
  141.8647   76.0067  222.0341 H   0  0  0  0  0  0  0  0  0  0  0  0
  142.7088   78.2037  222.8055 H   0  0  0  0  0  0  0  0  0  0  0  0
  139.9400   81.2083  224.0859 H   0  0  0  0  0  0  0  0  0  0  0  0
  138.0485   79.6777  223.6239 H   0  0  0  0  0  0  0  0  0  0  0  0
  1  2  2  0
  2  3  1  0
  3  4  1  0
  4  5  1  0
  5  6  2  0
  5  7  1  0
  7  8  1  0
  8  9  1  0
  9 10  1  0
 10 11  1  0
 10 12  1  0
 12 13  1  0
 13 14  1  0
 14 15  1  0
 15 16  2  0
 16 17  1  0
 17 18  2  0
 18 19  1  0
 19 20  2  0
  2 21  1  0
 21 22  2  0
 22 23  1  0
 23 24  2  0
 24 25  1  0
 25 26  2  0
 26 27  1  0
 26 28  1  0
 28 29  2  0
 29 30  1  0
 30 31  2  0
 12  7  1  0
 20 15  1  0
 31 21  1  0
 30 24  1  0
  3 32  1  0
  4 33  1  0
  4 34  1  0
  8 35  1  0
  8 36  1  0
  9 37  1  0
  9 38  1  0
 10 39  1  1
 12 40  1  1
 13 41  1  0
 13 42  1  0
 16 43  1  0
 17 44  1  0
 18 45  1  0
 19 46  1  0
 20 47  1  0
 22 48  1  0
 23 49  1  0
 25 50  1  0
 28 51  1  0
 29 52  1  0
M  END
>  <smiles>  (27) 
O=C(NCC(=O)N1CC[C@H](F)[C@H]1COc1ccccc1)c1ccc2cc(Cl)ccc2n1

>  <score_type>  (27) 
oracle

>  <origin>  (27) 
autodockgpu

>  <m_score__min__energy>  (27) 
-8.2599999999999998

>  <m_primary>  (27) 
energy

>  <rmsd>  (27) 
7.527044546802881

>  <m_score__min__rmsd>  (27) 
7.527044546802881

>  <meeko>  (27) 
{"free_energy": -8.02, "intermolecular_energy": -10.11, "internal_energy": -1.36, "cluster_size": 6, "cluster_id": 4, "rank_in_cluster": 1}

>  <energy>  (27) 
-7.41

>  <cluster_rmsd>  (27) 
0.49

>  <cluster>  (27) 
2

$$$$

     RDKit          3D

 52 55  0  0  0  0  0  0  0  0999 V2000
  139.4490   72.0320  220.6740 O   0  0  0  0  0  0  0  0  0  0  0  0
  139.0390   72.3140  221.8310 C   0  0  0  0  0  0  0  0  0  0  0  0
  138.3000   73.5100  222.0870 N   0  0  0  0  0  0  0  0  0  0  0  0
  138.0180   74.4140  220.9880 C   0  0  0  0  0  0  0  0  0  0  0  0
  138.8840   75.5950  221.1330 C   0  0  0  0  0  0  0  0  0  0  0  0
  138.5240   76.6200  221.7660 O   0  0  0  0  0  0  0  0  0  0  0  0
  140.1550   75.5900  220.5490 N   0  0  0  0  0  0  0  0  0  0  0  0
  140.5830   75.1510  219.2170 C   0  0  0  0  0  0  0  0  0  0  0  0
  142.0570   74.7990  219.3230 C   0  0  0  0  0  0  0  0  0  0  0  0
  142.2710   74.8660  220.8290 C   0  0  2  0  0  0  0  0  0  0  0  0
  141.5550   73.7440  221.3140 F   0  0  0  0  0  0  0  0  0  0  0  0
  141.4350   76.0480  221.1690 C   0  0  1  0  0  0  0  0  0  0  0  0
  141.7650   77.3540  220.5320 C   0  0  0  0  0  0  0  0  0  0  0  0
  141.4240   78.4400  221.2150 O   0  0  0  0  0  0  0  0  0  0  0  0
  141.7450   79.3500  222.1230 C   0  0  0  0  0  0  0  0  0  0  0  0
  142.9530   79.5710  222.7410 C   0  0  0  0  0  0  0  0  0  0  0  0
  143.1910   80.5370  223.6790 C   0  0  0  0  0  0  0  0  0  0  0  0
  142.1480   81.3560  224.0360 C   0  0  0  0  0  0  0  0  0  0  0  0
  140.9080   81.2040  223.4670 C   0  0  0  0  0  0  0  0  0  0  0  0
  140.7100   80.2250  222.5340 C   0  0  0  0  0  0  0  0  0  0  0  0
  139.3050   71.4270  222.9590 C   0  0  0  0  0  0  0  0  0  0  0  0
  138.9420   70.0960  222.8840 C   0  0  0  0  0  0  0  0  0  0  0  0
  139.1800   69.2230  223.9390 C   0  0  0  0  0  0  0  0  0  0  0  0
  139.7900   69.7130  225.0720 C   0  0  0  0  0  0  0  0  0  0  0  0
  140.0680   68.9200  226.1750 C   0  0  0  0  0  0  0  0  0  0  0  0
  140.6790   69.4340  227.2960 C   0  0  0  0  0  0  0  0  0  0  0  0
  141.0330   68.4440  228.6890 Cl  0  0  0  0  0  0  0  0  0  0  0  0
  141.0250   70.7710  227.3280 C   0  0  0  0  0  0  0  0  0  0  0  0
  140.7630   71.5860  226.2530 C   0  0  0  0  0  0  0  0  0  0  0  0
  140.1490   71.0510  225.1350 C   0  0  0  0  0  0  0  0  0  0  0  0
  139.8970   71.8530  224.0870 N   0  0  0  0  0  0  0  0  0  0  0  0
  137.9730   73.7090  223.0750 H   0  0  0  0  0  0  0  0  0  0  0  0
  138.2270   73.9138  220.0309 H   0  0  0  0  0  0  0  0  0  0  0  0
  136.9597   74.7136  221.0033 H   0  0  0  0  0  0  0  0  0  0  0  0
  140.0046   74.2689  218.9051 H   0  0  0  0  0  0  0  0  0  0  0  0
  140.4188   75.9411  218.4695 H   0  0  0  0  0  0  0  0  0  0  0  0
  142.2597   73.7911  218.9317 H   0  0  0  0  0  0  0  0  0  0  0  0
  142.7207   75.4576  218.7435 H   0  0  0  0  0  0  0  0  0  0  0  0
  143.3100   74.9015  221.1886 H   0  0  0  0  0  0  0  0  0  0  0  0
  141.5082   76.2735  222.2431 H   0  0  0  0  0  0  0  0  0  0  0  0
  142.8530   77.3849  220.3730 H   0  0  0  0  0  0  0  0  0  0  0  0
  141.1721   77.3891  219.6062 H   0  0  0  0  0  0  0  0  0  0  0  0
  143.7936   78.9200  222.4589 H   0  0  0  0  0  0  0  0  0  0  0  0
  144.1860   80.6544  224.1331 H   0  0  0  0  0  0  0  0  0  0  0  0
  142.3082   82.1435  224.7871 H   0  0  0  0  0  0  0  0  0  0  0  0
  140.0794   81.8656  223.7599 H   0  0  0  0  0  0  0  0  0  0  0  0
  139.7114   80.1127  222.0865 H   0  0  0  0  0  0  0  0  0  0  0  0
  138.4554   69.7201  221.9719 H   0  0  0  0  0  0  0  0  0  0  0  0
  138.8877   68.1648  223.8704 H   0  0  0  0  0  0  0  0  0  0  0  0
  139.7937   67.8550  226.1535 H   0  0  0  0  0  0  0  0  0  0  0  0
  141.5142   71.1867  228.2213 H   0  0  0  0  0  0  0  0  0  0  0  0
  141.0382   72.6506  226.2813 H   0  0  0  0  0  0  0  0  0  0  0  0
  1  2  2  0
  2  3  1  0
  3  4  1  0
  4  5  1  0
  5  6  2  0
  5  7  1  0
  7  8  1  0
  8  9  1  0
  9 10  1  0
 10 11  1  0
 10 12  1  0
 12 13  1  0
 13 14  1  0
 14 15  1  0
 15 16  2  0
 16 17  1  0
 17 18  2  0
 18 19  1  0
 19 20  2  0
  2 21  1  0
 21 22  2  0
 22 23  1  0
 23 24  2  0
 24 25  1  0
 25 26  2  0
 26 27  1  0
 26 28  1  0
 28 29  2  0
 29 30  1  0
 30 31  2  0
 12  7  1  0
 20 15  1  0
 31 21  1  0
 30 24  1  0
  3 32  1  0
  4 33  1  0
  4 34  1  0
  8 35  1  0
  8 36  1  0
  9 37  1  0
  9 38  1  0
 10 39  1  6
 12 40  1  1
 13 41  1  0
 13 42  1  0
 16 43  1  0
 17 44  1  0
 18 45  1  0
 19 46  1  0
 20 47  1  0
 22 48  1  0
 23 49  1  0
 25 50  1  0
 28 51  1  0
 29 52  1  0
M  END
>  <smiles>  (28) 
O=C(NCC(=O)N1CC[C@H](F)[C@H]1COc1ccccc1)c1ccc2cc(Cl)ccc2n1

>  <score_type>  (28) 
oracle

>  <origin>  (28) 
autodockgpu

>  <m_score__min__energy>  (28) 
-8.2599999999999998

>  <m_primary>  (28) 
energy

>  <rmsd>  (28) 
1.5932515480689193

>  <m_score__min__rmsd>  (28) 
1.5932515480689193

>  <meeko>  (28) 
{"free_energy": -8.08, "intermolecular_energy": -10.17, "internal_energy": -1.62, "cluster_size": 14, "cluster_id": 1, "rank_in_cluster": 3}

>  <energy>  (28) 
-7.3

>  <cluster_rmsd>  (28) 
0.8

>  <cluster>  (28) 
2

$$$$

     RDKit          3D

 52 55  0  0  0  0  0  0  0  0999 V2000
  133.6950   70.2390  226.4530 O   0  0  0  0  0  0  0  0  0  0  0  0
  133.8640   71.3710  225.9290 C   0  0  0  0  0  0  0  0  0  0  0  0
  134.7110   71.5440  224.7910 N   0  0  0  0  0  0  0  0  0  0  0  0
  135.3880   70.3890  224.2330 C   0  0  0  0  0  0  0  0  0  0  0  0
  136.7160   70.8180  223.7640 C   0  0  0  0  0  0  0  0  0  0  0  0
  137.1140   72.0050  223.8660 O   0  0  0  0  0  0  0  0  0  0  0  0
  137.5740   69.8800  223.1810 N   0  0  0  0  0  0  0  0  0  0  0  0
  138.4130   69.9810  221.9820 C   0  0  0  0  0  0  0  0  0  0  0  0
  138.6390   68.5640  221.4830 C   0  0  0  0  0  0  0  0  0  0  0  0
  137.6740   67.7820  222.3640 C   0  0  2  0  0  0  0  0  0  0  0  0
  136.3990   68.1760  221.8890 F   0  0  0  0  0  0  0  0  0  0  0  0
  137.8520   68.4910  223.6580 C   0  0  1  0  0  0  0  0  0  0  0  0
  139.2120   68.5220  224.2660 C   0  0  0  0  0  0  0  0  0  0  0  0
  139.5900   69.6790  224.7960 O   0  0  0  0  0  0  0  0  0  0  0  0
  139.9940   70.3540  225.8630 C   0  0  0  0  0  0  0  0  0  0  0  0
  140.7580   71.4960  225.9310 C   0  0  0  0  0  0  0  0  0  0  0  0
  141.1330   72.1220  227.0870 C   0  0  0  0  0  0  0  0  0  0  0  0
  140.7190   71.5760  228.2770 C   0  0  0  0  0  0  0  0  0  0  0  0
  139.9520   70.4380  228.2990 C   0  0  0  0  0  0  0  0  0  0  0  0
  139.5980   69.8400  227.1220 C   0  0  0  0  0  0  0  0  0  0  0  0
  133.1980   72.5540  226.4640 C   0  0  0  0  0  0  0  0  0  0  0  0
  131.9750   72.4260  227.0930 C   0  0  0  0  0  0  0  0  0  0  0  0
  131.3120   73.5300  227.6150 C   0  0  0  0  0  0  0  0  0  0  0  0
  131.9040   74.7690  227.4930 C   0  0  0  0  0  0  0  0  0  0  0  0
  131.3210   75.9280  227.9810 C   0  0  0  0  0  0  0  0  0  0  0  0
  131.9330   77.1530  227.8470 C   0  0  0  0  0  0  0  0  0  0  0  0
  131.2070   78.6180  228.4590 Cl  0  0  0  0  0  0  0  0  0  0  0  0
  133.1560   77.2360  227.2110 C   0  0  0  0  0  0  0  0  0  0  0  0
  133.7620   76.1060  226.7150 C   0  0  0  0  0  0  0  0  0  0  0  0
  133.1320   74.8840  226.8600 C   0  0  0  0  0  0  0  0  0  0  0  0
  133.7310   73.7840  226.3730 N   0  0  0  0  0  0  0  0  0  0  0  0
  134.8250   72.5140  224.3800 H   0  0  0  0  0  0  0  0  0  0  0  0
  135.4982   69.6128  225.0047 H   0  0  0  0  0  0  0  0  0  0  0  0
  134.8054   69.9732  223.3977 H   0  0  0  0  0  0  0  0  0  0  0  0
  137.9019   70.5767  221.2114 H   0  0  0  0  0  0  0  0  0  0  0  0
  139.3685   70.4761  222.2098 H   0  0  0  0  0  0  0  0  0  0  0  0
  138.3820   68.4660  220.4179 H   0  0  0  0  0  0  0  0  0  0  0  0
  139.6835   68.2247  221.5460 H   0  0  0  0  0  0  0  0  0  0  0  0
  137.8002   66.6899  222.4012 H   0  0  0  0  0  0  0  0  0  0  0  0
  137.2434   68.0166  224.4419 H   0  0  0  0  0  0  0  0  0  0  0  0
  139.2416   67.7627  225.0614 H   0  0  0  0  0  0  0  0  0  0  0  0
  139.9100   68.3357  223.4365 H   0  0  0  0  0  0  0  0  0  0  0  0
  141.0930   71.9397  224.9819 H   0  0  0  0  0  0  0  0  0  0  0  0
  141.7471   73.0344  227.0646 H   0  0  0  0  0  0  0  0  0  0  0  0
  141.0055   72.0565  229.2241 H   0  0  0  0  0  0  0  0  0  0  0  0
  139.6242   70.0099  229.2578 H   0  0  0  0  0  0  0  0  0  0  0  0
  138.9842   68.9277  227.1537 H   0  0  0  0  0  0  0  0  0  0  0  0
  131.5166   71.4301  227.1825 H   0  0  0  0  0  0  0  0  0  0  0  0
  130.3380   73.4180  228.1137 H   0  0  0  0  0  0  0  0  0  0  0  0
  130.3463   75.8670  228.4872 H   0  0  0  0  0  0  0  0  0  0  0  0
  133.6488   78.2132  227.1005 H   0  0  0  0  0  0  0  0  0  0  0  0
  134.7363   76.1734  226.2089 H   0  0  0  0  0  0  0  0  0  0  0  0
  1  2  2  0
  2  3  1  0
  3  4  1  0
  4  5  1  0
  5  6  2  0
  5  7  1  0
  7  8  1  0
  8  9  1  0
  9 10  1  0
 10 11  1  0
 10 12  1  0
 12 13  1  0
 13 14  1  0
 14 15  1  0
 15 16  2  0
 16 17  1  0
 17 18  2  0
 18 19  1  0
 19 20  2  0
  2 21  1  0
 21 22  2  0
 22 23  1  0
 23 24  2  0
 24 25  1  0
 25 26  2  0
 26 27  1  0
 26 28  1  0
 28 29  2  0
 29 30  1  0
 30 31  2  0
 12  7  1  0
 20 15  1  0
 31 21  1  0
 30 24  1  0
  3 32  1  0
  4 33  1  0
  4 34  1  0
  8 35  1  0
  8 36  1  0
  9 37  1  0
  9 38  1  0
 10 39  1  1
 12 40  1  1
 13 41  1  0
 13 42  1  0
 16 43  1  0
 17 44  1  0
 18 45  1  0
 19 46  1  0
 20 47  1  0
 22 48  1  0
 23 49  1  0
 25 50  1  0
 28 51  1  0
 29 52  1  0
M  END
>  <smiles>  (29) 
O=C(NCC(=O)N1CC[C@H](F)[C@H]1COc1ccccc1)c1ccc2cc(Cl)ccc2n1

>  <score_type>  (29) 
oracle

>  <origin>  (29) 
autodockgpu

>  <m_score__min__energy>  (29) 
-8.2599999999999998

>  <m_primary>  (29) 
energy

>  <rmsd>  (29) 
8.607271599963246

>  <m_score__min__rmsd>  (29) 
8.607271599963246

>  <meeko>  (29) 
{"free_energy": -7.61, "intermolecular_energy": -9.69, "internal_energy": -2.02, "cluster_size": 5, "cluster_id": 5, "rank_in_cluster": 3}

>  <energy>  (29) 
-8.14

>  <cluster_rmsd>  (29) 
0.0

>  <cluster>  (29) 
3

$$$$

     RDKit          3D

 52 55  0  0  0  0  0  0  0  0999 V2000
  138.6550   71.6490  220.9130 O   0  0  0  0  0  0  0  0  0  0  0  0
  139.1580   72.0740  221.9860 C   0  0  0  0  0  0  0  0  0  0  0  0
  139.5230   73.4460  222.1430 N   0  0  0  0  0  0  0  0  0  0  0  0
  139.3070   74.3650  221.0410 C   0  0  0  0  0  0  0  0  0  0  0  0
  140.4680   75.2670  220.9620 C   0  0  0  0  0  0  0  0  0  0  0  0
  141.1980   75.5120  221.9550 O   0  0  0  0  0  0  0  0  0  0  0  0
  140.7790   75.8800  219.7440 N   0  0  0  0  0  0  0  0  0  0  0  0
  140.0790   75.8350  218.4560 C   0  0  0  0  0  0  0  0  0  0  0  0
  141.1120   76.1400  217.3840 C   0  0  0  0  0  0  0  0  0  0  0  0
  142.4000   76.1060  218.1950 C   0  0  2  0  0  0  0  0  0  0  0  0
  142.5510   74.7350  218.5190 F   0  0  0  0  0  0  0  0  0  0  0  0
  141.9490   76.7620  219.4500 C   0  0  1  0  0  0  0  0  0  0  0  0
  141.4150   78.1510  219.3690 C   0  0  0  0  0  0  0  0  0  0  0  0
  141.1060   78.7280  220.5240 O   0  0  0  0  0  0  0  0  0  0  0  0
  141.4890   79.1050  221.7350 C   0  0  0  0  0  0  0  0  0  0  0  0
  141.3270   78.4590  222.9380 C   0  0  0  0  0  0  0  0  0  0  0  0
  141.7540   78.9320  224.1480 C   0  0  0  0  0  0  0  0  0  0  0  0
  142.3960   80.1460  224.1730 C   0  0  0  0  0  0  0  0  0  0  0  0
  142.6010   80.8560  223.0160 C   0  0  0  0  0  0  0  0  0  0  0  0
  142.1580   80.3500  221.8270 C   0  0  0  0  0  0  0  0  0  0  0  0
  139.3890   71.1780  223.1140 C   0  0  0  0  0  0  0  0  0  0  0  0
  138.9800   69.8600  223.0370 C   0  0  0  0  0  0  0  0  0  0  0  0
  139.1840   68.9780  224.0920 C   0  0  0  0  0  0  0  0  0  0  0  0
  139.8060   69.4470  225.2280 C   0  0  0  0  0  0  0  0  0  0  0  0
  140.0530   68.6440  226.3320 C   0  0  0  0  0  0  0  0  0  0  0  0
  140.6770   69.1360  227.4550 C   0  0  0  0  0  0  0  0  0  0  0  0
  140.9920   68.1340  228.8480 Cl  0  0  0  0  0  0  0  0  0  0  0  0
  141.0680   70.4600  227.4890 C   0  0  0  0  0  0  0  0  0  0  0  0
  140.8390   71.2840  226.4130 C   0  0  0  0  0  0  0  0  0  0  0  0
  140.2110   70.7720  225.2930 C   0  0  0  0  0  0  0  0  0  0  0  0
  139.9910   71.5820  224.2450 N   0  0  0  0  0  0  0  0  0  0  0  0
  139.9430   73.7630  223.0630 H   0  0  0  0  0  0  0  0  0  0  0  0
  139.2073   73.8027  220.1009 H   0  0  0  0  0  0  0  0  0  0  0  0
  138.3857   74.9437  221.2030 H   0  0  0  0  0  0  0  0  0  0  0  0
  139.6485   74.8358  218.2937 H   0  0  0  0  0  0  0  0  0  0  0  0
  139.2551   76.5634  218.4289 H   0  0  0  0  0  0  0  0  0  0  0  0
  141.1123   75.3736  216.5950 H   0  0  0  0  0  0  0  0  0  0  0  0
  140.9408   77.0855  216.8486 H   0  0  0  0  0  0  0  0  0  0  0  0
  143.2975   76.5397  217.7299 H   0  0  0  0  0  0  0  0  0  0  0  0
  142.7886   76.8618  220.1536 H   0  0  0  0  0  0  0  0  0  0  0  0
  142.1747   78.7745  218.8749 H   0  0  0  0  0  0  0  0  0  0  0  0
  140.4669   78.0704  218.8170 H   0  0  0  0  0  0  0  0  0  0  0  0
  140.8140   77.4860  222.9262 H   0  0  0  0  0  0  0  0  0  0  0  0
  141.5886   78.3584  225.0719 H   0  0  0  0  0  0  0  0  0  0  0  0
  142.7500   80.5541  225.1312 H   0  0  0  0  0  0  0  0  0  0  0  0
  143.1187   81.8261  223.0462 H   0  0  0  0  0  0  0  0  0  0  0  0
  142.3269   80.9303  220.9079 H   0  0  0  0  0  0  0  0  0  0  0  0
  138.4834   69.5020  222.1231 H   0  0  0  0  0  0  0  0  0  0  0  0
  138.8565   67.9303  224.0213 H   0  0  0  0  0  0  0  0  0  0  0  0
  139.7426   67.5890  226.3089 H   0  0  0  0  0  0  0  0  0  0  0  0
  141.5669   70.8585  228.3847 H   0  0  0  0  0  0  0  0  0  0  0  0
  141.1517   72.3382  226.4427 H   0  0  0  0  0  0  0  0  0  0  0  0
  1  2  2  0
  2  3  1  0
  3  4  1  0
  4  5  1  0
  5  6  2  0
  5  7  1  0
  7  8  1  0
  8  9  1  0
  9 10  1  0
 10 11  1  0
 10 12  1  0
 12 13  1  0
 13 14  1  0
 14 15  1  0
 15 16  2  0
 16 17  1  0
 17 18  2  0
 18 19  1  0
 19 20  2  0
  2 21  1  0
 21 22  2  0
 22 23  1  0
 23 24  2  0
 24 25  1  0
 25 26  2  0
 26 27  1  0
 26 28  1  0
 28 29  2  0
 29 30  1  0
 30 31  2  0
 12  7  1  0
 20 15  1  0
 31 21  1  0
 30 24  1  0
  3 32  1  0
  4 33  1  0
  4 34  1  0
  8 35  1  0
  8 36  1  0
  9 37  1  0
  9 38  1  0
 10 39  1  6
 12 40  1  1
 13 41  1  0
 13 42  1  0
 16 43  1  0
 17 44  1  0
 18 45  1  0
 19 46  1  0
 20 47  1  0
 22 48  1  0
 23 49  1  0
 25 50  1  0
 28 51  1  0
 29 52  1  0
M  END
>  <smiles>  (30) 
O=C(NCC(=O)N1CC[C@H](F)[C@H]1COc1ccccc1)c1ccc2cc(Cl)ccc2n1

>  <score_type>  (30) 
oracle

>  <origin>  (30) 
autodockgpu

>  <m_score__min__energy>  (30) 
-8.2599999999999998

>  <m_primary>  (30) 
energy

>  <rmsd>  (30) 
1.1905053138592507

>  <m_score__min__rmsd>  (30) 
1.1905053138592507

>  <meeko>  (30) 
{"free_energy": -7.9, "intermolecular_energy": -9.99, "internal_energy": -2.03, "cluster_size": 14, "cluster_id": 1, "rank_in_cluster": 8}

>  <energy>  (30) 
-8.07

>  <cluster_rmsd>  (30) 
0.43

>  <cluster>  (30) 
3

$$$$

     RDKit          3D

 52 55  0  0  0  0  0  0  0  0999 V2000
  138.0730   71.5230  221.2870 O   0  0  0  0  0  0  0  0  0  0  0  0
  138.7320   71.9500  222.2700 C   0  0  0  0  0  0  0  0  0  0  0  0
  139.1770   73.3060  222.3340 N   0  0  0  0  0  0  0  0  0  0  0  0
  138.8620   74.2050  221.2400 C   0  0  0  0  0  0  0  0  0  0  0  0
  139.8380   75.3070  221.2540 C   0  0  0  0  0  0  0  0  0  0  0  0
  140.8080   75.3350  222.0520 O   0  0  0  0  0  0  0  0  0  0  0  0
  139.6910   76.3660  220.3530 N   0  0  0  0  0  0  0  0  0  0  0  0
  138.7140   77.4600  220.3300 C   0  0  0  0  0  0  0  0  0  0  0  0
  138.6200   77.9330  218.8890 C   0  0  0  0  0  0  0  0  0  0  0  0
  139.4260   76.8600  218.1700 C   0  0  2  0  0  0  0  0  0  0  0  0
  138.6060   75.7100  218.2690 F   0  0  0  0  0  0  0  0  0  0  0  0
  140.5270   76.6480  219.1470 C   0  0  1  0  0  0  0  0  0  0  0  0
  141.3920   77.8090  219.5000 C   0  0  0  0  0  0  0  0  0  0  0  0
  141.6650   77.9640  220.7900 O   0  0  0  0  0  0  0  0  0  0  0  0
  141.7660   78.7760  221.8320 C   0  0  0  0  0  0  0  0  0  0  0  0
  141.6120   78.4950  223.1700 C   0  0  0  0  0  0  0  0  0  0  0  0
  141.7300   79.4070  224.1820 C   0  0  0  0  0  0  0  0  0  0  0  0
  142.0270   80.7050  223.8460 C   0  0  0  0  0  0  0  0  0  0  0  0
  142.1990   81.0700  222.5350 C   0  0  0  0  0  0  0  0  0  0  0  0
  142.0710   80.1300  221.5510 C   0  0  0  0  0  0  0  0  0  0  0  0
  139.0670   71.0740  223.3890 C   0  0  0  0  0  0  0  0  0  0  0  0
  138.7080   69.7400  223.3450 C   0  0  0  0  0  0  0  0  0  0  0  0
  139.0110   68.8770  224.3910 C   0  0  0  0  0  0  0  0  0  0  0  0
  139.6820   69.3800  225.4830 C   0  0  0  0  0  0  0  0  0  0  0  0
  140.0280   68.5970  226.5750 C   0  0  0  0  0  0  0  0  0  0  0  0
  140.6990   69.1240  227.6550 C   0  0  0  0  0  0  0  0  0  0  0  0
  141.1380   68.1470  229.0320 Cl  0  0  0  0  0  0  0  0  0  0  0  0
  141.0380   70.4630  227.6570 C   0  0  0  0  0  0  0  0  0  0  0  0
  140.7110   71.2670  226.5910 C   0  0  0  0  0  0  0  0  0  0  0  0
  140.0360   70.7200  225.5150 C   0  0  0  0  0  0  0  0  0  0  0  0
  139.7200   71.5120  224.4770 N   0  0  0  0  0  0  0  0  0  0  0  0
  139.7290   73.6250  223.1810 H   0  0  0  0  0  0  0  0  0  0  0  0
  138.9246   73.6644  220.2841 H   0  0  0  0  0  0  0  0  0  0  0  0
  137.8417   74.5999  221.3547 H   0  0  0  0  0  0  0  0  0  0  0  0
  137.7337   77.0998  220.6753 H   0  0  0  0  0  0  0  0  0  0  0  0
  139.0228   78.2796  220.9956 H   0  0  0  0  0  0  0  0  0  0  0  0
  137.5772   77.9552  218.5396 H   0  0  0  0  0  0  0  0  0  0  0  0
  138.9869   78.9571  218.7261 H   0  0  0  0  0  0  0  0  0  0  0  0
  139.7427   77.0750  217.1387 H   0  0  0  0  0  0  0  0  0  0  0  0
  141.2480   75.9134  218.7591 H   0  0  0  0  0  0  0  0  0  0  0  0
  142.3467   77.6911  218.9664 H   0  0  0  0  0  0  0  0  0  0  0  0
  140.8195   78.7024  219.2101 H   0  0  0  0  0  0  0  0  0  0  0  0
  141.3758   77.4570  223.4469 H   0  0  0  0  0  0  0  0  0  0  0  0
  141.5914   79.1103  225.2321 H   0  0  0  0  0  0  0  0  0  0  0  0
  142.1282   81.4615  224.6381 H   0  0  0  0  0  0  0  0  0  0  0  0
  142.4384   82.1123  222.2773 H   0  0  0  0  0  0  0  0  0  0  0  0
  142.2098   80.4362  220.5036 H   0  0  0  0  0  0  0  0  0  0  0  0
  138.1722   69.3542  222.4652 H   0  0  0  0  0  0  0  0  0  0  0  0
  138.7215   67.8167  224.3477 H   0  0  0  0  0  0  0  0  0  0  0  0
  139.7598   67.5302  226.5776 H   0  0  0  0  0  0  0  0  0  0  0  0
  141.5736   70.8892  228.5181 H   0  0  0  0  0  0  0  0  0  0  0  0
  140.9830   72.3328  226.5938 H   0  0  0  0  0  0  0  0  0  0  0  0
  1  2  2  0
  2  3  1  0
  3  4  1  0
  4  5  1  0
  5  6  2  0
  5  7  1  0
  7  8  1  0
  8  9  1  0
  9 10  1  0
 10 11  1  0
 10 12  1  0
 12 13  1  0
 13 14  1  0
 14 15  1  0
 15 16  2  0
 16 17  1  0
 17 18  2  0
 18 19  1  0
 19 20  2  0
  2 21  1  0
 21 22  2  0
 22 23  1  0
 23 24  2  0
 24 25  1  0
 25 26  2  0
 26 27  1  0
 26 28  1  0
 28 29  2  0
 29 30  1  0
 30 31  2  0
 12  7  1  0
 20 15  1  0
 31 21  1  0
 30 24  1  0
  3 32  1  0
  4 33  1  0
  4 34  1  0
  8 35  1  0
  8 36  1  0
  9 37  1  0
  9 38  1  0
 10 39  1  6
 12 40  1  6
 13 41  1  0
 13 42  1  0
 16 43  1  0
 17 44  1  0
 18 45  1  0
 19 46  1  0
 20 47  1  0
 22 48  1  0
 23 49  1  0
 25 50  1  0
 28 51  1  0
 29 52  1  0
M  END
>  <smiles>  (31) 
O=C(NCC(=O)N1CC[C@H](F)[C@H]1COc1ccccc1)c1ccc2cc(Cl)ccc2n1

>  <score_type>  (31) 
oracle

>  <origin>  (31) 
autodockgpu

>  <m_score__min__energy>  (31) 
-8.2599999999999998

>  <m_primary>  (31) 
energy

>  <rmsd>  (31) 
1.6483190491161972

>  <m_score__min__rmsd>  (31) 
1.6483190491161972

>  <meeko>  (31) 
{"free_energy": -7.75, "intermolecular_energy": -9.84, "internal_energy": -2.19, "cluster_size": 14, "cluster_id": 1, "rank_in_cluster": 10}

>  <energy>  (31) 
-7.92

>  <cluster_rmsd>  (31) 
1.35

>  <cluster>  (31) 
3

$$$$

     RDKit          3D

 52 55  0  0  0  0  0  0  0  0999 V2000
  139.4570   72.0040  220.6270 O   0  0  0  0  0  0  0  0  0  0  0  0
  139.2000   72.3740  221.8030 C   0  0  0  0  0  0  0  0  0  0  0  0
  138.6690   73.6720  222.0750 N   0  0  0  0  0  0  0  0  0  0  0  0
  138.4240   74.5800  220.9700 C   0  0  0  0  0  0  0  0  0  0  0  0
  139.7240   74.9700  220.4010 C   0  0  0  0  0  0  0  0  0  0  0  0
  140.2580   74.3420  219.4520 O   0  0  0  0  0  0  0  0  0  0  0  0
  140.3990   76.0770  220.9250 N   0  0  0  0  0  0  0  0  0  0  0  0
  140.7810   76.3850  222.3070 C   0  0  0  0  0  0  0  0  0  0  0  0
  140.9210   77.8960  222.3980 C   0  0  0  0  0  0  0  0  0  0  0  0
  140.3610   78.3270  221.0500 C   0  0  2  0  0  0  0  0  0  0  0  0
  138.9770   78.0450  221.1610 F   0  0  0  0  0  0  0  0  0  0  0  0
  140.9140   77.2610  220.1730 C   0  0  1  0  0  0  0  0  0  0  0  0
  142.3930   77.1010  220.1010 C   0  0  0  0  0  0  0  0  0  0  0  0
  142.8360   75.8880  219.7950 O   0  0  0  0  0  0  0  0  0  0  0  0
  143.4360   74.7730  220.1870 C   0  0  0  0  0  0  0  0  0  0  0  0
  142.9010   73.5220  220.3840 C   0  0  0  0  0  0  0  0  0  0  0  0
  143.6020   72.4240  220.7990 C   0  0  0  0  0  0  0  0  0  0  0  0
  144.9460   72.5720  221.0380 C   0  0  0  0  0  0  0  0  0  0  0  0
  145.5610   73.7870  220.8640 C   0  0  0  0  0  0  0  0  0  0  0  0
  144.8250   74.8620  220.4490 C   0  0  0  0  0  0  0  0  0  0  0  0
  139.4340   71.4860  222.9380 C   0  0  0  0  0  0  0  0  0  0  0  0
  139.0570   70.1590  222.8580 C   0  0  0  0  0  0  0  0  0  0  0  0
  139.2650   69.2850  223.9180 C   0  0  0  0  0  0  0  0  0  0  0  0
  139.8590   69.7710  225.0620 C   0  0  0  0  0  0  0  0  0  0  0  0
  140.1070   68.9770  226.1720 C   0  0  0  0  0  0  0  0  0  0  0  0
  140.7020   69.4860  227.3030 C   0  0  0  0  0  0  0  0  0  0  0  0
  141.0180   68.4950  228.7040 Cl  0  0  0  0  0  0  0  0  0  0  0  0
  141.0620   70.8200  227.3400 C   0  0  0  0  0  0  0  0  0  0  0  0
  140.8300   71.6350  226.2580 C   0  0  0  0  0  0  0  0  0  0  0  0
  140.2320   71.1050  225.1290 C   0  0  0  0  0  0  0  0  0  0  0  0
  140.0080   71.9080  224.0760 N   0  0  0  0  0  0  0  0  0  0  0  0
  138.4660   73.9430  223.0790 H   0  0  0  0  0  0  0  0  0  0  0  0
  137.8168   74.0778  220.2025 H   0  0  0  0  0  0  0  0  0  0  0  0
  137.8799   75.4691  221.3212 H   0  0  0  0  0  0  0  0  0  0  0  0
  140.0037   76.0343  223.0018 H   0  0  0  0  0  0  0  0  0  0  0  0
  141.7226   75.8845  222.5770 H   0  0  0  0  0  0  0  0  0  0  0  0
  140.3296   78.3062  223.2299 H   0  0  0  0  0  0  0  0  0  0  0  0
  141.9465   78.2433  222.5925 H   0  0  0  0  0  0  0  0  0  0  0  0
  140.5650   79.3588  220.7279 H   0  0  0  0  0  0  0  0  0  0  0  0
  140.6365   77.4446  219.1245 H   0  0  0  0  0  0  0  0  0  0  0  0
  142.7695   77.7983  219.3381 H   0  0  0  0  0  0  0  0  0  0  0  0
  142.7611   77.3015  221.1180 H   0  0  0  0  0  0  0  0  0  0  0  0
  141.8253   73.3945  220.1929 H   0  0  0  0  0  0  0  0  0  0  0  0
  143.1049   71.4525  220.9371 H   0  0  0  0  0  0  0  0  0  0  0  0
  145.5370   71.7068  221.3729 H   0  0  0  0  0  0  0  0  0  0  0  0
  146.6385   73.8950  221.0571 H   0  0  0  0  0  0  0  0  0  0  0  0
  145.3295   75.8301  220.3139 H   0  0  0  0  0  0  0  0  0  0  0  0
  138.5831   69.7874  221.9375 H   0  0  0  0  0  0  0  0  0  0  0  0
  138.9625   68.2299  223.8454 H   0  0  0  0  0  0  0  0  0  0  0  0
  139.8211   67.9151  226.1473 H   0  0  0  0  0  0  0  0  0  0  0  0
  141.5377   71.2323  228.2421 H   0  0  0  0  0  0  0  0  0  0  0  0
  141.1166   72.6965  226.2895 H   0  0  0  0  0  0  0  0  0  0  0  0
  1  2  2  0
  2  3  1  0
  3  4  1  0
  4  5  1  0
  5  6  2  0
  5  7  1  0
  7  8  1  0
  8  9  1  0
  9 10  1  0
 10 11  1  0
 10 12  1  0
 12 13  1  0
 13 14  1  0
 14 15  1  0
 15 16  2  0
 16 17  1  0
 17 18  2  0
 18 19  1  0
 19 20  2  0
  2 21  1  0
 21 22  2  0
 22 23  1  0
 23 24  2  0
 24 25  1  0
 25 26  2  0
 26 27  1  0
 26 28  1  0
 28 29  2  0
 29 30  1  0
 30 31  2  0
 12  7  1  0
 20 15  1  0
 31 21  1  0
 30 24  1  0
  3 32  1  0
  4 33  1  0
  4 34  1  0
  8 35  1  0
  8 36  1  0
  9 37  1  0
  9 38  1  0
 10 39  1  6
 12 40  1  6
 13 41  1  0
 13 42  1  0
 16 43  1  0
 17 44  1  0
 18 45  1  0
 19 46  1  0
 20 47  1  0
 22 48  1  0
 23 49  1  0
 25 50  1  0
 28 51  1  0
 29 52  1  0
M  END
>  <smiles>  (32) 
O=C(NCC(=O)N1CC[C@H](F)[C@H]1COc1ccccc1)c1ccc2cc(Cl)ccc2n1

>  <score_type>  (32) 
oracle

>  <origin>  (32) 
autodockgpu

>  <m_score__min__energy>  (32) 
-8.2599999999999998

>  <m_primary>  (32) 
energy

>  <rmsd>  (32) 
2.374051980331052

>  <m_score__min__rmsd>  (32) 
2.374051980331052

>  <meeko>  (32) 
{"free_energy": -7.7, "intermolecular_energy": -9.79, "internal_energy": -2.02, "cluster_size": 14, "cluster_id": 2, "rank_in_cluster": 9}

>  <energy>  (32) 
-7.71

>  <cluster_rmsd>  (32) 
1.23

>  <cluster>  (32) 
3

$$$$

     RDKit          3D

 52 55  0  0  0  0  0  0  0  0999 V2000
  140.3980   72.4260  220.6450 O   0  0  0  0  0  0  0  0  0  0  0  0
  140.0620   72.7970  221.8000 C   0  0  0  0  0  0  0  0  0  0  0  0
  139.6860   74.1490  222.0670 N   0  0  0  0  0  0  0  0  0  0  0  0
  139.6940   75.1110  220.9810 C   0  0  0  0  0  0  0  0  0  0  0  0
  139.5110   76.4540  221.5570 C   0  0  0  0  0  0  0  0  0  0  0  0
  140.4250   77.3150  221.5590 O   0  0  0  0  0  0  0  0  0  0  0  0
  138.2780   76.7950  222.1240 N   0  0  0  0  0  0  0  0  0  0  0  0
  137.4480   76.0680  223.0900 C   0  0  0  0  0  0  0  0  0  0  0  0
  136.0220   76.5560  222.8970 C   0  0  0  0  0  0  0  0  0  0  0  0
  136.1610   77.3860  221.6290 C   0  0  2  0  0  0  0  0  0  0  0  0
  136.3930   76.4160  220.6230 F   0  0  0  0  0  0  0  0  0  0  0  0
  137.4780   78.0310  221.8700 C   0  0  1  0  0  0  0  0  0  0  0  0
  137.6360   78.8870  223.0790 C   0  0  0  0  0  0  0  0  0  0  0  0
  138.8790   79.0730  223.5060 O   0  0  0  0  0  0  0  0  0  0  0  0
  140.0280   79.7210  223.3860 C   0  0  0  0  0  0  0  0  0  0  0  0
  140.2730   80.9640  222.8490 C   0  0  0  0  0  0  0  0  0  0  0  0
  141.5040   81.5530  222.7610 C   0  0  0  0  0  0  0  0  0  0  0  0
  142.5850   80.8580  223.2460 C   0  0  0  0  0  0  0  0  0  0  0  0
  142.4290   79.6120  223.8000 C   0  0  0  0  0  0  0  0  0  0  0  0
  141.1820   79.0560  223.8680 C   0  0  0  0  0  0  0  0  0  0  0  0
  140.0430   71.8550  222.9150 C   0  0  0  0  0  0  0  0  0  0  0  0
  139.4930   70.6000  222.7420 C   0  0  0  0  0  0  0  0  0  0  0  0
  139.4580   69.6780  223.7810 C   0  0  0  0  0  0  0  0  0  0  0  0
  139.9860   70.0420  225.0000 C   0  0  0  0  0  0  0  0  0  0  0  0
  139.9970   69.1920  226.0960 C   0  0  0  0  0  0  0  0  0  0  0  0
  140.5320   69.5800  227.3030 C   0  0  0  0  0  0  0  0  0  0  0  0
  140.5500   68.5180  228.6870 Cl  0  0  0  0  0  0  0  0  0  0  0  0
  141.0710   70.8450  227.4320 C   0  0  0  0  0  0  0  0  0  0  0  0
  141.0770   71.7130  226.3660 C   0  0  0  0  0  0  0  0  0  0  0  0
  140.5350   71.3060  225.1600 C   0  0  0  0  0  0  0  0  0  0  0  0
  140.5440   72.1590  224.1230 N   0  0  0  0  0  0  0  0  0  0  0  0
  139.4100   74.4190  223.0540 H   0  0  0  0  0  0  0  0  0  0  0  0
  140.6544   75.0622  220.4470 H   0  0  0  0  0  0  0  0  0  0  0  0
  138.8853   74.8885  220.2693 H   0  0  0  0  0  0  0  0  0  0  0  0
  137.5069   74.9859  222.9014 H   0  0  0  0  0  0  0  0  0  0  0  0
  137.7911   76.2475  224.1196 H   0  0  0  0  0  0  0  0  0  0  0  0
  135.3249   75.7171  222.7549 H   0  0  0  0  0  0  0  0  0  0  0  0
  135.6148   77.1096  223.7559 H   0  0  0  0  0  0  0  0  0  0  0  0
  135.3361   78.0711  221.3836 H   0  0  0  0  0  0  0  0  0  0  0  0
  137.7234   78.7197  221.0482 H   0  0  0  0  0  0  0  0  0  0  0  0
  137.2085   79.8742  222.8497 H   0  0  0  0  0  0  0  0  0  0  0  0
  137.1230   78.3493  223.8900 H   0  0  0  0  0  0  0  0  0  0  0  0
  139.4119   81.5275  222.4604 H   0  0  0  0  0  0  0  0  0  0  0  0
  141.6247   82.5517  222.3159 H   0  0  0  0  0  0  0  0  0  0  0  0
  143.5882   81.3056  223.1897 H   0  0  0  0  0  0  0  0  0  0  0  0
  143.3013   79.0646  224.1866 H   0  0  0  0  0  0  0  0  0  0  0  0
  141.0708   78.0562  224.3130 H   0  0  0  0  0  0  0  0  0  0  0  0
  139.0745   70.3249  221.7626 H   0  0  0  0  0  0  0  0  0  0  0  0
  139.0187   68.6804  223.6334 H   0  0  0  0  0  0  0  0  0  0  0  0
  139.5679   68.1839  225.9980 H   0  0  0  0  0  0  0  0  0  0  0  0
  141.4988   71.1604  228.3951 H   0  0  0  0  0  0  0  0  0  0  0  0
  141.5078   72.7197  226.4707 H   0  0  0  0  0  0  0  0  0  0  0  0
  1  2  2  0
  2  3  1  0
  3  4  1  0
  4  5  1  0
  5  6  2  0
  5  7  1  0
  7  8  1  0
  8  9  1  0
  9 10  1  0
 10 11  1  0
 10 12  1  0
 12 13  1  0
 13 14  1  0
 14 15  1  0
 15 16  2  0
 16 17  1  0
 17 18  2  0
 18 19  1  0
 19 20  2  0
  2 21  1  0
 21 22  2  0
 22 23  1  0
 23 24  2  0
 24 25  1  0
 25 26  2  0
 26 27  1  0
 26 28  1  0
 28 29  2  0
 29 30  1  0
 30 31  2  0
 12  7  1  0
 20 15  1  0
 31 21  1  0
 30 24  1  0
  3 32  1  0
  4 33  1  0
  4 34  1  0
  8 35  1  0
  8 36  1  0
  9 37  1  0
  9 38  1  0
 10 39  1  6
 12 40  1  6
 13 41  1  0
 13 42  1  0
 16 43  1  0
 17 44  1  0
 18 45  1  0
 19 46  1  0
 20 47  1  0
 22 48  1  0
 23 49  1  0
 25 50  1  0
 28 51  1  0
 29 52  1  0
M  END
>  <smiles>  (33) 
O=C(NCC(=O)N1CC[C@H](F)[C@H]1COc1ccccc1)c1ccc2cc(Cl)ccc2n1

>  <score_type>  (33) 
oracle

>  <origin>  (33) 
autodockgpu

>  <m_score__min__energy>  (33) 
-8.2599999999999998

>  <m_primary>  (33) 
energy

>  <rmsd>  (33) 
3.488306082864531

>  <m_score__min__rmsd>  (33) 
3.488306082864531

>  <meeko>  (33) 
{"free_energy": -8.14, "intermolecular_energy": -10.23, "internal_energy": -1.64, "cluster_size": 4, "cluster_id": 3, "rank_in_cluster": 1}

>  <energy>  (33) 
-8.02

>  <cluster_rmsd>  (33) 
0.0

>  <cluster>  (33) 
4

$$$$

     RDKit          3D

 52 55  0  0  0  0  0  0  0  0999 V2000
  140.0640   72.1360  220.6570 O   0  0  0  0  0  0  0  0  0  0  0  0
  139.9170   72.5290  221.8440 C   0  0  0  0  0  0  0  0  0  0  0  0
  139.6930   73.9070  222.1490 N   0  0  0  0  0  0  0  0  0  0  0  0
  139.6360   74.8690  221.0650 C   0  0  0  0  0  0  0  0  0  0  0  0
  140.2720   76.1150  221.5240 C   0  0  0  0  0  0  0  0  0  0  0  0
  140.2590   76.4730  222.7280 O   0  0  0  0  0  0  0  0  0  0  0  0
  140.9190   76.9370  220.5950 N   0  0  0  0  0  0  0  0  0  0  0  0
  141.8710   78.0330  220.8040 C   0  0  0  0  0  0  0  0  0  0  0  0
  141.7790   78.9330  219.5830 C   0  0  0  0  0  0  0  0  0  0  0  0
  140.5660   78.3480  218.8740 C   0  0  2  0  0  0  0  0  0  0  0  0
  139.4860   78.7050  219.7170 F   0  0  0  0  0  0  0  0  0  0  0  0
  140.7890   76.8970  219.1080 C   0  0  1  0  0  0  0  0  0  0  0  0
  142.0450   76.2820  218.5940 C   0  0  0  0  0  0  0  0  0  0  0  0
  142.3570   75.0890  219.0860 O   0  0  0  0  0  0  0  0  0  0  0  0
  143.2150   74.3340  219.7550 C   0  0  0  0  0  0  0  0  0  0  0  0
  143.0910   73.0240  220.1560 C   0  0  0  0  0  0  0  0  0  0  0  0
  144.0350   72.3230  220.8540 C   0  0  0  0  0  0  0  0  0  0  0  0
  145.2020   72.9680  221.1830 C   0  0  0  0  0  0  0  0  0  0  0  0
  145.4080   74.2760  220.8200 C   0  0  0  0  0  0  0  0  0  0  0  0
  144.4400   74.9430  220.1240 C   0  0  0  0  0  0  0  0  0  0  0  0
  139.9680   71.5880  222.9580 C   0  0  0  0  0  0  0  0  0  0  0  0
  139.5020   70.2980  222.7880 C   0  0  0  0  0  0  0  0  0  0  0  0
  139.5360   69.3760  223.8260 C   0  0  0  0  0  0  0  0  0  0  0  0
  140.0480   69.7740  225.0420 C   0  0  0  0  0  0  0  0  0  0  0  0
  140.1230   68.9260  226.1370 C   0  0  0  0  0  0  0  0  0  0  0  0
  140.6400   69.3480  227.3400 C   0  0  0  0  0  0  0  0  0  0  0  0
  140.7390   68.2880  228.7230 Cl  0  0  0  0  0  0  0  0  0  0  0  0
  141.0950   70.6460  227.4660 C   0  0  0  0  0  0  0  0  0  0  0  0
  141.0350   71.5130  226.4020 C   0  0  0  0  0  0  0  0  0  0  0  0
  140.5130   71.0710  225.1990 C   0  0  0  0  0  0  0  0  0  0  0  0
  140.4570   71.9240  224.1630 N   0  0  0  0  0  0  0  0  0  0  0  0
  139.5730   74.1940  223.1620 H   0  0  0  0  0  0  0  0  0  0  0  0
  140.1742   74.4764  220.1897 H   0  0  0  0  0  0  0  0  0  0  0  0
  138.5910   75.0582  220.7785 H   0  0  0  0  0  0  0  0  0  0  0  0
  141.6064   78.5967  221.7108 H   0  0  0  0  0  0  0  0  0  0  0  0
  142.8932   77.6484  220.9349 H   0  0  0  0  0  0  0  0  0  0  0  0
  141.6122   79.9824  219.8676 H   0  0  0  0  0  0  0  0  0  0  0  0
  142.6920   78.9563  218.9700 H   0  0  0  0  0  0  0  0  0  0  0  0
  140.4075   78.6401  217.8254 H   0  0  0  0  0  0  0  0  0  0  0  0
  140.0058   76.3045  218.6125 H   0  0  0  0  0  0  0  0  0  0  0  0
  141.9469   76.1801  217.5031 H   0  0  0  0  0  0  0  0  0  0  0  0
  142.8547   76.9539  218.9147 H   0  0  0  0  0  0  0  0  0  0  0  0
  142.1600   72.4996  219.8948 H   0  0  0  0  0  0  0  0  0  0  0  0
  143.8650   71.2753  221.1429 H   0  0  0  0  0  0  0  0  0  0  0  0
  145.9807   72.4304  221.7439 H   0  0  0  0  0  0  0  0  0  0  0  0
  146.3464   74.7836  221.0879 H   0  0  0  0  0  0  0  0  0  0  0  0
  144.6180   75.9906  219.8398 H   0  0  0  0  0  0  0  0  0  0  0  0
  139.0962   69.9956  221.8113 H   0  0  0  0  0  0  0  0  0  0  0  0
  139.1628   68.3515  223.6809 H   0  0  0  0  0  0  0  0  0  0  0  0
  139.7606   67.8918  226.0413 H   0  0  0  0  0  0  0  0  0  0  0  0
  141.5087   70.9883  228.4260 H   0  0  0  0  0  0  0  0  0  0  0  0
  141.3976   72.5464  226.5051 H   0  0  0  0  0  0  0  0  0  0  0  0
  1  2  2  0
  2  3  1  0
  3  4  1  0
  4  5  1  0
  5  6  2  0
  5  7  1  0
  7  8  1  0
  8  9  1  0
  9 10  1  0
 10 11  1  0
 10 12  1  0
 12 13  1  0
 13 14  1  0
 14 15  1  0
 15 16  2  0
 16 17  1  0
 17 18  2  0
 18 19  1  0
 19 20  2  0
  2 21  1  0
 21 22  2  0
 22 23  1  0
 23 24  2  0
 24 25  1  0
 25 26  2  0
 26 27  1  0
 26 28  1  0
 28 29  2  0
 29 30  1  0
 30 31  2  0
 12  7  1  0
 20 15  1  0
 31 21  1  0
 30 24  1  0
  3 32  1  0
  4 33  1  0
  4 34  1  0
  8 35  1  0
  8 36  1  0
  9 37  1  0
  9 38  1  0
 10 39  1  6
 12 40  1  1
 13 41  1  0
 13 42  1  0
 16 43  1  0
 17 44  1  0
 18 45  1  0
 19 46  1  0
 20 47  1  0
 22 48  1  0
 23 49  1  0
 25 50  1  0
 28 51  1  0
 29 52  1  0
M  END
>  <smiles>  (34) 
O=C(NCC(=O)N1CC[C@H](F)[C@H]1COc1ccccc1)c1ccc2cc(Cl)ccc2n1

>  <score_type>  (34) 
oracle

>  <origin>  (34) 
autodockgpu

>  <m_score__min__energy>  (34) 
-8.2599999999999998

>  <m_primary>  (34) 
energy

>  <rmsd>  (34) 
2.342280399954529

>  <m_score__min__rmsd>  (34) 
2.342280399954529

>  <meeko>  (34) 
{"free_energy": -7.76, "intermolecular_energy": -9.85, "internal_energy": -2.48, "cluster_size": 14, "cluster_id": 2, "rank_in_cluster": 6}

>  <energy>  (34) 
-7.55

>  <cluster_rmsd>  (34) 
1.17

>  <cluster>  (34) 
4

$$$$

     RDKit          3D

 52 55  0  0  0  0  0  0  0  0999 V2000
  139.2060   72.1000  220.8290 O   0  0  0  0  0  0  0  0  0  0  0  0
  139.3770   72.4930  222.0130 C   0  0  0  0  0  0  0  0  0  0  0  0
  139.3740   73.8830  222.3430 N   0  0  0  0  0  0  0  0  0  0  0  0
  139.1700   74.8580  221.2880 C   0  0  0  0  0  0  0  0  0  0  0  0
  140.4870   75.2380  220.7530 C   0  0  0  0  0  0  0  0  0  0  0  0
  141.5530   74.7030  221.1480 O   0  0  0  0  0  0  0  0  0  0  0  0
  140.5690   76.2280  219.7680 N   0  0  0  0  0  0  0  0  0  0  0  0
  139.5870   77.2370  219.3570 C   0  0  0  0  0  0  0  0  0  0  0  0
  139.9220   77.6160  217.9240 C   0  0  0  0  0  0  0  0  0  0  0  0
  140.9740   76.5720  217.5780 C   0  0  2  0  0  0  0  0  0  0  0  0
  140.2330   75.3660  217.5100 F   0  0  0  0  0  0  0  0  0  0  0  0
  141.7230   76.5060  218.8600 C   0  0  1  0  0  0  0  0  0  0  0  0
  142.3650   77.7500  219.3690 C   0  0  0  0  0  0  0  0  0  0  0  0
  142.1930   78.0120  220.6590 O   0  0  0  0  0  0  0  0  0  0  0  0
  141.9810   78.9100  221.6100 C   0  0  0  0  0  0  0  0  0  0  0  0
  142.2010   80.2680  221.5870 C   0  0  0  0  0  0  0  0  0  0  0  0
  141.9560   81.1210  222.6270 C   0  0  0  0  0  0  0  0  0  0  0  0
  141.4480   80.5900  223.7870 C   0  0  0  0  0  0  0  0  0  0  0  0
  141.1970   79.2450  223.8940 C   0  0  0  0  0  0  0  0  0  0  0  0
  141.4570   78.4240  222.8330 C   0  0  0  0  0  0  0  0  0  0  0  0
  139.5850   71.5400  223.0980 C   0  0  0  0  0  0  0  0  0  0  0  0
  139.2280   70.2160  222.9250 C   0  0  0  0  0  0  0  0  0  0  0  0
  139.4110   69.2810  223.9360 C   0  0  0  0  0  0  0  0  0  0  0  0
  139.9620   69.7020  225.1270 C   0  0  0  0  0  0  0  0  0  0  0  0
  140.1840   68.8430  226.1940 C   0  0  0  0  0  0  0  0  0  0  0  0
  140.7360   69.2880  227.3730 C   0  0  0  0  0  0  0  0  0  0  0  0
  141.0190   68.2160  228.7200 Cl  0  0  0  0  0  0  0  0  0  0  0  0
  141.0780   70.6200  227.5030 C   0  0  0  0  0  0  0  0  0  0  0  0
  140.8720   71.4980  226.4660 C   0  0  0  0  0  0  0  0  0  0  0  0
  140.3160   71.0330  225.2880 C   0  0  0  0  0  0  0  0  0  0  0  0
  140.1180   71.8960  224.2780 N   0  0  0  0  0  0  0  0  0  0  0  0
  139.5200   74.1710  223.3520 H   0  0  0  0  0  0  0  0  0  0  0  0
  138.5558   74.4184  220.4883 H   0  0  0  0  0  0  0  0  0  0  0  0
  138.6505   75.7432  221.6836 H   0  0  0  0  0  0  0  0  0  0  0  0
  138.5704   76.8203  219.4109 H   0  0  0  0  0  0  0  0  0  0  0  0
  139.6238   78.1161  220.0171 H   0  0  0  0  0  0  0  0  0  0  0  0
  139.0419   77.5333  217.2693 H   0  0  0  0  0  0  0  0  0  0  0  0
  140.2606   78.6552  217.8001 H   0  0  0  0  0  0  0  0  0  0  0  0
  141.5851   76.7523  216.6813 H   0  0  0  0  0  0  0  0  0  0  0  0
  142.5707   75.8104  218.7730 H   0  0  0  0  0  0  0  0  0  0  0  0
  143.4464   77.6697  219.1840 H   0  0  0  0  0  0  0  0  0  0  0  0
  141.8743   78.5756  218.8326 H   0  0  0  0  0  0  0  0  0  0  0  0
  142.6053   80.7009  220.6601 H   0  0  0  0  0  0  0  0  0  0  0  0
  142.1593   82.1983  222.5374 H   0  0  0  0  0  0  0  0  0  0  0  0
  141.2396   81.2510  224.6412 H   0  0  0  0  0  0  0  0  0  0  0  0
  140.7892   78.8305  224.8278 H   0  0  0  0  0  0  0  0  0  0  0  0
  141.2522   77.3478  222.9321 H   0  0  0  0  0  0  0  0  0  0  0  0
  138.7903   69.8963  221.9678 H   0  0  0  0  0  0  0  0  0  0  0  0
  139.1229   68.2296  223.7894 H   0  0  0  0  0  0  0  0  0  0  0  0
  139.9123   67.7817  226.0948 H   0  0  0  0  0  0  0  0  0  0  0  0
  141.5188   70.9808  228.4440 H   0  0  0  0  0  0  0  0  0  0  0  0
  141.1461   72.5581  226.5716 H   0  0  0  0  0  0  0  0  0  0  0  0
  1  2  2  0
  2  3  1  0
  3  4  1  0
  4  5  1  0
  5  6  2  0
  5  7  1  0
  7  8  1  0
  8  9  1  0
  9 10  1  0
 10 11  1  0
 10 12  1  0
 12 13  1  0
 13 14  1  0
 14 15  1  0
 15 16  2  0
 16 17  1  0
 17 18  2  0
 18 19  1  0
 19 20  2  0
  2 21  1  0
 21 22  2  0
 22 23  1  0
 23 24  2  0
 24 25  1  0
 25 26  2  0
 26 27  1  0
 26 28  1  0
 28 29  2  0
 29 30  1  0
 30 31  2  0
 12  7  1  0
 20 15  1  0
 31 21  1  0
 30 24  1  0
  3 32  1  0
  4 33  1  0
  4 34  1  0
  8 35  1  0
  8 36  1  0
  9 37  1  0
  9 38  1  0
 10 39  1  6
 12 40  1  6
 13 41  1  0
 13 42  1  0
 16 43  1  0
 17 44  1  0
 18 45  1  0
 19 46  1  0
 20 47  1  0
 22 48  1  0
 23 49  1  0
 25 50  1  0
 28 51  1  0
 29 52  1  0
M  END
>  <smiles>  (35) 
O=C(NCC(=O)N1CC[C@H](F)[C@H]1COc1ccccc1)c1ccc2cc(Cl)ccc2n1

>  <score_type>  (35) 
oracle

>  <origin>  (35) 
autodockgpu

>  <m_score__min__energy>  (35) 
-8.2599999999999998

>  <m_primary>  (35) 
energy

>  <rmsd>  (35) 
1.6493623740020804

>  <m_score__min__rmsd>  (35) 
1.6493623740020804

>  <meeko>  (35) 
{"free_energy": -7.6, "intermolecular_energy": -9.69, "internal_energy": -1.83, "cluster_size": 14, "cluster_id": 1, "rank_in_cluster": 11}

>  <energy>  (35) 
-7.53

>  <cluster_rmsd>  (35) 
1.18

>  <cluster>  (35) 
4

$$$$

     RDKit          3D

 52 55  0  0  0  0  0  0  0  0999 V2000
  138.4460   72.2980  220.8780 O   0  0  0  0  0  0  0  0  0  0  0  0
  139.3120   72.4990  221.7700 C   0  0  0  0  0  0  0  0  0  0  0  0
  140.2050   73.6130  221.7020 N   0  0  0  0  0  0  0  0  0  0  0  0
  140.1070   74.5270  220.5790 C   0  0  0  0  0  0  0  0  0  0  0  0
  141.4330   75.1290  220.3620 C   0  0  0  0  0  0  0  0  0  0  0  0
  142.3530   75.0550  221.2150 O   0  0  0  0  0  0  0  0  0  0  0  0
  141.6900   75.8110  219.1680 N   0  0  0  0  0  0  0  0  0  0  0  0
  141.0750   75.6660  217.8450 C   0  0  0  0  0  0  0  0  0  0  0  0
  142.0890   76.1710  216.8320 C   0  0  0  0  0  0  0  0  0  0  0  0
  143.3200   76.3520  217.7090 C   0  0  2  0  0  0  0  0  0  0  0  0
  143.6970   75.0250  218.0270 F   0  0  0  0  0  0  0  0  0  0  0  0
  142.6950   76.8940  218.9450 C   0  0  1  0  0  0  0  0  0  0  0  0
  141.9250   78.1660  218.8490 C   0  0  0  0  0  0  0  0  0  0  0  0
  141.4760   78.6660  219.9940 O   0  0  0  0  0  0  0  0  0  0  0  0
  141.7450   79.1290  221.2050 C   0  0  0  0  0  0  0  0  0  0  0  0
  142.2530   80.3530  221.5740 C   0  0  0  0  0  0  0  0  0  0  0  0
  142.5050   80.7430  222.8600 C   0  0  0  0  0  0  0  0  0  0  0  0
  142.2320   79.8510  223.8680 C   0  0  0  0  0  0  0  0  0  0  0  0
  141.7210   78.6080  223.5870 C   0  0  0  0  0  0  0  0  0  0  0  0
  141.4840   78.2550  222.2890 C   0  0  0  0  0  0  0  0  0  0  0  0
  139.4380   71.6000  222.9130 C   0  0  0  0  0  0  0  0  0  0  0  0
  138.8540   70.3480  222.8660 C   0  0  0  0  0  0  0  0  0  0  0  0
  138.9530   69.4650  223.9340 C   0  0  0  0  0  0  0  0  0  0  0  0
  139.6510   69.8650  225.0530 C   0  0  0  0  0  0  0  0  0  0  0  0
  139.8040   69.0550  226.1690 C   0  0  0  0  0  0  0  0  0  0  0  0
  140.5060   69.4780  227.2740 C   0  0  0  0  0  0  0  0  0  0  0  0
  140.7050   68.4660  228.6820 Cl  0  0  0  0  0  0  0  0  0  0  0  0
  141.0730   70.7370  227.2780 C   0  0  0  0  0  0  0  0  0  0  0  0
  140.9400   71.5660  226.1890 C   0  0  0  0  0  0  0  0  0  0  0  0
  140.2310   71.1240  225.0870 C   0  0  0  0  0  0  0  0  0  0  0  0
  140.1060   71.9390  224.0270 N   0  0  0  0  0  0  0  0  0  0  0  0
  140.9180   73.7460  222.4740 H   0  0  0  0  0  0  0  0  0  0  0  0
  139.7946   73.9786  219.6781 H   0  0  0  0  0  0  0  0  0  0  0  0
  139.3629   75.3096  220.7884 H   0  0  0  0  0  0  0  0  0  0  0  0
  140.8395   74.6092  217.6506 H   0  0  0  0  0  0  0  0  0  0  0  0
  140.1361   76.2357  217.7815 H   0  0  0  0  0  0  0  0  0  0  0  0
  142.2661   75.4322  216.0365 H   0  0  0  0  0  0  0  0  0  0  0  0
  141.7781   77.0809  216.2978 H   0  0  0  0  0  0  0  0  0  0  0  0
  144.1480   76.9471  217.2965 H   0  0  0  0  0  0  0  0  0  0  0  0
  143.4661   77.1301  219.6931 H   0  0  0  0  0  0  0  0  0  0  0  0
  142.5787   78.9202  218.3866 H   0  0  0  0  0  0  0  0  0  0  0  0
  141.0275   77.9238  218.2609 H   0  0  0  0  0  0  0  0  0  0  0  0
  142.4735   81.0735  220.7726 H   0  0  0  0  0  0  0  0  0  0  0  0
  142.9137   81.7402  223.0804 H   0  0  0  0  0  0  0  0  0  0  0  0
  142.4250   80.1358  224.9128 H   0  0  0  0  0  0  0  0  0  0  0  0
  141.5040   77.9013  224.4016 H   0  0  0  0  0  0  0  0  0  0  0  0
  141.0756   77.2557  222.0776 H   0  0  0  0  0  0  0  0  0  0  0  0
  138.3000   70.0449  221.9653 H   0  0  0  0  0  0  0  0  0  0  0  0
  138.4855   68.4704  223.8876 H   0  0  0  0  0  0  0  0  0  0  0  0
  139.3536   68.0514  226.1703 H   0  0  0  0  0  0  0  0  0  0  0  0
  141.6354   71.0795  228.1591 H   0  0  0  0  0  0  0  0  0  0  0  0
  141.3922   72.5688  226.1943 H   0  0  0  0  0  0  0  0  0  0  0  0
  1  2  2  0
  2  3  1  0
  3  4  1  0
  4  5  1  0
  5  6  2  0
  5  7  1  0
  7  8  1  0
  8  9  1  0
  9 10  1  0
 10 11  1  0
 10 12  1  0
 12 13  1  0
 13 14  1  0
 14 15  1  0
 15 16  2  0
 16 17  1  0
 17 18  2  0
 18 19  1  0
 19 20  2  0
  2 21  1  0
 21 22  2  0
 22 23  1  0
 23 24  2  0
 24 25  1  0
 25 26  2  0
 26 27  1  0
 26 28  1  0
 28 29  2  0
 29 30  1  0
 30 31  2  0
 12  7  1  0
 20 15  1  0
 31 21  1  0
 30 24  1  0
  3 32  1  0
  4 33  1  0
  4 34  1  0
  8 35  1  0
  8 36  1  0
  9 37  1  0
  9 38  1  0
 10 39  1  6
 12 40  1  1
 13 41  1  0
 13 42  1  0
 16 43  1  0
 17 44  1  0
 18 45  1  0
 19 46  1  0
 20 47  1  0
 22 48  1  0
 23 49  1  0
 25 50  1  0
 28 51  1  0
 29 52  1  0
M  END
>  <smiles>  (36) 
O=C(NCC(=O)N1CC[C@H](F)[C@H]1COc1ccccc1)c1ccc2cc(Cl)ccc2n1

>  <score_type>  (36) 
oracle

>  <origin>  (36) 
autodockgpu

>  <m_score__min__energy>  (36) 
-8.2599999999999998

>  <m_primary>  (36) 
energy

>  <rmsd>  (36) 
1.767931642192347

>  <m_score__min__rmsd>  (36) 
1.767931642192347

>  <meeko>  (36) 
{"free_energy": -7.45, "intermolecular_energy": -9.54, "internal_energy": -2.15, "cluster_size": 14, "cluster_id": 1, "rank_in_cluster": 14}

>  <energy>  (36) 
-7.42

>  <cluster_rmsd>  (36) 
1.41

>  <cluster>  (36) 
4

$$$$

     RDKit          3D

 52 55  0  0  0  0  0  0  0  0999 V2000
  140.2210   72.1300  220.6330 O   0  0  0  0  0  0  0  0  0  0  0  0
  140.0040   72.5370  221.8040 C   0  0  0  0  0  0  0  0  0  0  0  0
  139.7570   73.9170  222.0790 N   0  0  0  0  0  0  0  0  0  0  0  0
  139.7570   74.8660  220.9810 C   0  0  0  0  0  0  0  0  0  0  0  0
  140.1280   76.1860  221.5150 C   0  0  0  0  0  0  0  0  0  0  0  0
  139.8640   76.5330  222.6940 O   0  0  0  0  0  0  0  0  0  0  0  0
  140.7990   77.0960  220.6920 N   0  0  0  0  0  0  0  0  0  0  0  0
  141.8000   78.1150  221.0260 C   0  0  0  0  0  0  0  0  0  0  0  0
  141.7330   79.1710  219.9350 C   0  0  0  0  0  0  0  0  0  0  0  0
  140.4870   78.7350  219.1770 C   0  0  2  0  0  0  0  0  0  0  0  0
  139.4340   79.0230  220.0780 F   0  0  0  0  0  0  0  0  0  0  0  0
  140.6500   77.2570  219.2140 C   0  0  1  0  0  0  0  0  0  0  0  0
  141.8720   76.6650  218.6030 C   0  0  0  0  0  0  0  0  0  0  0  0
  142.1870   75.4370  218.9980 O   0  0  0  0  0  0  0  0  0  0  0  0
  143.0450   74.6330  219.6080 C   0  0  0  0  0  0  0  0  0  0  0  0
  142.9580   73.2790  219.8340 C   0  0  0  0  0  0  0  0  0  0  0  0
  143.8990   72.5290  220.4840 C   0  0  0  0  0  0  0  0  0  0  0  0
  145.0210   73.1690  220.9510 C   0  0  0  0  0  0  0  0  0  0  0  0
  145.1880   74.5190  220.7670 C   0  0  0  0  0  0  0  0  0  0  0  0
  144.2250   75.2340  220.1130 C   0  0  0  0  0  0  0  0  0  0  0  0
  139.9970   71.6100  222.9320 C   0  0  0  0  0  0  0  0  0  0  0  0
  139.4770   70.3400  222.7720 C   0  0  0  0  0  0  0  0  0  0  0  0
  139.4540   69.4320  223.8230 C   0  0  0  0  0  0  0  0  0  0  0  0
  139.9640   69.8240  225.0410 C   0  0  0  0  0  0  0  0  0  0  0  0
  139.9850   68.9890  226.1480 C   0  0  0  0  0  0  0  0  0  0  0  0
  140.5020   69.4050  227.3540 C   0  0  0  0  0  0  0  0  0  0  0  0
  140.5320   68.3620  228.7520 Cl  0  0  0  0  0  0  0  0  0  0  0  0
  141.0120   70.6840  227.4700 C   0  0  0  0  0  0  0  0  0  0  0  0
  141.0070   71.5370  226.3930 C   0  0  0  0  0  0  0  0  0  0  0  0
  140.4840   71.1020  225.1880 C   0  0  0  0  0  0  0  0  0  0  0  0
  140.4820   71.9420  224.1400 N   0  0  0  0  0  0  0  0  0  0  0  0
  139.5790   74.2170  223.0790 H   0  0  0  0  0  0  0  0  0  0  0  0
  140.4864   74.5540  220.2190 H   0  0  0  0  0  0  0  0  0  0  0  0
  138.7609   74.9100  220.5165 H   0  0  0  0  0  0  0  0  0  0  0  0
  141.5707   78.5651  222.0032 H   0  0  0  0  0  0  0  0  0  0  0  0
  142.8061   77.6745  221.0875 H   0  0  0  0  0  0  0  0  0  0  0  0
  141.6155   80.1799  220.3573 H   0  0  0  0  0  0  0  0  0  0  0  0
  142.6388   79.2368  219.3144 H   0  0  0  0  0  0  0  0  0  0  0  0
  140.3284   79.1688  218.1787 H   0  0  0  0  0  0  0  0  0  0  0  0
  139.8367   76.7672  218.6584 H   0  0  0  0  0  0  0  0  0  0  0  0
  141.7243   76.6399  217.5132 H   0  0  0  0  0  0  0  0  0  0  0  0
  142.7053   77.3036  218.9314 H   0  0  0  0  0  0  0  0  0  0  0  0
  142.0623   72.7592  219.4633 H   0  0  0  0  0  0  0  0  0  0  0  0
  143.7616   71.4472  220.6282 H   0  0  0  0  0  0  0  0  0  0  0  0
  145.7951   72.5927  221.4789 H   0  0  0  0  0  0  0  0  0  0  0  0
  146.0911   75.0217  221.1436 H   0  0  0  0  0  0  0  0  0  0  0  0
  144.3707   76.3153  219.9733 H   0  0  0  0  0  0  0  0  0  0  0  0
  139.0733   70.0420  221.7931 H   0  0  0  0  0  0  0  0  0  0  0  0
  139.0380   68.4230  223.6857 H   0  0  0  0  0  0  0  0  0  0  0  0
  139.5790   67.9704  226.0603 H   0  0  0  0  0  0  0  0  0  0  0  0
  141.4251   71.0218  228.4319 H   0  0  0  0  0  0  0  0  0  0  0  0
  141.4142   72.5545  226.4876 H   0  0  0  0  0  0  0  0  0  0  0  0
  1  2  2  0
  2  3  1  0
  3  4  1  0
  4  5  1  0
  5  6  2  0
  5  7  1  0
  7  8  1  0
  8  9  1  0
  9 10  1  0
 10 11  1  0
 10 12  1  0
 12 13  1  0
 13 14  1  0
 14 15  1  0
 15 16  2  0
 16 17  1  0
 17 18  2  0
 18 19  1  0
 19 20  2  0
  2 21  1  0
 21 22  2  0
 22 23  1  0
 23 24  2  0
 24 25  1  0
 25 26  2  0
 26 27  1  0
 26 28  1  0
 28 29  2  0
 29 30  1  0
 30 31  2  0
 12  7  1  0
 20 15  1  0
 31 21  1  0
 30 24  1  0
  3 32  1  0
  4 33  1  0
  4 34  1  0
  8 35  1  0
  8 36  1  0
  9 37  1  0
  9 38  1  0
 10 39  1  6
 12 40  1  6
 13 41  1  0
 13 42  1  0
 16 43  1  0
 17 44  1  0
 18 45  1  0
 19 46  1  0
 20 47  1  0
 22 48  1  0
 23 49  1  0
 25 50  1  0
 28 51  1  0
 29 52  1  0
M  END
>  <smiles>  (37) 
O=C(NCC(=O)N1CC[C@H](F)[C@H]1COc1ccccc1)c1ccc2cc(Cl)ccc2n1

>  <score_type>  (37) 
oracle

>  <origin>  (37) 
autodockgpu

>  <m_score__min__energy>  (37) 
-8.2599999999999998

>  <m_primary>  (37) 
energy

>  <rmsd>  (37) 
2.4140311321134655

>  <m_score__min__rmsd>  (37) 
2.4140311321134655

>  <meeko>  (37) 
{"free_energy": -7.53, "intermolecular_energy": -9.62, "internal_energy": -2.51, "cluster_size": 14, "cluster_id": 2, "rank_in_cluster": 11}

>  <energy>  (37) 
-7.27

>  <cluster_rmsd>  (37) 
1.96

>  <cluster>  (37) 
4

$$$$

     RDKit          3D

 52 55  0  0  0  0  0  0  0  0999 V2000
  137.9200   71.2770  221.4120 O   0  0  0  0  0  0  0  0  0  0  0  0
  138.6090   71.7410  222.3580 C   0  0  0  0  0  0  0  0  0  0  0  0
  139.0070   73.1130  222.3840 N   0  0  0  0  0  0  0  0  0  0  0  0
  138.6070   73.9850  221.2960 C   0  0  0  0  0  0  0  0  0  0  0  0
  138.9160   75.3720  221.6810 C   0  0  0  0  0  0  0  0  0  0  0  0
  139.9560   75.6770  222.3170 O   0  0  0  0  0  0  0  0  0  0  0  0
  138.0290   76.3950  221.3330 N   0  0  0  0  0  0  0  0  0  0  0  0
  136.5680   76.3760  221.2000 C   0  0  0  0  0  0  0  0  0  0  0  0
  136.1990   77.5070  220.2540 C   0  0  0  0  0  0  0  0  0  0  0  0
  137.5710   77.9310  219.7480 C   0  0  2  0  0  0  0  0  0  0  0  0
  137.9740   76.8440  218.9350 F   0  0  0  0  0  0  0  0  0  0  0  0
  138.3690   77.8110  220.9970 C   0  0  1  0  0  0  0  0  0  0  0  0
  137.9670   78.6290  222.1750 C   0  0  0  0  0  0  0  0  0  0  0  0
  138.8450   79.5360  222.5850 O   0  0  0  0  0  0  0  0  0  0  0  0
  140.0840   79.8200  222.9570 C   0  0  0  0  0  0  0  0  0  0  0  0
  141.0500   78.9840  223.4690 C   0  0  0  0  0  0  0  0  0  0  0  0
  142.3100   79.3710  223.8340 C   0  0  0  0  0  0  0  0  0  0  0  0
  142.6460   80.6930  223.6800 C   0  0  0  0  0  0  0  0  0  0  0  0
  141.7420   81.5940  223.1750 C   0  0  0  0  0  0  0  0  0  0  0  0
  140.4920   81.1700  222.8220 C   0  0  0  0  0  0  0  0  0  0  0  0
  139.0290   70.8930  223.4690 C   0  0  0  0  0  0  0  0  0  0  0  0
  138.7950   69.5320  223.4180 C   0  0  0  0  0  0  0  0  0  0  0  0
  139.1810   68.6940  224.4570 C   0  0  0  0  0  0  0  0  0  0  0  0
  139.8080   69.2500  225.5500 C   0  0  0  0  0  0  0  0  0  0  0  0
  140.2300   68.4960  226.6350 C   0  0  0  0  0  0  0  0  0  0  0  0
  140.8540   69.0760  227.7160 C   0  0  0  0  0  0  0  0  0  0  0  0
  141.3880   68.1350  229.0850 Cl  0  0  0  0  0  0  0  0  0  0  0  0
  141.0680   70.4400  227.7250 C   0  0  0  0  0  0  0  0  0  0  0  0
  140.6620   71.2170  226.6670 C   0  0  0  0  0  0  0  0  0  0  0  0
  140.0370   70.6170  225.5890 C   0  0  0  0  0  0  0  0  0  0  0  0
  139.6430   71.3830  224.5580 N   0  0  0  0  0  0  0  0  0  0  0  0
  139.5860   73.4640  223.2000 H   0  0  0  0  0  0  0  0  0  0  0  0
  139.1607   73.7197  220.3833 H   0  0  0  0  0  0  0  0  0  0  0  0
  137.5304   73.8764  221.0981 H   0  0  0  0  0  0  0  0  0  0  0  0
  136.2379   75.4122  220.7851 H   0  0  0  0  0  0  0  0  0  0  0  0
  136.0807   76.5041  222.1778 H   0  0  0  0  0  0  0  0  0  0  0  0
  135.5586   77.1526  219.4328 H   0  0  0  0  0  0  0  0  0  0  0  0
  135.6214   78.3170  220.7233 H   0  0  0  0  0  0  0  0  0  0  0  0
  137.6397   78.9007  219.2333 H   0  0  0  0  0  0  0  0  0  0  0  0
  139.4069   78.1298  220.8205 H   0  0  0  0  0  0  0  0  0  0  0  0
  137.0364   79.1554  221.9164 H   0  0  0  0  0  0  0  0  0  0  0  0
  137.8678   77.9173  223.0079 H   0  0  0  0  0  0  0  0  0  0  0  0
  140.7886   77.9229  223.5943 H   0  0  0  0  0  0  0  0  0  0  0  0
  143.0314   78.6457  224.2383 H   0  0  0  0  0  0  0  0  0  0  0  0
  143.6521   81.0345  223.9648 H   0  0  0  0  0  0  0  0  0  0  0  0
  142.0222   82.6510  223.0552 H   0  0  0  0  0  0  0  0  0  0  0  0
  139.7773   81.9026  222.4188 H   0  0  0  0  0  0  0  0  0  0  0  0
  138.2934   69.1037  222.5377 H   0  0  0  0  0  0  0  0  0  0  0  0
  138.9903   67.6118  224.4077 H   0  0  0  0  0  0  0  0  0  0  0  0
  140.0620   67.4089  226.6314 H   0  0  0  0  0  0  0  0  0  0  0  0
  141.5674   70.9083  228.5860 H   0  0  0  0  0  0  0  0  0  0  0  0
  140.8321   72.3037  226.6773 H   0  0  0  0  0  0  0  0  0  0  0  0
  1  2  2  0
  2  3  1  0
  3  4  1  0
  4  5  1  0
  5  6  2  0
  5  7  1  0
  7  8  1  0
  8  9  1  0
  9 10  1  0
 10 11  1  0
 10 12  1  0
 12 13  1  0
 13 14  1  0
 14 15  1  0
 15 16  2  0
 16 17  1  0
 17 18  2  0
 18 19  1  0
 19 20  2  0
  2 21  1  0
 21 22  2  0
 22 23  1  0
 23 24  2  0
 24 25  1  0
 25 26  2  0
 26 27  1  0
 26 28  1  0
 28 29  2  0
 29 30  1  0
 30 31  2  0
 12  7  1  0
 20 15  1  0
 31 21  1  0
 30 24  1  0
  3 32  1  0
  4 33  1  0
  4 34  1  0
  8 35  1  0
  8 36  1  0
  9 37  1  0
  9 38  1  0
 10 39  1  6
 12 40  1  6
 13 41  1  0
 13 42  1  0
 16 43  1  0
 17 44  1  0
 18 45  1  0
 19 46  1  0
 20 47  1  0
 22 48  1  0
 23 49  1  0
 25 50  1  0
 28 51  1  0
 29 52  1  0
M  END
>  <smiles>  (38) 
O=C(NCC(=O)N1CC[C@H](F)[C@H]1COc1ccccc1)c1ccc2cc(Cl)ccc2n1

>  <score_type>  (38) 
oracle

>  <origin>  (38) 
autodockgpu

>  <m_score__min__energy>  (38) 
-8.2599999999999998

>  <m_primary>  (38) 
energy

>  <rmsd>  (38) 
2.5831664055586674

>  <m_score__min__rmsd>  (38) 
2.5831664055586674

>  <meeko>  (38) 
{"free_energy": -7.71, "intermolecular_energy": -9.8, "internal_energy": -1.88, "cluster_size": 4, "cluster_id": 3, "rank_in_cluster": 4}

>  <energy>  (38) 
-7.08

>  <cluster_rmsd>  (38) 
1.88

>  <cluster>  (38) 
4

$$$$

     RDKit          3D

 52 55  0  0  0  0  0  0  0  0999 V2000
  140.7200   72.6480  220.8490 O   0  0  0  0  0  0  0  0  0  0  0  0
  140.1340   72.9220  221.9300 C   0  0  0  0  0  0  0  0  0  0  0  0
  139.4960   74.1850  222.1300 N   0  0  0  0  0  0  0  0  0  0  0  0
  139.5280   75.1680  221.0650 C   0  0  0  0  0  0  0  0  0  0  0  0
  140.8930   75.7130  220.9830 C   0  0  0  0  0  0  0  0  0  0  0  0
  141.8630   75.1890  221.5850 O   0  0  0  0  0  0  0  0  0  0  0  0
  141.1310   76.8550  220.2120 N   0  0  0  0  0  0  0  0  0  0  0  0
  141.4650   78.2230  220.6240 C   0  0  0  0  0  0  0  0  0  0  0  0
  141.0250   79.1410  219.4960 C   0  0  0  0  0  0  0  0  0  0  0  0
  140.2470   78.1750  218.6130 C   0  0  2  0  0  0  0  0  0  0  0  0
  139.0870   77.8930  219.3750 F   0  0  0  0  0  0  0  0  0  0  0  0
  141.0990   76.9620  218.7220 C   0  0  1  0  0  0  0  0  0  0  0  0
  142.5190   77.0530  218.2790 C   0  0  0  0  0  0  0  0  0  0  0  0
  143.2290   75.9330  218.3560 O   0  0  0  0  0  0  0  0  0  0  0  0
  143.6320   74.9010  219.0810 C   0  0  0  0  0  0  0  0  0  0  0  0
  144.4740   74.8790  220.1690 C   0  0  0  0  0  0  0  0  0  0  0  0
  144.8410   73.7560  220.8560 C   0  0  0  0  0  0  0  0  0  0  0  0
  144.3340   72.5510  220.4350 C   0  0  0  0  0  0  0  0  0  0  0  0
  143.4850   72.4830  219.3580 C   0  0  0  0  0  0  0  0  0  0  0  0
  143.1420   73.6280  218.6970 C   0  0  0  0  0  0  0  0  0  0  0  0
  140.0840   71.9560  223.0230 C   0  0  0  0  0  0  0  0  0  0  0  0
  139.5120   70.7160  222.8150 C   0  0  0  0  0  0  0  0  0  0  0  0
  139.4460   69.7710  223.8320 C   0  0  0  0  0  0  0  0  0  0  0  0
  139.9670   70.0970  225.0640 C   0  0  0  0  0  0  0  0  0  0  0  0
  139.9480   69.2220  226.1410 C   0  0  0  0  0  0  0  0  0  0  0  0
  140.4760   69.5720  227.3620 C   0  0  0  0  0  0  0  0  0  0  0  0
  140.4570   68.4780  228.7220 Cl  0  0  0  0  0  0  0  0  0  0  0  0
  141.0380   70.8230  227.5260 C   0  0  0  0  0  0  0  0  0  0  0  0
  141.0730   71.7150  226.4810 C   0  0  0  0  0  0  0  0  0  0  0  0
  140.5380   71.3460  225.2600 C   0  0  0  0  0  0  0  0  0  0  0  0
  140.5760   72.2220  224.2430 N   0  0  0  0  0  0  0  0  0  0  0  0
  139.0140   74.3740  223.0550 H   0  0  0  0  0  0  0  0  0  0  0  0
  139.2592   74.6918  220.1105 H   0  0  0  0  0  0  0  0  0  0  0  0
  138.8086   75.9744  221.2705 H   0  0  0  0  0  0  0  0  0  0  0  0
  140.9319   78.4800  221.5512 H   0  0  0  0  0  0  0  0  0  0  0  0
  142.5430   78.3247  220.8179 H   0  0  0  0  0  0  0  0  0  0  0  0
  140.3836   79.9546  219.8657 H   0  0  0  0  0  0  0  0  0  0  0  0
  141.8521   79.6540  218.9835 H   0  0  0  0  0  0  0  0  0  0  0  0
  140.0189   78.5026  217.5880 H   0  0  0  0  0  0  0  0  0  0  0  0
  140.6967   76.1539  218.0934 H   0  0  0  0  0  0  0  0  0  0  0  0
  142.5230   77.3817  217.2293 H   0  0  0  0  0  0  0  0  0  0  0  0
  143.0006   77.7560  218.9746 H   0  0  0  0  0  0  0  0  0  0  0  0
  144.8837   75.8403  220.5127 H   0  0  0  0  0  0  0  0  0  0  0  0
  145.5209   73.8153  221.7187 H   0  0  0  0  0  0  0  0  0  0  0  0
  144.6115   71.6291  220.9671 H   0  0  0  0  0  0  0  0  0  0  0  0
  143.0837   71.5128  219.0297 H   0  0  0  0  0  0  0  0  0  0  0  0
  142.4611   73.5595  217.8358 H   0  0  0  0  0  0  0  0  0  0  0  0
  139.1005   70.4716  221.8246 H   0  0  0  0  0  0  0  0  0  0  0  0
  138.9884   68.7861  223.6568 H   0  0  0  0  0  0  0  0  0  0  0  0
  139.5002   68.2252  226.0153 H   0  0  0  0  0  0  0  0  0  0  0  0
  141.4609   71.1076  228.5007 H   0  0  0  0  0  0  0  0  0  0  0  0
  141.5212   72.7107  226.6141 H   0  0  0  0  0  0  0  0  0  0  0  0
  1  2  2  0
  2  3  1  0
  3  4  1  0
  4  5  1  0
  5  6  2  0
  5  7  1  0
  7  8  1  0
  8  9  1  0
  9 10  1  0
 10 11  1  0
 10 12  1  0
 12 13  1  0
 13 14  1  0
 14 15  1  0
 15 16  2  0
 16 17  1  0
 17 18  2  0
 18 19  1  0
 19 20  2  0
  2 21  1  0
 21 22  2  0
 22 23  1  0
 23 24  2  0
 24 25  1  0
 25 26  2  0
 26 27  1  0
 26 28  1  0
 28 29  2  0
 29 30  1  0
 30 31  2  0
 12  7  1  0
 20 15  1  0
 31 21  1  0
 30 24  1  0
  3 32  1  0
  4 33  1  0
  4 34  1  0
  8 35  1  0
  8 36  1  0
  9 37  1  0
  9 38  1  0
 10 39  1  6
 12 40  1  6
 13 41  1  0
 13 42  1  0
 16 43  1  0
 17 44  1  0
 18 45  1  0
 19 46  1  0
 20 47  1  0
 22 48  1  0
 23 49  1  0
 25 50  1  0
 28 51  1  0
 29 52  1  0
M  END
>  <smiles>  (39) 
O=C(NCC(=O)N1CC[C@H](F)[C@H]1COc1ccccc1)c1ccc2cc(Cl)ccc2n1

>  <score_type>  (39) 
oracle

>  <origin>  (39) 
autodockgpu

>  <m_score__min__energy>  (39) 
-8.2599999999999998

>  <m_primary>  (39) 
energy

>  <rmsd>  (39) 
2.386566824873279

>  <m_score__min__rmsd>  (39) 
2.386566824873279

>  <meeko>  (39) 
{"free_energy": -7.3, "intermolecular_energy": -9.39, "internal_energy": -2.12, "cluster_size": 14, "cluster_id": 2, "rank_in_cluster": 14}

>  <energy>  (39) 
-7.67

>  <cluster_rmsd>  (39) 
0.0

>  <cluster>  (39) 
5

$$$$

     RDKit          3D

 52 55  0  0  0  0  0  0  0  0999 V2000
  138.5720   72.0020  220.7820 O   0  0  0  0  0  0  0  0  0  0  0  0
  139.2560   72.3350  221.7850 C   0  0  0  0  0  0  0  0  0  0  0  0
  139.9300   73.5930  221.8420 N   0  0  0  0  0  0  0  0  0  0  0  0
  139.8210   74.5030  220.7170 C   0  0  0  0  0  0  0  0  0  0  0  0
  140.9840   75.4050  220.7420 C   0  0  0  0  0  0  0  0  0  0  0  0
  141.6290   75.6420  221.7930 O   0  0  0  0  0  0  0  0  0  0  0  0
  141.3970   76.0250  219.5580 N   0  0  0  0  0  0  0  0  0  0  0  0
  140.9620   75.8070  218.1740 C   0  0  0  0  0  0  0  0  0  0  0  0
  142.1010   76.2650  217.2790 C   0  0  0  0  0  0  0  0  0  0  0  0
  143.2050   76.5010  218.3000 C   0  0  2  0  0  0  0  0  0  0  0  0
  143.5370   75.1940  218.7340 F   0  0  0  0  0  0  0  0  0  0  0  0
  142.4220   77.1020  219.4120 C   0  0  1  0  0  0  0  0  0  0  0  0
  141.6730   78.3620  219.1480 C   0  0  0  0  0  0  0  0  0  0  0  0
  141.5940   79.2180  220.1600 O   0  0  0  0  0  0  0  0  0  0  0  0
  141.8190   79.4770  221.4400 C   0  0  0  0  0  0  0  0  0  0  0  0
  142.4920   80.5340  222.0070 C   0  0  0  0  0  0  0  0  0  0  0  0
  142.6810   80.7150  223.3490 C   0  0  0  0  0  0  0  0  0  0  0  0
  142.1610   79.7750  224.2040 C   0  0  0  0  0  0  0  0  0  0  0  0
  141.4740   78.6890  223.7210 C   0  0  0  0  0  0  0  0  0  0  0  0
  141.3070   78.5420  222.3730 C   0  0  0  0  0  0  0  0  0  0  0  0
  139.3880   71.4430  222.9330 C   0  0  0  0  0  0  0  0  0  0  0  0
  138.8350   70.1780  222.8850 C   0  0  0  0  0  0  0  0  0  0  0  0
  138.9410   69.3030  223.9590 C   0  0  0  0  0  0  0  0  0  0  0  0
  139.6150   69.7240  225.0850 C   0  0  0  0  0  0  0  0  0  0  0  0
  139.7730   68.9230  226.2060 C   0  0  0  0  0  0  0  0  0  0  0  0
  140.4510   69.3670  227.3180 C   0  0  0  0  0  0  0  0  0  0  0  0
  140.6550   68.3660  228.7330 Cl  0  0  0  0  0  0  0  0  0  0  0  0
  140.9880   70.6390  227.3230 C   0  0  0  0  0  0  0  0  0  0  0  0
  140.8490   71.4600  226.2290 C   0  0  0  0  0  0  0  0  0  0  0  0
  140.1650   70.9960  225.1200 C   0  0  0  0  0  0  0  0  0  0  0  0
  140.0340   71.8030  224.0540 N   0  0  0  0  0  0  0  0  0  0  0  0
  140.4950   73.8340  222.7050 H   0  0  0  0  0  0  0  0  0  0  0  0
  139.8118   73.9330  219.7763 H   0  0  0  0  0  0  0  0  0  0  0  0
  138.8886   75.0826  220.7855 H   0  0  0  0  0  0  0  0  0  0  0  0
  140.7539   74.7400  218.0060 H   0  0  0  0  0  0  0  0  0  0  0  0
  140.0400   76.3664  217.9571 H   0  0  0  0  0  0  0  0  0  0  0  0
  142.3821   75.4865  216.5545 H   0  0  0  0  0  0  0  0  0  0  0  0
  141.8634   77.1433  216.6608 H   0  0  0  0  0  0  0  0  0  0  0  0
  144.0801   77.0802  217.9702 H   0  0  0  0  0  0  0  0  0  0  0  0
  143.0868   77.3821  220.2424 H   0  0  0  0  0  0  0  0  0  0  0  0
  142.1661   78.8768  218.3102 H   0  0  0  0  0  0  0  0  0  0  0  0
  140.6378   78.0524  218.9416 H   0  0  0  0  0  0  0  0  0  0  0  0
  142.9104   81.2921  221.3286 H   0  0  0  0  0  0  0  0  0  0  0  0
  143.2324   81.5865  223.7317 H   0  0  0  0  0  0  0  0  0  0  0  0
  142.2965   79.8935  225.2892 H   0  0  0  0  0  0  0  0  0  0  0  0
  141.0607   77.9421  224.4147 H   0  0  0  0  0  0  0  0  0  0  0  0
  140.7556   77.6668  221.9990 H   0  0  0  0  0  0  0  0  0  0  0  0
  138.3003   69.8572  221.9788 H   0  0  0  0  0  0  0  0  0  0  0  0
  138.4973   68.2976  223.9117 H   0  0  0  0  0  0  0  0  0  0  0  0
  139.3464   67.9091  226.2062 H   0  0  0  0  0  0  0  0  0  0  0  0
  141.5314   70.9984  228.2093 H   0  0  0  0  0  0  0  0  0  0  0  0
  141.2765   72.4735  226.2356 H   0  0  0  0  0  0  0  0  0  0  0  0
  1  2  2  0
  2  3  1  0
  3  4  1  0
  4  5  1  0
  5  6  2  0
  5  7  1  0
  7  8  1  0
  8  9  1  0
  9 10  1  0
 10 11  1  0
 10 12  1  0
 12 13  1  0
 13 14  1  0
 14 15  1  0
 15 16  2  0
 16 17  1  0
 17 18  2  0
 18 19  1  0
 19 20  2  0
  2 21  1  0
 21 22  2  0
 22 23  1  0
 23 24  2  0
 24 25  1  0
 25 26  2  0
 26 27  1  0
 26 28  1  0
 28 29  2  0
 29 30  1  0
 30 31  2  0
 12  7  1  0
 20 15  1  0
 31 21  1  0
 30 24  1  0
  3 32  1  0
  4 33  1  0
  4 34  1  0
  8 35  1  0
  8 36  1  0
  9 37  1  0
  9 38  1  0
 10 39  1  6
 12 40  1  1
 13 41  1  0
 13 42  1  0
 16 43  1  0
 17 44  1  0
 18 45  1  0
 19 46  1  0
 20 47  1  0
 22 48  1  0
 23 49  1  0
 25 50  1  0
 28 51  1  0
 29 52  1  0
M  END
>  <smiles>  (40) 
O=C(NCC(=O)N1CC[C@H](F)[C@H]1COc1ccccc1)c1ccc2cc(Cl)ccc2n1

>  <score_type>  (40) 
oracle

>  <origin>  (40) 
autodockgpu

>  <m_score__min__energy>  (40) 
-8.2599999999999998

>  <m_primary>  (40) 
energy

>  <rmsd>  (40) 
1.5688137384664553

>  <m_score__min__rmsd>  (40) 
1.5688137384664553

>  <meeko>  (40) 
{"free_energy": -7.56, "intermolecular_energy": -9.65, "internal_energy": -2.15, "cluster_size": 14, "cluster_id": 1, "rank_in_cluster": 12}

>  <energy>  (40) 
-7.66

>  <cluster_rmsd>  (40) 
0.24

>  <cluster>  (40) 
5

$$$$

     RDKit          3D

 52 55  0  0  0  0  0  0  0  0999 V2000
  141.3860   74.1030  221.3360 O   0  0  0  0  0  0  0  0  0  0  0  0
  140.3260   74.4410  221.9260 C   0  0  0  0  0  0  0  0  0  0  0  0
  139.3690   73.4690  222.3510 N   0  0  0  0  0  0  0  0  0  0  0  0
  139.6280   72.0650  222.0940 C   0  0  0  0  0  0  0  0  0  0  0  0
  138.7390   71.2690  222.9560 C   0  0  0  0  0  0  0  0  0  0  0  0
  137.9950   71.7940  223.8230 O   0  0  0  0  0  0  0  0  0  0  0  0
  138.7100   69.8780  222.8150 N   0  0  0  0  0  0  0  0  0  0  0  0
  139.2760   69.0210  221.7680 C   0  0  0  0  0  0  0  0  0  0  0  0
  138.4700   67.7330  221.7700 C   0  0  0  0  0  0  0  0  0  0  0  0
  137.3320   68.0980  222.7140 C   0  0  2  0  0  0  0  0  0  0  0  0
  136.5780   69.0410  221.9750 F   0  0  0  0  0  0  0  0  0  0  0  0
  138.0690   68.8900  223.7340 C   0  0  1  0  0  0  0  0  0  0  0  0
  139.1780   68.2280  224.4770 C   0  0  0  0  0  0  0  0  0  0  0  0
  140.0620   69.0360  225.0500 O   0  0  0  0  0  0  0  0  0  0  0  0
  140.3130   69.9820  225.9440 C   0  0  0  0  0  0  0  0  0  0  0  0
  140.9950   71.1670  225.7860 C   0  0  0  0  0  0  0  0  0  0  0  0
  141.2110   72.0860  226.7750 C   0  0  0  0  0  0  0  0  0  0  0  0
  140.7110   71.8140  228.0250 C   0  0  0  0  0  0  0  0  0  0  0  0
  140.0170   70.6550  228.2680 C   0  0  0  0  0  0  0  0  0  0  0  0
  139.8230   69.7600  227.2540 C   0  0  0  0  0  0  0  0  0  0  0  0
  140.0340   75.8440  222.2000 C   0  0  0  0  0  0  0  0  0  0  0  0
  141.0680   76.7580  222.2700 C   0  0  0  0  0  0  0  0  0  0  0  0
  140.8270   78.1020  222.5290 C   0  0  0  0  0  0  0  0  0  0  0  0
  139.5250   78.5110  222.7160 C   0  0  0  0  0  0  0  0  0  0  0  0
  139.1850   79.8300  222.9800 C   0  0  0  0  0  0  0  0  0  0  0  0
  137.8760   80.2130  223.1630 C   0  0  0  0  0  0  0  0  0  0  0  0
  137.4380   81.8690  223.4950 Cl  0  0  0  0  0  0  0  0  0  0  0  0
  136.8730   79.2660  223.0850 C   0  0  0  0  0  0  0  0  0  0  0  0
  137.1750   77.9500  222.8260 C   0  0  0  0  0  0  0  0  0  0  0  0
  138.4960   77.5840  222.6440 C   0  0  0  0  0  0  0  0  0  0  0  0
  138.7830   76.2960  222.3910 N   0  0  0  0  0  0  0  0  0  0  0  0
  138.4910   73.7960  222.8450 H   0  0  0  0  0  0  0  0  0  0  0  0
  139.4253   71.8361  221.0373 H   0  0  0  0  0  0  0  0  0  0  0  0
  140.6801   71.8266  222.3093 H   0  0  0  0  0  0  0  0  0  0  0  0
  139.1957   69.5162  220.7891 H   0  0  0  0  0  0  0  0  0  0  0  0
  140.3410   68.8199  221.9561 H   0  0  0  0  0  0  0  0  0  0  0  0
  138.0971   67.4892  220.7643 H   0  0  0  0  0  0  0  0  0  0  0  0
  139.0411   66.8434  222.0739 H   0  0  0  0  0  0  0  0  0  0  0  0
  136.7205   67.2722  223.1065 H   0  0  0  0  0  0  0  0  0  0  0  0
  137.3893   69.2065  224.5389 H   0  0  0  0  0  0  0  0  0  0  0  0
  138.7297   67.6067  225.2663 H   0  0  0  0  0  0  0  0  0  0  0  0
  139.7423   67.6613  223.7217 H   0  0  0  0  0  0  0  0  0  0  0  0
  141.3972   71.3920  224.7872 H   0  0  0  0  0  0  0  0  0  0  0  0
  141.7675   73.0137  226.5759 H   0  0  0  0  0  0  0  0  0  0  0  0
  140.8687   72.5340  228.8415 H   0  0  0  0  0  0  0  0  0  0  0  0
  139.6196   70.4480  229.2726 H   0  0  0  0  0  0  0  0  0  0  0  0
  139.2665   68.8343  227.4626 H   0  0  0  0  0  0  0  0  0  0  0  0
  142.1020   76.4151  222.1178 H   0  0  0  0  0  0  0  0  0  0  0  0
  141.6566   78.8223  222.5834 H   0  0  0  0  0  0  0  0  0  0  0  0
  139.9803   80.5872  223.0445 H   0  0  0  0  0  0  0  0  0  0  0  0
  135.8252   79.5672  223.2312 H   0  0  0  0  0  0  0  0  0  0  0  0
  136.3753   77.1972  222.7643 H   0  0  0  0  0  0  0  0  0  0  0  0
  1  2  2  0
  2  3  1  0
  3  4  1  0
  4  5  1  0
  5  6  2  0
  5  7  1  0
  7  8  1  0
  8  9  1  0
  9 10  1  0
 10 11  1  0
 10 12  1  0
 12 13  1  0
 13 14  1  0
 14 15  1  0
 15 16  2  0
 16 17  1  0
 17 18  2  0
 18 19  1  0
 19 20  2  0
  2 21  1  0
 21 22  2  0
 22 23  1  0
 23 24  2  0
 24 25  1  0
 25 26  2  0
 26 27  1  0
 26 28  1  0
 28 29  2  0
 29 30  1  0
 30 31  2  0
 12  7  1  0
 20 15  1  0
 31 21  1  0
 30 24  1  0
  3 32  1  0
  4 33  1  0
  4 34  1  0
  8 35  1  0
  8 36  1  0
  9 37  1  0
  9 38  1  0
 10 39  1  1
 12 40  1  1
 13 41  1  0
 13 42  1  0
 16 43  1  0
 17 44  1  0
 18 45  1  0
 19 46  1  0
 20 47  1  0
 22 48  1  0
 23 49  1  0
 25 50  1  0
 28 51  1  0
 29 52  1  0
M  END
>  <smiles>  (41) 
O=C(NCC(=O)N1CC[C@H](F)[C@H]1COc1ccccc1)c1ccc2cc(Cl)ccc2n1

>  <score_type>  (41) 
oracle

>  <origin>  (41) 
autodockgpu

>  <m_score__min__energy>  (41) 
-8.2599999999999998

>  <m_primary>  (41) 
energy

>  <rmsd>  (41) 
8.417547554476846

>  <m_score__min__rmsd>  (41) 
8.417547554476846

>  <meeko>  (41) 
{"free_energy": -7.08, "intermolecular_energy": -9.17, "internal_energy": -2.35, "cluster_size": 6, "cluster_id": 4, "rank_in_cluster": 6}

>  <energy>  (41) 
-7.61

>  <cluster_rmsd>  (41) 
0.57

>  <cluster>  (41) 
5

$$$$

     RDKit          3D

 52 55  0  0  0  0  0  0  0  0999 V2000
  139.5920   71.4350  220.7090 O   0  0  0  0  0  0  0  0  0  0  0  0
  139.5820   71.9180  221.8720 C   0  0  0  0  0  0  0  0  0  0  0  0
  139.4610   73.3250  222.0910 N   0  0  0  0  0  0  0  0  0  0  0  0
  139.3480   74.2100  220.9480 C   0  0  0  0  0  0  0  0  0  0  0  0
  140.5430   75.0680  220.9120 C   0  0  0  0  0  0  0  0  0  0  0  0
  141.2850   75.2300  221.9130 O   0  0  0  0  0  0  0  0  0  0  0  0
  140.8770   75.7310  219.7260 N   0  0  0  0  0  0  0  0  0  0  0  0
  140.1970   75.7460  218.4270 C   0  0  0  0  0  0  0  0  0  0  0  0
  141.2480   76.0910  217.3850 C   0  0  0  0  0  0  0  0  0  0  0  0
  142.5230   76.0160  218.2140 C   0  0  2  0  0  0  0  0  0  0  0  0
  142.6620   74.6310  218.4800 F   0  0  0  0  0  0  0  0  0  0  0  0
  142.0540   76.6200  219.4890 C   0  0  1  0  0  0  0  0  0  0  0  0
  141.5280   78.0130  219.4590 C   0  0  0  0  0  0  0  0  0  0  0  0
  141.1830   78.5330  220.6320 O   0  0  0  0  0  0  0  0  0  0  0  0
  141.5600   79.0110  221.8090 C   0  0  0  0  0  0  0  0  0  0  0  0
  141.4010   78.4620  223.0600 C   0  0  0  0  0  0  0  0  0  0  0  0
  141.8200   79.0360  224.2280 C   0  0  0  0  0  0  0  0  0  0  0  0
  142.4510   80.2530  224.1560 C   0  0  0  0  0  0  0  0  0  0  0  0
  142.6520   80.8700  222.9460 C   0  0  0  0  0  0  0  0  0  0  0  0
  142.2170   80.2660  221.8000 C   0  0  0  0  0  0  0  0  0  0  0  0
  139.6940   71.0560  223.0450 C   0  0  0  0  0  0  0  0  0  0  0  0
  139.1650   69.7800  223.0100 C   0  0  0  0  0  0  0  0  0  0  0  0
  139.2530   68.9330  224.1080 C   0  0  0  0  0  0  0  0  0  0  0  0
  139.8840   69.3920  225.2430 C   0  0  0  0  0  0  0  0  0  0  0  0
  140.0210   68.6210  226.3870 C   0  0  0  0  0  0  0  0  0  0  0  0
  140.6570   69.1030  227.5080 C   0  0  0  0  0  0  0  0  0  0  0  0
  140.8350   68.1400  228.9530 Cl  0  0  0  0  0  0  0  0  0  0  0  0
  141.1710   70.3850  227.4990 C   0  0  0  0  0  0  0  0  0  0  0  0
  141.0520   71.1760  226.3820 C   0  0  0  0  0  0  0  0  0  0  0  0
  140.4110   70.6750  225.2640 C   0  0  0  0  0  0  0  0  0  0  0  0
  140.2990   71.4540  224.1760 N   0  0  0  0  0  0  0  0  0  0  0  0
  139.4560   73.6900  223.0860 H   0  0  0  0  0  0  0  0  0  0  0  0
  139.2866   73.6179  220.0230 H   0  0  0  0  0  0  0  0  0  0  0  0
  138.4402   74.8255  221.0319 H   0  0  0  0  0  0  0  0  0  0  0  0
  139.7638   74.7574  218.2149 H   0  0  0  0  0  0  0  0  0  0  0  0
  139.3776   76.4798  218.4190 H   0  0  0  0  0  0  0  0  0  0  0  0
  141.2573   75.3588  216.5642 H   0  0  0  0  0  0  0  0  0  0  0  0
  141.0895   77.0592  216.8876 H   0  0  0  0  0  0  0  0  0  0  0  0
  143.4302   76.4648  217.7832 H   0  0  0  0  0  0  0  0  0  0  0  0
  142.8820   76.6862  220.2102 H   0  0  0  0  0  0  0  0  0  0  0  0
  142.3056   78.6565  219.0218 H   0  0  0  0  0  0  0  0  0  0  0  0
  140.5988   77.9654  218.8722 H   0  0  0  0  0  0  0  0  0  0  0  0
  140.8980   77.4860  223.1259 H   0  0  0  0  0  0  0  0  0  0  0  0
  141.6566   78.5382  225.1952 H   0  0  0  0  0  0  0  0  0  0  0  0
  142.7998   80.7397  225.0788 H   0  0  0  0  0  0  0  0  0  0  0  0
  143.1601   81.8445  222.8994 H   0  0  0  0  0  0  0  0  0  0  0  0
  142.3827   80.7718  220.8373 H   0  0  0  0  0  0  0  0  0  0  0  0
  138.6648   69.4281  222.0957 H   0  0  0  0  0  0  0  0  0  0  0  0
  138.8284   67.9189  224.0716 H   0  0  0  0  0  0  0  0  0  0  0  0
  139.6117   67.6001  226.3989 H   0  0  0  0  0  0  0  0  0  0  0  0
  141.6794   70.7756  228.3928 H   0  0  0  0  0  0  0  0  0  0  0  0
  141.4622   72.1967  226.3772 H   0  0  0  0  0  0  0  0  0  0  0  0
  1  2  2  0
  2  3  1  0
  3  4  1  0
  4  5  1  0
  5  6  2  0
  5  7  1  0
  7  8  1  0
  8  9  1  0
  9 10  1  0
 10 11  1  0
 10 12  1  0
 12 13  1  0
 13 14  1  0
 14 15  1  0
 15 16  2  0
 16 17  1  0
 17 18  2  0
 18 19  1  0
 19 20  2  0
  2 21  1  0
 21 22  2  0
 22 23  1  0
 23 24  2  0
 24 25  1  0
 25 26  2  0
 26 27  1  0
 26 28  1  0
 28 29  2  0
 29 30  1  0
 30 31  2  0
 12  7  1  0
 20 15  1  0
 31 21  1  0
 30 24  1  0
  3 32  1  0
  4 33  1  0
  4 34  1  0
  8 35  1  0
  8 36  1  0
  9 37  1  0
  9 38  1  0
 10 39  1  6
 12 40  1  1
 13 41  1  0
 13 42  1  0
 16 43  1  0
 17 44  1  0
 18 45  1  0
 19 46  1  0
 20 47  1  0
 22 48  1  0
 23 49  1  0
 25 50  1  0
 28 51  1  0
 29 52  1  0
M  END
>  <smiles>  (42) 
O=C(NCC(=O)N1CC[C@H](F)[C@H]1COc1ccccc1)c1ccc2cc(Cl)ccc2n1

>  <score_type>  (42) 
oracle

>  <origin>  (42) 
autodockgpu

>  <m_score__min__energy>  (42) 
-8.2599999999999998

>  <m_primary>  (42) 
energy

>  <rmsd>  (42) 
1.1953808508828128

>  <m_score__min__rmsd>  (42) 
1.1953808508828128

>  <meeko>  (42) 
{"free_energy": -8.06, "intermolecular_energy": -10.15, "internal_energy": -1.71, "cluster_size": 14, "cluster_id": 1, "rank_in_cluster": 4}

>  <energy>  (42) 
-7.57

>  <cluster_rmsd>  (42) 
0.83

>  <cluster>  (42) 
5

$$$$

     RDKit          3D

 52 55  0  0  0  0  0  0  0  0999 V2000
  139.9530   74.1410  221.9630 O   0  0  0  0  0  0  0  0  0  0  0  0
  140.2650   75.3530  221.8320 C   0  0  0  0  0  0  0  0  0  0  0  0
  141.5290   75.7420  221.2910 N   0  0  0  0  0  0  0  0  0  0  0  0
  142.4680   74.7130  220.8850 C   0  0  0  0  0  0  0  0  0  0  0  0
  143.1980   75.1990  219.7030 C   0  0  0  0  0  0  0  0  0  0  0  0
  144.3750   74.8430  219.4460 O   0  0  0  0  0  0  0  0  0  0  0  0
  142.5690   76.0890  218.8250 N   0  0  0  0  0  0  0  0  0  0  0  0
  141.4380   75.8800  217.9160 C   0  0  0  0  0  0  0  0  0  0  0  0
  141.5600   76.9220  216.8160 C   0  0  0  0  0  0  0  0  0  0  0  0
  142.9380   77.5000  217.1070 C   0  0  2  0  0  0  0  0  0  0  0  0
  143.8190   76.4460  216.7610 F   0  0  0  0  0  0  0  0  0  0  0  0
  142.9140   77.5240  218.5940 C   0  0  1  0  0  0  0  0  0  0  0  0
  141.8540   78.3240  219.2700 C   0  0  0  0  0  0  0  0  0  0  0  0
  142.0180   78.5290  220.5720 O   0  0  0  0  0  0  0  0  0  0  0  0
  142.1280   79.3900  221.5740 C   0  0  0  0  0  0  0  0  0  0  0  0
  142.6310   79.1910  222.8380 C   0  0  0  0  0  0  0  0  0  0  0  0
  142.6990   80.1450  223.8150 C   0  0  0  0  0  0  0  0  0  0  0  0
  142.2320   81.4020  223.5190 C   0  0  0  0  0  0  0  0  0  0  0  0
  141.7140   81.6860  222.2800 C   0  0  0  0  0  0  0  0  0  0  0  0
  141.6620   80.7050  221.3300 C   0  0  0  0  0  0  0  0  0  0  0  0
  139.3440   76.4140  222.2300 C   0  0  0  0  0  0  0  0  0  0  0  0
  137.9850   76.2430  222.0510 C   0  0  0  0  0  0  0  0  0  0  0  0
  137.0790   77.2300  222.4190 C   0  0  0  0  0  0  0  0  0  0  0  0
  137.5650   78.3950  222.9700 C   0  0  0  0  0  0  0  0  0  0  0  0
  136.7410   79.4370  223.3670 C   0  0  0  0  0  0  0  0  0  0  0  0
  137.2520   80.5910  223.9150 C   0  0  0  0  0  0  0  0  0  0  0  0
  136.2230   81.9070  224.4180 Cl  0  0  0  0  0  0  0  0  0  0  0  0
  138.6180   80.7200  224.0750 C   0  0  0  0  0  0  0  0  0  0  0  0
  139.4640   79.7070  223.6930 C   0  0  0  0  0  0  0  0  0  0  0  0
  138.9320   78.5540  223.1440 C   0  0  0  0  0  0  0  0  0  0  0  0
  139.7650   77.5680  222.7720 N   0  0  0  0  0  0  0  0  0  0  0  0
  141.7510   76.7730  221.1970 H   0  0  0  0  0  0  0  0  0  0  0  0
  143.1754   74.5105  221.7026 H   0  0  0  0  0  0  0  0  0  0  0  0
  141.9327   73.7823  220.6456 H   0  0  0  0  0  0  0  0  0  0  0  0
  141.4799   74.8685  217.4857 H   0  0  0  0  0  0  0  0  0  0  0  0
  140.4805   75.9784  218.4484 H   0  0  0  0  0  0  0  0  0  0  0  0
  141.5188   76.4612  215.8180 H   0  0  0  0  0  0  0  0  0  0  0  0
  140.7506   77.6669  216.8083 H   0  0  0  0  0  0  0  0  0  0  0  0
  143.1956   78.4529  216.6215 H   0  0  0  0  0  0  0  0  0  0  0  0
  143.8423   77.9649  218.9863 H   0  0  0  0  0  0  0  0  0  0  0  0
  141.8094   79.3068  218.7780 H   0  0  0  0  0  0  0  0  0  0  0  0
  140.9321   77.7310  219.1779 H   0  0  0  0  0  0  0  0  0  0  0  0
  143.0078   78.1868  223.0821 H   0  0  0  0  0  0  0  0  0  0  0  0
  143.1146   79.9130  224.8067 H   0  0  0  0  0  0  0  0  0  0  0  0
  142.2735   82.1911  224.2843 H   0  0  0  0  0  0  0  0  0  0  0  0
  141.3432   82.6965  222.0533 H   0  0  0  0  0  0  0  0  0  0  0  0
  141.2436   80.9451  220.3414 H   0  0  0  0  0  0  0  0  0  0  0  0
  137.6129   75.3072  221.6085 H   0  0  0  0  0  0  0  0  0  0  0  0
  135.9984   77.0843  222.2737 H   0  0  0  0  0  0  0  0  0  0  0  0
  135.6527   79.3387  223.2409 H   0  0  0  0  0  0  0  0  0  0  0  0
  139.0317   81.6410  224.5117 H   0  0  0  0  0  0  0  0  0  0  0  0
  140.5514   79.8115  223.8222 H   0  0  0  0  0  0  0  0  0  0  0  0
  1  2  2  0
  2  3  1  0
  3  4  1  0
  4  5  1  0
  5  6  2  0
  5  7  1  0
  7  8  1  0
  8  9  1  0
  9 10  1  0
 10 11  1  0
 10 12  1  0
 12 13  1  0
 13 14  1  0
 14 15  1  0
 15 16  2  0
 16 17  1  0
 17 18  2  0
 18 19  1  0
 19 20  2  0
  2 21  1  0
 21 22  2  0
 22 23  1  0
 23 24  2  0
 24 25  1  0
 25 26  2  0
 26 27  1  0
 26 28  1  0
 28 29  2  0
 29 30  1  0
 30 31  2  0
 12  7  1  0
 20 15  1  0
 31 21  1  0
 30 24  1  0
  3 32  1  0
  4 33  1  0
  4 34  1  0
  8 35  1  0
  8 36  1  0
  9 37  1  0
  9 38  1  0
 10 39  1  6
 12 40  1  1
 13 41  1  0
 13 42  1  0
 16 43  1  0
 17 44  1  0
 18 45  1  0
 19 46  1  0
 20 47  1  0
 22 48  1  0
 23 49  1  0
 25 50  1  0
 28 51  1  0
 29 52  1  0
M  END
>  <smiles>  (43) 
O=C(NCC(=O)N1CC[C@H](F)[C@H]1COc1ccccc1)c1ccc2cc(Cl)ccc2n1

>  <score_type>  (43) 
oracle

>  <origin>  (43) 
autodockgpu

>  <m_score__min__energy>  (43) 
-8.2599999999999998

>  <m_primary>  (43) 
energy

>  <rmsd>  (43) 
6.7912706496673065

>  <m_score__min__rmsd>  (43) 
6.7912706496673065

>  <meeko>  (43) 
{"free_energy": -6.59, "intermolecular_energy": -8.67, "internal_energy": -3.38, "cluster_size": 6, "cluster_id": 6, "rank_in_cluster": 1}

>  <energy>  (43) 
-6.7

>  <cluster_rmsd>  (43) 
1.97

>  <cluster>  (43) 
5

$$$$

     RDKit          3D

 52 55  0  0  0  0  0  0  0  0999 V2000
  139.2230   71.8760  220.7470 O   0  0  0  0  0  0  0  0  0  0  0  0
  139.3950   72.3050  221.9180 C   0  0  0  0  0  0  0  0  0  0  0  0
  139.4510   73.7060  222.1960 N   0  0  0  0  0  0  0  0  0  0  0  0
  139.3070   74.6480  221.1020 C   0  0  0  0  0  0  0  0  0  0  0  0
  140.3970   75.6330  221.1990 C   0  0  0  0  0  0  0  0  0  0  0  0
  140.8730   76.0030  222.3010 O   0  0  0  0  0  0  0  0  0  0  0  0
  140.9300   76.1830  220.0280 N   0  0  0  0  0  0  0  0  0  0  0  0
  140.4130   76.1700  218.6560 C   0  0  0  0  0  0  0  0  0  0  0  0
  141.6090   76.3510  217.7350 C   0  0  0  0  0  0  0  0  0  0  0  0
  142.7630   76.2200  218.7180 C   0  0  2  0  0  0  0  0  0  0  0  0
  142.7380   74.8500  219.0770 F   0  0  0  0  0  0  0  0  0  0  0  0
  142.2060   76.9470  219.8890 C   0  0  1  0  0  0  0  0  0  0  0  0
  141.8220   78.3760  219.7170 C   0  0  0  0  0  0  0  0  0  0  0  0
  141.4180   79.0100  220.8110 O   0  0  0  0  0  0  0  0  0  0  0  0
  141.7350   79.7000  221.8970 C   0  0  0  0  0  0  0  0  0  0  0  0
  142.9310   79.7560  222.5730 C   0  0  0  0  0  0  0  0  0  0  0  0
  143.1650   80.4980  223.6970 C   0  0  0  0  0  0  0  0  0  0  0  0
  142.1290   81.2490  224.1980 C   0  0  0  0  0  0  0  0  0  0  0  0
  140.9020   81.2510  223.5840 C   0  0  0  0  0  0  0  0  0  0  0  0
  140.7080   80.4960  222.4620 C   0  0  0  0  0  0  0  0  0  0  0  0
  139.5440   71.3860  223.0420 C   0  0  0  0  0  0  0  0  0  0  0  0
  139.1050   70.0810  222.9210 C   0  0  0  0  0  0  0  0  0  0  0  0
  139.2310   69.1780  223.9700 C   0  0  0  0  0  0  0  0  0  0  0  0
  139.8070   69.6110  225.1440 C   0  0  0  0  0  0  0  0  0  0  0  0
  139.9760   68.7840  226.2450 C   0  0  0  0  0  0  0  0  0  0  0  0
  140.5550   69.2420  227.4060 C   0  0  0  0  0  0  0  0  0  0  0  0
  140.7710   68.2090  228.7960 Cl  0  0  0  0  0  0  0  0  0  0  0  0
  140.9790   70.5540  227.4830 C   0  0  0  0  0  0  0  0  0  0  0  0
  140.8270   71.4000  226.4110 C   0  0  0  0  0  0  0  0  0  0  0  0
  140.2430   70.9230  225.2520 C   0  0  0  0  0  0  0  0  0  0  0  0
  140.0980   71.7560  224.2080 N   0  0  0  0  0  0  0  0  0  0  0  0
  139.5970   74.0250  223.1960 H   0  0  0  0  0  0  0  0  0  0  0  0
  139.3699   74.1159  220.1413 H   0  0  0  0  0  0  0  0  0  0  0  0
  138.3314   75.1528  221.1601 H   0  0  0  0  0  0  0  0  0  0  0  0
  139.9160   75.2111  218.4475 H   0  0  0  0  0  0  0  0  0  0  0  0
  139.6735   76.9702  218.5050 H   0  0  0  0  0  0  0  0  0  0  0  0
  141.6458   75.5676  216.9637 H   0  0  0  0  0  0  0  0  0  0  0  0
  141.6036   77.2941  217.1689 H   0  0  0  0  0  0  0  0  0  0  0  0
  143.7532   76.5574  218.3780 H   0  0  0  0  0  0  0  0  0  0  0  0
  142.9459   76.9884  220.7019 H   0  0  0  0  0  0  0  0  0  0  0  0
  142.6966   78.9132  219.3214 H   0  0  0  0  0  0  0  0  0  0  0  0
  140.9525   78.3682  219.0432 H   0  0  0  0  0  0  0  0  0  0  0  0
  143.7648   79.1568  222.1784 H   0  0  0  0  0  0  0  0  0  0  0  0
  144.1509   80.4940  224.1848 H   0  0  0  0  0  0  0  0  0  0  0  0
  142.2853   81.8558  225.1021 H   0  0  0  0  0  0  0  0  0  0  0  0
  140.0797   81.8567  223.9925 H   0  0  0  0  0  0  0  0  0  0  0  0
  139.7192   80.5065  221.9801 H   0  0  0  0  0  0  0  0  0  0  0  0
  138.6473   69.7509  221.9768 H   0  0  0  0  0  0  0  0  0  0  0  0
  138.8788   68.1412  223.8651 H   0  0  0  0  0  0  0  0  0  0  0  0
  139.6394   67.7383  226.1884 H   0  0  0  0  0  0  0  0  0  0  0  0
  141.4419   70.9246  228.4095 H   0  0  0  0  0  0  0  0  0  0  0  0
  141.1660   72.4446  226.4741 H   0  0  0  0  0  0  0  0  0  0  0  0
  1  2  2  0
  2  3  1  0
  3  4  1  0
  4  5  1  0
  5  6  2  0
  5  7  1  0
  7  8  1  0
  8  9  1  0
  9 10  1  0
 10 11  1  0
 10 12  1  0
 12 13  1  0
 13 14  1  0
 14 15  1  0
 15 16  2  0
 16 17  1  0
 17 18  2  0
 18 19  1  0
 19 20  2  0
  2 21  1  0
 21 22  2  0
 22 23  1  0
 23 24  2  0
 24 25  1  0
 25 26  2  0
 26 27  1  0
 26 28  1  0
 28 29  2  0
 29 30  1  0
 30 31  2  0
 12  7  1  0
 20 15  1  0
 31 21  1  0
 30 24  1  0
  3 32  1  0
  4 33  1  0
  4 34  1  0
  8 35  1  0
  8 36  1  0
  9 37  1  0
  9 38  1  0
 10 39  1  6
 12 40  1  1
 13 41  1  0
 13 42  1  0
 16 43  1  0
 17 44  1  0
 18 45  1  0
 19 46  1  0
 20 47  1  0
 22 48  1  0
 23 49  1  0
 25 50  1  0
 28 51  1  0
 29 52  1  0
M  END
>  <smiles>  (44) 
O=C(NCC(=O)N1CC[C@H](F)[C@H]1COc1ccccc1)c1ccc2cc(Cl)ccc2n1

>  <score_type>  (44) 
oracle

>  <origin>  (44) 
autodockgpu

>  <m_score__min__energy>  (44) 
-8.2599999999999998

>  <m_primary>  (44) 
energy

>  <rmsd>  (44) 
1.3982542458672595

>  <m_score__min__rmsd>  (44) 
1.3982542458672595

>  <meeko>  (44) 
{"free_energy": -8.26, "intermolecular_energy": -10.35, "internal_energy": -1.81, "cluster_size": 14, "cluster_id": 1, "rank_in_cluster": 1}

>  <energy>  (44) 
-6.59

>  <cluster_rmsd>  (44) 
0.0

>  <cluster>  (44) 
6

$$$$

     RDKit          3D

 52 55  0  0  0  0  0  0  0  0999 V2000
  136.3860   75.0680  221.5090 O   0  0  0  0  0  0  0  0  0  0  0  0
  137.5380   75.1320  222.0130 C   0  0  0  0  0  0  0  0  0  0  0  0
  138.2780   73.9510  222.3300 N   0  0  0  0  0  0  0  0  0  0  0  0
  137.6840   72.6540  222.0630 C   0  0  0  0  0  0  0  0  0  0  0  0
  138.5950   71.6180  222.5770 C   0  0  0  0  0  0  0  0  0  0  0  0
  139.7660   71.8780  222.9530 O   0  0  0  0  0  0  0  0  0  0  0  0
  138.1540   70.2930  222.6550 N   0  0  0  0  0  0  0  0  0  0  0  0
  137.9900   69.2870  221.6000 C   0  0  0  0  0  0  0  0  0  0  0  0
  136.9560   68.2910  222.1000 C   0  0  0  0  0  0  0  0  0  0  0  0
  136.4530   68.9910  223.3550 C   0  0  2  0  0  0  0  0  0  0  0  0
  135.7300   70.0990  222.8470 F   0  0  0  0  0  0  0  0  0  0  0  0
  137.7240   69.5550  223.8800 C   0  0  1  0  0  0  0  0  0  0  0  0
  138.8310   68.6140  224.2120 C   0  0  0  0  0  0  0  0  0  0  0  0
  139.7360   69.0570  225.0750 O   0  0  0  0  0  0  0  0  0  0  0  0
  140.0910   69.9660  225.9720 C   0  0  0  0  0  0  0  0  0  0  0  0
  140.8140   71.1220  225.7980 C   0  0  0  0  0  0  0  0  0  0  0  0
  141.1400   72.0030  226.7920 C   0  0  0  0  0  0  0  0  0  0  0  0
  140.7130   71.7190  228.0660 C   0  0  0  0  0  0  0  0  0  0  0  0
  139.9840   70.5860  228.3270 C   0  0  0  0  0  0  0  0  0  0  0  0
  139.6800   69.7290  227.3070 C   0  0  0  0  0  0  0  0  0  0  0  0
  138.1650   76.4190  222.2950 C   0  0  0  0  0  0  0  0  0  0  0  0
  137.3890   77.5620  222.3490 C   0  0  0  0  0  0  0  0  0  0  0  0
  137.9520   78.8040  222.6150 C   0  0  0  0  0  0  0  0  0  0  0  0
  139.3110   78.8770  222.8260 C   0  0  0  0  0  0  0  0  0  0  0  0
  139.9630   80.0710  223.0980 C   0  0  0  0  0  0  0  0  0  0  0  0
  141.3220   80.1180  223.3060 C   0  0  0  0  0  0  0  0  0  0  0  0
  142.1510   81.6140  223.6480 Cl  0  0  0  0  0  0  0  0  0  0  0  0
  142.0600   78.9510  223.2420 C   0  0  0  0  0  0  0  0  0  0  0  0
  141.4460   77.7510  222.9750 C   0  0  0  0  0  0  0  0  0  0  0  0
  140.0780   77.7240  222.7690 C   0  0  0  0  0  0  0  0  0  0  0  0
  139.4850   76.5470  222.5090 N   0  0  0  0  0  0  0  0  0  0  0  0
  139.2440   74.0490  222.7530 H   0  0  0  0  0  0  0  0  0  0  0  0
  136.7104   72.5787  222.5694 H   0  0  0  0  0  0  0  0  0  0  0  0
  137.5284   72.5218  220.9821 H   0  0  0  0  0  0  0  0  0  0  0  0
  137.6391   69.7641  220.6731 H   0  0  0  0  0  0  0  0  0  0  0  0
  138.9448   68.7874  221.3790 H   0  0  0  0  0  0  0  0  0  0  0  0
  136.1480   68.1470  221.3676 H   0  0  0  0  0  0  0  0  0  0  0  0
  137.3515   67.2796  222.2752 H   0  0  0  0  0  0  0  0  0  0  0  0
  135.8723   68.3877  224.0683 H   0  0  0  0  0  0  0  0  0  0  0  0
  137.5478   70.0735  224.8340 H   0  0  0  0  0  0  0  0  0  0  0  0
  138.3820   67.7029  224.6343 H   0  0  0  0  0  0  0  0  0  0  0  0
  139.3754   68.4548  223.2695 H   0  0  0  0  0  0  0  0  0  0  0  0
  141.1572   71.3569  224.7797 H   0  0  0  0  0  0  0  0  0  0  0  0
  141.7252   72.9095  226.5780 H   0  0  0  0  0  0  0  0  0  0  0  0
  140.9584   72.4083  228.8874 H   0  0  0  0  0  0  0  0  0  0  0  0
  139.6464   70.3690  229.3512 H   0  0  0  0  0  0  0  0  0  0  0  0
  139.0960   68.8239  227.5301 H   0  0  0  0  0  0  0  0  0  0  0  0
  136.3050   77.4866  222.1781 H   0  0  0  0  0  0  0  0  0  0  0  0
  137.3268   79.7081  222.6561 H   0  0  0  0  0  0  0  0  0  0  0  0
  139.3795   81.0021  223.1485 H   0  0  0  0  0  0  0  0  0  0  0  0
  143.1472   78.9831  223.4061 H   0  0  0  0  0  0  0  0  0  0  0  0
  142.0348   76.8232  222.9256 H   0  0  0  0  0  0  0  0  0  0  0  0
  1  2  2  0
  2  3  1  0
  3  4  1  0
  4  5  1  0
  5  6  2  0
  5  7  1  0
  7  8  1  0
  8  9  1  0
  9 10  1  0
 10 11  1  0
 10 12  1  0
 12 13  1  0
 13 14  1  0
 14 15  1  0
 15 16  2  0
 16 17  1  0
 17 18  2  0
 18 19  1  0
 19 20  2  0
  2 21  1  0
 21 22  2  0
 22 23  1  0
 23 24  2  0
 24 25  1  0
 25 26  2  0
 26 27  1  0
 26 28  1  0
 28 29  2  0
 29 30  1  0
 30 31  2  0
 12  7  1  0
 20 15  1  0
 31 21  1  0
 30 24  1  0
  3 32  1  0
  4 33  1  0
  4 34  1  0
  8 35  1  0
  8 36  1  0
  9 37  1  0
  9 38  1  0
 10 39  1  1
 12 40  1  1
 13 41  1  0
 13 42  1  0
 16 43  1  0
 17 44  1  0
 18 45  1  0
 19 46  1  0
 20 47  1  0
 22 48  1  0
 23 49  1  0
 25 50  1  0
 28 51  1  0
 29 52  1  0
M  END
>  <smiles>  (45) 
O=C(NCC(=O)N1CC[C@H](F)[C@H]1COc1ccccc1)c1ccc2cc(Cl)ccc2n1

>  <score_type>  (45) 
oracle

>  <origin>  (45) 
autodockgpu

>  <m_score__min__energy>  (45) 
-8.2599999999999998

>  <m_primary>  (45) 
energy

>  <rmsd>  (45) 
8.244078231206803

>  <m_score__min__rmsd>  (45) 
8.244078231206803

>  <meeko>  (45) 
{"free_energy": -7.53, "intermolecular_energy": -9.62, "internal_energy": -2.22, "cluster_size": 6, "cluster_id": 4, "rank_in_cluster": 3}

>  <energy>  (45) 
-6.54

>  <cluster_rmsd>  (45) 
0.22

>  <cluster>  (45) 
6

$$$$

     RDKit          3D

 52 55  0  0  0  0  0  0  0  0999 V2000
  137.8600   70.8560  221.2640 O   0  0  0  0  0  0  0  0  0  0  0  0
  138.4340   71.4000  222.2440 C   0  0  0  0  0  0  0  0  0  0  0  0
  138.6690   72.8090  222.2790 N   0  0  0  0  0  0  0  0  0  0  0  0
  138.2360   73.6250  221.1610 C   0  0  0  0  0  0  0  0  0  0  0  0
  139.3950   73.8510  220.2820 C   0  0  0  0  0  0  0  0  0  0  0  0
  139.8090   72.9790  219.4770 O   0  0  0  0  0  0  0  0  0  0  0  0
  140.0690   75.0750  220.3350 N   0  0  0  0  0  0  0  0  0  0  0  0
  140.0200   76.2220  219.4230 C   0  0  0  0  0  0  0  0  0  0  0  0
  141.3270   76.9770  219.5960 C   0  0  0  0  0  0  0  0  0  0  0  0
  142.1150   76.0100  220.4690 C   0  0  2  0  0  0  0  0  0  0  0  0
  142.3900   74.9280  219.5980 F   0  0  0  0  0  0  0  0  0  0  0  0
  141.0400   75.5270  221.3760 C   0  0  1  0  0  0  0  0  0  0  0  0
  140.3210   76.5270  222.2150 C   0  0  0  0  0  0  0  0  0  0  0  0
  141.0820   77.3810  222.8890 O   0  0  0  0  0  0  0  0  0  0  0  0
  141.4240   78.6370  223.1330 C   0  0  0  0  0  0  0  0  0  0  0  0
  142.6660   79.2250  223.0770 C   0  0  0  0  0  0  0  0  0  0  0  0
  142.9270   80.5380  223.3540 C   0  0  0  0  0  0  0  0  0  0  0  0
  141.8720   81.3400  223.7150 C   0  0  0  0  0  0  0  0  0  0  0  0
  140.5990   80.8340  223.7940 C   0  0  0  0  0  0  0  0  0  0  0  0
  140.3790   79.5150  223.5110 C   0  0  0  0  0  0  0  0  0  0  0  0
  138.8820   70.6090  223.3860 C   0  0  0  0  0  0  0  0  0  0  0  0
  138.6190   69.2530  223.4250 C   0  0  0  0  0  0  0  0  0  0  0  0
  139.0310   68.4690  224.4960 C   0  0  0  0  0  0  0  0  0  0  0  0
  139.7140   69.0750  225.5280 C   0  0  0  0  0  0  0  0  0  0  0  0
  140.1650   68.3770  226.6390 C   0  0  0  0  0  0  0  0  0  0  0  0
  140.8450   69.0050  227.6570 C   0  0  0  0  0  0  0  0  0  0  0  0
  141.4160   68.1350  229.0580 Cl  0  0  0  0  0  0  0  0  0  0  0  0
  141.0850   70.3630  227.5760 C   0  0  0  0  0  0  0  0  0  0  0  0
  140.6520   71.0850  226.4900 C   0  0  0  0  0  0  0  0  0  0  0  0
  139.9710   70.4370  225.4760 C   0  0  0  0  0  0  0  0  0  0  0  0
  139.5510   71.1490  224.4180 N   0  0  0  0  0  0  0  0  0  0  0  0
  139.1550   73.2260  223.1230 H   0  0  0  0  0  0  0  0  0  0  0  0
  137.4425   73.1042  220.6049 H   0  0  0  0  0  0  0  0  0  0  0  0
  137.8393   74.5853  221.5220 H   0  0  0  0  0  0  0  0  0  0  0  0
  139.9176   75.8755  218.3840 H   0  0  0  0  0  0  0  0  0  0  0  0
  139.1585   76.8680  219.6475 H   0  0  0  0  0  0  0  0  0  0  0  0
  141.8257   77.1459  218.6302 H   0  0  0  0  0  0  0  0  0  0  0  0
  141.2133   77.9830  220.0262 H   0  0  0  0  0  0  0  0  0  0  0  0
  143.0150   76.4004  220.9667 H   0  0  0  0  0  0  0  0  0  0  0  0
  141.4511   74.8314  222.1225 H   0  0  0  0  0  0  0  0  0  0  0  0
  139.6655   77.1117  221.5528 H   0  0  0  0  0  0  0  0  0  0  0  0
  139.7871   75.9420  222.9783 H   0  0  0  0  0  0  0  0  0  0  0  0
  143.5155   78.5893  222.7867 H   0  0  0  0  0  0  0  0  0  0  0  0
  143.9492   80.9394  223.2899 H   0  0  0  0  0  0  0  0  0  0  0  0
  142.0498   82.4012  223.9436 H   0  0  0  0  0  0  0  0  0  0  0  0
  139.7612   81.4855  224.0832 H   0  0  0  0  0  0  0  0  0  0  0  0
  139.3541   79.1215  223.5793 H   0  0  0  0  0  0  0  0  0  0  0  0
  138.0731   68.7852  222.5925 H   0  0  0  0  0  0  0  0  0  0  0  0
  138.8170   67.3903  224.5193 H   0  0  0  0  0  0  0  0  0  0  0  0
  139.9744   67.2958  226.7076 H   0  0  0  0  0  0  0  0  0  0  0  0
  141.6272   70.8705  228.3875 H   0  0  0  0  0  0  0  0  0  0  0  0
  140.8449   72.1662  226.4280 H   0  0  0  0  0  0  0  0  0  0  0  0
  1  2  2  0
  2  3  1  0
  3  4  1  0
  4  5  1  0
  5  6  2  0
  5  7  1  0
  7  8  1  0
  8  9  1  0
  9 10  1  0
 10 11  1  0
 10 12  1  0
 12 13  1  0
 13 14  1  0
 14 15  1  0
 15 16  2  0
 16 17  1  0
 17 18  2  0
 18 19  1  0
 19 20  2  0
  2 21  1  0
 21 22  2  0
 22 23  1  0
 23 24  2  0
 24 25  1  0
 25 26  2  0
 26 27  1  0
 26 28  1  0
 28 29  2  0
 29 30  1  0
 30 31  2  0
 12  7  1  0
 20 15  1  0
 31 21  1  0
 30 24  1  0
  3 32  1  0
  4 33  1  0
  4 34  1  0
  8 35  1  0
  8 36  1  0
  9 37  1  0
  9 38  1  0
 10 39  1  1
 12 40  1  1
 13 41  1  0
 13 42  1  0
 16 43  1  0
 17 44  1  0
 18 45  1  0
 19 46  1  0
 20 47  1  0
 22 48  1  0
 23 49  1  0
 25 50  1  0
 28 51  1  0
 29 52  1  0
M  END
>  <smiles>  (46) 
O=C(NCC(=O)N1CC[C@H](F)[C@H]1COc1ccccc1)c1ccc2cc(Cl)ccc2n1

>  <score_type>  (46) 
oracle

>  <origin>  (46) 
autodockgpu

>  <m_score__min__energy>  (46) 
-8.2599999999999998

>  <m_primary>  (46) 
energy

>  <rmsd>  (46) 
1.7903708440782256

>  <m_score__min__rmsd>  (46) 
1.7903708440782256

>  <meeko>  (46) 
{"free_energy": -7.96, "intermolecular_energy": -10.05, "internal_energy": -1.53, "cluster_size": 14, "cluster_id": 1, "rank_in_cluster": 6}

>  <energy>  (46) 
-6.45

>  <cluster_rmsd>  (46) 
0.31

>  <cluster>  (46) 
6

$$$$

     RDKit          3D

 52 55  0  0  0  0  0  0  0  0999 V2000
  140.1270   72.6730  220.5440 O   0  0  0  0  0  0  0  0  0  0  0  0
  139.9480   72.9980  221.7470 C   0  0  0  0  0  0  0  0  0  0  0  0
  139.7270   74.3580  222.1250 N   0  0  0  0  0  0  0  0  0  0  0  0
  139.7100   75.3820  221.0970 C   0  0  0  0  0  0  0  0  0  0  0  0
  140.4960   76.5290  221.5800 C   0  0  0  0  0  0  0  0  0  0  0  0
  140.6780   76.7530  222.8020 O   0  0  0  0  0  0  0  0  0  0  0  0
  141.0660   77.4080  220.6530 N   0  0  0  0  0  0  0  0  0  0  0  0
  141.4850   78.8050  220.8090 C   0  0  0  0  0  0  0  0  0  0  0  0
  141.4530   79.4300  219.4240 C   0  0  0  0  0  0  0  0  0  0  0  0
  140.7730   78.3320  218.6180 C   0  0  2  0  0  0  0  0  0  0  0  0
  139.4400   78.3490  219.0960 F   0  0  0  0  0  0  0  0  0  0  0  0
  141.3960   77.1260  219.2240 C   0  0  1  0  0  0  0  0  0  0  0  0
  142.8780   76.9860  219.1570 C   0  0  0  0  0  0  0  0  0  0  0  0
  143.3480   75.7440  219.1270 O   0  0  0  0  0  0  0  0  0  0  0  0
  143.7960   74.6910  219.7950 C   0  0  0  0  0  0  0  0  0  0  0  0
  144.9750   74.5380  220.4860 C   0  0  0  0  0  0  0  0  0  0  0  0
  145.3580   73.4030  221.1450 C   0  0  0  0  0  0  0  0  0  0  0  0
  144.5040   72.3270  221.1200 C   0  0  0  0  0  0  0  0  0  0  0  0
  143.3060   72.3960  220.4540 C   0  0  0  0  0  0  0  0  0  0  0  0
  142.9590   73.5480  219.8070 C   0  0  0  0  0  0  0  0  0  0  0  0
  139.9590   71.9940  222.8060 C   0  0  0  0  0  0  0  0  0  0  0  0
  139.4700   70.7260  222.5540 C   0  0  0  0  0  0  0  0  0  0  0  0
  139.4650   69.7450  223.5380 C   0  0  0  0  0  0  0  0  0  0  0  0
  139.9630   70.0620  224.7830 C   0  0  0  0  0  0  0  0  0  0  0  0
  140.0000   69.1510  225.8280 C   0  0  0  0  0  0  0  0  0  0  0  0
  140.5020   69.4930  227.0630 C   0  0  0  0  0  0  0  0  0  0  0  0
  140.5530   68.3540  228.3840 Cl  0  0  0  0  0  0  0  0  0  0  0  0
  140.9810   70.7720  227.2720 C   0  0  0  0  0  0  0  0  0  0  0  0
  140.9590   71.6990  226.2580 C   0  0  0  0  0  0  0  0  0  0  0  0
  140.4510   71.3380  225.0230 C   0  0  0  0  0  0  0  0  0  0  0  0
  140.4320   72.2500  224.0370 N   0  0  0  0  0  0  0  0  0  0  0  0
  139.5810   74.5880  223.1490 H   0  0  0  0  0  0  0  0  0  0  0  0
  140.1553   74.9883  220.1714 H   0  0  0  0  0  0  0  0  0  0  0  0
  138.6760   75.6913  220.8847 H   0  0  0  0  0  0  0  0  0  0  0  0
  140.7931   79.3353  221.4799 H   0  0  0  0  0  0  0  0  0  0  0  0
  142.4917   78.8686  221.2477 H   0  0  0  0  0  0  0  0  0  0  0  0
  140.8648   80.3595  219.4150 H   0  0  0  0  0  0  0  0  0  0  0  0
  142.4404   79.7256  219.0398 H   0  0  0  0  0  0  0  0  0  0  0  0
  140.8379   78.3991  217.5220 H   0  0  0  0  0  0  0  0  0  0  0  0
  141.0402   76.2165  218.7179 H   0  0  0  0  0  0  0  0  0  0  0  0
  143.2228   77.4976  218.2463 H   0  0  0  0  0  0  0  0  0  0  0  0
  143.2580   77.4226  220.0924 H   0  0  0  0  0  0  0  0  0  0  0  0
  145.6635   75.3955  220.5104 H   0  0  0  0  0  0  0  0  0  0  0  0
  146.3189   73.3529  221.6781 H   0  0  0  0  0  0  0  0  0  0  0  0
  144.7839   71.3990  221.6401 H   0  0  0  0  0  0  0  0  0  0  0  0
  142.6293   71.5289  220.4412 H   0  0  0  0  0  0  0  0  0  0  0  0
  141.9961   73.5896  219.2768 H   0  0  0  0  0  0  0  0  0  0  0  0
  139.0769   70.4887  221.5544 H   0  0  0  0  0  0  0  0  0  0  0  0
  139.0727   68.7390  223.3280 H   0  0  0  0  0  0  0  0  0  0  0  0
  139.6194   68.1317  225.6661 H   0  0  0  0  0  0  0  0  0  0  0  0
  141.3829   71.0502  228.2574 H   0  0  0  0  0  0  0  0  0  0  0  0
  141.3410   72.7167  226.4264 H   0  0  0  0  0  0  0  0  0  0  0  0
  1  2  2  0
  2  3  1  0
  3  4  1  0
  4  5  1  0
  5  6  2  0
  5  7  1  0
  7  8  1  0
  8  9  1  0
  9 10  1  0
 10 11  1  0
 10 12  1  0
 12 13  1  0
 13 14  1  0
 14 15  1  0
 15 16  2  0
 16 17  1  0
 17 18  2  0
 18 19  1  0
 19 20  2  0
  2 21  1  0
 21 22  2  0
 22 23  1  0
 23 24  2  0
 24 25  1  0
 25 26  2  0
 26 27  1  0
 26 28  1  0
 28 29  2  0
 29 30  1  0
 30 31  2  0
 12  7  1  0
 20 15  1  0
 31 21  1  0
 30 24  1  0
  3 32  1  0
  4 33  1  0
  4 34  1  0
  8 35  1  0
  8 36  1  0
  9 37  1  0
  9 38  1  0
 10 39  1  6
 12 40  1  6
 13 41  1  0
 13 42  1  0
 16 43  1  0
 17 44  1  0
 18 45  1  0
 19 46  1  0
 20 47  1  0
 22 48  1  0
 23 49  1  0
 25 50  1  0
 28 51  1  0
 29 52  1  0
M  END
>  <smiles>  (47) 
O=C(NCC(=O)N1CC[C@H](F)[C@H]1COc1ccccc1)c1ccc2cc(Cl)ccc2n1

>  <score_type>  (47) 
oracle

>  <origin>  (47) 
autodockgpu

>  <m_score__min__energy>  (47) 
-8.2599999999999998

>  <m_primary>  (47) 
energy

>  <rmsd>  (47) 
2.609773134238906

>  <m_score__min__rmsd>  (47) 
2.609773134238906

>  <meeko>  (47) 
{"free_energy": -7.71, "intermolecular_energy": -9.79, "internal_energy": -2.38, "cluster_size": 14, "cluster_id": 2, "rank_in_cluster": 8}

>  <energy>  (47) 
-6.45

>  <cluster_rmsd>  (47) 
0.32

>  <cluster>  (47) 
6

$$$$

     RDKit          3D

 52 55  0  0  0  0  0  0  0  0999 V2000
  140.5210   72.3810  220.6630 O   0  0  0  0  0  0  0  0  0  0  0  0
  140.1820   72.7550  221.8160 C   0  0  0  0  0  0  0  0  0  0  0  0
  139.8250   74.1120  222.0830 N   0  0  0  0  0  0  0  0  0  0  0  0
  139.8560   75.0760  220.9990 C   0  0  0  0  0  0  0  0  0  0  0  0
  140.3560   76.3520  221.5340 C   0  0  0  0  0  0  0  0  0  0  0  0
  140.1330   76.7210  222.7140 O   0  0  0  0  0  0  0  0  0  0  0  0
  141.1090   77.1940  220.7090 N   0  0  0  0  0  0  0  0  0  0  0  0
  141.6490   78.5340  220.9650 C   0  0  0  0  0  0  0  0  0  0  0  0
  141.8310   79.2000  219.6120 C   0  0  0  0  0  0  0  0  0  0  0  0
  141.1340   78.2050  218.6950 C   0  0  2  0  0  0  0  0  0  0  0  0
  139.7650   78.3480  219.0320 F   0  0  0  0  0  0  0  0  0  0  0  0
  141.5620   76.9220  219.3120 C   0  0  1  0  0  0  0  0  0  0  0  0
  143.0200   76.6290  219.3940 C   0  0  0  0  0  0  0  0  0  0  0  0
  143.3580   75.5060  220.0180 O   0  0  0  0  0  0  0  0  0  0  0  0
  144.1320   74.4320  220.0690 C   0  0  0  0  0  0  0  0  0  0  0  0
  143.9350   73.1920  219.5080 C   0  0  0  0  0  0  0  0  0  0  0  0
  144.7940   72.1340  219.6200 C   0  0  0  0  0  0  0  0  0  0  0  0
  145.9450   72.3150  220.3470 C   0  0  0  0  0  0  0  0  0  0  0  0
  146.2200   73.5220  220.9390 C   0  0  0  0  0  0  0  0  0  0  0  0
  145.3360   74.5560  220.8050 C   0  0  0  0  0  0  0  0  0  0  0  0
  140.1400   71.8120  222.9300 C   0  0  0  0  0  0  0  0  0  0  0  0
  139.6070   70.5510  222.7400 C   0  0  0  0  0  0  0  0  0  0  0  0
  139.5510   69.6280  223.7770 C   0  0  0  0  0  0  0  0  0  0  0  0
  140.0400   69.9960  225.0110 C   0  0  0  0  0  0  0  0  0  0  0  0
  140.0280   69.1450  226.1060 C   0  0  0  0  0  0  0  0  0  0  0  0
  140.5230   69.5370  227.3280 C   0  0  0  0  0  0  0  0  0  0  0  0
  140.5120   68.4730  228.7110 Cl  0  0  0  0  0  0  0  0  0  0  0  0
  141.0460   70.8070  227.4740 C   0  0  0  0  0  0  0  0  0  0  0  0
  141.0740   71.6760  226.4100 C   0  0  0  0  0  0  0  0  0  0  0  0
  140.5720   71.2650  225.1880 C   0  0  0  0  0  0  0  0  0  0  0  0
  140.6030   72.1200  224.1530 N   0  0  0  0  0  0  0  0  0  0  0  0
  139.5440   74.3850  223.0680 H   0  0  0  0  0  0  0  0  0  0  0  0
  140.5245   74.7188  220.2018 H   0  0  0  0  0  0  0  0  0  0  0  0
  138.8481   75.2085  220.5789 H   0  0  0  0  0  0  0  0  0  0  0  0
  140.9462   79.1141  221.5811 H   0  0  0  0  0  0  0  0  0  0  0  0
  142.6036   78.4775  221.5086 H   0  0  0  0  0  0  0  0  0  0  0  0
  141.3451   80.1863  219.5798 H   0  0  0  0  0  0  0  0  0  0  0  0
  142.8792   79.4010  219.3457 H   0  0  0  0  0  0  0  0  0  0  0  0
  141.3234   78.2983  217.6155 H   0  0  0  0  0  0  0  0  0  0  0  0
  141.1729   76.0705  218.7345 H   0  0  0  0  0  0  0  0  0  0  0  0
  143.4093   76.5725  218.3668 H   0  0  0  0  0  0  0  0  0  0  0  0
  143.4504   77.4421  219.9970 H   0  0  0  0  0  0  0  0  0  0  0  0
  143.0154   73.0395  218.9241 H   0  0  0  0  0  0  0  0  0  0  0  0
  144.5702   71.1685  219.1429 H   0  0  0  0  0  0  0  0  0  0  0  0
  146.6552   71.4821  220.4561 H   0  0  0  0  0  0  0  0  0  0  0  0
  147.1458   73.6566  221.5176 H   0  0  0  0  0  0  0  0  0  0  0  0
  145.5677   75.5180  221.2855 H   0  0  0  0  0  0  0  0  0  0  0  0
  139.2197   70.2728  221.7487 H   0  0  0  0  0  0  0  0  0  0  0  0
  139.1259   68.6263  223.6162 H   0  0  0  0  0  0  0  0  0  0  0  0
  139.6128   68.1325  225.9946 H   0  0  0  0  0  0  0  0  0  0  0  0
  141.4431   71.1251  228.4493 H   0  0  0  0  0  0  0  0  0  0  0  0
  141.4908   72.6871  226.5284 H   0  0  0  0  0  0  0  0  0  0  0  0
  1  2  2  0
  2  3  1  0
  3  4  1  0
  4  5  1  0
  5  6  2  0
  5  7  1  0
  7  8  1  0
  8  9  1  0
  9 10  1  0
 10 11  1  0
 10 12  1  0
 12 13  1  0
 13 14  1  0
 14 15  1  0
 15 16  2  0
 16 17  1  0
 17 18  2  0
 18 19  1  0
 19 20  2  0
  2 21  1  0
 21 22  2  0
 22 23  1  0
 23 24  2  0
 24 25  1  0
 25 26  2  0
 26 27  1  0
 26 28  1  0
 28 29  2  0
 29 30  1  0
 30 31  2  0
 12  7  1  0
 20 15  1  0
 31 21  1  0
 30 24  1  0
  3 32  1  0
  4 33  1  0
  4 34  1  0
  8 35  1  0
  8 36  1  0
  9 37  1  0
  9 38  1  0
 10 39  1  6
 12 40  1  6
 13 41  1  0
 13 42  1  0
 16 43  1  0
 17 44  1  0
 18 45  1  0
 19 46  1  0
 20 47  1  0
 22 48  1  0
 23 49  1  0
 25 50  1  0
 28 51  1  0
 29 52  1  0
M  END
>  <smiles>  (48) 
O=C(NCC(=O)N1CC[C@H](F)[C@H]1COc1ccccc1)c1ccc2cc(Cl)ccc2n1

>  <score_type>  (48) 
oracle

>  <origin>  (48) 
autodockgpu

>  <m_score__min__energy>  (48) 
-8.2599999999999998

>  <m_primary>  (48) 
energy

>  <rmsd>  (48) 
2.5768004024623434

>  <m_score__min__rmsd>  (48) 
2.5768004024623434

>  <meeko>  (48) 
{"free_energy": -8.24, "intermolecular_energy": -10.33, "internal_energy": -2.02, "cluster_size": 14, "cluster_id": 2, "rank_in_cluster": 1}

>  <energy>  (48) 
-6.28

>  <cluster_rmsd>  (48) 
0.76

>  <cluster>  (48) 
6

$$$$

     RDKit          3D

 52 55  0  0  0  0  0  0  0  0999 V2000
  140.8310   72.3700  220.6790 O   0  0  0  0  0  0  0  0  0  0  0  0
  140.3540   72.7280  221.7880 C   0  0  0  0  0  0  0  0  0  0  0  0
  139.8880   74.0620  222.0010 N   0  0  0  0  0  0  0  0  0  0  0  0
  139.9680   75.0200  220.9140 C   0  0  0  0  0  0  0  0  0  0  0  0
  140.3310   76.3280  221.4820 C   0  0  0  0  0  0  0  0  0  0  0  0
  139.9600   76.6910  222.6270 O   0  0  0  0  0  0  0  0  0  0  0  0
  141.1170   77.2080  220.7310 N   0  0  0  0  0  0  0  0  0  0  0  0
  141.5370   78.5840  221.0200 C   0  0  0  0  0  0  0  0  0  0  0  0
  141.8280   79.2440  219.6830 C   0  0  0  0  0  0  0  0  0  0  0  0
  141.3040   78.1940  218.7130 C   0  0  2  0  0  0  0  0  0  0  0  0
  139.9000   78.2510  218.8910 F   0  0  0  0  0  0  0  0  0  0  0  0
  141.7420   76.9490  219.3990 C   0  0  1  0  0  0  0  0  0  0  0  0
  143.1970   76.7540  219.6490 C   0  0  0  0  0  0  0  0  0  0  0  0
  143.7120   75.6010  219.2400 O   0  0  0  0  0  0  0  0  0  0  0  0
  143.9800   74.3290  219.5000 C   0  0  0  0  0  0  0  0  0  0  0  0
  143.8210   73.6310  220.6740 C   0  0  0  0  0  0  0  0  0  0  0  0
  144.1330   72.3110  220.8510 C   0  0  0  0  0  0  0  0  0  0  0  0
  144.6430   71.6220  219.7780 C   0  0  0  0  0  0  0  0  0  0  0  0
  144.8320   72.2440  218.5690 C   0  0  0  0  0  0  0  0  0  0  0  0
  144.5090   73.5640  218.4320 C   0  0  0  0  0  0  0  0  0  0  0  0
  140.2580   71.7910  222.9030 C   0  0  0  0  0  0  0  0  0  0  0  0
  139.6650   70.5570  222.7110 C   0  0  0  0  0  0  0  0  0  0  0  0
  139.5570   69.6400  223.7490 C   0  0  0  0  0  0  0  0  0  0  0  0
  140.0570   69.9860  224.9860 C   0  0  0  0  0  0  0  0  0  0  0  0
  139.9950   69.1380  226.0820 C   0  0  0  0  0  0  0  0  0  0  0  0
  140.5020   69.5080  227.3070 C   0  0  0  0  0  0  0  0  0  0  0  0
  140.4290   68.4480  228.6910 Cl  0  0  0  0  0  0  0  0  0  0  0  0
  141.0860   70.7510  227.4530 C   0  0  0  0  0  0  0  0  0  0  0  0
  141.1640   71.6150  226.3880 C   0  0  0  0  0  0  0  0  0  0  0  0
  140.6490   71.2270  225.1640 C   0  0  0  0  0  0  0  0  0  0  0  0
  140.7290   72.0770  224.1280 N   0  0  0  0  0  0  0  0  0  0  0  0
  139.4930   74.3210  222.9500 H   0  0  0  0  0  0  0  0  0  0  0  0
  140.7345   74.7015  220.1922 H   0  0  0  0  0  0  0  0  0  0  0  0
  139.0015   75.0862  220.3930 H   0  0  0  0  0  0  0  0  0  0  0  0
  140.7329   79.1237  221.5417 H   0  0  0  0  0  0  0  0  0  0  0  0
  142.4254   78.5976  221.6686 H   0  0  0  0  0  0  0  0  0  0  0  0
  141.2869   80.1958  219.5773 H   0  0  0  0  0  0  0  0  0  0  0  0
  142.8846   79.5101  219.5320 H   0  0  0  0  0  0  0  0  0  0  0  0
  141.6074   78.2862  217.6597 H   0  0  0  0  0  0  0  0  0  0  0  0
  141.4768   76.0663  218.7985 H   0  0  0  0  0  0  0  0  0  0  0  0
  143.7372   77.5636  219.1364 H   0  0  0  0  0  0  0  0  0  0  0  0
  143.3108   76.7560  220.7431 H   0  0  0  0  0  0  0  0  0  0  0  0
  143.4114   74.1760  221.5372 H   0  0  0  0  0  0  0  0  0  0  0  0
  143.9803   71.8170  221.8219 H   0  0  0  0  0  0  0  0  0  0  0  0
  144.9032   70.5590  219.8887 H   0  0  0  0  0  0  0  0  0  0  0  0
  145.2410   71.6829  217.7159 H   0  0  0  0  0  0  0  0  0  0  0  0
  144.6653   74.0501  217.4577 H   0  0  0  0  0  0  0  0  0  0  0  0
  139.2712   70.2963  221.7175 H   0  0  0  0  0  0  0  0  0  0  0  0
  139.0834   68.6604  223.5874 H   0  0  0  0  0  0  0  0  0  0  0  0
  139.5301   68.1474  225.9696 H   0  0  0  0  0  0  0  0  0  0  0  0
  141.4920   71.0516  228.4302 H   0  0  0  0  0  0  0  0  0  0  0  0
  141.6306   72.6040  226.5070 H   0  0  0  0  0  0  0  0  0  0  0  0
  1  2  2  0
  2  3  1  0
  3  4  1  0
  4  5  1  0
  5  6  2  0
  5  7  1  0
  7  8  1  0
  8  9  1  0
  9 10  1  0
 10 11  1  0
 10 12  1  0
 12 13  1  0
 13 14  1  0
 14 15  1  0
 15 16  2  0
 16 17  1  0
 17 18  2  0
 18 19  1  0
 19 20  2  0
  2 21  1  0
 21 22  2  0
 22 23  1  0
 23 24  2  0
 24 25  1  0
 25 26  2  0
 26 27  1  0
 26 28  1  0
 28 29  2  0
 29 30  1  0
 30 31  2  0
 12  7  1  0
 20 15  1  0
 31 21  1  0
 30 24  1  0
  3 32  1  0
  4 33  1  0
  4 34  1  0
  8 35  1  0
  8 36  1  0
  9 37  1  0
  9 38  1  0
 10 39  1  6
 12 40  1  6
 13 41  1  0
 13 42  1  0
 16 43  1  0
 17 44  1  0
 18 45  1  0
 19 46  1  0
 20 47  1  0
 22 48  1  0
 23 49  1  0
 25 50  1  0
 28 51  1  0
 29 52  1  0
M  END
>  <smiles>  (49) 
O=C(NCC(=O)N1CC[C@H](F)[C@H]1COc1ccccc1)c1ccc2cc(Cl)ccc2n1

>  <score_type>  (49) 
oracle

>  <origin>  (49) 
autodockgpu

>  <m_score__min__energy>  (49) 
-8.2599999999999998

>  <m_primary>  (49) 
energy

>  <rmsd>  (49) 
2.6299828711063897

>  <m_score__min__rmsd>  (49) 
2.6299828711063897

>  <meeko>  (49) 
{"free_energy": -7.41, "intermolecular_energy": -9.5, "internal_energy": -2.16, "cluster_size": 14, "cluster_id": 2, "rank_in_cluster": 13}

>  <energy>  (49) 
-6.25

>  <cluster_rmsd>  (49) 
0.39

>  <cluster>  (49) 
6

$$$$

     RDKit          3D

 52 55  0  0  0  0  0  0  0  0999 V2000
  133.8480   70.1260  226.5120 O   0  0  0  0  0  0  0  0  0  0  0  0
  134.0550   71.2670  226.0210 C   0  0  0  0  0  0  0  0  0  0  0  0
  134.9640   71.4550  224.9350 N   0  0  0  0  0  0  0  0  0  0  0  0
  135.6610   70.3050  224.3900 C   0  0  0  0  0  0  0  0  0  0  0  0
  136.6520   70.7880  223.4160 C   0  0  0  0  0  0  0  0  0  0  0  0
  136.5990   71.9400  222.9170 O   0  0  0  0  0  0  0  0  0  0  0  0
  137.6970   69.9450  223.0230 N   0  0  0  0  0  0  0  0  0  0  0  0
  138.9120   70.2380  222.2560 C   0  0  0  0  0  0  0  0  0  0  0  0
  139.3540   68.9310  221.6190 C   0  0  0  0  0  0  0  0  0  0  0  0
  138.1630   68.0330  221.9240 C   0  0  2  0  0  0  0  0  0  0  0  0
  137.1360   68.5550  221.0980 F   0  0  0  0  0  0  0  0  0  0  0  0
  137.8310   68.4830  223.3020 C   0  0  1  0  0  0  0  0  0  0  0  0
  138.8720   68.3520  224.3580 C   0  0  0  0  0  0  0  0  0  0  0  0
  139.2200   69.4720  224.9800 O   0  0  0  0  0  0  0  0  0  0  0  0
  139.8070   70.0520  226.0160 C   0  0  0  0  0  0  0  0  0  0  0  0
  139.8690   69.6350  227.3260 C   0  0  0  0  0  0  0  0  0  0  0  0
  140.4980   70.3090  228.3360 C   0  0  0  0  0  0  0  0  0  0  0  0
  141.1210   71.4930  228.0280 C   0  0  0  0  0  0  0  0  0  0  0  0
  141.1090   71.9810  226.7450 C   0  0  0  0  0  0  0  0  0  0  0  0
  140.4680   71.2790  225.7630 C   0  0  0  0  0  0  0  0  0  0  0  0
  133.3720   72.4460  226.5450 C   0  0  0  0  0  0  0  0  0  0  0  0
  132.1750   72.3000  227.2190 C   0  0  0  0  0  0  0  0  0  0  0  0
  131.4960   73.3990  227.7310 C   0  0  0  0  0  0  0  0  0  0  0  0
  132.0440   74.6500  227.5520 C   0  0  0  0  0  0  0  0  0  0  0  0
  131.4420   75.8060  228.0260 C   0  0  0  0  0  0  0  0  0  0  0  0
  132.0110   77.0450  227.8340 C   0  0  0  0  0  0  0  0  0  0  0  0
  131.2610   78.5050  228.4270 Cl  0  0  0  0  0  0  0  0  0  0  0  0
  133.2090   77.1440  227.1530 C   0  0  0  0  0  0  0  0  0  0  0  0
  133.8320   76.0190  226.6700 C   0  0  0  0  0  0  0  0  0  0  0  0
  133.2460   74.7830  226.8730 C   0  0  0  0  0  0  0  0  0  0  0  0
  133.8620   73.6870  226.3980 N   0  0  0  0  0  0  0  0  0  0  0  0
  135.1090   72.4320  224.5510 H   0  0  0  0  0  0  0  0  0  0  0  0
  136.1690   69.7596  225.1990 H   0  0  0  0  0  0  0  0  0  0  0  0
  134.9480   69.6247  223.9014 H   0  0  0  0  0  0  0  0  0  0  0  0
  138.6977   70.9853  221.4778 H   0  0  0  0  0  0  0  0  0  0  0  0
  139.7000   70.6473  222.9053 H   0  0  0  0  0  0  0  0  0  0  0  0
  139.5072   69.0426  220.5355 H   0  0  0  0  0  0  0  0  0  0  0  0
  140.3145   68.5487  221.9950 H   0  0  0  0  0  0  0  0  0  0  0  0
  138.3052   66.9492  221.8006 H   0  0  0  0  0  0  0  0  0  0  0  0
  136.9954   67.8934  223.7072 H   0  0  0  0  0  0  0  0  0  0  0  0
  138.4944   67.6504  225.1164 H   0  0  0  0  0  0  0  0  0  0  0  0
  139.7786   68.0107  223.8369 H   0  0  0  0  0  0  0  0  0  0  0  0
  139.3743   68.6860  227.5804 H   0  0  0  0  0  0  0  0  0  0  0  0
  140.5046   69.9149  229.3630 H   0  0  0  0  0  0  0  0  0  0  0  0
  141.6362   72.0576  228.8191 H   0  0  0  0  0  0  0  0  0  0  0  0
  141.6118   72.9305  226.5089 H   0  0  0  0  0  0  0  0  0  0  0  0
  140.4653   71.6814  224.7392 H   0  0  0  0  0  0  0  0  0  0  0  0
  131.7510   71.2939  227.3530 H   0  0  0  0  0  0  0  0  0  0  0  0
  130.5435   73.2729  228.2665 H   0  0  0  0  0  0  0  0  0  0  0  0
  130.4877   75.7313  228.5680 H   0  0  0  0  0  0  0  0  0  0  0  0
  133.6676   78.1315  226.9963 H   0  0  0  0  0  0  0  0  0  0  0  0
  134.7858   76.1004  226.1281 H   0  0  0  0  0  0  0  0  0  0  0  0
  1  2  2  0
  2  3  1  0
  3  4  1  0
  4  5  1  0
  5  6  2  0
  5  7  1  0
  7  8  1  0
  8  9  1  0
  9 10  1  0
 10 11  1  0
 10 12  1  0
 12 13  1  0
 13 14  1  0
 14 15  1  0
 15 16  2  0
 16 17  1  0
 17 18  2  0
 18 19  1  0
 19 20  2  0
  2 21  1  0
 21 22  2  0
 22 23  1  0
 23 24  2  0
 24 25  1  0
 25 26  2  0
 26 27  1  0
 26 28  1  0
 28 29  2  0
 29 30  1  0
 30 31  2  0
 12  7  1  0
 20 15  1  0
 31 21  1  0
 30 24  1  0
  3 32  1  0
  4 33  1  0
  4 34  1  0
  8 35  1  0
  8 36  1  0
  9 37  1  0
  9 38  1  0
 10 39  1  1
 12 40  1  1
 13 41  1  0
 13 42  1  0
 16 43  1  0
 17 44  1  0
 18 45  1  0
 19 46  1  0
 20 47  1  0
 22 48  1  0
 23 49  1  0
 25 50  1  0
 28 51  1  0
 29 52  1  0
M  END
>  <smiles>  (50) 
O=C(NCC(=O)N1CC[C@H](F)[C@H]1COc1ccccc1)c1ccc2cc(Cl)ccc2n1

>  <score_type>  (50) 
oracle

>  <origin>  (50) 
autodockgpu

>  <m_score__min__energy>  (50) 
-8.2599999999999998

>  <m_primary>  (50) 
energy

>  <rmsd>  (50) 
8.52716136845863

>  <m_score__min__rmsd>  (50) 
8.52716136845863

>  <meeko>  (50) 
{"free_energy": -7.66, "intermolecular_energy": -9.75, "internal_energy": -2.15, "cluster_size": 5, "cluster_id": 5, "rank_in_cluster": 2}

>  <energy>  (50) 
-6.43

>  <cluster_rmsd>  (50) 
0.0

>  <cluster>  (50) 
7

$$$$
