
     RDKit          3D

 66 69  0  0  0  0  0  0  0  0999 V2000
  143.0550   80.5430  223.4100 C   0  0  0  0  0  0  0  0  0  0  0  0
  141.7870   81.2860  223.7910 C   0  0  0  0  0  0  0  0  0  0  0  0
  140.7270   80.9450  222.8020 C   0  0  0  0  0  0  0  0  0  0  0  0
  140.8350   81.3750  221.6070 O   0  0  0  0  0  0  0  0  0  0  0  0
  139.6060   80.1500  223.1870 N   0  0  0  0  0  0  0  0  0  0  0  0
  138.4370   80.8010  223.6340 C   0  0  0  0  0  0  0  0  0  0  0  0
  137.6360   81.3980  222.6640 C   0  0  0  0  0  0  0  0  0  0  0  0
  136.4760   82.0550  223.0100 C   0  0  0  0  0  0  0  0  0  0  0  0
  136.0940   82.1290  224.3320 C   0  0  0  0  0  0  0  0  0  0  0  0
  136.8790   81.5400  225.3120 C   0  0  0  0  0  0  0  0  0  0  0  0
  138.0460   80.8790  224.9530 C   0  0  0  0  0  0  0  0  0  0  0  0
  139.6890   78.7270  223.1110 C   0  0  0  0  0  0  0  0  0  0  0  0
  138.5820   78.0940  222.3320 C   0  0  0  0  0  0  0  0  0  0  0  0
  138.5720   76.5830  222.5990 C   0  0  0  0  0  0  0  0  0  0  0  0
  139.8930   76.0610  222.2630 N   0  0  0  0  0  0  0  0  0  0  0  0
  140.0890   74.8770  221.5130 C   0  0  0  0  0  0  0  0  0  0  0  0
  141.2450   74.4520  221.2010 O   0  0  0  0  0  0  0  0  0  0  0  0
  138.9570   74.0150  221.0180 C   0  0  1  0  0  0  0  0  0  0  0  0
  139.4310   73.2870  219.8380 N   0  0  0  0  0  0  0  0  0  0  0  0
  138.6660   73.0680  222.1470 C   0  0  0  0  0  0  0  0  0  0  0  0
  139.6200   71.9420  222.1830 C   0  0  0  0  0  0  0  0  0  0  0  0
  139.7080   71.3230  223.5150 C   0  0  0  0  0  0  0  0  0  0  0  0
  139.1570   70.0690  223.6810 C   0  0  0  0  0  0  0  0  0  0  0  0
  139.2050   69.3730  224.8710 C   0  0  0  0  0  0  0  0  0  0  0  0
  139.8290   69.9450  225.9590 C   0  0  0  0  0  0  0  0  0  0  0  0
  139.8790   69.2540  227.1510 C   0  0  0  0  0  0  0  0  0  0  0  0
  140.5040   69.8250  228.2410 C   0  0  0  0  0  0  0  0  0  0  0  0
  141.0710   71.0920  228.1120 C   0  0  0  0  0  0  0  0  0  0  0  0
  141.0230   71.7870  226.9140 C   0  0  0  0  0  0  0  0  0  0  0  0
  140.3900   71.2020  225.8230 C   0  0  0  0  0  0  0  0  0  0  0  0
  140.3310   71.8860  224.6090 C   0  0  0  0  0  0  0  0  0  0  0  0
  141.0860   76.7610  222.7220 C   0  0  0  0  0  0  0  0  0  0  0  0
  140.9900   78.2360  222.4700 C   0  0  0  0  0  0  0  0  0  0  0  0
  143.5858   80.2320  224.3219 H   0  0  0  0  0  0  0  0  0  0  0  0
  142.7949   79.6544  222.8160 H   0  0  0  0  0  0  0  0  0  0  0  0
  143.7030   81.2043  222.8160 H   0  0  0  0  0  0  0  0  0  0  0  0
  141.4668   80.9819  224.7985 H   0  0  0  0  0  0  0  0  0  0  0  0
  141.9699   82.3707  223.7901 H   0  0  0  0  0  0  0  0  0  0  0  0
  137.9339   81.3441  221.6065 H   0  0  0  0  0  0  0  0  0  0  0  0
  135.8544   82.5207  222.2310 H   0  0  0  0  0  0  0  0  0  0  0  0
  135.1682   82.6542  224.6095 H   0  0  0  0  0  0  0  0  0  0  0  0
  136.5785   81.5963  226.3686 H   0  0  0  0  0  0  0  0  0  0  0  0
  138.6666   80.4115  225.7317 H   0  0  0  0  0  0  0  0  0  0  0  0
  139.6286   78.4261  224.1673 H   0  0  0  0  0  0  0  0  0  0  0  0
  137.6200   78.5281  222.6419 H   0  0  0  0  0  0  0  0  0  0  0  0
  138.7362   78.2770  221.2583 H   0  0  0  0  0  0  0  0  0  0  0  0
  138.3531   76.3921  223.6600 H   0  0  0  0  0  0  0  0  0  0  0  0
  137.7987   76.0908  221.9909 H   0  0  0  0  0  0  0  0  0  0  0  0
  138.0571   74.5819  220.7373 H   0  0  0  0  0  0  0  0  0  0  0  0
  139.2880   73.8330  218.9730 H   0  0  0  0  0  0  0  0  0  0  0  0
  140.3840   72.9250  219.9460 H   0  0  0  0  0  0  0  0  0  0  0  0
  138.7296   73.6181  223.0975 H   0  0  0  0  0  0  0  0  0  0  0  0
  137.6581   72.6551  221.9934 H   0  0  0  0  0  0  0  0  0  0  0  0
  139.2939   71.1797  221.4601 H   0  0  0  0  0  0  0  0  0  0  0  0
  140.6150   72.3376  221.9309 H   0  0  0  0  0  0  0  0  0  0  0  0
  138.6545   69.6010  222.8217 H   0  0  0  0  0  0  0  0  0  0  0  0
  138.7511   68.3742  224.9508 H   0  0  0  0  0  0  0  0  0  0  0  0
  139.4244   68.2556  227.2326 H   0  0  0  0  0  0  0  0  0  0  0  0
  140.5541   69.2872  229.1993 H   0  0  0  0  0  0  0  0  0  0  0  0
  141.5674   71.5501  228.9802 H   0  0  0  0  0  0  0  0  0  0  0  0
  141.4780   72.7847  226.8277 H   0  0  0  0  0  0  0  0  0  0  0  0
  140.7857   72.8840  224.5233 H   0  0  0  0  0  0  0  0  0  0  0  0
  141.2071   76.5902  223.8019 H   0  0  0  0  0  0  0  0  0  0  0  0
  141.9503   76.3715  222.1640 H   0  0  0  0  0  0  0  0  0  0  0  0
  141.8499   78.7514  222.9227 H   0  0  0  0  0  0  0  0  0  0  0  0
  140.9942   78.4464  221.3903 H   0  0  0  0  0  0  0  0  0  0  0  0
  1  2  1  0
  2  3  1  0
  3  4  2  0
  3  5  1  0
  5  6  1  0
  6  7  2  0
  7  8  1  0
  8  9  2  0
  9 10  1  0
 10 11  2  0
  5 12  1  0
 12 13  1  0
 13 14  1  0
 14 15  1  0
 15 16  1  0
 16 17  2  0
 16 18  1  0
 18 19  1  0
 18 20  1  0
 20 21  1  0
 21 22  1  0
 22 23  2  0
 23 24  1  0
 24 25  2  0
 25 26  1  0
 26 27  2  0
 27 28  1  0
 28 29  2  0
 29 30  1  0
 30 31  2  0
 15 32  1  0
 32 33  1  0
 11  6  1  0
 33 12  1  0
 31 22  1  0
 30 25  1  0
  1 34  1  0
  1 35  1  0
  1 36  1  0
  2 37  1  0
  2 38  1  0
  7 39  1  0
  8 40  1  0
  9 41  1  0
 10 42  1  0
 11 43  1  0
 12 44  1  0
 13 45  1  0
 13 46  1  0
 14 47  1  0
 14 48  1  0
 18 49  1  6
 19 50  1  0
 19 51  1  0
 20 52  1  0
 20 53  1  0
 21 54  1  0
 21 55  1  0
 23 56  1  0
 24 57  1  0
 26 58  1  0
 27 59  1  0
 28 60  1  0
 29 61  1  0
 31 62  1  0
 32 63  1  0
 32 64  1  0
 33 65  1  0
 33 66  1  0
M  END
>  <smiles>  (1) 
CCC(=O)N(c1ccccc1)C1CCN(C(=O)[C@@H](N)CCc2ccc3ccccc3c2)CC1

>  <score_type>  (1) 
oracle

>  <origin>  (1) 
autodockgpu

>  <m_score__min__energy>  (1) 
-9.3800000000000008

>  <m_primary>  (1) 
energy

>  <rmsd>  (1) 
3.8572197404964377

>  <m_score__min__rmsd>  (1) 
3.8572197404964377

>  <meeko>  (1) 
{"free_energy": -8.39, "intermolecular_energy": -11.08, "internal_energy": -2.35, "cluster_size": 4, "cluster_id": 2, "rank_in_cluster": 2}

>  <energy>  (1) 
-9.38

>  <cluster_rmsd>  (1) 
0.0

>  <cluster>  (1) 
1

$$$$

     RDKit          3D

 66 69  0  0  0  0  0  0  0  0999 V2000
  142.9540   77.1280  217.1150 C   0  0  0  0  0  0  0  0  0  0  0  0
  142.5200   77.9580  218.3100 C   0  0  0  0  0  0  0  0  0  0  0  0
  142.6950   77.1380  219.5410 C   0  0  0  0  0  0  0  0  0  0  0  0
  143.7680   76.4670  219.6900 O   0  0  0  0  0  0  0  0  0  0  0  0
  141.6750   77.1020  220.5380 N   0  0  0  0  0  0  0  0  0  0  0  0
  141.6170   78.1470  221.4840 C   0  0  0  0  0  0  0  0  0  0  0  0
  141.7990   79.4420  221.0060 C   0  0  0  0  0  0  0  0  0  0  0  0
  141.7600   80.5240  221.8580 C   0  0  0  0  0  0  0  0  0  0  0  0
  141.5380   80.3320  223.2040 C   0  0  0  0  0  0  0  0  0  0  0  0
  141.3540   79.0490  223.6990 C   0  0  0  0  0  0  0  0  0  0  0  0
  141.3950   77.9650  222.8320 C   0  0  0  0  0  0  0  0  0  0  0  0
  140.7410   76.0220  220.5570 C   0  0  0  0  0  0  0  0  0  0  0  0
  140.9280   75.0780  221.6990 C   0  0  0  0  0  0  0  0  0  0  0  0
  140.1210   73.7990  221.4380 C   0  0  0  0  0  0  0  0  0  0  0  0
  138.7290   74.1840  221.2230 N   0  0  0  0  0  0  0  0  0  0  0  0
  137.6390   73.5100  221.8210 C   0  0  0  0  0  0  0  0  0  0  0  0
  136.4340   73.8770  221.6500 O   0  0  0  0  0  0  0  0  0  0  0  0
  137.7990   72.3040  222.7090 C   0  0  1  0  0  0  0  0  0  0  0  0
  136.5620   72.1460  223.4790 N   0  0  0  0  0  0  0  0  0  0  0  0
  137.9900   71.1490  221.7680 C   0  0  0  0  0  0  0  0  0  0  0  0
  139.2230   70.3930  222.0640 C   0  0  0  0  0  0  0  0  0  0  0  0
  139.4750   70.2710  223.5080 C   0  0  0  0  0  0  0  0  0  0  0  0
  139.0030   69.1450  224.1510 C   0  0  0  0  0  0  0  0  0  0  0  0
  139.2030   68.9020  225.4950 C   0  0  0  0  0  0  0  0  0  0  0  0
  139.9070   69.8190  226.2450 C   0  0  0  0  0  0  0  0  0  0  0  0
  140.1090   69.5800  227.5890 C   0  0  0  0  0  0  0  0  0  0  0  0
  140.8140   70.4980  228.3410 C   0  0  0  0  0  0  0  0  0  0  0  0
  141.3050   71.6480  227.7260 C   0  0  0  0  0  0  0  0  0  0  0  0
  141.1030   71.8890  226.3760 C   0  0  0  0  0  0  0  0  0  0  0  0
  140.3910   70.9570  225.6280 C   0  0  0  0  0  0  0  0  0  0  0  0
  140.1780   71.1820  224.2680 C   0  0  0  0  0  0  0  0  0  0  0  0
  138.4170   75.3020  220.3430 C   0  0  0  0  0  0  0  0  0  0  0  0
  139.2850   76.4900  220.6300 C   0  0  0  0  0  0  0  0  0  0  0  0
  143.4370   76.2042  217.4662 H   0  0  0  0  0  0  0  0  0  0  0  0
  142.0738   76.8731  216.5065 H   0  0  0  0  0  0  0  0  0  0  0  0
  143.6656   77.7054  216.5065 H   0  0  0  0  0  0  0  0  0  0  0  0
  143.1389   78.8649  218.3767 H   0  0  0  0  0  0  0  0  0  0  0  0
  141.4666   78.2554  218.2008 H   0  0  0  0  0  0  0  0  0  0  0  0
  141.9765   79.6036  219.9325 H   0  0  0  0  0  0  0  0  0  0  0  0
  141.9060   81.5405  221.4638 H   0  0  0  0  0  0  0  0  0  0  0  0
  141.5066   81.1949  223.8855 H   0  0  0  0  0  0  0  0  0  0  0  0
  141.1765   78.8912  224.7731 H   0  0  0  0  0  0  0  0  0  0  0  0
  141.2485   76.9485  223.2260 H   0  0  0  0  0  0  0  0  0  0  0  0
  140.9455   75.5100  219.6052 H   0  0  0  0  0  0  0  0  0  0  0  0
  141.9943   74.8261  221.7965 H   0  0  0  0  0  0  0  0  0  0  0  0
  140.5783   75.5508  222.6286 H   0  0  0  0  0  0  0  0  0  0  0  0
  140.5096   73.2873  220.5452 H   0  0  0  0  0  0  0  0  0  0  0  0
  140.2015   73.1131  222.2942 H   0  0  0  0  0  0  0  0  0  0  0  0
  138.6395   72.3817  223.4143 H   0  0  0  0  0  0  0  0  0  0  0  0
  136.5730   72.7240  224.3350 H   0  0  0  0  0  0  0  0  0  0  0  0
  135.7170   72.2650  222.9100 H   0  0  0  0  0  0  0  0  0  0  0  0
  137.1279   70.4716  221.8575 H   0  0  0  0  0  0  0  0  0  0  0  0
  138.0750   71.5520  220.7480 H   0  0  0  0  0  0  0  0  0  0  0  0
  139.1299   69.3842  221.6355 H   0  0  0  0  0  0  0  0  0  0  0  0
  140.0670   70.9432  221.6224 H   0  0  0  0  0  0  0  0  0  0  0  0
  138.4398   68.4048  223.5638 H   0  0  0  0  0  0  0  0  0  0  0  0
  138.8056   67.9884  225.9612 H   0  0  0  0  0  0  0  0  0  0  0  0
  139.7121   68.6668  228.0565 H   0  0  0  0  0  0  0  0  0  0  0  0
  140.9863   70.3238  229.4134 H   0  0  0  0  0  0  0  0  0  0  0  0
  141.8653   72.3808  228.3252 H   0  0  0  0  0  0  0  0  0  0  0  0
  141.4986   72.8008  225.9047 H   0  0  0  0  0  0  0  0  0  0  0  0
  140.5742   72.0940  223.7976 H   0  0  0  0  0  0  0  0  0  0  0  0
  138.5733   74.9895  219.3000 H   0  0  0  0  0  0  0  0  0  0  0  0
  137.3698   75.5921  220.5139 H   0  0  0  0  0  0  0  0  0  0  0  0
  139.1050   77.2765  219.8823 H   0  0  0  0  0  0  0  0  0  0  0  0
  139.0598   76.9044  221.6237 H   0  0  0  0  0  0  0  0  0  0  0  0
  1  2  1  0
  2  3  1  0
  3  4  2  0
  3  5  1  0
  5  6  1  0
  6  7  2  0
  7  8  1  0
  8  9  2  0
  9 10  1  0
 10 11  2  0
  5 12  1  0
 12 13  1  0
 13 14  1  0
 14 15  1  0
 15 16  1  0
 16 17  2  0
 16 18  1  0
 18 19  1  0
 18 20  1  0
 20 21  1  0
 21 22  1  0
 22 23  2  0
 23 24  1  0
 24 25  2  0
 25 26  1  0
 26 27  2  0
 27 28  1  0
 28 29  2  0
 29 30  1  0
 30 31  2  0
 15 32  1  0
 32 33  1  0
 11  6  1  0
 33 12  1  0
 31 22  1  0
 30 25  1  0
  1 34  1  0
  1 35  1  0
  1 36  1  0
  2 37  1  0
  2 38  1  0
  7 39  1  0
  8 40  1  0
  9 41  1  0
 10 42  1  0
 11 43  1  0
 12 44  1  0
 13 45  1  0
 13 46  1  0
 14 47  1  0
 14 48  1  0
 18 49  1  1
 19 50  1  0
 19 51  1  0
 20 52  1  0
 20 53  1  0
 21 54  1  0
 21 55  1  0
 23 56  1  0
 24 57  1  0
 26 58  1  0
 27 59  1  0
 28 60  1  0
 29 61  1  0
 31 62  1  0
 32 63  1  0
 32 64  1  0
 33 65  1  0
 33 66  1  0
M  END
>  <smiles>  (2) 
CCC(=O)N(c1ccccc1)C1CCN(C(=O)[C@@H](N)CCc2ccc3ccccc3c2)CC1

>  <score_type>  (2) 
oracle

>  <origin>  (2) 
autodockgpu

>  <m_score__min__energy>  (2) 
-9.3800000000000008

>  <m_primary>  (2) 
energy

>  <rmsd>  (2) 
3.03081241414798

>  <m_score__min__rmsd>  (2) 
3.03081241414798

>  <meeko>  (2) 
{"free_energy": -8.34, "intermolecular_energy": -11.02, "internal_energy": -2.45, "cluster_size": 38, "cluster_id": 3, "rank_in_cluster": 32}

>  <energy>  (2) 
-9.17

>  <cluster_rmsd>  (2) 
1.99

>  <cluster>  (2) 
1

$$$$

     RDKit          3D

 66 69  0  0  0  0  0  0  0  0999 V2000
  141.9330   80.4150  221.0090 C   0  0  0  0  0  0  0  0  0  0  0  0
  142.0520   80.7190  222.4920 C   0  0  0  0  0  0  0  0  0  0  0  0
  141.2630   79.7040  223.2440 C   0  0  0  0  0  0  0  0  0  0  0  0
  141.8330   79.0400  224.1710 O   0  0  0  0  0  0  0  0  0  0  0  0
  139.8890   79.4770  222.9310 N   0  0  0  0  0  0  0  0  0  0  0  0
  138.9450   80.4650  223.2770 C   0  0  0  0  0  0  0  0  0  0  0  0
  138.4380   80.4300  224.5730 C   0  0  0  0  0  0  0  0  0  0  0  0
  137.5110   81.3560  224.9980 C   0  0  0  0  0  0  0  0  0  0  0  0
  137.0720   82.3360  224.1350 C   0  0  0  0  0  0  0  0  0  0  0  0
  137.5660   82.3880  222.8390 C   0  0  0  0  0  0  0  0  0  0  0  0
  138.5000   81.4500  222.4210 C   0  0  0  0  0  0  0  0  0  0  0  0
  139.5030   78.2670  222.2790 C   0  0  0  0  0  0  0  0  0  0  0  0
  140.4360   77.1240  222.5150 C   0  0  0  0  0  0  0  0  0  0  0  0
  140.1270   76.0010  221.5160 C   0  0  0  0  0  0  0  0  0  0  0  0
  138.7190   75.6440  221.6670 N   0  0  0  0  0  0  0  0  0  0  0  0
  138.2630   74.3060  221.7240 C   0  0  0  0  0  0  0  0  0  0  0  0
  137.0370   74.0110  221.8880 O   0  0  0  0  0  0  0  0  0  0  0  0
  139.1760   73.1150  221.5980 C   0  0  1  0  0  0  0  0  0  0  0  0
  140.2970   73.3090  222.5220 N   0  0  0  0  0  0  0  0  0  0  0  0
  138.3410   71.9380  222.0150 C   0  0  0  0  0  0  0  0  0  0  0  0
  139.1420   70.7020  222.1210 C   0  0  0  0  0  0  0  0  0  0  0  0
  139.4160   70.3290  223.5170 C   0  0  0  0  0  0  0  0  0  0  0  0
  139.1220   69.0380  223.9090 C   0  0  0  0  0  0  0  0  0  0  0  0
  139.3640   68.5600  225.1800 C   0  0  0  0  0  0  0  0  0  0  0  0
  139.9260   69.4000  226.1180 C   0  0  0  0  0  0  0  0  0  0  0  0
  140.1690   68.9260  227.3900 C   0  0  0  0  0  0  0  0  0  0  0  0
  140.7320   69.7660  228.3300 C   0  0  0  0  0  0  0  0  0  0  0  0
  141.0420   71.0770  227.9710 C   0  0  0  0  0  0  0  0  0  0  0  0
  140.7990   71.5530  226.6930 C   0  0  0  0  0  0  0  0  0  0  0  0
  140.2300   70.6990  225.7550 C   0  0  0  0  0  0  0  0  0  0  0  0
  139.9790   71.1600  224.4620 C   0  0  0  0  0  0  0  0  0  0  0  0
  137.7110   76.6940  221.7470 C   0  0  0  0  0  0  0  0  0  0  0  0
  138.1160   77.7740  222.7040 C   0  0  0  0  0  0  0  0  0  0  0  0
  141.5351   79.3984  220.8739 H   0  0  0  0  0  0  0  0  0  0  0  0
  141.2525   81.1406  220.5394 H   0  0  0  0  0  0  0  0  0  0  0  0
  142.9252   80.4858  220.5394 H   0  0  0  0  0  0  0  0  0  0  0  0
  143.1075   80.6704  222.7978 H   0  0  0  0  0  0  0  0  0  0  0  0
  141.6689   81.7283  222.7032 H   0  0  0  0  0  0  0  0  0  0  0  0
  138.7830   79.6507  225.2685 H   0  0  0  0  0  0  0  0  0  0  0  0
  137.1215   81.3130  226.0258 H   0  0  0  0  0  0  0  0  0  0  0  0
  136.3313   83.0759  224.4724 H   0  0  0  0  0  0  0  0  0  0  0  0
  137.2190   83.1689  222.1463 H   0  0  0  0  0  0  0  0  0  0  0  0
  138.8902   81.4931  221.3934 H   0  0  0  0  0  0  0  0  0  0  0  0
  139.5155   78.5519  221.2166 H   0  0  0  0  0  0  0  0  0  0  0  0
  141.4736   77.4625  222.3776 H   0  0  0  0  0  0  0  0  0  0  0  0
  140.3069   76.7495  223.5412 H   0  0  0  0  0  0  0  0  0  0  0  0
  140.3166   76.3501  220.4902 H   0  0  0  0  0  0  0  0  0  0  0  0
  140.7676   75.1279  221.7092 H   0  0  0  0  0  0  0  0  0  0  0  0
  139.5816   72.9724  220.5855 H   0  0  0  0  0  0  0  0  0  0  0  0
  139.9730   73.3840  223.5000 H   0  0  0  0  0  0  0  0  0  0  0  0
  141.0510   72.6270  222.3870 H   0  0  0  0  0  0  0  0  0  0  0  0
  137.8881   72.1529  222.9941 H   0  0  0  0  0  0  0  0  0  0  0  0
  137.5701   71.7787  221.2466 H   0  0  0  0  0  0  0  0  0  0  0  0
  138.5911   69.8816  221.6378 H   0  0  0  0  0  0  0  0  0  0  0  0
  140.1077   70.8850  221.6272 H   0  0  0  0  0  0  0  0  0  0  0  0
  138.6726   68.3571  223.1712 H   0  0  0  0  0  0  0  0  0  0  0  0
  139.1119   67.5218  225.4420 H   0  0  0  0  0  0  0  0  0  0  0  0
  139.9166   67.8882  227.6533 H   0  0  0  0  0  0  0  0  0  0  0  0
  140.9334   69.4054  229.3495 H   0  0  0  0  0  0  0  0  0  0  0  0
  141.4894   71.7481  228.7190 H   0  0  0  0  0  0  0  0  0  0  0  0
  141.0520   72.5894  226.4248 H   0  0  0  0  0  0  0  0  0  0  0  0
  140.2328   72.1963  224.1943 H   0  0  0  0  0  0  0  0  0  0  0  0
  137.5740   77.1345  220.7484 H   0  0  0  0  0  0  0  0  0  0  0  0
  136.7743   76.2456  222.1097 H   0  0  0  0  0  0  0  0  0  0  0  0
  137.3937   78.6027  222.6632 H   0  0  0  0  0  0  0  0  0  0  0  0
  138.1393   77.3906  223.7347 H   0  0  0  0  0  0  0  0  0  0  0  0
  1  2  1  0
  2  3  1  0
  3  4  2  0
  3  5  1  0
  5  6  1  0
  6  7  2  0
  7  8  1  0
  8  9  2  0
  9 10  1  0
 10 11  2  0
  5 12  1  0
 12 13  1  0
 13 14  1  0
 14 15  1  0
 15 16  1  0
 16 17  2  0
 16 18  1  0
 18 19  1  0
 18 20  1  0
 20 21  1  0
 21 22  1  0
 22 23  2  0
 23 24  1  0
 24 25  2  0
 25 26  1  0
 26 27  2  0
 27 28  1  0
 28 29  2  0
 29 30  1  0
 30 31  2  0
 15 32  1  0
 32 33  1  0
 11  6  1  0
 33 12  1  0
 31 22  1  0
 30 25  1  0
  1 34  1  0
  1 35  1  0
  1 36  1  0
  2 37  1  0
  2 38  1  0
  7 39  1  0
  8 40  1  0
  9 41  1  0
 10 42  1  0
 11 43  1  0
 12 44  1  0
 13 45  1  0
 13 46  1  0
 14 47  1  0
 14 48  1  0
 18 49  1  6
 19 50  1  0
 19 51  1  0
 20 52  1  0
 20 53  1  0
 21 54  1  0
 21 55  1  0
 23 56  1  0
 24 57  1  0
 26 58  1  0
 27 59  1  0
 28 60  1  0
 29 61  1  0
 31 62  1  0
 32 63  1  0
 32 64  1  0
 33 65  1  0
 33 66  1  0
M  END
>  <smiles>  (3) 
CCC(=O)N(c1ccccc1)C1CCN(C(=O)[C@@H](N)CCc2ccc3ccccc3c2)CC1

>  <score_type>  (3) 
oracle

>  <origin>  (3) 
autodockgpu

>  <m_score__min__energy>  (3) 
-9.3800000000000008

>  <m_primary>  (3) 
energy

>  <rmsd>  (3) 
3.320507496810792

>  <m_score__min__rmsd>  (3) 
3.320507496810792

>  <meeko>  (3) 
{"free_energy": -9.16, "intermolecular_energy": -11.84, "internal_energy": -1.55, "cluster_size": 4, "cluster_id": 2, "rank_in_cluster": 1}

>  <energy>  (3) 
-9.11

>  <cluster_rmsd>  (3) 
1.96

>  <cluster>  (3) 
1

$$$$

     RDKit          3D

 66 69  0  0  0  0  0  0  0  0999 V2000
  141.4720   81.1810  219.3640 C   0  0  0  0  0  0  0  0  0  0  0  0
  140.7290   79.8600  219.2770 C   0  0  0  0  0  0  0  0  0  0  0  0
  141.5940   78.7940  219.8550 C   0  0  0  0  0  0  0  0  0  0  0  0
  142.4770   78.2460  219.1170 O   0  0  0  0  0  0  0  0  0  0  0  0
  141.4360   78.3930  221.2150 N   0  0  0  0  0  0  0  0  0  0  0  0
  141.6250   79.3540  222.2300 C   0  0  0  0  0  0  0  0  0  0  0  0
  142.9330   79.5860  222.6450 C   0  0  0  0  0  0  0  0  0  0  0  0
  143.2110   80.5070  223.6310 C   0  0  0  0  0  0  0  0  0  0  0  0
  142.1870   81.2140  224.2220 C   0  0  0  0  0  0  0  0  0  0  0  0
  140.8760   80.9960  223.8210 C   0  0  0  0  0  0  0  0  0  0  0  0
  140.6070   80.0660  222.8260 C   0  0  0  0  0  0  0  0  0  0  0  0
  141.0930   77.0410  221.5190 C   0  0  0  0  0  0  0  0  0  0  0  0
  139.6340   76.7440  221.4030 C   0  0  0  0  0  0  0  0  0  0  0  0
  139.3350   75.3940  222.0690 C   0  0  0  0  0  0  0  0  0  0  0  0
  140.1870   74.3870  221.4420 N   0  0  0  0  0  0  0  0  0  0  0  0
  139.7130   73.1170  221.0370 C   0  0  0  0  0  0  0  0  0  0  0  0
  140.4580   72.2630  220.4630 O   0  0  0  0  0  0  0  0  0  0  0  0
  138.2930   72.6590  221.2480 C   0  0  1  0  0  0  0  0  0  0  0  0
  137.9820   71.6730  220.2090 N   0  0  0  0  0  0  0  0  0  0  0  0
  138.2870   72.0210  222.6070 C   0  0  0  0  0  0  0  0  0  0  0  0
  139.2510   70.9070  222.6990 C   0  0  0  0  0  0  0  0  0  0  0  0
  139.7250   70.6860  224.0740 C   0  0  0  0  0  0  0  0  0  0  0  0
  140.3320   71.7410  224.7240 C   0  0  0  0  0  0  0  0  0  0  0  0
  140.7890   71.6680  226.0240 C   0  0  0  0  0  0  0  0  0  0  0  0
  140.6390   70.4890  226.7220 C   0  0  0  0  0  0  0  0  0  0  0  0
  141.0940   70.4100  228.0220 C   0  0  0  0  0  0  0  0  0  0  0  0
  140.9440   69.2300  228.7220 C   0  0  0  0  0  0  0  0  0  0  0  0
  140.3370   68.1420  228.0990 C   0  0  0  0  0  0  0  0  0  0  0  0
  139.8780   68.2200  226.7930 C   0  0  0  0  0  0  0  0  0  0  0  0
  140.0350   69.4140  226.0970 C   0  0  0  0  0  0  0  0  0  0  0  0
  139.5800   69.5120  224.7820 C   0  0  0  0  0  0  0  0  0  0  0  0
  141.6000   74.6690  221.2230 C   0  0  0  0  0  0  0  0  0  0  0  0
  141.8030   76.0260  220.6180 C   0  0  0  0  0  0  0  0  0  0  0  0
  141.6223   81.4482  220.4204 H   0  0  0  0  0  0  0  0  0  0  0  0
  142.4488   81.0857  218.8673 H   0  0  0  0  0  0  0  0  0  0  0  0
  140.8832   81.9663  218.8673 H   0  0  0  0  0  0  0  0  0  0  0  0
  139.7893   79.9244  219.8451 H   0  0  0  0  0  0  0  0  0  0  0  0
  140.4936   79.6277  218.2279 H   0  0  0  0  0  0  0  0  0  0  0  0
  143.7569   79.0257  222.1789 H   0  0  0  0  0  0  0  0  0  0  0  0
  144.2508   80.6779  223.9465 H   0  0  0  0  0  0  0  0  0  0  0  0
  142.4076   81.9494  225.0097 H   0  0  0  0  0  0  0  0  0  0  0  0
  140.0542   81.5575  224.2894 H   0  0  0  0  0  0  0  0  0  0  0  0
  139.5675   79.8953  222.5093 H   0  0  0  0  0  0  0  0  0  0  0  0
  141.4181   76.9392  222.5649 H   0  0  0  0  0  0  0  0  0  0  0  0
  139.0572   77.5359  221.9032 H   0  0  0  0  0  0  0  0  0  0  0  0
  139.3507   76.7010  220.3410 H   0  0  0  0  0  0  0  0  0  0  0  0
  139.5540   75.4514  223.1455 H   0  0  0  0  0  0  0  0  0  0  0  0
  138.2743   75.1310  221.9438 H   0  0  0  0  0  0  0  0  0  0  0  0
  137.5515   73.4695  221.1905 H   0  0  0  0  0  0  0  0  0  0  0  0
  137.6170   72.1240  219.3550 H   0  0  0  0  0  0  0  0  0  0  0  0
  138.7510   71.0170  220.0340 H   0  0  0  0  0  0  0  0  0  0  0  0
  138.5500   72.7811  223.3574 H   0  0  0  0  0  0  0  0  0  0  0  0
  137.2806   71.6153  222.7875 H   0  0  0  0  0  0  0  0  0  0  0  0
  138.7636   69.9879  222.3416 H   0  0  0  0  0  0  0  0  0  0  0  0
  140.1235   71.1674  222.0819 H   0  0  0  0  0  0  0  0  0  0  0  0
  140.4579   72.6878  224.1784 H   0  0  0  0  0  0  0  0  0  0  0  0
  141.2665   72.5389  226.4968 H   0  0  0  0  0  0  0  0  0  0  0  0
  141.5721   71.2797  228.4964 H   0  0  0  0  0  0  0  0  0  0  0  0
  141.2997   69.1497  229.7598 H   0  0  0  0  0  0  0  0  0  0  0  0
  140.2193   67.2004  228.6553 H   0  0  0  0  0  0  0  0  0  0  0  0
  139.3981   67.3529  226.3157 H   0  0  0  0  0  0  0  0  0  0  0  0
  139.1009   68.6441  224.3053 H   0  0  0  0  0  0  0  0  0  0  0  0
  142.1267   74.6255  222.1877 H   0  0  0  0  0  0  0  0  0  0  0  0
  141.9975   73.9174  220.5251 H   0  0  0  0  0  0  0  0  0  0  0  0
  142.8771   76.2571  220.5652 H   0  0  0  0  0  0  0  0  0  0  0  0
  141.3945   76.0608  219.5972 H   0  0  0  0  0  0  0  0  0  0  0  0
  1  2  1  0
  2  3  1  0
  3  4  2  0
  3  5  1  0
  5  6  1  0
  6  7  2  0
  7  8  1  0
  8  9  2  0
  9 10  1  0
 10 11  2  0
  5 12  1  0
 12 13  1  0
 13 14  1  0
 14 15  1  0
 15 16  1  0
 16 17  2  0
 16 18  1  0
 18 19  1  0
 18 20  1  0
 20 21  1  0
 21 22  1  0
 22 23  2  0
 23 24  1  0
 24 25  2  0
 25 26  1  0
 26 27  2  0
 27 28  1  0
 28 29  2  0
 29 30  1  0
 30 31  2  0
 15 32  1  0
 32 33  1  0
 11  6  1  0
 33 12  1  0
 31 22  1  0
 30 25  1  0
  1 34  1  0
  1 35  1  0
  1 36  1  0
  2 37  1  0
  2 38  1  0
  7 39  1  0
  8 40  1  0
  9 41  1  0
 10 42  1  0
 11 43  1  0
 12 44  1  0
 13 45  1  0
 13 46  1  0
 14 47  1  0
 14 48  1  0
 18 49  1  1
 19 50  1  0
 19 51  1  0
 20 52  1  0
 20 53  1  0
 21 54  1  0
 21 55  1  0
 23 56  1  0
 24 57  1  0
 26 58  1  0
 27 59  1  0
 28 60  1  0
 29 61  1  0
 31 62  1  0
 32 63  1  0
 32 64  1  0
 33 65  1  0
 33 66  1  0
M  END
>  <smiles>  (4) 
CCC(=O)N(c1ccccc1)C1CCN(C(=O)[C@@H](N)CCc2ccc3ccccc3c2)CC1

>  <score_type>  (4) 
oracle

>  <origin>  (4) 
autodockgpu

>  <m_score__min__energy>  (4) 
-9.3800000000000008

>  <m_primary>  (4) 
energy

>  <rmsd>  (4) 
2.751779835342239

>  <m_score__min__rmsd>  (4) 
2.751779835342239

>  <meeko>  (4) 
{"free_energy": -8.45, "intermolecular_energy": -11.14, "internal_energy": -2.36, "cluster_size": 38, "cluster_id": 3, "rank_in_cluster": 22}

>  <energy>  (4) 
-8.93

>  <cluster_rmsd>  (4) 
0.53

>  <cluster>  (4) 
1

$$$$

     RDKit          3D

 66 69  0  0  0  0  0  0  0  0999 V2000
  142.9510   81.1980  217.8000 C   0  0  0  0  0  0  0  0  0  0  0  0
  142.5740   79.8510  218.3900 C   0  0  0  0  0  0  0  0  0  0  0  0
  141.5170   80.0660  219.4170 C   0  0  0  0  0  0  0  0  0  0  0  0
  140.6060   80.9290  219.1940 O   0  0  0  0  0  0  0  0  0  0  0  0
  141.5240   79.3170  220.6310 N   0  0  0  0  0  0  0  0  0  0  0  0
  141.8510   79.9800  221.8320 C   0  0  0  0  0  0  0  0  0  0  0  0
  140.9290   80.9040  222.3160 C   0  0  0  0  0  0  0  0  0  0  0  0
  141.1660   81.5990  223.4810 C   0  0  0  0  0  0  0  0  0  0  0  0
  142.3300   81.3840  224.1870 C   0  0  0  0  0  0  0  0  0  0  0  0
  143.2610   80.4660  223.7210 C   0  0  0  0  0  0  0  0  0  0  0  0
  143.0130   79.7710  222.5450 C   0  0  0  0  0  0  0  0  0  0  0  0
  141.2010   77.9270  220.6070 C   0  0  0  0  0  0  0  0  0  0  0  0
  140.7660   77.3810  221.9280 C   0  0  0  0  0  0  0  0  0  0  0  0
  140.7780   75.8470  221.8730 C   0  0  0  0  0  0  0  0  0  0  0  0
  139.9270   75.4320  220.7620 N   0  0  0  0  0  0  0  0  0  0  0  0
  138.9800   74.3860  220.8620 C   0  0  0  0  0  0  0  0  0  0  0  0
  138.2220   74.0580  219.8960 O   0  0  0  0  0  0  0  0  0  0  0  0
  138.7790   73.5700  222.1120 C   0  0  1  0  0  0  0  0  0  0  0  0
  137.3500   73.2680  222.2270 N   0  0  0  0  0  0  0  0  0  0  0  0
  139.5720   72.3140  221.8880 C   0  0  0  0  0  0  0  0  0  0  0  0
  140.6920   72.1890  222.8420 C   0  0  0  0  0  0  0  0  0  0  0  0
  140.4160   71.2150  223.9090 C   0  0  0  0  0  0  0  0  0  0  0  0
  139.6780   70.0960  223.5840 C   0  0  0  0  0  0  0  0  0  0  0  0
  139.3810   69.0970  224.4890 C   0  0  0  0  0  0  0  0  0  0  0  0
  139.8360   69.2080  225.7850 C   0  0  0  0  0  0  0  0  0  0  0  0
  139.5420   68.2120  226.6930 C   0  0  0  0  0  0  0  0  0  0  0  0
  139.9980   68.3220  227.9910 C   0  0  0  0  0  0  0  0  0  0  0  0
  140.7450   69.4400  228.3570 C   0  0  0  0  0  0  0  0  0  0  0  0
  141.0430   70.4410  227.4450 C   0  0  0  0  0  0  0  0  0  0  0  0
  140.5780   70.3200  226.1400 C   0  0  0  0  0  0  0  0  0  0  0  0
  140.8670   71.3170  225.2080 C   0  0  0  0  0  0  0  0  0  0  0  0
  140.0470   76.0980  219.4710 C   0  0  0  0  0  0  0  0  0  0  0  0
  140.0800   77.5890  219.6210 C   0  0  0  0  0  0  0  0  0  0  0  0
  143.1507   81.9115  218.6131 H   0  0  0  0  0  0  0  0  0  0  0  0
  143.8527   81.0872  217.1797 H   0  0  0  0  0  0  0  0  0  0  0  0
  142.1228   81.5713  217.1797 H   0  0  0  0  0  0  0  0  0  0  0  0
  142.1922   79.1918  217.5965 H   0  0  0  0  0  0  0  0  0  0  0  0
  143.4557   79.3795  218.8485 H   0  0  0  0  0  0  0  0  0  0  0  0
  139.9970   81.0816  221.7594 H   0  0  0  0  0  0  0  0  0  0  0  0
  140.4263   82.3257  223.8481 H   0  0  0  0  0  0  0  0  0  0  0  0
  142.5208   81.9386  225.1176 H   0  0  0  0  0  0  0  0  0  0  0  0
  144.1913   80.2899  224.2810 H   0  0  0  0  0  0  0  0  0  0  0  0
  143.7526   79.0445  222.1773 H   0  0  0  0  0  0  0  0  0  0  0  0
  142.1512   77.4649  220.3009 H   0  0  0  0  0  0  0  0  0  0  0  0
  141.4553   77.7257  222.7128 H   0  0  0  0  0  0  0  0  0  0  0  0
  139.7489   77.7332  222.1549 H   0  0  0  0  0  0  0  0  0  0  0  0
  141.8048   75.4866  221.7123 H   0  0  0  0  0  0  0  0  0  0  0  0
  140.4060   75.4264  222.8189 H   0  0  0  0  0  0  0  0  0  0  0  0
  139.0997   74.0812  223.0317 H   0  0  0  0  0  0  0  0  0  0  0  0
  136.9920   73.4820  223.1720 H   0  0  0  0  0  0  0  0  0  0  0  0
  136.7910   73.6780  221.4700 H   0  0  0  0  0  0  0  0  0  0  0  0
  138.9054   71.4472  222.0075 H   0  0  0  0  0  0  0  0  0  0  0  0
  139.9936   72.3551  220.8728 H   0  0  0  0  0  0  0  0  0  0  0  0
  141.5889   71.8663  222.2930 H   0  0  0  0  0  0  0  0  0  0  0  0
  140.8395   73.1709  223.3153 H   0  0  0  0  0  0  0  0  0  0  0  0
  139.3080   69.9948  222.5531 H   0  0  0  0  0  0  0  0  0  0  0  0
  138.7886   68.2233  224.1796 H   0  0  0  0  0  0  0  0  0  0  0  0
  138.9494   67.3379  226.3853 H   0  0  0  0  0  0  0  0  0  0  0  0
  139.7744   67.5365  228.7279 H   0  0  0  0  0  0  0  0  0  0  0  0
  141.1061   69.5304  229.3921 H   0  0  0  0  0  0  0  0  0  0  0  0
  141.6370   71.3157  227.7485 H   0  0  0  0  0  0  0  0  0  0  0  0
  141.4599   72.1922  225.5121 H   0  0  0  0  0  0  0  0  0  0  0  0
  140.9761   75.7675  218.9837 H   0  0  0  0  0  0  0  0  0  0  0  0
  139.1692   75.8324  218.8636 H   0  0  0  0  0  0  0  0  0  0  0  0
  140.2812   78.0601  218.6476 H   0  0  0  0  0  0  0  0  0  0  0  0
  139.1135   77.9630  219.9898 H   0  0  0  0  0  0  0  0  0  0  0  0
  1  2  1  0
  2  3  1  0
  3  4  2  0
  3  5  1  0
  5  6  1  0
  6  7  2  0
  7  8  1  0
  8  9  2  0
  9 10  1  0
 10 11  2  0
  5 12  1  0
 12 13  1  0
 13 14  1  0
 14 15  1  0
 15 16  1  0
 16 17  2  0
 16 18  1  0
 18 19  1  0
 18 20  1  0
 20 21  1  0
 21 22  1  0
 22 23  2  0
 23 24  1  0
 24 25  2  0
 25 26  1  0
 26 27  2  0
 27 28  1  0
 28 29  2  0
 29 30  1  0
 30 31  2  0
 15 32  1  0
 32 33  1  0
 11  6  1  0
 33 12  1  0
 31 22  1  0
 30 25  1  0
  1 34  1  0
  1 35  1  0
  1 36  1  0
  2 37  1  0
  2 38  1  0
  7 39  1  0
  8 40  1  0
  9 41  1  0
 10 42  1  0
 11 43  1  0
 12 44  1  0
 13 45  1  0
 13 46  1  0
 14 47  1  0
 14 48  1  0
 18 49  1  1
 19 50  1  0
 19 51  1  0
 20 52  1  0
 20 53  1  0
 21 54  1  0
 21 55  1  0
 23 56  1  0
 24 57  1  0
 26 58  1  0
 27 59  1  0
 28 60  1  0
 29 61  1  0
 31 62  1  0
 32 63  1  0
 32 64  1  0
 33 65  1  0
 33 66  1  0
M  END
>  <smiles>  (5) 
CCC(=O)N(c1ccccc1)C1CCN(C(=O)[C@@H](N)CCc2ccc3ccccc3c2)CC1

>  <score_type>  (5) 
oracle

>  <origin>  (5) 
autodockgpu

>  <m_score__min__energy>  (5) 
-9.3800000000000008

>  <m_primary>  (5) 
energy

>  <rmsd>  (5) 
3.492820038193557

>  <m_score__min__rmsd>  (5) 
3.492820038193557

>  <meeko>  (5) 
{"free_energy": -8.46, "intermolecular_energy": -11.15, "internal_energy": -2.26, "cluster_size": 38, "cluster_id": 3, "rank_in_cluster": 21}

>  <energy>  (5) 
-8.85

>  <cluster_rmsd>  (5) 
0.55

>  <cluster>  (5) 
1

$$$$

     RDKit          3D

 66 69  0  0  0  0  0  0  0  0999 V2000
  142.5290   81.1100  218.0540 C   0  0  0  0  0  0  0  0  0  0  0  0
  142.5210   79.6160  218.3240 C   0  0  0  0  0  0  0  0  0  0  0  0
  141.4100   79.3150  219.2700 C   0  0  0  0  0  0  0  0  0  0  0  0
  140.2100   79.5370  218.9040 O   0  0  0  0  0  0  0  0  0  0  0  0
  141.6860   78.7870  220.5670 N   0  0  0  0  0  0  0  0  0  0  0  0
  141.8630   79.6860  221.6390 C   0  0  0  0  0  0  0  0  0  0  0  0
  141.3250   80.9610  221.4900 C   0  0  0  0  0  0  0  0  0  0  0  0
  141.4500   81.9050  222.4860 C   0  0  0  0  0  0  0  0  0  0  0  0
  142.1160   81.5920  223.6500 C   0  0  0  0  0  0  0  0  0  0  0  0
  142.6590   80.3260  223.8180 C   0  0  0  0  0  0  0  0  0  0  0  0
  142.5270   79.3820  222.8080 C   0  0  0  0  0  0  0  0  0  0  0  0
  141.7760   77.3740  220.7510 C   0  0  0  0  0  0  0  0  0  0  0  0
  140.4590   76.6710  220.7030 C   0  0  0  0  0  0  0  0  0  0  0  0
  140.6250   75.2450  221.2450 C   0  0  0  0  0  0  0  0  0  0  0  0
  141.6660   74.5870  220.4610 N   0  0  0  0  0  0  0  0  0  0  0  0
  141.5410   73.2690  219.9610 C   0  0  0  0  0  0  0  0  0  0  0  0
  142.4430   72.7210  219.2520 O   0  0  0  0  0  0  0  0  0  0  0  0
  140.3390   72.3980  220.2170 C   0  0  1  0  0  0  0  0  0  0  0  0
  140.1440   71.5460  219.0410 N   0  0  0  0  0  0  0  0  0  0  0  0
  140.7040   71.5730  221.4170 C   0  0  0  0  0  0  0  0  0  0  0  0
  139.5360   70.8640  221.9770 C   0  0  0  0  0  0  0  0  0  0  0  0
  139.6710   70.6110  223.4200 C   0  0  0  0  0  0  0  0  0  0  0  0
  139.1540   69.4330  223.9180 C   0  0  0  0  0  0  0  0  0  0  0  0
  139.2450   69.0680  225.2460 C   0  0  0  0  0  0  0  0  0  0  0  0
  139.8810   69.9120  226.1310 C   0  0  0  0  0  0  0  0  0  0  0  0
  139.9750   69.5520  227.4600 C   0  0  0  0  0  0  0  0  0  0  0  0
  140.6110   70.3960  228.3470 C   0  0  0  0  0  0  0  0  0  0  0  0
  141.1450   71.5960  227.8800 C   0  0  0  0  0  0  0  0  0  0  0  0
  141.0520   71.9580  226.5450 C   0  0  0  0  0  0  0  0  0  0  0  0
  140.4080   71.1000  225.6610 C   0  0  0  0  0  0  0  0  0  0  0  0
  140.3050   71.4480  224.3130 C   0  0  0  0  0  0  0  0  0  0  0  0
  142.9110   75.2890  220.1790 C   0  0  0  0  0  0  0  0  0  0  0  0
  142.6600   76.6880  219.7060 C   0  0  0  0  0  0  0  0  0  0  0  0
  142.5319   81.6552  219.0094 H   0  0  0  0  0  0  0  0  0  0  0  0
  143.4286   81.3738  217.4785 H   0  0  0  0  0  0  0  0  0  0  0  0
  141.6323   81.3834  217.4785 H   0  0  0  0  0  0  0  0  0  0  0  0
  142.3655   79.0691  217.3823 H   0  0  0  0  0  0  0  0  0  0  0  0
  143.4824   79.3054  218.7590 H   0  0  0  0  0  0  0  0  0  0  0  0
  140.7919   81.2190  220.5630 H   0  0  0  0  0  0  0  0  0  0  0  0
  141.0182   82.9077  222.3514 H   0  0  0  0  0  0  0  0  0  0  0  0
  142.2175   82.3447  224.4457 H   0  0  0  0  0  0  0  0  0  0  0  0
  143.1912   80.0715  224.7464 H   0  0  0  0  0  0  0  0  0  0  0  0
  142.9578   78.3789  222.9426 H   0  0  0  0  0  0  0  0  0  0  0  0
  142.2139   77.2894  221.7565 H   0  0  0  0  0  0  0  0  0  0  0  0
  139.7290   77.2158  221.3197 H   0  0  0  0  0  0  0  0  0  0  0  0
  140.1006   76.6307  219.6638 H   0  0  0  0  0  0  0  0  0  0  0  0
  140.9199   75.2794  222.3042 H   0  0  0  0  0  0  0  0  0  0  0  0
  139.6776   74.6917  221.1661 H   0  0  0  0  0  0  0  0  0  0  0  0
  139.4117   72.9626  220.3939 H   0  0  0  0  0  0  0  0  0  0  0  0
  140.7410   71.8450  218.2530 H   0  0  0  0  0  0  0  0  0  0  0  0
  140.2120   70.5450  219.2550 H   0  0  0  0  0  0  0  0  0  0  0  0
  141.4611   70.8318  221.1214 H   0  0  0  0  0  0  0  0  0  0  0  0
  141.0923   72.2518  222.1906 H   0  0  0  0  0  0  0  0  0  0  0  0
  138.6375   71.4757  221.8084 H   0  0  0  0  0  0  0  0  0  0  0  0
  139.4617   69.8898  221.4717 H   0  0  0  0  0  0  0  0  0  0  0  0
  138.6439   68.7506  223.2222 H   0  0  0  0  0  0  0  0  0  0  0  0
  138.8158   68.1166  225.5934 H   0  0  0  0  0  0  0  0  0  0  0  0
  139.5468   68.6008  227.8089 H   0  0  0  0  0  0  0  0  0  0  0  0
  140.6956   70.1253  229.4098 H   0  0  0  0  0  0  0  0  0  0  0  0
  141.6513   72.2705  228.5863 H   0  0  0  0  0  0  0  0  0  0  0  0
  141.4803   72.9075  226.1915 H   0  0  0  0  0  0  0  0  0  0  0  0
  140.7333   72.3979  223.9606 H   0  0  0  0  0  0  0  0  0  0  0  0
  143.5160   75.3256  221.0969 H   0  0  0  0  0  0  0  0  0  0  0  0
  143.4394   74.7458  219.3817 H   0  0  0  0  0  0  0  0  0  0  0  0
  143.6132   77.2280  219.6072 H   0  0  0  0  0  0  0  0  0  0  0  0
  142.1659   76.6825  218.7232 H   0  0  0  0  0  0  0  0  0  0  0  0
  1  2  1  0
  2  3  1  0
  3  4  2  0
  3  5  1  0
  5  6  1  0
  6  7  2  0
  7  8  1  0
  8  9  2  0
  9 10  1  0
 10 11  2  0
  5 12  1  0
 12 13  1  0
 13 14  1  0
 14 15  1  0
 15 16  1  0
 16 17  2  0
 16 18  1  0
 18 19  1  0
 18 20  1  0
 20 21  1  0
 21 22  1  0
 22 23  2  0
 23 24  1  0
 24 25  2  0
 25 26  1  0
 26 27  2  0
 27 28  1  0
 28 29  2  0
 29 30  1  0
 30 31  2  0
 15 32  1  0
 32 33  1  0
 11  6  1  0
 33 12  1  0
 31 22  1  0
 30 25  1  0
  1 34  1  0
  1 35  1  0
  1 36  1  0
  2 37  1  0
  2 38  1  0
  7 39  1  0
  8 40  1  0
  9 41  1  0
 10 42  1  0
 11 43  1  0
 12 44  1  0
 13 45  1  0
 13 46  1  0
 14 47  1  0
 14 48  1  0
 18 49  1  1
 19 50  1  0
 19 51  1  0
 20 52  1  0
 20 53  1  0
 21 54  1  0
 21 55  1  0
 23 56  1  0
 24 57  1  0
 26 58  1  0
 27 59  1  0
 28 60  1  0
 29 61  1  0
 31 62  1  0
 32 63  1  0
 32 64  1  0
 33 65  1  0
 33 66  1  0
M  END
>  <smiles>  (6) 
CCC(=O)N(c1ccccc1)C1CCN(C(=O)[C@@H](N)CCc2ccc3ccccc3c2)CC1

>  <score_type>  (6) 
oracle

>  <origin>  (6) 
autodockgpu

>  <m_score__min__energy>  (6) 
-9.3800000000000008

>  <m_primary>  (6) 
energy

>  <rmsd>  (6) 
3.6430480232468803

>  <m_score__min__rmsd>  (6) 
3.6430480232468803

>  <meeko>  (6) 
{"free_energy": -8.5, "intermolecular_energy": -11.19, "internal_energy": -2.24, "cluster_size": 38, "cluster_id": 3, "rank_in_cluster": 16}

>  <energy>  (6) 
-8.17

>  <cluster_rmsd>  (6) 
1.81

>  <cluster>  (6) 
1

$$$$

     RDKit          3D

 66 69  0  0  0  0  0  0  0  0999 V2000
  142.5350   79.6270  217.9870 C   0  0  0  0  0  0  0  0  0  0  0  0
  141.8210   79.8120  219.3140 C   0  0  0  0  0  0  0  0  0  0  0  0
  141.2750   78.4940  219.7420 C   0  0  0  0  0  0  0  0  0  0  0  0
  140.8710   77.6740  218.8530 O   0  0  0  0  0  0  0  0  0  0  0  0
  141.2030   78.1540  221.1260 N   0  0  0  0  0  0  0  0  0  0  0  0
  141.4900   79.1500  222.0820 C   0  0  0  0  0  0  0  0  0  0  0  0
  140.4150   79.8910  222.5650 C   0  0  0  0  0  0  0  0  0  0  0  0
  140.6020   80.8850  223.5000 C   0  0  0  0  0  0  0  0  0  0  0  0
  141.8670   81.1580  223.9720 C   0  0  0  0  0  0  0  0  0  0  0  0
  142.9510   80.4300  223.5030 C   0  0  0  0  0  0  0  0  0  0  0  0
  142.7520   79.4300  222.5600 C   0  0  0  0  0  0  0  0  0  0  0  0
  140.8450   76.8270  221.5110 C   0  0  0  0  0  0  0  0  0  0  0  0
  139.4270   76.4680  221.2080 C   0  0  0  0  0  0  0  0  0  0  0  0
  139.0580   75.1800  221.9570 C   0  0  0  0  0  0  0  0  0  0  0  0
  140.0160   74.1480  221.5720 N   0  0  0  0  0  0  0  0  0  0  0  0
  139.6360   72.8280  221.2330 C   0  0  0  0  0  0  0  0  0  0  0  0
  140.4780   71.9490  220.8680 O   0  0  0  0  0  0  0  0  0  0  0  0
  138.2100   72.3420  221.2730 C   0  0  1  0  0  0  0  0  0  0  0  0
  138.1030   71.1920  220.3700 N   0  0  0  0  0  0  0  0  0  0  0  0
  137.9800   71.9240  222.6970 C   0  0  0  0  0  0  0  0  0  0  0  0
  138.4280   70.5390  222.9460 C   0  0  0  0  0  0  0  0  0  0  0  0
  139.1560   70.4040  224.2170 C   0  0  0  0  0  0  0  0  0  0  0  0
  139.9350   71.4650  224.6300 C   0  0  0  0  0  0  0  0  0  0  0  0
  140.6380   71.4710  225.8160 C   0  0  0  0  0  0  0  0  0  0  0  0
  140.5710   70.3690  226.6410 C   0  0  0  0  0  0  0  0  0  0  0  0
  141.2740   70.3690  227.8290 C   0  0  0  0  0  0  0  0  0  0  0  0
  141.2070   69.2660  228.6560 C   0  0  0  0  0  0  0  0  0  0  0  0
  140.4310   68.1740  228.2720 C   0  0  0  0  0  0  0  0  0  0  0  0
  139.7240   68.1730  227.0790 C   0  0  0  0  0  0  0  0  0  0  0  0
  139.7990   69.2890  226.2540 C   0  0  0  0  0  0  0  0  0  0  0  0
  139.0950   69.3060  225.0500 C   0  0  0  0  0  0  0  0  0  0  0  0
  141.4390   74.4580  221.5400 C   0  0  0  0  0  0  0  0  0  0  0  0
  141.7060   75.7540  220.8380 C   0  0  0  0  0  0  0  0  0  0  0  0
  143.5849   79.3550  218.1704 H   0  0  0  0  0  0  0  0  0  0  0  0
  142.0434   78.8266  217.4146 H   0  0  0  0  0  0  0  0  0  0  0  0
  142.4940   80.5654  217.4146 H   0  0  0  0  0  0  0  0  0  0  0  0
  142.5300   80.1832  220.0687 H   0  0  0  0  0  0  0  0  0  0  0  0
  141.0051   80.5418  219.2056 H   0  0  0  0  0  0  0  0  0  0  0  0
  139.4011   79.6795  222.1944 H   0  0  0  0  0  0  0  0  0  0  0  0
  139.7409   81.4610  223.8699 H   0  0  0  0  0  0  0  0  0  0  0  0
  142.0174   81.9513  224.7190 H   0  0  0  0  0  0  0  0  0  0  0  0
  143.9634   80.6439  223.8763 H   0  0  0  0  0  0  0  0  0  0  0  0
  143.6129   78.8539  222.1898 H   0  0  0  0  0  0  0  0  0  0  0  0
  141.0075   76.8404  222.5988 H   0  0  0  0  0  0  0  0  0  0  0  0
  138.7642   77.2840  221.5319 H   0  0  0  0  0  0  0  0  0  0  0  0
  139.3102   76.3109  220.1256 H   0  0  0  0  0  0  0  0  0  0  0  0
  139.1087   75.3511  223.0424 H   0  0  0  0  0  0  0  0  0  0  0  0
  138.0346   74.8677  221.7018 H   0  0  0  0  0  0  0  0  0  0  0  0
  137.4746   73.0981  220.9607 H   0  0  0  0  0  0  0  0  0  0  0  0
  137.9120   71.4890  219.4000 H   0  0  0  0  0  0  0  0  0  0  0  0
  138.8900   70.5400  220.4560 H   0  0  0  0  0  0  0  0  0  0  0  0
  138.5367   72.6021  223.3606 H   0  0  0  0  0  0  0  0  0  0  0  0
  136.8991   71.9724  222.8951 H   0  0  0  0  0  0  0  0  0  0  0  0
  137.5461   69.8821  222.9728 H   0  0  0  0  0  0  0  0  0  0  0  0
  139.1158   70.2585  222.1346 H   0  0  0  0  0  0  0  0  0  0  0  0
  139.9984   72.3506  223.9806 H   0  0  0  0  0  0  0  0  0  0  0  0
  141.2443   72.3438  226.1000 H   0  0  0  0  0  0  0  0  0  0  0  0
  141.8821   71.2402  228.1140 H   0  0  0  0  0  0  0  0  0  0  0  0
  141.7596   69.2491  229.6070 H   0  0  0  0  0  0  0  0  0  0  0  0
  140.3781   67.2937  228.9295 H   0  0  0  0  0  0  0  0  0  0  0  0
  139.1144   67.3040  226.7906 H   0  0  0  0  0  0  0  0  0  0  0  0
  138.4859   68.4364  224.7622 H   0  0  0  0  0  0  0  0  0  0  0  0
  141.8123   74.5278  222.5723 H   0  0  0  0  0  0  0  0  0  0  0  0
  141.9531   73.6565  220.9893 H   0  0  0  0  0  0  0  0  0  0  0  0
  142.7705   76.0167  220.9261 H   0  0  0  0  0  0  0  0  0  0  0  0
  141.4600   75.6737  219.7689 H   0  0  0  0  0  0  0  0  0  0  0  0
  1  2  1  0
  2  3  1  0
  3  4  2  0
  3  5  1  0
  5  6  1  0
  6  7  2  0
  7  8  1  0
  8  9  2  0
  9 10  1  0
 10 11  2  0
  5 12  1  0
 12 13  1  0
 13 14  1  0
 14 15  1  0
 15 16  1  0
 16 17  2  0
 16 18  1  0
 18 19  1  0
 18 20  1  0
 20 21  1  0
 21 22  1  0
 22 23  2  0
 23 24  1  0
 24 25  2  0
 25 26  1  0
 26 27  2  0
 27 28  1  0
 28 29  2  0
 29 30  1  0
 30 31  2  0
 15 32  1  0
 32 33  1  0
 11  6  1  0
 33 12  1  0
 31 22  1  0
 30 25  1  0
  1 34  1  0
  1 35  1  0
  1 36  1  0
  2 37  1  0
  2 38  1  0
  7 39  1  0
  8 40  1  0
  9 41  1  0
 10 42  1  0
 11 43  1  0
 12 44  1  0
 13 45  1  0
 13 46  1  0
 14 47  1  0
 14 48  1  0
 18 49  1  6
 19 50  1  0
 19 51  1  0
 20 52  1  0
 20 53  1  0
 21 54  1  0
 21 55  1  0
 23 56  1  0
 24 57  1  0
 26 58  1  0
 27 59  1  0
 28 60  1  0
 29 61  1  0
 31 62  1  0
 32 63  1  0
 32 64  1  0
 33 65  1  0
 33 66  1  0
M  END
>  <smiles>  (7) 
CCC(=O)N(c1ccccc1)C1CCN(C(=O)[C@@H](N)CCc2ccc3ccccc3c2)CC1

>  <score_type>  (7) 
oracle

>  <origin>  (7) 
autodockgpu

>  <m_score__min__energy>  (7) 
-9.3800000000000008

>  <m_primary>  (7) 
energy

>  <rmsd>  (7) 
2.578906830844149

>  <m_score__min__rmsd>  (7) 
2.578906830844149

>  <meeko>  (7) 
{"free_energy": -8.23, "intermolecular_energy": -10.91, "internal_energy": -2.44, "cluster_size": 38, "cluster_id": 3, "rank_in_cluster": 37}

>  <energy>  (7) 
-9.16

>  <cluster_rmsd>  (7) 
0.0

>  <cluster>  (7) 
2

$$$$

     RDKit          3D

 66 69  0  0  0  0  0  0  0  0999 V2000
  142.5150   81.2080  223.9320 C   0  0  0  0  0  0  0  0  0  0  0  0
  142.9710   80.0500  223.0620 C   0  0  0  0  0  0  0  0  0  0  0  0
  141.9090   79.7690  222.0570 C   0  0  0  0  0  0  0  0  0  0  0  0
  142.0910   80.1290  220.8480 O   0  0  0  0  0  0  0  0  0  0  0  0
  140.7040   79.1090  222.4420 N   0  0  0  0  0  0  0  0  0  0  0  0
  139.6290   79.8870  222.9200 C   0  0  0  0  0  0  0  0  0  0  0  0
  139.0720   80.8050  222.0340 C   0  0  0  0  0  0  0  0  0  0  0  0
  138.0190   81.6080  222.4150 C   0  0  0  0  0  0  0  0  0  0  0  0
  137.5030   81.5080  223.6880 C   0  0  0  0  0  0  0  0  0  0  0  0
  138.0440   80.5980  224.5840 C   0  0  0  0  0  0  0  0  0  0  0  0
  139.1050   79.7930  224.1910 C   0  0  0  0  0  0  0  0  0  0  0  0
  140.6120   77.6880  222.3360 C   0  0  0  0  0  0  0  0  0  0  0  0
  139.2130   77.1770  222.2160 C   0  0  0  0  0  0  0  0  0  0  0  0
  139.2030   75.6610  222.4530 C   0  0  0  0  0  0  0  0  0  0  0  0
  140.1300   75.0530  221.5020 N   0  0  0  0  0  0  0  0  0  0  0  0
  139.8200   73.8920  220.7560 C   0  0  0  0  0  0  0  0  0  0  0  0
  140.6250   73.3920  219.9080 O   0  0  0  0  0  0  0  0  0  0  0  0
  138.5210   73.1420  220.8940 C   0  0  1  0  0  0  0  0  0  0  0  0
  138.4870   72.1080  219.8560 N   0  0  0  0  0  0  0  0  0  0  0  0
  138.5720   72.5230  222.2610 C   0  0  0  0  0  0  0  0  0  0  0  0
  139.9300   72.0610  222.6100 C   0  0  0  0  0  0  0  0  0  0  0  0
  139.9440   71.2100  223.8090 C   0  0  0  0  0  0  0  0  0  0  0  0
  139.3780   69.9560  223.7160 C   0  0  0  0  0  0  0  0  0  0  0  0
  139.3580   69.0550  224.7610 C   0  0  0  0  0  0  0  0  0  0  0  0
  139.9270   69.4100  225.9640 C   0  0  0  0  0  0  0  0  0  0  0  0
  139.9090   68.5140  227.0120 C   0  0  0  0  0  0  0  0  0  0  0  0
  140.4800   68.8680  228.2180 C   0  0  0  0  0  0  0  0  0  0  0  0
  141.0600   70.1280  228.3510 C   0  0  0  0  0  0  0  0  0  0  0  0
  141.0790   71.0300  227.2980 C   0  0  0  0  0  0  0  0  0  0  0  0
  140.5010   70.6620  226.0880 C   0  0  0  0  0  0  0  0  0  0  0  0
  140.5110   71.5560  225.0180 C   0  0  0  0  0  0  0  0  0  0  0  0
  141.4490   75.6390  221.3030 C   0  0  0  0  0  0  0  0  0  0  0  0
  141.3720   77.1260  221.1310 C   0  0  0  0  0  0  0  0  0  0  0  0
  142.6226   80.9347  224.9921 H   0  0  0  0  0  0  0  0  0  0  0  0
  143.1317   82.0931  223.7171 H   0  0  0  0  0  0  0  0  0  0  0  0
  141.4603   81.4350  223.7171 H   0  0  0  0  0  0  0  0  0  0  0  0
  143.9065   80.3171  222.5488 H   0  0  0  0  0  0  0  0  0  0  0  0
  143.1489   79.1591  223.6823 H   0  0  0  0  0  0  0  0  0  0  0  0
  139.4782   80.8906  221.0153 H   0  0  0  0  0  0  0  0  0  0  0  0
  137.5907   82.3286  221.7027 H   0  0  0  0  0  0  0  0  0  0  0  0
  136.6630   82.1490  223.9937 H   0  0  0  0  0  0  0  0  0  0  0  0
  137.6344   80.5143  225.6015 H   0  0  0  0  0  0  0  0  0  0  0  0
  139.5324   79.0715  224.9029 H   0  0  0  0  0  0  0  0  0  0  0  0
  141.0597   77.3469  223.2811 H   0  0  0  0  0  0  0  0  0  0  0  0
  138.5765   77.6700  222.9655 H   0  0  0  0  0  0  0  0  0  0  0  0
  138.8271   77.3944  221.2091 H   0  0  0  0  0  0  0  0  0  0  0  0
  139.5249   75.4412  223.4816 H   0  0  0  0  0  0  0  0  0  0  0  0
  138.1894   75.2574  222.3124 H   0  0  0  0  0  0  0  0  0  0  0  0
  137.6288   73.7754  220.7810 H   0  0  0  0  0  0  0  0  0  0  0  0
  138.9100   72.4420  218.9750 H   0  0  0  0  0  0  0  0  0  0  0  0
  138.8570   71.2060  220.1770 H   0  0  0  0  0  0  0  0  0  0  0  0
  138.2502   73.2704  223.0012 H   0  0  0  0  0  0  0  0  0  0  0  0
  137.9053   71.6481  222.2622 H   0  0  0  0  0  0  0  0  0  0  0  0
  140.3352   71.4859  221.7644 H   0  0  0  0  0  0  0  0  0  0  0  0
  140.5411   72.9503  222.8239 H   0  0  0  0  0  0  0  0  0  0  0  0
  138.9196   69.6591  222.7612 H   0  0  0  0  0  0  0  0  0  0  0  0
  138.8935   68.0659  224.6348 H   0  0  0  0  0  0  0  0  0  0  0  0
  139.4434   67.5251  226.8880 H   0  0  0  0  0  0  0  0  0  0  0  0
  140.4771   68.1642  229.0634 H   0  0  0  0  0  0  0  0  0  0  0  0
  141.5126   70.4133  229.3121 H   0  0  0  0  0  0  0  0  0  0  0  0
  141.5434   72.0199  227.4178 H   0  0  0  0  0  0  0  0  0  0  0  0
  140.9751   72.5459  225.1390 H   0  0  0  0  0  0  0  0  0  0  0  0
  142.0758   75.4129  222.1782 H   0  0  0  0  0  0  0  0  0  0  0  0
  141.8821   75.2088  220.3879 H   0  0  0  0  0  0  0  0  0  0  0  0
  142.3850   77.5530  221.0930 H   0  0  0  0  0  0  0  0  0  0  0  0
  140.8571   77.3822  220.1933 H   0  0  0  0  0  0  0  0  0  0  0  0
  1  2  1  0
  2  3  1  0
  3  4  2  0
  3  5  1  0
  5  6  1  0
  6  7  2  0
  7  8  1  0
  8  9  2  0
  9 10  1  0
 10 11  2  0
  5 12  1  0
 12 13  1  0
 13 14  1  0
 14 15  1  0
 15 16  1  0
 16 17  2  0
 16 18  1  0
 18 19  1  0
 18 20  1  0
 20 21  1  0
 21 22  1  0
 22 23  2  0
 23 24  1  0
 24 25  2  0
 25 26  1  0
 26 27  2  0
 27 28  1  0
 28 29  2  0
 29 30  1  0
 30 31  2  0
 15 32  1  0
 32 33  1  0
 11  6  1  0
 33 12  1  0
 31 22  1  0
 30 25  1  0
  1 34  1  0
  1 35  1  0
  1 36  1  0
  2 37  1  0
  2 38  1  0
  7 39  1  0
  8 40  1  0
  9 41  1  0
 10 42  1  0
 11 43  1  0
 12 44  1  0
 13 45  1  0
 13 46  1  0
 14 47  1  0
 14 48  1  0
 18 49  1  1
 19 50  1  0
 19 51  1  0
 20 52  1  0
 20 53  1  0
 21 54  1  0
 21 55  1  0
 23 56  1  0
 24 57  1  0
 26 58  1  0
 27 59  1  0
 28 60  1  0
 29 61  1  0
 31 62  1  0
 32 63  1  0
 32 64  1  0
 33 65  1  0
 33 66  1  0
M  END
>  <smiles>  (8) 
CCC(=O)N(c1ccccc1)C1CCN(C(=O)[C@@H](N)CCc2ccc3ccccc3c2)CC1

>  <score_type>  (8) 
oracle

>  <origin>  (8) 
autodockgpu

>  <m_score__min__energy>  (8) 
-9.3800000000000008

>  <m_primary>  (8) 
energy

>  <rmsd>  (8) 
3.4700294960842157

>  <m_score__min__rmsd>  (8) 
3.4700294960842157

>  <meeko>  (8) 
{"free_energy": -8.37, "intermolecular_energy": -11.06, "internal_energy": -2.46, "cluster_size": 4, "cluster_id": 2, "rank_in_cluster": 3}

>  <energy>  (8) 
-8.39

>  <cluster_rmsd>  (8) 
1.59

>  <cluster>  (8) 
2

$$$$

     RDKit          3D

 66 69  0  0  0  0  0  0  0  0999 V2000
  142.2580   81.9850  218.0590 C   0  0  0  0  0  0  0  0  0  0  0  0
  141.4780   81.3410  219.1910 C   0  0  0  0  0  0  0  0  0  0  0  0
  141.9540   79.9380  219.3510 C   0  0  0  0  0  0  0  0  0  0  0  0
  142.6110   79.3960  218.4030 O   0  0  0  0  0  0  0  0  0  0  0  0
  141.6770   79.2120  220.5470 N   0  0  0  0  0  0  0  0  0  0  0  0
  141.8240   79.8690  221.7860 C   0  0  0  0  0  0  0  0  0  0  0  0
  140.7230   80.5770  222.2610 C   0  0  0  0  0  0  0  0  0  0  0  0
  140.7770   81.2500  223.4620 C   0  0  0  0  0  0  0  0  0  0  0  0
  141.9320   81.2280  224.2120 C   0  0  0  0  0  0  0  0  0  0  0  0
  143.0390   80.5270  223.7560 C   0  0  0  0  0  0  0  0  0  0  0  0
  142.9750   79.8530  222.5450 C   0  0  0  0  0  0  0  0  0  0  0  0
  141.2590   77.8490  220.4670 C   0  0  0  0  0  0  0  0  0  0  0  0
  140.9650   77.2250  221.7920 C   0  0  0  0  0  0  0  0  0  0  0  0
  140.8650   75.7020  221.6250 C   0  0  0  0  0  0  0  0  0  0  0  0
  139.8480   75.4290  220.6140 N   0  0  0  0  0  0  0  0  0  0  0  0
  138.8520   74.4360  220.7670 C   0  0  0  0  0  0  0  0  0  0  0  0
  137.9530   74.2310  219.8920 O   0  0  0  0  0  0  0  0  0  0  0  0
  138.7630   73.5330  221.9700 C   0  0  1  0  0  0  0  0  0  0  0  0
  137.3500   73.4240  222.3450 N   0  0  0  0  0  0  0  0  0  0  0  0
  139.2940   72.2080  221.5030 C   0  0  0  0  0  0  0  0  0  0  0  0
  140.5410   71.8350  222.2000 C   0  0  0  0  0  0  0  0  0  0  0  0
  140.2910   71.2770  223.5380 C   0  0  0  0  0  0  0  0  0  0  0  0
  139.6120   70.0790  223.6200 C   0  0  0  0  0  0  0  0  0  0  0  0
  139.3460   69.4400  224.8130 C   0  0  0  0  0  0  0  0  0  0  0  0
  139.7720   70.0140  225.9910 C   0  0  0  0  0  0  0  0  0  0  0  0
  139.5090   69.3790  227.1880 C   0  0  0  0  0  0  0  0  0  0  0  0
  139.9360   69.9530  228.3680 C   0  0  0  0  0  0  0  0  0  0  0  0
  140.6250   71.1640  228.3250 C   0  0  0  0  0  0  0  0  0  0  0  0
  140.8910   71.8020  227.1240 C   0  0  0  0  0  0  0  0  0  0  0  0
  140.4550   71.2150  225.9410 C   0  0  0  0  0  0  0  0  0  0  0  0
  140.7140   71.8430  224.7220 C   0  0  0  0  0  0  0  0  0  0  0  0
  139.8420   76.1890  219.3700 C   0  0  0  0  0  0  0  0  0  0  0  0
  139.9960   77.6580  219.6210 C   0  0  0  0  0  0  0  0  0  0  0  0
  143.0427   82.6329  218.4766 H   0  0  0  0  0  0  0  0  0  0  0  0
  142.7200   81.2018  217.4401 H   0  0  0  0  0  0  0  0  0  0  0  0
  141.5764   82.5870  217.4401 H   0  0  0  0  0  0  0  0  0  0  0  0
  141.6471   81.8994  220.1235 H   0  0  0  0  0  0  0  0  0  0  0  0
  140.4020   81.3515  218.9627 H   0  0  0  0  0  0  0  0  0  0  0  0
  139.7964   80.5993  221.6686 H   0  0  0  0  0  0  0  0  0  0  0  0
  139.8979   81.8047  223.8218 H   0  0  0  0  0  0  0  0  0  0  0  0
  141.9767   81.7653  225.1708 H   0  0  0  0  0  0  0  0  0  0  0  0
  143.9633   80.5057  224.3519 H   0  0  0  0  0  0  0  0  0  0  0  0
  143.8543   79.2984  222.1856 H   0  0  0  0  0  0  0  0  0  0  0  0
  142.1264   77.3582  220.0016 H   0  0  0  0  0  0  0  0  0  0  0  0
  141.7733   77.4648  222.4985 H   0  0  0  0  0  0  0  0  0  0  0  0
  140.0131   77.6163  222.1803 H   0  0  0  0  0  0  0  0  0  0  0  0
  141.8345   75.2970  221.2993 H   0  0  0  0  0  0  0  0  0  0  0  0
  140.5939   75.2281  222.5799 H   0  0  0  0  0  0  0  0  0  0  0  0
  139.3260   73.8979  222.8417 H   0  0  0  0  0  0  0  0  0  0  0  0
  137.1840   73.7750  223.3020 H   0  0  0  0  0  0  0  0  0  0  0  0
  136.7170   73.8220  221.6420 H   0  0  0  0  0  0  0  0  0  0  0  0
  138.5356   71.4344  221.6936 H   0  0  0  0  0  0  0  0  0  0  0  0
  139.5169   72.2908  220.4290 H   0  0  0  0  0  0  0  0  0  0  0  0
  141.0711   71.0830  221.5972 H   0  0  0  0  0  0  0  0  0  0  0  0
  141.1413   72.7483  222.3246 H   0  0  0  0  0  0  0  0  0  0  0  0
  139.2654   69.6099  222.6873 H   0  0  0  0  0  0  0  0  0  0  0  0
  138.8009   68.4846  224.8239 H   0  0  0  0  0  0  0  0  0  0  0  0
  138.9638   68.4237  227.2012 H   0  0  0  0  0  0  0  0  0  0  0  0
  139.7351   69.4608  229.3310 H   0  0  0  0  0  0  0  0  0  0  0  0
  140.9650   71.6232  229.2650 H   0  0  0  0  0  0  0  0  0  0  0  0
  141.4377   72.7564  227.1066 H   0  0  0  0  0  0  0  0  0  0  0  0
  141.2602   72.7976  224.7056 H   0  0  0  0  0  0  0  0  0  0  0  0
  140.6741   75.8456  218.7378 H   0  0  0  0  0  0  0  0  0  0  0  0
  138.8757   76.0245  218.8707 H   0  0  0  0  0  0  0  0  0  0  0  0
  140.0988   78.1938  218.6658 H   0  0  0  0  0  0  0  0  0  0  0  0
  139.1144   78.0569  220.1442 H   0  0  0  0  0  0  0  0  0  0  0  0
  1  2  1  0
  2  3  1  0
  3  4  2  0
  3  5  1  0
  5  6  1  0
  6  7  2  0
  7  8  1  0
  8  9  2  0
  9 10  1  0
 10 11  2  0
  5 12  1  0
 12 13  1  0
 13 14  1  0
 14 15  1  0
 15 16  1  0
 16 17  2  0
 16 18  1  0
 18 19  1  0
 18 20  1  0
 20 21  1  0
 21 22  1  0
 22 23  2  0
 23 24  1  0
 24 25  2  0
 25 26  1  0
 26 27  2  0
 27 28  1  0
 28 29  2  0
 29 30  1  0
 30 31  2  0
 15 32  1  0
 32 33  1  0
 11  6  1  0
 33 12  1  0
 31 22  1  0
 30 25  1  0
  1 34  1  0
  1 35  1  0
  1 36  1  0
  2 37  1  0
  2 38  1  0
  7 39  1  0
  8 40  1  0
  9 41  1  0
 10 42  1  0
 11 43  1  0
 12 44  1  0
 13 45  1  0
 13 46  1  0
 14 47  1  0
 14 48  1  0
 18 49  1  1
 19 50  1  0
 19 51  1  0
 20 52  1  0
 20 53  1  0
 21 54  1  0
 21 55  1  0
 23 56  1  0
 24 57  1  0
 26 58  1  0
 27 59  1  0
 28 60  1  0
 29 61  1  0
 31 62  1  0
 32 63  1  0
 32 64  1  0
 33 65  1  0
 33 66  1  0
M  END
>  <smiles>  (9) 
CCC(=O)N(c1ccccc1)C1CCN(C(=O)[C@@H](N)CCc2ccc3ccccc3c2)CC1

>  <score_type>  (9) 
oracle

>  <origin>  (9) 
autodockgpu

>  <m_score__min__energy>  (9) 
-9.3800000000000008

>  <m_primary>  (9) 
energy

>  <rmsd>  (9) 
3.5660006451618753

>  <m_score__min__rmsd>  (9) 
3.5660006451618753

>  <meeko>  (9) 
{"free_energy": -8.6, "intermolecular_energy": -11.28, "internal_energy": -2.3, "cluster_size": 38, "cluster_id": 3, "rank_in_cluster": 12}

>  <energy>  (9) 
-8.37

>  <cluster_rmsd>  (9) 
1.69

>  <cluster>  (9) 
2

$$$$

     RDKit          3D

 66 69  0  0  0  0  0  0  0  0999 V2000
  137.7220   80.8410  224.6160 C   0  0  0  0  0  0  0  0  0  0  0  0
  138.0450   81.5860  223.3330 C   0  0  0  0  0  0  0  0  0  0  0  0
  138.0990   80.6000  222.2180 C   0  0  0  0  0  0  0  0  0  0  0  0
  137.2750   80.7140  221.2520 O   0  0  0  0  0  0  0  0  0  0  0  0
  139.0570   79.5430  222.2310 N   0  0  0  0  0  0  0  0  0  0  0  0
  140.3730   79.8290  222.6490 C   0  0  0  0  0  0  0  0  0  0  0  0
  141.1710   80.5560  221.7710 C   0  0  0  0  0  0  0  0  0  0  0  0
  142.4700   80.8810  222.0960 C   0  0  0  0  0  0  0  0  0  0  0  0
  142.9960   80.4840  223.3060 C   0  0  0  0  0  0  0  0  0  0  0  0
  142.2160   79.7590  224.1950 C   0  0  0  0  0  0  0  0  0  0  0  0
  140.9090   79.4370  223.8580 C   0  0  0  0  0  0  0  0  0  0  0  0
  138.6680   78.2300  221.8260 C   0  0  0  0  0  0  0  0  0  0  0  0
  139.7950   77.2500  221.7800 C   0  0  0  0  0  0  0  0  0  0  0  0
  139.3450   75.9950  221.0180 C   0  0  0  0  0  0  0  0  0  0  0  0
  138.1490   75.4780  221.6760 N   0  0  0  0  0  0  0  0  0  0  0  0
  137.9570   74.1060  221.9650 C   0  0  0  0  0  0  0  0  0  0  0  0
  136.9240   73.6740  222.5670 O   0  0  0  0  0  0  0  0  0  0  0  0
  138.9500   73.0360  221.5910 C   0  0  1  0  0  0  0  0  0  0  0  0
  140.1520   73.2340  222.4060 N   0  0  0  0  0  0  0  0  0  0  0  0
  138.2760   71.7410  221.9420 C   0  0  0  0  0  0  0  0  0  0  0  0
  139.2470   70.6420  222.1160 C   0  0  0  0  0  0  0  0  0  0  0  0
  139.4680   70.3060  223.5310 C   0  0  0  0  0  0  0  0  0  0  0  0
  139.0570   69.0640  223.9700 C   0  0  0  0  0  0  0  0  0  0  0  0
  139.2380   68.6210  225.2640 C   0  0  0  0  0  0  0  0  0  0  0  0
  139.8570   69.4480  226.1760 C   0  0  0  0  0  0  0  0  0  0  0  0
  140.0390   69.0100  227.4710 C   0  0  0  0  0  0  0  0  0  0  0  0
  140.6600   69.8370  228.3850 C   0  0  0  0  0  0  0  0  0  0  0  0
  141.0870   71.1000  227.9790 C   0  0  0  0  0  0  0  0  0  0  0  0
  140.9050   71.5410  226.6770 C   0  0  0  0  0  0  0  0  0  0  0  0
  140.2790   70.6990  225.7650 C   0  0  0  0  0  0  0  0  0  0  0  0
  140.0870   71.1260  224.4510 C   0  0  0  0  0  0  0  0  0  0  0  0
  137.0760   76.3910  222.0490 C   0  0  0  0  0  0  0  0  0  0  0  0
  137.6070   77.6110  222.7390 C   0  0  0  0  0  0  0  0  0  0  0  0
  137.9926   81.4651  225.4804 H   0  0  0  0  0  0  0  0  0  0  0  0
  136.6457   80.6164  224.6485 H   0  0  0  0  0  0  0  0  0  0  0  0
  138.2937   79.9018  224.6485 H   0  0  0  0  0  0  0  0  0  0  0  0
  137.2637   82.3334  223.1306 H   0  0  0  0  0  0  0  0  0  0  0  0
  139.0118   82.1019  223.4286 H   0  0  0  0  0  0  0  0  0  0  0  0
  140.7586   80.8761  220.8028 H   0  0  0  0  0  0  0  0  0  0  0  0
  143.0865   81.4569  221.3901 H   0  0  0  0  0  0  0  0  0  0  0  0
  144.0331   80.7416  223.5667 H   0  0  0  0  0  0  0  0  0  0  0  0
  142.6316   79.4409  225.1625 H   0  0  0  0  0  0  0  0  0  0  0  0
  140.2923   78.8616  224.5642 H   0  0  0  0  0  0  0  0  0  0  0  0
  138.2708   78.3978  220.8141 H   0  0  0  0  0  0  0  0  0  0  0  0
  140.6554   77.7033  221.2660 H   0  0  0  0  0  0  0  0  0  0  0  0
  140.0861   76.9747  222.8044 H   0  0  0  0  0  0  0  0  0  0  0  0
  139.1154   76.2536  219.9738 H   0  0  0  0  0  0  0  0  0  0  0  0
  140.1426   75.2375  221.0205 H   0  0  0  0  0  0  0  0  0  0  0  0
  139.2438   73.0537  220.5311 H   0  0  0  0  0  0  0  0  0  0  0  0
  140.7860   73.9310  221.9820 H   0  0  0  0  0  0  0  0  0  0  0  0
  139.9420   73.4130  223.3940 H   0  0  0  0  0  0  0  0  0  0  0  0
  137.7180   71.8739  222.8806 H   0  0  0  0  0  0  0  0  0  0  0  0
  137.6033   71.4725  221.1141 H   0  0  0  0  0  0  0  0  0  0  0  0
  138.8672   69.7499  221.5965 H   0  0  0  0  0  0  0  0  0  0  0  0
  140.2080   70.9748  221.6969 H   0  0  0  0  0  0  0  0  0  0  0  0
  138.5605   68.3940  223.2527 H   0  0  0  0  0  0  0  0  0  0  0  0
  138.8927   67.6206  225.5638 H   0  0  0  0  0  0  0  0  0  0  0  0
  139.6924   68.0106  227.7727 H   0  0  0  0  0  0  0  0  0  0  0  0
  140.8160   69.5032  229.4215 H   0  0  0  0  0  0  0  0  0  0  0  0
  141.5791   71.7614  228.7073 H   0  0  0  0  0  0  0  0  0  0  0  0
  141.2499   72.5397  226.3711 H   0  0  0  0  0  0  0  0  0  0  0  0
  140.4322   72.1250  224.1461 H   0  0  0  0  0  0  0  0  0  0  0  0
  136.5378   76.6999  221.1407 H   0  0  0  0  0  0  0  0  0  0  0  0
  136.4034   75.8670  222.7440 H   0  0  0  0  0  0  0  0  0  0  0  0
  136.7925   78.3303  222.9100 H   0  0  0  0  0  0  0  0  0  0  0  0
  138.0414   77.3466  223.7144 H   0  0  0  0  0  0  0  0  0  0  0  0
  1  2  1  0
  2  3  1  0
  3  4  2  0
  3  5  1  0
  5  6  1  0
  6  7  2  0
  7  8  1  0
  8  9  2  0
  9 10  1  0
 10 11  2  0
  5 12  1  0
 12 13  1  0
 13 14  1  0
 14 15  1  0
 15 16  1  0
 16 17  2  0
 16 18  1  0
 18 19  1  0
 18 20  1  0
 20 21  1  0
 21 22  1  0
 22 23  2  0
 23 24  1  0
 24 25  2  0
 25 26  1  0
 26 27  2  0
 27 28  1  0
 28 29  2  0
 29 30  1  0
 30 31  2  0
 15 32  1  0
 32 33  1  0
 11  6  1  0
 33 12  1  0
 31 22  1  0
 30 25  1  0
  1 34  1  0
  1 35  1  0
  1 36  1  0
  2 37  1  0
  2 38  1  0
  7 39  1  0
  8 40  1  0
  9 41  1  0
 10 42  1  0
 11 43  1  0
 12 44  1  0
 13 45  1  0
 13 46  1  0
 14 47  1  0
 14 48  1  0
 18 49  1  6
 19 50  1  0
 19 51  1  0
 20 52  1  0
 20 53  1  0
 21 54  1  0
 21 55  1  0
 23 56  1  0
 24 57  1  0
 26 58  1  0
 27 59  1  0
 28 60  1  0
 29 61  1  0
 31 62  1  0
 32 63  1  0
 32 64  1  0
 33 65  1  0
 33 66  1  0
M  END
>  <smiles>  (10) 
CCC(=O)N(c1ccccc1)C1CCN(C(=O)[C@@H](N)CCc2ccc3ccccc3c2)CC1

>  <score_type>  (10) 
oracle

>  <origin>  (10) 
autodockgpu

>  <m_score__min__energy>  (10) 
-9.3800000000000008

>  <m_primary>  (10) 
energy

>  <rmsd>  (10) 
3.2004039835423166

>  <m_score__min__rmsd>  (10) 
3.2004039835423166

>  <meeko>  (10) 
{"free_energy": -8.93, "intermolecular_energy": -11.61, "internal_energy": -1.74, "cluster_size": 6, "cluster_id": 1, "rank_in_cluster": 4}

>  <energy>  (10) 
-8.33

>  <cluster_rmsd>  (10) 
1.7

>  <cluster>  (10) 
2

$$$$

     RDKit          3D

 66 69  0  0  0  0  0  0  0  0999 V2000
  142.1980   79.0710  217.3850 C   0  0  0  0  0  0  0  0  0  0  0  0
  142.0300   79.2530  218.8830 C   0  0  0  0  0  0  0  0  0  0  0  0
  142.1730   77.9220  219.5380 C   0  0  0  0  0  0  0  0  0  0  0  0
  143.0460   77.1060  219.0940 O   0  0  0  0  0  0  0  0  0  0  0  0
  141.3460   77.5670  220.6440 N   0  0  0  0  0  0  0  0  0  0  0  0
  141.2340   78.4690  221.7220 C   0  0  0  0  0  0  0  0  0  0  0  0
  142.4120   79.0500  222.1850 C   0  0  0  0  0  0  0  0  0  0  0  0
  142.3980   79.9420  223.2340 C   0  0  0  0  0  0  0  0  0  0  0  0
  141.2060   80.2710  223.8420 C   0  0  0  0  0  0  0  0  0  0  0  0
  140.0220   79.7030  223.3950 C   0  0  0  0  0  0  0  0  0  0  0  0
  140.0470   78.8050  222.3370 C   0  0  0  0  0  0  0  0  0  0  0  0
  140.6530   76.3180  220.6370 C   0  0  0  0  0  0  0  0  0  0  0  0
  140.6120   75.6380  221.9670 C   0  0  0  0  0  0  0  0  0  0  0  0
  140.1620   74.1830  221.7800 C   0  0  0  0  0  0  0  0  0  0  0  0
  138.8740   74.1980  221.0930 N   0  0  0  0  0  0  0  0  0  0  0  0
  137.7780   73.3960  221.4880 C   0  0  0  0  0  0  0  0  0  0  0  0
  136.6510   73.4440  220.9010 O   0  0  0  0  0  0  0  0  0  0  0  0
  137.8390   72.4180  222.6320 C   0  0  1  0  0  0  0  0  0  0  0  0
  136.5460   72.4520  223.3220 N   0  0  0  0  0  0  0  0  0  0  0  0
  138.0630   71.0800  221.9890 C   0  0  0  0  0  0  0  0  0  0  0  0
  139.4490   70.6040  222.1710 C   0  0  0  0  0  0  0  0  0  0  0  0
  139.8100   70.4520  223.5890 C   0  0  0  0  0  0  0  0  0  0  0  0
  140.4090   71.5230  224.2200 C   0  0  0  0  0  0  0  0  0  0  0  0
  140.7640   71.5150  225.5530 C   0  0  0  0  0  0  0  0  0  0  0  0
  140.5160   70.3870  226.3060 C   0  0  0  0  0  0  0  0  0  0  0  0
  140.8700   70.3730  227.6390 C   0  0  0  0  0  0  0  0  0  0  0  0
  140.6210   69.2450  228.3940 C   0  0  0  0  0  0  0  0  0  0  0  0
  140.0190   68.1420  227.7920 C   0  0  0  0  0  0  0  0  0  0  0  0
  139.6620   68.1550  226.4520 C   0  0  0  0  0  0  0  0  0  0  0  0
  139.9180   69.2970  225.7010 C   0  0  0  0  0  0  0  0  0  0  0  0
  139.5660   69.3300  224.3510 C   0  0  0  0  0  0  0  0  0  0  0  0
  138.6830   75.0580  219.9320 C   0  0  0  0  0  0  0  0  0  0  0  0
  139.1960   76.4440  220.1820 C   0  0  0  0  0  0  0  0  0  0  0  0
  142.9326   78.2752  217.1924 H   0  0  0  0  0  0  0  0  0  0  0  0
  141.2316   78.7938  216.9386 H   0  0  0  0  0  0  0  0  0  0  0  0
  142.5515   80.0122  216.9386 H   0  0  0  0  0  0  0  0  0  0  0  0
  142.8018   79.9387  219.2627 H   0  0  0  0  0  0  0  0  0  0  0  0
  141.0396   79.6779  219.1032 H   0  0  0  0  0  0  0  0  0  0  0  0
  143.3679   78.7925  221.7056 H   0  0  0  0  0  0  0  0  0  0  0  0
  143.3380   80.3917  223.5864 H   0  0  0  0  0  0  0  0  0  0  0  0
  141.1933   80.9829  224.6805 H   0  0  0  0  0  0  0  0  0  0  0  0
  139.0679   79.9630  223.8767 H   0  0  0  0  0  0  0  0  0  0  0  0
  139.1070   78.3554  221.9846 H   0  0  0  0  0  0  0  0  0  0  0  0
  141.2410   75.7205  219.9248 H   0  0  0  0  0  0  0  0  0  0  0  0
  141.6140   75.6572  222.4203 H   0  0  0  0  0  0  0  0  0  0  0  0
  139.9032   76.1607  222.6260 H   0  0  0  0  0  0  0  0  0  0  0  0
  140.9018   73.6374  221.1758 H   0  0  0  0  0  0  0  0  0  0  0  0
  140.0713   73.6810  222.7546 H   0  0  0  0  0  0  0  0  0  0  0  0
  138.6288   72.6414  223.3644 H   0  0  0  0  0  0  0  0  0  0  0  0
  136.5940   73.0100  224.1900 H   0  0  0  0  0  0  0  0  0  0  0  0
  135.7690   72.7140  222.7050 H   0  0  0  0  0  0  0  0  0  0  0  0
  137.3747   70.3498  222.4395 H   0  0  0  0  0  0  0  0  0  0  0  0
  137.8793   71.1866  220.9097 H   0  0  0  0  0  0  0  0  0  0  0  0
  139.5555   69.6289  221.6732 H   0  0  0  0  0  0  0  0  0  0  0  0
  140.1214   71.3566  221.7334 H   0  0  0  0  0  0  0  0  0  0  0  0
  140.6137   72.4288  223.6304 H   0  0  0  0  0  0  0  0  0  0  0  0
  141.2385   72.3965  226.0089 H   0  0  0  0  0  0  0  0  0  0  0  0
  141.3464   71.2529  228.0961 H   0  0  0  0  0  0  0  0  0  0  0  0
  140.8947   69.2170  229.4590 H   0  0  0  0  0  0  0  0  0  0  0  0
  139.8227   67.2415  228.3925 H   0  0  0  0  0  0  0  0  0  0  0  0
  139.1848   67.2775  225.9913 H   0  0  0  0  0  0  0  0  0  0  0  0
  139.0892   68.4520  223.8907 H   0  0  0  0  0  0  0  0  0  0  0  0
  139.2222   74.6268  219.0757 H   0  0  0  0  0  0  0  0  0  0  0  0
  137.6046   75.1223  219.7250 H   0  0  0  0  0  0  0  0  0  0  0  0
  139.1408   77.0378  219.2577 H   0  0  0  0  0  0  0  0  0  0  0  0
  138.5917   76.9492  220.9498 H   0  0  0  0  0  0  0  0  0  0  0  0
  1  2  1  0
  2  3  1  0
  3  4  2  0
  3  5  1  0
  5  6  1  0
  6  7  2  0
  7  8  1  0
  8  9  2  0
  9 10  1  0
 10 11  2  0
  5 12  1  0
 12 13  1  0
 13 14  1  0
 14 15  1  0
 15 16  1  0
 16 17  2  0
 16 18  1  0
 18 19  1  0
 18 20  1  0
 20 21  1  0
 21 22  1  0
 22 23  2  0
 23 24  1  0
 24 25  2  0
 25 26  1  0
 26 27  2  0
 27 28  1  0
 28 29  2  0
 29 30  1  0
 30 31  2  0
 15 32  1  0
 32 33  1  0
 11  6  1  0
 33 12  1  0
 31 22  1  0
 30 25  1  0
  1 34  1  0
  1 35  1  0
  1 36  1  0
  2 37  1  0
  2 38  1  0
  7 39  1  0
  8 40  1  0
  9 41  1  0
 10 42  1  0
 11 43  1  0
 12 44  1  0
 13 45  1  0
 13 46  1  0
 14 47  1  0
 14 48  1  0
 18 49  1  1
 19 50  1  0
 19 51  1  0
 20 52  1  0
 20 53  1  0
 21 54  1  0
 21 55  1  0
 23 56  1  0
 24 57  1  0
 26 58  1  0
 27 59  1  0
 28 60  1  0
 29 61  1  0
 31 62  1  0
 32 63  1  0
 32 64  1  0
 33 65  1  0
 33 66  1  0
M  END
>  <smiles>  (11) 
CCC(=O)N(c1ccccc1)C1CCN(C(=O)[C@@H](N)CCc2ccc3ccccc3c2)CC1

>  <score_type>  (11) 
oracle

>  <origin>  (11) 
autodockgpu

>  <m_score__min__energy>  (11) 
-9.3800000000000008

>  <m_primary>  (11) 
energy

>  <rmsd>  (11) 
2.6832951422258944

>  <m_score__min__rmsd>  (11) 
2.6832951422258944

>  <meeko>  (11) 
{"free_energy": -8.17, "intermolecular_energy": -10.85, "internal_energy": -2.44, "cluster_size": 38, "cluster_id": 3, "rank_in_cluster": 38}

>  <energy>  (11) 
-8.8

>  <cluster_rmsd>  (11) 
0.0

>  <cluster>  (11) 
3

$$$$

     RDKit          3D

 66 69  0  0  0  0  0  0  0  0999 V2000
  142.5310   81.1320  223.8920 C   0  0  0  0  0  0  0  0  0  0  0  0
  142.7740   79.7950  223.2160 C   0  0  0  0  0  0  0  0  0  0  0  0
  141.4570   79.2140  222.8360 C   0  0  0  0  0  0  0  0  0  0  0  0
  140.5650   79.0630  223.7340 O   0  0  0  0  0  0  0  0  0  0  0  0
  141.1970   78.8300  221.4860 N   0  0  0  0  0  0  0  0  0  0  0  0
  141.4900   79.7460  220.4550 C   0  0  0  0  0  0  0  0  0  0  0  0
  141.1170   81.0710  220.6610 C   0  0  0  0  0  0  0  0  0  0  0  0
  141.3640   82.0340  219.7080 C   0  0  0  0  0  0  0  0  0  0  0  0
  141.9890   81.6910  218.5290 C   0  0  0  0  0  0  0  0  0  0  0  0
  142.3680   80.3760  218.3050 C   0  0  0  0  0  0  0  0  0  0  0  0
  142.1160   79.4130  219.2720 C   0  0  0  0  0  0  0  0  0  0  0  0
  140.6520   77.5400  221.2100 C   0  0  0  0  0  0  0  0  0  0  0  0
  140.8140   76.5600  222.3250 C   0  0  0  0  0  0  0  0  0  0  0  0
  140.5150   75.1460  221.8070 C   0  0  0  0  0  0  0  0  0  0  0  0
  139.1740   75.1560  221.2300 N   0  0  0  0  0  0  0  0  0  0  0  0
  138.2180   74.1440  221.4800 C   0  0  0  0  0  0  0  0  0  0  0  0
  137.0430   74.1820  220.9970 O   0  0  0  0  0  0  0  0  0  0  0  0
  138.4970   72.9350  222.3350 C   0  0  1  0  0  0  0  0  0  0  0  0
  137.2180   72.4570  222.8680 N   0  0  0  0  0  0  0  0  0  0  0  0
  139.0940   71.9250  221.3980 C   0  0  0  0  0  0  0  0  0  0  0  0
  140.3130   71.3060  221.9560 C   0  0  0  0  0  0  0  0  0  0  0  0
  140.1570   70.9300  223.3690 C   0  0  0  0  0  0  0  0  0  0  0  0
  139.4470   69.7820  223.6550 C   0  0  0  0  0  0  0  0  0  0  0  0
  139.2590   69.3080  224.9380 C   0  0  0  0  0  0  0  0  0  0  0  0
  139.8000   70.0050  225.9960 C   0  0  0  0  0  0  0  0  0  0  0  0
  139.6150   69.5360  227.2800 C   0  0  0  0  0  0  0  0  0  0  0  0
  140.1570   70.2330  228.3410 C   0  0  0  0  0  0  0  0  0  0  0  0
  140.8790   71.3990  228.0910 C   0  0  0  0  0  0  0  0  0  0  0  0
  141.0670   71.8710  226.8010 C   0  0  0  0  0  0  0  0  0  0  0  0
  140.5160   71.1600  225.7400 C   0  0  0  0  0  0  0  0  0  0  0  0
  140.6940   71.6200  224.4350 C   0  0  0  0  0  0  0  0  0  0  0  0
  138.7790   76.2370  220.3370 C   0  0  0  0  0  0  0  0  0  0  0  0
  139.1540   77.5770  220.8950 C   0  0  0  0  0  0  0  0  0  0  0  0
  142.5549   81.0005  224.9839 H   0  0  0  0  0  0  0  0  0  0  0  0
  143.3147   81.8428  223.5910 H   0  0  0  0  0  0  0  0  0  0  0  0
  141.5473   81.5216  223.5910 H   0  0  0  0  0  0  0  0  0  0  0  0
  143.3895   79.9403  222.3160 H   0  0  0  0  0  0  0  0  0  0  0  0
  143.3030   79.1160  223.9009 H   0  0  0  0  0  0  0  0  0  0  0  0
  140.6173   81.3533  221.5994 H   0  0  0  0  0  0  0  0  0  0  0  0
  141.0625   83.0764  219.8880 H   0  0  0  0  0  0  0  0  0  0  0  0
  142.1870   82.4589  217.7667 H   0  0  0  0  0  0  0  0  0  0  0  0
  142.8663   80.0974  217.3647 H   0  0  0  0  0  0  0  0  0  0  0  0
  142.4193   78.3710  219.0927 H   0  0  0  0  0  0  0  0  0  0  0  0
  141.2338   77.2161  220.3345 H   0  0  0  0  0  0  0  0  0  0  0  0
  141.8459   76.6018  222.7036 H   0  0  0  0  0  0  0  0  0  0  0  0
  140.1163   76.8091  223.1381 H   0  0  0  0  0  0  0  0  0  0  0  0
  141.2507   74.8656  221.0388 H   0  0  0  0  0  0  0  0  0  0  0  0
  140.5746   74.4158  222.6275 H   0  0  0  0  0  0  0  0  0  0  0  0
  139.1713   73.1356  223.1806 H   0  0  0  0  0  0  0  0  0  0  0  0
  136.9790   72.9260  223.7570 H   0  0  0  0  0  0  0  0  0  0  0  0
  136.4620   72.4760  222.1740 H   0  0  0  0  0  0  0  0  0  0  0  0
  138.3515   71.1366  221.2056 H   0  0  0  0  0  0  0  0  0  0  0  0
  139.3715   72.4452  220.4694 H   0  0  0  0  0  0  0  0  0  0  0  0
  140.5478   70.4024  221.3743 H   0  0  0  0  0  0  0  0  0  0  0  0
  141.1228   72.0479  221.8948 H   0  0  0  0  0  0  0  0  0  0  0  0
  139.0091   69.2164  222.8194 H   0  0  0  0  0  0  0  0  0  0  0  0
  138.6849   68.3862  225.1131 H   0  0  0  0  0  0  0  0  0  0  0  0
  139.0406   68.6147  227.4568 H   0  0  0  0  0  0  0  0  0  0  0  0
  140.0208   69.8727  229.3714 H   0  0  0  0  0  0  0  0  0  0  0  0
  141.3090   71.9569  228.9359 H   0  0  0  0  0  0  0  0  0  0  0  0
  141.6416   72.7913  226.6198 H   0  0  0  0  0  0  0  0  0  0  0  0
  141.2677   72.5411  224.2550 H   0  0  0  0  0  0  0  0  0  0  0  0
  139.2805   76.1007  219.3675 H   0  0  0  0  0  0  0  0  0  0  0  0
  137.6856   76.2058  220.2208 H   0  0  0  0  0  0  0  0  0  0  0  0
  138.9448   78.3640  220.1555 H   0  0  0  0  0  0  0  0  0  0  0  0
  138.5720   77.7961  221.8024 H   0  0  0  0  0  0  0  0  0  0  0  0
  1  2  1  0
  2  3  1  0
  3  4  2  0
  3  5  1  0
  5  6  1  0
  6  7  2  0
  7  8  1  0
  8  9  2  0
  9 10  1  0
 10 11  2  0
  5 12  1  0
 12 13  1  0
 13 14  1  0
 14 15  1  0
 15 16  1  0
 16 17  2  0
 16 18  1  0
 18 19  1  0
 18 20  1  0
 20 21  1  0
 21 22  1  0
 22 23  2  0
 23 24  1  0
 24 25  2  0
 25 26  1  0
 26 27  2  0
 27 28  1  0
 28 29  2  0
 29 30  1  0
 30 31  2  0
 15 32  1  0
 32 33  1  0
 11  6  1  0
 33 12  1  0
 31 22  1  0
 30 25  1  0
  1 34  1  0
  1 35  1  0
  1 36  1  0
  2 37  1  0
  2 38  1  0
  7 39  1  0
  8 40  1  0
  9 41  1  0
 10 42  1  0
 11 43  1  0
 12 44  1  0
 13 45  1  0
 13 46  1  0
 14 47  1  0
 14 48  1  0
 18 49  1  1
 19 50  1  0
 19 51  1  0
 20 52  1  0
 20 53  1  0
 21 54  1  0
 21 55  1  0
 23 56  1  0
 24 57  1  0
 26 58  1  0
 27 59  1  0
 28 60  1  0
 29 61  1  0
 31 62  1  0
 32 63  1  0
 32 64  1  0
 33 65  1  0
 33 66  1  0
M  END
>  <smiles>  (12) 
CCC(=O)N(c1ccccc1)C1CCN(C(=O)[C@@H](N)CCc2ccc3ccccc3c2)CC1

>  <score_type>  (12) 
oracle

>  <origin>  (12) 
autodockgpu

>  <m_score__min__energy>  (12) 
-9.3800000000000008

>  <m_primary>  (12) 
energy

>  <rmsd>  (12) 
3.3545235325019847

>  <m_score__min__rmsd>  (12) 
3.3545235325019847

>  <meeko>  (12) 
{"free_energy": -8.43, "intermolecular_energy": -11.12, "internal_energy": -2.47, "cluster_size": 38, "cluster_id": 3, "rank_in_cluster": 26}

>  <energy>  (12) 
-8.79

>  <cluster_rmsd>  (12) 
1.84

>  <cluster>  (12) 
3

$$$$

     RDKit          3D

 66 69  0  0  0  0  0  0  0  0999 V2000
  142.5290   80.1410  218.2650 C   0  0  0  0  0  0  0  0  0  0  0  0
  142.2810   78.6960  218.6600 C   0  0  0  0  0  0  0  0  0  0  0  0
  141.0920   78.6510  219.5550 C   0  0  0  0  0  0  0  0  0  0  0  0
  139.9490   78.9570  219.0800 O   0  0  0  0  0  0  0  0  0  0  0  0
  141.2290   78.2710  220.9230 N   0  0  0  0  0  0  0  0  0  0  0  0
  141.5810   79.2590  221.8670 C   0  0  0  0  0  0  0  0  0  0  0  0
  141.2410   80.5740  221.5610 C   0  0  0  0  0  0  0  0  0  0  0  0
  141.5460   81.6030  222.4240 C   0  0  0  0  0  0  0  0  0  0  0  0
  142.1970   81.3390  223.6090 C   0  0  0  0  0  0  0  0  0  0  0  0
  142.5430   80.0340  223.9310 C   0  0  0  0  0  0  0  0  0  0  0  0
  142.2310   79.0040  223.0550 C   0  0  0  0  0  0  0  0  0  0  0  0
  141.0090   76.9140  221.3070 C   0  0  0  0  0  0  0  0  0  0  0  0
  139.5950   76.4590  221.1470 C   0  0  0  0  0  0  0  0  0  0  0  0
  139.4000   75.1330  221.8940 C   0  0  0  0  0  0  0  0  0  0  0  0
  140.3800   74.1810  221.3790 N   0  0  0  0  0  0  0  0  0  0  0  0
  140.0580   72.8440  221.0460 C   0  0  0  0  0  0  0  0  0  0  0  0
  140.9150   72.0360  220.5670 O   0  0  0  0  0  0  0  0  0  0  0  0
  138.6830   72.2560  221.2240 C   0  0  1  0  0  0  0  0  0  0  0  0
  138.5920   71.0630  220.3770 N   0  0  0  0  0  0  0  0  0  0  0  0
  138.6040   71.8830  222.6770 C   0  0  0  0  0  0  0  0  0  0  0  0
  138.3670   70.4380  222.8650 C   0  0  0  0  0  0  0  0  0  0  0  0
  138.9250   69.9370  224.1310 C   0  0  0  0  0  0  0  0  0  0  0  0
  138.8560   68.5810  224.3730 C   0  0  0  0  0  0  0  0  0  0  0  0
  139.3720   67.9870  225.5070 C   0  0  0  0  0  0  0  0  0  0  0  0
  139.9890   68.7740  226.4540 C   0  0  0  0  0  0  0  0  0  0  0  0
  140.5060   68.1860  227.5900 C   0  0  0  0  0  0  0  0  0  0  0  0
  141.1250   68.9740  228.5400 C   0  0  0  0  0  0  0  0  0  0  0  0
  141.2120   70.3490  228.3310 C   0  0  0  0  0  0  0  0  0  0  0  0
  140.6940   70.9410  227.1890 C   0  0  0  0  0  0  0  0  0  0  0  0
  140.0720   70.1380  226.2400 C   0  0  0  0  0  0  0  0  0  0  0  0
  139.5450   70.7160  225.0850 C   0  0  0  0  0  0  0  0  0  0  0  0
  141.7670   74.5940  221.2040 C   0  0  0  0  0  0  0  0  0  0  0  0
  141.8640   75.9210  220.5140 C   0  0  0  0  0  0  0  0  0  0  0  0
  142.6345   80.7558  219.1710 H   0  0  0  0  0  0  0  0  0  0  0  0
  143.4513   80.2051  217.6689 H   0  0  0  0  0  0  0  0  0  0  0  0
  141.6809   80.5089  217.6689 H   0  0  0  0  0  0  0  0  0  0  0  0
  142.0918   78.0921  217.7603 H   0  0  0  0  0  0  0  0  0  0  0  0
  143.1611   78.2899  219.1801 H   0  0  0  0  0  0  0  0  0  0  0  0
  140.7215   80.7941  220.6167 H   0  0  0  0  0  0  0  0  0  0  0  0
  141.2697   82.6362  222.1669 H   0  0  0  0  0  0  0  0  0  0  0  0
  142.4420   82.1604  224.2983 H   0  0  0  0  0  0  0  0  0  0  0  0
  143.0621   79.8172  224.8763 H   0  0  0  0  0  0  0  0  0  0  0  0
  142.5061   77.9705  223.3123 H   0  0  0  0  0  0  0  0  0  0  0  0
  141.2877   76.9166  222.3711 H   0  0  0  0  0  0  0  0  0  0  0  0
  138.9158   77.2179  221.5626 H   0  0  0  0  0  0  0  0  0  0  0  0
  139.3731   76.3158  220.0792 H   0  0  0  0  0  0  0  0  0  0  0  0
  139.5566   75.2846  222.9722 H   0  0  0  0  0  0  0  0  0  0  0  0
  138.3790   74.7531  221.7414 H   0  0  0  0  0  0  0  0  0  0  0  0
  137.8684   72.9414  220.9472 H   0  0  0  0  0  0  0  0  0  0  0  0
  138.3010   71.3030  219.4150 H   0  0  0  0  0  0  0  0  0  0  0  0
  139.4320   70.4750  220.4210 H   0  0  0  0  0  0  0  0  0  0  0  0
  139.5518   72.1539  223.1652 H   0  0  0  0  0  0  0  0  0  0  0  0
  137.7576   72.4268  223.1218 H   0  0  0  0  0  0  0  0  0  0  0  0
  137.2824   70.2546  222.8601 H   0  0  0  0  0  0  0  0  0  0  0  0
  138.8700   69.9065  222.0437 H   0  0  0  0  0  0  0  0  0  0  0  0
  138.3653   67.9410  223.6250 H   0  0  0  0  0  0  0  0  0  0  0  0
  139.2915   66.8996  225.6525 H   0  0  0  0  0  0  0  0  0  0  0  0
  140.4258   67.0989  227.7376 H   0  0  0  0  0  0  0  0  0  0  0  0
  141.5444   68.5218  229.4508 H   0  0  0  0  0  0  0  0  0  0  0  0
  141.7022   70.9784  229.0883 H   0  0  0  0  0  0  0  0  0  0  0  0
  140.7739   72.0275  227.0367 H   0  0  0  0  0  0  0  0  0  0  0  0
  139.6247   71.8027  224.9339 H   0  0  0  0  0  0  0  0  0  0  0  0
  142.2445   74.6695  222.1921 H   0  0  0  0  0  0  0  0  0  0  0  0
  142.2736   73.8434  220.5796 H   0  0  0  0  0  0  0  0  0  0  0  0
  142.9107   76.2586  220.4939 H   0  0  0  0  0  0  0  0  0  0  0  0
  141.5085   75.8455  219.4758 H   0  0  0  0  0  0  0  0  0  0  0  0
  1  2  1  0
  2  3  1  0
  3  4  2  0
  3  5  1  0
  5  6  1  0
  6  7  2  0
  7  8  1  0
  8  9  2  0
  9 10  1  0
 10 11  2  0
  5 12  1  0
 12 13  1  0
 13 14  1  0
 14 15  1  0
 15 16  1  0
 16 17  2  0
 16 18  1  0
 18 19  1  0
 18 20  1  0
 20 21  1  0
 21 22  1  0
 22 23  2  0
 23 24  1  0
 24 25  2  0
 25 26  1  0
 26 27  2  0
 27 28  1  0
 28 29  2  0
 29 30  1  0
 30 31  2  0
 15 32  1  0
 32 33  1  0
 11  6  1  0
 33 12  1  0
 31 22  1  0
 30 25  1  0
  1 34  1  0
  1 35  1  0
  1 36  1  0
  2 37  1  0
  2 38  1  0
  7 39  1  0
  8 40  1  0
  9 41  1  0
 10 42  1  0
 11 43  1  0
 12 44  1  0
 13 45  1  0
 13 46  1  0
 14 47  1  0
 14 48  1  0
 18 49  1  6
 19 50  1  0
 19 51  1  0
 20 52  1  0
 20 53  1  0
 21 54  1  0
 21 55  1  0
 23 56  1  0
 24 57  1  0
 26 58  1  0
 27 59  1  0
 28 60  1  0
 29 61  1  0
 31 62  1  0
 32 63  1  0
 32 64  1  0
 33 65  1  0
 33 66  1  0
M  END
>  <smiles>  (13) 
CCC(=O)N(c1ccccc1)C1CCN(C(=O)[C@@H](N)CCc2ccc3ccccc3c2)CC1

>  <score_type>  (13) 
oracle

>  <origin>  (13) 
autodockgpu

>  <m_score__min__energy>  (13) 
-9.3800000000000008

>  <m_primary>  (13) 
energy

>  <rmsd>  (13) 
2.960690818520891

>  <m_score__min__rmsd>  (13) 
2.960690818520891

>  <meeko>  (13) 
{"free_energy": -8.41, "intermolecular_energy": -11.1, "internal_energy": -2.33, "cluster_size": 38, "cluster_id": 3, "rank_in_cluster": 28}

>  <energy>  (13) 
-8.7

>  <cluster_rmsd>  (13) 
0.59

>  <cluster>  (13) 
3

$$$$

     RDKit          3D

 66 69  0  0  0  0  0  0  0  0999 V2000
  142.1520   79.4360  218.1060 C   0  0  0  0  0  0  0  0  0  0  0  0
  141.2410   78.4030  218.7440 C   0  0  0  0  0  0  0  0  0  0  0  0
  142.0440   77.5980  219.7070 C   0  0  0  0  0  0  0  0  0  0  0  0
  143.1250   77.0550  219.3070 O   0  0  0  0  0  0  0  0  0  0  0  0
  141.6080   77.4380  221.0560 N   0  0  0  0  0  0  0  0  0  0  0  0
  141.7220   78.5330  221.9380 C   0  0  0  0  0  0  0  0  0  0  0  0
  141.4320   78.2960  223.2790 C   0  0  0  0  0  0  0  0  0  0  0  0
  141.5160   79.3070  224.2110 C   0  0  0  0  0  0  0  0  0  0  0  0
  141.8920   80.5740  223.8210 C   0  0  0  0  0  0  0  0  0  0  0  0
  142.1850   80.8280  222.4890 C   0  0  0  0  0  0  0  0  0  0  0  0
  142.0970   79.8030  221.5570 C   0  0  0  0  0  0  0  0  0  0  0  0
  141.0690   76.1860  221.4810 C   0  0  0  0  0  0  0  0  0  0  0  0
  139.6140   76.0180  221.1840 C   0  0  0  0  0  0  0  0  0  0  0  0
  139.0700   74.8190  221.9720 C   0  0  0  0  0  0  0  0  0  0  0  0
  139.8750   73.6520  221.6220 N   0  0  0  0  0  0  0  0  0  0  0  0
  139.3150   72.3870  221.3240 C   0  0  0  0  0  0  0  0  0  0  0  0
  140.0270   71.3880  220.9890 O   0  0  0  0  0  0  0  0  0  0  0  0
  137.8360   72.1060  221.3730 C   0  0  1  0  0  0  0  0  0  0  0  0
  137.5320   71.1190  220.3330 N   0  0  0  0  0  0  0  0  0  0  0  0
  137.5950   71.5300  222.7400 C   0  0  0  0  0  0  0  0  0  0  0  0
  138.3080   70.2530  222.9360 C   0  0  0  0  0  0  0  0  0  0  0  0
  139.0390   70.2070  224.2110 C   0  0  0  0  0  0  0  0  0  0  0  0
  139.6840   71.3540  224.6250 C   0  0  0  0  0  0  0  0  0  0  0  0
  140.3750   71.4460  225.8160 C   0  0  0  0  0  0  0  0  0  0  0  0
  140.4330   70.3460  226.6440 C   0  0  0  0  0  0  0  0  0  0  0  0
  141.1230   70.4320  227.8360 C   0  0  0  0  0  0  0  0  0  0  0  0
  141.1820   69.3310  228.6670 C   0  0  0  0  0  0  0  0  0  0  0  0
  140.5430   68.1540  228.2810 C   0  0  0  0  0  0  0  0  0  0  0  0
  139.8490   68.0670  227.0850 C   0  0  0  0  0  0  0  0  0  0  0  0
  139.7970   69.1820  226.2560 C   0  0  0  0  0  0  0  0  0  0  0  0
  139.1030   69.1130  225.0480 C   0  0  0  0  0  0  0  0  0  0  0  0
  141.3280   73.7600  221.5860 C   0  0  0  0  0  0  0  0  0  0  0  0
  141.7720   74.9840  220.8440 C   0  0  0  0  0  0  0  0  0  0  0  0
  142.6604   80.0125  218.8929 H   0  0  0  0  0  0  0  0  0  0  0  0
  142.9015   78.9280  217.4814 H   0  0  0  0  0  0  0  0  0  0  0  0
  141.5543   80.1161  217.4814 H   0  0  0  0  0  0  0  0  0  0  0  0
  140.4212   78.9084  219.2754 H   0  0  0  0  0  0  0  0  0  0  0  0
  140.8116   77.7490  217.9708 H   0  0  0  0  0  0  0  0  0  0  0  0
  141.1316   77.2873  223.5988 H   0  0  0  0  0  0  0  0  0  0  0  0
  141.2829   79.1029  225.2665 H   0  0  0  0  0  0  0  0  0  0  0  0
  141.9597   81.3822  224.5641 H   0  0  0  0  0  0  0  0  0  0  0  0
  142.4859   81.8376  222.1726 H   0  0  0  0  0  0  0  0  0  0  0  0
  142.3295   80.0071  220.5014 H   0  0  0  0  0  0  0  0  0  0  0  0
  141.2323   76.2104  222.5685 H   0  0  0  0  0  0  0  0  0  0  0  0
  139.0714   76.9282  221.4791 H   0  0  0  0  0  0  0  0  0  0  0  0
  139.4758   75.8439  220.1067 H   0  0  0  0  0  0  0  0  0  0  0  0
  139.1456   75.0155  223.0517 H   0  0  0  0  0  0  0  0  0  0  0  0
  138.0126   74.6445  221.7243 H   0  0  0  0  0  0  0  0  0  0  0  0
  137.2094   72.9938  221.2021 H   0  0  0  0  0  0  0  0  0  0  0  0
  137.1950   71.5720  219.4680 H   0  0  0  0  0  0  0  0  0  0  0  0
  138.2940   70.4490  220.1800 H   0  0  0  0  0  0  0  0  0  0  0  0
  137.9428   72.2503  223.4951 H   0  0  0  0  0  0  0  0  0  0  0  0
  136.5170   71.3360  222.8414 H   0  0  0  0  0  0  0  0  0  0  0  0
  137.5747   69.4333  222.9199 H   0  0  0  0  0  0  0  0  0  0  0  0
  139.0439   70.1528  222.1246 H   0  0  0  0  0  0  0  0  0  0  0  0
  139.6456   72.2393  223.9733 H   0  0  0  0  0  0  0  0  0  0  0  0
  140.8728   72.3847  226.1006 H   0  0  0  0  0  0  0  0  0  0  0  0
  141.6218   71.3699  228.1217 H   0  0  0  0  0  0  0  0  0  0  0  0
  141.7264   69.3821  229.6215 H   0  0  0  0  0  0  0  0  0  0  0  0
  140.5907   67.2748  228.9404 H   0  0  0  0  0  0  0  0  0  0  0  0
  139.3476   67.1315  226.7962 H   0  0  0  0  0  0  0  0  0  0  0  0
  138.6020   68.1769  224.7603 H   0  0  0  0  0  0  0  0  0  0  0  0
  141.7079   73.8102  222.6171 H   0  0  0  0  0  0  0  0  0  0  0  0
  141.7257   72.8776  221.0633 H   0  0  0  0  0  0  0  0  0  0  0  0
  142.8628   75.0990  220.9271 H   0  0  0  0  0  0  0  0  0  0  0  0
  141.5165   74.9053  219.7770 H   0  0  0  0  0  0  0  0  0  0  0  0
  1  2  1  0
  2  3  1  0
  3  4  2  0
  3  5  1  0
  5  6  1  0
  6  7  2  0
  7  8  1  0
  8  9  2  0
  9 10  1  0
 10 11  2  0
  5 12  1  0
 12 13  1  0
 13 14  1  0
 14 15  1  0
 15 16  1  0
 16 17  2  0
 16 18  1  0
 18 19  1  0
 18 20  1  0
 20 21  1  0
 21 22  1  0
 22 23  2  0
 23 24  1  0
 24 25  2  0
 25 26  1  0
 26 27  2  0
 27 28  1  0
 28 29  2  0
 29 30  1  0
 30 31  2  0
 15 32  1  0
 32 33  1  0
 11  6  1  0
 33 12  1  0
 31 22  1  0
 30 25  1  0
  1 34  1  0
  1 35  1  0
  1 36  1  0
  2 37  1  0
  2 38  1  0
  7 39  1  0
  8 40  1  0
  9 41  1  0
 10 42  1  0
 11 43  1  0
 12 44  1  0
 13 45  1  0
 13 46  1  0
 14 47  1  0
 14 48  1  0
 18 49  1  6
 19 50  1  0
 19 51  1  0
 20 52  1  0
 20 53  1  0
 21 54  1  0
 21 55  1  0
 23 56  1  0
 24 57  1  0
 26 58  1  0
 27 59  1  0
 28 60  1  0
 29 61  1  0
 31 62  1  0
 32 63  1  0
 32 64  1  0
 33 65  1  0
 33 66  1  0
M  END
>  <smiles>  (14) 
CCC(=O)N(c1ccccc1)C1CCN(C(=O)[C@@H](N)CCc2ccc3ccccc3c2)CC1

>  <score_type>  (14) 
oracle

>  <origin>  (14) 
autodockgpu

>  <m_score__min__energy>  (14) 
-9.3800000000000008

>  <m_primary>  (14) 
energy

>  <rmsd>  (14) 
2.4570170701409415

>  <m_score__min__rmsd>  (14) 
2.4570170701409415

>  <meeko>  (14) 
{"free_energy": -8.33, "intermolecular_energy": -11.02, "internal_energy": -2.43, "cluster_size": 38, "cluster_id": 3, "rank_in_cluster": 34}

>  <energy>  (14) 
-8.69

>  <cluster_rmsd>  (14) 
1.84

>  <cluster>  (14) 
3

$$$$

     RDKit          3D

 66 69  0  0  0  0  0  0  0  0999 V2000
  143.3060   80.1770  223.1500 C   0  0  0  0  0  0  0  0  0  0  0  0
  142.0480   80.9650  223.4690 C   0  0  0  0  0  0  0  0  0  0  0  0
  140.9140   80.3700  222.7080 C   0  0  0  0  0  0  0  0  0  0  0  0
  139.7520   80.3700  223.2300 O   0  0  0  0  0  0  0  0  0  0  0  0
  141.1270   79.8080  221.4140 N   0  0  0  0  0  0  0  0  0  0  0  0
  141.4510   80.6700  220.3470 C   0  0  0  0  0  0  0  0  0  0  0  0
  142.1980   80.1300  219.3030 C   0  0  0  0  0  0  0  0  0  0  0  0
  142.5610   80.8990  218.2190 C   0  0  0  0  0  0  0  0  0  0  0  0
  142.1850   82.2230  218.1580 C   0  0  0  0  0  0  0  0  0  0  0  0
  141.4400   82.7790  219.1880 C   0  0  0  0  0  0  0  0  0  0  0  0
  141.0790   81.9950  220.2760 C   0  0  0  0  0  0  0  0  0  0  0  0
  141.0100   78.3970  221.2280 C   0  0  0  0  0  0  0  0  0  0  0  0
  140.6320   77.6500  222.4660 C   0  0  0  0  0  0  0  0  0  0  0  0
  140.8680   76.1500  222.2460 C   0  0  0  0  0  0  0  0  0  0  0  0
  140.1080   75.7460  221.0660 N   0  0  0  0  0  0  0  0  0  0  0  0
  139.3200   74.5710  221.0190 C   0  0  0  0  0  0  0  0  0  0  0  0
  138.6380   74.2490  219.9960 O   0  0  0  0  0  0  0  0  0  0  0  0
  139.2150   73.5990  222.1650 C   0  0  1  0  0  0  0  0  0  0  0  0
  137.8180   73.1680  222.2610 N   0  0  0  0  0  0  0  0  0  0  0  0
  140.1030   72.4490  221.7830 C   0  0  0  0  0  0  0  0  0  0  0  0
  139.4780   71.1460  222.0840 C   0  0  0  0  0  0  0  0  0  0  0  0
  139.7090   70.7190  223.4730 C   0  0  0  0  0  0  0  0  0  0  0  0
  139.4590   69.4000  223.7910 C   0  0  0  0  0  0  0  0  0  0  0  0
  139.6660   68.8730  225.0500 C   0  0  0  0  0  0  0  0  0  0  0  0
  140.1450   69.6920  226.0490 C   0  0  0  0  0  0  0  0  0  0  0  0
  140.3540   69.1710  227.3090 C   0  0  0  0  0  0  0  0  0  0  0  0
  140.8350   69.9890  228.3110 C   0  0  0  0  0  0  0  0  0  0  0  0
  141.0980   71.3280  228.0270 C   0  0  0  0  0  0  0  0  0  0  0  0
  140.8890   71.8540  226.7610 C   0  0  0  0  0  0  0  0  0  0  0  0
  140.4040   71.0190  225.7600 C   0  0  0  0  0  0  0  0  0  0  0  0
  140.1880   71.5300  224.4800 C   0  0  0  0  0  0  0  0  0  0  0  0
  140.1560   76.5620  219.8600 C   0  0  0  0  0  0  0  0  0  0  0  0
  139.9690   78.0160  220.1710 C   0  0  0  0  0  0  0  0  0  0  0  0
  143.7945   79.8710  224.0869 H   0  0  0  0  0  0  0  0  0  0  0  0
  143.0407   79.2834  222.5660 H   0  0  0  0  0  0  0  0  0  0  0  0
  143.9942   80.8057  222.5660 H   0  0  0  0  0  0  0  0  0  0  0  0
  141.8399   80.9116  224.5478 H   0  0  0  0  0  0  0  0  0  0  0  0
  142.1809   82.0195  223.1857 H   0  0  0  0  0  0  0  0  0  0  0  0
  142.5027   79.0739  219.3445 H   0  0  0  0  0  0  0  0  0  0  0  0
  143.1506   80.4562  217.4028 H   0  0  0  0  0  0  0  0  0  0  0  0
  142.4751   82.8386  217.2938 H   0  0  0  0  0  0  0  0  0  0  0  0
  141.1368   83.8354  219.1431 H   0  0  0  0  0  0  0  0  0  0  0  0
  140.4884   82.4375  221.0917 H   0  0  0  0  0  0  0  0  0  0  0  0
  142.0231   78.1118  220.9082 H   0  0  0  0  0  0  0  0  0  0  0  0
  141.2477   77.9991  223.3080 H   0  0  0  0  0  0  0  0  0  0  0  0
  139.5701   77.8263  222.6926 H   0  0  0  0  0  0  0  0  0  0  0  0
  141.9393   75.9597  222.0842 H   0  0  0  0  0  0  0  0  0  0  0  0
  140.5427   75.5770  223.1268 H   0  0  0  0  0  0  0  0  0  0  0  0
  139.5141   74.0224  223.1352 H   0  0  0  0  0  0  0  0  0  0  0  0
  137.4050   73.4220  223.1720 H   0  0  0  0  0  0  0  0  0  0  0  0
  137.2530   73.4560  221.4550 H   0  0  0  0  0  0  0  0  0  0  0  0
  140.3102   72.5030  220.7040 H   0  0  0  0  0  0  0  0  0  0  0  0
  141.0303   72.5254  222.3697 H   0  0  0  0  0  0  0  0  0  0  0  0
  138.3940   71.2271  221.9153 H   0  0  0  0  0  0  0  0  0  0  0  0
  139.9346   70.3950  221.4226 H   0  0  0  0  0  0  0  0  0  0  0  0
  139.0759   68.7356  223.0025 H   0  0  0  0  0  0  0  0  0  0  0  0
  139.4514   67.8134  225.2529 H   0  0  0  0  0  0  0  0  0  0  0  0
  140.1390   68.1118  227.5135 H   0  0  0  0  0  0  0  0  0  0  0  0
  141.0086   69.5893  229.3210 H   0  0  0  0  0  0  0  0  0  0  0  0
  141.4798   71.9820  228.8248 H   0  0  0  0  0  0  0  0  0  0  0  0
  141.1030   72.9126  226.5522 H   0  0  0  0  0  0  0  0  0  0  0  0
  140.4016   72.5889  224.2723 H   0  0  0  0  0  0  0  0  0  0  0  0
  141.1329   76.4236  219.3738 H   0  0  0  0  0  0  0  0  0  0  0  0
  139.3387   76.2439  219.1961 H   0  0  0  0  0  0  0  0  0  0  0  0
  140.1190   78.6170  219.2620 H   0  0  0  0  0  0  0  0  0  0  0  0
  138.9512   78.2054  220.5429 H   0  0  0  0  0  0  0  0  0  0  0  0
  1  2  1  0
  2  3  1  0
  3  4  2  0
  3  5  1  0
  5  6  1  0
  6  7  2  0
  7  8  1  0
  8  9  2  0
  9 10  1  0
 10 11  2  0
  5 12  1  0
 12 13  1  0
 13 14  1  0
 14 15  1  0
 15 16  1  0
 16 17  2  0
 16 18  1  0
 18 19  1  0
 18 20  1  0
 20 21  1  0
 21 22  1  0
 22 23  2  0
 23 24  1  0
 24 25  2  0
 25 26  1  0
 26 27  2  0
 27 28  1  0
 28 29  2  0
 29 30  1  0
 30 31  2  0
 15 32  1  0
 32 33  1  0
 11  6  1  0
 33 12  1  0
 31 22  1  0
 30 25  1  0
  1 34  1  0
  1 35  1  0
  1 36  1  0
  2 37  1  0
  2 38  1  0
  7 39  1  0
  8 40  1  0
  9 41  1  0
 10 42  1  0
 11 43  1  0
 12 44  1  0
 13 45  1  0
 13 46  1  0
 14 47  1  0
 14 48  1  0
 18 49  1  1
 19 50  1  0
 19 51  1  0
 20 52  1  0
 20 53  1  0
 21 54  1  0
 21 55  1  0
 23 56  1  0
 24 57  1  0
 26 58  1  0
 27 59  1  0
 28 60  1  0
 29 61  1  0
 31 62  1  0
 32 63  1  0
 32 64  1  0
 33 65  1  0
 33 66  1  0
M  END
>  <smiles>  (15) 
CCC(=O)N(c1ccccc1)C1CCN(C(=O)[C@@H](N)CCc2ccc3ccccc3c2)CC1

>  <score_type>  (15) 
oracle

>  <origin>  (15) 
autodockgpu

>  <m_score__min__energy>  (15) 
-9.3800000000000008

>  <m_primary>  (15) 
energy

>  <rmsd>  (15) 
3.6778699523333724

>  <m_score__min__rmsd>  (15) 
3.6778699523333724

>  <meeko>  (15) 
{"free_energy": -8.5, "intermolecular_energy": -11.19, "internal_energy": -2.27, "cluster_size": 38, "cluster_id": 3, "rank_in_cluster": 17}

>  <energy>  (15) 
-8.69

>  <cluster_rmsd>  (15) 
0.6

>  <cluster>  (15) 
3

$$$$

     RDKit          3D

 66 69  0  0  0  0  0  0  0  0999 V2000
  142.5500   80.5030  217.9970 C   0  0  0  0  0  0  0  0  0  0  0  0
  142.5050   79.0350  218.3830 C   0  0  0  0  0  0  0  0  0  0  0  0
  141.2780   78.7980  219.1920 C   0  0  0  0  0  0  0  0  0  0  0  0
  140.1370   78.9480  218.6440 O   0  0  0  0  0  0  0  0  0  0  0  0
  141.3770   78.4110  220.5620 N   0  0  0  0  0  0  0  0  0  0  0  0
  141.5870   79.4100  221.5340 C   0  0  0  0  0  0  0  0  0  0  0  0
  142.2590   79.0330  222.6930 C   0  0  0  0  0  0  0  0  0  0  0  0
  142.5070   79.9440  223.6970 C   0  0  0  0  0  0  0  0  0  0  0  0
  142.0880   81.2490  223.5610 C   0  0  0  0  0  0  0  0  0  0  0  0
  141.4170   81.6440  222.4130 C   0  0  0  0  0  0  0  0  0  0  0  0
  141.1720   80.7190  221.4070 C   0  0  0  0  0  0  0  0  0  0  0  0
  141.2620   77.0320  220.9170 C   0  0  0  0  0  0  0  0  0  0  0  0
  139.9090   76.4520  220.6690 C   0  0  0  0  0  0  0  0  0  0  0  0
  139.7950   75.1010  221.3890 C   0  0  0  0  0  0  0  0  0  0  0  0
  140.8880   74.2530  220.9230 N   0  0  0  0  0  0  0  0  0  0  0  0
  140.7130   72.8970  220.5570 C   0  0  0  0  0  0  0  0  0  0  0  0
  141.6680   72.1800  220.1220 O   0  0  0  0  0  0  0  0  0  0  0  0
  139.3910   72.1810  220.6460 C   0  0  1  0  0  0  0  0  0  0  0  0
  139.6100   70.7840  220.2630 N   0  0  0  0  0  0  0  0  0  0  0  0
  138.9910   72.2800  222.0910 C   0  0  0  0  0  0  0  0  0  0  0  0
  140.1620   72.2630  222.9910 C   0  0  0  0  0  0  0  0  0  0  0  0
  140.0540   71.2320  224.0340 C   0  0  0  0  0  0  0  0  0  0  0  0
  139.3120   70.1030  223.7500 C   0  0  0  0  0  0  0  0  0  0  0  0
  139.1630   69.0540  224.6330 C   0  0  0  0  0  0  0  0  0  0  0  0
  139.7780   69.1210  225.8650 C   0  0  0  0  0  0  0  0  0  0  0  0
  139.6320   68.0740  226.7520 C   0  0  0  0  0  0  0  0  0  0  0  0
  140.2480   68.1400  227.9850 C   0  0  0  0  0  0  0  0  0  0  0  0
  141.0040   69.2650  228.3090 C   0  0  0  0  0  0  0  0  0  0  0  0
  141.1520   70.3170  227.4180 C   0  0  0  0  0  0  0  0  0  0  0  0
  140.5270   70.2400  226.1780 C   0  0  0  0  0  0  0  0  0  0  0  0
  140.6650   71.2890  225.2690 C   0  0  0  0  0  0  0  0  0  0  0  0
  142.2380   74.7950  220.8350 C   0  0  0  0  0  0  0  0  0  0  0  0
  142.2510   76.1360  220.1660 C   0  0  0  0  0  0  0  0  0  0  0  0
  142.5689   81.1209  218.9068 H   0  0  0  0  0  0  0  0  0  0  0  0
  143.4546   80.6982  217.4023 H   0  0  0  0  0  0  0  0  0  0  0  0
  141.6591   80.7532  217.4023 H   0  0  0  0  0  0  0  0  0  0  0  0
  142.4775   78.4133  217.4760 H   0  0  0  0  0  0  0  0  0  0  0  0
  143.3990   78.7707  218.9669 H   0  0  0  0  0  0  0  0  0  0  0  0
  142.5971   77.9927  222.8094 H   0  0  0  0  0  0  0  0  0  0  0  0
  143.0394   79.6290  224.6066 H   0  0  0  0  0  0  0  0  0  0  0  0
  142.2852   81.9770  224.3617 H   0  0  0  0  0  0  0  0  0  0  0  0
  141.0806   82.6852  222.3002 H   0  0  0  0  0  0  0  0  0  0  0  0
  140.6401   81.0342  220.4972 H   0  0  0  0  0  0  0  0  0  0  0  0
  141.4765   77.0420  221.9958 H   0  0  0  0  0  0  0  0  0  0  0  0
  139.1394   77.1383  221.0520 H   0  0  0  0  0  0  0  0  0  0  0  0
  139.7634   76.3065  219.5884 H   0  0  0  0  0  0  0  0  0  0  0  0
  139.8734   75.2487  222.4762 H   0  0  0  0  0  0  0  0  0  0  0  0
  138.8246   74.6307  221.1719 H   0  0  0  0  0  0  0  0  0  0  0  0
  138.6138   72.6020  219.9912 H   0  0  0  0  0  0  0  0  0  0  0  0
  140.2250   70.7100  219.4360 H   0  0  0  0  0  0  0  0  0  0  0  0
  139.9020   70.1930  221.0490 H   0  0  0  0  0  0  0  0  0  0  0  0
  138.4394   73.2194  222.2434 H   0  0  0  0  0  0  0  0  0  0  0  0
  138.3649   71.4080  222.3311 H   0  0  0  0  0  0  0  0  0  0  0  0
  141.0641   72.0669  222.3929 H   0  0  0  0  0  0  0  0  0  0  0  0
  140.2140   73.2413  223.4913 H   0  0  0  0  0  0  0  0  0  0  0  0
  138.8150   70.0368  222.7709 H   0  0  0  0  0  0  0  0  0  0  0  0
  138.5612   68.1753  224.3578 H   0  0  0  0  0  0  0  0  0  0  0  0
  139.0301   67.1948  226.4786 H   0  0  0  0  0  0  0  0  0  0  0  0
  140.1435   67.3141  228.7040 H   0  0  0  0  0  0  0  0  0  0  0  0
  141.4937   69.3195  229.2925 H   0  0  0  0  0  0  0  0  0  0  0  0
  141.7536   71.1976  227.6874 H   0  0  0  0  0  0  0  0  0  0  0  0
  141.2664   72.1694  225.5396 H   0  0  0  0  0  0  0  0  0  0  0  0
  142.6481   74.8985  221.8504 H   0  0  0  0  0  0  0  0  0  0  0  0
  142.8478   74.1044  220.2339 H   0  0  0  0  0  0  0  0  0  0  0  0
  143.2609   76.5695  220.2122 H   0  0  0  0  0  0  0  0  0  0  0  0
  141.9660   76.0448  219.1075 H   0  0  0  0  0  0  0  0  0  0  0  0
  1  2  1  0
  2  3  1  0
  3  4  2  0
  3  5  1  0
  5  6  1  0
  6  7  2  0
  7  8  1  0
  8  9  2  0
  9 10  1  0
 10 11  2  0
  5 12  1  0
 12 13  1  0
 13 14  1  0
 14 15  1  0
 15 16  1  0
 16 17  2  0
 16 18  1  0
 18 19  1  0
 18 20  1  0
 20 21  1  0
 21 22  1  0
 22 23  2  0
 23 24  1  0
 24 25  2  0
 25 26  1  0
 26 27  2  0
 27 28  1  0
 28 29  2  0
 29 30  1  0
 30 31  2  0
 15 32  1  0
 32 33  1  0
 11  6  1  0
 33 12  1  0
 31 22  1  0
 30 25  1  0
  1 34  1  0
  1 35  1  0
  1 36  1  0
  2 37  1  0
  2 38  1  0
  7 39  1  0
  8 40  1  0
  9 41  1  0
 10 42  1  0
 11 43  1  0
 12 44  1  0
 13 45  1  0
 13 46  1  0
 14 47  1  0
 14 48  1  0
 18 49  1  6
 19 50  1  0
 19 51  1  0
 20 52  1  0
 20 53  1  0
 21 54  1  0
 21 55  1  0
 23 56  1  0
 24 57  1  0
 26 58  1  0
 27 59  1  0
 28 60  1  0
 29 61  1  0
 31 62  1  0
 32 63  1  0
 32 64  1  0
 33 65  1  0
 33 66  1  0
M  END
>  <smiles>  (16) 
CCC(=O)N(c1ccccc1)C1CCN(C(=O)[C@@H](N)CCc2ccc3ccccc3c2)CC1

>  <score_type>  (16) 
oracle

>  <origin>  (16) 
autodockgpu

>  <m_score__min__energy>  (16) 
-9.3800000000000008

>  <m_primary>  (16) 
energy

>  <rmsd>  (16) 
3.2824730746043254

>  <m_score__min__rmsd>  (16) 
3.2824730746043254

>  <meeko>  (16) 
{"free_energy": -8.33, "intermolecular_energy": -11.02, "internal_energy": -2.35, "cluster_size": 38, "cluster_id": 3, "rank_in_cluster": 33}

>  <energy>  (16) 
-8.66

>  <cluster_rmsd>  (16) 
0.39

>  <cluster>  (16) 
3

$$$$

     RDKit          3D

 66 69  0  0  0  0  0  0  0  0999 V2000
  142.8720   81.3100  217.7660 C   0  0  0  0  0  0  0  0  0  0  0  0
  141.8690   80.8120  218.7920 C   0  0  0  0  0  0  0  0  0  0  0  0
  142.1990   79.3980  219.1250 C   0  0  0  0  0  0  0  0  0  0  0  0
  142.9440   78.7340  218.3320 O   0  0  0  0  0  0  0  0  0  0  0  0
  141.6890   78.7960  220.3140 N   0  0  0  0  0  0  0  0  0  0  0  0
  141.7370   79.5300  221.5170 C   0  0  0  0  0  0  0  0  0  0  0  0
  140.6300   80.3160  221.8230 C   0  0  0  0  0  0  0  0  0  0  0  0
  140.5890   81.0670  222.9770 C   0  0  0  0  0  0  0  0  0  0  0  0
  141.6560   81.0460  223.8490 C   0  0  0  0  0  0  0  0  0  0  0  0
  142.7680   80.2670  223.5620 C   0  0  0  0  0  0  0  0  0  0  0  0
  142.7990   79.5150  222.3960 C   0  0  0  0  0  0  0  0  0  0  0  0
  141.1430   77.4780  220.2610 C   0  0  0  0  0  0  0  0  0  0  0  0
  140.9590   76.8430  221.6010 C   0  0  0  0  0  0  0  0  0  0  0  0
  140.7030   75.3400  221.4200 C   0  0  0  0  0  0  0  0  0  0  0  0
  139.5500   75.1860  220.5380 N   0  0  0  0  0  0  0  0  0  0  0  0
  138.4960   74.2790  220.7950 C   0  0  0  0  0  0  0  0  0  0  0  0
  137.4820   74.1780  220.0350 O   0  0  0  0  0  0  0  0  0  0  0  0
  138.4730   73.3530  221.9830 C   0  0  1  0  0  0  0  0  0  0  0  0
  137.0860   73.2510  222.4470 N   0  0  0  0  0  0  0  0  0  0  0  0
  138.9570   72.0320  221.4570 C   0  0  0  0  0  0  0  0  0  0  0  0
  140.2760   71.6660  222.0110 C   0  0  0  0  0  0  0  0  0  0  0  0
  140.1900   71.1950  223.4020 C   0  0  0  0  0  0  0  0  0  0  0  0
  139.5760   69.9820  223.6360 C   0  0  0  0  0  0  0  0  0  0  0  0
  139.4630   69.4200  224.8910 C   0  0  0  0  0  0  0  0  0  0  0  0
  139.9820   70.0920  225.9760 C   0  0  0  0  0  0  0  0  0  0  0  0
  139.8720   69.5350  227.2330 C   0  0  0  0  0  0  0  0  0  0  0  0
  140.3920   70.2070  228.3200 C   0  0  0  0  0  0  0  0  0  0  0  0
  141.0190   71.4360  228.1240 C   0  0  0  0  0  0  0  0  0  0  0  0
  141.1320   71.9970  226.8610 C   0  0  0  0  0  0  0  0  0  0  0  0
  140.6030   71.3110  225.7730 C   0  0  0  0  0  0  0  0  0  0  0  0
  140.7070   71.8590  224.4940 C   0  0  0  0  0  0  0  0  0  0  0  0
  139.4610   75.9790  219.3190 C   0  0  0  0  0  0  0  0  0  0  0  0
  139.7760   77.4220  219.5750 C   0  0  0  0  0  0  0  0  0  0  0  0
  143.7416   81.7418  218.2830 H   0  0  0  0  0  0  0  0  0  0  0  0
  143.1998   80.4700  217.1360 H   0  0  0  0  0  0  0  0  0  0  0  0
  142.4010   82.0789  217.1360 H   0  0  0  0  0  0  0  0  0  0  0  0
  141.9278   81.4307  219.6996 H   0  0  0  0  0  0  0  0  0  0  0  0
  140.8490   80.8761  218.3852 H   0  0  0  0  0  0  0  0  0  0  0  0
  139.7742   80.3379  221.1323 H   0  0  0  0  0  0  0  0  0  0  0  0
  139.7057   81.6827  223.2023 H   0  0  0  0  0  0  0  0  0  0  0  0
  141.6263   81.6456  224.7707 H   0  0  0  0  0  0  0  0  0  0  0  0
  143.6213   80.2456  224.2558 H   0  0  0  0  0  0  0  0  0  0  0  0
  143.6821   78.8992  222.1703 H   0  0  0  0  0  0  0  0  0  0  0  0
  141.8989   76.9274  219.6818 H   0  0  0  0  0  0  0  0  0  0  0  0
  141.8661   76.9910  222.2053 H   0  0  0  0  0  0  0  0  0  0  0  0
  140.1009   77.3038  222.1122 H   0  0  0  0  0  0  0  0  0  0  0  0
  141.5852   74.8619  220.9693 H   0  0  0  0  0  0  0  0  0  0  0  0
  140.5088   74.8638  222.3924 H   0  0  0  0  0  0  0  0  0  0  0  0
  139.0950   73.6947  222.8235 H   0  0  0  0  0  0  0  0  0  0  0  0
  137.0120   73.4290  223.4610 H   0  0  0  0  0  0  0  0  0  0  0  0
  136.4320   73.8020  221.8800 H   0  0  0  0  0  0  0  0  0  0  0  0
  138.2291   71.2533  221.7287 H   0  0  0  0  0  0  0  0  0  0  0  0
  139.0589   72.1176  220.3651 H   0  0  0  0  0  0  0  0  0  0  0  0
  140.7086   70.8652  221.3932 H   0  0  0  0  0  0  0  0  0  0  0  0
  140.9054   72.5681  222.0011 H   0  0  0  0  0  0  0  0  0  0  0  0
  139.1554   69.4354  222.7790 H   0  0  0  0  0  0  0  0  0  0  0  0
  138.9651   68.4481  225.0236 H   0  0  0  0  0  0  0  0  0  0  0  0
  139.3740   68.5635  227.3677 H   0  0  0  0  0  0  0  0  0  0  0  0
  140.3126   69.7777  229.3296 H   0  0  0  0  0  0  0  0  0  0  0  0
  141.4333   71.9728  228.9901 H   0  0  0  0  0  0  0  0  0  0  0  0
  141.6312   72.9673  226.7221 H   0  0  0  0  0  0  0  0  0  0  0  0
  141.2060   72.8295  224.3558 H   0  0  0  0  0  0  0  0  0  0  0  0
  140.1756   75.5829  218.5825 H   0  0  0  0  0  0  0  0  0  0  0  0
  138.4301   75.9138  218.9407 H   0  0  0  0  0  0  0  0  0  0  0  0
  139.8098   77.9738  218.6240 H   0  0  0  0  0  0  0  0  0  0  0  0
  139.0040   77.8811  220.2100 H   0  0  0  0  0  0  0  0  0  0  0  0
  1  2  1  0
  2  3  1  0
  3  4  2  0
  3  5  1  0
  5  6  1  0
  6  7  2  0
  7  8  1  0
  8  9  2  0
  9 10  1  0
 10 11  2  0
  5 12  1  0
 12 13  1  0
 13 14  1  0
 14 15  1  0
 15 16  1  0
 16 17  2  0
 16 18  1  0
 18 19  1  0
 18 20  1  0
 20 21  1  0
 21 22  1  0
 22 23  2  0
 23 24  1  0
 24 25  2  0
 25 26  1  0
 26 27  2  0
 27 28  1  0
 28 29  2  0
 29 30  1  0
 30 31  2  0
 15 32  1  0
 32 33  1  0
 11  6  1  0
 33 12  1  0
 31 22  1  0
 30 25  1  0
  1 34  1  0
  1 35  1  0
  1 36  1  0
  2 37  1  0
  2 38  1  0
  7 39  1  0
  8 40  1  0
  9 41  1  0
 10 42  1  0
 11 43  1  0
 12 44  1  0
 13 45  1  0
 13 46  1  0
 14 47  1  0
 14 48  1  0
 18 49  1  1
 19 50  1  0
 19 51  1  0
 20 52  1  0
 20 53  1  0
 21 54  1  0
 21 55  1  0
 23 56  1  0
 24 57  1  0
 26 58  1  0
 27 59  1  0
 28 60  1  0
 29 61  1  0
 31 62  1  0
 32 63  1  0
 32 64  1  0
 33 65  1  0
 33 66  1  0
M  END
>  <smiles>  (17) 
CCC(=O)N(c1ccccc1)C1CCN(C(=O)[C@@H](N)CCc2ccc3ccccc3c2)CC1

>  <score_type>  (17) 
oracle

>  <origin>  (17) 
autodockgpu

>  <m_score__min__energy>  (17) 
-9.3800000000000008

>  <m_primary>  (17) 
energy

>  <rmsd>  (17) 
3.494443392509084

>  <m_score__min__rmsd>  (17) 
3.494443392509084

>  <meeko>  (17) 
{"free_energy": -8.45, "intermolecular_energy": -11.13, "internal_energy": -2.36, "cluster_size": 38, "cluster_id": 3, "rank_in_cluster": 23}

>  <energy>  (17) 
-8.65

>  <cluster_rmsd>  (17) 
0.82

>  <cluster>  (17) 
3

$$$$

     RDKit          3D

 66 69  0  0  0  0  0  0  0  0999 V2000
  142.3010   80.6250  218.4930 C   0  0  0  0  0  0  0  0  0  0  0  0
  142.1590   79.1890  218.9640 C   0  0  0  0  0  0  0  0  0  0  0  0
  141.0080   79.1150  219.9080 C   0  0  0  0  0  0  0  0  0  0  0  0
  139.8590   79.4980  219.5120 O   0  0  0  0  0  0  0  0  0  0  0  0
  141.1910   78.6230  221.2350 N   0  0  0  0  0  0  0  0  0  0  0  0
  141.6220   79.5200  222.2340 C   0  0  0  0  0  0  0  0  0  0  0  0
  140.6600   80.3620  222.7850 C   0  0  0  0  0  0  0  0  0  0  0  0
  140.9910   81.2700  223.7660 C   0  0  0  0  0  0  0  0  0  0  0  0
  142.2900   81.3530  224.2170 C   0  0  0  0  0  0  0  0  0  0  0  0
  143.2630   80.5220  223.6810 C   0  0  0  0  0  0  0  0  0  0  0  0
  142.9190   79.6100  222.6920 C   0  0  0  0  0  0  0  0  0  0  0  0
  140.9350   77.2480  221.5210 C   0  0  0  0  0  0  0  0  0  0  0  0
  139.5080   76.8450  221.3380 C   0  0  0  0  0  0  0  0  0  0  0  0
  139.2800   75.4740  221.9900 C   0  0  0  0  0  0  0  0  0  0  0  0
  140.2310   74.5360  221.4010 N   0  0  0  0  0  0  0  0  0  0  0  0
  139.8720   73.2350  220.9750 C   0  0  0  0  0  0  0  0  0  0  0  0
  140.7040   72.4410  220.4350 O   0  0  0  0  0  0  0  0  0  0  0  0
  138.4820   72.6730  221.1190 C   0  0  1  0  0  0  0  0  0  0  0  0
  138.3110   71.6320  220.1020 N   0  0  0  0  0  0  0  0  0  0  0  0
  138.4420   72.0810  222.4990 C   0  0  0  0  0  0  0  0  0  0  0  0
  139.3260   70.9040  222.6210 C   0  0  0  0  0  0  0  0  0  0  0  0
  139.7810   70.6840  224.0030 C   0  0  0  0  0  0  0  0  0  0  0  0
  140.3570   71.7470  224.6680 C   0  0  0  0  0  0  0  0  0  0  0  0
  140.7930   71.6750  225.9750 C   0  0  0  0  0  0  0  0  0  0  0  0
  140.6550   70.4890  226.6640 C   0  0  0  0  0  0  0  0  0  0  0  0
  141.0900   70.4110  227.9710 C   0  0  0  0  0  0  0  0  0  0  0  0
  140.9510   69.2250  228.6620 C   0  0  0  0  0  0  0  0  0  0  0  0
  140.3750   68.1290  228.0220 C   0  0  0  0  0  0  0  0  0  0  0  0
  139.9370   68.2060  226.7090 C   0  0  0  0  0  0  0  0  0  0  0  0
  140.0820   69.4060  226.0230 C   0  0  0  0  0  0  0  0  0  0  0  0
  139.6460   69.5030  224.7010 C   0  0  0  0  0  0  0  0  0  0  0  0
  141.6280   74.9220  221.2480 C   0  0  0  0  0  0  0  0  0  0  0  0
  141.7590   76.2920  220.6540 C   0  0  0  0  0  0  0  0  0  0  0  0
  142.3670   81.2921  219.3651 H   0  0  0  0  0  0  0  0  0  0  0  0
  143.2132   80.7234  217.8863 H   0  0  0  0  0  0  0  0  0  0  0  0
  141.4257   80.9001  217.8863 H   0  0  0  0  0  0  0  0  0  0  0  0
  141.9749   78.5316  218.1015 H   0  0  0  0  0  0  0  0  0  0  0  0
  143.0816   78.8632  219.4667 H   0  0  0  0  0  0  0  0  0  0  0  0
  139.6201   80.3011  222.4316 H   0  0  0  0  0  0  0  0  0  0  0  0
  140.2184   81.9287  224.1893 H   0  0  0  0  0  0  0  0  0  0  0  0
  142.5554   82.0773  225.0012 H   0  0  0  0  0  0  0  0  0  0  0  0
  144.3017   80.5852  224.0376 H   0  0  0  0  0  0  0  0  0  0  0  0
  143.6913   78.9510  222.2687 H   0  0  0  0  0  0  0  0  0  0  0  0
  141.2183   77.1656  222.5807 H   0  0  0  0  0  0  0  0  0  0  0  0
  138.8521   77.5905  221.8113 H   0  0  0  0  0  0  0  0  0  0  0  0
  139.2769   76.7852  220.2642 H   0  0  0  0  0  0  0  0  0  0  0  0
  139.4462   75.5434  223.0752 H   0  0  0  0  0  0  0  0  0  0  0  0
  138.2482   75.1337  221.8182 H   0  0  0  0  0  0  0  0  0  0  0  0
  137.6856   73.4202  220.9872 H   0  0  0  0  0  0  0  0  0  0  0  0
  137.9770   72.0270  219.2080 H   0  0  0  0  0  0  0  0  0  0  0  0
  139.1340   71.0260  220.0050 H   0  0  0  0  0  0  0  0  0  0  0  0
  138.7646   72.8442  223.2225 H   0  0  0  0  0  0  0  0  0  0  0  0
  137.4109   71.7542  222.6992 H   0  0  0  0  0  0  0  0  0  0  0  0
  138.7760   70.0129  222.2843 H   0  0  0  0  0  0  0  0  0  0  0  0
  140.2156   71.0874  222.0006 H   0  0  0  0  0  0  0  0  0  0  0  0
  140.4744   72.6989  224.1294 H   0  0  0  0  0  0  0  0  0  0  0  0
  141.2448   72.5524  226.4609 H   0  0  0  0  0  0  0  0  0  0  0  0
  141.5437   71.2868  228.4579 H   0  0  0  0  0  0  0  0  0  0  0  0
  141.2906   69.1454  229.7052 H   0  0  0  0  0  0  0  0  0  0  0  0
  140.2655   67.1820  228.5709 H   0  0  0  0  0  0  0  0  0  0  0  0
  139.4826   67.3325  226.2186 H   0  0  0  0  0  0  0  0  0  0  0  0
  139.1906   68.6294  224.2116 H   0  0  0  0  0  0  0  0  0  0  0  0
  142.1112   74.9134  222.2362 H   0  0  0  0  0  0  0  0  0  0  0  0
  142.1113   74.2043  220.5687 H   0  0  0  0  0  0  0  0  0  0  0  0
  142.8146   76.6015  220.6520 H   0  0  0  0  0  0  0  0  0  0  0  0
  141.3977   76.3009  219.6151 H   0  0  0  0  0  0  0  0  0  0  0  0
  1  2  1  0
  2  3  1  0
  3  4  2  0
  3  5  1  0
  5  6  1  0
  6  7  2  0
  7  8  1  0
  8  9  2  0
  9 10  1  0
 10 11  2  0
  5 12  1  0
 12 13  1  0
 13 14  1  0
 14 15  1  0
 15 16  1  0
 16 17  2  0
 16 18  1  0
 18 19  1  0
 18 20  1  0
 20 21  1  0
 21 22  1  0
 22 23  2  0
 23 24  1  0
 24 25  2  0
 25 26  1  0
 26 27  2  0
 27 28  1  0
 28 29  2  0
 29 30  1  0
 30 31  2  0
 15 32  1  0
 32 33  1  0
 11  6  1  0
 33 12  1  0
 31 22  1  0
 30 25  1  0
  1 34  1  0
  1 35  1  0
  1 36  1  0
  2 37  1  0
  2 38  1  0
  7 39  1  0
  8 40  1  0
  9 41  1  0
 10 42  1  0
 11 43  1  0
 12 44  1  0
 13 45  1  0
 13 46  1  0
 14 47  1  0
 14 48  1  0
 18 49  1  1
 19 50  1  0
 19 51  1  0
 20 52  1  0
 20 53  1  0
 21 54  1  0
 21 55  1  0
 23 56  1  0
 24 57  1  0
 26 58  1  0
 27 59  1  0
 28 60  1  0
 29 61  1  0
 31 62  1  0
 32 63  1  0
 32 64  1  0
 33 65  1  0
 33 66  1  0
M  END
>  <smiles>  (18) 
CCC(=O)N(c1ccccc1)C1CCN(C(=O)[C@@H](N)CCc2ccc3ccccc3c2)CC1

>  <score_type>  (18) 
oracle

>  <origin>  (18) 
autodockgpu

>  <m_score__min__energy>  (18) 
-9.3800000000000008

>  <m_primary>  (18) 
energy

>  <rmsd>  (18) 
2.79809506196899

>  <m_score__min__rmsd>  (18) 
2.79809506196899

>  <meeko>  (18) 
{"free_energy": -8.53, "intermolecular_energy": -11.22, "internal_energy": -2.43, "cluster_size": 38, "cluster_id": 3, "rank_in_cluster": 15}

>  <energy>  (18) 
-8.63

>  <cluster_rmsd>  (18) 
1.97

>  <cluster>  (18) 
3

$$$$

     RDKit          3D

 66 69  0  0  0  0  0  0  0  0999 V2000
  142.4000   80.2050  217.8420 C   0  0  0  0  0  0  0  0  0  0  0  0
  142.5440   78.8920  218.5900 C   0  0  0  0  0  0  0  0  0  0  0  0
  141.3290   78.6930  219.4290 C   0  0  0  0  0  0  0  0  0  0  0  0
  140.1820   78.8960  218.9130 O   0  0  0  0  0  0  0  0  0  0  0  0
  141.4490   78.2830  220.7900 N   0  0  0  0  0  0  0  0  0  0  0  0
  141.7260   79.2590  221.7690 C   0  0  0  0  0  0  0  0  0  0  0  0
  141.5280   80.5890  221.4080 C   0  0  0  0  0  0  0  0  0  0  0  0
  141.7740   81.6100  222.3000 C   0  0  0  0  0  0  0  0  0  0  0  0
  142.2220   81.3210  223.5700 C   0  0  0  0  0  0  0  0  0  0  0  0
  142.4250   80.0020  223.9480 C   0  0  0  0  0  0  0  0  0  0  0  0
  142.1740   78.9800  223.0420 C   0  0  0  0  0  0  0  0  0  0  0  0
  141.2860   76.9060  221.1310 C   0  0  0  0  0  0  0  0  0  0  0  0
  139.8610   76.4660  221.2210 C   0  0  0  0  0  0  0  0  0  0  0  0
  139.7940   75.0990  221.9150 C   0  0  0  0  0  0  0  0  0  0  0  0
  140.6430   74.1760  221.1670 N   0  0  0  0  0  0  0  0  0  0  0  0
  140.2440   72.8620  220.8260 C   0  0  0  0  0  0  0  0  0  0  0  0
  140.9810   72.0800  220.1470 O   0  0  0  0  0  0  0  0  0  0  0  0
  138.9200   72.2680  221.2320 C   0  0  1  0  0  0  0  0  0  0  0  0
  138.8100   70.9470  220.6080 N   0  0  0  0  0  0  0  0  0  0  0  0
  138.9900   72.1460  222.7280 C   0  0  0  0  0  0  0  0  0  0  0  0
  140.3830   72.1080  223.2150 C   0  0  0  0  0  0  0  0  0  0  0  0
  140.5190   71.3470  224.4660 C   0  0  0  0  0  0  0  0  0  0  0  0
  140.9150   72.0320  225.5970 C   0  0  0  0  0  0  0  0  0  0  0  0
  141.0480   71.4370  226.8350 C   0  0  0  0  0  0  0  0  0  0  0  0
  140.7770   70.0920  226.9650 C   0  0  0  0  0  0  0  0  0  0  0  0
  140.9090   69.4910  228.2000 C   0  0  0  0  0  0  0  0  0  0  0  0
  140.6380   68.1440  228.3310 C   0  0  0  0  0  0  0  0  0  0  0  0
  140.2370   67.4190  227.2110 C   0  0  0  0  0  0  0  0  0  0  0  0
  140.1030   68.0210  225.9690 C   0  0  0  0  0  0  0  0  0  0  0  0
  140.3800   69.3790  225.8490 C   0  0  0  0  0  0  0  0  0  0  0  0
  140.2510   70.0020  224.6080 C   0  0  0  0  0  0  0  0  0  0  0  0
  141.9760   74.5930  220.7520 C   0  0  0  0  0  0  0  0  0  0  0  0
  141.9590   75.9580  220.1330 C   0  0  0  0  0  0  0  0  0  0  0  0
  142.3095   81.0302  218.5638 H   0  0  0  0  0  0  0  0  0  0  0  0
  143.2859   80.3661  217.2101 H   0  0  0  0  0  0  0  0  0  0  0  0
  141.5003   80.1702  217.2101 H   0  0  0  0  0  0  0  0  0  0  0  0
  142.6394   78.0640  217.8721 H   0  0  0  0  0  0  0  0  0  0  0  0
  143.4420   78.9152  219.2248 H   0  0  0  0  0  0  0  0  0  0  0  0
  141.1699   80.8282  220.3958 H   0  0  0  0  0  0  0  0  0  0  0  0
  141.6127   82.6554  221.9980 H   0  0  0  0  0  0  0  0  0  0  0  0
  142.4185   82.1350  224.2834 H   0  0  0  0  0  0  0  0  0  0  0  0
  142.7833   79.7665  224.9610 H   0  0  0  0  0  0  0  0  0  0  0  0
  142.3348   77.9346  223.3443 H   0  0  0  0  0  0  0  0  0  0  0  0
  141.7632   76.8451  222.1202 H   0  0  0  0  0  0  0  0  0  0  0  0
  139.2855   77.2015  221.8022 H   0  0  0  0  0  0  0  0  0  0  0  0
  139.4358   76.3865  220.2096 H   0  0  0  0  0  0  0  0  0  0  0  0
  140.1572   75.1865  222.9496 H   0  0  0  0  0  0  0  0  0  0  0  0
  138.7574   74.7319  221.9410 H   0  0  0  0  0  0  0  0  0  0  0  0
  138.0515   72.8693  220.9252 H   0  0  0  0  0  0  0  0  0  0  0  0
  138.3900   71.0060  219.6670 H   0  0  0  0  0  0  0  0  0  0  0  0
  139.6870   70.4150  220.6370 H   0  0  0  0  0  0  0  0  0  0  0  0
  138.4795   73.0097  223.1790 H   0  0  0  0  0  0  0  0  0  0  0  0
  138.5038   71.2020  223.0151 H   0  0  0  0  0  0  0  0  0  0  0  0
  141.0135   71.6385  222.4456 H   0  0  0  0  0  0  0  0  0  0  0  0
  140.6962   73.1431  223.4163 H   0  0  0  0  0  0  0  0  0  0  0  0
  141.1356   73.1059  225.5070 H   0  0  0  0  0  0  0  0  0  0  0  0
  141.3661   72.0283  227.7063 H   0  0  0  0  0  0  0  0  0  0  0  0
  141.2274   70.0803  229.0726 H   0  0  0  0  0  0  0  0  0  0  0  0
  140.7375   67.6488  229.3082 H   0  0  0  0  0  0  0  0  0  0  0  0
  140.0219   66.3452  227.3142 H   0  0  0  0  0  0  0  0  0  0  0  0
  139.7834   67.4353  225.0944 H   0  0  0  0  0  0  0  0  0  0  0  0
  139.9324   69.4148  223.7341 H   0  0  0  0  0  0  0  0  0  0  0  0
  142.6355   74.6083  221.6322 H   0  0  0  0  0  0  0  0  0  0  0  0
  142.3416   73.8785  219.9998 H   0  0  0  0  0  0  0  0  0  0  0  0
  142.9875   76.2924  219.9319 H   0  0  0  0  0  0  0  0  0  0  0  0
  141.4105   75.9450  219.1796 H   0  0  0  0  0  0  0  0  0  0  0  0
  1  2  1  0
  2  3  1  0
  3  4  2  0
  3  5  1  0
  5  6  1  0
  6  7  2  0
  7  8  1  0
  8  9  2  0
  9 10  1  0
 10 11  2  0
  5 12  1  0
 12 13  1  0
 13 14  1  0
 14 15  1  0
 15 16  1  0
 16 17  2  0
 16 18  1  0
 18 19  1  0
 18 20  1  0
 20 21  1  0
 21 22  1  0
 22 23  2  0
 23 24  1  0
 24 25  2  0
 25 26  1  0
 26 27  2  0
 27 28  1  0
 28 29  2  0
 29 30  1  0
 30 31  2  0
 15 32  1  0
 32 33  1  0
 11  6  1  0
 33 12  1  0
 31 22  1  0
 30 25  1  0
  1 34  1  0
  1 35  1  0
  1 36  1  0
  2 37  1  0
  2 38  1  0
  7 39  1  0
  8 40  1  0
  9 41  1  0
 10 42  1  0
 11 43  1  0
 12 44  1  0
 13 45  1  0
 13 46  1  0
 14 47  1  0
 14 48  1  0
 18 49  1  1
 19 50  1  0
 19 51  1  0
 20 52  1  0
 20 53  1  0
 21 54  1  0
 21 55  1  0
 23 56  1  0
 24 57  1  0
 26 58  1  0
 27 59  1  0
 28 60  1  0
 29 61  1  0
 31 62  1  0
 32 63  1  0
 32 64  1  0
 33 65  1  0
 33 66  1  0
M  END
>  <smiles>  (19) 
CCC(=O)N(c1ccccc1)C1CCN(C(=O)[C@@H](N)CCc2ccc3ccccc3c2)CC1

>  <score_type>  (19) 
oracle

>  <origin>  (19) 
autodockgpu

>  <m_score__min__energy>  (19) 
-9.3800000000000008

>  <m_primary>  (19) 
energy

>  <rmsd>  (19) 
3.054708583988078

>  <m_score__min__rmsd>  (19) 
3.054708583988078

>  <meeko>  (19) 
{"free_energy": -8.34, "intermolecular_energy": -11.02, "internal_energy": -2.36, "cluster_size": 38, "cluster_id": 3, "rank_in_cluster": 30}

>  <energy>  (19) 
-8.63

>  <cluster_rmsd>  (19) 
0.54

>  <cluster>  (19) 
3

$$$$

     RDKit          3D

 66 69  0  0  0  0  0  0  0  0999 V2000
  142.5720   78.8280  217.7800 C   0  0  0  0  0  0  0  0  0  0  0  0
  142.6030   80.1560  218.5150 C   0  0  0  0  0  0  0  0  0  0  0  0
  141.4270   80.2160  219.4270 C   0  0  0  0  0  0  0  0  0  0  0  0
  140.4580   80.9910  219.1370 O   0  0  0  0  0  0  0  0  0  0  0  0
  141.3870   79.4190  220.6100 N   0  0  0  0  0  0  0  0  0  0  0  0
  141.6410   80.0370  221.8510 C   0  0  0  0  0  0  0  0  0  0  0  0
  142.9490   79.9880  222.3260 C   0  0  0  0  0  0  0  0  0  0  0  0
  143.2890   80.5650  223.5290 C   0  0  0  0  0  0  0  0  0  0  0  0
  142.3270   81.2020  224.2830 C   0  0  0  0  0  0  0  0  0  0  0  0
  141.0180   81.2620  223.8270 C   0  0  0  0  0  0  0  0  0  0  0  0
  140.6860   80.6770  222.6120 C   0  0  0  0  0  0  0  0  0  0  0  0
  141.0910   78.0250  220.5130 C   0  0  0  0  0  0  0  0  0  0  0  0
  141.0730   77.3150  221.8280 C   0  0  0  0  0  0  0  0  0  0  0  0
  141.0910   75.8000  221.5870 C   0  0  0  0  0  0  0  0  0  0  0  0
  139.9560   75.4690  220.7300 N   0  0  0  0  0  0  0  0  0  0  0  0
  139.0960   74.3730  220.9750 C   0  0  0  0  0  0  0  0  0  0  0  0
  138.0920   74.1170  220.2380 O   0  0  0  0  0  0  0  0  0  0  0  0
  139.2850   73.4140  222.1210 C   0  0  1  0  0  0  0  0  0  0  0  0
  138.0070   72.7340  222.3530 N   0  0  0  0  0  0  0  0  0  0  0  0
  140.3270   72.4410  221.6480 C   0  0  0  0  0  0  0  0  0  0  0  0
  139.9480   71.0430  221.9330 C   0  0  0  0  0  0  0  0  0  0  0  0
  139.9180   70.7510  223.3740 C   0  0  0  0  0  0  0  0  0  0  0  0
  139.2390   69.6240  223.7890 C   0  0  0  0  0  0  0  0  0  0  0  0
  139.1660   69.2280  225.1090 C   0  0  0  0  0  0  0  0  0  0  0  0
  139.7980   69.9840  226.0720 C   0  0  0  0  0  0  0  0  0  0  0  0
  139.7290   69.5920  227.3930 C   0  0  0  0  0  0  0  0  0  0  0  0
  140.3620   70.3480  228.3590 C   0  0  0  0  0  0  0  0  0  0  0  0
  141.0570   71.4940  227.9780 C   0  0  0  0  0  0  0  0  0  0  0  0
  141.1280   71.8890  226.6500 C   0  0  0  0  0  0  0  0  0  0  0  0
  140.4870   71.1190  225.6860 C   0  0  0  0  0  0  0  0  0  0  0  0
  140.5470   71.5000  224.3460 C   0  0  0  0  0  0  0  0  0  0  0  0
  139.6810   76.2790  219.5500 C   0  0  0  0  0  0  0  0  0  0  0  0
  139.7340   77.7440  219.8620 C   0  0  0  0  0  0  0  0  0  0  0  0
  142.5528   78.0053  218.5099 H   0  0  0  0  0  0  0  0  0  0  0  0
  141.6725   78.7792  217.1488 H   0  0  0  0  0  0  0  0  0  0  0  0
  143.4683   78.7373  217.1488 H   0  0  0  0  0  0  0  0  0  0  0  0
  143.5312   80.2353  219.0999 H   0  0  0  0  0  0  0  0  0  0  0  0
  142.5661   80.9872  217.7955 H   0  0  0  0  0  0  0  0  0  0  0  0
  143.7226   79.4805  221.7310 H   0  0  0  0  0  0  0  0  0  0  0  0
  144.3277   80.5176  223.8881 H   0  0  0  0  0  0  0  0  0  0  0  0
  142.5967   81.6622  225.2450 H   0  0  0  0  0  0  0  0  0  0  0  0
  140.2471   81.7703  224.4248 H   0  0  0  0  0  0  0  0  0  0  0  0
  139.6476   80.7249  222.2522 H   0  0  0  0  0  0  0  0  0  0  0  0
  141.9149   77.6467  219.8900 H   0  0  0  0  0  0  0  0  0  0  0  0
  141.9579   77.6043  222.4139 H   0  0  0  0  0  0  0  0  0  0  0  0
  140.1631   77.5890  222.3821 H   0  0  0  0  0  0  0  0  0  0  0  0
  142.0299   75.5113  221.0920 H   0  0  0  0  0  0  0  0  0  0  0  0
  141.0209   75.2589  222.5422 H   0  0  0  0  0  0  0  0  0  0  0  0
  139.5950   73.8991  223.0583 H   0  0  0  0  0  0  0  0  0  0  0  0
  137.5470   73.0750  223.2130 H   0  0  0  0  0  0  0  0  0  0  0  0
  137.3960   72.7360  221.5280 H   0  0  0  0  0  0  0  0  0  0  0  0
  140.4567   72.5595  220.5621 H   0  0  0  0  0  0  0  0  0  0  0  0
  141.2620   72.6561  222.1861 H   0  0  0  0  0  0  0  0  0  0  0  0
  138.9482   70.8560  221.5141 H   0  0  0  0  0  0  0  0  0  0  0  0
  140.7063   70.3908  221.4752 H   0  0  0  0  0  0  0  0  0  0  0  0
  138.7307   69.0108  223.0303 H   0  0  0  0  0  0  0  0  0  0  0  0
  138.6105   68.3207  225.3886 H   0  0  0  0  0  0  0  0  0  0  0  0
  139.1742   68.6847  227.6741 H   0  0  0  0  0  0  0  0  0  0  0  0
  140.3183   70.0494  229.4168 H   0  0  0  0  0  0  0  0  0  0  0  0
  141.5603   72.0986  228.7469 H   0  0  0  0  0  0  0  0  0  0  0  0
  141.6818   72.7956  226.3647 H   0  0  0  0  0  0  0  0  0  0  0  0
  141.1013   72.4066  224.0616 H   0  0  0  0  0  0  0  0  0  0  0  0
  140.4306   76.0511  218.7779 H   0  0  0  0  0  0  0  0  0  0  0  0
  138.6674   76.0389  219.1964 H   0  0  0  0  0  0  0  0  0  0  0  0
  139.6327   78.3294  218.9362 H   0  0  0  0  0  0  0  0  0  0  0  0
  138.9133   78.0271  220.5375 H   0  0  0  0  0  0  0  0  0  0  0  0
  1  2  1  0
  2  3  1  0
  3  4  2  0
  3  5  1  0
  5  6  1  0
  6  7  2  0
  7  8  1  0
  8  9  2  0
  9 10  1  0
 10 11  2  0
  5 12  1  0
 12 13  1  0
 13 14  1  0
 14 15  1  0
 15 16  1  0
 16 17  2  0
 16 18  1  0
 18 19  1  0
 18 20  1  0
 20 21  1  0
 21 22  1  0
 22 23  2  0
 23 24  1  0
 24 25  2  0
 25 26  1  0
 26 27  2  0
 27 28  1  0
 28 29  2  0
 29 30  1  0
 30 31  2  0
 15 32  1  0
 32 33  1  0
 11  6  1  0
 33 12  1  0
 31 22  1  0
 30 25  1  0
  1 34  1  0
  1 35  1  0
  1 36  1  0
  2 37  1  0
  2 38  1  0
  7 39  1  0
  8 40  1  0
  9 41  1  0
 10 42  1  0
 11 43  1  0
 12 44  1  0
 13 45  1  0
 13 46  1  0
 14 47  1  0
 14 48  1  0
 18 49  1  1
 19 50  1  0
 19 51  1  0
 20 52  1  0
 20 53  1  0
 21 54  1  0
 21 55  1  0
 23 56  1  0
 24 57  1  0
 26 58  1  0
 27 59  1  0
 28 60  1  0
 29 61  1  0
 31 62  1  0
 32 63  1  0
 32 64  1  0
 33 65  1  0
 33 66  1  0
M  END
>  <smiles>  (20) 
CCC(=O)N(c1ccccc1)C1CCN(C(=O)[C@@H](N)CCc2ccc3ccccc3c2)CC1

>  <score_type>  (20) 
oracle

>  <origin>  (20) 
autodockgpu

>  <m_score__min__energy>  (20) 
-9.3800000000000008

>  <m_primary>  (20) 
energy

>  <rmsd>  (20) 
3.610974215870102

>  <m_score__min__rmsd>  (20) 
3.610974215870102

>  <meeko>  (20) 
{"free_energy": -8.69, "intermolecular_energy": -11.37, "internal_energy": -2.3, "cluster_size": 38, "cluster_id": 3, "rank_in_cluster": 5}

>  <energy>  (20) 
-8.62

>  <cluster_rmsd>  (20) 
0.63

>  <cluster>  (20) 
3

$$$$

     RDKit          3D

 66 69  0  0  0  0  0  0  0  0999 V2000
  137.9610   80.5310  223.1000 C   0  0  0  0  0  0  0  0  0  0  0  0
  137.9270   79.5150  221.9710 C   0  0  0  0  0  0  0  0  0  0  0  0
  138.3160   78.1870  222.5220 C   0  0  0  0  0  0  0  0  0  0  0  0
  137.4270   77.4660  223.0830 O   0  0  0  0  0  0  0  0  0  0  0  0
  139.6640   77.7290  222.4250 N   0  0  0  0  0  0  0  0  0  0  0  0
  140.7060   78.6790  222.4680 C   0  0  0  0  0  0  0  0  0  0  0  0
  141.2920   78.9170  223.7080 C   0  0  0  0  0  0  0  0  0  0  0  0
  142.3160   79.8280  223.8450 C   0  0  0  0  0  0  0  0  0  0  0  0
  142.7730   80.5200  222.7450 C   0  0  0  0  0  0  0  0  0  0  0  0
  142.2010   80.2960  221.5010 C   0  0  0  0  0  0  0  0  0  0  0  0
  141.1700   79.3760  221.3730 C   0  0  0  0  0  0  0  0  0  0  0  0
  139.9290   76.3330  222.2870 C   0  0  0  0  0  0  0  0  0  0  0  0
  138.7730   75.5440  221.7650 C   0  0  0  0  0  0  0  0  0  0  0  0
  139.0410   74.0480  221.9800 C   0  0  0  0  0  0  0  0  0  0  0  0
  140.3080   73.7230  221.3330 N   0  0  0  0  0  0  0  0  0  0  0  0
  140.4910   72.5780  220.5220 C   0  0  0  0  0  0  0  0  0  0  0  0
  141.5920   72.3250  219.9380 O   0  0  0  0  0  0  0  0  0  0  0  0
  139.4100   71.5590  220.2740 C   0  0  1  0  0  0  0  0  0  0  0  0
  139.4240   71.2280  218.8460 N   0  0  0  0  0  0  0  0  0  0  0  0
  139.8000   70.3680  221.1010 C   0  0  0  0  0  0  0  0  0  0  0  0
  138.8080   70.0780  222.1550 C   0  0  0  0  0  0  0  0  0  0  0  0
  139.3820   70.1660  223.5060 C   0  0  0  0  0  0  0  0  0  0  0  0
  140.0520   71.3230  223.8470 C   0  0  0  0  0  0  0  0  0  0  0  0
  140.6060   71.5380  225.0930 C   0  0  0  0  0  0  0  0  0  0  0  0
  140.4930   70.5580  226.0550 C   0  0  0  0  0  0  0  0  0  0  0  0
  141.0450   70.7680  227.3020 C   0  0  0  0  0  0  0  0  0  0  0  0
  140.9320   69.7870  228.2670 C   0  0  0  0  0  0  0  0  0  0  0  0
  140.2630   68.6040  227.9590 C   0  0  0  0  0  0  0  0  0  0  0  0
  139.7070   68.3930  226.7070 C   0  0  0  0  0  0  0  0  0  0  0  0
  139.8270   69.3870  225.7420 C   0  0  0  0  0  0  0  0  0  0  0  0
  139.2740   69.1920  224.4770 C   0  0  0  0  0  0  0  0  0  0  0  0
  141.4630   74.5910  221.5260 C   0  0  0  0  0  0  0  0  0  0  0  0
  141.1020   76.0350  221.3490 C   0  0  0  0  0  0  0  0  0  0  0  0
  137.9434   80.0059  224.0664 H   0  0  0  0  0  0  0  0  0  0  0  0
  138.8797   81.1313  223.0255 H   0  0  0  0  0  0  0  0  0  0  0  0
  137.0844   81.1914  223.0255 H   0  0  0  0  0  0  0  0  0  0  0  0
  136.9118   79.4601  221.5510 H   0  0  0  0  0  0  0  0  0  0  0  0
  138.6241   79.8124  221.1737 H   0  0  0  0  0  0  0  0  0  0  0  0
  140.9320   78.3695  224.5915 H   0  0  0  0  0  0  0  0  0  0  0  0
  142.7686   80.0029  224.8322 H   0  0  0  0  0  0  0  0  0  0  0  0
  143.5899   81.2488  222.8527 H   0  0  0  0  0  0  0  0  0  0  0  0
  142.5633   80.8455  220.6196 H   0  0  0  0  0  0  0  0  0  0  0  0
  140.7175   79.2008  220.3858 H   0  0  0  0  0  0  0  0  0  0  0  0
  140.1596   76.0289  223.3187 H   0  0  0  0  0  0  0  0  0  0  0  0
  137.8578   75.8341  222.3019 H   0  0  0  0  0  0  0  0  0  0  0  0
  138.6450   75.7447  220.6911 H   0  0  0  0  0  0  0  0  0  0  0  0
  139.1041   73.8303  223.0564 H   0  0  0  0  0  0  0  0  0  0  0  0
  138.2258   73.4467  221.5511 H   0  0  0  0  0  0  0  0  0  0  0  0
  138.4012   71.9090  220.5384 H   0  0  0  0  0  0  0  0  0  0  0  0
  138.6290   71.6600  218.3490 H   0  0  0  0  0  0  0  0  0  0  0  0
  140.3340   71.4010  218.4030 H   0  0  0  0  0  0  0  0  0  0  0  0
  139.8853   69.4910  220.4426 H   0  0  0  0  0  0  0  0  0  0  0  0
  140.7593   70.5932  221.5899 H   0  0  0  0  0  0  0  0  0  0  0  0
  137.9843   70.8024  222.0735 H   0  0  0  0  0  0  0  0  0  0  0  0
  138.4546   69.0468  222.0078 H   0  0  0  0  0  0  0  0  0  0  0  0
  140.1495   72.1134  223.0882 H   0  0  0  0  0  0  0  0  0  0  0  0
  141.1306   72.4790  225.3149 H   0  0  0  0  0  0  0  0  0  0  0  0
  141.5703   71.7083  227.5253 H   0  0  0  0  0  0  0  0  0  0  0  0
  141.3649   69.9375  229.2670 H   0  0  0  0  0  0  0  0  0  0  0  0
  140.1742   67.8206  228.7261 H   0  0  0  0  0  0  0  0  0  0  0  0
  139.1795   67.4547  226.4805 H   0  0  0  0  0  0  0  0  0  0  0  0
  138.7470   68.2532  224.2513 H   0  0  0  0  0  0  0  0  0  0  0  0
  141.8552   74.4429  222.5430 H   0  0  0  0  0  0  0  0  0  0  0  0
  142.2201   74.3301  220.7719 H   0  0  0  0  0  0  0  0  0  0  0  0
  141.9610   76.6716  221.6075 H   0  0  0  0  0  0  0  0  0  0  0  0
  140.8254   76.2406  220.3044 H   0  0  0  0  0  0  0  0  0  0  0  0
  1  2  1  0
  2  3  1  0
  3  4  2  0
  3  5  1  0
  5  6  1  0
  6  7  2  0
  7  8  1  0
  8  9  2  0
  9 10  1  0
 10 11  2  0
  5 12  1  0
 12 13  1  0
 13 14  1  0
 14 15  1  0
 15 16  1  0
 16 17  2  0
 16 18  1  0
 18 19  1  0
 18 20  1  0
 20 21  1  0
 21 22  1  0
 22 23  2  0
 23 24  1  0
 24 25  2  0
 25 26  1  0
 26 27  2  0
 27 28  1  0
 28 29  2  0
 29 30  1  0
 30 31  2  0
 15 32  1  0
 32 33  1  0
 11  6  1  0
 33 12  1  0
 31 22  1  0
 30 25  1  0
  1 34  1  0
  1 35  1  0
  1 36  1  0
  2 37  1  0
  2 38  1  0
  7 39  1  0
  8 40  1  0
  9 41  1  0
 10 42  1  0
 11 43  1  0
 12 44  1  0
 13 45  1  0
 13 46  1  0
 14 47  1  0
 14 48  1  0
 18 49  1  1
 19 50  1  0
 19 51  1  0
 20 52  1  0
 20 53  1  0
 21 54  1  0
 21 55  1  0
 23 56  1  0
 24 57  1  0
 26 58  1  0
 27 59  1  0
 28 60  1  0
 29 61  1  0
 31 62  1  0
 32 63  1  0
 32 64  1  0
 33 65  1  0
 33 66  1  0
M  END
>  <smiles>  (21) 
CCC(=O)N(c1ccccc1)C1CCN(C(=O)[C@@H](N)CCc2ccc3ccccc3c2)CC1

>  <score_type>  (21) 
oracle

>  <origin>  (21) 
autodockgpu

>  <m_score__min__energy>  (21) 
-9.3800000000000008

>  <m_primary>  (21) 
energy

>  <rmsd>  (21) 
2.7750147230982813

>  <m_score__min__rmsd>  (21) 
2.7750147230982813

>  <meeko>  (21) 
{"free_energy": -8.07, "intermolecular_energy": -10.76, "internal_energy": -2.45, "cluster_size": 2, "cluster_id": 4, "rank_in_cluster": 1}

>  <energy>  (21) 
-8.61

>  <cluster_rmsd>  (21) 
1.75

>  <cluster>  (21) 
3

$$$$

     RDKit          3D

 66 69  0  0  0  0  0  0  0  0999 V2000
  142.5370   78.8560  217.5750 C   0  0  0  0  0  0  0  0  0  0  0  0
  142.4560   80.1120  218.4250 C   0  0  0  0  0  0  0  0  0  0  0  0
  141.2960   79.9790  219.3510 C   0  0  0  0  0  0  0  0  0  0  0  0
  140.1870   80.5210  219.0350 O   0  0  0  0  0  0  0  0  0  0  0  0
  141.4270   79.2560  220.5740 N   0  0  0  0  0  0  0  0  0  0  0  0
  141.7620   79.9650  221.7460 C   0  0  0  0  0  0  0  0  0  0  0  0
  141.1600   81.2070  221.9280 C   0  0  0  0  0  0  0  0  0  0  0  0
  141.4290   81.9690  223.0430 C   0  0  0  0  0  0  0  0  0  0  0  0
  142.3060   81.5050  223.9990 C   0  0  0  0  0  0  0  0  0  0  0  0
  142.9150   80.2700  223.8360 C   0  0  0  0  0  0  0  0  0  0  0  0
  142.6370   79.5090  222.7090 C   0  0  0  0  0  0  0  0  0  0  0  0
  141.2150   77.8440  220.5880 C   0  0  0  0  0  0  0  0  0  0  0  0
  140.5990   77.3330  221.8490 C   0  0  0  0  0  0  0  0  0  0  0  0
  140.7330   75.8050  221.8980 C   0  0  0  0  0  0  0  0  0  0  0  0
  140.1200   75.2640  220.6890 N   0  0  0  0  0  0  0  0  0  0  0  0
  139.2480   74.1490  220.6970 C   0  0  0  0  0  0  0  0  0  0  0  0
  138.6960   73.7080  219.6400 O   0  0  0  0  0  0  0  0  0  0  0  0
  138.8950   73.3850  221.9460 C   0  0  1  0  0  0  0  0  0  0  0  0
  137.8380   72.4290  221.6030 N   0  0  0  0  0  0  0  0  0  0  0  0
  140.1560   72.6670  222.3340 C   0  0  0  0  0  0  0  0  0  0  0  0
  139.9180   71.2350  222.5990 C   0  0  0  0  0  0  0  0  0  0  0  0
  140.1750   70.8730  224.0020 C   0  0  0  0  0  0  0  0  0  0  0  0
  140.7010   71.8410  224.8310 C   0  0  0  0  0  0  0  0  0  0  0  0
  140.9550   71.6340  226.1710 C   0  0  0  0  0  0  0  0  0  0  0  0
  140.6750   70.4030  226.7240 C   0  0  0  0  0  0  0  0  0  0  0  0
  140.9280   70.1890  228.0640 C   0  0  0  0  0  0  0  0  0  0  0  0
  140.6470   68.9570  228.6180 C   0  0  0  0  0  0  0  0  0  0  0  0
  140.1160   67.9530  227.8110 C   0  0  0  0  0  0  0  0  0  0  0  0
  139.8610   68.1660  226.4650 C   0  0  0  0  0  0  0  0  0  0  0  0
  140.1480   69.4110  225.9170 C   0  0  0  0  0  0  0  0  0  0  0  0
  139.8980   69.6450  224.5650 C   0  0  0  0  0  0  0  0  0  0  0  0
  140.4130   75.8680  219.3960 C   0  0  0  0  0  0  0  0  0  0  0  0
  140.3100   77.3630  219.4510 C   0  0  0  0  0  0  0  0  0  0  0  0
  142.5939   77.9735  218.2292 H   0  0  0  0  0  0  0  0  0  0  0  0
  141.6416   78.7846  216.9401 H   0  0  0  0  0  0  0  0  0  0  0  0
  143.4342   78.9002  216.9401 H   0  0  0  0  0  0  0  0  0  0  0  0
  143.3832   80.2284  219.0053 H   0  0  0  0  0  0  0  0  0  0  0  0
  142.3275   80.9956  217.7826 H   0  0  0  0  0  0  0  0  0  0  0  0
  140.4588   81.5854  221.1696 H   0  0  0  0  0  0  0  0  0  0  0  0
  140.9438   82.9480  223.1704 H   0  0  0  0  0  0  0  0  0  0  0  0
  142.5226   82.1130  224.8897 H   0  0  0  0  0  0  0  0  0  0  0  0
  143.6155   79.8949  224.5967 H   0  0  0  0  0  0  0  0  0  0  0  0
  143.1211   78.5294  222.5825 H   0  0  0  0  0  0  0  0  0  0  0  0
  142.2351   77.4474  220.4786 H   0  0  0  0  0  0  0  0  0  0  0  0
  141.1144   77.7747  222.7146 H   0  0  0  0  0  0  0  0  0  0  0  0
  139.5348   77.6099  221.8770 H   0  0  0  0  0  0  0  0  0  0  0  0
  141.7957   75.5237  221.9367 H   0  0  0  0  0  0  0  0  0  0  0  0
  140.2352   75.4043  222.7933 H   0  0  0  0  0  0  0  0  0  0  0  0
  138.5347   74.0211  222.7680 H   0  0  0  0  0  0  0  0  0  0  0  0
  136.9010   72.8530  221.6890 H   0  0  0  0  0  0  0  0  0  0  0  0
  137.9990   71.9580  220.7060 H   0  0  0  0  0  0  0  0  0  0  0  0
  140.8841   72.7603  221.5148 H   0  0  0  0  0  0  0  0  0  0  0  0
  140.5366   73.1249  223.2589 H   0  0  0  0  0  0  0  0  0  0  0  0
  138.8700   71.0012  222.3603 H   0  0  0  0  0  0  0  0  0  0  0  0
  140.6132   70.6581  221.9714 H   0  0  0  0  0  0  0  0  0  0  0  0
  140.9296   72.8279  224.4023 H   0  0  0  0  0  0  0  0  0  0  0  0
  141.3753   72.4405  226.7898 H   0  0  0  0  0  0  0  0  0  0  0  0
  141.3498   70.9934  228.6845 H   0  0  0  0  0  0  0  0  0  0  0  0
  140.8400   68.7696  229.6846 H   0  0  0  0  0  0  0  0  0  0  0  0
  139.8942   66.9698  228.2515 H   0  0  0  0  0  0  0  0  0  0  0  0
  139.4390   67.3640  225.8416 H   0  0  0  0  0  0  0  0  0  0  0  0
  139.4760   68.8426  223.9420 H   0  0  0  0  0  0  0  0  0  0  0  0
  141.4342   75.5910  219.0954 H   0  0  0  0  0  0  0  0  0  0  0  0
  139.6762   75.4982  218.6677 H   0  0  0  0  0  0  0  0  0  0  0  0
  140.6422   77.7979  218.4968 H   0  0  0  0  0  0  0  0  0  0  0  0
  139.2694   77.6739  219.6256 H   0  0  0  0  0  0  0  0  0  0  0  0
  1  2  1  0
  2  3  1  0
  3  4  2  0
  3  5  1  0
  5  6  1  0
  6  7  2  0
  7  8  1  0
  8  9  2  0
  9 10  1  0
 10 11  2  0
  5 12  1  0
 12 13  1  0
 13 14  1  0
 14 15  1  0
 15 16  1  0
 16 17  2  0
 16 18  1  0
 18 19  1  0
 18 20  1  0
 20 21  1  0
 21 22  1  0
 22 23  2  0
 23 24  1  0
 24 25  2  0
 25 26  1  0
 26 27  2  0
 27 28  1  0
 28 29  2  0
 29 30  1  0
 30 31  2  0
 15 32  1  0
 32 33  1  0
 11  6  1  0
 33 12  1  0
 31 22  1  0
 30 25  1  0
  1 34  1  0
  1 35  1  0
  1 36  1  0
  2 37  1  0
  2 38  1  0
  7 39  1  0
  8 40  1  0
  9 41  1  0
 10 42  1  0
 11 43  1  0
 12 44  1  0
 13 45  1  0
 13 46  1  0
 14 47  1  0
 14 48  1  0
 18 49  1  1
 19 50  1  0
 19 51  1  0
 20 52  1  0
 20 53  1  0
 21 54  1  0
 21 55  1  0
 23 56  1  0
 24 57  1  0
 26 58  1  0
 27 59  1  0
 28 60  1  0
 29 61  1  0
 31 62  1  0
 32 63  1  0
 32 64  1  0
 33 65  1  0
 33 66  1  0
M  END
>  <smiles>  (22) 
CCC(=O)N(c1ccccc1)C1CCN(C(=O)[C@@H](N)CCc2ccc3ccccc3c2)CC1

>  <score_type>  (22) 
oracle

>  <origin>  (22) 
autodockgpu

>  <m_score__min__energy>  (22) 
-9.3800000000000008

>  <m_primary>  (22) 
energy

>  <rmsd>  (22) 
3.2182181885984225

>  <m_score__min__rmsd>  (22) 
3.2182181885984225

>  <meeko>  (22) 
{"free_energy": -8.27, "intermolecular_energy": -10.95, "internal_energy": -2.22, "cluster_size": 38, "cluster_id": 3, "rank_in_cluster": 35}

>  <energy>  (22) 
-8.6

>  <cluster_rmsd>  (22) 
0.87

>  <cluster>  (22) 
3

$$$$

     RDKit          3D

 66 69  0  0  0  0  0  0  0  0999 V2000
  141.5760   79.2550  217.0330 C   0  0  0  0  0  0  0  0  0  0  0  0
  142.5780   79.2100  218.1730 C   0  0  0  0  0  0  0  0  0  0  0  0
  141.9880   79.9140  219.3460 C   0  0  0  0  0  0  0  0  0  0  0  0
  141.7590   81.1650  219.2660 O   0  0  0  0  0  0  0  0  0  0  0  0
  141.6840   79.1970  220.5420 N   0  0  0  0  0  0  0  0  0  0  0  0
  141.8070   79.8630  221.7790 C   0  0  0  0  0  0  0  0  0  0  0  0
  140.6820   80.5340  222.2500 C   0  0  0  0  0  0  0  0  0  0  0  0
  140.7120   81.2120  223.4490 C   0  0  0  0  0  0  0  0  0  0  0  0
  141.8670   81.2330  224.2000 C   0  0  0  0  0  0  0  0  0  0  0  0
  142.9980   80.5700  223.7470 C   0  0  0  0  0  0  0  0  0  0  0  0
  142.9580   79.8890  222.5370 C   0  0  0  0  0  0  0  0  0  0  0  0
  141.2640   77.8350  220.4630 C   0  0  0  0  0  0  0  0  0  0  0  0
  141.2080   77.1390  221.7840 C   0  0  0  0  0  0  0  0  0  0  0  0
  141.0870   75.6260  221.5560 C   0  0  0  0  0  0  0  0  0  0  0  0
  139.9110   75.3920  220.7240 N   0  0  0  0  0  0  0  0  0  0  0  0
  138.9620   74.3780  220.9940 C   0  0  0  0  0  0  0  0  0  0  0  0
  137.9250   74.2070  220.2790 O   0  0  0  0  0  0  0  0  0  0  0  0
  139.0870   73.4140  222.1450 C   0  0  1  0  0  0  0  0  0  0  0  0
  137.7670   72.8190  222.3780 N   0  0  0  0  0  0  0  0  0  0  0  0
  140.0640   72.3740  221.6770 C   0  0  0  0  0  0  0  0  0  0  0  0
  139.6120   71.0060  222.0000 C   0  0  0  0  0  0  0  0  0  0  0  0
  139.7670   70.6850  223.4270 C   0  0  0  0  0  0  0  0  0  0  0  0
  139.2970   69.4650  223.8670 C   0  0  0  0  0  0  0  0  0  0  0  0
  139.4120   69.0360  225.1740 C   0  0  0  0  0  0  0  0  0  0  0  0
  140.0230   69.8570  226.0970 C   0  0  0  0  0  0  0  0  0  0  0  0
  140.1410   69.4330  227.4050 C   0  0  0  0  0  0  0  0  0  0  0  0
  140.7530   70.2540  228.3310 C   0  0  0  0  0  0  0  0  0  0  0  0
  141.2390   71.4950  227.9230 C   0  0  0  0  0  0  0  0  0  0  0  0
  141.1230   71.9210  226.6090 C   0  0  0  0  0  0  0  0  0  0  0  0
  140.5030   71.0860  225.6850 C   0  0  0  0  0  0  0  0  0  0  0  0
  140.3770   71.4980  224.3590 C   0  0  0  0  0  0  0  0  0  0  0  0
  139.6860   76.2140  219.5420 C   0  0  0  0  0  0  0  0  0  0  0  0
  139.8750   77.6710  219.8400 C   0  0  0  0  0  0  0  0  0  0  0  0
  140.5562   79.3008  217.4428 H   0  0  0  0  0  0  0  0  0  0  0  0
  141.7633   80.1456  216.4152 H   0  0  0  0  0  0  0  0  0  0  0  0
  141.6827   78.3512  216.4152 H   0  0  0  0  0  0  0  0  0  0  0  0
  142.7934   78.1641  218.4372 H   0  0  0  0  0  0  0  0  0  0  0  0
  143.5159   79.6992  217.8712 H   0  0  0  0  0  0  0  0  0  0  0  0
  139.7559   80.5228  221.6565 H   0  0  0  0  0  0  0  0  0  0  0  0
  139.8138   81.7366  223.8068 H   0  0  0  0  0  0  0  0  0  0  0  0
  141.8921   81.7746  225.1571 H   0  0  0  0  0  0  0  0  0  0  0  0
  143.9223   80.5834  224.3432 H   0  0  0  0  0  0  0  0  0  0  0  0
  143.8560   79.3639  222.1793 H   0  0  0  0  0  0  0  0  0  0  0  0
  142.0391   77.3807  219.8283 H   0  0  0  0  0  0  0  0  0  0  0  0
  142.1260   77.3528  222.3511 H   0  0  0  0  0  0  0  0  0  0  0  0
  140.3366   77.4967  222.3521 H   0  0  0  0  0  0  0  0  0  0  0  0
  141.9867   75.2515  221.0458 H   0  0  0  0  0  0  0  0  0  0  0  0
  140.9883   75.0997  222.5169 H   0  0  0  0  0  0  0  0  0  0  0  0
  139.4264   73.8819  223.0809 H   0  0  0  0  0  0  0  0  0  0  0  0
  137.4020   73.0630  223.3120 H   0  0  0  0  0  0  0  0  0  0  0  0
  137.1060   73.0000  221.6140 H   0  0  0  0  0  0  0  0  0  0  0  0
  140.1807   72.4614  220.5867 H   0  0  0  0  0  0  0  0  0  0  0  0
  141.0191   72.5475  222.1944 H   0  0  0  0  0  0  0  0  0  0  0  0
  138.5496   70.9124  221.7305 H   0  0  0  0  0  0  0  0  0  0  0  0
  140.2369   70.3034  221.4291 H   0  0  0  0  0  0  0  0  0  0  0  0
  138.8062   68.8010  223.1402 H   0  0  0  0  0  0  0  0  0  0  0  0
  139.0214   68.0526  225.4746 H   0  0  0  0  0  0  0  0  0  0  0  0
  139.7510   68.4498  227.7070 H   0  0  0  0  0  0  0  0  0  0  0  0
  140.8558   69.9327  229.3780 H   0  0  0  0  0  0  0  0  0  0  0  0
  141.7254   72.1509  228.6601 H   0  0  0  0  0  0  0  0  0  0  0  0
  141.5144   72.9022  226.3022 H   0  0  0  0  0  0  0  0  0  0  0  0
  140.7675   72.4800  224.0536 H   0  0  0  0  0  0  0  0  0  0  0  0
  140.3973   75.9146  218.7581 H   0  0  0  0  0  0  0  0  0  0  0  0
  138.6486   76.0622  219.2093 H   0  0  0  0  0  0  0  0  0  0  0  0
  139.8081   78.2564  218.9111 H   0  0  0  0  0  0  0  0  0  0  0  0
  139.0959   78.0307  220.5282 H   0  0  0  0  0  0  0  0  0  0  0  0
  1  2  1  0
  2  3  1  0
  3  4  2  0
  3  5  1  0
  5  6  1  0
  6  7  2  0
  7  8  1  0
  8  9  2  0
  9 10  1  0
 10 11  2  0
  5 12  1  0
 12 13  1  0
 13 14  1  0
 14 15  1  0
 15 16  1  0
 16 17  2  0
 16 18  1  0
 18 19  1  0
 18 20  1  0
 20 21  1  0
 21 22  1  0
 22 23  2  0
 23 24  1  0
 24 25  2  0
 25 26  1  0
 26 27  2  0
 27 28  1  0
 28 29  2  0
 29 30  1  0
 30 31  2  0
 15 32  1  0
 32 33  1  0
 11  6  1  0
 33 12  1  0
 31 22  1  0
 30 25  1  0
  1 34  1  0
  1 35  1  0
  1 36  1  0
  2 37  1  0
  2 38  1  0
  7 39  1  0
  8 40  1  0
  9 41  1  0
 10 42  1  0
 11 43  1  0
 12 44  1  0
 13 45  1  0
 13 46  1  0
 14 47  1  0
 14 48  1  0
 18 49  1  1
 19 50  1  0
 19 51  1  0
 20 52  1  0
 20 53  1  0
 21 54  1  0
 21 55  1  0
 23 56  1  0
 24 57  1  0
 26 58  1  0
 27 59  1  0
 28 60  1  0
 29 61  1  0
 31 62  1  0
 32 63  1  0
 32 64  1  0
 33 65  1  0
 33 66  1  0
M  END
>  <smiles>  (23) 
CCC(=O)N(c1ccccc1)C1CCN(C(=O)[C@@H](N)CCc2ccc3ccccc3c2)CC1

>  <score_type>  (23) 
oracle

>  <origin>  (23) 
autodockgpu

>  <m_score__min__energy>  (23) 
-9.3800000000000008

>  <m_primary>  (23) 
energy

>  <rmsd>  (23) 
3.5691537417254033

>  <m_score__min__rmsd>  (23) 
3.5691537417254033

>  <meeko>  (23) 
{"free_energy": -8.63, "intermolecular_energy": -11.31, "internal_energy": -2.34, "cluster_size": 38, "cluster_id": 3, "rank_in_cluster": 9}

>  <energy>  (23) 
-8.59

>  <cluster_rmsd>  (23) 
1.69

>  <cluster>  (23) 
3

$$$$

     RDKit          3D

 66 69  0  0  0  0  0  0  0  0999 V2000
  142.4810   78.0770  218.4850 C   0  0  0  0  0  0  0  0  0  0  0  0
  141.8620   79.3340  219.0710 C   0  0  0  0  0  0  0  0  0  0  0  0
  140.6920   78.9370  219.9030 C   0  0  0  0  0  0  0  0  0  0  0  0
  139.5230   79.0160  219.4030 O   0  0  0  0  0  0  0  0  0  0  0  0
  140.8780   78.4760  221.2410 N   0  0  0  0  0  0  0  0  0  0  0  0
  141.4000   79.3710  222.1970 C   0  0  0  0  0  0  0  0  0  0  0  0
  140.4920   80.2010  222.8490 C   0  0  0  0  0  0  0  0  0  0  0  0
  140.9130   81.1060  223.7980 C   0  0  0  0  0  0  0  0  0  0  0  0
  142.2510   81.1990  224.1140 C   0  0  0  0  0  0  0  0  0  0  0  0
  143.1710   80.3800  223.4760 C   0  0  0  0  0  0  0  0  0  0  0  0
  142.7370   79.4710  222.5210 C   0  0  0  0  0  0  0  0  0  0  0  0
  140.5330   77.1330  221.5800 C   0  0  0  0  0  0  0  0  0  0  0  0
  139.1440   76.7450  221.1920 C   0  0  0  0  0  0  0  0  0  0  0  0
  138.7670   75.4340  221.8950 C   0  0  0  0  0  0  0  0  0  0  0  0
  139.7710   74.4340  221.5440 N   0  0  0  0  0  0  0  0  0  0  0  0
  139.4440   73.1120  221.1610 C   0  0  0  0  0  0  0  0  0  0  0  0
  140.3270   72.2610  220.8270 O   0  0  0  0  0  0  0  0  0  0  0  0
  138.0310   72.5910  221.1120 C   0  0  1  0  0  0  0  0  0  0  0  0
  137.9460   71.6270  220.0110 N   0  0  0  0  0  0  0  0  0  0  0  0
  137.8220   71.9080  222.4340 C   0  0  0  0  0  0  0  0  0  0  0  0
  138.5790   70.6440  222.5300 C   0  0  0  0  0  0  0  0  0  0  0  0
  139.2270   70.4750  223.8390 C   0  0  0  0  0  0  0  0  0  0  0  0
  139.9770   71.5250  224.3270 C   0  0  0  0  0  0  0  0  0  0  0  0
  140.6060   71.5000  225.5550 C   0  0  0  0  0  0  0  0  0  0  0  0
  140.4890   70.3770  226.3460 C   0  0  0  0  0  0  0  0  0  0  0  0
  141.1160   70.3460  227.5740 C   0  0  0  0  0  0  0  0  0  0  0  0
  140.9990   69.2230  228.3670 C   0  0  0  0  0  0  0  0  0  0  0  0
  140.2500   68.1410  227.9070 C   0  0  0  0  0  0  0  0  0  0  0  0
  139.6190   68.1710  226.6730 C   0  0  0  0  0  0  0  0  0  0  0  0
  139.7440   69.3080  225.8830 C   0  0  0  0  0  0  0  0  0  0  0  0
  139.1160   69.3570  224.6380 C   0  0  0  0  0  0  0  0  0  0  0  0
  141.1850   74.7790  221.5980 C   0  0  0  0  0  0  0  0  0  0  0  0
  141.4570   76.0960  220.9360 C   0  0  0  0  0  0  0  0  0  0  0  0
  142.8072   77.4145  219.3003 H   0  0  0  0  0  0  0  0  0  0  0  0
  141.7363   77.5562  217.8651 H   0  0  0  0  0  0  0  0  0  0  0  0
  143.3478   78.3498  217.8651 H   0  0  0  0  0  0  0  0  0  0  0  0
  142.6019   79.8564  219.6953 H   0  0  0  0  0  0  0  0  0  0  0  0
  141.5408   80.0091  218.2641 H   0  0  0  0  0  0  0  0  0  0  0  0
  139.4222   80.1329  222.6024 H   0  0  0  0  0  0  0  0  0  0  0  0
  140.1817   81.7540  224.3033 H   0  0  0  0  0  0  0  0  0  0  0  0
  142.5891   81.9217  224.8712 H   0  0  0  0  0  0  0  0  0  0  0  0
  144.2399   80.4506  223.7258 H   0  0  0  0  0  0  0  0  0  0  0  0
  143.4683   78.8224  222.0164 H   0  0  0  0  0  0  0  0  0  0  0  0
  140.6342   77.1286  222.6753 H   0  0  0  0  0  0  0  0  0  0  0  0
  138.4436   77.5378  221.4933 H   0  0  0  0  0  0  0  0  0  0  0  0
  139.0917   76.6062  220.1020 H   0  0  0  0  0  0  0  0  0  0  0  0
  138.7536   75.5842  222.9846 H   0  0  0  0  0  0  0  0  0  0  0  0
  137.7673   75.1021  221.5781 H   0  0  0  0  0  0  0  0  0  0  0  0
  137.2752   73.3731  220.9475 H   0  0  0  0  0  0  0  0  0  0  0  0
  137.6360   72.0780  219.1360 H   0  0  0  0  0  0  0  0  0  0  0  0
  138.7960   71.0620  219.9060 H   0  0  0  0  0  0  0  0  0  0  0  0
  138.1529   72.5819  223.2380 H   0  0  0  0  0  0  0  0  0  0  0  0
  136.7520   71.6709  222.5282 H   0  0  0  0  0  0  0  0  0  0  0  0
  137.8866   69.8047  222.3679 H   0  0  0  0  0  0  0  0  0  0  0  0
  139.3698   70.6686  221.7657 H   0  0  0  0  0  0  0  0  0  0  0  0
  140.0787   72.4273  223.7061 H   0  0  0  0  0  0  0  0  0  0  0  0
  141.1930   72.3647  225.8982 H   0  0  0  0  0  0  0  0  0  0  0  0
  141.7044   71.2093  227.9183 H   0  0  0  0  0  0  0  0  0  0  0  0
  141.4907   69.1820  229.3501 H   0  0  0  0  0  0  0  0  0  0  0  0
  140.1577   67.2439  228.5369 H   0  0  0  0  0  0  0  0  0  0  0  0
  139.0296   67.3099  226.3250 H   0  0  0  0  0  0  0  0  0  0  0  0
  138.5268   68.4955  224.2907 H   0  0  0  0  0  0  0  0  0  0  0  0
  141.4984   74.8371  222.6508 H   0  0  0  0  0  0  0  0  0  0  0  0
  141.7497   74.0015  221.0626 H   0  0  0  0  0  0  0  0  0  0  0  0
  142.5079   76.3831  221.0882 H   0  0  0  0  0  0  0  0  0  0  0  0
  141.2727   76.0314  219.8535 H   0  0  0  0  0  0  0  0  0  0  0  0
  1  2  1  0
  2  3  1  0
  3  4  2  0
  3  5  1  0
  5  6  1  0
  6  7  2  0
  7  8  1  0
  8  9  2  0
  9 10  1  0
 10 11  2  0
  5 12  1  0
 12 13  1  0
 13 14  1  0
 14 15  1  0
 15 16  1  0
 16 17  2  0
 16 18  1  0
 18 19  1  0
 18 20  1  0
 20 21  1  0
 21 22  1  0
 22 23  2  0
 23 24  1  0
 24 25  2  0
 25 26  1  0
 26 27  2  0
 27 28  1  0
 28 29  2  0
 29 30  1  0
 30 31  2  0
 15 32  1  0
 32 33  1  0
 11  6  1  0
 33 12  1  0
 31 22  1  0
 30 25  1  0
  1 34  1  0
  1 35  1  0
  1 36  1  0
  2 37  1  0
  2 38  1  0
  7 39  1  0
  8 40  1  0
  9 41  1  0
 10 42  1  0
 11 43  1  0
 12 44  1  0
 13 45  1  0
 13 46  1  0
 14 47  1  0
 14 48  1  0
 18 49  1  6
 19 50  1  0
 19 51  1  0
 20 52  1  0
 20 53  1  0
 21 54  1  0
 21 55  1  0
 23 56  1  0
 24 57  1  0
 26 58  1  0
 27 59  1  0
 28 60  1  0
 29 61  1  0
 31 62  1  0
 32 63  1  0
 32 64  1  0
 33 65  1  0
 33 66  1  0
M  END
>  <smiles>  (24) 
CCC(=O)N(c1ccccc1)C1CCN(C(=O)[C@@H](N)CCc2ccc3ccccc3c2)CC1

>  <score_type>  (24) 
oracle

>  <origin>  (24) 
autodockgpu

>  <m_score__min__energy>  (24) 
-9.3800000000000008

>  <m_primary>  (24) 
energy

>  <rmsd>  (24) 
2.7716811766303397

>  <m_score__min__rmsd>  (24) 
2.7716811766303397

>  <meeko>  (24) 
{"free_energy": -8.25, "intermolecular_energy": -10.94, "internal_energy": -2.45, "cluster_size": 38, "cluster_id": 3, "rank_in_cluster": 36}

>  <energy>  (24) 
-8.58

>  <cluster_rmsd>  (24) 
1.24

>  <cluster>  (24) 
3

$$$$

     RDKit          3D

 66 69  0  0  0  0  0  0  0  0999 V2000
  142.4660   81.8250  217.8490 C   0  0  0  0  0  0  0  0  0  0  0  0
  141.7660   81.3180  219.0970 C   0  0  0  0  0  0  0  0  0  0  0  0
  142.0500   79.8630  219.2380 C   0  0  0  0  0  0  0  0  0  0  0  0
  142.5890   79.2410  218.2650 O   0  0  0  0  0  0  0  0  0  0  0  0
  141.7230   79.1740  220.4440 N   0  0  0  0  0  0  0  0  0  0  0  0
  141.8180   79.8700  221.6670 C   0  0  0  0  0  0  0  0  0  0  0  0
  140.6820   80.5490  222.0970 C   0  0  0  0  0  0  0  0  0  0  0  0
  140.6840   81.2560  223.2800 C   0  0  0  0  0  0  0  0  0  0  0  0
  141.8220   81.2990  224.0550 C   0  0  0  0  0  0  0  0  0  0  0  0
  142.9640   80.6280  223.6430 C   0  0  0  0  0  0  0  0  0  0  0  0
  142.9520   79.9180  222.4500 C   0  0  0  0  0  0  0  0  0  0  0  0
  141.3090   77.8090  220.3900 C   0  0  0  0  0  0  0  0  0  0  0  0
  141.1710   77.1620  221.7290 C   0  0  0  0  0  0  0  0  0  0  0  0
  141.0640   75.6410  221.5500 C   0  0  0  0  0  0  0  0  0  0  0  0
  139.9420   75.3740  220.6550 N   0  0  0  0  0  0  0  0  0  0  0  0
  138.9780   74.3690  220.9030 C   0  0  0  0  0  0  0  0  0  0  0  0
  137.9870   74.1700  220.1320 O   0  0  0  0  0  0  0  0  0  0  0  0
  139.0310   73.4480  222.0940 C   0  0  1  0  0  0  0  0  0  0  0  0
  137.6880   72.8960  222.2940 N   0  0  0  0  0  0  0  0  0  0  0  0
  139.9990   72.3670  221.7070 C   0  0  0  0  0  0  0  0  0  0  0  0
  139.4850   71.0220  222.0330 C   0  0  0  0  0  0  0  0  0  0  0  0
  139.6510   70.6860  223.4560 C   0  0  0  0  0  0  0  0  0  0  0  0
  139.2180   69.4470  223.8800 C   0  0  0  0  0  0  0  0  0  0  0  0
  139.3480   69.0040  225.1800 C   0  0  0  0  0  0  0  0  0  0  0  0
  139.9360   69.8290  226.1140 C   0  0  0  0  0  0  0  0  0  0  0  0
  140.0680   69.3920  227.4160 C   0  0  0  0  0  0  0  0  0  0  0  0
  140.6580   70.2170  228.3520 C   0  0  0  0  0  0  0  0  0  0  0  0
  141.1060   71.4770  227.9610 C   0  0  0  0  0  0  0  0  0  0  0  0
  140.9750   71.9180  226.6530 C   0  0  0  0  0  0  0  0  0  0  0  0
  140.3790   71.0780  225.7190 C   0  0  0  0  0  0  0  0  0  0  0  0
  140.2390   71.5040  224.3980 C   0  0  0  0  0  0  0  0  0  0  0  0
  139.7910   76.1520  219.4320 C   0  0  0  0  0  0  0  0  0  0  0  0
  139.9610   77.6190  219.6880 C   0  0  0  0  0  0  0  0  0  0  0  0
  143.3256   82.4476  218.1380 H   0  0  0  0  0  0  0  0  0  0  0  0
  142.8167   80.9700  217.2523 H   0  0  0  0  0  0  0  0  0  0  0  0
  141.7630   82.4248  217.2523 H   0  0  0  0  0  0  0  0  0  0  0  0
  142.1425   81.8570  219.9789 H   0  0  0  0  0  0  0  0  0  0  0  0
  140.6818   81.4850  219.0160 H   0  0  0  0  0  0  0  0  0  0  0  0
  139.7692   80.5210  221.4838 H   0  0  0  0  0  0  0  0  0  0  0  0
  139.7767   81.7860  223.6054 H   0  0  0  0  0  0  0  0  0  0  0  0
  141.8251   81.8643  224.9986 H   0  0  0  0  0  0  0  0  0  0  0  0
  143.8750   80.6583  224.2588 H   0  0  0  0  0  0  0  0  0  0  0  0
  143.8589   79.3869  222.1252 H   0  0  0  0  0  0  0  0  0  0  0  0
  142.1225   77.3334  219.8225 H   0  0  0  0  0  0  0  0  0  0  0  0
  142.0521   77.3984  222.3437 H   0  0  0  0  0  0  0  0  0  0  0  0
  140.2660   77.5385  222.2282 H   0  0  0  0  0  0  0  0  0  0  0  0
  141.9937   75.2497  221.1113 H   0  0  0  0  0  0  0  0  0  0  0  0
  140.9052   75.1504  222.5216 H   0  0  0  0  0  0  0  0  0  0  0  0
  139.3443   73.9432  223.0249 H   0  0  0  0  0  0  0  0  0  0  0  0
  137.3370   73.0890  223.2460 H   0  0  0  0  0  0  0  0  0  0  0  0
  137.0320   73.1570  221.5500 H   0  0  0  0  0  0  0  0  0  0  0  0
  140.1813   72.4246  220.6237 H   0  0  0  0  0  0  0  0  0  0  0  0
  140.9277   72.5229  222.2755 H   0  0  0  0  0  0  0  0  0  0  0  0
  138.4143   70.9834  221.7838 H   0  0  0  0  0  0  0  0  0  0  0  0
  140.0627   70.2919  221.4471 H   0  0  0  0  0  0  0  0  0  0  0  0
  138.7455   68.7788  223.1450 H   0  0  0  0  0  0  0  0  0  0  0  0
  138.9871   68.0054  225.4672 H   0  0  0  0  0  0  0  0  0  0  0  0
  139.7060   68.3944  227.7056 H   0  0  0  0  0  0  0  0  0  0  0  0
  140.7731   69.8838  229.3940 H   0  0  0  0  0  0  0  0  0  0  0  0
  141.5740   72.1366  228.7066 H   0  0  0  0  0  0  0  0  0  0  0  0
  141.3362   72.9147  226.3595 H   0  0  0  0  0  0  0  0  0  0  0  0
  140.6006   72.5007  224.1052 H   0  0  0  0  0  0  0  0  0  0  0  0
  140.5497   75.8260  218.7053 H   0  0  0  0  0  0  0  0  0  0  0  0
  138.7763   75.9858  219.0411 H   0  0  0  0  0  0  0  0  0  0  0  0
  139.9520   78.1702  218.7361 H   0  0  0  0  0  0  0  0  0  0  0  0
  139.1406   78.0015  220.3130 H   0  0  0  0  0  0  0  0  0  0  0  0
  1  2  1  0
  2  3  1  0
  3  4  2  0
  3  5  1  0
  5  6  1  0
  6  7  2  0
  7  8  1  0
  8  9  2  0
  9 10  1  0
 10 11  2  0
  5 12  1  0
 12 13  1  0
 13 14  1  0
 14 15  1  0
 15 16  1  0
 16 17  2  0
 16 18  1  0
 18 19  1  0
 18 20  1  0
 20 21  1  0
 21 22  1  0
 22 23  2  0
 23 24  1  0
 24 25  2  0
 25 26  1  0
 26 27  2  0
 27 28  1  0
 28 29  2  0
 29 30  1  0
 30 31  2  0
 15 32  1  0
 32 33  1  0
 11  6  1  0
 33 12  1  0
 31 22  1  0
 30 25  1  0
  1 34  1  0
  1 35  1  0
  1 36  1  0
  2 37  1  0
  2 38  1  0
  7 39  1  0
  8 40  1  0
  9 41  1  0
 10 42  1  0
 11 43  1  0
 12 44  1  0
 13 45  1  0
 13 46  1  0
 14 47  1  0
 14 48  1  0
 18 49  1  1
 19 50  1  0
 19 51  1  0
 20 52  1  0
 20 53  1  0
 21 54  1  0
 21 55  1  0
 23 56  1  0
 24 57  1  0
 26 58  1  0
 27 59  1  0
 28 60  1  0
 29 61  1  0
 31 62  1  0
 32 63  1  0
 32 64  1  0
 33 65  1  0
 33 66  1  0
M  END
>  <smiles>  (25) 
CCC(=O)N(c1ccccc1)C1CCN(C(=O)[C@@H](N)CCc2ccc3ccccc3c2)CC1

>  <score_type>  (25) 
oracle

>  <origin>  (25) 
autodockgpu

>  <m_score__min__energy>  (25) 
-9.3800000000000008

>  <m_primary>  (25) 
energy

>  <rmsd>  (25) 
3.569289064106985

>  <m_score__min__rmsd>  (25) 
3.569289064106985

>  <meeko>  (25) 
{"free_energy": -8.65, "intermolecular_energy": -11.34, "internal_energy": -2.28, "cluster_size": 38, "cluster_id": 3, "rank_in_cluster": 7}

>  <energy>  (25) 
-8.53

>  <cluster_rmsd>  (25) 
1.31

>  <cluster>  (25) 
3

$$$$

     RDKit          3D

 66 69  0  0  0  0  0  0  0  0999 V2000
  142.5770   80.9400  223.8520 C   0  0  0  0  0  0  0  0  0  0  0  0
  142.9690   79.9710  222.7510 C   0  0  0  0  0  0  0  0  0  0  0  0
  141.7860   79.7530  221.8730 C   0  0  0  0  0  0  0  0  0  0  0  0
  141.8290   80.1600  220.6660 O   0  0  0  0  0  0  0  0  0  0  0  0
  140.6220   79.0980  222.3750 N   0  0  0  0  0  0  0  0  0  0  0  0
  139.5770   79.8860  222.9000 C   0  0  0  0  0  0  0  0  0  0  0  0
  139.0090   80.8310  222.0500 C   0  0  0  0  0  0  0  0  0  0  0  0
  137.9840   81.6440  222.4780 C   0  0  0  0  0  0  0  0  0  0  0  0
  137.5050   81.5300  223.7650 C   0  0  0  0  0  0  0  0  0  0  0  0
  138.0580   80.5940  224.6270 C   0  0  0  0  0  0  0  0  0  0  0  0
  139.0910   79.7790  224.1860 C   0  0  0  0  0  0  0  0  0  0  0  0
  140.5390   77.6730  222.3360 C   0  0  0  0  0  0  0  0  0  0  0  0
  139.1480   77.1500  222.1890 C   0  0  0  0  0  0  0  0  0  0  0  0
  139.1350   75.6470  222.5000 C   0  0  0  0  0  0  0  0  0  0  0  0
  140.0980   74.9990  221.6150 N   0  0  0  0  0  0  0  0  0  0  0  0
  139.8210   73.8000  220.9160 C   0  0  0  0  0  0  0  0  0  0  0  0
  140.6580   73.2650  220.1230 O   0  0  0  0  0  0  0  0  0  0  0  0
  138.5210   73.0510  221.0420 C   0  0  1  0  0  0  0  0  0  0  0  0
  138.4410   72.0990  219.9300 N   0  0  0  0  0  0  0  0  0  0  0  0
  138.6130   72.3290  222.3550 C   0  0  0  0  0  0  0  0  0  0  0  0
  139.8370   71.5090  222.4510 C   0  0  0  0  0  0  0  0  0  0  0  0
  140.0820   71.0220  223.8170 C   0  0  0  0  0  0  0  0  0  0  0  0
  140.7010   71.8790  224.7040 C   0  0  0  0  0  0  0  0  0  0  0  0
  140.9570   71.5500  226.0200 C   0  0  0  0  0  0  0  0  0  0  0  0
  140.5820   70.3090  226.4860 C   0  0  0  0  0  0  0  0  0  0  0  0
  140.8360   69.9750  227.8010 C   0  0  0  0  0  0  0  0  0  0  0  0
  140.4600   68.7320  228.2690 C   0  0  0  0  0  0  0  0  0  0  0  0
  139.8340   67.8390  227.4010 C   0  0  0  0  0  0  0  0  0  0  0  0
  139.5780   68.1740  226.0810 C   0  0  0  0  0  0  0  0  0  0  0  0
  139.9610   69.4280  225.6200 C   0  0  0  0  0  0  0  0  0  0  0  0
  139.7110   69.7830  224.2940 C   0  0  0  0  0  0  0  0  0  0  0  0
  141.4220   75.5810  221.4360 C   0  0  0  0  0  0  0  0  0  0  0  0
  141.3450   77.0580  221.1890 C   0  0  0  0  0  0  0  0  0  0  0  0
  142.7644   80.4768  224.8320 H   0  0  0  0  0  0  0  0  0  0  0  0
  143.1739   81.8595  223.7609 H   0  0  0  0  0  0  0  0  0  0  0  0
  141.5087   81.1858  223.7609 H   0  0  0  0  0  0  0  0  0  0  0  0
  143.7962   80.3934  222.1616 H   0  0  0  0  0  0  0  0  0  0  0  0
  143.2967   79.0159  223.1873 H   0  0  0  0  0  0  0  0  0  0  0  0
  139.3850   80.9295  221.0209 H   0  0  0  0  0  0  0  0  0  0  0  0
  137.5471   82.3850  221.7924 H   0  0  0  0  0  0  0  0  0  0  0  0
  136.6862   82.1795  224.1081 H   0  0  0  0  0  0  0  0  0  0  0  0
  137.6793   80.4984  225.6553 H   0  0  0  0  0  0  0  0  0  0  0  0
  139.5279   79.0378  224.8714 H   0  0  0  0  0  0  0  0  0  0  0  0
  140.9519   77.3802  223.3126 H   0  0  0  0  0  0  0  0  0  0  0  0
  138.4820   77.6757  222.8890 H   0  0  0  0  0  0  0  0  0  0  0  0
  138.7991   77.3160  221.1591 H   0  0  0  0  0  0  0  0  0  0  0  0
  139.4197   75.4797  223.5493 H   0  0  0  0  0  0  0  0  0  0  0  0
  138.1288   75.2312  222.3427 H   0  0  0  0  0  0  0  0  0  0  0  0
  137.6318   73.6977  221.0089 H   0  0  0  0  0  0  0  0  0  0  0  0
  138.9350   72.4510  219.0940 H   0  0  0  0  0  0  0  0  0  0  0  0
  138.7090   71.1460  220.1980 H   0  0  0  0  0  0  0  0  0  0  0  0
  138.6173   73.0699  223.1681 H   0  0  0  0  0  0  0  0  0  0  0  0
  137.7464   71.6562  222.4341 H   0  0  0  0  0  0  0  0  0  0  0  0
  139.7351   70.6429  221.7805 H   0  0  0  0  0  0  0  0  0  0  0  0
  140.6884   72.1438  222.1644 H   0  0  0  0  0  0  0  0  0  0  0  0
  141.0054   72.8731  224.3447 H   0  0  0  0  0  0  0  0  0  0  0  0
  141.4538   72.2692  226.6877 H   0  0  0  0  0  0  0  0  0  0  0  0
  141.3335   70.6928  228.4698 H   0  0  0  0  0  0  0  0  0  0  0  0
  140.6522   68.4496  229.3146 H   0  0  0  0  0  0  0  0  0  0  0  0
  139.5368   66.8470  227.7718 H   0  0  0  0  0  0  0  0  0  0  0  0
  139.0800   67.4594  225.4092 H   0  0  0  0  0  0  0  0  0  0  0  0
  139.2132   69.0675  223.6230 H   0  0  0  0  0  0  0  0  0  0  0  0
  142.0171   75.4010  222.3435 H   0  0  0  0  0  0  0  0  0  0  0  0
  141.8906   75.1089  220.5600 H   0  0  0  0  0  0  0  0  0  0  0  0
  142.3569   77.4888  221.1674 H   0  0  0  0  0  0  0  0  0  0  0  0
  140.8640   77.2653  220.2217 H   0  0  0  0  0  0  0  0  0  0  0  0
  1  2  1  0
  2  3  1  0
  3  4  2  0
  3  5  1  0
  5  6  1  0
  6  7  2  0
  7  8  1  0
  8  9  2  0
  9 10  1  0
 10 11  2  0
  5 12  1  0
 12 13  1  0
 13 14  1  0
 14 15  1  0
 15 16  1  0
 16 17  2  0
 16 18  1  0
 18 19  1  0
 18 20  1  0
 20 21  1  0
 21 22  1  0
 22 23  2  0
 23 24  1  0
 24 25  2  0
 25 26  1  0
 26 27  2  0
 27 28  1  0
 28 29  2  0
 29 30  1  0
 30 31  2  0
 15 32  1  0
 32 33  1  0
 11  6  1  0
 33 12  1  0
 31 22  1  0
 30 25  1  0
  1 34  1  0
  1 35  1  0
  1 36  1  0
  2 37  1  0
  2 38  1  0
  7 39  1  0
  8 40  1  0
  9 41  1  0
 10 42  1  0
 11 43  1  0
 12 44  1  0
 13 45  1  0
 13 46  1  0
 14 47  1  0
 14 48  1  0
 18 49  1  1
 19 50  1  0
 19 51  1  0
 20 52  1  0
 20 53  1  0
 21 54  1  0
 21 55  1  0
 23 56  1  0
 24 57  1  0
 26 58  1  0
 27 59  1  0
 28 60  1  0
 29 61  1  0
 31 62  1  0
 32 63  1  0
 32 64  1  0
 33 65  1  0
 33 66  1  0
M  END
>  <smiles>  (26) 
CCC(=O)N(c1ccccc1)C1CCN(C(=O)[C@@H](N)CCc2ccc3ccccc3c2)CC1

>  <score_type>  (26) 
oracle

>  <origin>  (26) 
autodockgpu

>  <m_score__min__energy>  (26) 
-9.3800000000000008

>  <m_primary>  (26) 
energy

>  <rmsd>  (26) 
3.1948473468208305

>  <m_score__min__rmsd>  (26) 
3.1948473468208305

>  <meeko>  (26) 
{"free_energy": -8.33, "intermolecular_energy": -11.02, "internal_energy": -2.49, "cluster_size": 4, "cluster_id": 2, "rank_in_cluster": 4}

>  <energy>  (26) 
-8.5

>  <cluster_rmsd>  (26) 
1.91

>  <cluster>  (26) 
3

$$$$

     RDKit          3D

 66 69  0  0  0  0  0  0  0  0999 V2000
  142.6230   79.3170  217.8590 C   0  0  0  0  0  0  0  0  0  0  0  0
  142.1730   80.5490  218.6240 C   0  0  0  0  0  0  0  0  0  0  0  0
  141.0630   80.1580  219.5360 C   0  0  0  0  0  0  0  0  0  0  0  0
  139.8720   80.5070  219.2460 O   0  0  0  0  0  0  0  0  0  0  0  0
  141.3280   79.4030  220.7180 N   0  0  0  0  0  0  0  0  0  0  0  0
  141.7260   80.0900  221.8830 C   0  0  0  0  0  0  0  0  0  0  0  0
  143.0180   79.8560  222.3450 C   0  0  0  0  0  0  0  0  0  0  0  0
  143.4910   80.4840  223.4760 C   0  0  0  0  0  0  0  0  0  0  0  0
  142.6810   81.3570  224.1690 C   0  0  0  0  0  0  0  0  0  0  0  0
  141.3900   81.6020  223.7240 C   0  0  0  0  0  0  0  0  0  0  0  0
  140.9230   80.9660  222.5830 C   0  0  0  0  0  0  0  0  0  0  0  0
  141.1860   77.9830  220.6970 C   0  0  0  0  0  0  0  0  0  0  0  0
  140.7620   77.3950  222.0030 C   0  0  0  0  0  0  0  0  0  0  0  0
  140.9730   75.8750  221.9690 C   0  0  0  0  0  0  0  0  0  0  0  0
  140.2340   75.3470  220.8250 N   0  0  0  0  0  0  0  0  0  0  0  0
  139.4240   74.1900  220.8960 C   0  0  0  0  0  0  0  0  0  0  0  0
  138.7610   73.7600  219.9000 O   0  0  0  0  0  0  0  0  0  0  0  0
  139.2700   73.3630  222.1450 C   0  0  1  0  0  0  0  0  0  0  0  0
  137.8940   72.8610  222.1860 N   0  0  0  0  0  0  0  0  0  0  0  0
  140.2440   72.2300  221.9850 C   0  0  0  0  0  0  0  0  0  0  0  0
  139.6940   70.9530  222.4800 C   0  0  0  0  0  0  0  0  0  0  0  0
  140.0360   70.7010  223.8880 C   0  0  0  0  0  0  0  0  0  0  0  0
  140.7140   71.6890  224.5730 C   0  0  0  0  0  0  0  0  0  0  0  0
  141.0620   71.5840  225.9040 C   0  0  0  0  0  0  0  0  0  0  0  0
  140.7250   70.4420  226.5980 C   0  0  0  0  0  0  0  0  0  0  0  0
  141.0710   70.3320  227.9290 C   0  0  0  0  0  0  0  0  0  0  0  0
  140.7330   69.1890  228.6250 C   0  0  0  0  0  0  0  0  0  0  0  0
  140.0490   68.1690  227.9660 C   0  0  0  0  0  0  0  0  0  0  0  0
  139.7000   68.2780  226.6290 C   0  0  0  0  0  0  0  0  0  0  0  0
  140.0460   69.4340  225.9370 C   0  0  0  0  0  0  0  0  0  0  0  0
  139.7030   69.5630  224.5920 C   0  0  0  0  0  0  0  0  0  0  0  0
  140.3290   76.0130  219.5330 C   0  0  0  0  0  0  0  0  0  0  0  0
  140.1650   77.4970  219.6640 C   0  0  0  0  0  0  0  0  0  0  0  0
  142.9109   78.5287  218.5701 H   0  0  0  0  0  0  0  0  0  0  0  0
  141.7984   78.9567  217.2263 H   0  0  0  0  0  0  0  0  0  0  0  0
  143.4857   79.5730  217.2263 H   0  0  0  0  0  0  0  0  0  0  0  0
  143.0128   80.9486  219.2114 H   0  0  0  0  0  0  0  0  0  0  0  0
  141.8302   81.3242  217.9229 H   0  0  0  0  0  0  0  0  0  0  0  0
  143.6709   79.1593  221.7988 H   0  0  0  0  0  0  0  0  0  0  0  0
  144.5154   80.2886  223.8260 H   0  0  0  0  0  0  0  0  0  0  0  0
  143.0571   81.8585  225.0729 H   0  0  0  0  0  0  0  0  0  0  0  0
  140.7392   82.2979  224.2738 H   0  0  0  0  0  0  0  0  0  0  0  0
  139.8992   81.1629  222.2321 H   0  0  0  0  0  0  0  0  0  0  0  0
  142.2008   77.6444  220.4411 H   0  0  0  0  0  0  0  0  0  0  0  0
  141.3631   77.8311  222.8145 H   0  0  0  0  0  0  0  0  0  0  0  0
  139.6984   77.6150  222.1775 H   0  0  0  0  0  0  0  0  0  0  0  0
  142.0438   75.6482  221.8597 H   0  0  0  0  0  0  0  0  0  0  0  0
  140.6149   75.4164  222.9025 H   0  0  0  0  0  0  0  0  0  0  0  0
  139.4627   73.9222  223.0725 H   0  0  0  0  0  0  0  0  0  0  0  0
  137.4390   73.0740  223.0880 H   0  0  0  0  0  0  0  0  0  0  0  0
  137.3410   73.1410  221.3680 H   0  0  0  0  0  0  0  0  0  0  0  0
  140.4897   72.1210  220.9183 H   0  0  0  0  0  0  0  0  0  0  0  0
  141.1399   72.4663  222.5779 H   0  0  0  0  0  0  0  0  0  0  0  0
  138.5987   70.9791  222.3822 H   0  0  0  0  0  0  0  0  0  0  0  0
  140.1344   70.1438  221.8789 H   0  0  0  0  0  0  0  0  0  0  0  0
  140.9906   72.6054  224.0310 H   0  0  0  0  0  0  0  0  0  0  0  0
  141.6015   72.4014  226.4048 H   0  0  0  0  0  0  0  0  0  0  0  0
  141.6114   71.1480  228.4311 H   0  0  0  0  0  0  0  0  0  0  0  0
  141.0002   69.0844  229.6869 H   0  0  0  0  0  0  0  0  0  0  0  0
  139.7801   67.2571  228.5193 H   0  0  0  0  0  0  0  0  0  0  0  0
  139.1588   67.4644  226.1239 H   0  0  0  0  0  0  0  0  0  0  0  0
  139.1615   68.7492  224.0874 H   0  0  0  0  0  0  0  0  0  0  0  0
  141.3146   75.8002  219.0933 H   0  0  0  0  0  0  0  0  0  0  0  0
  139.5216   75.6330  218.8898 H   0  0  0  0  0  0  0  0  0  0  0  0
  140.3511   77.9825  218.6947 H   0  0  0  0  0  0  0  0  0  0  0  0
  139.1423   77.7474  219.9823 H   0  0  0  0  0  0  0  0  0  0  0  0
  1  2  1  0
  2  3  1  0
  3  4  2  0
  3  5  1  0
  5  6  1  0
  6  7  2  0
  7  8  1  0
  8  9  2  0
  9 10  1  0
 10 11  2  0
  5 12  1  0
 12 13  1  0
 13 14  1  0
 14 15  1  0
 15 16  1  0
 16 17  2  0
 16 18  1  0
 18 19  1  0
 18 20  1  0
 20 21  1  0
 21 22  1  0
 22 23  2  0
 23 24  1  0
 24 25  2  0
 25 26  1  0
 26 27  2  0
 27 28  1  0
 28 29  2  0
 29 30  1  0
 30 31  2  0
 15 32  1  0
 32 33  1  0
 11  6  1  0
 33 12  1  0
 31 22  1  0
 30 25  1  0
  1 34  1  0
  1 35  1  0
  1 36  1  0
  2 37  1  0
  2 38  1  0
  7 39  1  0
  8 40  1  0
  9 41  1  0
 10 42  1  0
 11 43  1  0
 12 44  1  0
 13 45  1  0
 13 46  1  0
 14 47  1  0
 14 48  1  0
 18 49  1  1
 19 50  1  0
 19 51  1  0
 20 52  1  0
 20 53  1  0
 21 54  1  0
 21 55  1  0
 23 56  1  0
 24 57  1  0
 26 58  1  0
 27 59  1  0
 28 60  1  0
 29 61  1  0
 31 62  1  0
 32 63  1  0
 32 64  1  0
 33 65  1  0
 33 66  1  0
M  END
>  <smiles>  (27) 
CCC(=O)N(c1ccccc1)C1CCN(C(=O)[C@@H](N)CCc2ccc3ccccc3c2)CC1

>  <score_type>  (27) 
oracle

>  <origin>  (27) 
autodockgpu

>  <m_score__min__energy>  (27) 
-9.3800000000000008

>  <m_primary>  (27) 
energy

>  <rmsd>  (27) 
3.1758017282775537

>  <m_score__min__rmsd>  (27) 
3.1758017282775537

>  <meeko>  (27) 
{"free_energy": -8.66, "intermolecular_energy": -11.34, "internal_energy": -2.28, "cluster_size": 38, "cluster_id": 3, "rank_in_cluster": 6}

>  <energy>  (27) 
-8.5

>  <cluster_rmsd>  (27) 
1.93

>  <cluster>  (27) 
3

$$$$

     RDKit          3D

 66 69  0  0  0  0  0  0  0  0999 V2000
  137.7680   80.5740  224.0370 C   0  0  0  0  0  0  0  0  0  0  0  0
  137.3690   79.3210  223.2790 C   0  0  0  0  0  0  0  0  0  0  0  0
  138.3460   79.1080  222.1750 C   0  0  0  0  0  0  0  0  0  0  0  0
  138.0070   79.4070  220.9830 O   0  0  0  0  0  0  0  0  0  0  0  0
  139.6410   78.5770  222.4470 N   0  0  0  0  0  0  0  0  0  0  0  0
  140.6500   79.4520  222.9000 C   0  0  0  0  0  0  0  0  0  0  0  0
  140.6570   80.7380  222.3660 C   0  0  0  0  0  0  0  0  0  0  0  0
  141.6050   81.6600  222.7490 C   0  0  0  0  0  0  0  0  0  0  0  0
  142.5670   81.3150  223.6740 C   0  0  0  0  0  0  0  0  0  0  0  0
  142.5760   80.0390  224.2180 C   0  0  0  0  0  0  0  0  0  0  0  0
  141.6150   79.1170  223.8250 C   0  0  0  0  0  0  0  0  0  0  0  0
  139.8880   77.1830  222.2600 C   0  0  0  0  0  0  0  0  0  0  0  0
  138.6910   76.4080  221.8150 C   0  0  0  0  0  0  0  0  0  0  0  0
  138.9680   74.9070  221.9760 C   0  0  0  0  0  0  0  0  0  0  0  0
  140.1790   74.5930  221.2230 N   0  0  0  0  0  0  0  0  0  0  0  0
  140.2920   73.4650  220.3760 C   0  0  0  0  0  0  0  0  0  0  0  0
  141.3410   73.2220  219.7020 O   0  0  0  0  0  0  0  0  0  0  0  0
  139.1890   72.4550  220.1940 C   0  0  1  0  0  0  0  0  0  0  0  0
  139.6230   71.4980  219.1720 N   0  0  0  0  0  0  0  0  0  0  0  0
  139.0520   71.7820  221.5290 C   0  0  0  0  0  0  0  0  0  0  0  0
  140.3560   71.6140  222.2000 C   0  0  0  0  0  0  0  0  0  0  0  0
  140.2240   71.0530  223.5540 C   0  0  0  0  0  0  0  0  0  0  0  0
  139.5860   69.8370  223.6880 C   0  0  0  0  0  0  0  0  0  0  0  0
  139.4280   69.1940  224.8990 C   0  0  0  0  0  0  0  0  0  0  0  0
  139.9260   69.7840  226.0410 C   0  0  0  0  0  0  0  0  0  0  0  0
  139.7700   69.1460  227.2540 C   0  0  0  0  0  0  0  0  0  0  0  0
  140.2680   69.7350  228.3980 C   0  0  0  0  0  0  0  0  0  0  0  0
  140.9170   70.9650  228.3030 C   0  0  0  0  0  0  0  0  0  0  0  0
  141.0750   71.6070  227.0840 C   0  0  0  0  0  0  0  0  0  0  0  0
  140.5690   71.0040  225.9380 C   0  0  0  0  0  0  0  0  0  0  0  0
  140.7180   71.6340  224.7020 C   0  0  0  0  0  0  0  0  0  0  0  0
  141.3490   75.4530  221.3430 C   0  0  0  0  0  0  0  0  0  0  0  0
  140.9820   76.9010  221.2260 C   0  0  0  0  0  0  0  0  0  0  0  0
  137.7072   80.3832  225.1186 H   0  0  0  0  0  0  0  0  0  0  0  0
  138.7988   80.8509  223.7709 H   0  0  0  0  0  0  0  0  0  0  0  0
  137.0872   81.3960  223.7709 H   0  0  0  0  0  0  0  0  0  0  0  0
  137.3818   78.4560  223.9584 H   0  0  0  0  0  0  0  0  0  0  0  0
  136.3545   79.4342  222.8692 H   0  0  0  0  0  0  0  0  0  0  0  0
  139.8934   81.0216  221.6268 H   0  0  0  0  0  0  0  0  0  0  0  0
  141.5947   82.6716  222.3170 H   0  0  0  0  0  0  0  0  0  0  0  0
  143.3260   82.0500  223.9801 H   0  0  0  0  0  0  0  0  0  0  0  0
  143.3409   79.7589  224.9573 H   0  0  0  0  0  0  0  0  0  0  0  0
  141.6241   78.1057  224.2578 H   0  0  0  0  0  0  0  0  0  0  0  0
  140.1979   76.8572  223.2639 H   0  0  0  0  0  0  0  0  0  0  0  0
  137.8226   76.6890  222.4289 H   0  0  0  0  0  0  0  0  0  0  0  0
  138.4796   76.6318  220.7590 H   0  0  0  0  0  0  0  0  0  0  0  0
  139.1153   74.6656  223.0390 H   0  0  0  0  0  0  0  0  0  0  0  0
  138.1186   74.3173  221.6008 H   0  0  0  0  0  0  0  0  0  0  0  0
  138.2326   72.8947  219.8747 H   0  0  0  0  0  0  0  0  0  0  0  0
  140.1340   71.9660  218.4070 H   0  0  0  0  0  0  0  0  0  0  0  0
  140.1160   70.6880  219.5640 H   0  0  0  0  0  0  0  0  0  0  0  0
  138.3992   72.3932  222.1695 H   0  0  0  0  0  0  0  0  0  0  0  0
  138.6239   70.7824  221.3632 H   0  0  0  0  0  0  0  0  0  0  0  0
  140.9787   70.9371  221.5967 H   0  0  0  0  0  0  0  0  0  0  0  0
  140.8149   72.6093  222.2935 H   0  0  0  0  0  0  0  0  0  0  0  0
  139.1831   69.3559  222.7845 H   0  0  0  0  0  0  0  0  0  0  0  0
  138.9118   68.2241  224.9521 H   0  0  0  0  0  0  0  0  0  0  0  0
  139.2533   68.1765  227.3087 H   0  0  0  0  0  0  0  0  0  0  0  0
  140.1542   69.2398  229.3736 H   0  0  0  0  0  0  0  0  0  0  0  0
  141.3124   71.4366  229.2147 H   0  0  0  0  0  0  0  0  0  0  0  0
  141.5916   72.5763  227.0248 H   0  0  0  0  0  0  0  0  0  0  0  0
  141.2345   72.6034  224.6433 H   0  0  0  0  0  0  0  0  0  0  0  0
  141.8193   75.2817  222.3225 H   0  0  0  0  0  0  0  0  0  0  0  0
  142.0432   75.2064  220.5261 H   0  0  0  0  0  0  0  0  0  0  0  0
  141.8618   77.5292  221.4292 H   0  0  0  0  0  0  0  0  0  0  0  0
  140.6244   77.1295  220.2111 H   0  0  0  0  0  0  0  0  0  0  0  0
  1  2  1  0
  2  3  1  0
  3  4  2  0
  3  5  1  0
  5  6  1  0
  6  7  2  0
  7  8  1  0
  8  9  2  0
  9 10  1  0
 10 11  2  0
  5 12  1  0
 12 13  1  0
 13 14  1  0
 14 15  1  0
 15 16  1  0
 16 17  2  0
 16 18  1  0
 18 19  1  0
 18 20  1  0
 20 21  1  0
 21 22  1  0
 22 23  2  0
 23 24  1  0
 24 25  2  0
 25 26  1  0
 26 27  2  0
 27 28  1  0
 28 29  2  0
 29 30  1  0
 30 31  2  0
 15 32  1  0
 32 33  1  0
 11  6  1  0
 33 12  1  0
 31 22  1  0
 30 25  1  0
  1 34  1  0
  1 35  1  0
  1 36  1  0
  2 37  1  0
  2 38  1  0
  7 39  1  0
  8 40  1  0
  9 41  1  0
 10 42  1  0
 11 43  1  0
 12 44  1  0
 13 45  1  0
 13 46  1  0
 14 47  1  0
 14 48  1  0
 18 49  1  6
 19 50  1  0
 19 51  1  0
 20 52  1  0
 20 53  1  0
 21 54  1  0
 21 55  1  0
 23 56  1  0
 24 57  1  0
 26 58  1  0
 27 59  1  0
 28 60  1  0
 29 61  1  0
 31 62  1  0
 32 63  1  0
 32 64  1  0
 33 65  1  0
 33 66  1  0
M  END
>  <smiles>  (28) 
CCC(=O)N(c1ccccc1)C1CCN(C(=O)[C@@H](N)CCc2ccc3ccccc3c2)CC1

>  <score_type>  (28) 
oracle

>  <origin>  (28) 
autodockgpu

>  <m_score__min__energy>  (28) 
-9.3800000000000008

>  <m_primary>  (28) 
energy

>  <rmsd>  (28) 
3.3737061966873676

>  <m_score__min__rmsd>  (28) 
3.3737061966873676

>  <meeko>  (28) 
{"free_energy": -8.17, "intermolecular_energy": -10.85, "internal_energy": -2.5, "cluster_size": 6, "cluster_id": 1, "rank_in_cluster": 6}

>  <energy>  (28) 
-8.5

>  <cluster_rmsd>  (28) 
0.65

>  <cluster>  (28) 
3

$$$$

     RDKit          3D

 66 69  0  0  0  0  0  0  0  0999 V2000
  142.5900   79.9880  217.8440 C   0  0  0  0  0  0  0  0  0  0  0  0
  141.8950   80.5360  219.0770 C   0  0  0  0  0  0  0  0  0  0  0  0
  141.1220   79.4320  219.7110 C   0  0  0  0  0  0  0  0  0  0  0  0
  140.0500   79.0280  219.1540 O   0  0  0  0  0  0  0  0  0  0  0  0
  141.5750   78.8360  220.9260 N   0  0  0  0  0  0  0  0  0  0  0  0
  141.8670   79.6740  222.0220 C   0  0  0  0  0  0  0  0  0  0  0  0
  140.8710   80.5590  222.4240 C   0  0  0  0  0  0  0  0  0  0  0  0
  141.0690   81.4160  223.4850 C   0  0  0  0  0  0  0  0  0  0  0  0
  142.2680   81.4030  224.1650 C   0  0  0  0  0  0  0  0  0  0  0  0
  143.2720   80.5280  223.7790 C   0  0  0  0  0  0  0  0  0  0  0  0
  143.0630   79.6690  222.7090 C   0  0  0  0  0  0  0  0  0  0  0  0
  141.7190   77.4180  221.0080 C   0  0  0  0  0  0  0  0  0  0  0  0
  140.4370   76.6890  221.2420 C   0  0  0  0  0  0  0  0  0  0  0  0
  140.7430   75.2410  221.6510 C   0  0  0  0  0  0  0  0  0  0  0  0
  141.5690   74.6460  220.6040 N   0  0  0  0  0  0  0  0  0  0  0  0
  141.3390   73.3530  220.0790 C   0  0  0  0  0  0  0  0  0  0  0  0
  142.0470   72.8610  219.1460 O   0  0  0  0  0  0  0  0  0  0  0  0
  140.2430   72.4440  220.5710 C   0  0  1  0  0  0  0  0  0  0  0  0
  140.1670   71.2990  219.6590 N   0  0  0  0  0  0  0  0  0  0  0  0
  140.6840   72.0060  221.9380 C   0  0  0  0  0  0  0  0  0  0  0  0
  139.6730   71.1600  222.6010 C   0  0  0  0  0  0  0  0  0  0  0  0
  140.0250   70.8510  223.9960 C   0  0  0  0  0  0  0  0  0  0  0  0
  140.6970   71.8150  224.7190 C   0  0  0  0  0  0  0  0  0  0  0  0
  141.0540   71.6560  226.0420 C   0  0  0  0  0  0  0  0  0  0  0  0
  140.7290   70.4830  226.6890 C   0  0  0  0  0  0  0  0  0  0  0  0
  141.0840   70.3190  228.0120 C   0  0  0  0  0  0  0  0  0  0  0  0
  140.7590   69.1450  228.6600 C   0  0  0  0  0  0  0  0  0  0  0  0
  140.0800   68.1480  227.9620 C   0  0  0  0  0  0  0  0  0  0  0  0
  139.7230   68.3110  226.6320 C   0  0  0  0  0  0  0  0  0  0  0  0
  140.0560   69.4980  225.9890 C   0  0  0  0  0  0  0  0  0  0  0  0
  139.7040   69.6810  224.6520 C   0  0  0  0  0  0  0  0  0  0  0  0
  142.7020   75.3890  220.0680 C   0  0  0  0  0  0  0  0  0  0  0  0
  142.3300   76.8040  219.7450 C   0  0  0  0  0  0  0  0  0  0  0  0
  143.4195   79.3339  218.1509 H   0  0  0  0  0  0  0  0  0  0  0  0
  141.8710   79.4112  217.2437 H   0  0  0  0  0  0  0  0  0  0  0  0
  142.9832   80.8217  217.2437 H   0  0  0  0  0  0  0  0  0  0  0  0
  142.6437   80.9199  219.7856 H   0  0  0  0  0  0  0  0  0  0  0  0
  141.2195   81.3575  218.7962 H   0  0  0  0  0  0  0  0  0  0  0  0
  139.9112   80.5747  221.8868 H   0  0  0  0  0  0  0  0  0  0  0  0
  140.2711   82.1096  223.7889 H   0  0  0  0  0  0  0  0  0  0  0  0
  142.4281   82.0857  225.0125 H   0  0  0  0  0  0  0  0  0  0  0  0
  144.2304   80.5147  224.3187 H   0  0  0  0  0  0  0  0  0  0  0  0
  143.8611   78.9756  222.4051 H   0  0  0  0  0  0  0  0  0  0  0  0
  142.3872   77.2939  221.8729 H   0  0  0  0  0  0  0  0  0  0  0  0
  139.8731   77.1861  222.0450 H   0  0  0  0  0  0  0  0  0  0  0  0
  139.8380   76.6922  220.3194 H   0  0  0  0  0  0  0  0  0  0  0  0
  141.2858   75.2292  222.6077 H   0  0  0  0  0  0  0  0  0  0  0  0
  139.8100   74.6714  221.7743 H   0  0  0  0  0  0  0  0  0  0  0  0
  139.2536   72.9231  220.6103 H   0  0  0  0  0  0  0  0  0  0  0  0
  139.5490   71.4960  218.8550 H   0  0  0  0  0  0  0  0  0  0  0  0
  141.0890   70.9360  219.3930 H   0  0  0  0  0  0  0  0  0  0  0  0
  141.6187   71.4339  221.8431 H   0  0  0  0  0  0  0  0  0  0  0  0
  140.8290   72.9066  222.5527 H   0  0  0  0  0  0  0  0  0  0  0  0
  138.7082   71.6882  222.5892 H   0  0  0  0  0  0  0  0  0  0  0  0
  139.6197   70.2090  222.0508 H   0  0  0  0  0  0  0  0  0  0  0  0
  140.9611   72.7568  224.2157 H   0  0  0  0  0  0  0  0  0  0  0  0
  141.5912   72.4551  226.5739 H   0  0  0  0  0  0  0  0  0  0  0  0
  141.6213   71.1170  228.5454 H   0  0  0  0  0  0  0  0  0  0  0  0
  141.0326   68.9977  229.7152 H   0  0  0  0  0  0  0  0  0  0  0  0
  139.8216   67.2112  228.4774 H   0  0  0  0  0  0  0  0  0  0  0  0
  139.1858   67.5152  226.0951 H   0  0  0  0  0  0  0  0  0  0  0  0
  139.1657   68.8854  224.1160 H   0  0  0  0  0  0  0  0  0  0  0  0
  143.5108   75.3937  220.8135 H   0  0  0  0  0  0  0  0  0  0  0  0
  143.0272   74.8979  219.1390 H   0  0  0  0  0  0  0  0  0  0  0  0
  143.2255   77.3694  219.4477 H   0  0  0  0  0  0  0  0  0  0  0  0
  141.6123   76.8359  218.9120 H   0  0  0  0  0  0  0  0  0  0  0  0
  1  2  1  0
  2  3  1  0
  3  4  2  0
  3  5  1  0
  5  6  1  0
  6  7  2  0
  7  8  1  0
  8  9  2  0
  9 10  1  0
 10 11  2  0
  5 12  1  0
 12 13  1  0
 13 14  1  0
 14 15  1  0
 15 16  1  0
 16 17  2  0
 16 18  1  0
 18 19  1  0
 18 20  1  0
 20 21  1  0
 21 22  1  0
 22 23  2  0
 23 24  1  0
 24 25  2  0
 25 26  1  0
 26 27  2  0
 27 28  1  0
 28 29  2  0
 29 30  1  0
 30 31  2  0
 15 32  1  0
 32 33  1  0
 11  6  1  0
 33 12  1  0
 31 22  1  0
 30 25  1  0
  1 34  1  0
  1 35  1  0
  1 36  1  0
  2 37  1  0
  2 38  1  0
  7 39  1  0
  8 40  1  0
  9 41  1  0
 10 42  1  0
 11 43  1  0
 12 44  1  0
 13 45  1  0
 13 46  1  0
 14 47  1  0
 14 48  1  0
 18 49  1  1
 19 50  1  0
 19 51  1  0
 20 52  1  0
 20 53  1  0
 21 54  1  0
 21 55  1  0
 23 56  1  0
 24 57  1  0
 26 58  1  0
 27 59  1  0
 28 60  1  0
 29 61  1  0
 31 62  1  0
 32 63  1  0
 32 64  1  0
 33 65  1  0
 33 66  1  0
M  END
>  <smiles>  (29) 
CCC(=O)N(c1ccccc1)C1CCN(C(=O)[C@@H](N)CCc2ccc3ccccc3c2)CC1

>  <score_type>  (29) 
oracle

>  <origin>  (29) 
autodockgpu

>  <m_score__min__energy>  (29) 
-9.3800000000000008

>  <m_primary>  (29) 
energy

>  <rmsd>  (29) 
3.2541936534955456

>  <m_score__min__rmsd>  (29) 
3.2541936534955456

>  <meeko>  (29) 
{"free_energy": -8.59, "intermolecular_energy": -11.28, "internal_energy": -2.3, "cluster_size": 38, "cluster_id": 3, "rank_in_cluster": 13}

>  <energy>  (29) 
-8.49

>  <cluster_rmsd>  (29) 
1.57

>  <cluster>  (29) 
3

$$$$

     RDKit          3D

 66 69  0  0  0  0  0  0  0  0999 V2000
  142.9430   78.4090  217.8250 C   0  0  0  0  0  0  0  0  0  0  0  0
  141.7170   79.2870  217.9990 C   0  0  0  0  0  0  0  0  0  0  0  0
  141.8140   79.9740  219.3170 C   0  0  0  0  0  0  0  0  0  0  0  0
  142.1280   81.2090  219.3490 O   0  0  0  0  0  0  0  0  0  0  0  0
  141.5610   79.2600  220.5260 N   0  0  0  0  0  0  0  0  0  0  0  0
  141.6750   79.9460  221.7530 C   0  0  0  0  0  0  0  0  0  0  0  0
  142.9240   79.9390  222.3680 C   0  0  0  0  0  0  0  0  0  0  0  0
  143.1270   80.5830  223.5680 C   0  0  0  0  0  0  0  0  0  0  0  0
  142.0850   81.2460  224.1790 C   0  0  0  0  0  0  0  0  0  0  0  0
  140.8330   81.2650  223.5810 C   0  0  0  0  0  0  0  0  0  0  0  0
  140.6390   80.6130  222.3710 C   0  0  0  0  0  0  0  0  0  0  0  0
  141.2000   77.8800  220.4700 C   0  0  0  0  0  0  0  0  0  0  0  0
  141.0760   77.2290  221.8100 C   0  0  0  0  0  0  0  0  0  0  0  0
  141.0300   75.7050  221.6320 C   0  0  0  0  0  0  0  0  0  0  0  0
  139.9260   75.3940  220.7290 N   0  0  0  0  0  0  0  0  0  0  0  0
  138.9990   74.3530  220.9700 C   0  0  0  0  0  0  0  0  0  0  0  0
  138.0230   74.1150  220.1910 O   0  0  0  0  0  0  0  0  0  0  0  0
  139.0780   73.4360  222.1630 C   0  0  1  0  0  0  0  0  0  0  0  0
  137.7510   72.8470  222.3650 N   0  0  0  0  0  0  0  0  0  0  0  0
  140.0750   72.3820  221.7780 C   0  0  0  0  0  0  0  0  0  0  0  0
  139.5690   71.0200  222.0390 C   0  0  0  0  0  0  0  0  0  0  0  0
  139.7110   70.6280  223.4490 C   0  0  0  0  0  0  0  0  0  0  0  0
  139.2570   69.3780  223.8200 C   0  0  0  0  0  0  0  0  0  0  0  0
  139.3630   68.8850  225.1040 C   0  0  0  0  0  0  0  0  0  0  0  0
  139.9490   69.6660  226.0760 C   0  0  0  0  0  0  0  0  0  0  0  0
  140.0570   69.1770  227.3620 C   0  0  0  0  0  0  0  0  0  0  0  0
  140.6440   69.9580  228.3370 C   0  0  0  0  0  0  0  0  0  0  0  0
  141.1140   71.2260  228.0010 C   0  0  0  0  0  0  0  0  0  0  0  0
  141.0070   71.7180  226.7090 C   0  0  0  0  0  0  0  0  0  0  0  0
  140.4130   70.9230  225.7350 C   0  0  0  0  0  0  0  0  0  0  0  0
  140.2960   71.4000  224.4300 C   0  0  0  0  0  0  0  0  0  0  0  0
  139.7540   76.1650  219.5030 C   0  0  0  0  0  0  0  0  0  0  0  0
  139.8660   77.6370  219.7580 C   0  0  0  0  0  0  0  0  0  0  0  0
  143.3358   78.1277  218.8132 H   0  0  0  0  0  0  0  0  0  0  0  0
  142.6679   77.5013  217.2678 H   0  0  0  0  0  0  0  0  0  0  0  0
  143.7138   78.9617  217.2678 H   0  0  0  0  0  0  0  0  0  0  0  0
  141.6776   80.0341  217.1926 H   0  0  0  0  0  0  0  0  0  0  0  0
  140.8044   78.6742  217.9584 H   0  0  0  0  0  0  0  0  0  0  0  0
  143.7612   79.4111  221.8881 H   0  0  0  0  0  0  0  0  0  0  0  0
  144.1210   80.5682  224.0389 H   0  0  0  0  0  0  0  0  0  0  0  0
  142.2453   81.7591  225.1387 H   0  0  0  0  0  0  0  0  0  0  0  0
  139.9981   81.7943  224.0635 H   0  0  0  0  0  0  0  0  0  0  0  0
  139.6455   80.6288  221.8991 H   0  0  0  0  0  0  0  0  0  0  0  0
  142.0356   77.4360  219.9090 H   0  0  0  0  0  0  0  0  0  0  0  0
  141.9420   77.5002  222.4317 H   0  0  0  0  0  0  0  0  0  0  0  0
  140.1529   77.5704  222.3012 H   0  0  0  0  0  0  0  0  0  0  0  0
  141.9775   75.3499  221.2006 H   0  0  0  0  0  0  0  0  0  0  0  0
  140.8834   75.2092  222.6029 H   0  0  0  0  0  0  0  0  0  0  0  0
  139.3777   73.9419  223.0926 H   0  0  0  0  0  0  0  0  0  0  0  0
  137.3700   73.0820  223.2950 H   0  0  0  0  0  0  0  0  0  0  0  0
  137.1040   73.0400  221.5920 H   0  0  0  0  0  0  0  0  0  0  0  0
  140.2974   72.4786  220.7051 H   0  0  0  0  0  0  0  0  0  0  0  0
  140.9789   72.5310  222.3869 H   0  0  0  0  0  0  0  0  0  0  0  0
  138.5037   70.9812  221.7675 H   0  0  0  0  0  0  0  0  0  0  0  0
  140.1655   70.3201  221.4354 H   0  0  0  0  0  0  0  0  0  0  0  0
  138.7875   68.7437  223.0537 H   0  0  0  0  0  0  0  0  0  0  0  0
  138.9846   67.8815  225.3486 H   0  0  0  0  0  0  0  0  0  0  0  0
  139.6787   68.1738  227.6078 H   0  0  0  0  0  0  0  0  0  0  0  0
  140.7396   69.5839  229.3670 H   0  0  0  0  0  0  0  0  0  0  0  0
  141.5800   71.8503  228.7776 H   0  0  0  0  0  0  0  0  0  0  0  0
  141.3856   72.7201  226.4589 H   0  0  0  0  0  0  0  0  0  0  0  0
  140.6743   72.4024  224.1807 H   0  0  0  0  0  0  0  0  0  0  0  0
  140.5297   75.8674  218.7821 H   0  0  0  0  0  0  0  0  0  0  0  0
  138.7492   75.9598  219.1052 H   0  0  0  0  0  0  0  0  0  0  0  0
  139.8432   78.1861  218.8051 H   0  0  0  0  0  0  0  0  0  0  0  0
  139.0268   77.9883  220.3764 H   0  0  0  0  0  0  0  0  0  0  0  0
  1  2  1  0
  2  3  1  0
  3  4  2  0
  3  5  1  0
  5  6  1  0
  6  7  2  0
  7  8  1  0
  8  9  2  0
  9 10  1  0
 10 11  2  0
  5 12  1  0
 12 13  1  0
 13 14  1  0
 14 15  1  0
 15 16  1  0
 16 17  2  0
 16 18  1  0
 18 19  1  0
 18 20  1  0
 20 21  1  0
 21 22  1  0
 22 23  2  0
 23 24  1  0
 24 25  2  0
 25 26  1  0
 26 27  2  0
 27 28  1  0
 28 29  2  0
 29 30  1  0
 30 31  2  0
 15 32  1  0
 32 33  1  0
 11  6  1  0
 33 12  1  0
 31 22  1  0
 30 25  1  0
  1 34  1  0
  1 35  1  0
  1 36  1  0
  2 37  1  0
  2 38  1  0
  7 39  1  0
  8 40  1  0
  9 41  1  0
 10 42  1  0
 11 43  1  0
 12 44  1  0
 13 45  1  0
 13 46  1  0
 14 47  1  0
 14 48  1  0
 18 49  1  1
 19 50  1  0
 19 51  1  0
 20 52  1  0
 20 53  1  0
 21 54  1  0
 21 55  1  0
 23 56  1  0
 24 57  1  0
 26 58  1  0
 27 59  1  0
 28 60  1  0
 29 61  1  0
 31 62  1  0
 32 63  1  0
 32 64  1  0
 33 65  1  0
 33 66  1  0
M  END
>  <smiles>  (30) 
CCC(=O)N(c1ccccc1)C1CCN(C(=O)[C@@H](N)CCc2ccc3ccccc3c2)CC1

>  <score_type>  (30) 
oracle

>  <origin>  (30) 
autodockgpu

>  <m_score__min__energy>  (30) 
-9.3800000000000008

>  <m_primary>  (30) 
energy

>  <rmsd>  (30) 
3.553873863266063

>  <m_score__min__rmsd>  (30) 
3.553873863266063

>  <meeko>  (30) 
{"free_energy": -8.7, "intermolecular_energy": -11.39, "internal_energy": -2.21, "cluster_size": 38, "cluster_id": 3, "rank_in_cluster": 3}

>  <energy>  (30) 
-8.48

>  <cluster_rmsd>  (30) 
1.39

>  <cluster>  (30) 
3

$$$$

     RDKit          3D

 66 69  0  0  0  0  0  0  0  0999 V2000
  142.2100   80.7250  218.5030 C   0  0  0  0  0  0  0  0  0  0  0  0
  142.1500   79.2780  218.9590 C   0  0  0  0  0  0  0  0  0  0  0  0
  140.9750   79.1180  219.8610 C   0  0  0  0  0  0  0  0  0  0  0  0
  139.8170   79.4240  219.4270 O   0  0  0  0  0  0  0  0  0  0  0  0
  141.1450   78.6300  221.1910 N   0  0  0  0  0  0  0  0  0  0  0  0
  141.5080   79.5410  222.2040 C   0  0  0  0  0  0  0  0  0  0  0  0
  142.8570   79.6070  222.5410 C   0  0  0  0  0  0  0  0  0  0  0  0
  143.3020   80.4680  223.5200 C   0  0  0  0  0  0  0  0  0  0  0  0
  142.4070   81.2800  224.1810 C   0  0  0  0  0  0  0  0  0  0  0  0
  141.0580   81.2290  223.8590 C   0  0  0  0  0  0  0  0  0  0  0  0
  140.6200   80.3580  222.8710 C   0  0  0  0  0  0  0  0  0  0  0  0
  140.9440   77.2440  221.4670 C   0  0  0  0  0  0  0  0  0  0  0  0
  139.5220   76.8000  221.3510 C   0  0  0  0  0  0  0  0  0  0  0  0
  139.3690   75.4130  221.9900 C   0  0  0  0  0  0  0  0  0  0  0  0
  140.3150   74.5130  221.3370 N   0  0  0  0  0  0  0  0  0  0  0  0
  139.9720   73.2100  220.9080 C   0  0  0  0  0  0  0  0  0  0  0  0
  140.7970   72.4490  220.3120 O   0  0  0  0  0  0  0  0  0  0  0  0
  138.6080   72.6040  221.1140 C   0  0  1  0  0  0  0  0  0  0  0  0
  138.4880   71.4530  220.2140 N   0  0  0  0  0  0  0  0  0  0  0  0
  138.5920   72.1600  222.5490 C   0  0  0  0  0  0  0  0  0  0  0  0
  139.9540   71.9650  223.0830 C   0  0  0  0  0  0  0  0  0  0  0  0
  139.9930   70.9820  224.1770 C   0  0  0  0  0  0  0  0  0  0  0  0
  139.4950   69.7200  223.9280 C   0  0  0  0  0  0  0  0  0  0  0  0
  139.5060   68.7040  224.8620 C   0  0  0  0  0  0  0  0  0  0  0  0
  140.0350   68.9470  226.1110 C   0  0  0  0  0  0  0  0  0  0  0  0
  140.0480   67.9350  227.0480 C   0  0  0  0  0  0  0  0  0  0  0  0
  140.5780   68.1760  228.2990 C   0  0  0  0  0  0  0  0  0  0  0  0
  141.0890   69.4400  228.5890 C   0  0  0  0  0  0  0  0  0  0  0  0
  141.0780   70.4570  227.6470 C   0  0  0  0  0  0  0  0  0  0  0  0
  140.5410   70.2030  226.3900 C   0  0  0  0  0  0  0  0  0  0  0  0
  140.5210   71.2140  225.4300 C   0  0  0  0  0  0  0  0  0  0  0  0
  141.6900   74.9440  221.1180 C   0  0  0  0  0  0  0  0  0  0  0  0
  141.7490   76.3260  220.5420 C   0  0  0  0  0  0  0  0  0  0  0  0
  142.2374   81.3856  219.3821 H   0  0  0  0  0  0  0  0  0  0  0  0
  143.1154   80.8816  217.8983 H   0  0  0  0  0  0  0  0  0  0  0  0
  141.3207   80.9561  217.8983 H   0  0  0  0  0  0  0  0  0  0  0  0
  142.0410   78.6175  218.0861 H   0  0  0  0  0  0  0  0  0  0  0  0
  143.0747   79.0107  219.4915 H   0  0  0  0  0  0  0  0  0  0  0  0
  143.5784   78.9621  222.0178 H   0  0  0  0  0  0  0  0  0  0  0  0
  144.3716   80.5070  223.7737 H   0  0  0  0  0  0  0  0  0  0  0  0
  142.7610   81.9679  224.9630 H   0  0  0  0  0  0  0  0  0  0  0  0
  140.3395   81.8756  224.3841 H   0  0  0  0  0  0  0  0  0  0  0  0
  139.5505   80.3191  222.6169 H   0  0  0  0  0  0  0  0  0  0  0  0
  141.2840   77.1552  222.5094 H   0  0  0  0  0  0  0  0  0  0  0  0
  138.8697   77.5176  221.8702 H   0  0  0  0  0  0  0  0  0  0  0  0
  139.2375   76.7497  220.2896 H   0  0  0  0  0  0  0  0  0  0  0  0
  139.5894   75.4706  223.0662 H   0  0  0  0  0  0  0  0  0  0  0  0
  138.3401   75.0444  221.8656 H   0  0  0  0  0  0  0  0  0  0  0  0
  137.7789   73.2961  220.9053 H   0  0  0  0  0  0  0  0  0  0  0  0
  138.1580   71.7380  219.2780 H   0  0  0  0  0  0  0  0  0  0  0  0
  139.3300   70.8680  220.1960 H   0  0  0  0  0  0  0  0  0  0  0  0
  138.0805   72.9249  223.1517 H   0  0  0  0  0  0  0  0  0  0  0  0
  138.0658   71.1954  222.6002 H   0  0  0  0  0  0  0  0  0  0  0  0
  140.6054   71.6136  222.2692 H   0  0  0  0  0  0  0  0  0  0  0  0
  140.2968   72.9292  223.4866 H   0  0  0  0  0  0  0  0  0  0  0  0
  139.0679   69.5131  222.9357 H   0  0  0  0  0  0  0  0  0  0  0  0
  139.0979   67.7134  224.6127 H   0  0  0  0  0  0  0  0  0  0  0  0
  139.6394   66.9442  226.8002 H   0  0  0  0  0  0  0  0  0  0  0  0
  140.5970   67.3803  229.0582 H   0  0  0  0  0  0  0  0  0  0  0  0
  141.5099   69.6346  229.5865 H   0  0  0  0  0  0  0  0  0  0  0  0
  141.4874   71.4486  227.8901 H   0  0  0  0  0  0  0  0  0  0  0  0
  140.9300   72.2055  225.6741 H   0  0  0  0  0  0  0  0  0  0  0  0
  142.2246   74.9347  222.0793 H   0  0  0  0  0  0  0  0  0  0  0  0
  142.1578   74.2523  220.4020 H   0  0  0  0  0  0  0  0  0  0  0  0
  142.7935   76.6672  220.4901 H   0  0  0  0  0  0  0  0  0  0  0  0
  141.3329   76.3399  219.5238 H   0  0  0  0  0  0  0  0  0  0  0  0
  1  2  1  0
  2  3  1  0
  3  4  2  0
  3  5  1  0
  5  6  1  0
  6  7  2  0
  7  8  1  0
  8  9  2  0
  9 10  1  0
 10 11  2  0
  5 12  1  0
 12 13  1  0
 13 14  1  0
 14 15  1  0
 15 16  1  0
 16 17  2  0
 16 18  1  0
 18 19  1  0
 18 20  1  0
 20 21  1  0
 21 22  1  0
 22 23  2  0
 23 24  1  0
 24 25  2  0
 25 26  1  0
 26 27  2  0
 27 28  1  0
 28 29  2  0
 29 30  1  0
 30 31  2  0
 15 32  1  0
 32 33  1  0
 11  6  1  0
 33 12  1  0
 31 22  1  0
 30 25  1  0
  1 34  1  0
  1 35  1  0
  1 36  1  0
  2 37  1  0
  2 38  1  0
  7 39  1  0
  8 40  1  0
  9 41  1  0
 10 42  1  0
 11 43  1  0
 12 44  1  0
 13 45  1  0
 13 46  1  0
 14 47  1  0
 14 48  1  0
 18 49  1  1
 19 50  1  0
 19 51  1  0
 20 52  1  0
 20 53  1  0
 21 54  1  0
 21 55  1  0
 23 56  1  0
 24 57  1  0
 26 58  1  0
 27 59  1  0
 28 60  1  0
 29 61  1  0
 31 62  1  0
 32 63  1  0
 32 64  1  0
 33 65  1  0
 33 66  1  0
M  END
>  <smiles>  (31) 
CCC(=O)N(c1ccccc1)C1CCN(C(=O)[C@@H](N)CCc2ccc3ccccc3c2)CC1

>  <score_type>  (31) 
oracle

>  <origin>  (31) 
autodockgpu

>  <m_score__min__energy>  (31) 
-9.3800000000000008

>  <m_primary>  (31) 
energy

>  <rmsd>  (31) 
3.1729647669136125

>  <m_score__min__rmsd>  (31) 
3.1729647669136125

>  <meeko>  (31) 
{"free_energy": -8.48, "intermolecular_energy": -11.16, "internal_energy": -2.39, "cluster_size": 38, "cluster_id": 3, "rank_in_cluster": 20}

>  <energy>  (31) 
-8.46

>  <cluster_rmsd>  (31) 
0.52

>  <cluster>  (31) 
3

$$$$

     RDKit          3D

 66 69  0  0  0  0  0  0  0  0999 V2000
  142.9430   77.9390  218.0010 C   0  0  0  0  0  0  0  0  0  0  0  0
  141.7830   78.9170  218.0570 C   0  0  0  0  0  0  0  0  0  0  0  0
  141.8240   79.6210  219.3680 C   0  0  0  0  0  0  0  0  0  0  0  0
  142.2010   80.8380  219.4040 O   0  0  0  0  0  0  0  0  0  0  0  0
  141.4490   78.9440  220.5660 N   0  0  0  0  0  0  0  0  0  0  0  0
  141.5260   79.6400  221.7900 C   0  0  0  0  0  0  0  0  0  0  0  0
  142.7840   79.7540  222.3740 C   0  0  0  0  0  0  0  0  0  0  0  0
  142.9540   80.4170  223.5690 C   0  0  0  0  0  0  0  0  0  0  0  0
  141.8690   80.9800  224.2040 C   0  0  0  0  0  0  0  0  0  0  0  0
  140.6060   80.8770  223.6380 C   0  0  0  0  0  0  0  0  0  0  0  0
  140.4460   80.2070  222.4330 C   0  0  0  0  0  0  0  0  0  0  0  0
  141.0050   77.5880  220.5030 C   0  0  0  0  0  0  0  0  0  0  0  0
  141.0680   76.8660  221.8090 C   0  0  0  0  0  0  0  0  0  0  0  0
  140.9050   75.3600  221.5660 C   0  0  0  0  0  0  0  0  0  0  0  0
  139.6510   75.1560  220.8470 N   0  0  0  0  0  0  0  0  0  0  0  0
  138.7190   74.1480  221.1880 C   0  0  0  0  0  0  0  0  0  0  0  0
  137.6160   74.0030  220.5740 O   0  0  0  0  0  0  0  0  0  0  0  0
  138.9420   73.1590  222.3030 C   0  0  1  0  0  0  0  0  0  0  0  0
  137.6540   72.5280  222.6070 N   0  0  0  0  0  0  0  0  0  0  0  0
  139.9080   72.1540  221.7450 C   0  0  0  0  0  0  0  0  0  0  0  0
  139.6030   70.7830  222.1980 C   0  0  0  0  0  0  0  0  0  0  0  0
  139.9550   70.5650  223.6090 C   0  0  0  0  0  0  0  0  0  0  0  0
  140.6510   71.5630  224.2610 C   0  0  0  0  0  0  0  0  0  0  0  0
  141.0100   71.4900  225.5910 C   0  0  0  0  0  0  0  0  0  0  0  0
  140.6650   70.3710  226.3190 C   0  0  0  0  0  0  0  0  0  0  0  0
  141.0230   70.2930  227.6490 C   0  0  0  0  0  0  0  0  0  0  0  0
  140.6770   69.1740  228.3790 C   0  0  0  0  0  0  0  0  0  0  0  0
  139.9750   68.1450  227.7550 C   0  0  0  0  0  0  0  0  0  0  0  0
  139.6150   68.2220  226.4180 C   0  0  0  0  0  0  0  0  0  0  0  0
  139.9680   69.3550  225.6930 C   0  0  0  0  0  0  0  0  0  0  0  0
  139.6140   69.4510  224.3470 C   0  0  0  0  0  0  0  0  0  0  0  0
  139.3240   76.0040  219.7080 C   0  0  0  0  0  0  0  0  0  0  0  0
  139.5600   77.4520  220.0140 C   0  0  0  0  0  0  0  0  0  0  0  0
  143.2524   77.6782  219.0239 H   0  0  0  0  0  0  0  0  0  0  0  0
  142.6296   77.0285  217.4693 H   0  0  0  0  0  0  0  0  0  0  0  0
  143.7874   78.4018  217.4693 H   0  0  0  0  0  0  0  0  0  0  0  0
  141.8737   79.6479  217.2400 H   0  0  0  0  0  0  0  0  0  0  0  0
  140.8298   78.3791  217.9468 H   0  0  0  0  0  0  0  0  0  0  0  0
  143.6559   79.3077  221.8734 H   0  0  0  0  0  0  0  0  0  0  0  0
  143.9558   80.4969  224.0162 H   0  0  0  0  0  0  0  0  0  0  0  0
  142.0034   81.5104  225.1582 H   0  0  0  0  0  0  0  0  0  0  0  0
  139.7363   81.3240  224.1418 H   0  0  0  0  0  0  0  0  0  0  0  0
  139.4445   80.1273  221.9851 H   0  0  0  0  0  0  0  0  0  0  0  0
  141.7095   77.1379  219.7881 H   0  0  0  0  0  0  0  0  0  0  0  0
  142.0395   77.0576  222.2880 H   0  0  0  0  0  0  0  0  0  0  0  0
  140.2604   77.2222  222.4655 H   0  0  0  0  0  0  0  0  0  0  0  0
  141.7462   74.9850  220.9645 H   0  0  0  0  0  0  0  0  0  0  0  0
  140.8920   74.8162  222.5221 H   0  0  0  0  0  0  0  0  0  0  0  0
  139.3332   73.6117  223.2261 H   0  0  0  0  0  0  0  0  0  0  0  0
  137.3320   72.7640  223.5600 H   0  0  0  0  0  0  0  0  0  0  0  0
  136.9480   72.6870  221.8800 H   0  0  0  0  0  0  0  0  0  0  0  0
  139.8573   72.1846  220.6466 H   0  0  0  0  0  0  0  0  0  0  0  0
  140.9145   72.4144  222.1044 H   0  0  0  0  0  0  0  0  0  0  0  0
  138.5256   70.6009  222.0710 H   0  0  0  0  0  0  0  0  0  0  0  0
  140.2045   70.0892  221.5923 H   0  0  0  0  0  0  0  0  0  0  0  0
  140.9334   72.4610  223.6919 H   0  0  0  0  0  0  0  0  0  0  0  0
  141.5642   72.3137  226.0645 H   0  0  0  0  0  0  0  0  0  0  0  0
  141.5791   71.1151  228.1233 H   0  0  0  0  0  0  0  0  0  0  0  0
  140.9523   69.0955  229.4411 H   0  0  0  0  0  0  0  0  0  0  0  0
  139.7003   67.2520  228.3355 H   0  0  0  0  0  0  0  0  0  0  0  0
  139.0601   67.4015  225.9395 H   0  0  0  0  0  0  0  0  0  0  0  0
  139.0578   68.6306  223.8700 H   0  0  0  0  0  0  0  0  0  0  0  0
  139.9524   75.7125  218.8535 H   0  0  0  0  0  0  0  0  0  0  0  0
  138.2575   75.8706  219.4741 H   0  0  0  0  0  0  0  0  0  0  0  0
  139.4116   78.0568  219.1073 H   0  0  0  0  0  0  0  0  0  0  0  0
  138.8557   77.8063  220.7811 H   0  0  0  0  0  0  0  0  0  0  0  0
  1  2  1  0
  2  3  1  0
  3  4  2  0
  3  5  1  0
  5  6  1  0
  6  7  2  0
  7  8  1  0
  8  9  2  0
  9 10  1  0
 10 11  2  0
  5 12  1  0
 12 13  1  0
 13 14  1  0
 14 15  1  0
 15 16  1  0
 16 17  2  0
 16 18  1  0
 18 19  1  0
 18 20  1  0
 20 21  1  0
 21 22  1  0
 22 23  2  0
 23 24  1  0
 24 25  2  0
 25 26  1  0
 26 27  2  0
 27 28  1  0
 28 29  2  0
 29 30  1  0
 30 31  2  0
 15 32  1  0
 32 33  1  0
 11  6  1  0
 33 12  1  0
 31 22  1  0
 30 25  1  0
  1 34  1  0
  1 35  1  0
  1 36  1  0
  2 37  1  0
  2 38  1  0
  7 39  1  0
  8 40  1  0
  9 41  1  0
 10 42  1  0
 11 43  1  0
 12 44  1  0
 13 45  1  0
 13 46  1  0
 14 47  1  0
 14 48  1  0
 18 49  1  1
 19 50  1  0
 19 51  1  0
 20 52  1  0
 20 53  1  0
 21 54  1  0
 21 55  1  0
 23 56  1  0
 24 57  1  0
 26 58  1  0
 27 59  1  0
 28 60  1  0
 29 61  1  0
 31 62  1  0
 32 63  1  0
 32 64  1  0
 33 65  1  0
 33 66  1  0
M  END
>  <smiles>  (32) 
CCC(=O)N(c1ccccc1)C1CCN(C(=O)[C@@H](N)CCc2ccc3ccccc3c2)CC1

>  <score_type>  (32) 
oracle

>  <origin>  (32) 
autodockgpu

>  <m_score__min__energy>  (32) 
-9.3800000000000008

>  <m_primary>  (32) 
energy

>  <rmsd>  (32) 
3.0902334870997277

>  <m_score__min__rmsd>  (32) 
3.0902334870997277

>  <meeko>  (32) 
{"free_energy": -8.5, "intermolecular_energy": -11.18, "internal_energy": -2.27, "cluster_size": 38, "cluster_id": 3, "rank_in_cluster": 18}

>  <energy>  (32) 
-8.45

>  <cluster_rmsd>  (32) 
1.36

>  <cluster>  (32) 
3

$$$$

     RDKit          3D

 66 69  0  0  0  0  0  0  0  0999 V2000
  142.4340   81.1680  217.9880 C   0  0  0  0  0  0  0  0  0  0  0  0
  142.5210   79.6790  218.2700 C   0  0  0  0  0  0  0  0  0  0  0  0
  141.4130   79.3100  219.1950 C   0  0  0  0  0  0  0  0  0  0  0  0
  140.2090   79.4300  218.7950 O   0  0  0  0  0  0  0  0  0  0  0  0
  141.6950   78.8300  220.5080 N   0  0  0  0  0  0  0  0  0  0  0  0
  141.8230   79.7640  221.5570 C   0  0  0  0  0  0  0  0  0  0  0  0
  142.4130   79.3150  222.7350 C   0  0  0  0  0  0  0  0  0  0  0  0
  142.5790   80.1580  223.8110 C   0  0  0  0  0  0  0  0  0  0  0  0
  142.1580   81.4680  223.7310 C   0  0  0  0  0  0  0  0  0  0  0  0
  141.5680   81.9340  222.5650 C   0  0  0  0  0  0  0  0  0  0  0  0
  141.4060   81.0760  221.4860 C   0  0  0  0  0  0  0  0  0  0  0  0
  141.8390   77.4270  220.7330 C   0  0  0  0  0  0  0  0  0  0  0  0
  140.5430   76.6920  220.8360 C   0  0  0  0  0  0  0  0  0  0  0  0
  140.7970   75.2910  221.4100 C   0  0  0  0  0  0  0  0  0  0  0  0
  141.7770   74.6280  220.5540 N   0  0  0  0  0  0  0  0  0  0  0  0
  141.6400   73.2910  220.1150 C   0  0  0  0  0  0  0  0  0  0  0  0
  142.4850   72.7370  219.3430 O   0  0  0  0  0  0  0  0  0  0  0  0
  140.4920   72.4020  220.5150 C   0  0  1  0  0  0  0  0  0  0  0  0
  140.4150   71.3040  219.5470 N   0  0  0  0  0  0  0  0  0  0  0  0
  140.8550   71.8850  221.8770 C   0  0  0  0  0  0  0  0  0  0  0  0
  139.6640   71.4890  222.6550 C   0  0  0  0  0  0  0  0  0  0  0  0
  140.0070   71.0050  224.0000 C   0  0  0  0  0  0  0  0  0  0  0  0
  140.6960   71.8590  224.8370 C   0  0  0  0  0  0  0  0  0  0  0  0
  141.0470   71.5320  226.1300 C   0  0  0  0  0  0  0  0  0  0  0  0
  140.6990   70.2940  226.6270 C   0  0  0  0  0  0  0  0  0  0  0  0
  141.0470   69.9620  227.9200 C   0  0  0  0  0  0  0  0  0  0  0  0
  140.6980   68.7240  228.4200 C   0  0  0  0  0  0  0  0  0  0  0  0
  140.0030   67.8330  227.6040 C   0  0  0  0  0  0  0  0  0  0  0  0
  139.6520   68.1660  226.3050 C   0  0  0  0  0  0  0  0  0  0  0  0
  140.0080   69.4170  225.8120 C   0  0  0  0  0  0  0  0  0  0  0  0
  139.6640   69.7690  224.5080 C   0  0  0  0  0  0  0  0  0  0  0  0
  142.9710   75.3480  220.1290 C   0  0  0  0  0  0  0  0  0  0  0  0
  142.6380   76.7230  219.6330 C   0  0  0  0  0  0  0  0  0  0  0  0
  142.4018   81.7200  218.9389 H   0  0  0  0  0  0  0  0  0  0  0  0
  143.3152   81.4839  217.4104 H   0  0  0  0  0  0  0  0  0  0  0  0
  141.5220   81.3791  217.4104 H   0  0  0  0  0  0  0  0  0  0  0  0
  142.4229   79.1165  217.3298 H   0  0  0  0  0  0  0  0  0  0  0  0
  143.4916   79.4371  218.7275 H   0  0  0  0  0  0  0  0  0  0  0  0
  142.7518   78.2710  222.8075 H   0  0  0  0  0  0  0  0  0  0  0  0
  143.0474   79.7861  224.7342 H   0  0  0  0  0  0  0  0  0  0  0  0
  142.2895   82.1426  224.5898 H   0  0  0  0  0  0  0  0  0  0  0  0
  141.2301   82.9785  222.4959 H   0  0  0  0  0  0  0  0  0  0  0  0
  140.9388   81.4478  220.5622 H   0  0  0  0  0  0  0  0  0  0  0  0
  142.3714   77.3908  221.6949 H   0  0  0  0  0  0  0  0  0  0  0  0
  139.8603   77.2426  221.4999 H   0  0  0  0  0  0  0  0  0  0  0  0
  140.0896   76.6040  219.8377 H   0  0  0  0  0  0  0  0  0  0  0  0
  141.1892   75.3720  222.4345 H   0  0  0  0  0  0  0  0  0  0  0  0
  139.8613   74.7134  221.4411 H   0  0  0  0  0  0  0  0  0  0  0  0
  139.5197   72.9161  220.5342 H   0  0  0  0  0  0  0  0  0  0  0  0
  139.8500   71.5660  218.7220 H   0  0  0  0  0  0  0  0  0  0  0  0
  141.3330   70.9110  219.3120 H   0  0  0  0  0  0  0  0  0  0  0  0
  141.5106   71.0093  221.7611 H   0  0  0  0  0  0  0  0  0  0  0  0
  141.3632   72.6938  222.4226 H   0  0  0  0  0  0  0  0  0  0  0  0
  139.0000   72.3606  222.7522 H   0  0  0  0  0  0  0  0  0  0  0  0
  139.1722   70.6646  222.1179 H   0  0  0  0  0  0  0  0  0  0  0  0
  140.9794   72.8503  224.4536 H   0  0  0  0  0  0  0  0  0  0  0  0
  141.5973   72.2494  226.7565 H   0  0  0  0  0  0  0  0  0  0  0  0
  141.5981   70.6781  228.5472 H   0  0  0  0  0  0  0  0  0  0  0  0
  140.9650   68.4439  229.4497 H   0  0  0  0  0  0  0  0  0  0  0  0
  139.7271   66.8443  227.9994 H   0  0  0  0  0  0  0  0  0  0  0  0
  139.1010   67.4527  225.6744 H   0  0  0  0  0  0  0  0  0  0  0  0
  139.1139   69.0546  223.8779 H   0  0  0  0  0  0  0  0  0  0  0  0
  143.6594   75.4333  220.9827 H   0  0  0  0  0  0  0  0  0  0  0  0
  143.4359   74.7876  219.3045 H   0  0  0  0  0  0  0  0  0  0  0  0
  143.5625   77.2813  219.4243 H   0  0  0  0  0  0  0  0  0  0  0  0
  142.0530   76.6687  218.7030 H   0  0  0  0  0  0  0  0  0  0  0  0
  1  2  1  0
  2  3  1  0
  3  4  2  0
  3  5  1  0
  5  6  1  0
  6  7  2  0
  7  8  1  0
  8  9  2  0
  9 10  1  0
 10 11  2  0
  5 12  1  0
 12 13  1  0
 13 14  1  0
 14 15  1  0
 15 16  1  0
 16 17  2  0
 16 18  1  0
 18 19  1  0
 18 20  1  0
 20 21  1  0
 21 22  1  0
 22 23  2  0
 23 24  1  0
 24 25  2  0
 25 26  1  0
 26 27  2  0
 27 28  1  0
 28 29  2  0
 29 30  1  0
 30 31  2  0
 15 32  1  0
 32 33  1  0
 11  6  1  0
 33 12  1  0
 31 22  1  0
 30 25  1  0
  1 34  1  0
  1 35  1  0
  1 36  1  0
  2 37  1  0
  2 38  1  0
  7 39  1  0
  8 40  1  0
  9 41  1  0
 10 42  1  0
 11 43  1  0
 12 44  1  0
 13 45  1  0
 13 46  1  0
 14 47  1  0
 14 48  1  0
 18 49  1  1
 19 50  1  0
 19 51  1  0
 20 52  1  0
 20 53  1  0
 21 54  1  0
 21 55  1  0
 23 56  1  0
 24 57  1  0
 26 58  1  0
 27 59  1  0
 28 60  1  0
 29 61  1  0
 31 62  1  0
 32 63  1  0
 32 64  1  0
 33 65  1  0
 33 66  1  0
M  END
>  <smiles>  (33) 
CCC(=O)N(c1ccccc1)C1CCN(C(=O)[C@@H](N)CCc2ccc3ccccc3c2)CC1

>  <score_type>  (33) 
oracle

>  <origin>  (33) 
autodockgpu

>  <m_score__min__energy>  (33) 
-9.3800000000000008

>  <m_primary>  (33) 
energy

>  <rmsd>  (33) 
3.3833115509078637

>  <m_score__min__rmsd>  (33) 
3.3833115509078637

>  <meeko>  (33) 
{"free_energy": -8.79, "intermolecular_energy": -11.48, "internal_energy": -2.26, "cluster_size": 38, "cluster_id": 3, "rank_in_cluster": 2}

>  <energy>  (33) 
-8.45

>  <cluster_rmsd>  (33) 
0.99

>  <cluster>  (33) 
3

$$$$

     RDKit          3D

 66 69  0  0  0  0  0  0  0  0999 V2000
  142.2530   79.1670  217.2170 C   0  0  0  0  0  0  0  0  0  0  0  0
  142.4210   79.8760  218.5490 C   0  0  0  0  0  0  0  0  0  0  0  0
  141.3630   79.3890  219.4780 C   0  0  0  0  0  0  0  0  0  0  0  0
  140.1420   79.4730  219.1230 O   0  0  0  0  0  0  0  0  0  0  0  0
  141.7120   78.8370  220.7470 N   0  0  0  0  0  0  0  0  0  0  0  0
  141.9360   79.7160  221.8270 C   0  0  0  0  0  0  0  0  0  0  0  0
  141.0310   80.7610  221.9900 C   0  0  0  0  0  0  0  0  0  0  0  0
  141.1710   81.6670  223.0180 C   0  0  0  0  0  0  0  0  0  0  0  0
  142.2200   81.5470  223.9030 C   0  0  0  0  0  0  0  0  0  0  0  0
  143.1320   80.5120  223.7570 C   0  0  0  0  0  0  0  0  0  0  0  0
  142.9820   79.6030  222.7190 C   0  0  0  0  0  0  0  0  0  0  0  0
  141.8250   77.4220  220.8960 C   0  0  0  0  0  0  0  0  0  0  0  0
  140.5170   76.7230  221.0700 C   0  0  0  0  0  0  0  0  0  0  0  0
  140.7680   75.2890  221.5580 C   0  0  0  0  0  0  0  0  0  0  0  0
  141.6540   74.6380  220.5970 N   0  0  0  0  0  0  0  0  0  0  0  0
  141.4370   73.3280  220.1110 C   0  0  0  0  0  0  0  0  0  0  0  0
  142.1990   72.7860  219.2500 O   0  0  0  0  0  0  0  0  0  0  0  0
  140.2940   72.4570  220.5610 C   0  0  1  0  0  0  0  0  0  0  0  0
  140.1420   71.3740  219.5850 N   0  0  0  0  0  0  0  0  0  0  0  0
  140.7190   71.9140  221.8960 C   0  0  0  0  0  0  0  0  0  0  0  0
  139.6890   72.1230  222.9320 C   0  0  0  0  0  0  0  0  0  0  0  0
  139.7700   71.1300  224.0140 C   0  0  0  0  0  0  0  0  0  0  0  0
  139.2380   69.8790  223.7810 C   0  0  0  0  0  0  0  0  0  0  0  0
  139.2810   68.8540  224.7040 C   0  0  0  0  0  0  0  0  0  0  0  0
  139.8820   69.0760  225.9250 C   0  0  0  0  0  0  0  0  0  0  0  0
  139.9280   68.0550  226.8520 C   0  0  0  0  0  0  0  0  0  0  0  0
  140.5290   68.2760  228.0740 C   0  0  0  0  0  0  0  0  0  0  0  0
  141.0770   69.5280  228.3460 C   0  0  0  0  0  0  0  0  0  0  0  0
  141.0320   70.5540  227.4150 C   0  0  0  0  0  0  0  0  0  0  0  0
  140.4230   70.3210  226.1870 C   0  0  0  0  0  0  0  0  0  0  0  0
  140.3690   71.3410  225.2380 C   0  0  0  0  0  0  0  0  0  0  0  0
  142.8340   75.3410  220.1110 C   0  0  0  0  0  0  0  0  0  0  0  0
  142.5110   76.7470  219.7050 C   0  0  0  0  0  0  0  0  0  0  0  0
  142.0026   78.1104  217.3930 H   0  0  0  0  0  0  0  0  0  0  0  0
  141.4434   79.6455  216.6465 H   0  0  0  0  0  0  0  0  0  0  0  0
  143.1913   79.2314  216.6465 H   0  0  0  0  0  0  0  0  0  0  0  0
  143.4137   79.6519  218.9664 H   0  0  0  0  0  0  0  0  0  0  0  0
  142.3319   80.9638  218.4119 H   0  0  0  0  0  0  0  0  0  0  0  0
  140.1912   80.8648  221.2871 H   0  0  0  0  0  0  0  0  0  0  0  0
  140.4456   82.4860  223.1323 H   0  0  0  0  0  0  0  0  0  0  0  0
  142.3341   82.2704  224.7237 H   0  0  0  0  0  0  0  0  0  0  0  0
  143.9710   80.4121  224.4613 H   0  0  0  0  0  0  0  0  0  0  0  0
  143.7060   78.7826  222.6063 H   0  0  0  0  0  0  0  0  0  0  0  0
  142.4300   77.3236  221.8094 H   0  0  0  0  0  0  0  0  0  0  0  0
  139.9083   77.2619  221.8110 H   0  0  0  0  0  0  0  0  0  0  0  0
  139.9830   76.6966  220.1087 H   0  0  0  0  0  0  0  0  0  0  0  0
  141.2426   75.3093  222.5501 H   0  0  0  0  0  0  0  0  0  0  0  0
  139.8186   74.7392  221.6383 H   0  0  0  0  0  0  0  0  0  0  0  0
  139.3351   72.9903  220.6389 H   0  0  0  0  0  0  0  0  0  0  0  0
  140.4550   71.6650  218.6450 H   0  0  0  0  0  0  0  0  0  0  0  0
  140.5520   70.4880  219.9020 H   0  0  0  0  0  0  0  0  0  0  0  0
  140.9085   70.8350  221.7964 H   0  0  0  0  0  0  0  0  0  0  0  0
  141.6273   72.4508  222.2072 H   0  0  0  0  0  0  0  0  0  0  0  0
  139.8207   73.1264  223.3632 H   0  0  0  0  0  0  0  0  0  0  0  0
  138.7051   72.0155  222.4521 H   0  0  0  0  0  0  0  0  0  0  0  0
  138.7553   69.6888  222.8110 H   0  0  0  0  0  0  0  0  0  0  0  0
  138.8418   67.8733  224.4689 H   0  0  0  0  0  0  0  0  0  0  0  0
  139.4894   67.0736  226.6188 H   0  0  0  0  0  0  0  0  0  0  0  0
  140.5751   67.4734  228.8248 H   0  0  0  0  0  0  0  0  0  0  0  0
  141.5555   69.7059  229.3203 H   0  0  0  0  0  0  0  0  0  0  0  0
  141.4709   71.5363  227.6440 H   0  0  0  0  0  0  0  0  0  0  0  0
  140.8082   72.3230  225.4678 H   0  0  0  0  0  0  0  0  0  0  0  0
  143.5895   75.3649  220.9101 H   0  0  0  0  0  0  0  0  0  0  0  0
  143.2131   74.8065  219.2275 H   0  0  0  0  0  0  0  0  0  0  0  0
  143.4350   77.2859  219.4486 H   0  0  0  0  0  0  0  0  0  0  0  0
  141.8539   76.7551  218.8229 H   0  0  0  0  0  0  0  0  0  0  0  0
  1  2  1  0
  2  3  1  0
  3  4  2  0
  3  5  1  0
  5  6  1  0
  6  7  2  0
  7  8  1  0
  8  9  2  0
  9 10  1  0
 10 11  2  0
  5 12  1  0
 12 13  1  0
 13 14  1  0
 14 15  1  0
 15 16  1  0
 16 17  2  0
 16 18  1  0
 18 19  1  0
 18 20  1  0
 20 21  1  0
 21 22  1  0
 22 23  2  0
 23 24  1  0
 24 25  2  0
 25 26  1  0
 26 27  2  0
 27 28  1  0
 28 29  2  0
 29 30  1  0
 30 31  2  0
 15 32  1  0
 32 33  1  0
 11  6  1  0
 33 12  1  0
 31 22  1  0
 30 25  1  0
  1 34  1  0
  1 35  1  0
  1 36  1  0
  2 37  1  0
  2 38  1  0
  7 39  1  0
  8 40  1  0
  9 41  1  0
 10 42  1  0
 11 43  1  0
 12 44  1  0
 13 45  1  0
 13 46  1  0
 14 47  1  0
 14 48  1  0
 18 49  1  1
 19 50  1  0
 19 51  1  0
 20 52  1  0
 20 53  1  0
 21 54  1  0
 21 55  1  0
 23 56  1  0
 24 57  1  0
 26 58  1  0
 27 59  1  0
 28 60  1  0
 29 61  1  0
 31 62  1  0
 32 63  1  0
 32 64  1  0
 33 65  1  0
 33 66  1  0
M  END
>  <smiles>  (34) 
CCC(=O)N(c1ccccc1)C1CCN(C(=O)[C@@H](N)CCc2ccc3ccccc3c2)CC1

>  <score_type>  (34) 
oracle

>  <origin>  (34) 
autodockgpu

>  <m_score__min__energy>  (34) 
-9.3800000000000008

>  <m_primary>  (34) 
energy

>  <rmsd>  (34) 
3.555336456486257

>  <m_score__min__rmsd>  (34) 
3.555336456486257

>  <meeko>  (34) 
{"free_energy": -8.61, "intermolecular_energy": -11.29, "internal_energy": -2.28, "cluster_size": 38, "cluster_id": 3, "rank_in_cluster": 11}

>  <energy>  (34) 
-8.44

>  <cluster_rmsd>  (34) 
1.99

>  <cluster>  (34) 
3

$$$$

     RDKit          3D

 66 69  0  0  0  0  0  0  0  0999 V2000
  141.7730   79.4940  217.0320 C   0  0  0  0  0  0  0  0  0  0  0  0
  142.6110   79.5330  218.2980 C   0  0  0  0  0  0  0  0  0  0  0  0
  141.7530   80.0130  219.4160 C   0  0  0  0  0  0  0  0  0  0  0  0
  141.0740   81.0800  219.2600 O   0  0  0  0  0  0  0  0  0  0  0  0
  141.6930   79.2900  220.6450 N   0  0  0  0  0  0  0  0  0  0  0  0
  141.9190   79.9860  221.8510 C   0  0  0  0  0  0  0  0  0  0  0  0
  140.9380   80.8880  222.2530 C   0  0  0  0  0  0  0  0  0  0  0  0
  141.0750   81.6120  223.4170 C   0  0  0  0  0  0  0  0  0  0  0  0
  142.1950   81.4480  224.2020 C   0  0  0  0  0  0  0  0  0  0  0  0
  143.1830   80.5530  223.8180 C   0  0  0  0  0  0  0  0  0  0  0  0
  143.0360   79.8280  222.6430 C   0  0  0  0  0  0  0  0  0  0  0  0
  141.4070   77.8910  220.6290 C   0  0  0  0  0  0  0  0  0  0  0  0
  141.0470   77.3290  221.9660 C   0  0  0  0  0  0  0  0  0  0  0  0
  141.0990   75.7970  221.9040 C   0  0  0  0  0  0  0  0  0  0  0  0
  140.2100   75.3620  220.8300 N   0  0  0  0  0  0  0  0  0  0  0  0
  139.2970   74.2910  220.9680 C   0  0  0  0  0  0  0  0  0  0  0  0
  138.5060   73.9440  220.0350 O   0  0  0  0  0  0  0  0  0  0  0  0
  139.1750   73.4650  222.2220 C   0  0  1  0  0  0  0  0  0  0  0  0
  137.8020   72.9580  222.2940 N   0  0  0  0  0  0  0  0  0  0  0  0
  140.1500   72.3360  222.0410 C   0  0  0  0  0  0  0  0  0  0  0  0
  139.6030   71.0520  222.5220 C   0  0  0  0  0  0  0  0  0  0  0  0
  139.9580   70.7800  223.9240 C   0  0  0  0  0  0  0  0  0  0  0  0
  140.6260   71.7640  224.6220 C   0  0  0  0  0  0  0  0  0  0  0  0
  140.9840   71.6410  225.9490 C   0  0  0  0  0  0  0  0  0  0  0  0
  140.6670   70.4820  226.6240 C   0  0  0  0  0  0  0  0  0  0  0  0
  141.0230   70.3540  227.9510 C   0  0  0  0  0  0  0  0  0  0  0  0
  140.7050   69.1940  228.6290 C   0  0  0  0  0  0  0  0  0  0  0  0
  140.0320   68.1760  227.9560 C   0  0  0  0  0  0  0  0  0  0  0  0
  139.6730   68.3040  226.6230 C   0  0  0  0  0  0  0  0  0  0  0  0
  139.9980   69.4770  225.9500 C   0  0  0  0  0  0  0  0  0  0  0  0
  139.6450   69.6250  224.6090 C   0  0  0  0  0  0  0  0  0  0  0  0
  140.2540   76.0350  219.5380 C   0  0  0  0  0  0  0  0  0  0  0  0
  140.2530   77.5260  219.6920 C   0  0  0  0  0  0  0  0  0  0  0  0
  140.7071   79.4444  217.2992 H   0  0  0  0  0  0  0  0  0  0  0  0
  141.9607   80.4019  216.4399 H   0  0  0  0  0  0  0  0  0  0  0  0
  142.0442   78.6075  216.4399 H   0  0  0  0  0  0  0  0  0  0  0  0
  142.9875   78.5247  218.5253 H   0  0  0  0  0  0  0  0  0  0  0  0
  143.4681   80.2091  218.1628 H   0  0  0  0  0  0  0  0  0  0  0  0
  140.0403   81.0247  221.6322 H   0  0  0  0  0  0  0  0  0  0  0  0
  140.2902   82.3209  223.7195 H   0  0  0  0  0  0  0  0  0  0  0  0
  142.3058   82.0256  225.1316 H   0  0  0  0  0  0  0  0  0  0  0  0
  144.0790   80.4183  224.4417 H   0  0  0  0  0  0  0  0  0  0  0  0
  143.8206   79.1188  222.3405 H   0  0  0  0  0  0  0  0  0  0  0  0
  142.3545   77.4556  220.2787 H   0  0  0  0  0  0  0  0  0  0  0  0
  141.7610   77.6905  222.7207 H   0  0  0  0  0  0  0  0  0  0  0  0
  140.0317   77.6520  222.2397 H   0  0  0  0  0  0  0  0  0  0  0  0
  142.1271   75.4658  221.6957 H   0  0  0  0  0  0  0  0  0  0  0  0
  140.7820   75.3632  222.8639 H   0  0  0  0  0  0  0  0  0  0  0  0
  139.3865   74.0255  223.1446 H   0  0  0  0  0  0  0  0  0  0  0  0
  137.3760   73.1480  223.2160 H   0  0  0  0  0  0  0  0  0  0  0  0
  137.2220   73.2560  221.5020 H   0  0  0  0  0  0  0  0  0  0  0  0
  140.3900   72.2417  220.9716 H   0  0  0  0  0  0  0  0  0  0  0  0
  141.0494   72.5652  222.6313 H   0  0  0  0  0  0  0  0  0  0  0  0
  138.5069   71.0802  222.4344 H   0  0  0  0  0  0  0  0  0  0  0  0
  140.0366   70.2511  221.9052 H   0  0  0  0  0  0  0  0  0  0  0  0
  140.8865   72.6935  224.0946 H   0  0  0  0  0  0  0  0  0  0  0  0
  141.5151   72.4569  226.4611 H   0  0  0  0  0  0  0  0  0  0  0  0
  141.5552   71.1686  228.4640 H   0  0  0  0  0  0  0  0  0  0  0  0
  140.9795   69.0748  229.6875 H   0  0  0  0  0  0  0  0  0  0  0  0
  139.7800   67.2504  228.4943 H   0  0  0  0  0  0  0  0  0  0  0  0
  139.1403   67.4919  226.1066 H   0  0  0  0  0  0  0  0  0  0  0  0
  139.1120   68.8128  224.0930 H   0  0  0  0  0  0  0  0  0  0  0  0
  141.1691   75.7315  219.0084 H   0  0  0  0  0  0  0  0  0  0  0  0
  139.3573   75.7473  218.9696 H   0  0  0  0  0  0  0  0  0  0  0  0
  140.3983   78.0051  218.7125 H   0  0  0  0  0  0  0  0  0  0  0  0
  139.2939   77.8729  220.1041 H   0  0  0  0  0  0  0  0  0  0  0  0
  1  2  1  0
  2  3  1  0
  3  4  2  0
  3  5  1  0
  5  6  1  0
  6  7  2  0
  7  8  1  0
  8  9  2  0
  9 10  1  0
 10 11  2  0
  5 12  1  0
 12 13  1  0
 13 14  1  0
 14 15  1  0
 15 16  1  0
 16 17  2  0
 16 18  1  0
 18 19  1  0
 18 20  1  0
 20 21  1  0
 21 22  1  0
 22 23  2  0
 23 24  1  0
 24 25  2  0
 25 26  1  0
 26 27  2  0
 27 28  1  0
 28 29  2  0
 29 30  1  0
 30 31  2  0
 15 32  1  0
 32 33  1  0
 11  6  1  0
 33 12  1  0
 31 22  1  0
 30 25  1  0
  1 34  1  0
  1 35  1  0
  1 36  1  0
  2 37  1  0
  2 38  1  0
  7 39  1  0
  8 40  1  0
  9 41  1  0
 10 42  1  0
 11 43  1  0
 12 44  1  0
 13 45  1  0
 13 46  1  0
 14 47  1  0
 14 48  1  0
 18 49  1  1
 19 50  1  0
 19 51  1  0
 20 52  1  0
 20 53  1  0
 21 54  1  0
 21 55  1  0
 23 56  1  0
 24 57  1  0
 26 58  1  0
 27 59  1  0
 28 60  1  0
 29 61  1  0
 31 62  1  0
 32 63  1  0
 32 64  1  0
 33 65  1  0
 33 66  1  0
M  END
>  <smiles>  (35) 
CCC(=O)N(c1ccccc1)C1CCN(C(=O)[C@@H](N)CCc2ccc3ccccc3c2)CC1

>  <score_type>  (35) 
oracle

>  <origin>  (35) 
autodockgpu

>  <m_score__min__energy>  (35) 
-9.3800000000000008

>  <m_primary>  (35) 
energy

>  <rmsd>  (35) 
3.2048259789002773

>  <m_score__min__rmsd>  (35) 
3.2048259789002773

>  <meeko>  (35) 
{"free_energy": -8.8, "intermolecular_energy": -11.49, "internal_energy": -2.23, "cluster_size": 38, "cluster_id": 3, "rank_in_cluster": 1}

>  <energy>  (35) 
-8.44

>  <cluster_rmsd>  (35) 
1.46

>  <cluster>  (35) 
3

$$$$

     RDKit          3D

 66 69  0  0  0  0  0  0  0  0999 V2000
  141.8140   81.6320  222.1640 C   0  0  0  0  0  0  0  0  0  0  0  0
  142.1800   80.1590  222.1820 C   0  0  0  0  0  0  0  0  0  0  0  0
  141.3070   79.4690  223.1720 C   0  0  0  0  0  0  0  0  0  0  0  0
  141.8110   79.0800  224.2750 O   0  0  0  0  0  0  0  0  0  0  0  0
  139.9260   79.2470  222.8880 N   0  0  0  0  0  0  0  0  0  0  0  0
  138.9930   80.2400  223.2500 C   0  0  0  0  0  0  0  0  0  0  0  0
  138.5600   80.2480  224.5730 C   0  0  0  0  0  0  0  0  0  0  0  0
  137.6490   81.1810  225.0160 C   0  0  0  0  0  0  0  0  0  0  0  0
  137.1520   82.1260  224.1450 C   0  0  0  0  0  0  0  0  0  0  0  0
  137.5720   82.1340  222.8220 C   0  0  0  0  0  0  0  0  0  0  0  0
  138.4900   81.1890  222.3860 C   0  0  0  0  0  0  0  0  0  0  0  0
  139.5210   78.0360  222.2480 C   0  0  0  0  0  0  0  0  0  0  0  0
  140.4410   76.8840  222.4910 C   0  0  0  0  0  0  0  0  0  0  0  0
  140.1130   75.7560  221.5030 C   0  0  0  0  0  0  0  0  0  0  0  0
  138.7020   75.4190  221.6600 N   0  0  0  0  0  0  0  0  0  0  0  0
  138.2280   74.0880  221.7310 C   0  0  0  0  0  0  0  0  0  0  0  0
  136.9990   73.8100  221.9010 O   0  0  0  0  0  0  0  0  0  0  0  0
  139.1250   72.8840  221.6120 C   0  0  1  0  0  0  0  0  0  0  0  0
  140.2520   73.0720  222.5300 N   0  0  0  0  0  0  0  0  0  0  0  0
  138.2770   71.7220  222.0430 C   0  0  0  0  0  0  0  0  0  0  0  0
  139.0600   70.4760  222.1550 C   0  0  0  0  0  0  0  0  0  0  0  0
  139.3560   70.1210  223.5510 C   0  0  0  0  0  0  0  0  0  0  0  0
  139.0470   68.8430  223.9710 C   0  0  0  0  0  0  0  0  0  0  0  0
  139.3050   68.3820  225.2450 C   0  0  0  0  0  0  0  0  0  0  0  0
  139.9000   69.2270  226.1570 C   0  0  0  0  0  0  0  0  0  0  0  0
  140.1600   68.7700  227.4330 C   0  0  0  0  0  0  0  0  0  0  0  0
  140.7570   69.6150  228.3460 C   0  0  0  0  0  0  0  0  0  0  0  0
  141.0820   70.9140  227.9600 C   0  0  0  0  0  0  0  0  0  0  0  0
  140.8220   71.3740  226.6780 C   0  0  0  0  0  0  0  0  0  0  0  0
  140.2210   70.5140  225.7660 C   0  0  0  0  0  0  0  0  0  0  0  0
  139.9510   70.9580  224.4710 C   0  0  0  0  0  0  0  0  0  0  0  0
  137.7080   76.4820  221.7350 C   0  0  0  0  0  0  0  0  0  0  0  0
  138.1300   77.5660  222.6810 C   0  0  0  0  0  0  0  0  0  0  0  0
  141.7226   81.9998  223.1967 H   0  0  0  0  0  0  0  0  0  0  0  0
  142.5987   82.1984  221.6411 H   0  0  0  0  0  0  0  0  0  0  0  0
  140.8554   81.7653  221.6411 H   0  0  0  0  0  0  0  0  0  0  0  0
  142.0238   79.7253  221.1833 H   0  0  0  0  0  0  0  0  0  0  0  0
  143.2371   80.0359  222.4602 H   0  0  0  0  0  0  0  0  0  0  0  0
  138.9515   79.4975  225.2754 H   0  0  0  0  0  0  0  0  0  0  0  0
  137.3182   81.1718  226.0650 H   0  0  0  0  0  0  0  0  0  0  0  0
  136.4244   82.8720  224.4971 H   0  0  0  0  0  0  0  0  0  0  0  0
  137.1789   82.8862  222.1222 H   0  0  0  0  0  0  0  0  0  0  0  0
  138.8207   81.1974  221.3369 H   0  0  0  0  0  0  0  0  0  0  0  0
  139.5322   78.3104  221.1828 H   0  0  0  0  0  0  0  0  0  0  0  0
  141.4821   77.2082  222.3461 H   0  0  0  0  0  0  0  0  0  0  0  0
  140.3124   76.5206  223.5212 H   0  0  0  0  0  0  0  0  0  0  0  0
  140.3045   76.0932  220.4736 H   0  0  0  0  0  0  0  0  0  0  0  0
  140.7419   74.8760  221.7034 H   0  0  0  0  0  0  0  0  0  0  0  0
  139.5244   72.7269  220.5992 H   0  0  0  0  0  0  0  0  0  0  0  0
  140.9810   73.6760  222.1160 H   0  0  0  0  0  0  0  0  0  0  0  0
  139.9600   73.3610  223.4700 H   0  0  0  0  0  0  0  0  0  0  0  0
  137.8325   71.9511  223.0228 H   0  0  0  0  0  0  0  0  0  0  0  0
  137.5004   71.5671  221.2795 H   0  0  0  0  0  0  0  0  0  0  0  0
  138.4869   69.6567  221.6965 H   0  0  0  0  0  0  0  0  0  0  0  0
  140.0188   70.6361  221.6401 H   0  0  0  0  0  0  0  0  0  0  0  0
  138.5712   68.1580  223.2538 H   0  0  0  0  0  0  0  0  0  0  0  0
  139.0393   67.3532  225.5296 H   0  0  0  0  0  0  0  0  0  0  0  0
  139.8938   67.7419  227.7195 H   0  0  0  0  0  0  0  0  0  0  0  0
  140.9739   69.2672  229.3668 H   0  0  0  0  0  0  0  0  0  0  0  0
  141.5551   71.5892  228.6882 H   0  0  0  0  0  0  0  0  0  0  0  0
  141.0867   72.4015  226.3877 H   0  0  0  0  0  0  0  0  0  0  0  0
  140.2154   71.9857  224.1813 H   0  0  0  0  0  0  0  0  0  0  0  0
  137.5723   76.9153  220.7331 H   0  0  0  0  0  0  0  0  0  0  0  0
  136.7676   76.0483  222.1059 H   0  0  0  0  0  0  0  0  0  0  0  0
  137.4187   78.4037  222.6342 H   0  0  0  0  0  0  0  0  0  0  0  0
  138.1510   77.1922  223.7153 H   0  0  0  0  0  0  0  0  0  0  0  0
  1  2  1  0
  2  3  1  0
  3  4  2  0
  3  5  1  0
  5  6  1  0
  6  7  2  0
  7  8  1  0
  8  9  2  0
  9 10  1  0
 10 11  2  0
  5 12  1  0
 12 13  1  0
 13 14  1  0
 14 15  1  0
 15 16  1  0
 16 17  2  0
 16 18  1  0
 18 19  1  0
 18 20  1  0
 20 21  1  0
 21 22  1  0
 22 23  2  0
 23 24  1  0
 24 25  2  0
 25 26  1  0
 26 27  2  0
 27 28  1  0
 28 29  2  0
 29 30  1  0
 30 31  2  0
 15 32  1  0
 32 33  1  0
 11  6  1  0
 33 12  1  0
 31 22  1  0
 30 25  1  0
  1 34  1  0
  1 35  1  0
  1 36  1  0
  2 37  1  0
  2 38  1  0
  7 39  1  0
  8 40  1  0
  9 41  1  0
 10 42  1  0
 11 43  1  0
 12 44  1  0
 13 45  1  0
 13 46  1  0
 14 47  1  0
 14 48  1  0
 18 49  1  6
 19 50  1  0
 19 51  1  0
 20 52  1  0
 20 53  1  0
 21 54  1  0
 21 55  1  0
 23 56  1  0
 24 57  1  0
 26 58  1  0
 27 59  1  0
 28 60  1  0
 29 61  1  0
 31 62  1  0
 32 63  1  0
 32 64  1  0
 33 65  1  0
 33 66  1  0
M  END
>  <smiles>  (36) 
CCC(=O)N(c1ccccc1)C1CCN(C(=O)[C@@H](N)CCc2ccc3ccccc3c2)CC1

>  <score_type>  (36) 
oracle

>  <origin>  (36) 
autodockgpu

>  <m_score__min__energy>  (36) 
-9.3800000000000008

>  <m_primary>  (36) 
energy

>  <rmsd>  (36) 
3.2060858695550825

>  <m_score__min__rmsd>  (36) 
3.2060858695550825

>  <meeko>  (36) 
{"free_energy": -9.11, "intermolecular_energy": -11.79, "internal_energy": -1.55, "cluster_size": 6, "cluster_id": 1, "rank_in_cluster": 3}

>  <energy>  (36) 
-8.43

>  <cluster_rmsd>  (36) 
1.96

>  <cluster>  (36) 
3

$$$$

     RDKit          3D

 66 69  0  0  0  0  0  0  0  0999 V2000
  142.3990   81.2240  217.9760 C   0  0  0  0  0  0  0  0  0  0  0  0
  142.5710   79.7450  218.2720 C   0  0  0  0  0  0  0  0  0  0  0  0
  141.4610   79.3110  219.1650 C   0  0  0  0  0  0  0  0  0  0  0  0
  140.2590   79.4140  218.7520 O   0  0  0  0  0  0  0  0  0  0  0  0
  141.7380   78.7890  220.4630 N   0  0  0  0  0  0  0  0  0  0  0  0
  141.8410   79.6880  221.5450 C   0  0  0  0  0  0  0  0  0  0  0  0
  142.4210   79.2050  222.7150 C   0  0  0  0  0  0  0  0  0  0  0  0
  142.5620   80.0120  223.8220 C   0  0  0  0  0  0  0  0  0  0  0  0
  142.1260   81.3180  223.7820 C   0  0  0  0  0  0  0  0  0  0  0  0
  141.5460   81.8180  222.6250 C   0  0  0  0  0  0  0  0  0  0  0  0
  141.4080   80.9960  221.5150 C   0  0  0  0  0  0  0  0  0  0  0  0
  141.9030   77.3820  220.6400 C   0  0  0  0  0  0  0  0  0  0  0  0
  140.6390   76.6600  220.9780 C   0  0  0  0  0  0  0  0  0  0  0  0
  140.9780   75.2480  221.4760 C   0  0  0  0  0  0  0  0  0  0  0  0
  141.7690   74.5870  220.4430 N   0  0  0  0  0  0  0  0  0  0  0  0
  141.5340   73.2570  220.0210 C   0  0  0  0  0  0  0  0  0  0  0  0
  142.2100   72.7050  219.0970 O   0  0  0  0  0  0  0  0  0  0  0  0
  140.4690   72.3760  220.6210 C   0  0  1  0  0  0  0  0  0  0  0  0
  140.2950   71.2190  219.7390 N   0  0  0  0  0  0  0  0  0  0  0  0
  141.0190   71.9520  221.9530 C   0  0  0  0  0  0  0  0  0  0  0  0
  140.0980   72.2750  223.0600 C   0  0  0  0  0  0  0  0  0  0  0  0
  140.0680   71.2250  224.0900 C   0  0  0  0  0  0  0  0  0  0  0  0
  139.5210   70.0050  223.7510 C   0  0  0  0  0  0  0  0  0  0  0  0
  139.4640   68.9330  224.6190 C   0  0  0  0  0  0  0  0  0  0  0  0
  139.9740   69.0730  225.8910 C   0  0  0  0  0  0  0  0  0  0  0  0
  139.9200   68.0050  226.7630 C   0  0  0  0  0  0  0  0  0  0  0  0
  140.4320   68.1430  228.0370 C   0  0  0  0  0  0  0  0  0  0  0  0
  140.9910   69.3620  228.4160 C   0  0  0  0  0  0  0  0  0  0  0  0
  141.0480   70.4350  227.5410 C   0  0  0  0  0  0  0  0  0  0  0  0
  140.5290   70.2850  226.2600 C   0  0  0  0  0  0  0  0  0  0  0  0
  140.5760   71.3540  225.3650 C   0  0  0  0  0  0  0  0  0  0  0  0
  142.8710   75.2990  219.8080 C   0  0  0  0  0  0  0  0  0  0  0  0
  142.4690   76.6840  219.4000 C   0  0  0  0  0  0  0  0  0  0  0  0
  142.3341   81.7821  218.9217 H   0  0  0  0  0  0  0  0  0  0  0  0
  143.2613   81.5845  217.3959 H   0  0  0  0  0  0  0  0  0  0  0  0
  141.4770   81.3770  217.3959 H   0  0  0  0  0  0  0  0  0  0  0  0
  142.5381   79.1722  217.3335 H   0  0  0  0  0  0  0  0  0  0  0  0
  143.5402   79.5682  218.7613 H   0  0  0  0  0  0  0  0  0  0  0  0
  142.7719   78.1633  222.7557 H   0  0  0  0  0  0  0  0  0  0  0  0
  143.0227   79.6137  224.7380 H   0  0  0  0  0  0  0  0  0  0  0  0
  142.2375   81.9634  224.6658 H   0  0  0  0  0  0  0  0  0  0  0  0
  141.1973   82.8606  222.5875 H   0  0  0  0  0  0  0  0  0  0  0  0
  140.9468   81.3940  220.5991 H   0  0  0  0  0  0  0  0  0  0  0  0
  142.6078   77.3265  221.4827 H   0  0  0  0  0  0  0  0  0  0  0  0
  140.1022   77.2084  221.7661 H   0  0  0  0  0  0  0  0  0  0  0  0
  140.0032   76.5920  220.0829 H   0  0  0  0  0  0  0  0  0  0  0  0
  141.5578   75.3096  222.4088 H   0  0  0  0  0  0  0  0  0  0  0  0
  140.0572   74.6804  221.6760 H   0  0  0  0  0  0  0  0  0  0  0  0
  139.4948   72.8734  220.7368 H   0  0  0  0  0  0  0  0  0  0  0  0
  140.4660   71.4670  218.7510 H   0  0  0  0  0  0  0  0  0  0  0  0
  140.8140   70.3920  220.0540 H   0  0  0  0  0  0  0  0  0  0  0  0
  141.1883   70.8652  221.9376 H   0  0  0  0  0  0  0  0  0  0  0  0
  141.9583   72.4988  222.1222 H   0  0  0  0  0  0  0  0  0  0  0  0
  140.4224   73.2173  223.5257 H   0  0  0  0  0  0  0  0  0  0  0  0
  139.0853   72.3606  222.6392 H   0  0  0  0  0  0  0  0  0  0  0  0
  139.1096   69.8800  222.7385 H   0  0  0  0  0  0  0  0  0  0  0  0
  139.0174   67.9799  224.2992 H   0  0  0  0  0  0  0  0  0  0  0  0
  139.4726   67.0516  226.4453 H   0  0  0  0  0  0  0  0  0  0  0  0
  140.3993   67.3014  228.7445 H   0  0  0  0  0  0  0  0  0  0  0  0
  141.3960   69.4750  229.4325 H   0  0  0  0  0  0  0  0  0  0  0  0
  141.4963   71.3893  227.8547 H   0  0  0  0  0  0  0  0  0  0  0  0
  141.0226   72.3088  225.6796 H   0  0  0  0  0  0  0  0  0  0  0  0
  143.7096   75.3647  220.5169 H   0  0  0  0  0  0  0  0  0  0  0  0
  143.1641   74.7448  218.9041 H   0  0  0  0  0  0  0  0  0  0  0  0
  143.3447   77.2345  219.0258 H   0  0  0  0  0  0  0  0  0  0  0  0
  141.7174   76.6492  218.5976 H   0  0  0  0  0  0  0  0  0  0  0  0
  1  2  1  0
  2  3  1  0
  3  4  2  0
  3  5  1  0
  5  6  1  0
  6  7  2  0
  7  8  1  0
  8  9  2  0
  9 10  1  0
 10 11  2  0
  5 12  1  0
 12 13  1  0
 13 14  1  0
 14 15  1  0
 15 16  1  0
 16 17  2  0
 16 18  1  0
 18 19  1  0
 18 20  1  0
 20 21  1  0
 21 22  1  0
 22 23  2  0
 23 24  1  0
 24 25  2  0
 25 26  1  0
 26 27  2  0
 27 28  1  0
 28 29  2  0
 29 30  1  0
 30 31  2  0
 15 32  1  0
 32 33  1  0
 11  6  1  0
 33 12  1  0
 31 22  1  0
 30 25  1  0
  1 34  1  0
  1 35  1  0
  1 36  1  0
  2 37  1  0
  2 38  1  0
  7 39  1  0
  8 40  1  0
  9 41  1  0
 10 42  1  0
 11 43  1  0
 12 44  1  0
 13 45  1  0
 13 46  1  0
 14 47  1  0
 14 48  1  0
 18 49  1  1
 19 50  1  0
 19 51  1  0
 20 52  1  0
 20 53  1  0
 21 54  1  0
 21 55  1  0
 23 56  1  0
 24 57  1  0
 26 58  1  0
 27 59  1  0
 28 60  1  0
 29 61  1  0
 31 62  1  0
 32 63  1  0
 32 64  1  0
 33 65  1  0
 33 66  1  0
M  END
>  <smiles>  (37) 
CCC(=O)N(c1ccccc1)C1CCN(C(=O)[C@@H](N)CCc2ccc3ccccc3c2)CC1

>  <score_type>  (37) 
oracle

>  <origin>  (37) 
autodockgpu

>  <m_score__min__energy>  (37) 
-9.3800000000000008

>  <m_primary>  (37) 
energy

>  <rmsd>  (37) 
3.6006498868479975

>  <m_score__min__rmsd>  (37) 
3.6006498868479975

>  <meeko>  (37) 
{"free_energy": -8.69, "intermolecular_energy": -11.37, "internal_energy": -2.29, "cluster_size": 38, "cluster_id": 3, "rank_in_cluster": 4}

>  <energy>  (37) 
-8.42

>  <cluster_rmsd>  (37) 
0.69

>  <cluster>  (37) 
3

$$$$

     RDKit          3D

 66 69  0  0  0  0  0  0  0  0999 V2000
  142.5550   81.5270  224.1990 C   0  0  0  0  0  0  0  0  0  0  0  0
  142.7250   80.3160  223.3000 C   0  0  0  0  0  0  0  0  0  0  0  0
  141.4260   80.0440  222.6260 C   0  0  0  0  0  0  0  0  0  0  0  0
  140.3420   80.2710  223.2570 O   0  0  0  0  0  0  0  0  0  0  0  0
  141.3940   79.5370  221.2920 N   0  0  0  0  0  0  0  0  0  0  0  0
  141.6390   80.4260  220.2250 C   0  0  0  0  0  0  0  0  0  0  0  0
  141.2420   81.7480  220.4000 C   0  0  0  0  0  0  0  0  0  0  0  0
  141.4400   82.6850  219.4100 C   0  0  0  0  0  0  0  0  0  0  0  0
  142.0400   82.3190  218.2260 C   0  0  0  0  0  0  0  0  0  0  0  0
  142.4440   81.0050  218.0330 C   0  0  0  0  0  0  0  0  0  0  0  0
  142.2390   80.0680  219.0360 C   0  0  0  0  0  0  0  0  0  0  0  0
  141.1200   78.1540  221.0680 C   0  0  0  0  0  0  0  0  0  0  0  0
  141.0210   77.3430  222.3190 C   0  0  0  0  0  0  0  0  0  0  0  0
  141.0710   75.8510  221.9620 C   0  0  0  0  0  0  0  0  0  0  0  0
  139.9990   75.5830  221.0080 N   0  0  0  0  0  0  0  0  0  0  0  0
  139.1360   74.4670  221.1080 C   0  0  0  0  0  0  0  0  0  0  0  0
  138.1860   74.2640  220.2880 O   0  0  0  0  0  0  0  0  0  0  0  0
  139.2570   73.4220  222.1860 C   0  0  1  0  0  0  0  0  0  0  0  0
  137.9560   72.7600  222.3190 N   0  0  0  0  0  0  0  0  0  0  0  0
  140.2940   72.4600  221.6800 C   0  0  0  0  0  0  0  0  0  0  0  0
  139.9230   71.0560  221.9480 C   0  0  0  0  0  0  0  0  0  0  0  0
  139.9340   70.7350  223.3830 C   0  0  0  0  0  0  0  0  0  0  0  0
  139.3240   69.5650  223.7870 C   0  0  0  0  0  0  0  0  0  0  0  0
  139.2960   69.1400  225.0990 C   0  0  0  0  0  0  0  0  0  0  0  0
  139.9010   69.9110  226.0670 C   0  0  0  0  0  0  0  0  0  0  0  0
  139.8760   69.4910  227.3810 C   0  0  0  0  0  0  0  0  0  0  0  0
  140.4820   70.2620  228.3520 C   0  0  0  0  0  0  0  0  0  0  0  0
  141.1070   71.4520  227.9820 C   0  0  0  0  0  0  0  0  0  0  0  0
  141.1350   71.8750  226.6620 C   0  0  0  0  0  0  0  0  0  0  0  0
  140.5200   71.0900  225.6930 C   0  0  0  0  0  0  0  0  0  0  0  0
  140.5370   71.4990  224.3600 C   0  0  0  0  0  0  0  0  0  0  0  0
  139.7950   76.4820  219.8790 C   0  0  0  0  0  0  0  0  0  0  0  0
  139.8120   77.9180  220.3070 C   0  0  0  0  0  0  0  0  0  0  0  0
  142.5993   81.2112  225.2518 H   0  0  0  0  0  0  0  0  0  0  0  0
  143.3606   82.2486  223.9984 H   0  0  0  0  0  0  0  0  0  0  0  0
  141.5818   81.9989  223.9984 H   0  0  0  0  0  0  0  0  0  0  0  0
  143.4993   80.5193  222.5456 H   0  0  0  0  0  0  0  0  0  0  0  0
  143.0312   79.4435  223.8958 H   0  0  0  0  0  0  0  0  0  0  0  0
  140.7628   82.0494  221.3431 H   0  0  0  0  0  0  0  0  0  0  0  0
  141.1188   83.7255  219.5653 H   0  0  0  0  0  0  0  0  0  0  0  0
  142.1989   83.0663  217.4346 H   0  0  0  0  0  0  0  0  0  0  0  0
  142.9245   80.7078  217.0892 H   0  0  0  0  0  0  0  0  0  0  0  0
  142.5590   79.0271  218.8807 H   0  0  0  0  0  0  0  0  0  0  0  0
  141.9881   77.8299  220.4753 H   0  0  0  0  0  0  0  0  0  0  0  0
  141.8614   77.5899  222.9844 H   0  0  0  0  0  0  0  0  0  0  0  0
  140.0731   77.5680  222.8298 H   0  0  0  0  0  0  0  0  0  0  0  0
  142.0436   75.6071  221.5098 H   0  0  0  0  0  0  0  0  0  0  0  0
  140.9437   75.2359  222.8650 H   0  0  0  0  0  0  0  0  0  0  0  0
  139.5405   73.8286  223.1680 H   0  0  0  0  0  0  0  0  0  0  0  0
  137.4910   73.0140  223.2050 H   0  0  0  0  0  0  0  0  0  0  0  0
  137.3610   72.8760  221.4910 H   0  0  0  0  0  0  0  0  0  0  0  0
  140.4058   72.5968  220.5943 H   0  0  0  0  0  0  0  0  0  0  0  0
  141.2371   72.6689  222.2063 H   0  0  0  0  0  0  0  0  0  0  0  0
  138.9116   70.8770  221.5542 H   0  0  0  0  0  0  0  0  0  0  0  0
  140.6681   70.4135  221.4559 H   0  0  0  0  0  0  0  0  0  0  0  0
  138.8357   68.9401  223.0248 H   0  0  0  0  0  0  0  0  0  0  0  0
  138.7970   68.1976  225.3688 H   0  0  0  0  0  0  0  0  0  0  0  0
  139.3770   68.5490  227.6525 H   0  0  0  0  0  0  0  0  0  0  0  0
  140.4720   69.9418  229.4043 H   0  0  0  0  0  0  0  0  0  0  0  0
  141.5887   72.0692  228.7547 H   0  0  0  0  0  0  0  0  0  0  0  0
  141.6350   72.8152  226.3861 H   0  0  0  0  0  0  0  0  0  0  0  0
  141.0361   72.4399  224.0852 H   0  0  0  0  0  0  0  0  0  0  0  0
  140.5967   76.3192  219.1437 H   0  0  0  0  0  0  0  0  0  0  0  0
  138.8097   76.2654  219.4405 H   0  0  0  0  0  0  0  0  0  0  0  0
  139.7667   78.5737  219.4250 H   0  0  0  0  0  0  0  0  0  0  0  0
  138.9452   78.1430  220.9457 H   0  0  0  0  0  0  0  0  0  0  0  0
  1  2  1  0
  2  3  1  0
  3  4  2  0
  3  5  1  0
  5  6  1  0
  6  7  2  0
  7  8  1  0
  8  9  2  0
  9 10  1  0
 10 11  2  0
  5 12  1  0
 12 13  1  0
 13 14  1  0
 14 15  1  0
 15 16  1  0
 16 17  2  0
 16 18  1  0
 18 19  1  0
 18 20  1  0
 20 21  1  0
 21 22  1  0
 22 23  2  0
 23 24  1  0
 24 25  2  0
 25 26  1  0
 26 27  2  0
 27 28  1  0
 28 29  2  0
 29 30  1  0
 30 31  2  0
 15 32  1  0
 32 33  1  0
 11  6  1  0
 33 12  1  0
 31 22  1  0
 30 25  1  0
  1 34  1  0
  1 35  1  0
  1 36  1  0
  2 37  1  0
  2 38  1  0
  7 39  1  0
  8 40  1  0
  9 41  1  0
 10 42  1  0
 11 43  1  0
 12 44  1  0
 13 45  1  0
 13 46  1  0
 14 47  1  0
 14 48  1  0
 18 49  1  1
 19 50  1  0
 19 51  1  0
 20 52  1  0
 20 53  1  0
 21 54  1  0
 21 55  1  0
 23 56  1  0
 24 57  1  0
 26 58  1  0
 27 59  1  0
 28 60  1  0
 29 61  1  0
 31 62  1  0
 32 63  1  0
 32 64  1  0
 33 65  1  0
 33 66  1  0
M  END
>  <smiles>  (38) 
CCC(=O)N(c1ccccc1)C1CCN(C(=O)[C@@H](N)CCc2ccc3ccccc3c2)CC1

>  <score_type>  (38) 
oracle

>  <origin>  (38) 
autodockgpu

>  <m_score__min__energy>  (38) 
-9.3800000000000008

>  <m_primary>  (38) 
energy

>  <rmsd>  (38) 
3.640237878325693

>  <m_score__min__rmsd>  (38) 
3.640237878325693

>  <meeko>  (38) 
{"free_energy": -8.63, "intermolecular_energy": -11.32, "internal_energy": -2.29, "cluster_size": 38, "cluster_id": 3, "rank_in_cluster": 8}

>  <energy>  (38) 
-8.41

>  <cluster_rmsd>  (38) 
1.54

>  <cluster>  (38) 
3

$$$$

     RDKit          3D

 66 69  0  0  0  0  0  0  0  0999 V2000
  137.8790   80.1190  223.5300 C   0  0  0  0  0  0  0  0  0  0  0  0
  137.4500   78.7310  223.0870 C   0  0  0  0  0  0  0  0  0  0  0  0
  138.3280   78.3040  221.9630 C   0  0  0  0  0  0  0  0  0  0  0  0
  137.8890   78.3890  220.7690 O   0  0  0  0  0  0  0  0  0  0  0  0
  139.6410   77.8070  222.2180 N   0  0  0  0  0  0  0  0  0  0  0  0
  140.6660   78.7280  222.5170 C   0  0  0  0  0  0  0  0  0  0  0  0
  141.1270   79.5230  221.4710 C   0  0  0  0  0  0  0  0  0  0  0  0
  142.1260   80.4490  221.6710 C   0  0  0  0  0  0  0  0  0  0  0  0
  142.6860   80.5990  222.9210 C   0  0  0  0  0  0  0  0  0  0  0  0
  142.2390   79.8160  223.9760 C   0  0  0  0  0  0  0  0  0  0  0  0
  141.2310   78.8850  223.7640 C   0  0  0  0  0  0  0  0  0  0  0  0
  139.8870   76.4020  222.1670 C   0  0  0  0  0  0  0  0  0  0  0  0
  138.7530   75.6050  221.6090 C   0  0  0  0  0  0  0  0  0  0  0  0
  138.9770   74.1180  221.9150 C   0  0  0  0  0  0  0  0  0  0  0  0
  140.2770   73.7410  221.3690 N   0  0  0  0  0  0  0  0  0  0  0  0
  140.4900   72.5540  220.6290 C   0  0  0  0  0  0  0  0  0  0  0  0
  141.6210   72.2550  220.1320 O   0  0  0  0  0  0  0  0  0  0  0  0
  139.4080   71.5410  220.3610 C   0  0  1  0  0  0  0  0  0  0  0  0
  139.6920   70.9130  219.0680 N   0  0  0  0  0  0  0  0  0  0  0  0
  139.5250   70.5420  221.4760 C   0  0  0  0  0  0  0  0  0  0  0  0
  138.6330   70.8670  222.6060 C   0  0  0  0  0  0  0  0  0  0  0  0
  139.2720   70.6350  223.9110 C   0  0  0  0  0  0  0  0  0  0  0  0
  140.0650   71.6390  224.4270 C   0  0  0  0  0  0  0  0  0  0  0  0
  140.6910   71.5530  225.6540 C   0  0  0  0  0  0  0  0  0  0  0  0
  140.5270   70.4150  226.4130 C   0  0  0  0  0  0  0  0  0  0  0  0
  141.1500   70.3240  227.6400 C   0  0  0  0  0  0  0  0  0  0  0  0
  140.9860   69.1850  228.4020 C   0  0  0  0  0  0  0  0  0  0  0  0
  140.1930   68.1480  227.9120 C   0  0  0  0  0  0  0  0  0  0  0  0
  139.5650   68.2380  226.6790 C   0  0  0  0  0  0  0  0  0  0  0  0
  139.7380   69.3910  225.9210 C   0  0  0  0  0  0  0  0  0  0  0  0
  139.1140   69.5000  224.6780 C   0  0  0  0  0  0  0  0  0  0  0  0
  141.4330   74.5990  221.5950 C   0  0  0  0  0  0  0  0  0  0  0  0
  141.1130   76.0380  221.3240 C   0  0  0  0  0  0  0  0  0  0  0  0
  137.8932   80.1651  224.6289 H   0  0  0  0  0  0  0  0  0  0  0  0
  138.8853   80.3334  223.1409 H   0  0  0  0  0  0  0  0  0  0  0  0
  137.1691   80.8638  223.1409 H   0  0  0  0  0  0  0  0  0  0  0  0
  137.5504   78.0259  223.9253 H   0  0  0  0  0  0  0  0  0  0  0  0
  136.3995   78.7462  222.7612 H   0  0  0  0  0  0  0  0  0  0  0  0
  140.6863   79.4095  220.4695 H   0  0  0  0  0  0  0  0  0  0  0  0
  142.4771   81.0690  220.8330 H   0  0  0  0  0  0  0  0  0  0  0  0
  143.4852   81.3374  223.0822 H   0  0  0  0  0  0  0  0  0  0  0  0
  142.6816   79.9325  224.9763 H   0  0  0  0  0  0  0  0  0  0  0  0
  140.8791   78.2651  224.6018 H   0  0  0  0  0  0  0  0  0  0  0  0
  140.0430   76.1477  223.2258 H   0  0  0  0  0  0  0  0  0  0  0  0
  137.8102   75.9364  222.0686 H   0  0  0  0  0  0  0  0  0  0  0  0
  138.7005   75.7526  220.5202 H   0  0  0  0  0  0  0  0  0  0  0  0
  138.9662   73.9540  223.0026 H   0  0  0  0  0  0  0  0  0  0  0  0
  138.1797   73.5087  221.4644 H   0  0  0  0  0  0  0  0  0  0  0  0
  138.3965   71.9715  220.3222 H   0  0  0  0  0  0  0  0  0  0  0  0
  139.2470   71.4270  218.2910 H   0  0  0  0  0  0  0  0  0  0  0  0
  140.6900   70.7260  218.9230 H   0  0  0  0  0  0  0  0  0  0  0  0
  139.2606   69.5465  221.0899 H   0  0  0  0  0  0  0  0  0  0  0  0
  140.5613   70.5640  221.8442 H   0  0  0  0  0  0  0  0  0  0  0  0
  138.3468   71.9268  222.5364 H   0  0  0  0  0  0  0  0  0  0  0  0
  137.7555   70.2069  222.5407 H   0  0  0  0  0  0  0  0  0  0  0  0
  140.2053   72.5530  223.8312 H   0  0  0  0  0  0  0  0  0  0  0  0
  141.3130   72.3826  226.0213 H   0  0  0  0  0  0  0  0  0  0  0  0
  141.7726   71.1526  228.0084 H   0  0  0  0  0  0  0  0  0  0  0  0
  141.4747   69.0964  229.3835 H   0  0  0  0  0  0  0  0  0  0  0  0
  140.0627   67.2385  228.5169 H   0  0  0  0  0  0  0  0  0  0  0  0
  138.9410   67.4120  226.3070 H   0  0  0  0  0  0  0  0  0  0  0  0
  138.4905   68.6734  224.3065 H   0  0  0  0  0  0  0  0  0  0  0  0
  141.7550   74.4958  222.6417 H   0  0  0  0  0  0  0  0  0  0  0  0
  142.2322   74.2884  220.9059 H   0  0  0  0  0  0  0  0  0  0  0  0
  141.9658   76.6725  221.6073 H   0  0  0  0  0  0  0  0  0  0  0  0
  140.9093   76.1955  220.2546 H   0  0  0  0  0  0  0  0  0  0  0  0
  1  2  1  0
  2  3  1  0
  3  4  2  0
  3  5  1  0
  5  6  1  0
  6  7  2  0
  7  8  1  0
  8  9  2  0
  9 10  1  0
 10 11  2  0
  5 12  1  0
 12 13  1  0
 13 14  1  0
 14 15  1  0
 15 16  1  0
 16 17  2  0
 16 18  1  0
 18 19  1  0
 18 20  1  0
 20 21  1  0
 21 22  1  0
 22 23  2  0
 23 24  1  0
 24 25  2  0
 25 26  1  0
 26 27  2  0
 27 28  1  0
 28 29  2  0
 29 30  1  0
 30 31  2  0
 15 32  1  0
 32 33  1  0
 11  6  1  0
 33 12  1  0
 31 22  1  0
 30 25  1  0
  1 34  1  0
  1 35  1  0
  1 36  1  0
  2 37  1  0
  2 38  1  0
  7 39  1  0
  8 40  1  0
  9 41  1  0
 10 42  1  0
 11 43  1  0
 12 44  1  0
 13 45  1  0
 13 46  1  0
 14 47  1  0
 14 48  1  0
 18 49  1  6
 19 50  1  0
 19 51  1  0
 20 52  1  0
 20 53  1  0
 21 54  1  0
 21 55  1  0
 23 56  1  0
 24 57  1  0
 26 58  1  0
 27 59  1  0
 28 60  1  0
 29 61  1  0
 31 62  1  0
 32 63  1  0
 32 64  1  0
 33 65  1  0
 33 66  1  0
M  END
>  <smiles>  (39) 
CCC(=O)N(c1ccccc1)C1CCN(C(=O)[C@@H](N)CCc2ccc3ccccc3c2)CC1

>  <score_type>  (39) 
oracle

>  <origin>  (39) 
autodockgpu

>  <m_score__min__energy>  (39) 
-9.3800000000000008

>  <m_primary>  (39) 
energy

>  <rmsd>  (39) 
2.7640139866043576

>  <m_score__min__rmsd>  (39) 
2.7640139866043576

>  <meeko>  (39) 
{"free_energy": -7.94, "intermolecular_energy": -10.63, "internal_energy": -2.6, "cluster_size": 2, "cluster_id": 4, "rank_in_cluster": 2}

>  <energy>  (39) 
-8.35

>  <cluster_rmsd>  (39) 
1.69

>  <cluster>  (39) 
3

$$$$

     RDKit          3D

 66 69  0  0  0  0  0  0  0  0999 V2000
  142.8430   80.5480  223.4250 C   0  0  0  0  0  0  0  0  0  0  0  0
  142.1960   79.1760  223.4960 C   0  0  0  0  0  0  0  0  0  0  0  0
  140.9290   79.2130  222.7150 C   0  0  0  0  0  0  0  0  0  0  0  0
  139.8830   79.7000  223.2550 O   0  0  0  0  0  0  0  0  0  0  0  0
  140.8860   78.7090  221.3800 N   0  0  0  0  0  0  0  0  0  0  0  0
  141.3920   79.5130  220.3380 C   0  0  0  0  0  0  0  0  0  0  0  0
  142.0340   78.8590  219.2900 C   0  0  0  0  0  0  0  0  0  0  0  0
  142.5590   79.5640  218.2300 C   0  0  0  0  0  0  0  0  0  0  0  0
  142.4520   80.9370  218.1950 C   0  0  0  0  0  0  0  0  0  0  0  0
  141.8150   81.6070  219.2300 C   0  0  0  0  0  0  0  0  0  0  0  0
  141.2890   80.8870  220.2940 C   0  0  0  0  0  0  0  0  0  0  0  0
  140.3400   77.4140  221.1300 C   0  0  0  0  0  0  0  0  0  0  0  0
  140.7160   76.3890  222.1500 C   0  0  0  0  0  0  0  0  0  0  0  0
  140.3750   74.9910  221.6140 C   0  0  0  0  0  0  0  0  0  0  0  0
  138.9560   74.9780  221.2700 N   0  0  0  0  0  0  0  0  0  0  0  0
  138.0850   73.9200  221.6210 C   0  0  0  0  0  0  0  0  0  0  0  0
  136.8450   73.9380  221.3430 O   0  0  0  0  0  0  0  0  0  0  0  0
  138.5390   72.6840  222.3530 C   0  0  1  0  0  0  0  0  0  0  0  0
  137.3690   72.0990  223.0140 N   0  0  0  0  0  0  0  0  0  0  0  0
  139.0590   71.7670  221.2830 C   0  0  0  0  0  0  0  0  0  0  0  0
  140.0810   70.8360  221.8010 C   0  0  0  0  0  0  0  0  0  0  0  0
  139.9790   70.6420  223.2550 C   0  0  0  0  0  0  0  0  0  0  0  0
  139.2070   69.5930  223.7130 C   0  0  0  0  0  0  0  0  0  0  0  0
  139.0600   69.2900  225.0510 C   0  0  0  0  0  0  0  0  0  0  0  0
  139.7070   70.0630  225.9900 C   0  0  0  0  0  0  0  0  0  0  0  0
  139.5630   69.7640  227.3290 C   0  0  0  0  0  0  0  0  0  0  0  0
  140.2110   70.5380  228.2700 C   0  0  0  0  0  0  0  0  0  0  0  0
  140.9980   71.6070  227.8460 C   0  0  0  0  0  0  0  0  0  0  0  0
  141.1450   71.9080  226.5010 C   0  0  0  0  0  0  0  0  0  0  0  0
  140.4870   71.1220  225.5610 C   0  0  0  0  0  0  0  0  0  0  0  0
  140.6230   71.4090  224.2030 C   0  0  0  0  0  0  0  0  0  0  0  0
  138.3850   76.0850  220.5140 C   0  0  0  0  0  0  0  0  0  0  0  0
  138.8100   77.4100  221.0710 C   0  0  0  0  0  0  0  0  0  0  0  0
  143.0199   80.9231  224.4438 H   0  0  0  0  0  0  0  0  0  0  0  0
  143.8012   80.4743  222.8899 H   0  0  0  0  0  0  0  0  0  0  0  0
  142.1765   81.2404  222.8899 H   0  0  0  0  0  0  0  0  0  0  0  0
  142.8742   78.4229  223.0684 H   0  0  0  0  0  0  0  0  0  0  0  0
  141.9871   78.9103  224.5428 H   0  0  0  0  0  0  0  0  0  0  0  0
  142.1232   77.7628  219.3090 H   0  0  0  0  0  0  0  0  0  0  0  0
  143.0639   79.0307  217.4110 H   0  0  0  0  0  0  0  0  0  0  0  0
  142.8706   81.5011  217.3485 H   0  0  0  0  0  0  0  0  0  0  0  0
  141.7273   82.7033  219.2074 H   0  0  0  0  0  0  0  0  0  0  0  0
  140.7834   81.4199  221.1128 H   0  0  0  0  0  0  0  0  0  0  0  0
  140.7750   77.1536  220.1538 H   0  0  0  0  0  0  0  0  0  0  0  0
  141.7953   76.4515  222.3532 H   0  0  0  0  0  0  0  0  0  0  0  0
  140.1587   76.5731  223.0803 H   0  0  0  0  0  0  0  0  0  0  0  0
  140.9786   74.7756  220.7200 H   0  0  0  0  0  0  0  0  0  0  0  0
  140.5931   74.2251  222.3729 H   0  0  0  0  0  0  0  0  0  0  0  0
  139.3079   72.8771  223.1156 H   0  0  0  0  0  0  0  0  0  0  0  0
  137.2020   72.5290  223.9380 H   0  0  0  0  0  0  0  0  0  0  0  0
  136.5380   72.0750  222.4120 H   0  0  0  0  0  0  0  0  0  0  0  0
  138.2198   71.1831  220.8771 H   0  0  0  0  0  0  0  0  0  0  0  0
  139.5272   72.3858  220.5033 H   0  0  0  0  0  0  0  0  0  0  0  0
  139.9550   69.8622  221.3052 H   0  0  0  0  0  0  0  0  0  0  0  0
  141.0686   71.2718  221.5899 H   0  0  0  0  0  0  0  0  0  0  0  0
  138.6833   68.9680  222.9747 H   0  0  0  0  0  0  0  0  0  0  0  0
  138.4338   68.4416  225.3641 H   0  0  0  0  0  0  0  0  0  0  0  0
  138.9371   68.9160  227.6439 H   0  0  0  0  0  0  0  0  0  0  0  0
  140.1075   70.3138  229.3419 H   0  0  0  0  0  0  0  0  0  0  0  0
  141.5139   72.2256  228.5952 H   0  0  0  0  0  0  0  0  0  0  0  0
  141.7715   72.7542  226.1825 H   0  0  0  0  0  0  0  0  0  0  0  0
  141.2499   72.2551  223.8851 H   0  0  0  0  0  0  0  0  0  0  0  0
  138.7192   76.0134  219.4685 H   0  0  0  0  0  0  0  0  0  0  0  0
  137.2890   76.0188  220.5812 H   0  0  0  0  0  0  0  0  0  0  0  0
  138.4570   78.2224  220.4188 H   0  0  0  0  0  0  0  0  0  0  0  0
  138.3829   77.5646  222.0728 H   0  0  0  0  0  0  0  0  0  0  0  0
  1  2  1  0
  2  3  1  0
  3  4  2  0
  3  5  1  0
  5  6  1  0
  6  7  2  0
  7  8  1  0
  8  9  2  0
  9 10  1  0
 10 11  2  0
  5 12  1  0
 12 13  1  0
 13 14  1  0
 14 15  1  0
 15 16  1  0
 16 17  2  0
 16 18  1  0
 18 19  1  0
 18 20  1  0
 20 21  1  0
 21 22  1  0
 22 23  2  0
 23 24  1  0
 24 25  2  0
 25 26  1  0
 26 27  2  0
 27 28  1  0
 28 29  2  0
 29 30  1  0
 30 31  2  0
 15 32  1  0
 32 33  1  0
 11  6  1  0
 33 12  1  0
 31 22  1  0
 30 25  1  0
  1 34  1  0
  1 35  1  0
  1 36  1  0
  2 37  1  0
  2 38  1  0
  7 39  1  0
  8 40  1  0
  9 41  1  0
 10 42  1  0
 11 43  1  0
 12 44  1  0
 13 45  1  0
 13 46  1  0
 14 47  1  0
 14 48  1  0
 18 49  1  1
 19 50  1  0
 19 51  1  0
 20 52  1  0
 20 53  1  0
 21 54  1  0
 21 55  1  0
 23 56  1  0
 24 57  1  0
 26 58  1  0
 27 59  1  0
 28 60  1  0
 29 61  1  0
 31 62  1  0
 32 63  1  0
 32 64  1  0
 33 65  1  0
 33 66  1  0
M  END
>  <smiles>  (40) 
CCC(=O)N(c1ccccc1)C1CCN(C(=O)[C@@H](N)CCc2ccc3ccccc3c2)CC1

>  <score_type>  (40) 
oracle

>  <origin>  (40) 
autodockgpu

>  <m_score__min__energy>  (40) 
-9.3800000000000008

>  <m_primary>  (40) 
energy

>  <rmsd>  (40) 
3.2572685332115423

>  <m_score__min__rmsd>  (40) 
3.2572685332115423

>  <meeko>  (40) 
{"free_energy": -8.34, "intermolecular_energy": -11.02, "internal_energy": -2.47, "cluster_size": 38, "cluster_id": 3, "rank_in_cluster": 31}

>  <energy>  (40) 
-8.34

>  <cluster_rmsd>  (40) 
1.54

>  <cluster>  (40) 
3

$$$$

     RDKit          3D

 66 69  0  0  0  0  0  0  0  0999 V2000
  141.8120   79.6860  216.9480 C   0  0  0  0  0  0  0  0  0  0  0  0
  142.5580   79.2190  218.1850 C   0  0  0  0  0  0  0  0  0  0  0  0
  142.0120   79.9460  219.3660 C   0  0  0  0  0  0  0  0  0  0  0  0
  141.8680   81.2100  219.3010 O   0  0  0  0  0  0  0  0  0  0  0  0
  141.6580   79.2370  220.5520 N   0  0  0  0  0  0  0  0  0  0  0  0
  141.7730   79.8960  221.7930 C   0  0  0  0  0  0  0  0  0  0  0  0
  140.6560   80.5930  222.2450 C   0  0  0  0  0  0  0  0  0  0  0  0
  140.6780   81.2660  223.4460 C   0  0  0  0  0  0  0  0  0  0  0  0
  141.8180   81.2560  224.2200 C   0  0  0  0  0  0  0  0  0  0  0  0
  142.9410   80.5660  223.7870 C   0  0  0  0  0  0  0  0  0  0  0  0
  142.9080   79.8900  222.5750 C   0  0  0  0  0  0  0  0  0  0  0  0
  141.1970   77.8890  220.4590 C   0  0  0  0  0  0  0  0  0  0  0  0
  140.9750   77.2300  221.7810 C   0  0  0  0  0  0  0  0  0  0  0  0
  140.8200   75.7170  221.5760 C   0  0  0  0  0  0  0  0  0  0  0  0
  139.7310   75.5030  220.6280 N   0  0  0  0  0  0  0  0  0  0  0  0
  138.7200   74.5310  220.8180 C   0  0  0  0  0  0  0  0  0  0  0  0
  137.7600   74.3780  220.0000 O   0  0  0  0  0  0  0  0  0  0  0  0
  138.6860   73.5940  221.9960 C   0  0  1  0  0  0  0  0  0  0  0  0
  137.2810   73.3640  222.3460 N   0  0  0  0  0  0  0  0  0  0  0  0
  139.3260   72.3270  221.5060 C   0  0  0  0  0  0  0  0  0  0  0  0
  140.5590   72.0060  222.2510 C   0  0  0  0  0  0  0  0  0  0  0  0
  140.2820   71.3780  223.5520 C   0  0  0  0  0  0  0  0  0  0  0  0
  139.5680   70.1970  223.5580 C   0  0  0  0  0  0  0  0  0  0  0  0
  139.2730   69.4970  224.7100 C   0  0  0  0  0  0  0  0  0  0  0  0
  139.7050   69.9890  225.9230 C   0  0  0  0  0  0  0  0  0  0  0  0
  139.4130   69.2930  227.0780 C   0  0  0  0  0  0  0  0  0  0  0  0
  139.8460   69.7840  228.2930 C   0  0  0  0  0  0  0  0  0  0  0  0
  140.5680   70.9750  228.3270 C   0  0  0  0  0  0  0  0  0  0  0  0
  140.8640   71.6750  227.1670 C   0  0  0  0  0  0  0  0  0  0  0  0
  140.4220   71.1710  225.9480 C   0  0  0  0  0  0  0  0  0  0  0  0
  140.7100   71.8610  224.7710 C   0  0  0  0  0  0  0  0  0  0  0  0
  139.6640   76.3020  219.4110 C   0  0  0  0  0  0  0  0  0  0  0  0
  139.8760   77.7580  219.6950 C   0  0  0  0  0  0  0  0  0  0  0  0
  140.9156   80.2472  217.2505 H   0  0  0  0  0  0  0  0  0  0  0  0
  142.4665   80.3359  216.3486 H   0  0  0  0  0  0  0  0  0  0  0  0
  141.5134   78.8133  216.3486 H   0  0  0  0  0  0  0  0  0  0  0  0
  142.4167   78.1362  218.3174 H   0  0  0  0  0  0  0  0  0  0  0  0
  143.6332   79.4251  218.0782 H   0  0  0  0  0  0  0  0  0  0  0  0
  139.7418   80.6063  221.6333 H   0  0  0  0  0  0  0  0  0  0  0  0
  139.7859   81.8114  223.7875 H   0  0  0  0  0  0  0  0  0  0  0  0
  141.8376   81.7940  225.1792 H   0  0  0  0  0  0  0  0  0  0  0  0
  143.8534   80.5546  224.4013 H   0  0  0  0  0  0  0  0  0  0  0  0
  143.7992   79.3425  222.2343 H   0  0  0  0  0  0  0  0  0  0  0  0
  142.0173   77.3914  219.9210 H   0  0  0  0  0  0  0  0  0  0  0  0
  141.8357   77.4252  222.4376 H   0  0  0  0  0  0  0  0  0  0  0  0
  140.0627   77.6336  222.2445 H   0  0  0  0  0  0  0  0  0  0  0  0
  141.7537   75.2965  221.1741 H   0  0  0  0  0  0  0  0  0  0  0  0
  140.5989   75.2209  222.5326 H   0  0  0  0  0  0  0  0  0  0  0  0
  139.2065   73.9804  222.8847 H   0  0  0  0  0  0  0  0  0  0  0  0
  137.1250   73.4500  223.3630 H   0  0  0  0  0  0  0  0  0  0  0  0
  136.6300   73.9190  221.7790 H   0  0  0  0  0  0  0  0  0  0  0  0
  138.6122   71.4988  221.6270 H   0  0  0  0  0  0  0  0  0  0  0  0
  139.5952   72.4693  220.4490 H   0  0  0  0  0  0  0  0  0  0  0  0
  141.1663   71.3152  221.6477 H   0  0  0  0  0  0  0  0  0  0  0  0
  141.0907   72.9500  222.4413 H   0  0  0  0  0  0  0  0  0  0  0  0
  139.2166   69.7937  222.5968 H   0  0  0  0  0  0  0  0  0  0  0  0
  138.7007   68.5589  224.6610 H   0  0  0  0  0  0  0  0  0  0  0  0
  138.8402   68.3551  227.0309 H   0  0  0  0  0  0  0  0  0  0  0  0
  139.6236   69.2413  229.2236 H   0  0  0  0  0  0  0  0  0  0  0  0
  140.9108   71.3688  229.2952 H   0  0  0  0  0  0  0  0  0  0  0  0
  141.4382   72.6123  227.2100 H   0  0  0  0  0  0  0  0  0  0  0  0
  141.2835   72.7986  224.8150 H   0  0  0  0  0  0  0  0  0  0  0  0
  140.4422   75.9572  218.7142 H   0  0  0  0  0  0  0  0  0  0  0  0
  138.6624   76.1790  218.9732 H   0  0  0  0  0  0  0  0  0  0  0  0
  139.9301   78.3210  218.7515 H   0  0  0  0  0  0  0  0  0  0  0  0
  139.0429   78.1629  220.2883 H   0  0  0  0  0  0  0  0  0  0  0  0
  1  2  1  0
  2  3  1  0
  3  4  2  0
  3  5  1  0
  5  6  1  0
  6  7  2  0
  7  8  1  0
  8  9  2  0
  9 10  1  0
 10 11  2  0
  5 12  1  0
 12 13  1  0
 13 14  1  0
 14 15  1  0
 15 16  1  0
 16 17  2  0
 16 18  1  0
 18 19  1  0
 18 20  1  0
 20 21  1  0
 21 22  1  0
 22 23  2  0
 23 24  1  0
 24 25  2  0
 25 26  1  0
 26 27  2  0
 27 28  1  0
 28 29  2  0
 29 30  1  0
 30 31  2  0
 15 32  1  0
 32 33  1  0
 11  6  1  0
 33 12  1  0
 31 22  1  0
 30 25  1  0
  1 34  1  0
  1 35  1  0
  1 36  1  0
  2 37  1  0
  2 38  1  0
  7 39  1  0
  8 40  1  0
  9 41  1  0
 10 42  1  0
 11 43  1  0
 12 44  1  0
 13 45  1  0
 13 46  1  0
 14 47  1  0
 14 48  1  0
 18 49  1  1
 19 50  1  0
 19 51  1  0
 20 52  1  0
 20 53  1  0
 21 54  1  0
 21 55  1  0
 23 56  1  0
 24 57  1  0
 26 58  1  0
 27 59  1  0
 28 60  1  0
 29 61  1  0
 31 62  1  0
 32 63  1  0
 32 64  1  0
 33 65  1  0
 33 66  1  0
M  END
>  <smiles>  (41) 
CCC(=O)N(c1ccccc1)C1CCN(C(=O)[C@@H](N)CCc2ccc3ccccc3c2)CC1

>  <score_type>  (41) 
oracle

>  <origin>  (41) 
autodockgpu

>  <m_score__min__energy>  (41) 
-9.3800000000000008

>  <m_primary>  (41) 
energy

>  <rmsd>  (41) 
3.5967892295006663

>  <m_score__min__rmsd>  (41) 
3.5967892295006663

>  <meeko>  (41) 
{"free_energy": -8.62, "intermolecular_energy": -11.3, "internal_energy": -2.36, "cluster_size": 38, "cluster_id": 3, "rank_in_cluster": 10}

>  <energy>  (41) 
-8.34

>  <cluster_rmsd>  (41) 
1.97

>  <cluster>  (41) 
3

$$$$

     RDKit          3D

 66 69  0  0  0  0  0  0  0  0999 V2000
  141.8830   80.3790  221.1790 C   0  0  0  0  0  0  0  0  0  0  0  0
  142.2120   80.5110  222.6560 C   0  0  0  0  0  0  0  0  0  0  0  0
  141.3490   79.5640  223.4160 C   0  0  0  0  0  0  0  0  0  0  0  0
  141.8490   78.9280  224.4010 O   0  0  0  0  0  0  0  0  0  0  0  0
  139.9850   79.3710  223.0470 N   0  0  0  0  0  0  0  0  0  0  0  0
  139.0500   80.3780  223.3640 C   0  0  0  0  0  0  0  0  0  0  0  0
  138.7480   81.2980  222.3630 C   0  0  0  0  0  0  0  0  0  0  0  0
  137.8460   82.3150  222.5840 C   0  0  0  0  0  0  0  0  0  0  0  0
  137.2280   82.4330  223.8090 C   0  0  0  0  0  0  0  0  0  0  0  0
  137.5160   81.5260  224.8190 C   0  0  0  0  0  0  0  0  0  0  0  0
  138.4260   80.5040  224.5860 C   0  0  0  0  0  0  0  0  0  0  0  0
  139.5980   78.1760  222.3690 C   0  0  0  0  0  0  0  0  0  0  0  0
  140.5100   77.0180  222.6100 C   0  0  0  0  0  0  0  0  0  0  0  0
  140.2100   75.9130  221.5880 C   0  0  0  0  0  0  0  0  0  0  0  0
  138.7940   75.5720  221.7010 N   0  0  0  0  0  0  0  0  0  0  0  0
  138.3190   74.2400  221.7280 C   0  0  0  0  0  0  0  0  0  0  0  0
  137.0870   73.9590  221.8600 O   0  0  0  0  0  0  0  0  0  0  0  0
  139.2200   73.0390  221.6060 C   0  0  1  0  0  0  0  0  0  0  0  0
  140.3190   73.2030  222.5620 N   0  0  0  0  0  0  0  0  0  0  0  0
  138.3590   71.8670  221.9820 C   0  0  0  0  0  0  0  0  0  0  0  0
  139.1450   70.6250  222.1230 C   0  0  0  0  0  0  0  0  0  0  0  0
  139.4000   70.2780  223.5300 C   0  0  0  0  0  0  0  0  0  0  0  0
  139.0270   69.0210  223.9610 C   0  0  0  0  0  0  0  0  0  0  0  0
  139.2410   68.5670  225.2460 C   0  0  0  0  0  0  0  0  0  0  0  0
  139.8560   69.3980  226.1570 C   0  0  0  0  0  0  0  0  0  0  0  0
  140.0730   68.9500  227.4430 C   0  0  0  0  0  0  0  0  0  0  0  0
  140.6900   69.7810  228.3570 C   0  0  0  0  0  0  0  0  0  0  0  0
  141.0790   71.0580  227.9580 C   0  0  0  0  0  0  0  0  0  0  0  0
  140.8630   71.5100  226.6660 C   0  0  0  0  0  0  0  0  0  0  0  0
  140.2410   70.6640  225.7540 C   0  0  0  0  0  0  0  0  0  0  0  0
  140.0150   71.1010  224.4490 C   0  0  0  0  0  0  0  0  0  0  0  0
  137.7990   76.6340  221.7730 C   0  0  0  0  0  0  0  0  0  0  0  0
  138.1960   77.6950  222.7540 C   0  0  0  0  0  0  0  0  0  0  0  0
  140.8676   79.9716  221.0645 H   0  0  0  0  0  0  0  0  0  0  0  0
  141.9371   81.3684  220.7014 H   0  0  0  0  0  0  0  0  0  0  0  0
  142.6060   79.7013  220.7014 H   0  0  0  0  0  0  0  0  0  0  0  0
  143.2710   80.2654  222.8242 H   0  0  0  0  0  0  0  0  0  0  0  0
  142.0302   81.5421  222.9932 H   0  0  0  0  0  0  0  0  0  0  0  0
  139.2371   81.2111  221.3815 H   0  0  0  0  0  0  0  0  0  0  0  0
  137.6192   83.0330  221.7821 H   0  0  0  0  0  0  0  0  0  0  0  0
  136.5073   83.2448  223.9866 H   0  0  0  0  0  0  0  0  0  0  0  0
  137.0256   81.6165  225.7995 H   0  0  0  0  0  0  0  0  0  0  0  0
  138.6519   79.7852  225.3875 H   0  0  0  0  0  0  0  0  0  0  0  0
  139.6382   78.4764  221.3116 H   0  0  0  0  0  0  0  0  0  0  0  0
  141.5548   77.3446  222.5016 H   0  0  0  0  0  0  0  0  0  0  0  0
  140.3520   76.6308  223.6274 H   0  0  0  0  0  0  0  0  0  0  0  0
  140.4280   76.2739  220.5720 H   0  0  0  0  0  0  0  0  0  0  0  0
  140.8347   75.0290  221.7837 H   0  0  0  0  0  0  0  0  0  0  0  0
  139.6503   72.9074  220.6022 H   0  0  0  0  0  0  0  0  0  0  0  0
  139.9680   73.3790  223.5170 H   0  0  0  0  0  0  0  0  0  0  0  0
  141.0130   72.4490  222.5090 H   0  0  0  0  0  0  0  0  0  0  0  0
  137.8628   72.0837  222.9395 H   0  0  0  0  0  0  0  0  0  0  0  0
  137.6239   71.7141  221.1781 H   0  0  0  0  0  0  0  0  0  0  0  0
  138.5903   69.8006  221.6510 H   0  0  0  0  0  0  0  0  0  0  0  0
  140.1181   70.7874  221.6365 H   0  0  0  0  0  0  0  0  0  0  0  0
  138.5345   68.3476  223.2441 H   0  0  0  0  0  0  0  0  0  0  0  0
  138.9249   67.5551  225.5395 H   0  0  0  0  0  0  0  0  0  0  0  0
  139.7571   67.9386  227.7384 H   0  0  0  0  0  0  0  0  0  0  0  0
  140.8720   69.4393  229.3866 H   0  0  0  0  0  0  0  0  0  0  0  0
  141.5687   71.7225  228.6851 H   0  0  0  0  0  0  0  0  0  0  0  0
  141.1781   72.5206  226.3668 H   0  0  0  0  0  0  0  0  0  0  0  0
  140.3304   72.1116  224.1504 H   0  0  0  0  0  0  0  0  0  0  0  0
  137.6908   77.0901  220.7779 H   0  0  0  0  0  0  0  0  0  0  0  0
  136.8484   76.1933  222.1081 H   0  0  0  0  0  0  0  0  0  0  0  0
  137.4855   78.5335  222.7084 H   0  0  0  0  0  0  0  0  0  0  0  0
  138.1909   77.2964  223.7792 H   0  0  0  0  0  0  0  0  0  0  0  0
  1  2  1  0
  2  3  1  0
  3  4  2  0
  3  5  1  0
  5  6  1  0
  6  7  2  0
  7  8  1  0
  8  9  2  0
  9 10  1  0
 10 11  2  0
  5 12  1  0
 12 13  1  0
 13 14  1  0
 14 15  1  0
 15 16  1  0
 16 17  2  0
 16 18  1  0
 18 19  1  0
 18 20  1  0
 20 21  1  0
 21 22  1  0
 22 23  2  0
 23 24  1  0
 24 25  2  0
 25 26  1  0
 26 27  2  0
 27 28  1  0
 28 29  2  0
 29 30  1  0
 30 31  2  0
 15 32  1  0
 32 33  1  0
 11  6  1  0
 33 12  1  0
 31 22  1  0
 30 25  1  0
  1 34  1  0
  1 35  1  0
  1 36  1  0
  2 37  1  0
  2 38  1  0
  7 39  1  0
  8 40  1  0
  9 41  1  0
 10 42  1  0
 11 43  1  0
 12 44  1  0
 13 45  1  0
 13 46  1  0
 14 47  1  0
 14 48  1  0
 18 49  1  6
 19 50  1  0
 19 51  1  0
 20 52  1  0
 20 53  1  0
 21 54  1  0
 21 55  1  0
 23 56  1  0
 24 57  1  0
 26 58  1  0
 27 59  1  0
 28 60  1  0
 29 61  1  0
 31 62  1  0
 32 63  1  0
 32 64  1  0
 33 65  1  0
 33 66  1  0
M  END
>  <smiles>  (42) 
CCC(=O)N(c1ccccc1)C1CCN(C(=O)[C@@H](N)CCc2ccc3ccccc3c2)CC1

>  <score_type>  (42) 
oracle

>  <origin>  (42) 
autodockgpu

>  <m_score__min__energy>  (42) 
-9.3800000000000008

>  <m_primary>  (42) 
energy

>  <rmsd>  (42) 
3.2899309754596007

>  <m_score__min__rmsd>  (42) 
3.2899309754596007

>  <meeko>  (42) 
{"free_energy": -9.17, "intermolecular_energy": -11.86, "internal_energy": -1.55, "cluster_size": 6, "cluster_id": 1, "rank_in_cluster": 2}

>  <energy>  (42) 
-8.34

>  <cluster_rmsd>  (42) 
1.76

>  <cluster>  (42) 
3

$$$$

     RDKit          3D

 66 69  0  0  0  0  0  0  0  0999 V2000
  142.2420   80.7400  218.6310 C   0  0  0  0  0  0  0  0  0  0  0  0
  141.9380   79.2700  218.8590 C   0  0  0  0  0  0  0  0  0  0  0  0
  140.8680   79.1660  219.8900 C   0  0  0  0  0  0  0  0  0  0  0  0
  139.6910   79.5580  219.6010 O   0  0  0  0  0  0  0  0  0  0  0  0
  141.1580   78.6350  221.1830 N   0  0  0  0  0  0  0  0  0  0  0  0
  141.6260   79.5110  222.1840 C   0  0  0  0  0  0  0  0  0  0  0  0
  140.6820   80.3280  222.8000 C   0  0  0  0  0  0  0  0  0  0  0  0
  141.0490   81.2150  223.7880 C   0  0  0  0  0  0  0  0  0  0  0  0
  142.3670   81.3030  224.1790 C   0  0  0  0  0  0  0  0  0  0  0  0
  143.3220   80.4960  223.5770 C   0  0  0  0  0  0  0  0  0  0  0  0
  142.9420   79.6060  222.5830 C   0  0  0  0  0  0  0  0  0  0  0  0
  140.9690   77.2430  221.4340 C   0  0  0  0  0  0  0  0  0  0  0  0
  139.5690   76.7700  221.2140 C   0  0  0  0  0  0  0  0  0  0  0  0
  139.4010   75.3750  221.8320 C   0  0  0  0  0  0  0  0  0  0  0  0
  140.4100   74.5010  221.2420 N   0  0  0  0  0  0  0  0  0  0  0  0
  140.1270   73.1930  220.7810 C   0  0  0  0  0  0  0  0  0  0  0  0
  141.0100   72.4550  220.2410 O   0  0  0  0  0  0  0  0  0  0  0  0
  138.7660   72.5560  220.8860 C   0  0  1  0  0  0  0  0  0  0  0  0
  138.7680   71.3540  220.0480 N   0  0  0  0  0  0  0  0  0  0  0  0
  138.6160   72.1940  222.3360 C   0  0  0  0  0  0  0  0  0  0  0  0
  139.9180   72.1320  223.0280 C   0  0  0  0  0  0  0  0  0  0  0  0
  139.9400   71.1190  224.0950 C   0  0  0  0  0  0  0  0  0  0  0  0
  139.3740   69.8890  223.8270 C   0  0  0  0  0  0  0  0  0  0  0  0
  139.3600   68.8490  224.7330 C   0  0  0  0  0  0  0  0  0  0  0  0
  139.9360   69.0310  225.9720 C   0  0  0  0  0  0  0  0  0  0  0  0
  139.9250   67.9940  226.8820 C   0  0  0  0  0  0  0  0  0  0  0  0
  140.5020   68.1750  228.1230 C   0  0  0  0  0  0  0  0  0  0  0  0
  141.0820   69.4040  228.4300 C   0  0  0  0  0  0  0  0  0  0  0  0
  141.0950   70.4470  227.5160 C   0  0  0  0  0  0  0  0  0  0  0  0
  140.5100   70.2530  226.2690 C   0  0  0  0  0  0  0  0  0  0  0  0
  140.5130   71.2900  225.3370 C   0  0  0  0  0  0  0  0  0  0  0  0
  141.7880   74.9620  221.1250 C   0  0  0  0  0  0  0  0  0  0  0  0
  141.8580   76.3500  220.5640 C   0  0  0  0  0  0  0  0  0  0  0  0
  142.3470   81.2475  219.6013 H   0  0  0  0  0  0  0  0  0  0  0  0
  143.1792   80.8369  218.0633 H   0  0  0  0  0  0  0  0  0  0  0  0
  141.4201   81.2006  218.0633 H   0  0  0  0  0  0  0  0  0  0  0  0
  141.5949   78.8115  217.9198 H   0  0  0  0  0  0  0  0  0  0  0  0
  142.8429   78.7450  219.1989 H   0  0  0  0  0  0  0  0  0  0  0  0
  139.6276   80.2643  222.4933 H   0  0  0  0  0  0  0  0  0  0  0  0
  140.2899   81.8528  224.2645 H   0  0  0  0  0  0  0  0  0  0  0  0
  142.6619   82.0117  224.9670 H   0  0  0  0  0  0  0  0  0  0  0  0
  144.3755   80.5617  223.8865 H   0  0  0  0  0  0  0  0  0  0  0  0
  143.7009   78.9677  222.1069 H   0  0  0  0  0  0  0  0  0  0  0  0
  141.2362   77.1527  222.4972 H   0  0  0  0  0  0  0  0  0  0  0  0
  138.8659   77.4696  221.6897 H   0  0  0  0  0  0  0  0  0  0  0  0
  139.3620   76.7219  220.1347 H   0  0  0  0  0  0  0  0  0  0  0  0
  139.5434   75.4288  222.9214 H   0  0  0  0  0  0  0  0  0  0  0  0
  138.3917   74.9856  221.6329 H   0  0  0  0  0  0  0  0  0  0  0  0
  137.9440   73.2079  220.5554 H   0  0  0  0  0  0  0  0  0  0  0  0
  139.3700   71.4720  219.2170 H   0  0  0  0  0  0  0  0  0  0  0  0
  138.9560   70.4960  220.5770 H   0  0  0  0  0  0  0  0  0  0  0  0
  137.9881   72.9514  222.8280 H   0  0  0  0  0  0  0  0  0  0  0  0
  138.1541   71.1972  222.3913 H   0  0  0  0  0  0  0  0  0  0  0  0
  140.6976   71.8864  222.2919 H   0  0  0  0  0  0  0  0  0  0  0  0
  140.0967   73.1125  223.4935 H   0  0  0  0  0  0  0  0  0  0  0  0
  138.9110   69.7302  222.8419 H   0  0  0  0  0  0  0  0  0  0  0  0
  138.8954   67.8872  224.4703 H   0  0  0  0  0  0  0  0  0  0  0  0
  139.4606   67.0316  226.6210 H   0  0  0  0  0  0  0  0  0  0  0  0
  140.5038   67.3588  228.8605 H   0  0  0  0  0  0  0  0  0  0  0  0
  141.5399   69.5503  229.4194 H   0  0  0  0  0  0  0  0  0  0  0  0
  141.5596   71.4105  227.7726 H   0  0  0  0  0  0  0  0  0  0  0  0
  140.9769   72.2534  225.5952 H   0  0  0  0  0  0  0  0  0  0  0  0
  142.2527   74.9558  222.1220 H   0  0  0  0  0  0  0  0  0  0  0  0
  142.3207   74.2860  220.4400 H   0  0  0  0  0  0  0  0  0  0  0  0
  142.8958   76.7138  220.5899 H   0  0  0  0  0  0  0  0  0  0  0  0
  141.5159   76.3633  219.5186 H   0  0  0  0  0  0  0  0  0  0  0  0
  1  2  1  0
  2  3  1  0
  3  4  2  0
  3  5  1  0
  5  6  1  0
  6  7  2  0
  7  8  1  0
  8  9  2  0
  9 10  1  0
 10 11  2  0
  5 12  1  0
 12 13  1  0
 13 14  1  0
 14 15  1  0
 15 16  1  0
 16 17  2  0
 16 18  1  0
 18 19  1  0
 18 20  1  0
 20 21  1  0
 21 22  1  0
 22 23  2  0
 23 24  1  0
 24 25  2  0
 25 26  1  0
 26 27  2  0
 27 28  1  0
 28 29  2  0
 29 30  1  0
 30 31  2  0
 15 32  1  0
 32 33  1  0
 11  6  1  0
 33 12  1  0
 31 22  1  0
 30 25  1  0
  1 34  1  0
  1 35  1  0
  1 36  1  0
  2 37  1  0
  2 38  1  0
  7 39  1  0
  8 40  1  0
  9 41  1  0
 10 42  1  0
 11 43  1  0
 12 44  1  0
 13 45  1  0
 13 46  1  0
 14 47  1  0
 14 48  1  0
 18 49  1  6
 19 50  1  0
 19 51  1  0
 20 52  1  0
 20 53  1  0
 21 54  1  0
 21 55  1  0
 23 56  1  0
 24 57  1  0
 26 58  1  0
 27 59  1  0
 28 60  1  0
 29 61  1  0
 31 62  1  0
 32 63  1  0
 32 64  1  0
 33 65  1  0
 33 66  1  0
M  END
>  <smiles>  (43) 
CCC(=O)N(c1ccccc1)C1CCN(C(=O)[C@@H](N)CCc2ccc3ccccc3c2)CC1

>  <score_type>  (43) 
oracle

>  <origin>  (43) 
autodockgpu

>  <m_score__min__energy>  (43) 
-9.3800000000000008

>  <m_primary>  (43) 
energy

>  <rmsd>  (43) 
3.231841674329696

>  <m_score__min__rmsd>  (43) 
3.231841674329696

>  <meeko>  (43) 
{"free_energy": -8.44, "intermolecular_energy": -11.12, "internal_energy": -2.42, "cluster_size": 38, "cluster_id": 3, "rank_in_cluster": 25}

>  <energy>  (43) 
-8.33

>  <cluster_rmsd>  (43) 
1.69

>  <cluster>  (43) 
3

$$$$

     RDKit          3D

 66 69  0  0  0  0  0  0  0  0999 V2000
  142.4320   81.1180  223.8490 C   0  0  0  0  0  0  0  0  0  0  0  0
  142.5650   79.6700  223.4100 C   0  0  0  0  0  0  0  0  0  0  0  0
  141.2300   79.1920  222.9550 C   0  0  0  0  0  0  0  0  0  0  0  0
  140.2760   79.1280  223.7980 O   0  0  0  0  0  0  0  0  0  0  0  0
  141.0220   78.8090  221.5960 N   0  0  0  0  0  0  0  0  0  0  0  0
  141.3640   79.7220  220.5770 C   0  0  0  0  0  0  0  0  0  0  0  0
  141.9460   79.1960  219.4270 C   0  0  0  0  0  0  0  0  0  0  0  0
  142.3130   80.0130  218.3810 C   0  0  0  0  0  0  0  0  0  0  0  0
  142.1050   81.3730  218.4640 C   0  0  0  0  0  0  0  0  0  0  0  0
  141.5260   81.9150  219.6020 C   0  0  0  0  0  0  0  0  0  0  0  0
  141.1600   81.0830  220.6510 C   0  0  0  0  0  0  0  0  0  0  0  0
  140.4800   77.5220  221.2990 C   0  0  0  0  0  0  0  0  0  0  0  0
  140.7750   76.4850  222.3320 C   0  0  0  0  0  0  0  0  0  0  0  0
  140.4560   75.0950  221.7620 C   0  0  0  0  0  0  0  0  0  0  0  0
  139.0630   75.1010  221.3230 N   0  0  0  0  0  0  0  0  0  0  0  0
  138.1590   74.0510  221.6060 C   0  0  0  0  0  0  0  0  0  0  0  0
  136.9410   74.0850  221.2440 O   0  0  0  0  0  0  0  0  0  0  0  0
  138.5490   72.8040  222.3550 C   0  0  1  0  0  0  0  0  0  0  0  0
  137.3290   72.2210  222.9210 N   0  0  0  0  0  0  0  0  0  0  0  0
  139.1410   71.8940  221.3170 C   0  0  0  0  0  0  0  0  0  0  0  0
  140.2700   71.1070  221.8500 C   0  0  0  0  0  0  0  0  0  0  0  0
  140.1170   70.8040  223.2820 C   0  0  0  0  0  0  0  0  0  0  0  0
  139.3520   69.7100  223.6310 C   0  0  0  0  0  0  0  0  0  0  0  0
  139.1610   69.3070  224.9370 C   0  0  0  0  0  0  0  0  0  0  0  0
  139.7560   70.0210  225.9540 C   0  0  0  0  0  0  0  0  0  0  0  0
  139.5680   69.6220  227.2610 C   0  0  0  0  0  0  0  0  0  0  0  0
  140.1640   70.3370  228.2800 C   0  0  0  0  0  0  0  0  0  0  0  0
  140.9430   71.4490  227.9660 C   0  0  0  0  0  0  0  0  0  0  0  0
  141.1340   71.8500  226.6530 C   0  0  0  0  0  0  0  0  0  0  0  0
  140.5280   71.1230  225.6340 C   0  0  0  0  0  0  0  0  0  0  0  0
  140.7090   71.5120  224.3070 C   0  0  0  0  0  0  0  0  0  0  0  0
  138.5570   76.2210  220.5400 C   0  0  0  0  0  0  0  0  0  0  0  0
  138.9570   77.5370  221.1370 C   0  0  0  0  0  0  0  0  0  0  0  0
  142.4273   81.1691  224.9478 H   0  0  0  0  0  0  0  0  0  0  0  0
  143.2806   81.6989  223.4586 H   0  0  0  0  0  0  0  0  0  0  0  0
  141.4918   81.5346  223.4586 H   0  0  0  0  0  0  0  0  0  0  0  0
  143.2871   79.5973  222.5834 H   0  0  0  0  0  0  0  0  0  0  0  0
  142.9222   79.0526  224.2474 H   0  0  0  0  0  0  0  0  0  0  0  0
  142.1152   78.1116  219.3527 H   0  0  0  0  0  0  0  0  0  0  0  0
  142.7719   79.5805  217.4797 H   0  0  0  0  0  0  0  0  0  0  0  0
  142.3975   82.0272  217.6295 H   0  0  0  0  0  0  0  0  0  0  0  0
  141.3576   82.9997  219.6728 H   0  0  0  0  0  0  0  0  0  0  0  0
  140.7014   81.5153  221.5526 H   0  0  0  0  0  0  0  0  0  0  0  0
  140.9772   77.2637  220.3524 H   0  0  0  0  0  0  0  0  0  0  0  0
  141.8387   76.5336  222.6080 H   0  0  0  0  0  0  0  0  0  0  0  0
  140.1579   76.6678  223.2241 H   0  0  0  0  0  0  0  0  0  0  0  0
  141.1162   74.8800  220.9088 H   0  0  0  0  0  0  0  0  0  0  0  0
  140.6143   74.3206  222.5270 H   0  0  0  0  0  0  0  0  0  0  0  0
  139.2608   72.9833  223.1742 H   0  0  0  0  0  0  0  0  0  0  0  0
  137.1090   72.6260  223.8450 H   0  0  0  0  0  0  0  0  0  0  0  0
  136.5390   72.2290  222.2660 H   0  0  0  0  0  0  0  0  0  0  0  0
  138.3613   71.2026  220.9647 H   0  0  0  0  0  0  0  0  0  0  0  0
  139.5206   72.5184  220.4948 H   0  0  0  0  0  0  0  0  0  0  0  0
  140.3343   70.1603  221.2936 H   0  0  0  0  0  0  0  0  0  0  0  0
  141.1835   71.7081  221.7304 H   0  0  0  0  0  0  0  0  0  0  0  0
  138.8709   69.1308  222.8291 H   0  0  0  0  0  0  0  0  0  0  0  0
  138.5414   68.4267  225.1632 H   0  0  0  0  0  0  0  0  0  0  0  0
  138.9487   68.7420  227.4890 H   0  0  0  0  0  0  0  0  0  0  0  0
  140.0257   70.0326  229.3280 H   0  0  0  0  0  0  0  0  0  0  0  0
  141.4165   72.0209  228.7776 H   0  0  0  0  0  0  0  0  0  0  0  0
  141.7543   72.7283  226.4209 H   0  0  0  0  0  0  0  0  0  0  0  0
  141.3290   72.3907  224.0759 H   0  0  0  0  0  0  0  0  0  0  0  0
  138.9613   76.1545  219.5191 H   0  0  0  0  0  0  0  0  0  0  0  0
  137.4584   76.1666  220.5317 H   0  0  0  0  0  0  0  0  0  0  0  0
  138.6579   78.3590  220.4700 H   0  0  0  0  0  0  0  0  0  0  0  0
  138.4644   77.6886  222.1088 H   0  0  0  0  0  0  0  0  0  0  0  0
  1  2  1  0
  2  3  1  0
  3  4  2  0
  3  5  1  0
  5  6  1  0
  6  7  2  0
  7  8  1  0
  8  9  2  0
  9 10  1  0
 10 11  2  0
  5 12  1  0
 12 13  1  0
 13 14  1  0
 14 15  1  0
 15 16  1  0
 16 17  2  0
 16 18  1  0
 18 19  1  0
 18 20  1  0
 20 21  1  0
 21 22  1  0
 22 23  2  0
 23 24  1  0
 24 25  2  0
 25 26  1  0
 26 27  2  0
 27 28  1  0
 28 29  2  0
 29 30  1  0
 30 31  2  0
 15 32  1  0
 32 33  1  0
 11  6  1  0
 33 12  1  0
 31 22  1  0
 30 25  1  0
  1 34  1  0
  1 35  1  0
  1 36  1  0
  2 37  1  0
  2 38  1  0
  7 39  1  0
  8 40  1  0
  9 41  1  0
 10 42  1  0
 11 43  1  0
 12 44  1  0
 13 45  1  0
 13 46  1  0
 14 47  1  0
 14 48  1  0
 18 49  1  1
 19 50  1  0
 19 51  1  0
 20 52  1  0
 20 53  1  0
 21 54  1  0
 21 55  1  0
 23 56  1  0
 24 57  1  0
 26 58  1  0
 27 59  1  0
 28 60  1  0
 29 61  1  0
 31 62  1  0
 32 63  1  0
 32 64  1  0
 33 65  1  0
 33 66  1  0
M  END
>  <smiles>  (44) 
CCC(=O)N(c1ccccc1)C1CCN(C(=O)[C@@H](N)CCc2ccc3ccccc3c2)CC1

>  <score_type>  (44) 
oracle

>  <origin>  (44) 
autodockgpu

>  <m_score__min__energy>  (44) 
-9.3800000000000008

>  <m_primary>  (44) 
energy

>  <rmsd>  (44) 
3.324675190604108

>  <m_score__min__rmsd>  (44) 
3.324675190604108

>  <meeko>  (44) 
{"free_energy": -8.44, "intermolecular_energy": -11.12, "internal_energy": -2.51, "cluster_size": 38, "cluster_id": 3, "rank_in_cluster": 24}

>  <energy>  (44) 
-8.33

>  <cluster_rmsd>  (44) 
1.75

>  <cluster>  (44) 
3

$$$$

     RDKit          3D

 66 69  0  0  0  0  0  0  0  0999 V2000
  142.5960   78.3750  217.6180 C   0  0  0  0  0  0  0  0  0  0  0  0
  142.2260   79.4230  218.6520 C   0  0  0  0  0  0  0  0  0  0  0  0
  141.0930   78.9010  219.4650 C   0  0  0  0  0  0  0  0  0  0  0  0
  139.9340   78.8340  218.9390 O   0  0  0  0  0  0  0  0  0  0  0  0
  141.3010   78.4830  220.8140 N   0  0  0  0  0  0  0  0  0  0  0  0
  141.5850   79.4620  221.7890 C   0  0  0  0  0  0  0  0  0  0  0  0
  142.2210   79.0310  222.9500 C   0  0  0  0  0  0  0  0  0  0  0  0
  142.5370   79.9170  223.9560 C   0  0  0  0  0  0  0  0  0  0  0  0
  142.2240   81.2520  223.8210 C   0  0  0  0  0  0  0  0  0  0  0  0
  141.5910   81.7010  222.6700 C   0  0  0  0  0  0  0  0  0  0  0  0
  141.2770   80.7990  221.6620 C   0  0  0  0  0  0  0  0  0  0  0  0
  141.2170   77.0970  221.1460 C   0  0  0  0  0  0  0  0  0  0  0  0
  139.8220   76.5630  221.1740 C   0  0  0  0  0  0  0  0  0  0  0  0
  139.8170   75.1910  221.8640 C   0  0  0  0  0  0  0  0  0  0  0  0
  140.7570   74.3300  221.1520 N   0  0  0  0  0  0  0  0  0  0  0  0
  140.4620   72.9940  220.7940 C   0  0  0  0  0  0  0  0  0  0  0  0
  141.2780   72.2660  220.1460 O   0  0  0  0  0  0  0  0  0  0  0  0
  139.1650   72.3120  221.1420 C   0  0  1  0  0  0  0  0  0  0  0  0
  139.1870   70.9740  220.5430 N   0  0  0  0  0  0  0  0  0  0  0  0
  139.1610   72.2230  222.6410 C   0  0  0  0  0  0  0  0  0  0  0  0
  140.5230   72.0700  223.1900 C   0  0  0  0  0  0  0  0  0  0  0  0
  140.5410   71.2990  224.4420 C   0  0  0  0  0  0  0  0  0  0  0  0
  141.0740   71.9040  225.5630 C   0  0  0  0  0  0  0  0  0  0  0  0
  141.1180   71.2960  226.8010 C   0  0  0  0  0  0  0  0  0  0  0  0
  140.6110   70.0230  226.9420 C   0  0  0  0  0  0  0  0  0  0  0  0
  140.6530   69.4110  228.1780 C   0  0  0  0  0  0  0  0  0  0  0  0
  140.1440   68.1360  228.3200 C   0  0  0  0  0  0  0  0  0  0  0  0
  139.6000   67.4930  227.2100 C   0  0  0  0  0  0  0  0  0  0  0  0
  139.5560   68.1070  225.9680 C   0  0  0  0  0  0  0  0  0  0  0  0
  140.0720   69.3910  225.8360 C   0  0  0  0  0  0  0  0  0  0  0  0
  140.0360   70.0260  224.5940 C   0  0  0  0  0  0  0  0  0  0  0  0
  142.0760   74.8380  220.7950 C   0  0  0  0  0  0  0  0  0  0  0  0
  141.9930   76.2000  220.1770 C   0  0  0  0  0  0  0  0  0  0  0  0
  142.9205   77.4557  218.1275 H   0  0  0  0  0  0  0  0  0  0  0  0
  141.7209   78.1559  216.9886 H   0  0  0  0  0  0  0  0  0  0  0  0
  143.4147   78.7539  216.9886 H   0  0  0  0  0  0  0  0  0  0  0  0
  143.0894   79.6234  219.3034 H   0  0  0  0  0  0  0  0  0  0  0  0
  141.9341   80.3592  218.1537 H   0  0  0  0  0  0  0  0  0  0  0  0
  142.4749   77.9670  223.0656 H   0  0  0  0  0  0  0  0  0  0  0  0
  143.0391   79.5590  224.8669 H   0  0  0  0  0  0  0  0  0  0  0  0
  142.4752   81.9608  224.6238 H   0  0  0  0  0  0  0  0  0  0  0  0
  141.3394   82.7659  222.5570 H   0  0  0  0  0  0  0  0  0  0  0  0
  140.7759   81.1565  220.7504 H   0  0  0  0  0  0  0  0  0  0  0  0
  141.6556   77.0640  222.1542 H   0  0  0  0  0  0  0  0  0  0  0  0
  139.1743   77.2564  221.7305 H   0  0  0  0  0  0  0  0  0  0  0  0
  139.4466   76.4592  220.1452 H   0  0  0  0  0  0  0  0  0  0  0  0
  140.1291   75.2987  222.9133 H   0  0  0  0  0  0  0  0  0  0  0  0
  138.8071   74.7553  221.8456 H   0  0  0  0  0  0  0  0  0  0  0  0
  138.2733   72.8419  220.7759 H   0  0  0  0  0  0  0  0  0  0  0  0
  138.8140   70.9840  219.5800 H   0  0  0  0  0  0  0  0  0  0  0  0
  140.0980   70.5110  220.6290 H   0  0  0  0  0  0  0  0  0  0  0  0
  138.7144   73.1413  223.0500 H   0  0  0  0  0  0  0  0  0  0  0  0
  138.5779   71.3352  222.9269 H   0  0  0  0  0  0  0  0  0  0  0  0
  141.1468   71.5514  222.4471 H   0  0  0  0  0  0  0  0  0  0  0  0
  140.9099   73.0758  223.4107 H   0  0  0  0  0  0  0  0  0  0  0  0
  141.4835   72.9202  225.4643 H   0  0  0  0  0  0  0  0  0  0  0  0
  141.5524   71.8213  227.6643 H   0  0  0  0  0  0  0  0  0  0  0  0
  141.0881   69.9344  229.0421 H   0  0  0  0  0  0  0  0  0  0  0  0
  140.1675   67.6333  229.2981 H   0  0  0  0  0  0  0  0  0  0  0  0
  139.1966   66.4758  227.3218 H   0  0  0  0  0  0  0  0  0  0  0  0
  139.1203   67.5872  225.1020 H   0  0  0  0  0  0  0  0  0  0  0  0
  139.6005   69.5056  223.7283 H   0  0  0  0  0  0  0  0  0  0  0  0
  142.6945   74.8949  221.7029 H   0  0  0  0  0  0  0  0  0  0  0  0
  142.5214   74.1525  220.0590 H   0  0  0  0  0  0  0  0  0  0  0  0
  143.0041   76.6034  220.0193 H   0  0  0  0  0  0  0  0  0  0  0  0
  141.4868   76.1533  219.2015 H   0  0  0  0  0  0  0  0  0  0  0  0
  1  2  1  0
  2  3  1  0
  3  4  2  0
  3  5  1  0
  5  6  1  0
  6  7  2  0
  7  8  1  0
  8  9  2  0
  9 10  1  0
 10 11  2  0
  5 12  1  0
 12 13  1  0
 13 14  1  0
 14 15  1  0
 15 16  1  0
 16 17  2  0
 16 18  1  0
 18 19  1  0
 18 20  1  0
 20 21  1  0
 21 22  1  0
 22 23  2  0
 23 24  1  0
 24 25  2  0
 25 26  1  0
 26 27  2  0
 27 28  1  0
 28 29  2  0
 29 30  1  0
 30 31  2  0
 15 32  1  0
 32 33  1  0
 11  6  1  0
 33 12  1  0
 31 22  1  0
 30 25  1  0
  1 34  1  0
  1 35  1  0
  1 36  1  0
  2 37  1  0
  2 38  1  0
  7 39  1  0
  8 40  1  0
  9 41  1  0
 10 42  1  0
 11 43  1  0
 12 44  1  0
 13 45  1  0
 13 46  1  0
 14 47  1  0
 14 48  1  0
 18 49  1  6
 19 50  1  0
 19 51  1  0
 20 52  1  0
 20 53  1  0
 21 54  1  0
 21 55  1  0
 23 56  1  0
 24 57  1  0
 26 58  1  0
 27 59  1  0
 28 60  1  0
 29 61  1  0
 31 62  1  0
 32 63  1  0
 32 64  1  0
 33 65  1  0
 33 66  1  0
M  END
>  <smiles>  (45) 
CCC(=O)N(c1ccccc1)C1CCN(C(=O)[C@@H](N)CCc2ccc3ccccc3c2)CC1

>  <score_type>  (45) 
oracle

>  <origin>  (45) 
autodockgpu

>  <m_score__min__energy>  (45) 
-9.3800000000000008

>  <m_primary>  (45) 
energy

>  <rmsd>  (45) 
3.1231154508391854

>  <m_score__min__rmsd>  (45) 
3.1231154508391854

>  <meeko>  (45) 
{"free_energy": -8.49, "intermolecular_energy": -11.18, "internal_energy": -2.41, "cluster_size": 38, "cluster_id": 3, "rank_in_cluster": 19}

>  <energy>  (45) 
-8.27

>  <cluster_rmsd>  (45) 
0.53

>  <cluster>  (45) 
3

$$$$

     RDKit          3D

 66 69  0  0  0  0  0  0  0  0999 V2000
  142.2560   80.5980  218.3620 C   0  0  0  0  0  0  0  0  0  0  0  0
  142.1560   79.1900  218.9210 C   0  0  0  0  0  0  0  0  0  0  0  0
  140.9750   79.1270  219.8270 C   0  0  0  0  0  0  0  0  0  0  0  0
  139.8390   79.5010  219.3890 O   0  0  0  0  0  0  0  0  0  0  0  0
  141.1150   78.6560  221.1660 N   0  0  0  0  0  0  0  0  0  0  0  0
  141.5050   79.5700  222.1680 C   0  0  0  0  0  0  0  0  0  0  0  0
  142.8610   79.6270  222.4780 C   0  0  0  0  0  0  0  0  0  0  0  0
  143.3310   80.4900  223.4430 C   0  0  0  0  0  0  0  0  0  0  0  0
  142.4550   81.3120  224.1170 C   0  0  0  0  0  0  0  0  0  0  0  0
  141.1000   81.2700  223.8220 C   0  0  0  0  0  0  0  0  0  0  0  0
  140.6360   80.3970  222.8470 C   0  0  0  0  0  0  0  0  0  0  0  0
  140.8600   77.2830  221.4640 C   0  0  0  0  0  0  0  0  0  0  0  0
  139.4110   76.9190  221.4540 C   0  0  0  0  0  0  0  0  0  0  0  0
  139.2280   75.5430  222.1100 C   0  0  0  0  0  0  0  0  0  0  0  0
  140.0740   74.5910  221.3950 N   0  0  0  0  0  0  0  0  0  0  0  0
  139.6290   73.3080  220.9990 C   0  0  0  0  0  0  0  0  0  0  0  0
  140.3660   72.5020  220.3490 O   0  0  0  0  0  0  0  0  0  0  0  0
  138.2530   72.7780  221.3070 C   0  0  1  0  0  0  0  0  0  0  0  0
  137.8910   71.8270  220.2520 N   0  0  0  0  0  0  0  0  0  0  0  0
  138.3910   72.0790  222.6290 C   0  0  0  0  0  0  0  0  0  0  0  0
  139.6350   71.2870  222.7090 C   0  0  0  0  0  0  0  0  0  0  0  0
  139.9950   70.9450  224.0930 C   0  0  0  0  0  0  0  0  0  0  0  0
  140.6870   71.8840  224.8300 C   0  0  0  0  0  0  0  0  0  0  0  0
  141.0530   71.6920  226.1470 C   0  0  0  0  0  0  0  0  0  0  0  0
  140.7200   70.5100  226.7710 C   0  0  0  0  0  0  0  0  0  0  0  0
  141.0840   70.3140  228.0870 C   0  0  0  0  0  0  0  0  0  0  0  0
  140.7490   69.1300  228.7130 C   0  0  0  0  0  0  0  0  0  0  0  0
  140.0520   68.1570  228.0000 C   0  0  0  0  0  0  0  0  0  0  0  0
  139.6850   68.3530  226.6780 C   0  0  0  0  0  0  0  0  0  0  0  0
  140.0270   69.5490  226.0570 C   0  0  0  0  0  0  0  0  0  0  0  0
  139.6660   69.7650  224.7270 C   0  0  0  0  0  0  0  0  0  0  0  0
  141.4510   74.9450  221.0750 C   0  0  0  0  0  0  0  0  0  0  0  0
  141.5440   76.3210  220.4880 C   0  0  0  0  0  0  0  0  0  0  0  0
  142.3072   81.3189  219.1912 H   0  0  0  0  0  0  0  0  0  0  0  0
  143.1625   80.6840  217.7449 H   0  0  0  0  0  0  0  0  0  0  0  0
  141.3707   80.8112  217.7449 H   0  0  0  0  0  0  0  0  0  0  0  0
  142.0315   78.4713  218.0976 H   0  0  0  0  0  0  0  0  0  0  0  0
  143.0718   78.9374  219.4755 H   0  0  0  0  0  0  0  0  0  0  0  0
  143.5671   78.9735  221.9447 H   0  0  0  0  0  0  0  0  0  0  0  0
  144.4057   80.5228  223.6754 H   0  0  0  0  0  0  0  0  0  0  0  0
  142.8294   82.0010  224.8884 H   0  0  0  0  0  0  0  0  0  0  0  0
  140.3970   81.9248  224.3577 H   0  0  0  0  0  0  0  0  0  0  0  0
  139.5615   80.3650  222.6135 H   0  0  0  0  0  0  0  0  0  0  0  0
  141.2703   77.1761  222.4790 H   0  0  0  0  0  0  0  0  0  0  0  0
  138.8391   77.6725  222.0154 H   0  0  0  0  0  0  0  0  0  0  0  0
  139.0476   76.8834  220.4164 H   0  0  0  0  0  0  0  0  0  0  0  0
  139.5281   75.5897  223.1672 H   0  0  0  0  0  0  0  0  0  0  0  0
  138.1741   75.2317  222.0619 H   0  0  0  0  0  0  0  0  0  0  0  0
  137.4779   73.5572  221.3519 H   0  0  0  0  0  0  0  0  0  0  0  0
  138.5050   71.9260  219.4270 H   0  0  0  0  0  0  0  0  0  0  0  0
  137.8080   70.8630  220.5930 H   0  0  0  0  0  0  0  0  0  0  0  0
  138.3977   72.8327  223.4302 H   0  0  0  0  0  0  0  0  0  0  0  0
  137.5414   71.3890  222.7388 H   0  0  0  0  0  0  0  0  0  0  0  0
  139.4980   70.3559  222.1395 H   0  0  0  0  0  0  0  0  0  0  0  0
  140.4489   71.8988  222.2927 H   0  0  0  0  0  0  0  0  0  0  0  0
  140.9605   72.8322  224.3441 H   0  0  0  0  0  0  0  0  0  0  0  0
  141.6037   72.4732  226.6915 H   0  0  0  0  0  0  0  0  0  0  0  0
  141.6359   71.0937  228.6325 H   0  0  0  0  0  0  0  0  0  0  0  0
  141.0291   68.9569  229.7625 H   0  0  0  0  0  0  0  0  0  0  0  0
  139.7871   67.2123  228.4973 H   0  0  0  0  0  0  0  0  0  0  0  0
  139.1327   67.5757  226.1295 H   0  0  0  0  0  0  0  0  0  0  0  0
  139.1140   68.9873  224.1789 H   0  0  0  0  0  0  0  0  0  0  0  0
  142.0524   74.9080  221.9953 H   0  0  0  0  0  0  0  0  0  0  0  0
  141.8272   74.2272  220.3312 H   0  0  0  0  0  0  0  0  0  0  0  0
  142.5991   76.6040  220.3586 H   0  0  0  0  0  0  0  0  0  0  0  0
  141.0567   76.3564  219.5025 H   0  0  0  0  0  0  0  0  0  0  0  0
  1  2  1  0
  2  3  1  0
  3  4  2  0
  3  5  1  0
  5  6  1  0
  6  7  2  0
  7  8  1  0
  8  9  2  0
  9 10  1  0
 10 11  2  0
  5 12  1  0
 12 13  1  0
 13 14  1  0
 14 15  1  0
 15 16  1  0
 16 17  2  0
 16 18  1  0
 18 19  1  0
 18 20  1  0
 20 21  1  0
 21 22  1  0
 22 23  2  0
 23 24  1  0
 24 25  2  0
 25 26  1  0
 26 27  2  0
 27 28  1  0
 28 29  2  0
 29 30  1  0
 30 31  2  0
 15 32  1  0
 32 33  1  0
 11  6  1  0
 33 12  1  0
 31 22  1  0
 30 25  1  0
  1 34  1  0
  1 35  1  0
  1 36  1  0
  2 37  1  0
  2 38  1  0
  7 39  1  0
  8 40  1  0
  9 41  1  0
 10 42  1  0
 11 43  1  0
 12 44  1  0
 13 45  1  0
 13 46  1  0
 14 47  1  0
 14 48  1  0
 18 49  1  1
 19 50  1  0
 19 51  1  0
 20 52  1  0
 20 53  1  0
 21 54  1  0
 21 55  1  0
 23 56  1  0
 24 57  1  0
 26 58  1  0
 27 59  1  0
 28 60  1  0
 29 61  1  0
 31 62  1  0
 32 63  1  0
 32 64  1  0
 33 65  1  0
 33 66  1  0
M  END
>  <smiles>  (46) 
CCC(=O)N(c1ccccc1)C1CCN(C(=O)[C@@H](N)CCc2ccc3ccccc3c2)CC1

>  <score_type>  (46) 
oracle

>  <origin>  (46) 
autodockgpu

>  <m_score__min__energy>  (46) 
-9.3800000000000008

>  <m_primary>  (46) 
energy

>  <rmsd>  (46) 
2.8768052764765106

>  <m_score__min__rmsd>  (46) 
2.8768052764765106

>  <meeko>  (46) 
{"free_energy": -8.58, "intermolecular_energy": -11.27, "internal_energy": -2.33, "cluster_size": 38, "cluster_id": 3, "rank_in_cluster": 14}

>  <energy>  (46) 
-8.25

>  <cluster_rmsd>  (46) 
1.41

>  <cluster>  (46) 
3

$$$$

     RDKit          3D

 66 69  0  0  0  0  0  0  0  0999 V2000
  136.6700   81.2310  225.1590 C   0  0  0  0  0  0  0  0  0  0  0  0
  138.0530   80.8540  224.6610 C   0  0  0  0  0  0  0  0  0  0  0  0
  137.9210   80.2870  223.2900 C   0  0  0  0  0  0  0  0  0  0  0  0
  136.8770   80.5550  222.6080 O   0  0  0  0  0  0  0  0  0  0  0  0
  138.9460   79.4570  222.7470 N   0  0  0  0  0  0  0  0  0  0  0  0
  140.2810   79.9090  222.7990 C   0  0  0  0  0  0  0  0  0  0  0  0
  141.0770   79.4130  223.8270 C   0  0  0  0  0  0  0  0  0  0  0  0
  142.3930   79.8000  223.9560 C   0  0  0  0  0  0  0  0  0  0  0  0
  142.9380   80.6920  223.0590 C   0  0  0  0  0  0  0  0  0  0  0  0
  142.1610   81.1970  222.0270 C   0  0  0  0  0  0  0  0  0  0  0  0
  140.8360   80.8000  221.9060 C   0  0  0  0  0  0  0  0  0  0  0  0
  138.6050   78.1960  222.1700 C   0  0  0  0  0  0  0  0  0  0  0  0
  139.6760   77.1620  222.2900 C   0  0  0  0  0  0  0  0  0  0  0  0
  139.3550   75.9860  221.3580 C   0  0  0  0  0  0  0  0  0  0  0  0
  138.0260   75.4920  221.7040 N   0  0  0  0  0  0  0  0  0  0  0  0
  137.7240   74.1160  221.8410 C   0  0  0  0  0  0  0  0  0  0  0  0
  136.5700   73.7010  222.1750 O   0  0  0  0  0  0  0  0  0  0  0  0
  138.7320   73.0220  221.6060 C   0  0  1  0  0  0  0  0  0  0  0  0
  139.9230   73.3290  222.4040 N   0  0  0  0  0  0  0  0  0  0  0  0
  138.0690   71.7680  222.1020 C   0  0  0  0  0  0  0  0  0  0  0  0
  139.0180   70.6410  222.1960 C   0  0  0  0  0  0  0  0  0  0  0  0
  139.3460   70.2970  223.5880 C   0  0  0  0  0  0  0  0  0  0  0  0
  139.1090   69.0030  224.0050 C   0  0  0  0  0  0  0  0  0  0  0  0
  139.4030   68.5510  225.2750 C   0  0  0  0  0  0  0  0  0  0  0  0
  139.9620   69.4230  226.1840 C   0  0  0  0  0  0  0  0  0  0  0  0
  140.2580   68.9760  227.4550 C   0  0  0  0  0  0  0  0  0  0  0  0
  140.8190   69.8480  228.3670 C   0  0  0  0  0  0  0  0  0  0  0  0
  141.0710   71.1640  227.9830 C   0  0  0  0  0  0  0  0  0  0  0  0
  140.7750   71.6140  226.7050 C   0  0  0  0  0  0  0  0  0  0  0  0
  140.2100   70.7260  225.7960 C   0  0  0  0  0  0  0  0  0  0  0  0
  139.9050   71.1610  224.5050 C   0  0  0  0  0  0  0  0  0  0  0  0
  136.9330   76.4340  221.9090 C   0  0  0  0  0  0  0  0  0  0  0  0
  137.3480   77.5760  222.7870 C   0  0  0  0  0  0  0  0  0  0  0  0
  136.6642   81.2326  226.2590 H   0  0  0  0  0  0  0  0  0  0  0  0
  136.4079   82.2334  224.7895 H   0  0  0  0  0  0  0  0  0  0  0  0
  135.9354   80.5003  224.7895 H   0  0  0  0  0  0  0  0  0  0  0  0
  138.6941   81.7474  224.6333 H   0  0  0  0  0  0  0  0  0  0  0  0
  138.5078   80.1125  225.3343 H   0  0  0  0  0  0  0  0  0  0  0  0
  140.6489   78.7009  224.5478 H   0  0  0  0  0  0  0  0  0  0  0  0
  143.0077   79.3971  224.7744 H   0  0  0  0  0  0  0  0  0  0  0  0
  143.9881   81.0034  223.1610 H   0  0  0  0  0  0  0  0  0  0  0  0
  142.5925   81.9087  221.3077 H   0  0  0  0  0  0  0  0  0  0  0  0
  140.2214   81.2018  221.0869 H   0  0  0  0  0  0  0  0  0  0  0  0
  138.4440   78.4513  221.1122 H   0  0  0  0  0  0  0  0  0  0  0  0
  140.6438   77.6014  222.0067 H   0  0  0  0  0  0  0  0  0  0  0  0
  139.7270   76.8044  223.3290 H   0  0  0  0  0  0  0  0  0  0  0  0
  139.3677   76.3239  220.3113 H   0  0  0  0  0  0  0  0  0  0  0  0
  140.1035   75.1884  221.4743 H   0  0  0  0  0  0  0  0  0  0  0  0
  139.0364   72.9186  220.5540 H   0  0  0  0  0  0  0  0  0  0  0  0
  139.6700   73.7240  223.3240 H   0  0  0  0  0  0  0  0  0  0  0  0
  140.5840   72.5470  222.4570 H   0  0  0  0  0  0  0  0  0  0  0  0
  137.6461   71.9603  223.0991 H   0  0  0  0  0  0  0  0  0  0  0  0
  137.2834   71.4918  221.3833 H   0  0  0  0  0  0  0  0  0  0  0  0
  138.5702   69.7611  221.7110 H   0  0  0  0  0  0  0  0  0  0  0  0
  139.9502   70.9459  221.6979 H   0  0  0  0  0  0  0  0  0  0  0  0
  138.6634   68.2966  223.2891 H   0  0  0  0  0  0  0  0  0  0  0  0
  139.1940   67.5088  225.5581 H   0  0  0  0  0  0  0  0  0  0  0  0
  140.0490   67.9342  227.7395 H   0  0  0  0  0  0  0  0  0  0  0  0
  141.0640   69.5082  229.3841 H   0  0  0  0  0  0  0  0  0  0  0  0
  141.5143   71.8609  228.7095 H   0  0  0  0  0  0  0  0  0  0  0  0
  140.9834   72.6546  226.4155 H   0  0  0  0  0  0  0  0  0  0  0  0
  140.1126   72.2022  224.2171 H   0  0  0  0  0  0  0  0  0  0  0  0
  136.6154   76.8306  220.9333 H   0  0  0  0  0  0  0  0  0  0  0  0
  136.1072   75.9015  222.4034 H   0  0  0  0  0  0  0  0  0  0  0  0
  136.5439   78.3251  222.8344 H   0  0  0  0  0  0  0  0  0  0  0  0
  137.5503   77.2254  223.8098 H   0  0  0  0  0  0  0  0  0  0  0  0
  1  2  1  0
  2  3  1  0
  3  4  2  0
  3  5  1  0
  5  6  1  0
  6  7  2  0
  7  8  1  0
  8  9  2  0
  9 10  1  0
 10 11  2  0
  5 12  1  0
 12 13  1  0
 13 14  1  0
 14 15  1  0
 15 16  1  0
 16 17  2  0
 16 18  1  0
 18 19  1  0
 18 20  1  0
 20 21  1  0
 21 22  1  0
 22 23  2  0
 23 24  1  0
 24 25  2  0
 25 26  1  0
 26 27  2  0
 27 28  1  0
 28 29  2  0
 29 30  1  0
 30 31  2  0
 15 32  1  0
 32 33  1  0
 11  6  1  0
 33 12  1  0
 31 22  1  0
 30 25  1  0
  1 34  1  0
  1 35  1  0
  1 36  1  0
  2 37  1  0
  2 38  1  0
  7 39  1  0
  8 40  1  0
  9 41  1  0
 10 42  1  0
 11 43  1  0
 12 44  1  0
 13 45  1  0
 13 46  1  0
 14 47  1  0
 14 48  1  0
 18 49  1  6
 19 50  1  0
 19 51  1  0
 20 52  1  0
 20 53  1  0
 21 54  1  0
 21 55  1  0
 23 56  1  0
 24 57  1  0
 26 58  1  0
 27 59  1  0
 28 60  1  0
 29 61  1  0
 31 62  1  0
 32 63  1  0
 32 64  1  0
 33 65  1  0
 33 66  1  0
M  END
>  <smiles>  (47) 
CCC(=O)N(c1ccccc1)C1CCN(C(=O)[C@@H](N)CCc2ccc3ccccc3c2)CC1

>  <score_type>  (47) 
oracle

>  <origin>  (47) 
autodockgpu

>  <m_score__min__energy>  (47) 
-9.3800000000000008

>  <m_primary>  (47) 
energy

>  <rmsd>  (47) 
3.223244843983965

>  <m_score__min__rmsd>  (47) 
3.223244843983965

>  <meeko>  (47) 
{"free_energy": -9.38, "intermolecular_energy": -12.06, "internal_energy": -1.5, "cluster_size": 6, "cluster_id": 1, "rank_in_cluster": 1}

>  <energy>  (47) 
-8.23

>  <cluster_rmsd>  (47) 
1.49

>  <cluster>  (47) 
3

$$$$

     RDKit          3D

 66 69  0  0  0  0  0  0  0  0999 V2000
  142.4320   78.5940  217.6610 C   0  0  0  0  0  0  0  0  0  0  0  0
  142.5650   79.9230  218.3830 C   0  0  0  0  0  0  0  0  0  0  0  0
  141.4080   80.0730  219.3100 C   0  0  0  0  0  0  0  0  0  0  0  0
  140.4920   80.9110  219.0240 O   0  0  0  0  0  0  0  0  0  0  0  0
  141.3280   79.2900  220.5000 N   0  0  0  0  0  0  0  0  0  0  0  0
  141.6630   79.8940  221.7300 C   0  0  0  0  0  0  0  0  0  0  0  0
  140.6760   80.6550  222.3490 C   0  0  0  0  0  0  0  0  0  0  0  0
  140.9140   81.2810  223.5530 C   0  0  0  0  0  0  0  0  0  0  0  0
  142.1450   81.1590  224.1610 C   0  0  0  0  0  0  0  0  0  0  0  0
  143.1410   80.4050  223.5580 C   0  0  0  0  0  0  0  0  0  0  0  0
  142.8910   79.7770  222.3460 C   0  0  0  0  0  0  0  0  0  0  0  0
  140.9140   77.9260  220.4230 C   0  0  0  0  0  0  0  0  0  0  0  0
  140.7280   77.2720  221.7530 C   0  0  0  0  0  0  0  0  0  0  0  0
  140.6240   75.7520  221.5620 C   0  0  0  0  0  0  0  0  0  0  0  0
  139.5340   75.4930  220.6270 N   0  0  0  0  0  0  0  0  0  0  0  0
  138.5590   74.4880  220.8350 C   0  0  0  0  0  0  0  0  0  0  0  0
  137.5960   74.2950  220.0280 O   0  0  0  0  0  0  0  0  0  0  0  0
  138.5690   73.5610  222.0220 C   0  0  1  0  0  0  0  0  0  0  0  0
  137.1770   73.2910  222.3920 N   0  0  0  0  0  0  0  0  0  0  0  0
  139.2410   72.3100  221.5330 C   0  0  0  0  0  0  0  0  0  0  0  0
  140.4980   72.0380  222.2580 C   0  0  0  0  0  0  0  0  0  0  0  0
  140.2680   71.3990  223.5630 C   0  0  0  0  0  0  0  0  0  0  0  0
  139.5850   70.2000  223.5820 C   0  0  0  0  0  0  0  0  0  0  0  0
  139.3350   69.4900  224.7380 C   0  0  0  0  0  0  0  0  0  0  0  0
  139.7820   69.9900  225.9420 C   0  0  0  0  0  0  0  0  0  0  0  0
  139.5340   69.2830  227.1010 C   0  0  0  0  0  0  0  0  0  0  0  0
  139.9820   69.7820  228.3080 C   0  0  0  0  0  0  0  0  0  0  0  0
  140.6750   70.9910  228.3290 C   0  0  0  0  0  0  0  0  0  0  0  0
  140.9250   71.7020  227.1650 C   0  0  0  0  0  0  0  0  0  0  0  0
  140.4690   71.1900  225.9550 C   0  0  0  0  0  0  0  0  0  0  0  0
  140.7110   71.8900  224.7730 C   0  0  0  0  0  0  0  0  0  0  0  0
  139.4270   76.2780  219.4040 C   0  0  0  0  0  0  0  0  0  0  0  0
  139.5910   77.7430  219.6740 C   0  0  0  0  0  0  0  0  0  0  0  0
  142.3508   77.7823  218.3990 H   0  0  0  0  0  0  0  0  0  0  0  0
  141.5308   78.6078  217.0305 H   0  0  0  0  0  0  0  0  0  0  0  0
  143.3181   78.4290  217.0305 H   0  0  0  0  0  0  0  0  0  0  0  0
  143.5043   79.9425  218.9551 H   0  0  0  0  0  0  0  0  0  0  0  0
  142.5761   80.7484  217.6560 H   0  0  0  0  0  0  0  0  0  0  0  0
  139.6912   80.7583  221.8699 H   0  0  0  0  0  0  0  0  0  0  0  0
  140.1220   81.8779  224.0289 H   0  0  0  0  0  0  0  0  0  0  0  0
  142.3371   81.6584  225.1221 H   0  0  0  0  0  0  0  0  0  0  0  0
  144.1254   80.3052  224.0387 H   0  0  0  0  0  0  0  0  0  0  0  0
  143.6823   79.1785  221.8709 H   0  0  0  0  0  0  0  0  0  0  0  0
  141.7456   77.4520  219.8811 H   0  0  0  0  0  0  0  0  0  0  0  0
  141.5876   77.5030  222.3993 H   0  0  0  0  0  0  0  0  0  0  0  0
  139.8069   77.6479  222.2224 H   0  0  0  0  0  0  0  0  0  0  0  0
  141.5677   75.3608  221.1541 H   0  0  0  0  0  0  0  0  0  0  0  0
  140.4301   75.2564  222.5247 H   0  0  0  0  0  0  0  0  0  0  0  0
  139.0885   73.9709  222.9007 H   0  0  0  0  0  0  0  0  0  0  0  0
  137.0260   73.4030  223.4080 H   0  0  0  0  0  0  0  0  0  0  0  0
  136.5010   73.8030  221.8150 H   0  0  0  0  0  0  0  0  0  0  0  0
  138.5573   71.4603  221.6764 H   0  0  0  0  0  0  0  0  0  0  0  0
  139.4853   72.4490  220.4695 H   0  0  0  0  0  0  0  0  0  0  0  0
  141.1224   71.3721  221.6442 H   0  0  0  0  0  0  0  0  0  0  0  0
  140.9943   73.0026  222.4407 H   0  0  0  0  0  0  0  0  0  0  0  0
  139.2219   69.7901  222.6280 H   0  0  0  0  0  0  0  0  0  0  0  0
  138.7862   68.5375  224.6994 H   0  0  0  0  0  0  0  0  0  0  0  0
  138.9845   68.3308  227.0636 H   0  0  0  0  0  0  0  0  0  0  0  0
  139.7942   69.2319  229.2418 H   0  0  0  0  0  0  0  0  0  0  0  0
  141.0315   71.3900  229.2901 H   0  0  0  0  0  0  0  0  0  0  0  0
  141.4744   72.6544  227.1981 H   0  0  0  0  0  0  0  0  0  0  0  0
  141.2603   72.8425  224.8064 H   0  0  0  0  0  0  0  0  0  0  0  0
  140.2097   75.9543  218.7022 H   0  0  0  0  0  0  0  0  0  0  0  0
  138.4262   76.1162  218.9772 H   0  0  0  0  0  0  0  0  0  0  0  0
  139.6160   78.2995  218.7255 H   0  0  0  0  0  0  0  0  0  0  0  0
  138.7503   78.1238  220.2725 H   0  0  0  0  0  0  0  0  0  0  0  0
  1  2  1  0
  2  3  1  0
  3  4  2  0
  3  5  1  0
  5  6  1  0
  6  7  2  0
  7  8  1  0
  8  9  2  0
  9 10  1  0
 10 11  2  0
  5 12  1  0
 12 13  1  0
 13 14  1  0
 14 15  1  0
 15 16  1  0
 16 17  2  0
 16 18  1  0
 18 19  1  0
 18 20  1  0
 20 21  1  0
 21 22  1  0
 22 23  2  0
 23 24  1  0
 24 25  2  0
 25 26  1  0
 26 27  2  0
 27 28  1  0
 28 29  2  0
 29 30  1  0
 30 31  2  0
 15 32  1  0
 32 33  1  0
 11  6  1  0
 33 12  1  0
 31 22  1  0
 30 25  1  0
  1 34  1  0
  1 35  1  0
  1 36  1  0
  2 37  1  0
  2 38  1  0
  7 39  1  0
  8 40  1  0
  9 41  1  0
 10 42  1  0
 11 43  1  0
 12 44  1  0
 13 45  1  0
 13 46  1  0
 14 47  1  0
 14 48  1  0
 18 49  1  1
 19 50  1  0
 19 51  1  0
 20 52  1  0
 20 53  1  0
 21 54  1  0
 21 55  1  0
 23 56  1  0
 24 57  1  0
 26 58  1  0
 27 59  1  0
 28 60  1  0
 29 61  1  0
 31 62  1  0
 32 63  1  0
 32 64  1  0
 33 65  1  0
 33 66  1  0
M  END
>  <smiles>  (48) 
CCC(=O)N(c1ccccc1)C1CCN(C(=O)[C@@H](N)CCc2ccc3ccccc3c2)CC1

>  <score_type>  (48) 
oracle

>  <origin>  (48) 
autodockgpu

>  <m_score__min__energy>  (48) 
-9.3800000000000008

>  <m_primary>  (48) 
energy

>  <rmsd>  (48) 
3.571542627529612

>  <m_score__min__rmsd>  (48) 
3.571542627529612

>  <meeko>  (48) 
{"free_energy": -8.42, "intermolecular_energy": -11.11, "internal_energy": -2.36, "cluster_size": 38, "cluster_id": 3, "rank_in_cluster": 27}

>  <energy>  (48) 
-8.17

>  <cluster_rmsd>  (48) 
1.45

>  <cluster>  (48) 
3

$$$$

     RDKit          3D

 66 69  0  0  0  0  0  0  0  0999 V2000
  142.8870   77.5380  217.0850 C   0  0  0  0  0  0  0  0  0  0  0  0
  142.3870   78.2820  218.3110 C   0  0  0  0  0  0  0  0  0  0  0  0
  142.5750   77.4070  219.5010 C   0  0  0  0  0  0  0  0  0  0  0  0
  143.6310   76.6990  219.5880 O   0  0  0  0  0  0  0  0  0  0  0  0
  141.5850   77.3600  220.5290 N   0  0  0  0  0  0  0  0  0  0  0  0
  141.5580   78.3940  221.4880 C   0  0  0  0  0  0  0  0  0  0  0  0
  141.4300   78.0150  222.8210 C   0  0  0  0  0  0  0  0  0  0  0  0
  141.3940   78.9570  223.8260 C   0  0  0  0  0  0  0  0  0  0  0  0
  141.4840   80.2970  223.5160 C   0  0  0  0  0  0  0  0  0  0  0  0
  141.6120   80.6940  222.1930 C   0  0  0  0  0  0  0  0  0  0  0  0
  141.6480   79.7370  221.1880 C   0  0  0  0  0  0  0  0  0  0  0  0
  140.6520   76.2800  220.5640 C   0  0  0  0  0  0  0  0  0  0  0  0
  140.9610   75.2440  221.5940 C   0  0  0  0  0  0  0  0  0  0  0  0
  140.1200   73.9890  221.3210 C   0  0  0  0  0  0  0  0  0  0  0  0
  138.7160   74.3890  221.2990 N   0  0  0  0  0  0  0  0  0  0  0  0
  137.6950   73.6650  221.9580 C   0  0  0  0  0  0  0  0  0  0  0  0
  136.4810   74.0420  221.9570 O   0  0  0  0  0  0  0  0  0  0  0  0
  137.9460   72.3890  222.7190 C   0  0  1  0  0  0  0  0  0  0  0  0
  136.7310   72.0700  223.4740 N   0  0  0  0  0  0  0  0  0  0  0  0
  138.2040   71.3510  221.6640 C   0  0  0  0  0  0  0  0  0  0  0  0
  139.3350   70.4710  222.0190 C   0  0  0  0  0  0  0  0  0  0  0  0
  139.5290   70.3640  223.4730 C   0  0  0  0  0  0  0  0  0  0  0  0
  138.9460   69.2970  224.1250 C   0  0  0  0  0  0  0  0  0  0  0  0
  139.0830   69.0710  225.4790 C   0  0  0  0  0  0  0  0  0  0  0  0
  139.8350   69.9460  226.2330 C   0  0  0  0  0  0  0  0  0  0  0  0
  139.9740   69.7260  227.5880 C   0  0  0  0  0  0  0  0  0  0  0  0
  140.7280   70.6010  228.3430 C   0  0  0  0  0  0  0  0  0  0  0  0
  141.3310   71.6910  227.7200 C   0  0  0  0  0  0  0  0  0  0  0  0
  141.1930   71.9140  226.3590 C   0  0  0  0  0  0  0  0  0  0  0  0
  140.4310   71.0260  225.6070 C   0  0  0  0  0  0  0  0  0  0  0  0
  140.2800   71.2330  224.2360 C   0  0  0  0  0  0  0  0  0  0  0  0
  138.3130   75.5760  220.5560 C   0  0  0  0  0  0  0  0  0  0  0  0
  139.2170   76.7370  220.8410 C   0  0  0  0  0  0  0  0  0  0  0  0
  143.4747   76.6635  217.4011 H   0  0  0  0  0  0  0  0  0  0  0  0
  142.0288   77.2048  216.4830 H   0  0  0  0  0  0  0  0  0  0  0  0
  143.5197   78.2068  216.4830 H   0  0  0  0  0  0  0  0  0  0  0  0
  142.9593   79.2125  218.4399 H   0  0  0  0  0  0  0  0  0  0  0  0
  141.3230   78.5346  218.1920 H   0  0  0  0  0  0  0  0  0  0  0  0
  141.3565   76.9475  223.0761 H   0  0  0  0  0  0  0  0  0  0  0  0
  141.2936   78.6399  224.8745 H   0  0  0  0  0  0  0  0  0  0  0  0
  141.4544   81.0507  224.3167 H   0  0  0  0  0  0  0  0  0  0  0  0
  141.6847   81.7624  221.9414 H   0  0  0  0  0  0  0  0  0  0  0  0
  141.7495   80.0538  220.1395 H   0  0  0  0  0  0  0  0  0  0  0  0
  140.7433   75.8497  219.5558 H   0  0  0  0  0  0  0  0  0  0  0  0
  142.0296   74.9873  221.5476 H   0  0  0  0  0  0  0  0  0  0  0  0
  140.7229   75.6364  222.5937 H   0  0  0  0  0  0  0  0  0  0  0  0
  140.4006   73.5544  220.3502 H   0  0  0  0  0  0  0  0  0  0  0  0
  140.2922   73.2336  222.1018 H   0  0  0  0  0  0  0  0  0  0  0  0
  138.7868   72.4520  223.4254 H   0  0  0  0  0  0  0  0  0  0  0  0
  136.7080   72.5650  224.3800 H   0  0  0  0  0  0  0  0  0  0  0  0
  135.8740   72.1790  222.9210 H   0  0  0  0  0  0  0  0  0  0  0  0
  137.3001   70.7360  221.5423 H   0  0  0  0  0  0  0  0  0  0  0  0
  138.4593   71.8723  220.7296 H   0  0  0  0  0  0  0  0  0  0  0  0
  139.1416   69.4668  221.6138 H   0  0  0  0  0  0  0  0  0  0  0  0
  140.2481   70.9102  221.5908 H   0  0  0  0  0  0  0  0  0  0  0  0
  138.3419   68.5914  223.5359 H   0  0  0  0  0  0  0  0  0  0  0  0
  138.5983   68.2036  225.9508 H   0  0  0  0  0  0  0  0  0  0  0  0
  139.4880   68.8606  228.0623 H   0  0  0  0  0  0  0  0  0  0  0  0
  140.8513   70.4395  229.4241 H   0  0  0  0  0  0  0  0  0  0  0  0
  141.9301   72.3905  228.3215 H   0  0  0  0  0  0  0  0  0  0  0  0
  141.6778   72.7784  225.8818 H   0  0  0  0  0  0  0  0  0  0  0  0
  140.7646   72.0976  223.7589 H   0  0  0  0  0  0  0  0  0  0  0  0
  138.3473   75.3524  219.4795 H   0  0  0  0  0  0  0  0  0  0  0  0
  137.2938   75.8482  220.8677 H   0  0  0  0  0  0  0  0  0  0  0  0
  138.9593   77.5833  220.1873 H   0  0  0  0  0  0  0  0  0  0  0  0
  139.1092   77.0655  221.8852 H   0  0  0  0  0  0  0  0  0  0  0  0
  1  2  1  0
  2  3  1  0
  3  4  2  0
  3  5  1  0
  5  6  1  0
  6  7  2  0
  7  8  1  0
  8  9  2  0
  9 10  1  0
 10 11  2  0
  5 12  1  0
 12 13  1  0
 13 14  1  0
 14 15  1  0
 15 16  1  0
 16 17  2  0
 16 18  1  0
 18 19  1  0
 18 20  1  0
 20 21  1  0
 21 22  1  0
 22 23  2  0
 23 24  1  0
 24 25  2  0
 25 26  1  0
 26 27  2  0
 27 28  1  0
 28 29  2  0
 29 30  1  0
 30 31  2  0
 15 32  1  0
 32 33  1  0
 11  6  1  0
 33 12  1  0
 31 22  1  0
 30 25  1  0
  1 34  1  0
  1 35  1  0
  1 36  1  0
  2 37  1  0
  2 38  1  0
  7 39  1  0
  8 40  1  0
  9 41  1  0
 10 42  1  0
 11 43  1  0
 12 44  1  0
 13 45  1  0
 13 46  1  0
 14 47  1  0
 14 48  1  0
 18 49  1  1
 19 50  1  0
 19 51  1  0
 20 52  1  0
 20 53  1  0
 21 54  1  0
 21 55  1  0
 23 56  1  0
 24 57  1  0
 26 58  1  0
 27 59  1  0
 28 60  1  0
 29 61  1  0
 31 62  1  0
 32 63  1  0
 32 64  1  0
 33 65  1  0
 33 66  1  0
M  END
>  <smiles>  (49) 
CCC(=O)N(c1ccccc1)C1CCN(C(=O)[C@@H](N)CCc2ccc3ccccc3c2)CC1

>  <score_type>  (49) 
oracle

>  <origin>  (49) 
autodockgpu

>  <m_score__min__energy>  (49) 
-9.3800000000000008

>  <m_primary>  (49) 
energy

>  <rmsd>  (49) 
3.0605280204193277

>  <m_score__min__rmsd>  (49) 
3.0605280204193277

>  <meeko>  (49) 
{"free_energy": -8.35, "intermolecular_energy": -11.03, "internal_energy": -2.41, "cluster_size": 38, "cluster_id": 3, "rank_in_cluster": 29}

>  <energy>  (49) 
-8.07

>  <cluster_rmsd>  (49) 
0.0

>  <cluster>  (49) 
4

$$$$

     RDKit          3D

 66 69  0  0  0  0  0  0  0  0999 V2000
  137.6540   80.8560  224.6350 C   0  0  0  0  0  0  0  0  0  0  0  0
  137.9950   81.6540  223.3890 C   0  0  0  0  0  0  0  0  0  0  0  0
  138.0310   80.7210  222.2280 C   0  0  0  0  0  0  0  0  0  0  0  0
  137.2060   80.8910  221.2720 O   0  0  0  0  0  0  0  0  0  0  0  0
  138.9760   79.6520  222.1880 N   0  0  0  0  0  0  0  0  0  0  0  0
  140.3160   79.9210  222.5330 C   0  0  0  0  0  0  0  0  0  0  0  0
  140.7610   79.4440  223.7630 C   0  0  0  0  0  0  0  0  0  0  0  0
  142.0550   79.6610  224.1820 C   0  0  0  0  0  0  0  0  0  0  0  0
  142.9310   80.3580  223.3790 C   0  0  0  0  0  0  0  0  0  0  0  0
  142.5060   80.8410  222.1490 C   0  0  0  0  0  0  0  0  0  0  0  0
  141.2000   80.6170  221.7360 C   0  0  0  0  0  0  0  0  0  0  0  0
  138.5480   78.3440  221.8060 C   0  0  0  0  0  0  0  0  0  0  0  0
  139.6530   77.3410  221.7320 C   0  0  0  0  0  0  0  0  0  0  0  0
  139.1550   76.0910  220.9940 C   0  0  0  0  0  0  0  0  0  0  0  0
  137.9700   75.6020  221.6930 N   0  0  0  0  0  0  0  0  0  0  0  0
  137.7610   74.2360  221.9980 C   0  0  0  0  0  0  0  0  0  0  0  0
  136.7390   73.8290  222.6350 O   0  0  0  0  0  0  0  0  0  0  0  0
  138.7190   73.1440  221.6010 C   0  0  1  0  0  0  0  0  0  0  0  0
  139.9710   73.3570  222.3340 N   0  0  0  0  0  0  0  0  0  0  0  0
  138.0580   71.8680  222.0380 C   0  0  0  0  0  0  0  0  0  0  0  0
  139.0250   70.7600  222.1650 C   0  0  0  0  0  0  0  0  0  0  0  0
  139.3010   70.4120  223.5670 C   0  0  0  0  0  0  0  0  0  0  0  0
  138.9290   69.1580  224.0050 C   0  0  0  0  0  0  0  0  0  0  0  0
  139.1620   68.7050  225.2870 C   0  0  0  0  0  0  0  0  0  0  0  0
  139.7970   69.5330  226.1870 C   0  0  0  0  0  0  0  0  0  0  0  0
  140.0330   69.0850  227.4700 C   0  0  0  0  0  0  0  0  0  0  0  0
  140.6690   69.9130  228.3720 C   0  0  0  0  0  0  0  0  0  0  0  0
  141.0590   71.1880  227.9660 C   0  0  0  0  0  0  0  0  0  0  0  0
  140.8240   71.6400  226.6760 C   0  0  0  0  0  0  0  0  0  0  0  0
  140.1810   70.7970  225.7770 C   0  0  0  0  0  0  0  0  0  0  0  0
  139.9360   71.2330  224.4750 C   0  0  0  0  0  0  0  0  0  0  0  0
  136.9280   76.5390  222.0920 C   0  0  0  0  0  0  0  0  0  0  0  0
  137.5040   77.7530  222.7560 C   0  0  0  0  0  0  0  0  0  0  0  0
  137.9061   81.4459  225.5286 H   0  0  0  0  0  0  0  0  0  0  0  0
  136.5786   80.6249  224.6395 H   0  0  0  0  0  0  0  0  0  0  0  0
  138.2304   79.9191  224.6395 H   0  0  0  0  0  0  0  0  0  0  0  0
  137.2297   82.4262  223.2214 H   0  0  0  0  0  0  0  0  0  0  0  0
  138.9721   82.1445  223.5101 H   0  0  0  0  0  0  0  0  0  0  0  0
  140.0686   78.8854  224.4100 H   0  0  0  0  0  0  0  0  0  0  0  0
  142.3889   79.2779  225.1576 H   0  0  0  0  0  0  0  0  0  0  0  0
  143.9650   80.5314  223.7118 H   0  0  0  0  0  0  0  0  0  0  0  0
  143.2012   81.3989  221.5044 H   0  0  0  0  0  0  0  0  0  0  0  0
  140.8659   80.9996  220.7603 H   0  0  0  0  0  0  0  0  0  0  0  0
  138.1223   78.5130  220.8059 H   0  0  0  0  0  0  0  0  0  0  0  0
  140.5058   77.7734  221.1882 H   0  0  0  0  0  0  0  0  0  0  0  0
  139.9702   77.0666  222.7489 H   0  0  0  0  0  0  0  0  0  0  0  0
  138.8978   76.3472  219.9556 H   0  0  0  0  0  0  0  0  0  0  0  0
  139.9373   75.3178  220.9770 H   0  0  0  0  0  0  0  0  0  0  0  0
  138.9460   73.1227  220.5249 H   0  0  0  0  0  0  0  0  0  0  0  0
  140.6550   73.8850  221.7680 H   0  0  0  0  0  0  0  0  0  0  0  0
  139.8250   73.7430  223.2730 H   0  0  0  0  0  0  0  0  0  0  0  0
  137.5769   72.0331  223.0133 H   0  0  0  0  0  0  0  0  0  0  0  0
  137.3193   71.5884  221.2724 H   0  0  0  0  0  0  0  0  0  0  0  0
  138.6163   69.8749  221.6556 H   0  0  0  0  0  0  0  0  0  0  0  0
  139.9710   71.0878  221.7093 H   0  0  0  0  0  0  0  0  0  0  0  0
  138.4216   68.4861  223.2972 H   0  0  0  0  0  0  0  0  0  0  0  0
  138.8448   67.6954  225.5871 H   0  0  0  0  0  0  0  0  0  0  0  0
  139.7167   68.0756  227.7717 H   0  0  0  0  0  0  0  0  0  0  0  0
  140.8658   69.5711  229.3988 H   0  0  0  0  0  0  0  0  0  0  0  0
  141.5642   71.8503  228.6844 H   0  0  0  0  0  0  0  0  0  0  0  0
  141.1409   72.6478  226.3697 H   0  0  0  0  0  0  0  0  0  0  0  0
  140.2523   72.2413  224.1695 H   0  0  0  0  0  0  0  0  0  0  0  0
  136.3682   76.8524  221.1985 H   0  0  0  0  0  0  0  0  0  0  0  0
  136.2672   76.0335  222.8116 H   0  0  0  0  0  0  0  0  0  0  0  0
  136.7096   78.4896  222.9465 H   0  0  0  0  0  0  0  0  0  0  0  0
  137.9630   77.4870  223.7196 H   0  0  0  0  0  0  0  0  0  0  0  0
  1  2  1  0
  2  3  1  0
  3  4  2  0
  3  5  1  0
  5  6  1  0
  6  7  2  0
  7  8  1  0
  8  9  2  0
  9 10  1  0
 10 11  2  0
  5 12  1  0
 12 13  1  0
 13 14  1  0
 14 15  1  0
 15 16  1  0
 16 17  2  0
 16 18  1  0
 18 19  1  0
 18 20  1  0
 20 21  1  0
 21 22  1  0
 22 23  2  0
 23 24  1  0
 24 25  2  0
 25 26  1  0
 26 27  2  0
 27 28  1  0
 28 29  2  0
 29 30  1  0
 30 31  2  0
 15 32  1  0
 32 33  1  0
 11  6  1  0
 33 12  1  0
 31 22  1  0
 30 25  1  0
  1 34  1  0
  1 35  1  0
  1 36  1  0
  2 37  1  0
  2 38  1  0
  7 39  1  0
  8 40  1  0
  9 41  1  0
 10 42  1  0
 11 43  1  0
 12 44  1  0
 13 45  1  0
 13 46  1  0
 14 47  1  0
 14 48  1  0
 18 49  1  6
 19 50  1  0
 19 51  1  0
 20 52  1  0
 20 53  1  0
 21 54  1  0
 21 55  1  0
 23 56  1  0
 24 57  1  0
 26 58  1  0
 27 59  1  0
 28 60  1  0
 29 61  1  0
 31 62  1  0
 32 63  1  0
 32 64  1  0
 33 65  1  0
 33 66  1  0
M  END
>  <smiles>  (50) 
CCC(=O)N(c1ccccc1)C1CCN(C(=O)[C@@H](N)CCc2ccc3ccccc3c2)CC1

>  <score_type>  (50) 
oracle

>  <origin>  (50) 
autodockgpu

>  <m_score__min__energy>  (50) 
-9.3800000000000008

>  <m_primary>  (50) 
energy

>  <rmsd>  (50) 
3.2678910468079208

>  <m_score__min__rmsd>  (50) 
3.2678910468079208

>  <meeko>  (50) 
{"free_energy": -8.85, "intermolecular_energy": -11.54, "internal_energy": -1.74, "cluster_size": 6, "cluster_id": 1, "rank_in_cluster": 5}

>  <energy>  (50) 
-7.94

>  <cluster_rmsd>  (50) 
0.63

>  <cluster>  (50) 
4

$$$$
