
     RDKit          3D

 60 62  0  0  0  0  0  0  0  0999 V2000
  138.7540   67.3880  222.4910 C   0  0  0  0  0  0  0  0  0  0  0  0
  139.0580   68.7440  221.8430 C   0  0  0  0  0  0  0  0  0  0  0  0
  138.6450   69.8210  222.7560 C   0  0  0  0  0  0  0  0  0  0  0  0
  137.4170   69.8660  223.0740 O   0  0  0  0  0  0  0  0  0  0  0  0
  139.4810   70.8130  223.3140 N   0  0  0  0  0  0  0  0  0  0  0  0
  139.8860   70.5630  224.6870 C   0  0  0  0  0  0  0  0  0  0  0  0
  140.6490   71.5440  225.3250 C   0  0  0  0  0  0  0  0  0  0  0  0
  141.0430   71.3180  226.6370 C   0  0  0  0  0  0  0  0  0  0  0  0
  140.7110   70.1680  227.3220 C   0  0  0  0  0  0  0  0  0  0  0  0
  139.9510   69.2140  226.6490 C   0  0  0  0  0  0  0  0  0  0  0  0
  139.5410   69.4090  225.3400 C   0  0  0  0  0  0  0  0  0  0  0  0
  139.9580   71.9940  222.6940 C   0  0  0  0  0  0  0  0  0  0  0  0
  141.0450   71.8250  221.6760 C   0  0  0  0  0  0  0  0  0  0  0  0
  141.7840   73.1760  221.5940 C   0  0  0  0  0  0  0  0  0  0  0  0
  140.8440   74.2530  221.3500 N   0  0  0  0  0  0  0  0  0  0  0  0
  141.1590   75.4130  220.5870 C   0  0  0  0  0  0  0  0  0  0  0  0
  140.2370   76.2930  220.3750 O   0  0  0  0  0  0  0  0  0  0  0  0
  142.4620   75.7470  219.9840 C   0  0  2  0  0  0  0  0  0  0  0  0
  142.6070   77.0670  219.5400 N   0  0  0  0  0  0  0  0  0  0  0  0
  142.9150   74.6930  218.9990 C   0  0  0  0  0  0  0  0  0  0  0  0
  144.0330   73.9350  219.5770 C   0  0  0  0  0  0  0  0  0  0  0  0
  144.8670   74.5940  220.4780 C   0  0  0  0  0  0  0  0  0  0  0  0
  145.9600   73.9850  221.0570 C   0  0  0  0  0  0  0  0  0  0  0  0
  146.2500   72.6890  220.7440 C   0  0  0  0  0  0  0  0  0  0  0  0
  145.4590   72.0120  219.8680 C   0  0  0  0  0  0  0  0  0  0  0  0
  144.3550   72.6340  219.2890 C   0  0  0  0  0  0  0  0  0  0  0  0
  143.5390   71.8020  218.3750 C   0  0  0  0  0  0  0  0  0  0  0  0
  139.4840   74.2320  221.9150 C   0  0  0  0  0  0  0  0  0  0  0  0
  138.9040   72.8420  222.0050 C   0  0  0  0  0  0  0  0  0  0  0  0
  138.7772   67.4914  223.5859 H   0  0  0  0  0  0  0  0  0  0  0  0
  137.7570   67.0464  222.1760 H   0  0  0  0  0  0  0  0  0  0  0  0
  139.5098   66.6534  222.1760 H   0  0  0  0  0  0  0  0  0  0  0  0
  140.1371   68.8233  221.6451 H   0  0  0  0  0  0  0  0  0  0  0  0
  138.5068   68.8320  220.8951 H   0  0  0  0  0  0  0  0  0  0  0  0
  140.9300   72.4701  224.8022 H   0  0  0  0  0  0  0  0  0  0  0  0
  141.6424   72.0850  227.1493 H   0  0  0  0  0  0  0  0  0  0  0  0
  141.0344   70.0099  228.3614 H   0  0  0  0  0  0  0  0  0  0  0  0
  139.6703   68.2857  227.1681 H   0  0  0  0  0  0  0  0  0  0  0  0
  138.9419   68.6416  224.8279 H   0  0  0  0  0  0  0  0  0  0  0  0
  140.3523   72.4942  223.5908 H   0  0  0  0  0  0  0  0  0  0  0  0
  141.7388   71.0310  221.9895 H   0  0  0  0  0  0  0  0  0  0  0  0
  140.6319   71.5382  220.6977 H   0  0  0  0  0  0  0  0  0  0  0  0
  142.3081   73.3606  222.5434 H   0  0  0  0  0  0  0  0  0  0  0  0
  142.5057   73.1379  220.7647 H   0  0  0  0  0  0  0  0  0  0  0  0
  143.1787   75.7186  220.8180 H   0  0  0  0  0  0  0  0  0  0  0  0
  141.7270   77.5720  219.4820 H   0  0  0  0  0  0  0  0  0  0  0  0
  143.4660   77.5300  219.7940 H   0  0  0  0  0  0  0  0  0  0  0  0
  142.0807   74.0095  218.7830 H   0  0  0  0  0  0  0  0  0  0  0  0
  143.2415   75.1768  218.0666 H   0  0  0  0  0  0  0  0  0  0  0  0
  144.6449   75.6397  220.7371 H   0  0  0  0  0  0  0  0  0  0  0  0
  146.5931   74.5394  221.7655 H   0  0  0  0  0  0  0  0  0  0  0  0
  147.1204   72.1931  221.1984 H   0  0  0  0  0  0  0  0  0  0  0  0
  145.6926   70.9672  219.6154 H   0  0  0  0  0  0  0  0  0  0  0  0
  142.8888   71.1391  218.9648 H   0  0  0  0  0  0  0  0  0  0  0  0
  142.9198   72.4534  217.7407 H   0  0  0  0  0  0  0  0  0  0  0  0
  144.2023   71.1956  217.7407 H   0  0  0  0  0  0  0  0  0  0  0  0
  139.5179   74.6638  222.9261 H   0  0  0  0  0  0  0  0  0  0  0  0
  138.8388   74.8146  221.2409 H   0  0  0  0  0  0  0  0  0  0  0  0
  137.9758   72.8524  222.5951 H   0  0  0  0  0  0  0  0  0  0  0  0
  138.6531   72.4444  221.0105 H   0  0  0  0  0  0  0  0  0  0  0  0
  1  2  1  0
  2  3  1  0
  3  4  2  0
  3  5  1  0
  5  6  1  0
  6  7  2  0
  7  8  1  0
  8  9  2  0
  9 10  1  0
 10 11  2  0
  5 12  1  0
 12 13  1  0
 13 14  1  0
 14 15  1  0
 15 16  1  0
 16 17  2  0
 16 18  1  0
 18 19  1  0
 18 20  1  0
 20 21  1  0
 21 22  2  0
 22 23  1  0
 23 24  2  0
 24 25  1  0
 25 26  2  0
 26 27  1  0
 15 28  1  0
 28 29  1  0
 11  6  1  0
 29 12  1  0
 26 21  1  0
  1 30  1  0
  1 31  1  0
  1 32  1  0
  2 33  1  0
  2 34  1  0
  7 35  1  0
  8 36  1  0
  9 37  1  0
 10 38  1  0
 11 39  1  0
 12 40  1  0
 13 41  1  0
 13 42  1  0
 14 43  1  0
 14 44  1  0
 18 45  1  1
 19 46  1  0
 19 47  1  0
 20 48  1  0
 20 49  1  0
 22 50  1  0
 23 51  1  0
 24 52  1  0
 25 53  1  0
 27 54  1  0
 27 55  1  0
 27 56  1  0
 28 57  1  0
 28 58  1  0
 29 59  1  0
 29 60  1  0
M  END
>  <smiles>  (1) 
CCC(=O)N(c1ccccc1)C1CCN(C(=O)[C@H](N)Cc2ccccc2C)CC1

>  <score_type>  (1) 
oracle

>  <origin>  (1) 
autodockgpu

>  <m_score__min__energy>  (1) 
-7.6100000000000003

>  <m_primary>  (1) 
energy

>  <rmsd>  (1) 
6.320955801407008

>  <m_score__min__rmsd>  (1) 
6.320955801407008

>  <meeko>  (1) 
{"free_energy": -6.66, "intermolecular_energy": -9.05, "internal_energy": -2.54, "cluster_size": 19, "cluster_id": 4, "rank_in_cluster": 8}

>  <energy>  (1) 
-7.61

>  <cluster_rmsd>  (1) 
0.0

>  <cluster>  (1) 
1

$$$$

     RDKit          3D

 60 62  0  0  0  0  0  0  0  0999 V2000
  136.7380   70.8770  223.8530 C   0  0  0  0  0  0  0  0  0  0  0  0
  137.2230   69.7040  222.9950 C   0  0  0  0  0  0  0  0  0  0  0  0
  138.6780   69.8100  222.8050 C   0  0  0  0  0  0  0  0  0  0  0  0
  139.2300   68.9250  222.0820 O   0  0  0  0  0  0  0  0  0  0  0  0
  139.5240   70.8010  223.3490 N   0  0  0  0  0  0  0  0  0  0  0  0
  139.9470   70.5540  224.7180 C   0  0  0  0  0  0  0  0  0  0  0  0
  140.6440   71.5710  225.3730 C   0  0  0  0  0  0  0  0  0  0  0  0
  141.0540   71.3490  226.6800 C   0  0  0  0  0  0  0  0  0  0  0  0
  140.7990   70.1680  227.3450 C   0  0  0  0  0  0  0  0  0  0  0  0
  140.1020   69.1790  226.6560 C   0  0  0  0  0  0  0  0  0  0  0  0
  139.6780   69.3690  225.3510 C   0  0  0  0  0  0  0  0  0  0  0  0
  139.9960   71.9790  222.7200 C   0  0  0  0  0  0  0  0  0  0  0  0
  141.0650   71.8030  221.6840 C   0  0  0  0  0  0  0  0  0  0  0  0
  141.8080   73.1510  221.5870 C   0  0  0  0  0  0  0  0  0  0  0  0
  140.8700   74.2320  221.3570 N   0  0  0  0  0  0  0  0  0  0  0  0
  141.1770   75.3890  220.5880 C   0  0  0  0  0  0  0  0  0  0  0  0
  140.2560   76.2730  220.3900 O   0  0  0  0  0  0  0  0  0  0  0  0
  142.4700   75.7170  219.9610 C   0  0  2  0  0  0  0  0  0  0  0  0
  142.6120   77.0330  219.5060 N   0  0  0  0  0  0  0  0  0  0  0  0
  142.9070   74.6550  218.9780 C   0  0  0  0  0  0  0  0  0  0  0  0
  144.0460   73.9130  219.5340 C   0  0  0  0  0  0  0  0  0  0  0  0
  144.8300   74.5520  220.4930 C   0  0  0  0  0  0  0  0  0  0  0  0
  145.9380   73.9570  221.0590 C   0  0  0  0  0  0  0  0  0  0  0  0
  146.2930   72.6970  220.6750 C   0  0  0  0  0  0  0  0  0  0  0  0
  145.5510   72.0410  219.7410 C   0  0  0  0  0  0  0  0  0  0  0  0
  144.4330   72.6480  219.1750 C   0  0  0  0  0  0  0  0  0  0  0  0
  143.6750   71.8380  218.1940 C   0  0  0  0  0  0  0  0  0  0  0  0
  139.5190   74.2190  221.9450 C   0  0  0  0  0  0  0  0  0  0  0  0
  138.9350   72.8310  222.0470 C   0  0  0  0  0  0  0  0  0  0  0  0
  136.8439   70.6210  224.9175 H   0  0  0  0  0  0  0  0  0  0  0  0
  137.3410   71.7693  223.6287 H   0  0  0  0  0  0  0  0  0  0  0  0
  135.6810   71.0829  223.6287 H   0  0  0  0  0  0  0  0  0  0  0  0
  136.9865   68.7562  223.5008 H   0  0  0  0  0  0  0  0  0  0  0  0
  136.7206   69.7303  222.0168 H   0  0  0  0  0  0  0  0  0  0  0  0
  140.8623   72.5228  224.8666 H   0  0  0  0  0  0  0  0  0  0  0  0
  141.6028   72.1446  227.2052 H   0  0  0  0  0  0  0  0  0  0  0  0
  141.1338   70.0131  228.3813 H   0  0  0  0  0  0  0  0  0  0  0  0
  139.8832   68.2256  227.1591 H   0  0  0  0  0  0  0  0  0  0  0  0
  139.1287   68.5735  224.8262 H   0  0  0  0  0  0  0  0  0  0  0  0
  140.4071   72.4788  223.6095 H   0  0  0  0  0  0  0  0  0  0  0  0
  141.7607   71.0068  221.9874 H   0  0  0  0  0  0  0  0  0  0  0  0
  140.6344   71.5157  220.7134 H   0  0  0  0  0  0  0  0  0  0  0  0
  142.3488   73.3348  222.5271 H   0  0  0  0  0  0  0  0  0  0  0  0
  142.5148   73.1080  220.7453 H   0  0  0  0  0  0  0  0  0  0  0  0
  143.1988   75.6943  220.7846 H   0  0  0  0  0  0  0  0  0  0  0  0
  141.7260   77.5190  219.3960 H   0  0  0  0  0  0  0  0  0  0  0  0
  143.4460   77.5170  219.7960 H   0  0  0  0  0  0  0  0  0  0  0  0
  142.0733   73.9619  218.7921 H   0  0  0  0  0  0  0  0  0  0  0  0
  143.2056   75.1309  218.0323 H   0  0  0  0  0  0  0  0  0  0  0  0
  144.5548   75.5687  220.8102 H   0  0  0  0  0  0  0  0  0  0  0  0
  146.5308   74.4941  221.8141 H   0  0  0  0  0  0  0  0  0  0  0  0
  147.1756   72.2129  221.1185 H   0  0  0  0  0  0  0  0  0  0  0  0
  145.8365   71.0248  219.4314 H   0  0  0  0  0  0  0  0  0  0  0  0
  143.0179   71.1358  218.7280 H   0  0  0  0  0  0  0  0  0  0  0  0
  143.0662   72.5019  217.5627 H   0  0  0  0  0  0  0  0  0  0  0  0
  144.3778   71.2746  217.5627 H   0  0  0  0  0  0  0  0  0  0  0  0
  139.5717   74.6525  222.9546 H   0  0  0  0  0  0  0  0  0  0  0  0
  138.8650   74.8038  221.2814 H   0  0  0  0  0  0  0  0  0  0  0  0
  138.0166   72.8463  222.6522 H   0  0  0  0  0  0  0  0  0  0  0  0
  138.6668   72.4330  221.0572 H   0  0  0  0  0  0  0  0  0  0  0  0
  1  2  1  0
  2  3  1  0
  3  4  2  0
  3  5  1  0
  5  6  1  0
  6  7  2  0
  7  8  1  0
  8  9  2  0
  9 10  1  0
 10 11  2  0
  5 12  1  0
 12 13  1  0
 13 14  1  0
 14 15  1  0
 15 16  1  0
 16 17  2  0
 16 18  1  0
 18 19  1  0
 18 20  1  0
 20 21  1  0
 21 22  2  0
 22 23  1  0
 23 24  2  0
 24 25  1  0
 25 26  2  0
 26 27  1  0
 15 28  1  0
 28 29  1  0
 11  6  1  0
 29 12  1  0
 26 21  1  0
  1 30  1  0
  1 31  1  0
  1 32  1  0
  2 33  1  0
  2 34  1  0
  7 35  1  0
  8 36  1  0
  9 37  1  0
 10 38  1  0
 11 39  1  0
 12 40  1  0
 13 41  1  0
 13 42  1  0
 14 43  1  0
 14 44  1  0
 18 45  1  1
 19 46  1  0
 19 47  1  0
 20 48  1  0
 20 49  1  0
 22 50  1  0
 23 51  1  0
 24 52  1  0
 25 53  1  0
 27 54  1  0
 27 55  1  0
 27 56  1  0
 28 57  1  0
 28 58  1  0
 29 59  1  0
 29 60  1  0
M  END
>  <smiles>  (2) 
CCC(=O)N(c1ccccc1)C1CCN(C(=O)[C@H](N)Cc2ccccc2C)CC1

>  <score_type>  (2) 
oracle

>  <origin>  (2) 
autodockgpu

>  <m_score__min__energy>  (2) 
-7.6100000000000003

>  <m_primary>  (2) 
energy

>  <rmsd>  (2) 
6.3289816012022495

>  <m_score__min__rmsd>  (2) 
6.3289816012022495

>  <meeko>  (2) 
{"free_energy": -6.66, "intermolecular_energy": -9.05, "internal_energy": -2.58, "cluster_size": 19, "cluster_id": 4, "rank_in_cluster": 9}

>  <energy>  (2) 
-7.57

>  <cluster_rmsd>  (2) 
0.23

>  <cluster>  (2) 
1

$$$$

     RDKit          3D

 60 62  0  0  0  0  0  0  0  0999 V2000
  136.6120   70.9270  223.7400 C   0  0  0  0  0  0  0  0  0  0  0  0
  137.1570   69.6600  223.0730 C   0  0  0  0  0  0  0  0  0  0  0  0
  138.5900   69.8370  222.7930 C   0  0  0  0  0  0  0  0  0  0  0  0
  139.1220   69.0210  221.9790 O   0  0  0  0  0  0  0  0  0  0  0  0
  139.4350   70.8270  223.3400 N   0  0  0  0  0  0  0  0  0  0  0  0
  139.8370   70.5880  224.7170 C   0  0  0  0  0  0  0  0  0  0  0  0
  140.6750   71.5290  225.3180 C   0  0  0  0  0  0  0  0  0  0  0  0
  141.0660   71.3140  226.6330 C   0  0  0  0  0  0  0  0  0  0  0  0
  140.6600   70.2120  227.3550 C   0  0  0  0  0  0  0  0  0  0  0  0
  139.8250   69.2970  226.7180 C   0  0  0  0  0  0  0  0  0  0  0  0
  139.4160   69.4820  225.4080 C   0  0  0  0  0  0  0  0  0  0  0  0
  139.9240   71.9960  222.7080 C   0  0  0  0  0  0  0  0  0  0  0  0
  140.9950   71.8030  221.6770 C   0  0  0  0  0  0  0  0  0  0  0  0
  141.7550   73.1410  221.5780 C   0  0  0  0  0  0  0  0  0  0  0  0
  140.8310   74.2330  221.3400 N   0  0  0  0  0  0  0  0  0  0  0  0
  141.1550   75.3820  220.5670 C   0  0  0  0  0  0  0  0  0  0  0  0
  140.2460   76.2770  220.3620 O   0  0  0  0  0  0  0  0  0  0  0  0
  142.4550   75.6920  219.9450 C   0  0  2  0  0  0  0  0  0  0  0  0
  142.6160   77.0050  219.4870 N   0  0  0  0  0  0  0  0  0  0  0  0
  142.8810   74.6210  218.9650 C   0  0  0  0  0  0  0  0  0  0  0  0
  144.0150   73.8730  219.5220 C   0  0  0  0  0  0  0  0  0  0  0  0
  144.8310   74.5230  220.4450 C   0  0  0  0  0  0  0  0  0  0  0  0
  145.9370   73.9220  221.0090 C   0  0  0  0  0  0  0  0  0  0  0  0
  146.2570   72.6430  220.6580 C   0  0  0  0  0  0  0  0  0  0  0  0
  145.4830   71.9750  219.7600 C   0  0  0  0  0  0  0  0  0  0  0  0
  144.3670   72.5880  219.1960 C   0  0  0  0  0  0  0  0  0  0  0  0
  143.5720   71.7650  218.2560 C   0  0  0  0  0  0  0  0  0  0  0  0
  139.4780   74.2380  221.9230 C   0  0  0  0  0  0  0  0  0  0  0  0
  138.8760   72.8580  222.0280 C   0  0  0  0  0  0  0  0  0  0  0  0
  136.6600   70.8155  224.8333 H   0  0  0  0  0  0  0  0  0  0  0  0
  137.2174   71.7925  223.4328 H   0  0  0  0  0  0  0  0  0  0  0  0
  135.5673   71.0827  223.4328 H   0  0  0  0  0  0  0  0  0  0  0  0
  137.0173   68.8011  223.7459 H   0  0  0  0  0  0  0  0  0  0  0  0
  136.6172   69.4771  222.1322 H   0  0  0  0  0  0  0  0  0  0  0  0
  141.0163   72.4165  224.7650 H   0  0  0  0  0  0  0  0  0  0  0  0
  141.7243   72.0506  227.1167 H   0  0  0  0  0  0  0  0  0  0  0  0
  140.9834   70.0609  228.3955 H   0  0  0  0  0  0  0  0  0  0  0  0
  139.4829   68.4078  227.2677 H   0  0  0  0  0  0  0  0  0  0  0  0
  138.7571   68.7455  224.9249 H   0  0  0  0  0  0  0  0  0  0  0  0
  140.3383   72.4942  223.5969 H   0  0  0  0  0  0  0  0  0  0  0  0
  141.6795   70.9993  221.9862 H   0  0  0  0  0  0  0  0  0  0  0  0
  140.5648   71.5175  220.7057 H   0  0  0  0  0  0  0  0  0  0  0  0
  142.2942   73.3217  222.5196 H   0  0  0  0  0  0  0  0  0  0  0  0
  142.4647   73.0860  220.7394 H   0  0  0  0  0  0  0  0  0  0  0  0
  143.1803   75.6625  220.7715 H   0  0  0  0  0  0  0  0  0  0  0  0
  141.7360   77.5010  219.3710 H   0  0  0  0  0  0  0  0  0  0  0  0
  143.4550   77.4790  219.7810 H   0  0  0  0  0  0  0  0  0  0  0  0
  142.0413   73.9338  218.7845 H   0  0  0  0  0  0  0  0  0  0  0  0
  143.1807   75.0897  218.0161 H   0  0  0  0  0  0  0  0  0  0  0  0
  144.5839   75.5549  220.7352 H   0  0  0  0  0  0  0  0  0  0  0  0
  146.5557   74.4692  221.7355 H   0  0  0  0  0  0  0  0  0  0  0  0
  147.1376   72.1535  221.0994 H   0  0  0  0  0  0  0  0  0  0  0  0
  145.7407   70.9436  219.4776 H   0  0  0  0  0  0  0  0  0  0  0  0
  142.9178   71.0877  218.8246 H   0  0  0  0  0  0  0  0  0  0  0  0
  142.9579   72.4220  217.6226 H   0  0  0  0  0  0  0  0  0  0  0  0
  144.2498   71.1740  217.6226 H   0  0  0  0  0  0  0  0  0  0  0  0
  139.5324   74.6743  222.9313 H   0  0  0  0  0  0  0  0  0  0  0  0
  138.8338   74.8280  221.2545 H   0  0  0  0  0  0  0  0  0  0  0  0
  137.9557   72.8871  222.6298 H   0  0  0  0  0  0  0  0  0  0  0  0
  138.6060   72.4595  221.0389 H   0  0  0  0  0  0  0  0  0  0  0  0
  1  2  1  0
  2  3  1  0
  3  4  2  0
  3  5  1  0
  5  6  1  0
  6  7  2  0
  7  8  1  0
  8  9  2  0
  9 10  1  0
 10 11  2  0
  5 12  1  0
 12 13  1  0
 13 14  1  0
 14 15  1  0
 15 16  1  0
 16 17  2  0
 16 18  1  0
 18 19  1  0
 18 20  1  0
 20 21  1  0
 21 22  2  0
 22 23  1  0
 23 24  2  0
 24 25  1  0
 25 26  2  0
 26 27  1  0
 15 28  1  0
 28 29  1  0
 11  6  1  0
 29 12  1  0
 26 21  1  0
  1 30  1  0
  1 31  1  0
  1 32  1  0
  2 33  1  0
  2 34  1  0
  7 35  1  0
  8 36  1  0
  9 37  1  0
 10 38  1  0
 11 39  1  0
 12 40  1  0
 13 41  1  0
 13 42  1  0
 14 43  1  0
 14 44  1  0
 18 45  1  1
 19 46  1  0
 19 47  1  0
 20 48  1  0
 20 49  1  0
 22 50  1  0
 23 51  1  0
 24 52  1  0
 25 53  1  0
 27 54  1  0
 27 55  1  0
 27 56  1  0
 28 57  1  0
 28 58  1  0
 29 59  1  0
 29 60  1  0
M  END
>  <smiles>  (3) 
CCC(=O)N(c1ccccc1)C1CCN(C(=O)[C@H](N)Cc2ccccc2C)CC1

>  <score_type>  (3) 
oracle

>  <origin>  (3) 
autodockgpu

>  <m_score__min__energy>  (3) 
-7.6100000000000003

>  <m_primary>  (3) 
energy

>  <rmsd>  (3) 
6.324183882328851

>  <m_score__min__rmsd>  (3) 
6.324183882328851

>  <meeko>  (3) 
{"free_energy": -6.64, "intermolecular_energy": -9.03, "internal_energy": -2.56, "cluster_size": 19, "cluster_id": 4, "rank_in_cluster": 12}

>  <energy>  (3) 
-7.33

>  <cluster_rmsd>  (3) 
0.31

>  <cluster>  (3) 
1

$$$$

     RDKit          3D

 60 62  0  0  0  0  0  0  0  0999 V2000
  136.7520   70.9310  223.8870 C   0  0  0  0  0  0  0  0  0  0  0  0
  137.2380   69.6930  223.1260 C   0  0  0  0  0  0  0  0  0  0  0  0
  138.6760   69.8290  222.8440 C   0  0  0  0  0  0  0  0  0  0  0  0
  139.1900   68.9820  222.0510 O   0  0  0  0  0  0  0  0  0  0  0  0
  139.5430   70.8120  223.3700 N   0  0  0  0  0  0  0  0  0  0  0  0
  139.9910   70.5610  224.7300 C   0  0  0  0  0  0  0  0  0  0  0  0
  139.7150   69.3080  225.2810 C   0  0  0  0  0  0  0  0  0  0  0  0
  140.1370   69.0550  226.5790 C   0  0  0  0  0  0  0  0  0  0  0  0
  140.8110   69.9920  227.3340 C   0  0  0  0  0  0  0  0  0  0  0  0
  141.0650   71.2300  226.7480 C   0  0  0  0  0  0  0  0  0  0  0  0
  140.6580   71.5140  225.4550 C   0  0  0  0  0  0  0  0  0  0  0  0
  140.0150   71.9830  222.7300 C   0  0  0  0  0  0  0  0  0  0  0  0
  141.0750   71.7980  221.6870 C   0  0  0  0  0  0  0  0  0  0  0  0
  141.8230   73.1420  221.5770 C   0  0  0  0  0  0  0  0  0  0  0  0
  140.8870   74.2260  221.3480 N   0  0  0  0  0  0  0  0  0  0  0  0
  141.1930   75.3770  220.5690 C   0  0  0  0  0  0  0  0  0  0  0  0
  140.2740   76.2630  220.3730 O   0  0  0  0  0  0  0  0  0  0  0  0
  142.4830   75.6950  219.9310 C   0  0  2  0  0  0  0  0  0  0  0  0
  142.6250   77.0070  219.4640 N   0  0  0  0  0  0  0  0  0  0  0  0
  142.9100   74.6240  218.9530 C   0  0  0  0  0  0  0  0  0  0  0  0
  144.0500   73.8830  219.5080 C   0  0  0  0  0  0  0  0  0  0  0  0
  144.8410   74.5250  220.4590 C   0  0  0  0  0  0  0  0  0  0  0  0
  145.9500   73.9310  221.0220 C   0  0  0  0  0  0  0  0  0  0  0  0
  146.2990   72.6670  220.6450 C   0  0  0  0  0  0  0  0  0  0  0  0
  145.5510   72.0070  219.7200 C   0  0  0  0  0  0  0  0  0  0  0  0
  144.4310   72.6140  219.1560 C   0  0  0  0  0  0  0  0  0  0  0  0
  143.6650   71.7990  218.1840 C   0  0  0  0  0  0  0  0  0  0  0  0
  139.5410   74.2210  221.9460 C   0  0  0  0  0  0  0  0  0  0  0  0
  138.9520   72.8360  222.0610 C   0  0  0  0  0  0  0  0  0  0  0  0
  136.8239   70.7478  224.9692 H   0  0  0  0  0  0  0  0  0  0  0  0
  137.3776   71.7952  223.6190 H   0  0  0  0  0  0  0  0  0  0  0  0
  135.7056   71.1388  223.6190 H   0  0  0  0  0  0  0  0  0  0  0  0
  137.0668   68.7950  223.7377 H   0  0  0  0  0  0  0  0  0  0  0  0
  136.6841   69.6008  222.1802 H   0  0  0  0  0  0  0  0  0  0  0  0
  139.1778   68.5422  224.7022 H   0  0  0  0  0  0  0  0  0  0  0  0
  139.9260   68.0705  227.0219 H   0  0  0  0  0  0  0  0  0  0  0  0
  141.1360   69.7699  228.3611 H   0  0  0  0  0  0  0  0  0  0  0  0
  141.6004   71.9986  227.3247 H   0  0  0  0  0  0  0  0  0  0  0  0
  140.8688   72.4987  225.0124 H   0  0  0  0  0  0  0  0  0  0  0  0
  140.4361   72.4850  223.6135 H   0  0  0  0  0  0  0  0  0  0  0  0
  141.7697   71.0004  221.9890 H   0  0  0  0  0  0  0  0  0  0  0  0
  140.6354   71.5081  220.7212 H   0  0  0  0  0  0  0  0  0  0  0  0
  142.3717   73.3287  222.5119 H   0  0  0  0  0  0  0  0  0  0  0  0
  142.5235   73.0915  220.7304 H   0  0  0  0  0  0  0  0  0  0  0  0
  143.2176   75.6754  220.7496 H   0  0  0  0  0  0  0  0  0  0  0  0
  141.7400   77.4940  219.3550 H   0  0  0  0  0  0  0  0  0  0  0  0
  143.4630   77.4920  219.7450 H   0  0  0  0  0  0  0  0  0  0  0  0
  142.0729   73.9322  218.7778 H   0  0  0  0  0  0  0  0  0  0  0  0
  143.2037   75.0913  218.0015 H   0  0  0  0  0  0  0  0  0  0  0  0
  144.5701   75.5441  220.7721 H   0  0  0  0  0  0  0  0  0  0  0  0
  146.5491   74.4718  221.7695 H   0  0  0  0  0  0  0  0  0  0  0  0
  147.1822   72.1832  221.0875 H   0  0  0  0  0  0  0  0  0  0  0  0
  145.8322   70.9880  219.4156 H   0  0  0  0  0  0  0  0  0  0  0  0
  143.0095   71.1016  218.7263 H   0  0  0  0  0  0  0  0  0  0  0  0
  143.0540   72.4603  217.5521 H   0  0  0  0  0  0  0  0  0  0  0  0
  144.3628   71.2301  217.5521 H   0  0  0  0  0  0  0  0  0  0  0  0
  139.6030   74.6603  222.9526 H   0  0  0  0  0  0  0  0  0  0  0  0
  138.8844   74.8039  221.2834 H   0  0  0  0  0  0  0  0  0  0  0  0
  138.0388   72.8588  222.6738 H   0  0  0  0  0  0  0  0  0  0  0  0
  138.6738   72.4335  221.0758 H   0  0  0  0  0  0  0  0  0  0  0  0
  1  2  1  0
  2  3  1  0
  3  4  2  0
  3  5  1  0
  5  6  1  0
  6  7  2  0
  7  8  1  0
  8  9  2  0
  9 10  1  0
 10 11  2  0
  5 12  1  0
 12 13  1  0
 13 14  1  0
 14 15  1  0
 15 16  1  0
 16 17  2  0
 16 18  1  0
 18 19  1  0
 18 20  1  0
 20 21  1  0
 21 22  2  0
 22 23  1  0
 23 24  2  0
 24 25  1  0
 25 26  2  0
 26 27  1  0
 15 28  1  0
 28 29  1  0
 11  6  1  0
 29 12  1  0
 26 21  1  0
  1 30  1  0
  1 31  1  0
  1 32  1  0
  2 33  1  0
  2 34  1  0
  7 35  1  0
  8 36  1  0
  9 37  1  0
 10 38  1  0
 11 39  1  0
 12 40  1  0
 13 41  1  0
 13 42  1  0
 14 43  1  0
 14 44  1  0
 18 45  1  1
 19 46  1  0
 19 47  1  0
 20 48  1  0
 20 49  1  0
 22 50  1  0
 23 51  1  0
 24 52  1  0
 25 53  1  0
 27 54  1  0
 27 55  1  0
 27 56  1  0
 28 57  1  0
 28 58  1  0
 29 59  1  0
 29 60  1  0
M  END
>  <smiles>  (4) 
CCC(=O)N(c1ccccc1)C1CCN(C(=O)[C@H](N)Cc2ccccc2C)CC1

>  <score_type>  (4) 
oracle

>  <origin>  (4) 
autodockgpu

>  <m_score__min__energy>  (4) 
-7.6100000000000003

>  <m_primary>  (4) 
energy

>  <rmsd>  (4) 
6.332268422917562

>  <m_score__min__rmsd>  (4) 
6.332268422917562

>  <meeko>  (4) 
{"free_energy": -6.67, "intermolecular_energy": -9.06, "internal_energy": -2.56, "cluster_size": 19, "cluster_id": 4, "rank_in_cluster": 7}

>  <energy>  (4) 
-7.2

>  <cluster_rmsd>  (4) 
0.0

>  <cluster>  (4) 
2

$$$$

     RDKit          3D

 60 62  0  0  0  0  0  0  0  0999 V2000
  140.4610   71.9310  222.5280 C   0  0  0  0  0  0  0  0  0  0  0  0
  141.0670   72.4340  221.2130 C   0  0  0  0  0  0  0  0  0  0  0  0
  141.1510   73.9030  221.2480 C   0  0  0  0  0  0  0  0  0  0  0  0
  140.3660   74.5050  222.0430 O   0  0  0  0  0  0  0  0  0  0  0  0
  142.0200   74.7100  220.4830 N   0  0  0  0  0  0  0  0  0  0  0  0
  143.2270   74.0400  220.0270 C   0  0  0  0  0  0  0  0  0  0  0  0
  144.3460   74.0830  220.8600 C   0  0  0  0  0  0  0  0  0  0  0  0
  145.5050   73.4480  220.4360 C   0  0  0  0  0  0  0  0  0  0  0  0
  145.5860   72.7830  219.2310 C   0  0  0  0  0  0  0  0  0  0  0  0
  144.4480   72.7640  218.4280 C   0  0  0  0  0  0  0  0  0  0  0  0
  143.2750   73.3890  218.8220 C   0  0  0  0  0  0  0  0  0  0  0  0
  141.8460   76.0670  220.1190 C   0  0  0  0  0  0  0  0  0  0  0  0
  141.3970   77.0010  221.2020 C   0  0  0  0  0  0  0  0  0  0  0  0
  140.7260   78.1990  220.5000 C   0  0  0  0  0  0  0  0  0  0  0  0
  141.6130   78.7620  219.5000 N   0  0  0  0  0  0  0  0  0  0  0  0
  141.6510   80.1470  219.1750 C   0  0  0  0  0  0  0  0  0  0  0  0
  142.5170   80.5640  218.3120 O   0  0  0  0  0  0  0  0  0  0  0  0
  140.7890   81.2090  219.7250 C   0  0  2  0  0  0  0  0  0  0  0  0
  140.2540   82.1050  218.7910 N   0  0  0  0  0  0  0  0  0  0  0  0
  141.4000   81.8560  220.9470 C   0  0  0  0  0  0  0  0  0  0  0  0
  141.3410   80.9180  222.0760 C   0  0  0  0  0  0  0  0  0  0  0  0
  142.5220   80.2820  222.4540 C   0  0  0  0  0  0  0  0  0  0  0  0
  142.5720   79.3630  223.4820 C   0  0  0  0  0  0  0  0  0  0  0  0
  141.4310   79.0550  224.1620 C   0  0  0  0  0  0  0  0  0  0  0  0
  140.2580   79.6560  223.8220 C   0  0  0  0  0  0  0  0  0  0  0  0
  140.2160   80.5840  222.7840 C   0  0  0  0  0  0  0  0  0  0  0  0
  138.8990   81.2050  222.5150 C   0  0  0  0  0  0  0  0  0  0  0  0
  142.5290   77.9150  218.7180 C   0  0  0  0  0  0  0  0  0  0  0  0
  143.0590   76.7390  219.5010 C   0  0  0  0  0  0  0  0  0  0  0  0
  141.0007   72.3789  223.3754 H   0  0  0  0  0  0  0  0  0  0  0  0
  139.4001   72.2176  222.5761 H   0  0  0  0  0  0  0  0  0  0  0  0
  140.5474   70.8355  222.5761 H   0  0  0  0  0  0  0  0  0  0  0  0
  142.0746   72.0110  221.0870 H   0  0  0  0  0  0  0  0  0  0  0  0
  140.4327   72.1206  220.3707 H   0  0  0  0  0  0  0  0  0  0  0  0
  144.3103   74.6063  221.8269 H   0  0  0  0  0  0  0  0  0  0  0  0
  146.3922   73.4764  221.0857 H   0  0  0  0  0  0  0  0  0  0  0  0
  146.5150   72.2858  218.9154 H   0  0  0  0  0  0  0  0  0  0  0  0
  144.4808   72.2418  217.4604 H   0  0  0  0  0  0  0  0  0  0  0  0
  142.3883   73.3626  218.1715 H   0  0  0  0  0  0  0  0  0  0  0  0
  141.0429   75.9287  219.3802 H   0  0  0  0  0  0  0  0  0  0  0  0
  140.6772   76.4969  221.8637 H   0  0  0  0  0  0  0  0  0  0  0  0
  142.2455   77.3281  221.8209 H   0  0  0  0  0  0  0  0  0  0  0  0
  139.7993   77.8610  220.0132 H   0  0  0  0  0  0  0  0  0  0  0  0
  140.4996   78.9707  221.2505 H   0  0  0  0  0  0  0  0  0  0  0  0
  139.8828   80.6902  220.0709 H   0  0  0  0  0  0  0  0  0  0  0  0
  140.7600   82.1180  217.9100 H   0  0  0  0  0  0  0  0  0  0  0  0
  139.2570   82.2450  218.8300 H   0  0  0  0  0  0  0  0  0  0  0  0
  142.4487   82.1153  220.7395 H   0  0  0  0  0  0  0  0  0  0  0  0
  140.8405   82.7692  221.1981 H   0  0  0  0  0  0  0  0  0  0  0  0
  143.4490   80.5216  221.9125 H   0  0  0  0  0  0  0  0  0  0  0  0
  143.5245   78.8828  223.7507 H   0  0  0  0  0  0  0  0  0  0  0  0
  141.4584   78.3231  224.9828 H   0  0  0  0  0  0  0  0  0  0  0  0
  139.3374   79.4073  224.3704 H   0  0  0  0  0  0  0  0  0  0  0  0
  138.4025   81.4391  223.4682 H   0  0  0  0  0  0  0  0  0  0  0  0
  139.0411   82.1310  221.9385 H   0  0  0  0  0  0  0  0  0  0  0  0
  138.2750   80.5062  221.9385 H   0  0  0  0  0  0  0  0  0  0  0  0
  141.9897   77.5354  217.8377 H   0  0  0  0  0  0  0  0  0  0  0  0
  143.3911   78.5370  218.4352 H   0  0  0  0  0  0  0  0  0  0  0  0
  143.5841   76.0404  218.8330 H   0  0  0  0  0  0  0  0  0  0  0  0
  143.7783   77.0579  220.2697 H   0  0  0  0  0  0  0  0  0  0  0  0
  1  2  1  0
  2  3  1  0
  3  4  2  0
  3  5  1  0
  5  6  1  0
  6  7  2  0
  7  8  1  0
  8  9  2  0
  9 10  1  0
 10 11  2  0
  5 12  1  0
 12 13  1  0
 13 14  1  0
 14 15  1  0
 15 16  1  0
 16 17  2  0
 16 18  1  0
 18 19  1  0
 18 20  1  0
 20 21  1  0
 21 22  2  0
 22 23  1  0
 23 24  2  0
 24 25  1  0
 25 26  2  0
 26 27  1  0
 15 28  1  0
 28 29  1  0
 11  6  1  0
 29 12  1  0
 26 21  1  0
  1 30  1  0
  1 31  1  0
  1 32  1  0
  2 33  1  0
  2 34  1  0
  7 35  1  0
  8 36  1  0
  9 37  1  0
 10 38  1  0
 11 39  1  0
 12 40  1  0
 13 41  1  0
 13 42  1  0
 14 43  1  0
 14 44  1  0
 18 45  1  1
 19 46  1  0
 19 47  1  0
 20 48  1  0
 20 49  1  0
 22 50  1  0
 23 51  1  0
 24 52  1  0
 25 53  1  0
 27 54  1  0
 27 55  1  0
 27 56  1  0
 28 57  1  0
 28 58  1  0
 29 59  1  0
 29 60  1  0
M  END
>  <smiles>  (5) 
CCC(=O)N(c1ccccc1)C1CCN(C(=O)[C@H](N)Cc2ccccc2C)CC1

>  <score_type>  (5) 
oracle

>  <origin>  (5) 
autodockgpu

>  <m_score__min__energy>  (5) 
-7.6100000000000003

>  <m_primary>  (5) 
energy

>  <rmsd>  (5) 
5.785720305258461

>  <m_score__min__rmsd>  (5) 
5.785720305258461

>  <meeko>  (5) 
{"free_energy": -6.7, "intermolecular_energy": -9.09, "internal_energy": -2.56, "cluster_size": 15, "cluster_id": 6, "rank_in_cluster": 1}

>  <energy>  (5) 
-7.19

>  <cluster_rmsd>  (5) 
0.53

>  <cluster>  (5) 
2

$$$$

     RDKit          3D

 60 62  0  0  0  0  0  0  0  0999 V2000
  141.9080   71.4550  220.6350 C   0  0  0  0  0  0  0  0  0  0  0  0
  140.7770   72.4610  220.3970 C   0  0  0  0  0  0  0  0  0  0  0  0
  141.1890   73.7830  220.8940 C   0  0  0  0  0  0  0  0  0  0  0  0
  140.6930   74.1630  221.9980 O   0  0  0  0  0  0  0  0  0  0  0  0
  142.0850   74.6730  220.2620 N   0  0  0  0  0  0  0  0  0  0  0  0
  143.3770   74.0980  219.9270 C   0  0  0  0  0  0  0  0  0  0  0  0
  143.5510   73.6110  218.6300 C   0  0  0  0  0  0  0  0  0  0  0  0
  144.7810   73.0590  218.2960 C   0  0  0  0  0  0  0  0  0  0  0  0
  145.8230   72.9760  219.1950 C   0  0  0  0  0  0  0  0  0  0  0  0
  145.6080   73.4710  220.4780 C   0  0  0  0  0  0  0  0  0  0  0  0
  144.3930   74.0290  220.8430 C   0  0  0  0  0  0  0  0  0  0  0  0
  141.8640   76.0300  219.9250 C   0  0  0  0  0  0  0  0  0  0  0  0
  141.2620   76.8970  220.9890 C   0  0  0  0  0  0  0  0  0  0  0  0
  140.5880   78.0790  220.2640 C   0  0  0  0  0  0  0  0  0  0  0  0
  141.5280   78.7280  219.3700 N   0  0  0  0  0  0  0  0  0  0  0  0
  141.5120   80.1240  219.0920 C   0  0  0  0  0  0  0  0  0  0  0  0
  142.4270   80.6200  218.3260 O   0  0  0  0  0  0  0  0  0  0  0  0
  140.5410   81.1140  219.5910 C   0  0  2  0  0  0  0  0  0  0  0  0
  139.9750   81.9530  218.6240 N   0  0  0  0  0  0  0  0  0  0  0  0
  141.0420   81.8210  220.8300 C   0  0  0  0  0  0  0  0  0  0  0  0
  141.2340   80.8410  221.9070 C   0  0  0  0  0  0  0  0  0  0  0  0
  142.5250   80.3690  222.1330 C   0  0  0  0  0  0  0  0  0  0  0  0
  142.8100   79.4270  223.1000 C   0  0  0  0  0  0  0  0  0  0  0  0
  141.8010   78.9310  223.8700 C   0  0  0  0  0  0  0  0  0  0  0  0
  140.5260   79.3680  223.6800 C   0  0  0  0  0  0  0  0  0  0  0  0
  140.2460   80.3200  222.7020 C   0  0  0  0  0  0  0  0  0  0  0  0
  138.8340   80.7540  222.5970 C   0  0  0  0  0  0  0  0  0  0  0  0
  142.5610   77.9630  218.6510 C   0  0  0  0  0  0  0  0  0  0  0  0
  143.0860   76.7920  219.4440 C   0  0  0  0  0  0  0  0  0  0  0  0
  142.0583   71.3213  221.7164 H   0  0  0  0  0  0  0  0  0  0  0  0
  141.6419   70.4897  220.1797 H   0  0  0  0  0  0  0  0  0  0  0  0
  142.8357   71.8318  220.1797 H   0  0  0  0  0  0  0  0  0  0  0  0
  140.5620   72.5240  219.3201 H   0  0  0  0  0  0  0  0  0  0  0  0
  139.8732   72.1321  220.9308 H   0  0  0  0  0  0  0  0  0  0  0  0
  142.7362   73.6631  217.8929 H   0  0  0  0  0  0  0  0  0  0  0  0
  144.9293   72.6738  217.2764 H   0  0  0  0  0  0  0  0  0  0  0  0
  146.7891   72.5347  218.9088 H   0  0  0  0  0  0  0  0  0  0  0  0
  146.4200   73.4182  221.2182 H   0  0  0  0  0  0  0  0  0  0  0  0
  144.2454   74.4143  221.8627 H   0  0  0  0  0  0  0  0  0  0  0  0
  141.1420   75.8728  219.1102 H   0  0  0  0  0  0  0  0  0  0  0  0
  140.5159   76.3292  221.5643 H   0  0  0  0  0  0  0  0  0  0  0  0
  142.0286   77.2493  221.6948 H   0  0  0  0  0  0  0  0  0  0  0  0
  139.7325   77.7064  219.6816 H   0  0  0  0  0  0  0  0  0  0  0  0
  140.2470   78.8087  221.0132 H   0  0  0  0  0  0  0  0  0  0  0  0
  139.6669   80.5243  219.9043 H   0  0  0  0  0  0  0  0  0  0  0  0
  139.4390   82.7210  219.0210 H   0  0  0  0  0  0  0  0  0  0  0  0
  140.4950   82.0600  217.7670 H   0  0  0  0  0  0  0  0  0  0  0  0
  141.9994   82.3153  220.6086 H   0  0  0  0  0  0  0  0  0  0  0  0
  140.3057   82.5746  221.1460 H   0  0  0  0  0  0  0  0  0  0  0  0
  143.3478   80.7619  221.5176 H   0  0  0  0  0  0  0  0  0  0  0  0
  143.8430   79.0793  223.2482 H   0  0  0  0  0  0  0  0  0  0  0  0
  142.0164   78.1791  224.6434 H   0  0  0  0  0  0  0  0  0  0  0  0
  139.7121   78.9673  224.3021 H   0  0  0  0  0  0  0  0  0  0  0  0
  138.4141   80.8831  223.6055 H   0  0  0  0  0  0  0  0  0  0  0  0
  138.7834   81.7092  222.0538 H   0  0  0  0  0  0  0  0  0  0  0  0
  138.2557   79.9921  222.0538 H   0  0  0  0  0  0  0  0  0  0  0  0
  142.1282   77.5853  217.7129 H   0  0  0  0  0  0  0  0  0  0  0  0
  143.4066   78.6426  218.4687 H   0  0  0  0  0  0  0  0  0  0  0  0
  143.7112   76.1488  218.8072 H   0  0  0  0  0  0  0  0  0  0  0  0
  143.7109   77.1238  220.2862 H   0  0  0  0  0  0  0  0  0  0  0  0
  1  2  1  0
  2  3  1  0
  3  4  2  0
  3  5  1  0
  5  6  1  0
  6  7  2  0
  7  8  1  0
  8  9  2  0
  9 10  1  0
 10 11  2  0
  5 12  1  0
 12 13  1  0
 13 14  1  0
 14 15  1  0
 15 16  1  0
 16 17  2  0
 16 18  1  0
 18 19  1  0
 18 20  1  0
 20 21  1  0
 21 22  2  0
 22 23  1  0
 23 24  2  0
 24 25  1  0
 25 26  2  0
 26 27  1  0
 15 28  1  0
 28 29  1  0
 11  6  1  0
 29 12  1  0
 26 21  1  0
  1 30  1  0
  1 31  1  0
  1 32  1  0
  2 33  1  0
  2 34  1  0
  7 35  1  0
  8 36  1  0
  9 37  1  0
 10 38  1  0
 11 39  1  0
 12 40  1  0
 13 41  1  0
 13 42  1  0
 14 43  1  0
 14 44  1  0
 18 45  1  1
 19 46  1  0
 19 47  1  0
 20 48  1  0
 20 49  1  0
 22 50  1  0
 23 51  1  0
 24 52  1  0
 25 53  1  0
 27 54  1  0
 27 55  1  0
 27 56  1  0
 28 57  1  0
 28 58  1  0
 29 59  1  0
 29 60  1  0
M  END
>  <smiles>  (6) 
CCC(=O)N(c1ccccc1)C1CCN(C(=O)[C@H](N)Cc2ccccc2C)CC1

>  <score_type>  (6) 
oracle

>  <origin>  (6) 
autodockgpu

>  <m_score__min__energy>  (6) 
-7.6100000000000003

>  <m_primary>  (6) 
energy

>  <rmsd>  (6) 
5.748368885699495

>  <m_score__min__rmsd>  (6) 
5.748368885699495

>  <meeko>  (6) 
{"free_energy": -6.43, "intermolecular_energy": -8.82, "internal_energy": -2.56, "cluster_size": 15, "cluster_id": 6, "rank_in_cluster": 10}

>  <energy>  (6) 
-7.04

>  <cluster_rmsd>  (6) 
0.33

>  <cluster>  (6) 
2

$$$$

     RDKit          3D

 60 62  0  0  0  0  0  0  0  0999 V2000
  140.1630   72.2940  219.4630 C   0  0  0  0  0  0  0  0  0  0  0  0
  140.8880   72.4450  220.8050 C   0  0  0  0  0  0  0  0  0  0  0  0
  141.1880   73.8670  221.0380 C   0  0  0  0  0  0  0  0  0  0  0  0
  140.5500   74.4440  221.9700 O   0  0  0  0  0  0  0  0  0  0  0  0
  142.1180   74.6540  220.3240 N   0  0  0  0  0  0  0  0  0  0  0  0
  143.3390   73.9600  219.9500 C   0  0  0  0  0  0  0  0  0  0  0  0
  144.4170   74.0240  220.8360 C   0  0  0  0  0  0  0  0  0  0  0  0
  145.5900   73.3660  220.4910 C   0  0  0  0  0  0  0  0  0  0  0  0
  145.7240   72.6600  219.3140 C   0  0  0  0  0  0  0  0  0  0  0  0
  144.6260   72.6220  218.4570 C   0  0  0  0  0  0  0  0  0  0  0  0
  143.4410   73.2680  218.7720 C   0  0  0  0  0  0  0  0  0  0  0  0
  141.9910   76.0110  219.9400 C   0  0  0  0  0  0  0  0  0  0  0  0
  141.4730   76.9570  220.9810 C   0  0  0  0  0  0  0  0  0  0  0  0
  140.8740   78.1590  220.2230 C   0  0  0  0  0  0  0  0  0  0  0  0
  141.8420   78.7040  219.2910 N   0  0  0  0  0  0  0  0  0  0  0  0
  141.9240   80.0860  218.9620 C   0  0  0  0  0  0  0  0  0  0  0  0
  142.8580   80.4870  218.1650 O   0  0  0  0  0  0  0  0  0  0  0  0
  141.0370   81.1630  219.4380 C   0  0  2  0  0  0  0  0  0  0  0  0
  140.6950   82.1360  218.4920 N   0  0  0  0  0  0  0  0  0  0  0  0
  141.4790   81.7080  220.7770 C   0  0  0  0  0  0  0  0  0  0  0  0
  140.9410   80.8620  221.8510 C   0  0  0  0  0  0  0  0  0  0  0  0
  139.5560   80.7720  221.9730 C   0  0  0  0  0  0  0  0  0  0  0  0
  138.9470   80.0290  222.9620 C   0  0  0  0  0  0  0  0  0  0  0  0
  139.7160   79.3510  223.8610 C   0  0  0  0  0  0  0  0  0  0  0  0
  141.0730   79.4130  223.7730 C   0  0  0  0  0  0  0  0  0  0  0  0
  141.6800   80.1650  222.7710 C   0  0  0  0  0  0  0  0  0  0  0  0
  143.1610   80.1410  222.7410 C   0  0  0  0  0  0  0  0  0  0  0  0
  142.8040   77.8400  218.5850 C   0  0  0  0  0  0  0  0  0  0  0  0
  143.2560   76.6630  219.4130 C   0  0  0  0  0  0  0  0  0  0  0  0
  139.1006   72.0727  219.6430 H   0  0  0  0  0  0  0  0  0  0  0  0
  140.2509   73.2297  218.8914 H   0  0  0  0  0  0  0  0  0  0  0  0
  140.6172   71.4712  218.8914 H   0  0  0  0  0  0  0  0  0  0  0  0
  140.2457   72.0675  221.6143 H   0  0  0  0  0  0  0  0  0  0  0  0
  141.8249   71.8690  220.7847 H   0  0  0  0  0  0  0  0  0  0  0  0
  144.3388   74.5807  221.7815 H   0  0  0  0  0  0  0  0  0  0  0  0
  146.4444   73.4095  221.1824 H   0  0  0  0  0  0  0  0  0  0  0  0
  146.6630   72.1459  219.0611 H   0  0  0  0  0  0  0  0  0  0  0  0
  144.7013   72.0674  217.5101 H   0  0  0  0  0  0  0  0  0  0  0  0
  142.5870   73.2253  218.0800 H   0  0  0  0  0  0  0  0  0  0  0  0
  141.2455   75.8789  219.1420 H   0  0  0  0  0  0  0  0  0  0  0  0
  140.6980   76.4663  221.5881 H   0  0  0  0  0  0  0  0  0  0  0  0
  142.2756   77.2767  221.6619 H   0  0  0  0  0  0  0  0  0  0  0  0
  139.9828   77.8299  219.6685 H   0  0  0  0  0  0  0  0  0  0  0  0
  140.6013   78.9384  220.9498 H   0  0  0  0  0  0  0  0  0  0  0  0
  140.0651   80.6765  219.6072 H   0  0  0  0  0  0  0  0  0  0  0  0
  140.2540   82.9560  218.8980 H   0  0  0  0  0  0  0  0  0  0  0  0
  141.2990   82.2050  217.6880 H   0  0  0  0  0  0  0  0  0  0  0  0
  142.5778   81.7103  220.8275 H   0  0  0  0  0  0  0  0  0  0  0  0
  141.1047   82.7354  220.8967 H   0  0  0  0  0  0  0  0  0  0  0  0
  138.9248   81.3140  221.2534 H   0  0  0  0  0  0  0  0  0  0  0  0
  137.8498   79.9836  223.0253 H   0  0  0  0  0  0  0  0  0  0  0  0
  139.2413   78.7558  224.6549 H   0  0  0  0  0  0  0  0  0  0  0  0
  141.6935   78.8657  224.4979 H   0  0  0  0  0  0  0  0  0  0  0  0
  143.5485   80.1347  223.7705 H   0  0  0  0  0  0  0  0  0  0  0  0
  143.5025   79.2372  222.2151 H   0  0  0  0  0  0  0  0  0  0  0  0
  143.5316   81.0333  222.2151 H   0  0  0  0  0  0  0  0  0  0  0  0
  142.3284   77.4617  217.6681 H   0  0  0  0  0  0  0  0  0  0  0  0
  143.6934   78.4487  218.3647 H   0  0  0  0  0  0  0  0  0  0  0  0
  143.8213   75.9531  218.7913 H   0  0  0  0  0  0  0  0  0  0  0  0
  143.9182   76.9781  220.2329 H   0  0  0  0  0  0  0  0  0  0  0  0
  1  2  1  0
  2  3  1  0
  3  4  2  0
  3  5  1  0
  5  6  1  0
  6  7  2  0
  7  8  1  0
  8  9  2  0
  9 10  1  0
 10 11  2  0
  5 12  1  0
 12 13  1  0
 13 14  1  0
 14 15  1  0
 15 16  1  0
 16 17  2  0
 16 18  1  0
 18 19  1  0
 18 20  1  0
 20 21  1  0
 21 22  2  0
 22 23  1  0
 23 24  2  0
 24 25  1  0
 25 26  2  0
 26 27  1  0
 15 28  1  0
 28 29  1  0
 11  6  1  0
 29 12  1  0
 26 21  1  0
  1 30  1  0
  1 31  1  0
  1 32  1  0
  2 33  1  0
  2 34  1  0
  7 35  1  0
  8 36  1  0
  9 37  1  0
 10 38  1  0
 11 39  1  0
 12 40  1  0
 13 41  1  0
 13 42  1  0
 14 43  1  0
 14 44  1  0
 18 45  1  1
 19 46  1  0
 19 47  1  0
 20 48  1  0
 20 49  1  0
 22 50  1  0
 23 51  1  0
 24 52  1  0
 25 53  1  0
 27 54  1  0
 27 55  1  0
 27 56  1  0
 28 57  1  0
 28 58  1  0
 29 59  1  0
 29 60  1  0
M  END
>  <smiles>  (7) 
CCC(=O)N(c1ccccc1)C1CCN(C(=O)[C@H](N)Cc2ccccc2C)CC1

>  <score_type>  (7) 
oracle

>  <origin>  (7) 
autodockgpu

>  <m_score__min__energy>  (7) 
-7.6100000000000003

>  <m_primary>  (7) 
energy

>  <rmsd>  (7) 
5.718065916229756

>  <m_score__min__rmsd>  (7) 
5.718065916229756

>  <meeko>  (7) 
{"free_energy": -6.19, "intermolecular_energy": -8.57, "internal_energy": -2.56, "cluster_size": 15, "cluster_id": 6, "rank_in_cluster": 15}

>  <energy>  (7) 
-6.92

>  <cluster_rmsd>  (7) 
1.67

>  <cluster>  (7) 
2

$$$$

     RDKit          3D

 60 62  0  0  0  0  0  0  0  0999 V2000
  142.5920   80.2160  218.2000 C   0  0  0  0  0  0  0  0  0  0  0  0
  141.6470   81.1620  218.9490 C   0  0  0  0  0  0  0  0  0  0  0  0
  140.7240   80.3710  219.7770 C   0  0  0  0  0  0  0  0  0  0  0  0
  139.4840   80.4920  219.5340 O   0  0  0  0  0  0  0  0  0  0  0  0
  141.0810   79.4880  220.8190 N   0  0  0  0  0  0  0  0  0  0  0  0
  141.6740   80.1290  221.9810 C   0  0  0  0  0  0  0  0  0  0  0  0
  140.8790   81.0180  222.7060 C   0  0  0  0  0  0  0  0  0  0  0  0
  141.4330   81.6380  223.8190 C   0  0  0  0  0  0  0  0  0  0  0  0
  142.7300   81.4060  224.2250 C   0  0  0  0  0  0  0  0  0  0  0  0
  143.4900   80.5130  223.4740 C   0  0  0  0  0  0  0  0  0  0  0  0
  142.9670   79.8780  222.3590 C   0  0  0  0  0  0  0  0  0  0  0  0
  140.9240   78.0810  220.8550 C   0  0  0  0  0  0  0  0  0  0  0  0
  142.0460   77.2660  220.2880 C   0  0  0  0  0  0  0  0  0  0  0  0
  141.4430   75.9030  219.8930 C   0  0  0  0  0  0  0  0  0  0  0  0
  140.7340   75.3180  221.0150 N   0  0  0  0  0  0  0  0  0  0  0  0
  140.6580   73.9170  221.2520 C   0  0  0  0  0  0  0  0  0  0  0  0
  140.0530   73.4920  222.3120 O   0  0  0  0  0  0  0  0  0  0  0  0
  141.2090   72.8450  220.4030 C   0  0  2  0  0  0  0  0  0  0  0  0
  140.2720   72.0900  219.6890 N   0  0  0  0  0  0  0  0  0  0  0  0
  142.2580   72.0320  221.1300 C   0  0  0  0  0  0  0  0  0  0  0  0
  143.5900   72.3990  220.6310 C   0  0  0  0  0  0  0  0  0  0  0  0
  144.0220   73.7080  220.8340 C   0  0  0  0  0  0  0  0  0  0  0  0
  145.2430   74.1630  220.3820 C   0  0  0  0  0  0  0  0  0  0  0  0
  146.0690   73.3110  219.7090 C   0  0  0  0  0  0  0  0  0  0  0  0
  145.6830   72.0250  219.4930 C   0  0  0  0  0  0  0  0  0  0  0  0
  144.4490   71.5720  219.9530 C   0  0  0  0  0  0  0  0  0  0  0  0
  144.1360   70.1470  219.6960 C   0  0  0  0  0  0  0  0  0  0  0  0
  140.0040   76.1520  221.9840 C   0  0  0  0  0  0  0  0  0  0  0  0
  140.6630   77.4870  222.2280 C   0  0  0  0  0  0  0  0  0  0  0  0
  143.1763   79.6311  218.9256 H   0  0  0  0  0  0  0  0  0  0  0  0
  142.0036   79.5342  217.5684 H   0  0  0  0  0  0  0  0  0  0  0  0
  143.2744   80.8037  217.5684 H   0  0  0  0  0  0  0  0  0  0  0  0
  142.2337   81.8342  219.5923 H   0  0  0  0  0  0  0  0  0  0  0  0
  141.0733   81.7594  218.2252 H   0  0  0  0  0  0  0  0  0  0  0  0
  139.8412   81.2224  222.4041 H   0  0  0  0  0  0  0  0  0  0  0  0
  140.8142   82.3397  224.3975 H   0  0  0  0  0  0  0  0  0  0  0  0
  143.1490   81.9078  225.1096 H   0  0  0  0  0  0  0  0  0  0  0  0
  144.5285   80.3071  223.7725 H   0  0  0  0  0  0  0  0  0  0  0  0
  143.5862   79.1765  221.7806 H   0  0  0  0  0  0  0  0  0  0  0  0
  140.0365   78.0057  220.2095 H   0  0  0  0  0  0  0  0  0  0  0  0
  142.4685   77.7650  219.4034 H   0  0  0  0  0  0  0  0  0  0  0  0
  142.8577   77.1440  221.0203 H   0  0  0  0  0  0  0  0  0  0  0  0
  140.7429   76.0454  219.0566 H   0  0  0  0  0  0  0  0  0  0  0  0
  142.2572   75.2264  219.5943 H   0  0  0  0  0  0  0  0  0  0  0  0
  141.7317   73.3670  219.5880 H   0  0  0  0  0  0  0  0  0  0  0  0
  140.6750   71.2800  219.2260 H   0  0  0  0  0  0  0  0  0  0  0  0
  139.3370   72.0710  220.0640 H   0  0  0  0  0  0  0  0  0  0  0  0
  142.2002   72.2386  222.2089 H   0  0  0  0  0  0  0  0  0  0  0  0
  142.0811   70.9608  220.9535 H   0  0  0  0  0  0  0  0  0  0  0  0
  143.3647   74.4046  221.3750 H   0  0  0  0  0  0  0  0  0  0  0  0
  145.5483   75.2042  220.5627 H   0  0  0  0  0  0  0  0  0  0  0  0
  147.0444   73.6632  219.3421 H   0  0  0  0  0  0  0  0  0  0  0  0
  146.3499   71.3381  218.9513 H   0  0  0  0  0  0  0  0  0  0  0  0
  144.0199   69.6186  220.6538 H   0  0  0  0  0  0  0  0  0  0  0  0
  143.2006   70.0749  219.1217 H   0  0  0  0  0  0  0  0  0  0  0  0
  144.9551   69.6895  219.1217 H   0  0  0  0  0  0  0  0  0  0  0  0
  138.9883   76.3276  221.6000 H   0  0  0  0  0  0  0  0  0  0  0  0
  139.9935   75.6107  222.9415 H   0  0  0  0  0  0  0  0  0  0  0  0
  139.9962   78.1423  222.8077 H   0  0  0  0  0  0  0  0  0  0  0  0
  141.5939   77.3780  222.8039 H   0  0  0  0  0  0  0  0  0  0  0  0
  1  2  1  0
  2  3  1  0
  3  4  2  0
  3  5  1  0
  5  6  1  0
  6  7  2  0
  7  8  1  0
  8  9  2  0
  9 10  1  0
 10 11  2  0
  5 12  1  0
 12 13  1  0
 13 14  1  0
 14 15  1  0
 15 16  1  0
 16 17  2  0
 16 18  1  0
 18 19  1  0
 18 20  1  0
 20 21  1  0
 21 22  2  0
 22 23  1  0
 23 24  2  0
 24 25  1  0
 25 26  2  0
 26 27  1  0
 15 28  1  0
 28 29  1  0
 11  6  1  0
 29 12  1  0
 26 21  1  0
  1 30  1  0
  1 31  1  0
  1 32  1  0
  2 33  1  0
  2 34  1  0
  7 35  1  0
  8 36  1  0
  9 37  1  0
 10 38  1  0
 11 39  1  0
 12 40  1  0
 13 41  1  0
 13 42  1  0
 14 43  1  0
 14 44  1  0
 18 45  1  6
 19 46  1  0
 19 47  1  0
 20 48  1  0
 20 49  1  0
 22 50  1  0
 23 51  1  0
 24 52  1  0
 25 53  1  0
 27 54  1  0
 27 55  1  0
 27 56  1  0
 28 57  1  0
 28 58  1  0
 29 59  1  0
 29 60  1  0
M  END
>  <smiles>  (8) 
CCC(=O)N(c1ccccc1)C1CCN(C(=O)[C@H](N)Cc2ccccc2C)CC1

>  <score_type>  (8) 
oracle

>  <origin>  (8) 
autodockgpu

>  <m_score__min__energy>  (8) 
-7.6100000000000003

>  <m_primary>  (8) 
energy

>  <rmsd>  (8) 
4.8486606479555645

>  <m_score__min__rmsd>  (8) 
4.8486606479555645

>  <meeko>  (8) 
{"free_energy": -6.65, "intermolecular_energy": -9.04, "internal_energy": -2.04, "cluster_size": 1, "cluster_id": 7, "rank_in_cluster": 1}

>  <energy>  (8) 
-6.85

>  <cluster_rmsd>  (8) 
1.01

>  <cluster>  (8) 
2

$$$$

     RDKit          3D

 60 62  0  0  0  0  0  0  0  0999 V2000
  135.9930   70.6700  224.1870 C   0  0  0  0  0  0  0  0  0  0  0  0
  136.4610   69.2720  223.7660 C   0  0  0  0  0  0  0  0  0  0  0  0
  137.8550   69.3470  223.3000 C   0  0  0  0  0  0  0  0  0  0  0  0
  138.2160   68.5010  222.4260 O   0  0  0  0  0  0  0  0  0  0  0  0
  138.8340   70.2690  223.7310 N   0  0  0  0  0  0  0  0  0  0  0  0
  139.4710   69.9340  224.9930 C   0  0  0  0  0  0  0  0  0  0  0  0
  139.4000   68.6060  225.4200 C   0  0  0  0  0  0  0  0  0  0  0  0
  140.0040   68.2710  226.6250 C   0  0  0  0  0  0  0  0  0  0  0  0
  140.6630   69.1980  227.4050 C   0  0  0  0  0  0  0  0  0  0  0  0
  140.7100   70.5110  226.9440 C   0  0  0  0  0  0  0  0  0  0  0  0
  140.1170   70.8780  225.7460 C   0  0  0  0  0  0  0  0  0  0  0  0
  139.2540   71.4540  223.0790 C   0  0  0  0  0  0  0  0  0  0  0  0
  140.5520   71.3850  222.3330 C   0  0  0  0  0  0  0  0  0  0  0  0
  141.0800   72.8310  222.2360 C   0  0  0  0  0  0  0  0  0  0  0  0
  140.0680   73.7040  221.6740 N   0  0  0  0  0  0  0  0  0  0  0  0
  140.3660   74.8270  220.8530 C   0  0  0  0  0  0  0  0  0  0  0  0
  139.3940   75.5120  220.3500 O   0  0  0  0  0  0  0  0  0  0  0  0
  141.7050   75.3260  220.4900 C   0  0  2  0  0  0  0  0  0  0  0  0
  141.8280   76.7160  220.3780 N   0  0  0  0  0  0  0  0  0  0  0  0
  142.3100   74.5420  219.3470 C   0  0  0  0  0  0  0  0  0  0  0  0
  143.5310   73.8700  219.8090 C   0  0  0  0  0  0  0  0  0  0  0  0
  144.5280   74.6580  220.3820 C   0  0  0  0  0  0  0  0  0  0  0  0
  145.7250   74.1320  220.8230 C   0  0  0  0  0  0  0  0  0  0  0  0
  145.9550   72.7940  220.7000 C   0  0  0  0  0  0  0  0  0  0  0  0
  145.0050   71.9920  220.1470 C   0  0  0  0  0  0  0  0  0  0  0  0
  143.7990   72.5300  219.7050 C   0  0  0  0  0  0  0  0  0  0  0  0
  142.8190   71.5690  219.1490 C   0  0  0  0  0  0  0  0  0  0  0  0
  138.6350   73.4990  221.9480 C   0  0  0  0  0  0  0  0  0  0  0  0
  138.2640   72.0430  222.0900 C   0  0  0  0  0  0  0  0  0  0  0  0
  135.9715   70.7343  225.2849 H   0  0  0  0  0  0  0  0  0  0  0  0
  136.6876   71.4245  223.7891 H   0  0  0  0  0  0  0  0  0  0  0  0
  134.9842   70.8542  223.7891 H   0  0  0  0  0  0  0  0  0  0  0  0
  136.3969   68.5885  224.6255 H   0  0  0  0  0  0  0  0  0  0  0  0
  135.8202   68.8972  222.9543 H   0  0  0  0  0  0  0  0  0  0  0  0
  138.8799   67.8461  224.8183 H   0  0  0  0  0  0  0  0  0  0  0  0
  139.9549   67.2277  226.9700 H   0  0  0  0  0  0  0  0  0  0  0  0
  141.1342   68.9106  228.3565 H   0  0  0  0  0  0  0  0  0  0  0  0
  141.2289   71.2735  227.5434 H   0  0  0  0  0  0  0  0  0  0  0  0
  140.1651   71.9217  225.4021 H   0  0  0  0  0  0  0  0  0  0  0  0
  139.3605   72.0928  223.9682 H   0  0  0  0  0  0  0  0  0  0  0  0
  141.2700   70.7542  222.8776 H   0  0  0  0  0  0  0  0  0  0  0  0
  140.4135   70.9447  221.3345 H   0  0  0  0  0  0  0  0  0  0  0  0
  141.3473   73.1871  223.2418 H   0  0  0  0  0  0  0  0  0  0  0  0
  141.9643   72.8439  221.5819 H   0  0  0  0  0  0  0  0  0  0  0  0
  142.3325   75.1228  221.3703 H   0  0  0  0  0  0  0  0  0  0  0  0
  140.9370   77.1920  220.2680 H   0  0  0  0  0  0  0  0  0  0  0  0
  142.5930   77.1370  220.8820 H   0  0  0  0  0  0  0  0  0  0  0  0
  141.5882   73.7903  218.9949 H   0  0  0  0  0  0  0  0  0  0  0  0
  142.5570   75.2265  218.5221 H   0  0  0  0  0  0  0  0  0  0  0  0
  144.3540   75.7391  220.4865 H   0  0  0  0  0  0  0  0  0  0  0  0
  146.4873   74.7869  221.2701 H   0  0  0  0  0  0  0  0  0  0  0  0
  146.9061   72.3638  221.0469 H   0  0  0  0  0  0  0  0  0  0  0  0
  145.1908   70.9123  220.0485 H   0  0  0  0  0  0  0  0  0  0  0  0
  142.2983   71.0584  219.9726 H   0  0  0  0  0  0  0  0  0  0  0  0
  142.0865   72.1086  218.5307 H   0  0  0  0  0  0  0  0  0  0  0  0
  143.3442   70.8261  218.5307 H   0  0  0  0  0  0  0  0  0  0  0  0
  138.3791   74.0187  222.8831 H   0  0  0  0  0  0  0  0  0  0  0  0
  138.0754   73.8988  221.0895 H   0  0  0  0  0  0  0  0  0  0  0  0
  137.2374   71.9456  222.4728 H   0  0  0  0  0  0  0  0  0  0  0  0
  138.3019   71.5211  221.1224 H   0  0  0  0  0  0  0  0  0  0  0  0
  1  2  1  0
  2  3  1  0
  3  4  2  0
  3  5  1  0
  5  6  1  0
  6  7  2  0
  7  8  1  0
  8  9  2  0
  9 10  1  0
 10 11  2  0
  5 12  1  0
 12 13  1  0
 13 14  1  0
 14 15  1  0
 15 16  1  0
 16 17  2  0
 16 18  1  0
 18 19  1  0
 18 20  1  0
 20 21  1  0
 21 22  2  0
 22 23  1  0
 23 24  2  0
 24 25  1  0
 25 26  2  0
 26 27  1  0
 15 28  1  0
 28 29  1  0
 11  6  1  0
 29 12  1  0
 26 21  1  0
  1 30  1  0
  1 31  1  0
  1 32  1  0
  2 33  1  0
  2 34  1  0
  7 35  1  0
  8 36  1  0
  9 37  1  0
 10 38  1  0
 11 39  1  0
 12 40  1  0
 13 41  1  0
 13 42  1  0
 14 43  1  0
 14 44  1  0
 18 45  1  1
 19 46  1  0
 19 47  1  0
 20 48  1  0
 20 49  1  0
 22 50  1  0
 23 51  1  0
 24 52  1  0
 25 53  1  0
 27 54  1  0
 27 55  1  0
 27 56  1  0
 28 57  1  0
 28 58  1  0
 29 59  1  0
 29 60  1  0
M  END
>  <smiles>  (9) 
CCC(=O)N(c1ccccc1)C1CCN(C(=O)[C@H](N)Cc2ccccc2C)CC1

>  <score_type>  (9) 
oracle

>  <origin>  (9) 
autodockgpu

>  <m_score__min__energy>  (9) 
-7.6100000000000003

>  <m_primary>  (9) 
energy

>  <rmsd>  (9) 
6.635805921550662

>  <m_score__min__rmsd>  (9) 
6.635805921550662

>  <meeko>  (9) 
{"free_energy": -6.44, "intermolecular_energy": -8.83, "internal_energy": -2.53, "cluster_size": 19, "cluster_id": 4, "rank_in_cluster": 18}

>  <energy>  (9) 
-7.19

>  <cluster_rmsd>  (9) 
0.0

>  <cluster>  (9) 
3

$$$$

     RDKit          3D

 60 62  0  0  0  0  0  0  0  0999 V2000
  146.3830   73.1110  221.6640 C   0  0  0  0  0  0  0  0  0  0  0  0
  146.2470   74.0160  220.4350 C   0  0  0  0  0  0  0  0  0  0  0  0
  145.7810   73.2160  219.2920 C   0  0  0  0  0  0  0  0  0  0  0  0
  146.3650   73.4040  218.1810 O   0  0  0  0  0  0  0  0  0  0  0  0
  144.7440   72.2580  219.3080 N   0  0  0  0  0  0  0  0  0  0  0  0
  145.0620   71.0080  218.6360 C   0  0  0  0  0  0  0  0  0  0  0  0
  145.9280   70.1260  219.2860 C   0  0  0  0  0  0  0  0  0  0  0  0
  146.2410   68.9290  218.6560 C   0  0  0  0  0  0  0  0  0  0  0  0
  145.7300   68.5880  217.4210 C   0  0  0  0  0  0  0  0  0  0  0  0
  144.8720   69.4960  216.8060 C   0  0  0  0  0  0  0  0  0  0  0  0
  144.5390   70.6990  217.4080 C   0  0  0  0  0  0  0  0  0  0  0  0
  143.4620   72.3770  219.8970 C   0  0  0  0  0  0  0  0  0  0  0  0
  142.9770   71.2030  220.6920 C   0  0  0  0  0  0  0  0  0  0  0  0
  141.4380   71.2940  220.7150 C   0  0  0  0  0  0  0  0  0  0  0  0
  141.0140   72.6000  221.1840 N   0  0  0  0  0  0  0  0  0  0  0  0
  139.8290   72.8160  221.9410 C   0  0  0  0  0  0  0  0  0  0  0  0
  139.5650   74.0080  222.3640 O   0  0  0  0  0  0  0  0  0  0  0  0
  138.8240   71.8070  222.3190 C   0  0  2  0  0  0  0  0  0  0  0  0
  137.7550   72.2700  223.0940 N   0  0  0  0  0  0  0  0  0  0  0  0
  139.4650   70.5320  222.8200 C   0  0  0  0  0  0  0  0  0  0  0  0
  139.7860   70.6760  224.2460 C   0  0  0  0  0  0  0  0  0  0  0  0
  140.7460   71.6200  224.6030 C   0  0  0  0  0  0  0  0  0  0  0  0
  141.1420   71.8160  225.9100 C   0  0  0  0  0  0  0  0  0  0  0  0
  140.5810   71.0650  226.9000 C   0  0  0  0  0  0  0  0  0  0  0  0
  139.6380   70.1330  226.5910 C   0  0  0  0  0  0  0  0  0  0  0  0
  139.2440   69.9410  225.2690 C   0  0  0  0  0  0  0  0  0  0  0  0
  138.1890   68.9270  225.0410 C   0  0  0  0  0  0  0  0  0  0  0  0
  141.7830   73.8170  220.8720 C   0  0  0  0  0  0  0  0  0  0  0  0
  143.2710   73.5740  220.8100 C   0  0  0  0  0  0  0  0  0  0  0  0
  146.2919   73.7170  222.5775 H   0  0  0  0  0  0  0  0  0  0  0  0
  145.5892   72.3497  221.6484 H   0  0  0  0  0  0  0  0  0  0  0  0
  147.3655   72.6166  221.6484 H   0  0  0  0  0  0  0  0  0  0  0  0
  145.5204   74.8146  220.6452 H   0  0  0  0  0  0  0  0  0  0  0  0
  147.2229   74.4646  220.1976 H   0  0  0  0  0  0  0  0  0  0  0  0
  146.3509   70.3731  220.2709 H   0  0  0  0  0  0  0  0  0  0  0  0
  146.9214   68.2269  219.1602 H   0  0  0  0  0  0  0  0  0  0  0  0
  145.9907   67.6339  216.9397 H   0  0  0  0  0  0  0  0  0  0  0  0
  144.4490   69.2530  215.8201 H   0  0  0  0  0  0  0  0  0  0  0  0
  143.8592   71.4012  216.9032 H   0  0  0  0  0  0  0  0  0  0  0  0
  142.8738   72.4785  218.9731 H   0  0  0  0  0  0  0  0  0  0  0  0
  143.2949   70.2640  220.2152 H   0  0  0  0  0  0  0  0  0  0  0  0
  143.3910   71.2150  221.7111 H   0  0  0  0  0  0  0  0  0  0  0  0
  141.0503   71.1308  219.6986 H   0  0  0  0  0  0  0  0  0  0  0  0
  141.0460   70.5258  221.3978 H   0  0  0  0  0  0  0  0  0  0  0  0
  138.3131   71.5489  221.3796 H   0  0  0  0  0  0  0  0  0  0  0  0
  137.5630   71.6890  223.9060 H   0  0  0  0  0  0  0  0  0  0  0  0
  137.6220   73.2690  223.1170 H   0  0  0  0  0  0  0  0  0  0  0  0
  138.7676   69.6923  222.6836 H   0  0  0  0  0  0  0  0  0  0  0  0
  140.3873   70.3367  222.2533 H   0  0  0  0  0  0  0  0  0  0  0  0
  141.2057   72.2322  223.8132 H   0  0  0  0  0  0  0  0  0  0  0  0
  141.9039   72.5718  226.1513 H   0  0  0  0  0  0  0  0  0  0  0  0
  140.8895   71.2118  227.9456 H   0  0  0  0  0  0  0  0  0  0  0  0
  139.1846   69.5281  227.3901 H   0  0  0  0  0  0  0  0  0  0  0  0
  137.8127   68.5653  226.0093 H   0  0  0  0  0  0  0  0  0  0  0  0
  137.3630   69.3788  224.4722 H   0  0  0  0  0  0  0  0  0  0  0  0
  138.6077   68.0837  224.4722 H   0  0  0  0  0  0  0  0  0  0  0  0
  141.4497   74.2020  219.8970 H   0  0  0  0  0  0  0  0  0  0  0  0
  141.6007   74.5384  221.6822 H   0  0  0  0  0  0  0  0  0  0  0  0
  143.7852   74.4548  220.3980 H   0  0  0  0  0  0  0  0  0  0  0  0
  143.6909   73.3891  221.8097 H   0  0  0  0  0  0  0  0  0  0  0  0
  1  2  1  0
  2  3  1  0
  3  4  2  0
  3  5  1  0
  5  6  1  0
  6  7  2  0
  7  8  1  0
  8  9  2  0
  9 10  1  0
 10 11  2  0
  5 12  1  0
 12 13  1  0
 13 14  1  0
 14 15  1  0
 15 16  1  0
 16 17  2  0
 16 18  1  0
 18 19  1  0
 18 20  1  0
 20 21  1  0
 21 22  2  0
 22 23  1  0
 23 24  2  0
 24 25  1  0
 25 26  2  0
 26 27  1  0
 15 28  1  0
 28 29  1  0
 11  6  1  0
 29 12  1  0
 26 21  1  0
  1 30  1  0
  1 31  1  0
  1 32  1  0
  2 33  1  0
  2 34  1  0
  7 35  1  0
  8 36  1  0
  9 37  1  0
 10 38  1  0
 11 39  1  0
 12 40  1  0
 13 41  1  0
 13 42  1  0
 14 43  1  0
 14 44  1  0
 18 45  1  6
 19 46  1  0
 19 47  1  0
 20 48  1  0
 20 49  1  0
 22 50  1  0
 23 51  1  0
 24 52  1  0
 25 53  1  0
 27 54  1  0
 27 55  1  0
 27 56  1  0
 28 57  1  0
 28 58  1  0
 29 59  1  0
 29 60  1  0
M  END
>  <smiles>  (10) 
CCC(=O)N(c1ccccc1)C1CCN(C(=O)[C@H](N)Cc2ccccc2C)CC1

>  <score_type>  (10) 
oracle

>  <origin>  (10) 
autodockgpu

>  <m_score__min__energy>  (10) 
-7.6100000000000003

>  <m_primary>  (10) 
energy

>  <rmsd>  (10) 
8.05442360234251

>  <m_score__min__rmsd>  (10) 
8.05442360234251

>  <meeko>  (10) 
{"free_energy": -7.2, "intermolecular_energy": -9.59, "internal_energy": -2.23, "cluster_size": 5, "cluster_id": 2, "rank_in_cluster": 1}

>  <energy>  (10) 
-6.89

>  <cluster_rmsd>  (10) 
1.72

>  <cluster>  (10) 
3

$$$$

     RDKit          3D

 60 62  0  0  0  0  0  0  0  0999 V2000
  136.6780   70.0360  224.2470 C   0  0  0  0  0  0  0  0  0  0  0  0
  137.2080   69.8970  222.8150 C   0  0  0  0  0  0  0  0  0  0  0  0
  138.6770   69.8350  222.8450 C   0  0  0  0  0  0  0  0  0  0  0  0
  139.2190   68.8000  222.3490 O   0  0  0  0  0  0  0  0  0  0  0  0
  139.5470   70.8150  223.3710 N   0  0  0  0  0  0  0  0  0  0  0  0
  140.0000   70.5580  224.7280 C   0  0  0  0  0  0  0  0  0  0  0  0
  139.7550   69.2920  225.2630 C   0  0  0  0  0  0  0  0  0  0  0  0
  140.1820   69.0330  226.5590 C   0  0  0  0  0  0  0  0  0  0  0  0
  140.8340   69.9770  227.3250 C   0  0  0  0  0  0  0  0  0  0  0  0
  141.0590   71.2270  226.7550 C   0  0  0  0  0  0  0  0  0  0  0  0
  140.6450   71.5170  225.4650 C   0  0  0  0  0  0  0  0  0  0  0  0
  140.0160   71.9890  222.7340 C   0  0  0  0  0  0  0  0  0  0  0  0
  141.0750   71.8080  221.6890 C   0  0  0  0  0  0  0  0  0  0  0  0
  141.8220   73.1530  221.5820 C   0  0  0  0  0  0  0  0  0  0  0  0
  140.8840   74.2370  221.3580 N   0  0  0  0  0  0  0  0  0  0  0  0
  141.1870   75.3910  220.5820 C   0  0  0  0  0  0  0  0  0  0  0  0
  140.2670   76.2770  220.3900 O   0  0  0  0  0  0  0  0  0  0  0  0
  142.4760   75.7130  219.9440 C   0  0  2  0  0  0  0  0  0  0  0  0
  142.6110   77.0230  219.4690 N   0  0  0  0  0  0  0  0  0  0  0  0
  142.9090   74.6380  218.9720 C   0  0  0  0  0  0  0  0  0  0  0  0
  144.0550   73.9090  219.5310 C   0  0  0  0  0  0  0  0  0  0  0  0
  144.8350   74.5580  220.4850 C   0  0  0  0  0  0  0  0  0  0  0  0
  145.9490   73.9750  221.0530 C   0  0  0  0  0  0  0  0  0  0  0  0
  146.3120   72.7160  220.6750 C   0  0  0  0  0  0  0  0  0  0  0  0
  145.5750   72.0490  219.7470 C   0  0  0  0  0  0  0  0  0  0  0  0
  144.4510   72.6440  219.1790 C   0  0  0  0  0  0  0  0  0  0  0  0
  143.6970   71.8230  218.2030 C   0  0  0  0  0  0  0  0  0  0  0  0
  139.5390   74.2280  221.9580 C   0  0  0  0  0  0  0  0  0  0  0  0
  138.9520   72.8430  222.0690 C   0  0  0  0  0  0  0  0  0  0  0  0
  137.4882   69.8235  224.9601 H   0  0  0  0  0  0  0  0  0  0  0  0
  136.3106   71.0609  224.4041 H   0  0  0  0  0  0  0  0  0  0  0  0
  135.8549   69.3233  224.4041 H   0  0  0  0  0  0  0  0  0  0  0  0
  136.8104   68.9760  222.3637 H   0  0  0  0  0  0  0  0  0  0  0  0
  136.8876   70.7632  222.2175 H   0  0  0  0  0  0  0  0  0  0  0  0
  139.2377   68.5204  224.6740 H   0  0  0  0  0  0  0  0  0  0  0  0
  139.9934   68.0388  226.9904 H   0  0  0  0  0  0  0  0  0  0  0  0
  141.1643   69.7502  228.3494 H   0  0  0  0  0  0  0  0  0  0  0  0
  141.5764   72.0008  227.3412 H   0  0  0  0  0  0  0  0  0  0  0  0
  140.8329   72.5117  225.0345 H   0  0  0  0  0  0  0  0  0  0  0  0
  140.4366   72.4891  223.6189 H   0  0  0  0  0  0  0  0  0  0  0  0
  141.7707   71.0100  221.9877 H   0  0  0  0  0  0  0  0  0  0  0  0
  140.6344   71.5207  220.7229 H   0  0  0  0  0  0  0  0  0  0  0  0
  142.3721   73.3372  222.5166 H   0  0  0  0  0  0  0  0  0  0  0  0
  142.5214   73.1059  220.7343 H   0  0  0  0  0  0  0  0  0  0  0  0
  143.2100   75.7032  220.7632 H   0  0  0  0  0  0  0  0  0  0  0  0
  141.7210   77.4930  219.3230 H   0  0  0  0  0  0  0  0  0  0  0  0
  143.4290   77.5260  219.7760 H   0  0  0  0  0  0  0  0  0  0  0  0
  142.0765   73.9392  218.8026 H   0  0  0  0  0  0  0  0  0  0  0  0
  143.1978   75.1006  218.0167 H   0  0  0  0  0  0  0  0  0  0  0  0
  144.5521   75.5740  220.7975 H   0  0  0  0  0  0  0  0  0  0  0  0
  146.5391   74.5208  221.8040 H   0  0  0  0  0  0  0  0  0  0  0  0
  147.1989   72.2411  221.1198 H   0  0  0  0  0  0  0  0  0  0  0  0
  145.8683   71.0333  219.4430 H   0  0  0  0  0  0  0  0  0  0  0  0
  143.0483   71.1166  218.7417 H   0  0  0  0  0  0  0  0  0  0  0  0
  143.0800   72.4789  217.5713 H   0  0  0  0  0  0  0  0  0  0  0  0
  144.4030   71.2639  217.5713 H   0  0  0  0  0  0  0  0  0  0  0  0
  139.6020   74.6637  222.9660 H   0  0  0  0  0  0  0  0  0  0  0  0
  138.8807   74.8123  221.2983 H   0  0  0  0  0  0  0  0  0  0  0  0
  138.0393   72.8629  222.6827 H   0  0  0  0  0  0  0  0  0  0  0  0
  138.6735   72.4435  221.0827 H   0  0  0  0  0  0  0  0  0  0  0  0
  1  2  1  0
  2  3  1  0
  3  4  2  0
  3  5  1  0
  5  6  1  0
  6  7  2  0
  7  8  1  0
  8  9  2  0
  9 10  1  0
 10 11  2  0
  5 12  1  0
 12 13  1  0
 13 14  1  0
 14 15  1  0
 15 16  1  0
 16 17  2  0
 16 18  1  0
 18 19  1  0
 18 20  1  0
 20 21  1  0
 21 22  2  0
 22 23  1  0
 23 24  2  0
 24 25  1  0
 25 26  2  0
 26 27  1  0
 15 28  1  0
 28 29  1  0
 11  6  1  0
 29 12  1  0
 26 21  1  0
  1 30  1  0
  1 31  1  0
  1 32  1  0
  2 33  1  0
  2 34  1  0
  7 35  1  0
  8 36  1  0
  9 37  1  0
 10 38  1  0
 11 39  1  0
 12 40  1  0
 13 41  1  0
 13 42  1  0
 14 43  1  0
 14 44  1  0
 18 45  1  1
 19 46  1  0
 19 47  1  0
 20 48  1  0
 20 49  1  0
 22 50  1  0
 23 51  1  0
 24 52  1  0
 25 53  1  0
 27 54  1  0
 27 55  1  0
 27 56  1  0
 28 57  1  0
 28 58  1  0
 29 59  1  0
 29 60  1  0
M  END
>  <smiles>  (11) 
CCC(=O)N(c1ccccc1)C1CCN(C(=O)[C@H](N)Cc2ccccc2C)CC1

>  <score_type>  (11) 
oracle

>  <origin>  (11) 
autodockgpu

>  <m_score__min__energy>  (11) 
-7.6100000000000003

>  <m_primary>  (11) 
energy

>  <rmsd>  (11) 
6.327288175072121

>  <m_score__min__rmsd>  (11) 
6.327288175072121

>  <meeko>  (11) 
{"free_energy": -6.69, "intermolecular_energy": -9.07, "internal_energy": -2.52, "cluster_size": 19, "cluster_id": 4, "rank_in_cluster": 5}

>  <energy>  (11) 
-6.78

>  <cluster_rmsd>  (11) 
0.0

>  <cluster>  (11) 
4

$$$$

     RDKit          3D

 60 62  0  0  0  0  0  0  0  0999 V2000
  136.7400   70.8380  223.8950 C   0  0  0  0  0  0  0  0  0  0  0  0
  137.2760   69.5990  223.1690 C   0  0  0  0  0  0  0  0  0  0  0  0
  138.6920   69.8110  222.8290 C   0  0  0  0  0  0  0  0  0  0  0  0
  139.1990   69.0290  221.9680 O   0  0  0  0  0  0  0  0  0  0  0  0
  139.5440   70.8000  223.3670 N   0  0  0  0  0  0  0  0  0  0  0  0
  139.9790   70.5500  224.7310 C   0  0  0  0  0  0  0  0  0  0  0  0
  140.6750   71.5680  225.3850 C   0  0  0  0  0  0  0  0  0  0  0  0
  141.0960   71.3430  226.6890 C   0  0  0  0  0  0  0  0  0  0  0  0
  140.8530   70.1580  227.3510 C   0  0  0  0  0  0  0  0  0  0  0  0
  140.1560   69.1670  226.6630 C   0  0  0  0  0  0  0  0  0  0  0  0
  139.7210   69.3610  225.3620 C   0  0  0  0  0  0  0  0  0  0  0  0
  140.0120   71.9770  222.7350 C   0  0  0  0  0  0  0  0  0  0  0  0
  141.0700   71.8010  221.6880 C   0  0  0  0  0  0  0  0  0  0  0  0
  141.8160   73.1470  221.5870 C   0  0  0  0  0  0  0  0  0  0  0  0
  140.8780   74.2310  221.3690 N   0  0  0  0  0  0  0  0  0  0  0  0
  141.1800   75.3890  220.5980 C   0  0  0  0  0  0  0  0  0  0  0  0
  140.2590   76.2760  220.4120 O   0  0  0  0  0  0  0  0  0  0  0  0
  142.4680   75.7150  219.9600 C   0  0  2  0  0  0  0  0  0  0  0  0
  142.6050   77.0300  219.4990 N   0  0  0  0  0  0  0  0  0  0  0  0
  142.8950   74.6500  218.9750 C   0  0  0  0  0  0  0  0  0  0  0  0
  144.0430   73.9140  219.5220 C   0  0  0  0  0  0  0  0  0  0  0  0
  144.8410   74.5600  220.4630 C   0  0  0  0  0  0  0  0  0  0  0  0
  145.9570   73.9710  221.0180 C   0  0  0  0  0  0  0  0  0  0  0  0
  146.3060   72.7080  220.6410 C   0  0  0  0  0  0  0  0  0  0  0  0
  145.5510   72.0430  219.7240 C   0  0  0  0  0  0  0  0  0  0  0  0
  144.4240   72.6450  219.1690 C   0  0  0  0  0  0  0  0  0  0  0  0
  143.6520   71.8260  218.2060 C   0  0  0  0  0  0  0  0  0  0  0  0
  139.5330   74.2200  221.9700 C   0  0  0  0  0  0  0  0  0  0  0  0
  138.9470   72.8340  222.0760 C   0  0  0  0  0  0  0  0  0  0  0  0
  136.8068   70.6835  224.9821 H   0  0  0  0  0  0  0  0  0  0  0  0
  137.3386   71.7164  223.6120 H   0  0  0  0  0  0  0  0  0  0  0  0
  135.6900   71.0032  223.6120 H   0  0  0  0  0  0  0  0  0  0  0  0
  137.1826   68.7200  223.8238 H   0  0  0  0  0  0  0  0  0  0  0  0
  136.6967   69.4307  222.2492 H   0  0  0  0  0  0  0  0  0  0  0  0
  140.8844   72.5230  224.8809 H   0  0  0  0  0  0  0  0  0  0  0  0
  141.6438   72.1398  227.2135 H   0  0  0  0  0  0  0  0  0  0  0  0
  141.1967   70.0009  228.3840 H   0  0  0  0  0  0  0  0  0  0  0  0
  139.9466   68.2101  227.1635 H   0  0  0  0  0  0  0  0  0  0  0  0
  139.1714   68.5650  224.8383 H   0  0  0  0  0  0  0  0  0  0  0  0
  140.4337   72.4732  223.6215 H   0  0  0  0  0  0  0  0  0  0  0  0
  141.7664   71.0020  221.9823 H   0  0  0  0  0  0  0  0  0  0  0  0
  140.6288   71.5177  220.7210 H   0  0  0  0  0  0  0  0  0  0  0  0
  142.3666   73.3270  222.5221 H   0  0  0  0  0  0  0  0  0  0  0  0
  142.5147   73.1043  220.7384 H   0  0  0  0  0  0  0  0  0  0  0  0
  143.2043   75.6945  220.7770 H   0  0  0  0  0  0  0  0  0  0  0  0
  141.7170   77.5110  219.3830 H   0  0  0  0  0  0  0  0  0  0  0  0
  143.4360   77.5190  219.7900 H   0  0  0  0  0  0  0  0  0  0  0  0
  142.0610   73.9539  218.8021 H   0  0  0  0  0  0  0  0  0  0  0  0
  143.1798   75.1218  218.0230 H   0  0  0  0  0  0  0  0  0  0  0  0
  144.5704   75.5794  220.7754 H   0  0  0  0  0  0  0  0  0  0  0  0
  146.5609   74.5154  221.7589 H   0  0  0  0  0  0  0  0  0  0  0  0
  147.1948   72.2280  221.0765 H   0  0  0  0  0  0  0  0  0  0  0  0
  145.8325   71.0242  219.4194 H   0  0  0  0  0  0  0  0  0  0  0  0
  142.9984   71.1326  218.7556 H   0  0  0  0  0  0  0  0  0  0  0  0
  143.0386   72.4846  217.5736 H   0  0  0  0  0  0  0  0  0  0  0  0
  144.3457   71.2525  217.5736 H   0  0  0  0  0  0  0  0  0  0  0  0
  139.5965   74.6521  222.9796 H   0  0  0  0  0  0  0  0  0  0  0  0
  138.8740   74.8069  221.3133 H   0  0  0  0  0  0  0  0  0  0  0  0
  138.0355   72.8508  222.6915 H   0  0  0  0  0  0  0  0  0  0  0  0
  138.6672   72.4390  221.0882 H   0  0  0  0  0  0  0  0  0  0  0  0
  1  2  1  0
  2  3  1  0
  3  4  2  0
  3  5  1  0
  5  6  1  0
  6  7  2  0
  7  8  1  0
  8  9  2  0
  9 10  1  0
 10 11  2  0
  5 12  1  0
 12 13  1  0
 13 14  1  0
 14 15  1  0
 15 16  1  0
 16 17  2  0
 16 18  1  0
 18 19  1  0
 18 20  1  0
 20 21  1  0
 21 22  2  0
 22 23  1  0
 23 24  2  0
 24 25  1  0
 25 26  2  0
 26 27  1  0
 15 28  1  0
 28 29  1  0
 11  6  1  0
 29 12  1  0
 26 21  1  0
  1 30  1  0
  1 31  1  0
  1 32  1  0
  2 33  1  0
  2 34  1  0
  7 35  1  0
  8 36  1  0
  9 37  1  0
 10 38  1  0
 11 39  1  0
 12 40  1  0
 13 41  1  0
 13 42  1  0
 14 43  1  0
 14 44  1  0
 18 45  1  1
 19 46  1  0
 19 47  1  0
 20 48  1  0
 20 49  1  0
 22 50  1  0
 23 51  1  0
 24 52  1  0
 25 53  1  0
 27 54  1  0
 27 55  1  0
 27 56  1  0
 28 57  1  0
 28 58  1  0
 29 59  1  0
 29 60  1  0
M  END
>  <smiles>  (12) 
CCC(=O)N(c1ccccc1)C1CCN(C(=O)[C@H](N)Cc2ccccc2C)CC1

>  <score_type>  (12) 
oracle

>  <origin>  (12) 
autodockgpu

>  <m_score__min__energy>  (12) 
-7.6100000000000003

>  <m_primary>  (12) 
energy

>  <rmsd>  (12) 
6.329136726633093

>  <m_score__min__rmsd>  (12) 
6.329136726633093

>  <meeko>  (12) 
{"free_energy": -6.67, "intermolecular_energy": -9.06, "internal_energy": -2.56, "cluster_size": 19, "cluster_id": 4, "rank_in_cluster": 6}

>  <energy>  (12) 
-6.71

>  <cluster_rmsd>  (12) 
1.33

>  <cluster>  (12) 
4

$$$$

     RDKit          3D

 60 62  0  0  0  0  0  0  0  0999 V2000
  136.5870   71.1450  223.8620 C   0  0  0  0  0  0  0  0  0  0  0  0
  136.9710   69.9170  223.0280 C   0  0  0  0  0  0  0  0  0  0  0  0
  138.4250   69.9200  222.8000 C   0  0  0  0  0  0  0  0  0  0  0  0
  138.8940   68.9950  222.0690 O   0  0  0  0  0  0  0  0  0  0  0  0
  139.3510   70.8530  223.3140 N   0  0  0  0  0  0  0  0  0  0  0  0
  139.8460   70.5450  224.6460 C   0  0  0  0  0  0  0  0  0  0  0  0
  139.5420   69.2890  225.1750 C   0  0  0  0  0  0  0  0  0  0  0  0
  140.0090   68.9820  226.4460 C   0  0  0  0  0  0  0  0  0  0  0  0
  140.7540   69.8690  227.1950 C   0  0  0  0  0  0  0  0  0  0  0  0
  141.0350   71.1110  226.6310 C   0  0  0  0  0  0  0  0  0  0  0  0
  140.5840   71.4480  225.3650 C   0  0  0  0  0  0  0  0  0  0  0  0
  139.8410   72.0240  222.6870 C   0  0  0  0  0  0  0  0  0  0  0  0
  140.9540   71.8400  221.6990 C   0  0  0  0  0  0  0  0  0  0  0  0
  141.6920   73.1920  221.6130 C   0  0  0  0  0  0  0  0  0  0  0  0
  140.7560   74.2630  221.3280 N   0  0  0  0  0  0  0  0  0  0  0  0
  141.0880   75.4100  220.5540 C   0  0  0  0  0  0  0  0  0  0  0  0
  140.1700   76.2840  220.3040 O   0  0  0  0  0  0  0  0  0  0  0  0
  142.4040   75.7380  219.9770 C   0  0  2  0  0  0  0  0  0  0  0  0
  142.5680   77.0580  219.5410 N   0  0  0  0  0  0  0  0  0  0  0  0
  142.8690   74.6840  218.9980 C   0  0  0  0  0  0  0  0  0  0  0  0
  143.9840   73.9290  219.5860 C   0  0  0  0  0  0  0  0  0  0  0  0
  144.8400   74.6060  220.4530 C   0  0  0  0  0  0  0  0  0  0  0  0
  145.9320   74.0000  221.0380 C   0  0  0  0  0  0  0  0  0  0  0  0
  146.1970   72.6900  220.7660 C   0  0  0  0  0  0  0  0  0  0  0  0
  145.3840   71.9950  219.9250 C   0  0  0  0  0  0  0  0  0  0  0  0
  144.2820   72.6140  219.3390 C   0  0  0  0  0  0  0  0  0  0  0  0
  143.4410   71.7630  218.4660 C   0  0  0  0  0  0  0  0  0  0  0  0
  139.3830   74.2480  221.8590 C   0  0  0  0  0  0  0  0  0  0  0  0
  138.8040   72.8580  221.9580 C   0  0  0  0  0  0  0  0  0  0  0  0
  136.6635   70.9003  224.9317 H   0  0  0  0  0  0  0  0  0  0  0  0
  137.2682   71.9759  223.6263 H   0  0  0  0  0  0  0  0  0  0  0  0
  135.5538   71.4398  223.6263 H   0  0  0  0  0  0  0  0  0  0  0  0
  136.6855   69.0021  223.5679 H   0  0  0  0  0  0  0  0  0  0  0  0
  136.4461   69.9486  222.0618 H   0  0  0  0  0  0  0  0  0  0  0  0
  138.9487   68.5625  224.6004 H   0  0  0  0  0  0  0  0  0  0  0  0
  139.7762   67.9947  226.8715 H   0  0  0  0  0  0  0  0  0  0  0  0
  141.1129   69.6051  228.2007 H   0  0  0  0  0  0  0  0  0  0  0  0
  141.6278   71.8401  227.2029 H   0  0  0  0  0  0  0  0  0  0  0  0
  140.8172   72.4352  224.9395 H   0  0  0  0  0  0  0  0  0  0  0  0
  140.2115   72.5400  223.5850 H   0  0  0  0  0  0  0  0  0  0  0  0
  141.6413   71.0532  222.0432 H   0  0  0  0  0  0  0  0  0  0  0  0
  140.5664   71.5353  220.7157 H   0  0  0  0  0  0  0  0  0  0  0  0
  142.1919   73.3934  222.5719 H   0  0  0  0  0  0  0  0  0  0  0  0
  142.4340   73.1421  220.8024 H   0  0  0  0  0  0  0  0  0  0  0  0
  143.1036   75.7032  220.8252 H   0  0  0  0  0  0  0  0  0  0  0  0
  141.6970   77.5810  219.5030 H   0  0  0  0  0  0  0  0  0  0  0  0
  143.4400   77.5020  219.7830 H   0  0  0  0  0  0  0  0  0  0  0  0
  142.0384   73.9980  218.7754 H   0  0  0  0  0  0  0  0  0  0  0  0
  143.2031   75.1681  218.0685 H   0  0  0  0  0  0  0  0  0  0  0  0
  144.6369   75.6632  220.6791 H   0  0  0  0  0  0  0  0  0  0  0  0
  146.5836   74.5682  221.7181 H   0  0  0  0  0  0  0  0  0  0  0  0
  147.0661   72.1965  221.2255 H   0  0  0  0  0  0  0  0  0  0  0  0
  145.5980   70.9384  219.7065 H   0  0  0  0  0  0  0  0  0  0  0  0
  142.8031   71.1175  219.0877 H   0  0  0  0  0  0  0  0  0  0  0  0
  142.8088   72.4010  217.8310 H   0  0  0  0  0  0  0  0  0  0  0  0
  144.0865   71.1384  217.8310 H   0  0  0  0  0  0  0  0  0  0  0  0
  139.3907   74.6968  222.8632 H   0  0  0  0  0  0  0  0  0  0  0  0
  138.7535   74.8175  221.1594 H   0  0  0  0  0  0  0  0  0  0  0  0
  137.8612   72.8761  222.5243 H   0  0  0  0  0  0  0  0  0  0  0  0
  138.5795   72.4433  220.9642 H   0  0  0  0  0  0  0  0  0  0  0  0
  1  2  1  0
  2  3  1  0
  3  4  2  0
  3  5  1  0
  5  6  1  0
  6  7  2  0
  7  8  1  0
  8  9  2  0
  9 10  1  0
 10 11  2  0
  5 12  1  0
 12 13  1  0
 13 14  1  0
 14 15  1  0
 15 16  1  0
 16 17  2  0
 16 18  1  0
 18 19  1  0
 18 20  1  0
 20 21  1  0
 21 22  2  0
 22 23  1  0
 23 24  2  0
 24 25  1  0
 25 26  2  0
 26 27  1  0
 15 28  1  0
 28 29  1  0
 11  6  1  0
 29 12  1  0
 26 21  1  0
  1 30  1  0
  1 31  1  0
  1 32  1  0
  2 33  1  0
  2 34  1  0
  7 35  1  0
  8 36  1  0
  9 37  1  0
 10 38  1  0
 11 39  1  0
 12 40  1  0
 13 41  1  0
 13 42  1  0
 14 43  1  0
 14 44  1  0
 18 45  1  1
 19 46  1  0
 19 47  1  0
 20 48  1  0
 20 49  1  0
 22 50  1  0
 23 51  1  0
 24 52  1  0
 25 53  1  0
 27 54  1  0
 27 55  1  0
 27 56  1  0
 28 57  1  0
 28 58  1  0
 29 59  1  0
 29 60  1  0
M  END
>  <smiles>  (13) 
CCC(=O)N(c1ccccc1)C1CCN(C(=O)[C@H](N)Cc2ccccc2C)CC1

>  <score_type>  (13) 
oracle

>  <origin>  (13) 
autodockgpu

>  <m_score__min__energy>  (13) 
-7.6100000000000003

>  <m_primary>  (13) 
energy

>  <rmsd>  (13) 
6.305701944648166

>  <m_score__min__rmsd>  (13) 
6.305701944648166

>  <meeko>  (13) 
{"free_energy": -6.53, "intermolecular_energy": -8.92, "internal_energy": -2.6, "cluster_size": 19, "cluster_id": 4, "rank_in_cluster": 14}

>  <energy>  (13) 
-6.71

>  <cluster_rmsd>  (13) 
1.34

>  <cluster>  (13) 
4

$$$$

     RDKit          3D

 60 62  0  0  0  0  0  0  0  0999 V2000
  142.5110   77.5370  218.6960 C   0  0  0  0  0  0  0  0  0  0  0  0
  141.4240   78.6060  218.5480 C   0  0  0  0  0  0  0  0  0  0  0  0
  140.3160   78.3030  219.4670 C   0  0  0  0  0  0  0  0  0  0  0  0
  139.1480   78.6170  219.0840 O   0  0  0  0  0  0  0  0  0  0  0  0
  140.4230   77.6940  220.7370 N   0  0  0  0  0  0  0  0  0  0  0  0
  140.8850   78.5760  221.7950 C   0  0  0  0  0  0  0  0  0  0  0  0
  139.9460   79.0030  222.7380 C   0  0  0  0  0  0  0  0  0  0  0  0
  140.3730   79.8460  223.7550 C   0  0  0  0  0  0  0  0  0  0  0  0
  141.6810   80.2720  223.8620 C   0  0  0  0  0  0  0  0  0  0  0  0
  142.5850   79.8260  222.9020 C   0  0  0  0  0  0  0  0  0  0  0  0
  142.1910   78.9830  221.8750 C   0  0  0  0  0  0  0  0  0  0  0  0
  140.1330   76.3520  221.0820 C   0  0  0  0  0  0  0  0  0  0  0  0
  141.2010   75.6030  221.8200 C   0  0  0  0  0  0  0  0  0  0  0  0
  140.9430   74.1040  221.5650 C   0  0  0  0  0  0  0  0  0  0  0  0
  139.5750   73.7610  221.9010 N   0  0  0  0  0  0  0  0  0  0  0  0
  139.1890   72.4950  222.4260 C   0  0  0  0  0  0  0  0  0  0  0  0
  137.9530   72.3020  222.7510 O   0  0  0  0  0  0  0  0  0  0  0  0
  140.0610   71.3290  222.6550 C   0  0  2  0  0  0  0  0  0  0  0  0
  140.6760   70.7950  221.5160 N   0  0  0  0  0  0  0  0  0  0  0  0
  139.4140   70.3090  223.5640 C   0  0  0  0  0  0  0  0  0  0  0  0
  139.9450   70.4620  224.9250 C   0  0  0  0  0  0  0  0  0  0  0  0
  140.5980   71.6530  225.2370 C   0  0  0  0  0  0  0  0  0  0  0  0
  141.1580   71.8870  226.4750 C   0  0  0  0  0  0  0  0  0  0  0  0
  141.0770   70.9270  227.4400 C   0  0  0  0  0  0  0  0  0  0  0  0
  140.4460   69.7520  227.1740 C   0  0  0  0  0  0  0  0  0  0  0  0
  139.8820   69.5220  225.9210 C   0  0  0  0  0  0  0  0  0  0  0  0
  139.1900   68.2250  225.7420 C   0  0  0  0  0  0  0  0  0  0  0  0
  138.4670   74.7080  221.6870 C   0  0  0  0  0  0  0  0  0  0  0  0
  138.8720   76.1450  221.9010 C   0  0  0  0  0  0  0  0  0  0  0  0
  142.6998   77.3514  219.7637 H   0  0  0  0  0  0  0  0  0  0  0  0
  142.1772   76.6056  218.2153 H   0  0  0  0  0  0  0  0  0  0  0  0
  143.4367   77.8863  218.2153 H   0  0  0  0  0  0  0  0  0  0  0  0
  141.8438   79.5932  218.7914 H   0  0  0  0  0  0  0  0  0  0  0  0
  141.0526   78.6131  217.5126 H   0  0  0  0  0  0  0  0  0  0  0  0
  138.8964   78.6797  222.6760 H   0  0  0  0  0  0  0  0  0  0  0  0
  139.6419   80.1868  224.5029 H   0  0  0  0  0  0  0  0  0  0  0  0
  141.9980   80.9399  224.6765 H   0  0  0  0  0  0  0  0  0  0  0  0
  143.6347   80.1496  222.9598 H   0  0  0  0  0  0  0  0  0  0  0  0
  142.9229   78.6423  221.1279 H   0  0  0  0  0  0  0  0  0  0  0  0
  140.0212   75.9495  220.0644 H   0  0  0  0  0  0  0  0  0  0  0  0
  142.1942   75.8870  221.4420 H   0  0  0  0  0  0  0  0  0  0  0  0
  141.1763   75.8328  222.8954 H   0  0  0  0  0  0  0  0  0  0  0  0
  141.1218   73.8813  220.5027 H   0  0  0  0  0  0  0  0  0  0  0  0
  141.6236   73.5131  222.1955 H   0  0  0  0  0  0  0  0  0  0  0  0
  140.9281   71.7249  223.2040 H   0  0  0  0  0  0  0  0  0  0  0  0
  141.4490   71.3590  221.1730 H   0  0  0  0  0  0  0  0  0  0  0  0
  140.6850   69.7890  221.4460 H   0  0  0  0  0  0  0  0  0  0  0  0
  138.3253   70.4656  223.5751 H   0  0  0  0  0  0  0  0  0  0  0  0
  139.6342   69.2963  223.1954 H   0  0  0  0  0  0  0  0  0  0  0  0
  140.6693   72.4354  224.4670 H   0  0  0  0  0  0  0  0  0  0  0  0
  141.6660   72.8404  226.6826 H   0  0  0  0  0  0  0  0  0  0  0  0
  141.5209   71.1025  228.4310 H   0  0  0  0  0  0  0  0  0  0  0  0
  140.3805   68.9783  227.9531 H   0  0  0  0  0  0  0  0  0  0  0  0
  138.9597   67.7933  226.7272 H   0  0  0  0  0  0  0  0  0  0  0  0
  138.2558   68.3819  225.1829 H   0  0  0  0  0  0  0  0  0  0  0  0
  139.8406   67.5364  225.1829 H   0  0  0  0  0  0  0  0  0  0  0  0
  138.1042   74.5958  220.6546 H   0  0  0  0  0  0  0  0  0  0  0  0
  137.6852   74.4726  222.4242 H   0  0  0  0  0  0  0  0  0  0  0  0
  138.0766   76.8216  221.5552 H   0  0  0  0  0  0  0  0  0  0  0  0
  139.0440   76.3603  222.9659 H   0  0  0  0  0  0  0  0  0  0  0  0
  1  2  1  0
  2  3  1  0
  3  4  2  0
  3  5  1  0
  5  6  1  0
  6  7  2  0
  7  8  1  0
  8  9  2  0
  9 10  1  0
 10 11  2  0
  5 12  1  0
 12 13  1  0
 13 14  1  0
 14 15  1  0
 15 16  1  0
 16 17  2  0
 16 18  1  0
 18 19  1  0
 18 20  1  0
 20 21  1  0
 21 22  2  0
 22 23  1  0
 23 24  2  0
 24 25  1  0
 25 26  2  0
 26 27  1  0
 15 28  1  0
 28 29  1  0
 11  6  1  0
 29 12  1  0
 26 21  1  0
  1 30  1  0
  1 31  1  0
  1 32  1  0
  2 33  1  0
  2 34  1  0
  7 35  1  0
  8 36  1  0
  9 37  1  0
 10 38  1  0
 11 39  1  0
 12 40  1  0
 13 41  1  0
 13 42  1  0
 14 43  1  0
 14 44  1  0
 18 45  1  1
 19 46  1  0
 19 47  1  0
 20 48  1  0
 20 49  1  0
 22 50  1  0
 23 51  1  0
 24 52  1  0
 25 53  1  0
 27 54  1  0
 27 55  1  0
 27 56  1  0
 28 57  1  0
 28 58  1  0
 29 59  1  0
 29 60  1  0
M  END
>  <smiles>  (14) 
CCC(=O)N(c1ccccc1)C1CCN(C(=O)[C@H](N)Cc2ccccc2C)CC1

>  <score_type>  (14) 
oracle

>  <origin>  (14) 
autodockgpu

>  <m_score__min__energy>  (14) 
-7.6100000000000003

>  <m_primary>  (14) 
energy

>  <rmsd>  (14) 
7.0636218951431005

>  <m_score__min__rmsd>  (14) 
7.0636218951431005

>  <meeko>  (14) 
{"free_energy": -6.89, "intermolecular_energy": -9.28, "internal_energy": -1.67, "cluster_size": 2, "cluster_id": 3, "rank_in_cluster": 2}

>  <energy>  (14) 
-6.7

>  <cluster_rmsd>  (14) 
1.29

>  <cluster>  (14) 
4

$$$$

     RDKit          3D

 60 62  0  0  0  0  0  0  0  0999 V2000
  140.6060   71.9050  222.3870 C   0  0  0  0  0  0  0  0  0  0  0  0
  140.8470   72.5590  221.0220 C   0  0  0  0  0  0  0  0  0  0  0  0
  141.1320   73.9900  221.2120 C   0  0  0  0  0  0  0  0  0  0  0  0
  140.4930   74.5860  222.1310 O   0  0  0  0  0  0  0  0  0  0  0  0
  142.0480   74.7670  220.4700 N   0  0  0  0  0  0  0  0  0  0  0  0
  143.2630   74.0680  220.0830 C   0  0  0  0  0  0  0  0  0  0  0  0
  143.2460   73.3590  218.8800 C   0  0  0  0  0  0  0  0  0  0  0  0
  144.3990   72.6870  218.4980 C   0  0  0  0  0  0  0  0  0  0  0  0
  145.5480   72.6960  219.2610 C   0  0  0  0  0  0  0  0  0  0  0  0
  145.5230   73.4140  220.4540 C   0  0  0  0  0  0  0  0  0  0  0  0
  144.3890   74.0960  220.8640 C   0  0  0  0  0  0  0  0  0  0  0  0
  141.9140   76.1180  220.0700 C   0  0  0  0  0  0  0  0  0  0  0  0
  141.4570   77.0860  221.1190 C   0  0  0  0  0  0  0  0  0  0  0  0
  140.8300   78.2810  220.3710 C   0  0  0  0  0  0  0  0  0  0  0  0
  141.7550   78.8010  219.3820 N   0  0  0  0  0  0  0  0  0  0  0  0
  141.8320   80.1770  219.0250 C   0  0  0  0  0  0  0  0  0  0  0  0
  142.7280   80.5550  218.1750 O   0  0  0  0  0  0  0  0  0  0  0  0
  140.9790   81.2700  219.5270 C   0  0  2  0  0  0  0  0  0  0  0  0
  140.6190   82.2430  218.5880 N   0  0  0  0  0  0  0  0  0  0  0  0
  141.4780   81.8140  220.8460 C   0  0  0  0  0  0  0  0  0  0  0  0
  140.9480   80.9940  221.9440 C   0  0  0  0  0  0  0  0  0  0  0  0
  139.5650   80.9400  222.1040 C   0  0  0  0  0  0  0  0  0  0  0  0
  138.9650   80.2230  223.1180 C   0  0  0  0  0  0  0  0  0  0  0  0
  139.7420   79.5370  224.0050 C   0  0  0  0  0  0  0  0  0  0  0  0
  141.0960   79.5650  223.8810 C   0  0  0  0  0  0  0  0  0  0  0  0
  141.6950   80.2910  222.8530 C   0  0  0  0  0  0  0  0  0  0  0  0
  143.1730   80.2310  222.7850 C   0  0  0  0  0  0  0  0  0  0  0  0
  142.6720   77.9170  218.6440 C   0  0  0  0  0  0  0  0  0  0  0  0
  143.1560   76.7490  219.4680 C   0  0  0  0  0  0  0  0  0  0  0  0
  140.8677   72.6152  223.1852 H   0  0  0  0  0  0  0  0  0  0  0  0
  139.5459   71.6257  222.4777 H   0  0  0  0  0  0  0  0  0  0  0  0
  141.2314   71.0046  222.4777 H   0  0  0  0  0  0  0  0  0  0  0  0
  141.7037   72.0760  220.5292 H   0  0  0  0  0  0  0  0  0  0  0  0
  139.9515   72.4418  220.3940 H   0  0  0  0  0  0  0  0  0  0  0  0
  142.3432   73.3337  218.2520 H   0  0  0  0  0  0  0  0  0  0  0  0
  144.3962   72.1264  217.5516 H   0  0  0  0  0  0  0  0  0  0  0  0
  146.4507   72.1560  218.9391 H   0  0  0  0  0  0  0  0  0  0  0  0
  146.4238   73.4402  221.0848 H   0  0  0  0  0  0  0  0  0  0  0  0
  144.3922   74.6565  221.8105 H   0  0  0  0  0  0  0  0  0  0  0  0
  141.1281   75.9796  219.3129 H   0  0  0  0  0  0  0  0  0  0  0  0
  140.7096   76.6127  221.7727 H   0  0  0  0  0  0  0  0  0  0  0  0
  142.2956   77.4099  221.7530 H   0  0  0  0  0  0  0  0  0  0  0  0
  139.9094   77.9507  219.8677 H   0  0  0  0  0  0  0  0  0  0  0  0
  140.6004   79.0751  221.0967 H   0  0  0  0  0  0  0  0  0  0  0  0
  140.0059   80.8009  219.7344 H   0  0  0  0  0  0  0  0  0  0  0  0
  140.2380   83.0870  219.0080 H   0  0  0  0  0  0  0  0  0  0  0  0
  141.1740   82.2760  217.7470 H   0  0  0  0  0  0  0  0  0  0  0  0
  142.5775   81.7838  220.8631 H   0  0  0  0  0  0  0  0  0  0  0  0
  141.1387   82.8534  220.9667 H   0  0  0  0  0  0  0  0  0  0  0  0
  138.9280   81.4896  221.3953 H   0  0  0  0  0  0  0  0  0  0  0  0
  137.8691   80.2044  223.2107 H   0  0  0  0  0  0  0  0  0  0  0  0
  139.2745   78.9627  224.8184 H   0  0  0  0  0  0  0  0  0  0  0  0
  141.7221   79.0114  224.5962 H   0  0  0  0  0  0  0  0  0  0  0  0
  143.5866   80.2142  223.8042 H   0  0  0  0  0  0  0  0  0  0  0  0
  143.4788   79.3197  222.2502 H   0  0  0  0  0  0  0  0  0  0  0  0
  143.5516   81.1145  222.2502 H   0  0  0  0  0  0  0  0  0  0  0  0
  142.1473   77.5280  217.7589 H   0  0  0  0  0  0  0  0  0  0  0  0
  143.5542   78.5138  218.3692 H   0  0  0  0  0  0  0  0  0  0  0  0
  143.6824   76.0236  218.8303 H   0  0  0  0  0  0  0  0  0  0  0  0
  143.8622   77.0712  220.2474 H   0  0  0  0  0  0  0  0  0  0  0  0
  1  2  1  0
  2  3  1  0
  3  4  2  0
  3  5  1  0
  5  6  1  0
  6  7  2  0
  7  8  1  0
  8  9  2  0
  9 10  1  0
 10 11  2  0
  5 12  1  0
 12 13  1  0
 13 14  1  0
 14 15  1  0
 15 16  1  0
 16 17  2  0
 16 18  1  0
 18 19  1  0
 18 20  1  0
 20 21  1  0
 21 22  2  0
 22 23  1  0
 23 24  2  0
 24 25  1  0
 25 26  2  0
 26 27  1  0
 15 28  1  0
 28 29  1  0
 11  6  1  0
 29 12  1  0
 26 21  1  0
  1 30  1  0
  1 31  1  0
  1 32  1  0
  2 33  1  0
  2 34  1  0
  7 35  1  0
  8 36  1  0
  9 37  1  0
 10 38  1  0
 11 39  1  0
 12 40  1  0
 13 41  1  0
 13 42  1  0
 14 43  1  0
 14 44  1  0
 18 45  1  1
 19 46  1  0
 19 47  1  0
 20 48  1  0
 20 49  1  0
 22 50  1  0
 23 51  1  0
 24 52  1  0
 25 53  1  0
 27 54  1  0
 27 55  1  0
 27 56  1  0
 28 57  1  0
 28 58  1  0
 29 59  1  0
 29 60  1  0
M  END
>  <smiles>  (15) 
CCC(=O)N(c1ccccc1)C1CCN(C(=O)[C@H](N)Cc2ccccc2C)CC1

>  <score_type>  (15) 
oracle

>  <origin>  (15) 
autodockgpu

>  <m_score__min__energy>  (15) 
-7.6100000000000003

>  <m_primary>  (15) 
energy

>  <rmsd>  (15) 
5.74456358862524

>  <m_score__min__rmsd>  (15) 
5.74456358862524

>  <meeko>  (15) 
{"free_energy": -6.41, "intermolecular_energy": -8.79, "internal_energy": -2.52, "cluster_size": 15, "cluster_id": 6, "rank_in_cluster": 11}

>  <energy>  (15) 
-6.69

>  <cluster_rmsd>  (15) 
1.4

>  <cluster>  (15) 
4

$$$$

     RDKit          3D

 60 62  0  0  0  0  0  0  0  0999 V2000
  136.2370   69.6220  224.9680 C   0  0  0  0  0  0  0  0  0  0  0  0
  137.1170   68.8870  223.9510 C   0  0  0  0  0  0  0  0  0  0  0  0
  138.5300   69.0380  224.3320 C   0  0  0  0  0  0  0  0  0  0  0  0
  139.1900   67.9730  224.5320 O   0  0  0  0  0  0  0  0  0  0  0  0
  139.2270   70.2550  224.4990 N   0  0  0  0  0  0  0  0  0  0  0  0
  139.8370   70.4310  225.8070 C   0  0  0  0  0  0  0  0  0  0  0  0
  140.6810   71.5290  225.9840 C   0  0  0  0  0  0  0  0  0  0  0  0
  141.2710   71.7090  227.2280 C   0  0  0  0  0  0  0  0  0  0  0  0
  141.0540   70.8460  228.2820 C   0  0  0  0  0  0  0  0  0  0  0  0
  140.2060   69.7630  228.0630 C   0  0  0  0  0  0  0  0  0  0  0  0
  139.6020   69.5550  226.8340 C   0  0  0  0  0  0  0  0  0  0  0  0
  139.3940   71.2950  223.5530 C   0  0  0  0  0  0  0  0  0  0  0  0
  140.6290   71.2380  222.7060 C   0  0  0  0  0  0  0  0  0  0  0  0
  140.8980   72.6790  222.2240 C   0  0  0  0  0  0  0  0  0  0  0  0
  139.7150   73.2300  221.5910 N   0  0  0  0  0  0  0  0  0  0  0  0
  139.7610   74.1520  220.5080 C   0  0  0  0  0  0  0  0  0  0  0  0
  138.6540   74.5440  219.9700 O   0  0  0  0  0  0  0  0  0  0  0  0
  140.9680   74.7400  219.8970 C   0  0  2  0  0  0  0  0  0  0  0  0
  140.7870   75.9660  219.2480 N   0  0  0  0  0  0  0  0  0  0  0  0
  141.7590   73.7170  219.1130 C   0  0  0  0  0  0  0  0  0  0  0  0
  143.0770   73.5390  219.7350 C   0  0  0  0  0  0  0  0  0  0  0  0
  143.8620   74.6740  219.9290 C   0  0  0  0  0  0  0  0  0  0  0  0
  145.1260   74.6150  220.4780 C   0  0  0  0  0  0  0  0  0  0  0  0
  145.6400   73.4070  220.8500 C   0  0  0  0  0  0  0  0  0  0  0  0
  144.9030   72.2770  220.6770 C   0  0  0  0  0  0  0  0  0  0  0  0
  143.6270   72.3440  220.1230 C   0  0  0  0  0  0  0  0  0  0  0  0
  142.8950   71.0620  220.0080 C   0  0  0  0  0  0  0  0  0  0  0  0
  138.3610   72.8900  222.0590 C   0  0  0  0  0  0  0  0  0  0  0  0
  138.2520   71.4740  222.5690 C   0  0  0  0  0  0  0  0  0  0  0  0
  136.5547   69.3567  225.9872 H   0  0  0  0  0  0  0  0  0  0  0  0
  136.3381   70.7078  224.8234 H   0  0  0  0  0  0  0  0  0  0  0  0
  135.1866   69.3291  224.8234 H   0  0  0  0  0  0  0  0  0  0  0  0
  136.8517   67.8195  223.9391 H   0  0  0  0  0  0  0  0  0  0  0  0
  136.9577   69.3134  222.9496 H   0  0  0  0  0  0  0  0  0  0  0  0
  140.8733   72.2323  225.1604 H   0  0  0  0  0  0  0  0  0  0  0  0
  141.9363   72.5720  227.3786 H   0  0  0  0  0  0  0  0  0  0  0  0
  141.5329   71.0071  229.2591 H   0  0  0  0  0  0  0  0  0  0  0  0
  140.0117   69.0573  228.8842 H   0  0  0  0  0  0  0  0  0  0  0  0
  138.9375   68.6915  226.6833 H   0  0  0  0  0  0  0  0  0  0  0  0
  139.4535   72.1391  224.2559 H   0  0  0  0  0  0  0  0  0  0  0  0
  141.4796   70.8708  223.2990 H   0  0  0  0  0  0  0  0  0  0  0  0
  140.4964   70.5529  221.8557 H   0  0  0  0  0  0  0  0  0  0  0  0
  141.1721   73.3044  223.0864 H   0  0  0  0  0  0  0  0  0  0  0  0
  141.7192   72.6629  221.4923 H   0  0  0  0  0  0  0  0  0  0  0  0
  141.6021   75.0368  220.7455 H   0  0  0  0  0  0  0  0  0  0  0  0
  139.8100   76.2170  219.1250 H   0  0  0  0  0  0  0  0  0  0  0  0
  141.4950   76.6650  219.4120 H   0  0  0  0  0  0  0  0  0  0  0  0
  141.2205   72.7578  219.1132 H   0  0  0  0  0  0  0  0  0  0  0  0
  141.8854   74.0652  218.0772 H   0  0  0  0  0  0  0  0  0  0  0  0
  143.4585   75.6536  219.6332 H   0  0  0  0  0  0  0  0  0  0  0  0
  145.7147   75.5341  220.6148 H   0  0  0  0  0  0  0  0  0  0  0  0
  146.6471   73.3472  221.2884 H   0  0  0  0  0  0  0  0  0  0  0  0
  145.3177   71.3033  220.9768 H   0  0  0  0  0  0  0  0  0  0  0  0
  142.6738   70.6746  221.0135 H   0  0  0  0  0  0  0  0  0  0  0  0
  141.9538   71.2249  219.4625 H   0  0  0  0  0  0  0  0  0  0  0  0
  143.5137   70.3342  219.4625 H   0  0  0  0  0  0  0  0  0  0  0  0
  138.0884   73.5778  222.8730 H   0  0  0  0  0  0  0  0  0  0  0  0
  137.6822   72.9831  221.1984 H   0  0  0  0  0  0  0  0  0  0  0  0
  137.2860   71.3224  223.0728 H   0  0  0  0  0  0  0  0  0  0  0  0
  138.3094   70.7443  221.7479 H   0  0  0  0  0  0  0  0  0  0  0  0
  1  2  1  0
  2  3  1  0
  3  4  2  0
  3  5  1  0
  5  6  1  0
  6  7  2  0
  7  8  1  0
  8  9  2  0
  9 10  1  0
 10 11  2  0
  5 12  1  0
 12 13  1  0
 13 14  1  0
 14 15  1  0
 15 16  1  0
 16 17  2  0
 16 18  1  0
 18 19  1  0
 18 20  1  0
 20 21  1  0
 21 22  2  0
 22 23  1  0
 23 24  2  0
 24 25  1  0
 25 26  2  0
 26 27  1  0
 15 28  1  0
 28 29  1  0
 11  6  1  0
 29 12  1  0
 26 21  1  0
  1 30  1  0
  1 31  1  0
  1 32  1  0
  2 33  1  0
  2 34  1  0
  7 35  1  0
  8 36  1  0
  9 37  1  0
 10 38  1  0
 11 39  1  0
 12 40  1  0
 13 41  1  0
 13 42  1  0
 14 43  1  0
 14 44  1  0
 18 45  1  1
 19 46  1  0
 19 47  1  0
 20 48  1  0
 20 49  1  0
 22 50  1  0
 23 51  1  0
 24 52  1  0
 25 53  1  0
 27 54  1  0
 27 55  1  0
 27 56  1  0
 28 57  1  0
 28 58  1  0
 29 59  1  0
 29 60  1  0
M  END
>  <smiles>  (16) 
CCC(=O)N(c1ccccc1)C1CCN(C(=O)[C@H](N)Cc2ccccc2C)CC1

>  <score_type>  (16) 
oracle

>  <origin>  (16) 
autodockgpu

>  <m_score__min__energy>  (16) 
-7.6100000000000003

>  <m_primary>  (16) 
energy

>  <rmsd>  (16) 
6.819822751728396

>  <m_score__min__rmsd>  (16) 
6.819822751728396

>  <meeko>  (16) 
{"free_energy": -6.45, "intermolecular_energy": -8.84, "internal_energy": -2.47, "cluster_size": 19, "cluster_id": 4, "rank_in_cluster": 17}

>  <energy>  (16) 
-6.67

>  <cluster_rmsd>  (16) 
1.43

>  <cluster>  (16) 
4

$$$$

     RDKit          3D

 60 62  0  0  0  0  0  0  0  0999 V2000
  140.0410   72.8480  219.0500 C   0  0  0  0  0  0  0  0  0  0  0  0
  140.6380   72.6550  220.4490 C   0  0  0  0  0  0  0  0  0  0  0  0
  141.1270   73.9490  220.9510 C   0  0  0  0  0  0  0  0  0  0  0  0
  140.7020   74.3230  222.0860 O   0  0  0  0  0  0  0  0  0  0  0  0
  142.0250   74.8170  220.2930 N   0  0  0  0  0  0  0  0  0  0  0  0
  143.2880   74.2080  219.9100 C   0  0  0  0  0  0  0  0  0  0  0  0
  144.3400   74.2690  220.8270 C   0  0  0  0  0  0  0  0  0  0  0  0
  145.5520   73.6910  220.4750 C   0  0  0  0  0  0  0  0  0  0  0  0
  145.7490   73.0670  219.2610 C   0  0  0  0  0  0  0  0  0  0  0  0
  144.6760   73.0290  218.3750 C   0  0  0  0  0  0  0  0  0  0  0  0
  143.4530   73.5960  218.6960 C   0  0  0  0  0  0  0  0  0  0  0  0
  141.8310   76.1820  219.9690 C   0  0  0  0  0  0  0  0  0  0  0  0
  141.4780   77.0960  221.1030 C   0  0  0  0  0  0  0  0  0  0  0  0
  140.7600   78.3110  220.4810 C   0  0  0  0  0  0  0  0  0  0  0  0
  141.5660   78.8890  219.4230 N   0  0  0  0  0  0  0  0  0  0  0  0
  141.5870   80.2800  219.1210 C   0  0  0  0  0  0  0  0  0  0  0  0
  142.3820   80.7090  218.1980 O   0  0  0  0  0  0  0  0  0  0  0  0
  140.7790   81.3350  219.7600 C   0  0  2  0  0  0  0  0  0  0  0  0
  140.2030   82.2710  218.8930 N   0  0  0  0  0  0  0  0  0  0  0  0
  141.4770   81.9300  220.9620 C   0  0  0  0  0  0  0  0  0  0  0  0
  141.4280   80.9740  222.0770 C   0  0  0  0  0  0  0  0  0  0  0  0
  142.6100   80.3280  222.4300 C   0  0  0  0  0  0  0  0  0  0  0  0
  142.6690   79.3920  223.4420 C   0  0  0  0  0  0  0  0  0  0  0  0
  141.5340   79.0780  224.1310 C   0  0  0  0  0  0  0  0  0  0  0  0
  140.3600   79.6890  223.8150 C   0  0  0  0  0  0  0  0  0  0  0  0
  140.3090   80.6330  222.7930 C   0  0  0  0  0  0  0  0  0  0  0  0
  138.9920   81.2640  222.5490 C   0  0  0  0  0  0  0  0  0  0  0  0
  142.4100   78.0530  218.5520 C   0  0  0  0  0  0  0  0  0  0  0  0
  142.9940   76.8590  219.2670 C   0  0  0  0  0  0  0  0  0  0  0  0
  138.9978   73.1852  219.1398 H   0  0  0  0  0  0  0  0  0  0  0  0
  140.6247   73.6032  218.5032 H   0  0  0  0  0  0  0  0  0  0  0  0
  140.0722   71.8940  218.5032 H   0  0  0  0  0  0  0  0  0  0  0  0
  139.8651   72.2656  221.1280 H   0  0  0  0  0  0  0  0  0  0  0  0
  141.4723   71.9399  220.3986 H   0  0  0  0  0  0  0  0  0  0  0  0
  144.2114   74.7619  221.8020 H   0  0  0  0  0  0  0  0  0  0  0  0
  146.3862   73.7322  221.1909 H   0  0  0  0  0  0  0  0  0  0  0  0
  146.7183   72.6159  219.0023 H   0  0  0  0  0  0  0  0  0  0  0  0
  144.8017   72.5381  217.3987 H   0  0  0  0  0  0  0  0  0  0  0  0
  142.6193   73.5548  217.9796 H   0  0  0  0  0  0  0  0  0  0  0  0
  140.9701   76.0632  219.2947 H   0  0  0  0  0  0  0  0  0  0  0  0
  140.8111   76.5824  221.8112 H   0  0  0  0  0  0  0  0  0  0  0  0
  142.3760   77.4063  221.6573 H   0  0  0  0  0  0  0  0  0  0  0  0
  139.7945   77.9873  220.0651 H   0  0  0  0  0  0  0  0  0  0  0  0
  140.6008   79.0690  221.2621 H   0  0  0  0  0  0  0  0  0  0  0  0
  139.8873   80.8181  220.1442 H   0  0  0  0  0  0  0  0  0  0  0  0
  140.6610   82.3160  217.9860 H   0  0  0  0  0  0  0  0  0  0  0  0
  139.2110   82.4160  218.9900 H   0  0  0  0  0  0  0  0  0  0  0  0
  142.5256   82.1449  220.7085 H   0  0  0  0  0  0  0  0  0  0  0  0
  140.9733   82.8629  221.2552 H   0  0  0  0  0  0  0  0  0  0  0  0
  143.5314   80.5731  221.8814 H   0  0  0  0  0  0  0  0  0  0  0  0
  143.6225   78.9033  223.6911 H   0  0  0  0  0  0  0  0  0  0  0  0
  141.5679   78.3330  224.9396 H   0  0  0  0  0  0  0  0  0  0  0  0
  139.4452   79.4354  224.3707 H   0  0  0  0  0  0  0  0  0  0  0  0
  138.5117   81.4941  223.5115 H   0  0  0  0  0  0  0  0  0  0  0  0
  139.1310   82.1933  221.9771 H   0  0  0  0  0  0  0  0  0  0  0  0
  138.3548   80.5734  221.9771 H   0  0  0  0  0  0  0  0  0  0  0  0
  141.7983   77.6936  217.7114 H   0  0  0  0  0  0  0  0  0  0  0  0
  143.2501   78.6760  218.2114 H   0  0  0  0  0  0  0  0  0  0  0  0
  143.4580   76.1706  218.5453 H   0  0  0  0  0  0  0  0  0  0  0  0
  143.7758   77.1591  219.9803 H   0  0  0  0  0  0  0  0  0  0  0  0
  1  2  1  0
  2  3  1  0
  3  4  2  0
  3  5  1  0
  5  6  1  0
  6  7  2  0
  7  8  1  0
  8  9  2  0
  9 10  1  0
 10 11  2  0
  5 12  1  0
 12 13  1  0
 13 14  1  0
 14 15  1  0
 15 16  1  0
 16 17  2  0
 16 18  1  0
 18 19  1  0
 18 20  1  0
 20 21  1  0
 21 22  2  0
 22 23  1  0
 23 24  2  0
 24 25  1  0
 25 26  2  0
 26 27  1  0
 15 28  1  0
 28 29  1  0
 11  6  1  0
 29 12  1  0
 26 21  1  0
  1 30  1  0
  1 31  1  0
  1 32  1  0
  2 33  1  0
  2 34  1  0
  7 35  1  0
  8 36  1  0
  9 37  1  0
 10 38  1  0
 11 39  1  0
 12 40  1  0
 13 41  1  0
 13 42  1  0
 14 43  1  0
 14 44  1  0
 18 45  1  1
 19 46  1  0
 19 47  1  0
 20 48  1  0
 20 49  1  0
 22 50  1  0
 23 51  1  0
 24 52  1  0
 25 53  1  0
 27 54  1  0
 27 55  1  0
 27 56  1  0
 28 57  1  0
 28 58  1  0
 29 59  1  0
 29 60  1  0
M  END
>  <smiles>  (17) 
CCC(=O)N(c1ccccc1)C1CCN(C(=O)[C@H](N)Cc2ccccc2C)CC1

>  <score_type>  (17) 
oracle

>  <origin>  (17) 
autodockgpu

>  <m_score__min__energy>  (17) 
-7.6100000000000003

>  <m_primary>  (17) 
energy

>  <rmsd>  (17) 
5.814915053067037

>  <m_score__min__rmsd>  (17) 
5.814915053067037

>  <meeko>  (17) 
{"free_energy": -6.26, "intermolecular_energy": -8.65, "internal_energy": -2.66, "cluster_size": 15, "cluster_id": 6, "rank_in_cluster": 14}

>  <energy>  (17) 
-6.67

>  <cluster_rmsd>  (17) 
1.43

>  <cluster>  (17) 
4

$$$$

     RDKit          3D

 60 62  0  0  0  0  0  0  0  0999 V2000
  138.8240   67.4120  222.7070 C   0  0  0  0  0  0  0  0  0  0  0  0
  139.0230   68.7280  221.9460 C   0  0  0  0  0  0  0  0  0  0  0  0
  138.6150   69.8510  222.8040 C   0  0  0  0  0  0  0  0  0  0  0  0
  137.3800   69.9450  223.0800 O   0  0  0  0  0  0  0  0  0  0  0  0
  139.4630   70.8380  223.3510 N   0  0  0  0  0  0  0  0  0  0  0  0
  139.8670   70.5970  224.7270 C   0  0  0  0  0  0  0  0  0  0  0  0
  140.7100   71.5340  225.3270 C   0  0  0  0  0  0  0  0  0  0  0  0
  141.1030   71.3160  226.6410 C   0  0  0  0  0  0  0  0  0  0  0  0
  140.6930   70.2140  227.3630 C   0  0  0  0  0  0  0  0  0  0  0  0
  139.8540   69.3030  226.7270 C   0  0  0  0  0  0  0  0  0  0  0  0
  139.4430   69.4920  225.4180 C   0  0  0  0  0  0  0  0  0  0  0  0
  139.9540   72.0060  222.7200 C   0  0  0  0  0  0  0  0  0  0  0  0
  141.0210   71.8110  221.6850 C   0  0  0  0  0  0  0  0  0  0  0  0
  141.7870   73.1460  221.5860 C   0  0  0  0  0  0  0  0  0  0  0  0
  140.8660   74.2420  221.3530 N   0  0  0  0  0  0  0  0  0  0  0  0
  141.1920   75.3920  220.5810 C   0  0  0  0  0  0  0  0  0  0  0  0
  140.2860   76.2910  220.3800 O   0  0  0  0  0  0  0  0  0  0  0  0
  142.4910   75.6980  219.9550 C   0  0  2  0  0  0  0  0  0  0  0  0
  142.6540   77.0100  219.4960 N   0  0  0  0  0  0  0  0  0  0  0  0
  142.9110   74.6260  218.9750 C   0  0  0  0  0  0  0  0  0  0  0  0
  144.0540   73.8840  219.5240 C   0  0  0  0  0  0  0  0  0  0  0  0
  144.8550   74.5280  220.4640 C   0  0  0  0  0  0  0  0  0  0  0  0
  145.9680   73.9330  221.0210 C   0  0  0  0  0  0  0  0  0  0  0  0
  146.3080   72.6660  220.6470 C   0  0  0  0  0  0  0  0  0  0  0  0
  145.5500   72.0040  219.7330 C   0  0  0  0  0  0  0  0  0  0  0  0
  144.4270   72.6110  219.1750 C   0  0  0  0  0  0  0  0  0  0  0  0
  143.6500   71.7950  218.2140 C   0  0  0  0  0  0  0  0  0  0  0  0
  139.5150   74.2520  221.9400 C   0  0  0  0  0  0  0  0  0  0  0  0
  138.9080   72.8740  222.0450 C   0  0  0  0  0  0  0  0  0  0  0  0
  138.8534   67.6063  223.7893 H   0  0  0  0  0  0  0  0  0  0  0  0
  137.8499   66.9771  222.4388 H   0  0  0  0  0  0  0  0  0  0  0  0
  139.6260   66.7085  222.4388 H   0  0  0  0  0  0  0  0  0  0  0  0
  140.0832   68.8390  221.6745 H   0  0  0  0  0  0  0  0  0  0  0  0
  138.4118   68.7214  221.0315 H   0  0  0  0  0  0  0  0  0  0  0  0
  141.0536   72.4207  224.7741 H   0  0  0  0  0  0  0  0  0  0  0  0
  141.7657   72.0491  227.1241 H   0  0  0  0  0  0  0  0  0  0  0  0
  141.0171   70.0608  228.4030 H   0  0  0  0  0  0  0  0  0  0  0  0
  139.5102   68.4140  227.2760 H   0  0  0  0  0  0  0  0  0  0  0  0
  138.7797   68.7590  224.9355 H   0  0  0  0  0  0  0  0  0  0  0  0
  140.3724   72.5004  223.6091 H   0  0  0  0  0  0  0  0  0  0  0  0
  141.7030   71.0037  221.9902 H   0  0  0  0  0  0  0  0  0  0  0  0
  140.5861   71.5299  220.7145 H   0  0  0  0  0  0  0  0  0  0  0  0
  142.3301   73.3227  222.5261 H   0  0  0  0  0  0  0  0  0  0  0  0
  142.4943   73.0898  220.7454 H   0  0  0  0  0  0  0  0  0  0  0  0
  143.2188   75.6668  220.7792 H   0  0  0  0  0  0  0  0  0  0  0  0
  141.7750   77.5090  219.3820 H   0  0  0  0  0  0  0  0  0  0  0  0
  143.4950   77.4820  219.7870 H   0  0  0  0  0  0  0  0  0  0  0  0
  142.0722   73.9349  218.8052 H   0  0  0  0  0  0  0  0  0  0  0  0
  143.1994   75.0924  218.0214 H   0  0  0  0  0  0  0  0  0  0  0  0
  144.5901   75.5496  220.7740 H   0  0  0  0  0  0  0  0  0  0  0  0
  146.5759   74.4754  221.7601 H   0  0  0  0  0  0  0  0  0  0  0  0
  147.1934   72.1811  221.0839 H   0  0  0  0  0  0  0  0  0  0  0  0
  145.8252   70.9824  219.4321 H   0  0  0  0  0  0  0  0  0  0  0  0
  142.9935   71.1056  218.7651 H   0  0  0  0  0  0  0  0  0  0  0  0
  143.0392   72.4560  217.5815 H   0  0  0  0  0  0  0  0  0  0  0  0
  144.3401   71.2173  217.5815 H   0  0  0  0  0  0  0  0  0  0  0  0
  139.5742   74.6869  222.9487 H   0  0  0  0  0  0  0  0  0  0  0  0
  138.8711   74.8456  221.2744 H   0  0  0  0  0  0  0  0  0  0  0  0
  137.9898   72.9060  222.6499 H   0  0  0  0  0  0  0  0  0  0  0  0
  138.6336   72.4784  221.0560 H   0  0  0  0  0  0  0  0  0  0  0  0
  1  2  1  0
  2  3  1  0
  3  4  2  0
  3  5  1  0
  5  6  1  0
  6  7  2  0
  7  8  1  0
  8  9  2  0
  9 10  1  0
 10 11  2  0
  5 12  1  0
 12 13  1  0
 13 14  1  0
 14 15  1  0
 15 16  1  0
 16 17  2  0
 16 18  1  0
 18 19  1  0
 18 20  1  0
 20 21  1  0
 21 22  2  0
 22 23  1  0
 23 24  2  0
 24 25  1  0
 25 26  2  0
 26 27  1  0
 15 28  1  0
 28 29  1  0
 11  6  1  0
 29 12  1  0
 26 21  1  0
  1 30  1  0
  1 31  1  0
  1 32  1  0
  2 33  1  0
  2 34  1  0
  7 35  1  0
  8 36  1  0
  9 37  1  0
 10 38  1  0
 11 39  1  0
 12 40  1  0
 13 41  1  0
 13 42  1  0
 14 43  1  0
 14 44  1  0
 18 45  1  1
 19 46  1  0
 19 47  1  0
 20 48  1  0
 20 49  1  0
 22 50  1  0
 23 51  1  0
 24 52  1  0
 25 53  1  0
 27 54  1  0
 27 55  1  0
 27 56  1  0
 28 57  1  0
 28 58  1  0
 29 59  1  0
 29 60  1  0
M  END
>  <smiles>  (18) 
CCC(=O)N(c1ccccc1)C1CCN(C(=O)[C@H](N)Cc2ccccc2C)CC1

>  <score_type>  (18) 
oracle

>  <origin>  (18) 
autodockgpu

>  <m_score__min__energy>  (18) 
-7.6100000000000003

>  <m_primary>  (18) 
energy

>  <rmsd>  (18) 
6.325866376691484

>  <m_score__min__rmsd>  (18) 
6.325866376691484

>  <meeko>  (18) 
{"free_energy": -6.7, "intermolecular_energy": -9.09, "internal_energy": -2.53, "cluster_size": 19, "cluster_id": 4, "rank_in_cluster": 4}

>  <energy>  (18) 
-6.66

>  <cluster_rmsd>  (18) 
1.27

>  <cluster>  (18) 
4

$$$$

     RDKit          3D

 60 62  0  0  0  0  0  0  0  0999 V2000
  142.2020   76.9450  220.0800 C   0  0  0  0  0  0  0  0  0  0  0  0
  142.3280   76.1130  218.8000 C   0  0  0  0  0  0  0  0  0  0  0  0
  141.6020   74.8440  218.9710 C   0  0  0  0  0  0  0  0  0  0  0  0
  140.6000   74.6490  218.2190 O   0  0  0  0  0  0  0  0  0  0  0  0
  141.9120   73.8210  219.8930 N   0  0  0  0  0  0  0  0  0  0  0  0
  143.3260   73.4960  219.9870 C   0  0  0  0  0  0  0  0  0  0  0  0
  143.8060   72.4580  219.1850 C   0  0  0  0  0  0  0  0  0  0  0  0
  145.1540   72.1370  219.2650 C   0  0  0  0  0  0  0  0  0  0  0  0
  146.0250   72.8020  220.1030 C   0  0  0  0  0  0  0  0  0  0  0  0
  145.5060   73.8290  220.8870 C   0  0  0  0  0  0  0  0  0  0  0  0
  144.1650   74.1750  220.8310 C   0  0  0  0  0  0  0  0  0  0  0  0
  141.0170   73.0980  220.7180 C   0  0  0  0  0  0  0  0  0  0  0  0
  141.6230   72.0730  221.6290 C   0  0  0  0  0  0  0  0  0  0  0  0
  140.5080   71.0570  221.9510 C   0  0  0  0  0  0  0  0  0  0  0  0
  139.3310   71.7390  222.4530 N   0  0  0  0  0  0  0  0  0  0  0  0
  138.4510   71.1790  223.4210 C   0  0  0  0  0  0  0  0  0  0  0  0
  137.4590   71.8860  223.8510 O   0  0  0  0  0  0  0  0  0  0  0  0
  138.5350   69.8340  224.0190 C   0  0  2  0  0  0  0  0  0  0  0  0
  137.5620   69.5320  224.9790 N   0  0  0  0  0  0  0  0  0  0  0  0
  139.9510   69.4820  224.4170 C   0  0  0  0  0  0  0  0  0  0  0  0
  140.2700   70.1200  225.7010 C   0  0  0  0  0  0  0  0  0  0  0  0
  140.7370   71.4320  225.6750 C   0  0  0  0  0  0  0  0  0  0  0  0
  141.0920   72.1150  226.8200 C   0  0  0  0  0  0  0  0  0  0  0  0
  140.9860   71.4950  228.0300 C   0  0  0  0  0  0  0  0  0  0  0  0
  140.5330   70.2140  228.0960 C   0  0  0  0  0  0  0  0  0  0  0  0
  140.1760   69.5310  226.9360 C   0  0  0  0  0  0  0  0  0  0  0  0
  139.6630   68.1540  227.1180 C   0  0  0  0  0  0  0  0  0  0  0  0
  138.9430   73.0710  221.9590 C   0  0  0  0  0  0  0  0  0  0  0  0
  140.1270   73.9400  221.6140 C   0  0  0  0  0  0  0  0  0  0  0  0
  142.3016   76.2873  220.9561 H   0  0  0  0  0  0  0  0  0  0  0  0
  142.9950   77.7071  220.1015 H   0  0  0  0  0  0  0  0  0  0  0  0
  141.2189   77.4381  220.1015 H   0  0  0  0  0  0  0  0  0  0  0  0
  141.8983   76.6712  217.9552 H   0  0  0  0  0  0  0  0  0  0  0  0
  143.3893   75.9060  218.5982 H   0  0  0  0  0  0  0  0  0  0  0  0
  143.1339   71.9098  218.5084 H   0  0  0  0  0  0  0  0  0  0  0  0
  145.5423   71.3219  218.6367 H   0  0  0  0  0  0  0  0  0  0  0  0
  147.0900   72.5310  220.1501 H   0  0  0  0  0  0  0  0  0  0  0  0
  146.1751   74.3780  221.5659 H   0  0  0  0  0  0  0  0  0  0  0  0
  143.7768   74.9895  221.4601 H   0  0  0  0  0  0  0  0  0  0  0  0
  140.4363   72.6054  219.9242 H   0  0  0  0  0  0  0  0  0  0  0  0
  142.4629   71.5691  221.1283 H   0  0  0  0  0  0  0  0  0  0  0  0
  142.0134   72.5381  222.5462 H   0  0  0  0  0  0  0  0  0  0  0  0
  140.2448   70.5059  221.0361 H   0  0  0  0  0  0  0  0  0  0  0  0
  140.8719   70.3606  222.7208 H   0  0  0  0  0  0  0  0  0  0  0  0
  138.2604   69.1425  223.2088 H   0  0  0  0  0  0  0  0  0  0  0  0
  136.8600   70.2590  225.0840 H   0  0  0  0  0  0  0  0  0  0  0  0
  137.3330   68.5560  225.0880 H   0  0  0  0  0  0  0  0  0  0  0  0
  140.0436   68.3904  224.5166 H   0  0  0  0  0  0  0  0  0  0  0  0
  140.6490   69.8396  223.6457 H   0  0  0  0  0  0  0  0  0  0  0  0
  140.8261   71.9429  224.7049 H   0  0  0  0  0  0  0  0  0  0  0  0
  141.4574   73.1507  226.7574 H   0  0  0  0  0  0  0  0  0  0  0  0
  141.2660   72.0292  228.9499 H   0  0  0  0  0  0  0  0  0  0  0  0
  140.4481   69.7142  229.0722 H   0  0  0  0  0  0  0  0  0  0  0  0
  139.5805   67.9325  228.1923 H   0  0  0  0  0  0  0  0  0  0  0  0
  138.6721   68.0668  226.6484 H   0  0  0  0  0  0  0  0  0  0  0  0
  140.3553   67.4397  226.6484 H   0  0  0  0  0  0  0  0  0  0  0  0
  138.3265   72.9443  221.0568 H   0  0  0  0  0  0  0  0  0  0  0  0
  138.3906   73.5733  222.7668 H   0  0  0  0  0  0  0  0  0  0  0  0
  139.7955   74.8442  221.0825 H   0  0  0  0  0  0  0  0  0  0  0  0
  140.6613   74.2700  222.5171 H   0  0  0  0  0  0  0  0  0  0  0  0
  1  2  1  0
  2  3  1  0
  3  4  2  0
  3  5  1  0
  5  6  1  0
  6  7  2  0
  7  8  1  0
  8  9  2  0
  9 10  1  0
 10 11  2  0
  5 12  1  0
 12 13  1  0
 13 14  1  0
 14 15  1  0
 15 16  1  0
 16 17  2  0
 16 18  1  0
 18 19  1  0
 18 20  1  0
 20 21  1  0
 21 22  2  0
 22 23  1  0
 23 24  2  0
 24 25  1  0
 25 26  2  0
 26 27  1  0
 15 28  1  0
 28 29  1  0
 11  6  1  0
 29 12  1  0
 26 21  1  0
  1 30  1  0
  1 31  1  0
  1 32  1  0
  2 33  1  0
  2 34  1  0
  7 35  1  0
  8 36  1  0
  9 37  1  0
 10 38  1  0
 11 39  1  0
 12 40  1  0
 13 41  1  0
 13 42  1  0
 14 43  1  0
 14 44  1  0
 18 45  1  6
 19 46  1  0
 19 47  1  0
 20 48  1  0
 20 49  1  0
 22 50  1  0
 23 51  1  0
 24 52  1  0
 25 53  1  0
 27 54  1  0
 27 55  1  0
 27 56  1  0
 28 57  1  0
 28 58  1  0
 29 59  1  0
 29 60  1  0
M  END
>  <smiles>  (19) 
CCC(=O)N(c1ccccc1)C1CCN(C(=O)[C@H](N)Cc2ccccc2C)CC1

>  <score_type>  (19) 
oracle

>  <origin>  (19) 
autodockgpu

>  <m_score__min__energy>  (19) 
-7.6100000000000003

>  <m_primary>  (19) 
energy

>  <rmsd>  (19) 
8.889375765584756

>  <m_score__min__rmsd>  (19) 
8.889375765584756

>  <meeko>  (19) 
{"free_energy": -6.64, "intermolecular_energy": -9.03, "internal_energy": -2.46, "cluster_size": 4, "cluster_id": 5, "rank_in_cluster": 3}

>  <energy>  (19) 
-6.66

>  <cluster_rmsd>  (19) 
1.43

>  <cluster>  (19) 
4

$$$$

     RDKit          3D

 60 62  0  0  0  0  0  0  0  0999 V2000
  138.6810   67.5440  222.6900 C   0  0  0  0  0  0  0  0  0  0  0  0
  138.9010   68.8580  221.9320 C   0  0  0  0  0  0  0  0  0  0  0  0
  138.5350   69.9870  222.8020 C   0  0  0  0  0  0  0  0  0  0  0  0
  137.3090   70.1040  223.1070 O   0  0  0  0  0  0  0  0  0  0  0  0
  139.4150   70.9560  223.3310 N   0  0  0  0  0  0  0  0  0  0  0  0
  139.8310   70.7140  224.7020 C   0  0  0  0  0  0  0  0  0  0  0  0
  139.2980   69.6000  225.3530 C   0  0  0  0  0  0  0  0  0  0  0  0
  139.6870   69.3560  226.6630 C   0  0  0  0  0  0  0  0  0  0  0  0
  140.5730   70.1720  227.3360 C   0  0  0  0  0  0  0  0  0  0  0  0
  141.0810   71.2740  226.6510 C   0  0  0  0  0  0  0  0  0  0  0  0
  140.7130   71.5440  225.3430 C   0  0  0  0  0  0  0  0  0  0  0  0
  139.9260   72.1080  222.6840 C   0  0  0  0  0  0  0  0  0  0  0  0
  141.0040   71.8830  221.6680 C   0  0  0  0  0  0  0  0  0  0  0  0
  141.7840   73.2090  221.5540 C   0  0  0  0  0  0  0  0  0  0  0  0
  140.8770   74.3090  221.2880 N   0  0  0  0  0  0  0  0  0  0  0  0
  141.2250   75.4410  220.4990 C   0  0  0  0  0  0  0  0  0  0  0  0
  140.3300   76.3440  220.2700 O   0  0  0  0  0  0  0  0  0  0  0  0
  142.5350   75.7230  219.8860 C   0  0  2  0  0  0  0  0  0  0  0  0
  142.7180   77.0250  219.4070 N   0  0  0  0  0  0  0  0  0  0  0  0
  142.9560   74.6300  218.9290 C   0  0  0  0  0  0  0  0  0  0  0  0
  144.0870   73.8880  219.5030 C   0  0  0  0  0  0  0  0  0  0  0  0
  144.8540   74.5250  220.4750 C   0  0  0  0  0  0  0  0  0  0  0  0
  145.9530   73.9290  221.0580 C   0  0  0  0  0  0  0  0  0  0  0  0
  146.3140   72.6700  220.6790 C   0  0  0  0  0  0  0  0  0  0  0  0
  145.5880   72.0150  219.7330 C   0  0  0  0  0  0  0  0  0  0  0  0
  144.4790   72.6230  219.1490 C   0  0  0  0  0  0  0  0  0  0  0  0
  143.7370   71.8140  218.1540 C   0  0  0  0  0  0  0  0  0  0  0  0
  139.5190   74.3420  221.8570 C   0  0  0  0  0  0  0  0  0  0  0  0
  138.8970   72.9730  221.9790 C   0  0  0  0  0  0  0  0  0  0  0  0
  138.7131   67.7355  223.7727 H   0  0  0  0  0  0  0  0  0  0  0  0
  137.7002   67.1251  222.4206 H   0  0  0  0  0  0  0  0  0  0  0  0
  139.4718   66.8285  222.4206 H   0  0  0  0  0  0  0  0  0  0  0  0
  139.9592   68.9437  221.6441 H   0  0  0  0  0  0  0  0  0  0  0  0
  138.2754   68.8713  221.0273 H   0  0  0  0  0  0  0  0  0  0  0  0
  138.5885   68.9331  224.8413 H   0  0  0  0  0  0  0  0  0  0  0  0
  139.2736   68.4797  227.1838 H   0  0  0  0  0  0  0  0  0  0  0  0
  140.8674   69.9605  228.3746 H   0  0  0  0  0  0  0  0  0  0  0  0
  141.7896   71.9441  227.1599 H   0  0  0  0  0  0  0  0  0  0  0  0
  141.1266   72.4199  224.8218 H   0  0  0  0  0  0  0  0  0  0  0  0
  140.3377   72.6156  223.5688 H   0  0  0  0  0  0  0  0  0  0  0  0
  141.6741   71.0754  221.9978 H   0  0  0  0  0  0  0  0  0  0  0  0
  140.5795   71.5871  220.6973 H   0  0  0  0  0  0  0  0  0  0  0  0
  142.3162   73.3985  222.4978 H   0  0  0  0  0  0  0  0  0  0  0  0
  142.5016   73.1301  220.7240 H   0  0  0  0  0  0  0  0  0  0  0  0
  143.2513   75.6985  220.7204 H   0  0  0  0  0  0  0  0  0  0  0  0
  141.8450   77.5260  219.2590 H   0  0  0  0  0  0  0  0  0  0  0  0
  143.5530   77.4990  219.7140 H   0  0  0  0  0  0  0  0  0  0  0  0
  142.1130   73.9432  218.7625 H   0  0  0  0  0  0  0  0  0  0  0  0
  143.2582   75.0771  217.9705 H   0  0  0  0  0  0  0  0  0  0  0  0
  144.5732   75.5410  220.7896 H   0  0  0  0  0  0  0  0  0  0  0  0
  146.5337   74.4654  221.8229 H   0  0  0  0  0  0  0  0  0  0  0  0
  147.1892   72.1855  221.1365 H   0  0  0  0  0  0  0  0  0  0  0  0
  145.8785   70.9990  219.4274 H   0  0  0  0  0  0  0  0  0  0  0  0
  143.0826   71.1005  218.6762 H   0  0  0  0  0  0  0  0  0  0  0  0
  143.1269   72.4775  217.5236 H   0  0  0  0  0  0  0  0  0  0  0  0
  144.4507   71.2633  217.5236 H   0  0  0  0  0  0  0  0  0  0  0  0
  139.5695   74.7945  222.8584 H   0  0  0  0  0  0  0  0  0  0  0  0
  138.8897   74.9292  221.1720 H   0  0  0  0  0  0  0  0  0  0  0  0
  137.9713   73.0250  222.5709 H   0  0  0  0  0  0  0  0  0  0  0  0
  138.6313   72.5616  220.9940 H   0  0  0  0  0  0  0  0  0  0  0  0
  1  2  1  0
  2  3  1  0
  3  4  2  0
  3  5  1  0
  5  6  1  0
  6  7  2  0
  7  8  1  0
  8  9  2  0
  9 10  1  0
 10 11  2  0
  5 12  1  0
 12 13  1  0
 13 14  1  0
 14 15  1  0
 15 16  1  0
 16 17  2  0
 16 18  1  0
 18 19  1  0
 18 20  1  0
 20 21  1  0
 21 22  2  0
 22 23  1  0
 23 24  2  0
 24 25  1  0
 25 26  2  0
 26 27  1  0
 15 28  1  0
 28 29  1  0
 11  6  1  0
 29 12  1  0
 26 21  1  0
  1 30  1  0
  1 31  1  0
  1 32  1  0
  2 33  1  0
  2 34  1  0
  7 35  1  0
  8 36  1  0
  9 37  1  0
 10 38  1  0
 11 39  1  0
 12 40  1  0
 13 41  1  0
 13 42  1  0
 14 43  1  0
 14 44  1  0
 18 45  1  1
 19 46  1  0
 19 47  1  0
 20 48  1  0
 20 49  1  0
 22 50  1  0
 23 51  1  0
 24 52  1  0
 25 53  1  0
 27 54  1  0
 27 55  1  0
 27 56  1  0
 28 57  1  0
 28 58  1  0
 29 59  1  0
 29 60  1  0
M  END
>  <smiles>  (20) 
CCC(=O)N(c1ccccc1)C1CCN(C(=O)[C@H](N)Cc2ccccc2C)CC1

>  <score_type>  (20) 
oracle

>  <origin>  (20) 
autodockgpu

>  <m_score__min__energy>  (20) 
-7.6100000000000003

>  <m_primary>  (20) 
energy

>  <rmsd>  (20) 
6.283287066812255

>  <m_score__min__rmsd>  (20) 
6.283287066812255

>  <meeko>  (20) 
{"free_energy": -6.71, "intermolecular_energy": -9.1, "internal_energy": -2.51, "cluster_size": 19, "cluster_id": 4, "rank_in_cluster": 3}

>  <energy>  (20) 
-6.65

>  <cluster_rmsd>  (20) 
1.44

>  <cluster>  (20) 
4

$$$$

     RDKit          3D

 60 62  0  0  0  0  0  0  0  0999 V2000
  146.1410   73.0240  221.8280 C   0  0  0  0  0  0  0  0  0  0  0  0
  146.2800   73.7630  220.4930 C   0  0  0  0  0  0  0  0  0  0  0  0
  145.2220   73.3120  219.5760 C   0  0  0  0  0  0  0  0  0  0  0  0
  145.5790   72.5840  218.5990 O   0  0  0  0  0  0  0  0  0  0  0  0
  143.8450   73.6090  219.6740 N   0  0  0  0  0  0  0  0  0  0  0  0
  143.4370   74.8260  218.9930 C   0  0  0  0  0  0  0  0  0  0  0  0
  143.1530   74.7400  217.6290 C   0  0  0  0  0  0  0  0  0  0  0  0
  142.7620   75.8960  216.9650 C   0  0  0  0  0  0  0  0  0  0  0  0
  142.6470   77.1120  217.6040 C   0  0  0  0  0  0  0  0  0  0  0  0
  142.9390   77.1560  218.9650 C   0  0  0  0  0  0  0  0  0  0  0  0
  143.3320   76.0210  219.6560 C   0  0  0  0  0  0  0  0  0  0  0  0
  142.8440   72.8650  220.3440 C   0  0  0  0  0  0  0  0  0  0  0  0
  141.7360   73.6510  220.9780 C   0  0  0  0  0  0  0  0  0  0  0  0
  141.1460   72.7600  222.0910 C   0  0  0  0  0  0  0  0  0  0  0  0
  140.7830   71.4600  221.5600 N   0  0  0  0  0  0  0  0  0  0  0  0
  139.6820   70.6960  222.0380 C   0  0  0  0  0  0  0  0  0  0  0  0
  139.4010   69.5740  221.4630 O   0  0  0  0  0  0  0  0  0  0  0  0
  138.7850   71.0410  223.1550 C   0  0  2  0  0  0  0  0  0  0  0  0
  137.6910   71.8530  222.8310 N   0  0  0  0  0  0  0  0  0  0  0  0
  139.5530   71.4730  224.3840 C   0  0  0  0  0  0  0  0  0  0  0  0
  139.7490   70.3170  225.2680 C   0  0  0  0  0  0  0  0  0  0  0  0
  139.2040   69.0970  224.8720 C   0  0  0  0  0  0  0  0  0  0  0  0
  139.3060   67.9570  225.6410 C   0  0  0  0  0  0  0  0  0  0  0  0
  139.9620   68.0090  226.8350 C   0  0  0  0  0  0  0  0  0  0  0  0
  140.5090   69.1820  227.2550 C   0  0  0  0  0  0  0  0  0  0  0  0
  140.4030   70.3300  226.4730 C   0  0  0  0  0  0  0  0  0  0  0  0
  141.0600   71.5460  227.0030 C   0  0  0  0  0  0  0  0  0  0  0  0
  141.5660   70.8180  220.4900 C   0  0  0  0  0  0  0  0  0  0  0  0
  142.1460   71.8070  219.5090 C   0  0  0  0  0  0  0  0  0  0  0  0
  146.2748   73.7352  222.6564 H   0  0  0  0  0  0  0  0  0  0  0  0
  145.1416   72.5691  221.8930 H   0  0  0  0  0  0  0  0  0  0  0  0
  146.9069   72.2371  221.8930 H   0  0  0  0  0  0  0  0  0  0  0  0
  146.1841   74.8459  220.6606 H   0  0  0  0  0  0  0  0  0  0  0  0
  147.2652   73.5482  220.0534 H   0  0  0  0  0  0  0  0  0  0  0  0
  143.2366   73.7824  217.0941 H   0  0  0  0  0  0  0  0  0  0  0  0
  142.5359   75.8389  215.8900 H   0  0  0  0  0  0  0  0  0  0  0  0
  142.3358   78.0151  217.0585 H   0  0  0  0  0  0  0  0  0  0  0  0
  142.8559   78.1119  219.5028 H   0  0  0  0  0  0  0  0  0  0  0  0
  143.5585   76.0788  220.7309 H   0  0  0  0  0  0  0  0  0  0  0  0
  143.4786   72.4099  221.1187 H   0  0  0  0  0  0  0  0  0  0  0  0
  142.1297   74.5841  221.4073 H   0  0  0  0  0  0  0  0  0  0  0  0
  140.9685   73.9232  220.2385 H   0  0  0  0  0  0  0  0  0  0  0  0
  141.8948   72.6303  222.8863 H   0  0  0  0  0  0  0  0  0  0  0  0
  140.2448   73.2443  222.4951 H   0  0  0  0  0  0  0  0  0  0  0  0
  138.2840   70.0979  223.4189 H   0  0  0  0  0  0  0  0  0  0  0  0
  137.5700   72.6380  223.4650 H   0  0  0  0  0  0  0  0  0  0  0  0
  137.4660   71.9250  221.8510 H   0  0  0  0  0  0  0  0  0  0  0  0
  140.5317   71.8748  224.0828 H   0  0  0  0  0  0  0  0  0  0  0  0
  138.9864   72.2510  224.9167 H   0  0  0  0  0  0  0  0  0  0  0  0
  138.6728   69.0414  223.9104 H   0  0  0  0  0  0  0  0  0  0  0  0
  138.8614   67.0127  225.2937 H   0  0  0  0  0  0  0  0  0  0  0  0
  140.0488   67.1057  227.4568 H   0  0  0  0  0  0  0  0  0  0  0  0
  141.0384   69.2240  228.2183 H   0  0  0  0  0  0  0  0  0  0  0  0
  141.0462   71.5205  228.1026 H   0  0  0  0  0  0  0  0  0  0  0  0
  142.1012   71.5836  226.6501 H   0  0  0  0  0  0  0  0  0  0  0  0
  140.5208   72.4375  226.6501 H   0  0  0  0  0  0  0  0  0  0  0  0
  142.3917   70.2549  220.9495 H   0  0  0  0  0  0  0  0  0  0  0  0
  140.8827   70.1621  219.9307 H   0  0  0  0  0  0  0  0  0  0  0  0
  142.8665   71.3081  218.8443 H   0  0  0  0  0  0  0  0  0  0  0  0
  141.3649   72.2474  218.8718 H   0  0  0  0  0  0  0  0  0  0  0  0
  1  2  1  0
  2  3  1  0
  3  4  2  0
  3  5  1  0
  5  6  1  0
  6  7  2  0
  7  8  1  0
  8  9  2  0
  9 10  1  0
 10 11  2  0
  5 12  1  0
 12 13  1  0
 13 14  1  0
 14 15  1  0
 15 16  1  0
 16 17  2  0
 16 18  1  0
 18 19  1  0
 18 20  1  0
 20 21  1  0
 21 22  2  0
 22 23  1  0
 23 24  2  0
 24 25  1  0
 25 26  2  0
 26 27  1  0
 15 28  1  0
 28 29  1  0
 11  6  1  0
 29 12  1  0
 26 21  1  0
  1 30  1  0
  1 31  1  0
  1 32  1  0
  2 33  1  0
  2 34  1  0
  7 35  1  0
  8 36  1  0
  9 37  1  0
 10 38  1  0
 11 39  1  0
 12 40  1  0
 13 41  1  0
 13 42  1  0
 14 43  1  0
 14 44  1  0
 18 45  1  1
 19 46  1  0
 19 47  1  0
 20 48  1  0
 20 49  1  0
 22 50  1  0
 23 51  1  0
 24 52  1  0
 25 53  1  0
 27 54  1  0
 27 55  1  0
 27 56  1  0
 28 57  1  0
 28 58  1  0
 29 59  1  0
 29 60  1  0
M  END
>  <smiles>  (21) 
CCC(=O)N(c1ccccc1)C1CCN(C(=O)[C@H](N)Cc2ccccc2C)CC1

>  <score_type>  (21) 
oracle

>  <origin>  (21) 
autodockgpu

>  <m_score__min__energy>  (21) 
-7.6100000000000003

>  <m_primary>  (21) 
energy

>  <rmsd>  (21) 
8.47192392614928

>  <m_score__min__rmsd>  (21) 
8.47192392614928

>  <meeko>  (21) 
{"free_energy": -7.61, "intermolecular_energy": -9.99, "internal_energy": -1.66, "cluster_size": 3, "cluster_id": 1, "rank_in_cluster": 1}

>  <energy>  (21) 
-6.65

>  <cluster_rmsd>  (21) 
0.31

>  <cluster>  (21) 
4

$$$$

     RDKit          3D

 60 62  0  0  0  0  0  0  0  0999 V2000
  140.5940   71.9680  222.5680 C   0  0  0  0  0  0  0  0  0  0  0  0
  141.1450   72.4760  221.2310 C   0  0  0  0  0  0  0  0  0  0  0  0
  141.2000   73.9460  221.2560 C   0  0  0  0  0  0  0  0  0  0  0  0
  140.3780   74.5400  222.0180 O   0  0  0  0  0  0  0  0  0  0  0  0
  142.0790   74.7630  220.5130 N   0  0  0  0  0  0  0  0  0  0  0  0
  143.3070   74.1090  220.0920 C   0  0  0  0  0  0  0  0  0  0  0  0
  143.3040   73.4640  218.8530 C   0  0  0  0  0  0  0  0  0  0  0  0
  144.4700   72.8350  218.4380 C   0  0  0  0  0  0  0  0  0  0  0  0
  145.6180   72.8250  219.2030 C   0  0  0  0  0  0  0  0  0  0  0  0
  145.5790   73.4780  220.4320 C   0  0  0  0  0  0  0  0  0  0  0  0
  144.4310   74.1160  220.8750 C   0  0  0  0  0  0  0  0  0  0  0  0
  141.8970   76.1170  220.1390 C   0  0  0  0  0  0  0  0  0  0  0  0
  141.4510   77.0560  221.2180 C   0  0  0  0  0  0  0  0  0  0  0  0
  140.7690   78.2460  220.5120 C   0  0  0  0  0  0  0  0  0  0  0  0
  141.6470   78.8060  219.5020 N   0  0  0  0  0  0  0  0  0  0  0  0
  141.6760   80.1880  219.1650 C   0  0  0  0  0  0  0  0  0  0  0  0
  142.5340   80.6030  218.2930 O   0  0  0  0  0  0  0  0  0  0  0  0
  140.8130   81.2500  219.7130 C   0  0  2  0  0  0  0  0  0  0  0  0
  140.2770   82.1430  218.7780 N   0  0  0  0  0  0  0  0  0  0  0  0
  141.4240   81.9000  220.9340 C   0  0  0  0  0  0  0  0  0  0  0  0
  141.3670   80.9650  222.0650 C   0  0  0  0  0  0  0  0  0  0  0  0
  142.5470   80.3250  222.4390 C   0  0  0  0  0  0  0  0  0  0  0  0
  142.5980   79.4080  223.4680 C   0  0  0  0  0  0  0  0  0  0  0  0
  141.4580   79.1060  224.1540 C   0  0  0  0  0  0  0  0  0  0  0  0
  140.2870   79.7110  223.8190 C   0  0  0  0  0  0  0  0  0  0  0  0
  140.2430   80.6370  222.7790 C   0  0  0  0  0  0  0  0  0  0  0  0
  138.9280   81.2640  222.5150 C   0  0  0  0  0  0  0  0  0  0  0  0
  142.5610   77.9570  218.7190 C   0  0  0  0  0  0  0  0  0  0  0  0
  143.1020   76.7890  219.5070 C   0  0  0  0  0  0  0  0  0  0  0  0
  141.1273   72.4597  223.3949 H   0  0  0  0  0  0  0  0  0  0  0  0
  139.5208   72.2002  222.6343 H   0  0  0  0  0  0  0  0  0  0  0  0
  140.7384   70.8795  222.6343 H   0  0  0  0  0  0  0  0  0  0  0  0
  142.1562   72.0729  221.0731 H   0  0  0  0  0  0  0  0  0  0  0  0
  140.4893   72.1452  220.4121 H   0  0  0  0  0  0  0  0  0  0  0  0
  142.4022   73.4547  218.2232 H   0  0  0  0  0  0  0  0  0  0  0  0
  144.4788   72.3257  217.4630 H   0  0  0  0  0  0  0  0  0  0  0  0
  146.5308   72.3196  218.8547 H   0  0  0  0  0  0  0  0  0  0  0  0
  146.4785   73.4878  221.0650 H   0  0  0  0  0  0  0  0  0  0  0  0
  144.4226   74.6252  221.8500 H   0  0  0  0  0  0  0  0  0  0  0  0
  141.0901   75.9703  219.4059 H   0  0  0  0  0  0  0  0  0  0  0  0
  140.7383   76.5531  221.8882 H   0  0  0  0  0  0  0  0  0  0  0  0
  142.3021   77.3917  221.8287 H   0  0  0  0  0  0  0  0  0  0  0  0
  139.8408   77.9001  220.0338 H   0  0  0  0  0  0  0  0  0  0  0  0
  140.5434   79.0219  221.2584 H   0  0  0  0  0  0  0  0  0  0  0  0
  139.9072   80.7312  220.0600 H   0  0  0  0  0  0  0  0  0  0  0  0
  140.8000   82.1780  217.9070 H   0  0  0  0  0  0  0  0  0  0  0  0
  139.2760   82.2600  218.7970 H   0  0  0  0  0  0  0  0  0  0  0  0
  142.4723   82.1600  220.7254 H   0  0  0  0  0  0  0  0  0  0  0  0
  140.8631   82.8128  221.1835 H   0  0  0  0  0  0  0  0  0  0  0  0
  143.4726   80.5600  221.8930 H   0  0  0  0  0  0  0  0  0  0  0  0
  143.5497   78.9243  223.7333 H   0  0  0  0  0  0  0  0  0  0  0  0
  141.4859   78.3753  224.9757 H   0  0  0  0  0  0  0  0  0  0  0  0
  139.3684   79.4676  224.3729 H   0  0  0  0  0  0  0  0  0  0  0  0
  138.4354   81.4989  223.4701 H   0  0  0  0  0  0  0  0  0  0  0  0
  139.0723   82.1902  221.9394 H   0  0  0  0  0  0  0  0  0  0  0  0
  138.2992   80.5688  221.9394 H   0  0  0  0  0  0  0  0  0  0  0  0
  142.0167   77.5685  217.8456 H   0  0  0  0  0  0  0  0  0  0  0  0
  143.4181   78.5805  218.4248 H   0  0  0  0  0  0  0  0  0  0  0  0
  143.6249   76.0875  218.8403 H   0  0  0  0  0  0  0  0  0  0  0  0
  143.8257   77.1168  220.2678 H   0  0  0  0  0  0  0  0  0  0  0  0
  1  2  1  0
  2  3  1  0
  3  4  2  0
  3  5  1  0
  5  6  1  0
  6  7  2  0
  7  8  1  0
  8  9  2  0
  9 10  1  0
 10 11  2  0
  5 12  1  0
 12 13  1  0
 13 14  1  0
 14 15  1  0
 15 16  1  0
 16 17  2  0
 16 18  1  0
 18 19  1  0
 18 20  1  0
 20 21  1  0
 21 22  2  0
 22 23  1  0
 23 24  2  0
 24 25  1  0
 25 26  2  0
 26 27  1  0
 15 28  1  0
 28 29  1  0
 11  6  1  0
 29 12  1  0
 26 21  1  0
  1 30  1  0
  1 31  1  0
  1 32  1  0
  2 33  1  0
  2 34  1  0
  7 35  1  0
  8 36  1  0
  9 37  1  0
 10 38  1  0
 11 39  1  0
 12 40  1  0
 13 41  1  0
 13 42  1  0
 14 43  1  0
 14 44  1  0
 18 45  1  1
 19 46  1  0
 19 47  1  0
 20 48  1  0
 20 49  1  0
 22 50  1  0
 23 51  1  0
 24 52  1  0
 25 53  1  0
 27 54  1  0
 27 55  1  0
 27 56  1  0
 28 57  1  0
 28 58  1  0
 29 59  1  0
 29 60  1  0
M  END
>  <smiles>  (22) 
CCC(=O)N(c1ccccc1)C1CCN(C(=O)[C@H](N)Cc2ccccc2C)CC1

>  <score_type>  (22) 
oracle

>  <origin>  (22) 
autodockgpu

>  <m_score__min__energy>  (22) 
-7.6100000000000003

>  <m_primary>  (22) 
energy

>  <rmsd>  (22) 
5.796457205801304

>  <m_score__min__rmsd>  (22) 
5.796457205801304

>  <meeko>  (22) 
{"free_energy": -6.7, "intermolecular_energy": -9.09, "internal_energy": -2.58, "cluster_size": 15, "cluster_id": 6, "rank_in_cluster": 2}

>  <energy>  (22) 
-6.64

>  <cluster_rmsd>  (22) 
1.42

>  <cluster>  (22) 
4

$$$$

     RDKit          3D

 60 62  0  0  0  0  0  0  0  0999 V2000
  136.2880   67.6270  221.9300 C   0  0  0  0  0  0  0  0  0  0  0  0
  137.6990   68.0460  222.3580 C   0  0  0  0  0  0  0  0  0  0  0  0
  137.6080   68.9430  223.5200 C   0  0  0  0  0  0  0  0  0  0  0  0
  136.5400   68.8940  224.2020 O   0  0  0  0  0  0  0  0  0  0  0  0
  138.5940   69.8570  223.9510 N   0  0  0  0  0  0  0  0  0  0  0  0
  139.2850   69.4740  225.1710 C   0  0  0  0  0  0  0  0  0  0  0  0
  139.2530   68.1260  225.5360 C   0  0  0  0  0  0  0  0  0  0  0  0
  139.9090   67.7450  226.6990 C   0  0  0  0  0  0  0  0  0  0  0  0
  140.5820   68.6460  227.4980 C   0  0  0  0  0  0  0  0  0  0  0  0
  140.5890   69.9800  227.0990 C   0  0  0  0  0  0  0  0  0  0  0  0
  139.9450   70.3930  225.9440 C   0  0  0  0  0  0  0  0  0  0  0  0
  138.9760   71.0750  223.3370 C   0  0  0  0  0  0  0  0  0  0  0  0
  140.3180   71.0980  222.6710 C   0  0  0  0  0  0  0  0  0  0  0  0
  140.7570   72.5760  222.6190 C   0  0  0  0  0  0  0  0  0  0  0  0
  139.7260   73.3890  222.0040 N   0  0  0  0  0  0  0  0  0  0  0  0
  140.0010   74.5400  221.2120 C   0  0  0  0  0  0  0  0  0  0  0  0
  139.0190   75.1670  220.6570 O   0  0  0  0  0  0  0  0  0  0  0  0
  141.3240   75.1280  220.9370 C   0  0  2  0  0  0  0  0  0  0  0  0
  141.3950   76.5250  220.9920 N   0  0  0  0  0  0  0  0  0  0  0  0
  141.9760   74.5080  219.7210 C   0  0  0  0  0  0  0  0  0  0  0  0
  143.2640   73.9170  220.1060 C   0  0  0  0  0  0  0  0  0  0  0  0
  144.2980   74.7840  220.4520 C   0  0  0  0  0  0  0  0  0  0  0  0
  145.5550   74.3360  220.8020 C   0  0  0  0  0  0  0  0  0  0  0  0
  145.8090   72.9960  220.8140 C   0  0  0  0  0  0  0  0  0  0  0  0
  144.8250   72.1170  220.4830 C   0  0  0  0  0  0  0  0  0  0  0  0
  143.5580   72.5780  220.1320 C   0  0  0  0  0  0  0  0  0  0  0  0
  142.5470   71.5410  219.8210 C   0  0  0  0  0  0  0  0  0  0  0  0
  138.2960   73.0900  222.1880 C   0  0  0  0  0  0  0  0  0  0  0  0
  138.0120   71.6120  222.2950 C   0  0  0  0  0  0  0  0  0  0  0  0
  135.6729   67.4443  222.8235 H   0  0  0  0  0  0  0  0  0  0  0  0
  135.8336   68.4290  221.3297 H   0  0  0  0  0  0  0  0  0  0  0  0
  136.3449   66.7070  221.3297 H   0  0  0  0  0  0  0  0  0  0  0  0
  138.2816   67.1528  222.6280 H   0  0  0  0  0  0  0  0  0  0  0  0
  138.1963   68.5682  221.5273 H   0  0  0  0  0  0  0  0  0  0  0  0
  138.7224   67.3862  224.9186 H   0  0  0  0  0  0  0  0  0  0  0  0
  139.8914   66.6855  226.9942 H   0  0  0  0  0  0  0  0  0  0  0  0
  141.0941   68.3226  228.4162 H   0  0  0  0  0  0  0  0  0  0  0  0
  141.1177   70.7226  227.7147 H   0  0  0  0  0  0  0  0  0  0  0  0
  139.9634   71.4526  225.6491 H   0  0  0  0  0  0  0  0  0  0  0  0
  138.9879   71.7078  224.2367 H   0  0  0  0  0  0  0  0  0  0  0  0
  141.0409   70.5073  223.2527 H   0  0  0  0  0  0  0  0  0  0  0  0
  140.2685   70.6624  221.6621 H   0  0  0  0  0  0  0  0  0  0  0  0
  140.9398   72.9358  223.6423 H   0  0  0  0  0  0  0  0  0  0  0  0
  141.6767   72.6538  222.0205 H   0  0  0  0  0  0  0  0  0  0  0  0
  141.9451   74.8457  221.7999 H   0  0  0  0  0  0  0  0  0  0  0  0
  140.4870   76.9770  220.9220 H   0  0  0  0  0  0  0  0  0  0  0  0
  142.1340   76.9110  221.5580 H   0  0  0  0  0  0  0  0  0  0  0  0
  141.3205   73.7249  219.3123 H   0  0  0  0  0  0  0  0  0  0  0  0
  142.1408   75.2825  218.9575 H   0  0  0  0  0  0  0  0  0  0  0  0
  144.1049   75.8669  220.4459 H   0  0  0  0  0  0  0  0  0  0  0  0
  146.3453   75.0530  221.0690 H   0  0  0  0  0  0  0  0  0  0  0  0
  146.8076   72.6268  221.0908 H   0  0  0  0  0  0  0  0  0  0  0  0
  145.0308   71.0365  220.4925 H   0  0  0  0  0  0  0  0  0  0  0  0
  142.1447   71.1284  220.7580 H   0  0  0  0  0  0  0  0  0  0  0  0
  141.7296   71.9892  219.2370 H   0  0  0  0  0  0  0  0  0  0  0  0
  143.0158   70.7353  219.2370 H   0  0  0  0  0  0  0  0  0  0  0  0
  137.9510   73.5809  223.1099 H   0  0  0  0  0  0  0  0  0  0  0  0
  137.7647   73.4638  221.3003 H   0  0  0  0  0  0  0  0  0  0  0  0
  136.9726   71.4447  222.6137 H   0  0  0  0  0  0  0  0  0  0  0  0
  138.1419   71.1057  221.3271 H   0  0  0  0  0  0  0  0  0  0  0  0
  1  2  1  0
  2  3  1  0
  3  4  2  0
  3  5  1  0
  5  6  1  0
  6  7  2  0
  7  8  1  0
  8  9  2  0
  9 10  1  0
 10 11  2  0
  5 12  1  0
 12 13  1  0
 13 14  1  0
 14 15  1  0
 15 16  1  0
 16 17  2  0
 16 18  1  0
 18 19  1  0
 18 20  1  0
 20 21  1  0
 21 22  2  0
 22 23  1  0
 23 24  2  0
 24 25  1  0
 25 26  2  0
 26 27  1  0
 15 28  1  0
 28 29  1  0
 11  6  1  0
 29 12  1  0
 26 21  1  0
  1 30  1  0
  1 31  1  0
  1 32  1  0
  2 33  1  0
  2 34  1  0
  7 35  1  0
  8 36  1  0
  9 37  1  0
 10 38  1  0
 11 39  1  0
 12 40  1  0
 13 41  1  0
 13 42  1  0
 14 43  1  0
 14 44  1  0
 18 45  1  1
 19 46  1  0
 19 47  1  0
 20 48  1  0
 20 49  1  0
 22 50  1  0
 23 51  1  0
 24 52  1  0
 25 53  1  0
 27 54  1  0
 27 55  1  0
 27 56  1  0
 28 57  1  0
 28 58  1  0
 29 59  1  0
 29 60  1  0
M  END
>  <smiles>  (23) 
CCC(=O)N(c1ccccc1)C1CCN(C(=O)[C@H](N)Cc2ccccc2C)CC1

>  <score_type>  (23) 
oracle

>  <origin>  (23) 
autodockgpu

>  <m_score__min__energy>  (23) 
-7.6100000000000003

>  <m_primary>  (23) 
energy

>  <rmsd>  (23) 
6.8862764298474275

>  <m_score__min__rmsd>  (23) 
6.8862764298474275

>  <meeko>  (23) 
{"free_energy": -6.65, "intermolecular_energy": -9.04, "internal_energy": -2.33, "cluster_size": 19, "cluster_id": 4, "rank_in_cluster": 11}

>  <energy>  (23) 
-6.6

>  <cluster_rmsd>  (23) 
1.43

>  <cluster>  (23) 
4

$$$$

     RDKit          3D

 60 62  0  0  0  0  0  0  0  0999 V2000
  140.4120   71.5930  222.4450 C   0  0  0  0  0  0  0  0  0  0  0  0
  141.2550   72.0650  221.2560 C   0  0  0  0  0  0  0  0  0  0  0  0
  141.3520   73.5330  221.2820 C   0  0  0  0  0  0  0  0  0  0  0  0
  140.5490   74.1490  222.0470 O   0  0  0  0  0  0  0  0  0  0  0  0
  142.2530   74.3260  220.5380 N   0  0  0  0  0  0  0  0  0  0  0  0
  143.5060   73.6710  220.2050 C   0  0  0  0  0  0  0  0  0  0  0  0
  144.5570   73.7810  221.1180 C   0  0  0  0  0  0  0  0  0  0  0  0
  145.7600   73.1600  220.8120 C   0  0  0  0  0  0  0  0  0  0  0  0
  145.9500   72.4470  219.6470 C   0  0  0  0  0  0  0  0  0  0  0  0
  144.8770   72.3620  218.7620 C   0  0  0  0  0  0  0  0  0  0  0  0
  143.6630   72.9700  219.0380 C   0  0  0  0  0  0  0  0  0  0  0  0
  142.0690   75.6570  220.0900 C   0  0  0  0  0  0  0  0  0  0  0  0
  141.3370   76.5820  221.0150 C   0  0  0  0  0  0  0  0  0  0  0  0
  140.7520   77.7070  220.1390 C   0  0  0  0  0  0  0  0  0  0  0  0
  141.7910   78.3090  219.3250 N   0  0  0  0  0  0  0  0  0  0  0  0
  141.8040   79.6840  218.9590 C   0  0  0  0  0  0  0  0  0  0  0  0
  142.8030   80.1430  218.2800 O   0  0  0  0  0  0  0  0  0  0  0  0
  140.7750   80.6930  219.2710 C   0  0  2  0  0  0  0  0  0  0  0  0
  140.2880   81.4250  218.1810 N   0  0  0  0  0  0  0  0  0  0  0  0
  141.1460   81.5230  220.4780 C   0  0  0  0  0  0  0  0  0  0  0  0
  141.2960   80.6460  221.6470 C   0  0  0  0  0  0  0  0  0  0  0  0
  142.5880   80.3350  222.0640 C   0  0  0  0  0  0  0  0  0  0  0  0
  142.8400   79.4990  223.1310 C   0  0  0  0  0  0  0  0  0  0  0  0
  141.7960   78.9470  223.8130 C   0  0  0  0  0  0  0  0  0  0  0  0
  140.5190   79.2270  223.4350 C   0  0  0  0  0  0  0  0  0  0  0  0
  140.2720   80.0740  222.3570 C   0  0  0  0  0  0  0  0  0  0  0  0
  138.8490   80.3420  222.0480 C   0  0  0  0  0  0  0  0  0  0  0  0
  142.9080   77.5140  218.7890 C   0  0  0  0  0  0  0  0  0  0  0  0
  143.3370   76.4010  219.7130 C   0  0  0  0  0  0  0  0  0  0  0  0
  140.9125   71.8733  223.3836 H   0  0  0  0  0  0  0  0  0  0  0  0
  139.4203   72.0671  222.4026 H   0  0  0  0  0  0  0  0  0  0  0  0
  140.2979   70.4998  222.4026 H   0  0  0  0  0  0  0  0  0  0  0  0
  142.2625   71.6288  221.3235 H   0  0  0  0  0  0  0  0  0  0  0  0
  140.7810   71.7432  220.3169 H   0  0  0  0  0  0  0  0  0  0  0  0
  144.4347   74.3447  222.0546 H   0  0  0  0  0  0  0  0  0  0  0  0
  146.5933   73.2396  221.5257 H   0  0  0  0  0  0  0  0  0  0  0  0
  146.9126   71.9634  219.4246 H   0  0  0  0  0  0  0  0  0  0  0  0
  144.9964   71.8000  217.8239 H   0  0  0  0  0  0  0  0  0  0  0  0
  142.8298   72.8905  218.3243 H   0  0  0  0  0  0  0  0  0  0  0  0
  141.4526   75.4405  219.2050 H   0  0  0  0  0  0  0  0  0  0  0  0
  140.5285   76.0425  221.5301 H   0  0  0  0  0  0  0  0  0  0  0  0
  142.0096   76.9875  221.7852 H   0  0  0  0  0  0  0  0  0  0  0  0
  139.9751   77.2879  219.4827 H   0  0  0  0  0  0  0  0  0  0  0  0
  140.3200   78.4790  220.7928 H   0  0  0  0  0  0  0  0  0  0  0  0
  139.8848   80.1135  219.5567 H   0  0  0  0  0  0  0  0  0  0  0  0
  140.9320   81.4550  217.3960 H   0  0  0  0  0  0  0  0  0  0  0  0
  139.2890   81.4080  218.0450 H   0  0  0  0  0  0  0  0  0  0  0  0
  142.0953   82.0448  220.2866 H   0  0  0  0  0  0  0  0  0  0  0  0
  140.3547   82.2619  220.6726 H   0  0  0  0  0  0  0  0  0  0  0  0
  143.4391   80.7727  221.5218 H   0  0  0  0  0  0  0  0  0  0  0  0
  143.8755   79.2789  223.4300 H   0  0  0  0  0  0  0  0  0  0  0  0
  141.9854   78.2780  224.6654 H   0  0  0  0  0  0  0  0  0  0  0  0
  139.6764   78.7816  223.9842 H   0  0  0  0  0  0  0  0  0  0  0  0
  138.2839   80.4484  222.9857 H   0  0  0  0  0  0  0  0  0  0  0  0
  138.7692   81.2710  221.4644 H   0  0  0  0  0  0  0  0  0  0  0  0
  138.4367   79.5057  221.4644 H   0  0  0  0  0  0  0  0  0  0  0  0
  142.5962   77.0732  217.8306 H   0  0  0  0  0  0  0  0  0  0  0  0
  143.7663   78.1916  218.6698 H   0  0  0  0  0  0  0  0  0  0  0  0
  144.0374   75.7263  219.1990 H   0  0  0  0  0  0  0  0  0  0  0  0
  143.8535   76.7923  220.6019 H   0  0  0  0  0  0  0  0  0  0  0  0
  1  2  1  0
  2  3  1  0
  3  4  2  0
  3  5  1  0
  5  6  1  0
  6  7  2  0
  7  8  1  0
  8  9  2  0
  9 10  1  0
 10 11  2  0
  5 12  1  0
 12 13  1  0
 13 14  1  0
 14 15  1  0
 15 16  1  0
 16 17  2  0
 16 18  1  0
 18 19  1  0
 18 20  1  0
 20 21  1  0
 21 22  2  0
 22 23  1  0
 23 24  2  0
 24 25  1  0
 25 26  2  0
 26 27  1  0
 15 28  1  0
 28 29  1  0
 11  6  1  0
 29 12  1  0
 26 21  1  0
  1 30  1  0
  1 31  1  0
  1 32  1  0
  2 33  1  0
  2 34  1  0
  7 35  1  0
  8 36  1  0
  9 37  1  0
 10 38  1  0
 11 39  1  0
 12 40  1  0
 13 41  1  0
 13 42  1  0
 14 43  1  0
 14 44  1  0
 18 45  1  1
 19 46  1  0
 19 47  1  0
 20 48  1  0
 20 49  1  0
 22 50  1  0
 23 51  1  0
 24 52  1  0
 25 53  1  0
 27 54  1  0
 27 55  1  0
 27 56  1  0
 28 57  1  0
 28 58  1  0
 29 59  1  0
 29 60  1  0
M  END
>  <smiles>  (24) 
CCC(=O)N(c1ccccc1)C1CCN(C(=O)[C@H](N)Cc2ccccc2C)CC1

>  <score_type>  (24) 
oracle

>  <origin>  (24) 
autodockgpu

>  <m_score__min__energy>  (24) 
-7.6100000000000003

>  <m_primary>  (24) 
energy

>  <rmsd>  (24) 
5.709733665551343

>  <m_score__min__rmsd>  (24) 
5.709733665551343

>  <meeko>  (24) 
{"free_energy": -6.53, "intermolecular_energy": -8.92, "internal_energy": -2.53, "cluster_size": 15, "cluster_id": 6, "rank_in_cluster": 8}

>  <energy>  (24) 
-6.53

>  <cluster_rmsd>  (24) 
1.38

>  <cluster>  (24) 
4

$$$$

     RDKit          3D

 60 62  0  0  0  0  0  0  0  0999 V2000
  140.6930   71.9470  222.4620 C   0  0  0  0  0  0  0  0  0  0  0  0
  141.0280   72.5300  221.0840 C   0  0  0  0  0  0  0  0  0  0  0  0
  141.1800   73.9890  221.1990 C   0  0  0  0  0  0  0  0  0  0  0  0
  140.4540   74.5770  222.0570 O   0  0  0  0  0  0  0  0  0  0  0  0
  142.0550   74.8020  220.4450 N   0  0  0  0  0  0  0  0  0  0  0  0
  143.2690   74.1370  220.0010 C   0  0  0  0  0  0  0  0  0  0  0  0
  144.3620   74.1400  220.8700 C   0  0  0  0  0  0  0  0  0  0  0  0
  145.5290   73.5090  220.4590 C   0  0  0  0  0  0  0  0  0  0  0  0
  145.6410   72.8880  219.2320 C   0  0  0  0  0  0  0  0  0  0  0  0
  144.5280   72.9090  218.3950 C   0  0  0  0  0  0  0  0  0  0  0  0
  143.3500   73.5300  218.7760 C   0  0  0  0  0  0  0  0  0  0  0  0
  141.8790   76.1590  220.0820 C   0  0  0  0  0  0  0  0  0  0  0  0
  141.4180   77.0890  221.1630 C   0  0  0  0  0  0  0  0  0  0  0  0
  140.7490   78.2860  220.4570 C   0  0  0  0  0  0  0  0  0  0  0  0
  141.6430   78.8540  219.4650 N   0  0  0  0  0  0  0  0  0  0  0  0
  141.6790   80.2390  219.1420 C   0  0  0  0  0  0  0  0  0  0  0  0
  142.5500   80.6600  218.2860 O   0  0  0  0  0  0  0  0  0  0  0  0
  140.8090   81.2970  219.6860 C   0  0  2  0  0  0  0  0  0  0  0  0
  140.2870   82.1990  218.7510 N   0  0  0  0  0  0  0  0  0  0  0  0
  141.4030   81.9370  220.9210 C   0  0  0  0  0  0  0  0  0  0  0  0
  141.3280   80.9910  222.0430 C   0  0  0  0  0  0  0  0  0  0  0  0
  142.5030   80.3510  222.4320 C   0  0  0  0  0  0  0  0  0  0  0  0
  142.5380   79.4260  223.4540 C   0  0  0  0  0  0  0  0  0  0  0  0
  141.3880   79.1150  224.1180 C   0  0  0  0  0  0  0  0  0  0  0  0
  140.2210   79.7210  223.7680 C   0  0  0  0  0  0  0  0  0  0  0  0
  140.1930   80.6550  222.7350 C   0  0  0  0  0  0  0  0  0  0  0  0
  138.8810   81.2800  222.4540 C   0  0  0  0  0  0  0  0  0  0  0  0
  142.5680   78.0110  218.6890 C   0  0  0  0  0  0  0  0  0  0  0  0
  143.0950   76.8350  219.4740 C   0  0  0  0  0  0  0  0  0  0  0  0
  141.0773   72.6157  223.2463 H   0  0  0  0  0  0  0  0  0  0  0  0
  139.6020   71.8510  222.5641 H   0  0  0  0  0  0  0  0  0  0  0  0
  141.1594   70.9560  222.5641 H   0  0  0  0  0  0  0  0  0  0  0  0
  141.9671   72.0902  220.7170 H   0  0  0  0  0  0  0  0  0  0  0  0
  140.2172   72.2978  220.3778 H   0  0  0  0  0  0  0  0  0  0  0  0
  144.3004   74.6289  221.8535 H   0  0  0  0  0  0  0  0  0  0  0  0
  146.3956   73.5042  221.1364 H   0  0  0  0  0  0  0  0  0  0  0  0
  146.5752   72.3944  218.9260 H   0  0  0  0  0  0  0  0  0  0  0  0
  144.5857   72.4220  217.4104 H   0  0  0  0  0  0  0  0  0  0  0  0
  142.4838   73.5356  218.0980 H   0  0  0  0  0  0  0  0  0  0  0  0
  141.0818   76.0206  219.3368 H   0  0  0  0  0  0  0  0  0  0  0  0
  140.6943   76.5813  221.8176 H   0  0  0  0  0  0  0  0  0  0  0  0
  142.2599   77.4176  221.7900 H   0  0  0  0  0  0  0  0  0  0  0  0
  139.8277   77.9457  219.9617 H   0  0  0  0  0  0  0  0  0  0  0  0
  140.5136   79.0557  221.2068 H   0  0  0  0  0  0  0  0  0  0  0  0
  139.8982   80.7753  220.0150 H   0  0  0  0  0  0  0  0  0  0  0  0
  139.8280   83.0000  219.1770 H   0  0  0  0  0  0  0  0  0  0  0  0
  140.7900   82.2790  217.8820 H   0  0  0  0  0  0  0  0  0  0  0  0
  142.4545   82.1977  220.7300 H   0  0  0  0  0  0  0  0  0  0  0  0
  140.8403   82.8488  221.1700 H   0  0  0  0  0  0  0  0  0  0  0  0
  143.4374   80.5926  221.9042 H   0  0  0  0  0  0  0  0  0  0  0  0
  143.4863   78.9426  223.7316 H   0  0  0  0  0  0  0  0  0  0  0  0
  141.4038   78.3770  224.9335 H   0  0  0  0  0  0  0  0  0  0  0  0
  139.2936   79.4716  224.3044 H   0  0  0  0  0  0  0  0  0  0  0  0
  138.3782   81.5195  223.4026 H   0  0  0  0  0  0  0  0  0  0  0  0
  139.0311   82.2033  221.8753 H   0  0  0  0  0  0  0  0  0  0  0  0
  138.2586   80.5816  221.8753 H   0  0  0  0  0  0  0  0  0  0  0  0
  142.0370   77.6315  217.8035 H   0  0  0  0  0  0  0  0  0  0  0  0
  143.4306   78.6360  218.4146 H   0  0  0  0  0  0  0  0  0  0  0  0
  143.6267   76.1388  218.8087 H   0  0  0  0  0  0  0  0  0  0  0  0
  143.8078   77.1544  220.2485 H   0  0  0  0  0  0  0  0  0  0  0  0
  1  2  1  0
  2  3  1  0
  3  4  2  0
  3  5  1  0
  5  6  1  0
  6  7  2  0
  7  8  1  0
  8  9  2  0
  9 10  1  0
 10 11  2  0
  5 12  1  0
 12 13  1  0
 13 14  1  0
 14 15  1  0
 15 16  1  0
 16 17  2  0
 16 18  1  0
 18 19  1  0
 18 20  1  0
 20 21  1  0
 21 22  2  0
 22 23  1  0
 23 24  2  0
 24 25  1  0
 25 26  2  0
 26 27  1  0
 15 28  1  0
 28 29  1  0
 11  6  1  0
 29 12  1  0
 26 21  1  0
  1 30  1  0
  1 31  1  0
  1 32  1  0
  2 33  1  0
  2 34  1  0
  7 35  1  0
  8 36  1  0
  9 37  1  0
 10 38  1  0
 11 39  1  0
 12 40  1  0
 13 41  1  0
 13 42  1  0
 14 43  1  0
 14 44  1  0
 18 45  1  1
 19 46  1  0
 19 47  1  0
 20 48  1  0
 20 49  1  0
 22 50  1  0
 23 51  1  0
 24 52  1  0
 25 53  1  0
 27 54  1  0
 27 55  1  0
 27 56  1  0
 28 57  1  0
 28 58  1  0
 29 59  1  0
 29 60  1  0
M  END
>  <smiles>  (25) 
CCC(=O)N(c1ccccc1)C1CCN(C(=O)[C@H](N)Cc2ccccc2C)CC1

>  <score_type>  (25) 
oracle

>  <origin>  (25) 
autodockgpu

>  <m_score__min__energy>  (25) 
-7.6100000000000003

>  <m_primary>  (25) 
energy

>  <rmsd>  (25) 
5.801603640073164

>  <m_score__min__rmsd>  (25) 
5.801603640073164

>  <meeko>  (25) 
{"free_energy": -6.63, "intermolecular_energy": -9.01, "internal_energy": -2.52, "cluster_size": 15, "cluster_id": 6, "rank_in_cluster": 7}

>  <energy>  (25) 
-6.52

>  <cluster_rmsd>  (25) 
0.31

>  <cluster>  (25) 
4

$$$$

     RDKit          3D

 60 62  0  0  0  0  0  0  0  0999 V2000
  142.5590   77.1140  219.5310 C   0  0  0  0  0  0  0  0  0  0  0  0
  142.5310   75.9340  218.5540 C   0  0  0  0  0  0  0  0  0  0  0  0
  141.5940   74.9140  219.0500 C   0  0  0  0  0  0  0  0  0  0  0  0
  140.3950   74.9870  218.6420 O   0  0  0  0  0  0  0  0  0  0  0  0
  141.8980   73.8590  219.9380 N   0  0  0  0  0  0  0  0  0  0  0  0
  143.3070   73.5090  220.0060 C   0  0  0  0  0  0  0  0  0  0  0  0
  143.7530   72.4600  219.1990 C   0  0  0  0  0  0  0  0  0  0  0  0
  145.0960   72.1150  219.2540 C   0  0  0  0  0  0  0  0  0  0  0  0
  145.9950   72.7670  220.0730 C   0  0  0  0  0  0  0  0  0  0  0  0
  145.5100   73.8070  220.8630 C   0  0  0  0  0  0  0  0  0  0  0  0
  144.1740   74.1760  220.8310 C   0  0  0  0  0  0  0  0  0  0  0  0
  141.0000   73.1260  220.7520 C   0  0  0  0  0  0  0  0  0  0  0  0
  141.6070   72.1160  221.6790 C   0  0  0  0  0  0  0  0  0  0  0  0
  140.5030   71.0850  221.9880 C   0  0  0  0  0  0  0  0  0  0  0  0
  139.3060   71.7510  222.4660 N   0  0  0  0  0  0  0  0  0  0  0  0
  138.4190   71.1820  223.4230 C   0  0  0  0  0  0  0  0  0  0  0  0
  137.4100   71.8760  223.8320 O   0  0  0  0  0  0  0  0  0  0  0  0
  138.5150   69.8420  224.0300 C   0  0  2  0  0  0  0  0  0  0  0  0
  137.5490   69.5410  224.9980 N   0  0  0  0  0  0  0  0  0  0  0  0
  139.9350   69.5010  224.4230 C   0  0  0  0  0  0  0  0  0  0  0  0
  140.2520   70.1390  225.7080 C   0  0  0  0  0  0  0  0  0  0  0  0
  140.7170   71.4520  225.6830 C   0  0  0  0  0  0  0  0  0  0  0  0
  141.0690   72.1350  226.8280 C   0  0  0  0  0  0  0  0  0  0  0  0
  140.9660   71.5130  228.0370 C   0  0  0  0  0  0  0  0  0  0  0  0
  140.5150   70.2310  228.1030 C   0  0  0  0  0  0  0  0  0  0  0  0
  140.1600   69.5490  226.9420 C   0  0  0  0  0  0  0  0  0  0  0  0
  139.6500   68.1700  227.1230 C   0  0  0  0  0  0  0  0  0  0  0  0
  138.9060   73.0740  221.9590 C   0  0  0  0  0  0  0  0  0  0  0  0
  140.0820   73.9590  221.6280 C   0  0  0  0  0  0  0  0  0  0  0  0
  142.5500   76.7353  220.5637 H   0  0  0  0  0  0  0  0  0  0  0  0
  143.4714   77.7056  219.3654 H   0  0  0  0  0  0  0  0  0  0  0  0
  141.6757   77.7482  219.3654 H   0  0  0  0  0  0  0  0  0  0  0  0
  142.2028   76.2842  217.5642 H   0  0  0  0  0  0  0  0  0  0  0  0
  143.5384   75.4999  218.4716 H   0  0  0  0  0  0  0  0  0  0  0  0
  143.0583   71.9217  218.5375 H   0  0  0  0  0  0  0  0  0  0  0  0
  145.4574   71.2911  218.6211 H   0  0  0  0  0  0  0  0  0  0  0  0
  147.0555   72.4763  220.1011 H   0  0  0  0  0  0  0  0  0  0  0  0
  146.2018   74.3469  221.5263 H   0  0  0  0  0  0  0  0  0  0  0  0
  143.8122   74.9995  221.4642 H   0  0  0  0  0  0  0  0  0  0  0  0
  140.4404   72.6198  219.9517 H   0  0  0  0  0  0  0  0  0  0  0  0
  142.4629   71.6226  221.1953 H   0  0  0  0  0  0  0  0  0  0  0  0
  141.9750   72.5923  222.5997 H   0  0  0  0  0  0  0  0  0  0  0  0
  140.2643   70.5246  221.0721 H   0  0  0  0  0  0  0  0  0  0  0  0
  140.8646   70.3993  222.7684 H   0  0  0  0  0  0  0  0  0  0  0  0
  138.2407   69.1435  223.2258 H   0  0  0  0  0  0  0  0  0  0  0  0
  136.8980   70.3030  225.1690 H   0  0  0  0  0  0  0  0  0  0  0  0
  137.2600   68.5770  225.0520 H   0  0  0  0  0  0  0  0  0  0  0  0
  140.0371   68.4100  224.5198 H   0  0  0  0  0  0  0  0  0  0  0  0
  140.6279   69.8660  223.6506 H   0  0  0  0  0  0  0  0  0  0  0  0
  140.8067   71.9632  224.7132 H   0  0  0  0  0  0  0  0  0  0  0  0
  141.4297   73.1724  226.7666 H   0  0  0  0  0  0  0  0  0  0  0  0
  141.2469   72.0465  228.9570 H   0  0  0  0  0  0  0  0  0  0  0  0
  140.4303   69.7305  229.0789 H   0  0  0  0  0  0  0  0  0  0  0  0
  139.5677   67.9475  228.1971 H   0  0  0  0  0  0  0  0  0  0  0  0
  138.6594   68.0808  226.6531 H   0  0  0  0  0  0  0  0  0  0  0  0
  140.3442   67.4577  226.6531 H   0  0  0  0  0  0  0  0  0  0  0  0
  138.3058   72.9334  221.0479 H   0  0  0  0  0  0  0  0  0  0  0  0
  138.3335   73.5720  222.7553 H   0  0  0  0  0  0  0  0  0  0  0  0
  139.7453   74.8547  221.0855 H   0  0  0  0  0  0  0  0  0  0  0  0
  140.5961   74.3024  222.5378 H   0  0  0  0  0  0  0  0  0  0  0  0
  1  2  1  0
  2  3  1  0
  3  4  2  0
  3  5  1  0
  5  6  1  0
  6  7  2  0
  7  8  1  0
  8  9  2  0
  9 10  1  0
 10 11  2  0
  5 12  1  0
 12 13  1  0
 13 14  1  0
 14 15  1  0
 15 16  1  0
 16 17  2  0
 16 18  1  0
 18 19  1  0
 18 20  1  0
 20 21  1  0
 21 22  2  0
 22 23  1  0
 23 24  2  0
 24 25  1  0
 25 26  2  0
 26 27  1  0
 15 28  1  0
 28 29  1  0
 11  6  1  0
 29 12  1  0
 26 21  1  0
  1 30  1  0
  1 31  1  0
  1 32  1  0
  2 33  1  0
  2 34  1  0
  7 35  1  0
  8 36  1  0
  9 37  1  0
 10 38  1  0
 11 39  1  0
 12 40  1  0
 13 41  1  0
 13 42  1  0
 14 43  1  0
 14 44  1  0
 18 45  1  6
 19 46  1  0
 19 47  1  0
 20 48  1  0
 20 49  1  0
 22 50  1  0
 23 51  1  0
 24 52  1  0
 25 53  1  0
 27 54  1  0
 27 55  1  0
 27 56  1  0
 28 57  1  0
 28 58  1  0
 29 59  1  0
 29 60  1  0
M  END
>  <smiles>  (26) 
CCC(=O)N(c1ccccc1)C1CCN(C(=O)[C@H](N)Cc2ccccc2C)CC1

>  <score_type>  (26) 
oracle

>  <origin>  (26) 
autodockgpu

>  <m_score__min__energy>  (26) 
-7.6100000000000003

>  <m_primary>  (26) 
energy

>  <rmsd>  (26) 
8.880979406063009

>  <m_score__min__rmsd>  (26) 
8.880979406063009

>  <meeko>  (26) 
{"free_energy": -6.67, "intermolecular_energy": -9.06, "internal_energy": -2.44, "cluster_size": 4, "cluster_id": 5, "rank_in_cluster": 2}

>  <energy>  (26) 
-6.46

>  <cluster_rmsd>  (26) 
1.24

>  <cluster>  (26) 
4

$$$$

     RDKit          3D

 60 62  0  0  0  0  0  0  0  0999 V2000
  141.8360   77.2680  220.4110 C   0  0  0  0  0  0  0  0  0  0  0  0
  142.7120   76.5150  219.4040 C   0  0  0  0  0  0  0  0  0  0  0  0
  142.1290   75.1890  219.1490 C   0  0  0  0  0  0  0  0  0  0  0  0
  141.3880   75.0730  218.1260 O   0  0  0  0  0  0  0  0  0  0  0  0
  142.3130   74.0290  219.9330 N   0  0  0  0  0  0  0  0  0  0  0  0
  143.6800   73.5360  219.9760 C   0  0  0  0  0  0  0  0  0  0  0  0
  144.5860   74.2130  220.7940 C   0  0  0  0  0  0  0  0  0  0  0  0
  145.8960   73.7530  220.8450 C   0  0  0  0  0  0  0  0  0  0  0  0
  146.3250   72.6610  220.1200 C   0  0  0  0  0  0  0  0  0  0  0  0
  145.3900   72.0140  219.3160 C   0  0  0  0  0  0  0  0  0  0  0  0
  144.0760   72.4480  219.2430 C   0  0  0  0  0  0  0  0  0  0  0  0
  141.3350   73.3140  220.6660 C   0  0  0  0  0  0  0  0  0  0  0  0
  141.8380   72.2550  221.6000 C   0  0  0  0  0  0  0  0  0  0  0  0
  140.6750   71.2640  221.8080 C   0  0  0  0  0  0  0  0  0  0  0  0
  139.4780   71.9680  222.2270 N   0  0  0  0  0  0  0  0  0  0  0  0
  138.5080   71.4120  223.1070 C   0  0  0  0  0  0  0  0  0  0  0  0
  137.5020   72.1380  223.4700 O   0  0  0  0  0  0  0  0  0  0  0  0
  138.5080   70.0540  223.6810 C   0  0  2  0  0  0  0  0  0  0  0  0
  137.4920   69.7820  224.6040 N   0  0  0  0  0  0  0  0  0  0  0  0
  139.8920   69.6260  224.1160 C   0  0  0  0  0  0  0  0  0  0  0  0
  140.1320   70.0790  225.4930 C   0  0  0  0  0  0  0  0  0  0  0  0
  140.5270   71.4010  225.6820 C   0  0  0  0  0  0  0  0  0  0  0  0
  140.8040   71.9200  226.9300 C   0  0  0  0  0  0  0  0  0  0  0  0
  140.6930   71.1190  228.0280 C   0  0  0  0  0  0  0  0  0  0  0  0
  140.3080   69.8220  227.8840 C   0  0  0  0  0  0  0  0  0  0  0  0
  140.0290   69.3060  226.6210 C   0  0  0  0  0  0  0  0  0  0  0  0
  139.5870   67.8930  226.5740 C   0  0  0  0  0  0  0  0  0  0  0  0
  139.1660   73.3190  221.7320 C   0  0  0  0  0  0  0  0  0  0  0  0
  140.3960   74.1620  221.5040 C   0  0  0  0  0  0  0  0  0  0  0  0
  142.1432   77.0039  221.4337 H   0  0  0  0  0  0  0  0  0  0  0  0
  141.9535   78.3514  220.2611 H   0  0  0  0  0  0  0  0  0  0  0  0
  140.7825   76.9892  220.2611 H   0  0  0  0  0  0  0  0  0  0  0  0
  142.7606   77.0823  218.4628 H   0  0  0  0  0  0  0  0  0  0  0  0
  143.7268   76.3991  219.8125 H   0  0  0  0  0  0  0  0  0  0  0  0
  144.2712   75.0874  221.3826 H   0  0  0  0  0  0  0  0  0  0  0  0
  146.6176   74.2791  221.4873 H   0  0  0  0  0  0  0  0  0  0  0  0
  147.3674   72.3139  220.1748 H   0  0  0  0  0  0  0  0  0  0  0  0
  145.7013   71.1394  218.7260 H   0  0  0  0  0  0  0  0  0  0  0  0
  143.3548   71.9220  218.6002 H   0  0  0  0  0  0  0  0  0  0  0  0
  140.8090   72.8529  219.8171 H   0  0  0  0  0  0  0  0  0  0  0  0
  142.7027   71.7383  221.1580 H   0  0  0  0  0  0  0  0  0  0  0  0
  142.1641   72.6908  222.5559 H   0  0  0  0  0  0  0  0  0  0  0  0
  140.4739   70.7381  220.8630 H   0  0  0  0  0  0  0  0  0  0  0  0
  140.9566   70.5433  222.5899 H   0  0  0  0  0  0  0  0  0  0  0  0
  138.2261   69.3921  222.8489 H   0  0  0  0  0  0  0  0  0  0  0  0
  137.7710   69.1250  225.3280 H   0  0  0  0  0  0  0  0  0  0  0  0
  136.8490   70.5340  224.7930 H   0  0  0  0  0  0  0  0  0  0  0  0
  139.9680   68.5295  224.0717 H   0  0  0  0  0  0  0  0  0  0  0  0
  140.6422   70.0717  223.4463 H   0  0  0  0  0  0  0  0  0  0  0  0
  140.6217   72.0560  224.8034 H   0  0  0  0  0  0  0  0  0  0  0  0
  141.1117   72.9705  227.0383 H   0  0  0  0  0  0  0  0  0  0  0  0
  140.9142   71.5206  229.0279 H   0  0  0  0  0  0  0  0  0  0  0  0
  140.2166   69.1772  228.7705 H   0  0  0  0  0  0  0  0  0  0  0  0
  139.4678   67.5118  227.5989 H   0  0  0  0  0  0  0  0  0  0  0  0
  138.6253   67.8271  226.0441 H   0  0  0  0  0  0  0  0  0  0  0  0
  140.3397   67.2908  226.0441 H   0  0  0  0  0  0  0  0  0  0  0  0
  138.6229   73.2267  220.7799 H   0  0  0  0  0  0  0  0  0  0  0  0
  138.5618   73.8203  222.5025 H   0  0  0  0  0  0  0  0  0  0  0  0
  140.1325   75.0850  220.9668 H   0  0  0  0  0  0  0  0  0  0  0  0
  140.8623   74.4597  222.4548 H   0  0  0  0  0  0  0  0  0  0  0  0
  1  2  1  0
  2  3  1  0
  3  4  2  0
  3  5  1  0
  5  6  1  0
  6  7  2  0
  7  8  1  0
  8  9  2  0
  9 10  1  0
 10 11  2  0
  5 12  1  0
 12 13  1  0
 13 14  1  0
 14 15  1  0
 15 16  1  0
 16 17  2  0
 16 18  1  0
 18 19  1  0
 18 20  1  0
 20 21  1  0
 21 22  2  0
 22 23  1  0
 23 24  2  0
 24 25  1  0
 25 26  2  0
 26 27  1  0
 15 28  1  0
 28 29  1  0
 11  6  1  0
 29 12  1  0
 26 21  1  0
  1 30  1  0
  1 31  1  0
  1 32  1  0
  2 33  1  0
  2 34  1  0
  7 35  1  0
  8 36  1  0
  9 37  1  0
 10 38  1  0
 11 39  1  0
 12 40  1  0
 13 41  1  0
 13 42  1  0
 14 43  1  0
 14 44  1  0
 18 45  1  6
 19 46  1  0
 19 47  1  0
 20 48  1  0
 20 49  1  0
 22 50  1  0
 23 51  1  0
 24 52  1  0
 25 53  1  0
 27 54  1  0
 27 55  1  0
 27 56  1  0
 28 57  1  0
 28 58  1  0
 29 59  1  0
 29 60  1  0
M  END
>  <smiles>  (27) 
CCC(=O)N(c1ccccc1)C1CCN(C(=O)[C@H](N)Cc2ccccc2C)CC1

>  <score_type>  (27) 
oracle

>  <origin>  (27) 
autodockgpu

>  <m_score__min__energy>  (27) 
-7.6100000000000003

>  <m_primary>  (27) 
energy

>  <rmsd>  (27) 
8.660431138628669

>  <m_score__min__rmsd>  (27) 
8.660431138628669

>  <meeko>  (27) 
{"free_energy": -6.72, "intermolecular_energy": -9.11, "internal_energy": -2.35, "cluster_size": 4, "cluster_id": 5, "rank_in_cluster": 1}

>  <energy>  (27) 
-6.45

>  <cluster_rmsd>  (27) 
1.14

>  <cluster>  (27) 
4

$$$$

     RDKit          3D

 60 62  0  0  0  0  0  0  0  0999 V2000
  136.6960   70.8740  223.8310 C   0  0  0  0  0  0  0  0  0  0  0  0
  137.2540   69.6000  223.1850 C   0  0  0  0  0  0  0  0  0  0  0  0
  138.6560   69.8250  222.8010 C   0  0  0  0  0  0  0  0  0  0  0  0
  139.1350   69.0680  221.9020 O   0  0  0  0  0  0  0  0  0  0  0  0
  139.5250   70.8030  223.3340 N   0  0  0  0  0  0  0  0  0  0  0  0
  139.9760   70.5390  224.6900 C   0  0  0  0  0  0  0  0  0  0  0  0
  140.6050   71.5800  225.3760 C   0  0  0  0  0  0  0  0  0  0  0  0
  141.0410   71.3430  226.6730 C   0  0  0  0  0  0  0  0  0  0  0  0
  140.8750   70.1240  227.2980 C   0  0  0  0  0  0  0  0  0  0  0  0
  140.2440   69.1120  226.5790 C   0  0  0  0  0  0  0  0  0  0  0  0
  139.7970   69.3170  225.2830 C   0  0  0  0  0  0  0  0  0  0  0  0
  139.9950   71.9800  222.7040 C   0  0  0  0  0  0  0  0  0  0  0  0
  141.0680   71.8060  221.6710 C   0  0  0  0  0  0  0  0  0  0  0  0
  141.8080   73.1550  221.5740 C   0  0  0  0  0  0  0  0  0  0  0  0
  140.8670   74.2340  221.3400 N   0  0  0  0  0  0  0  0  0  0  0  0
  141.1730   75.3900  220.5690 C   0  0  0  0  0  0  0  0  0  0  0  0
  140.2510   76.2710  220.3670 O   0  0  0  0  0  0  0  0  0  0  0  0
  142.4680   75.7200  219.9460 C   0  0  2  0  0  0  0  0  0  0  0  0
  142.6090   77.0370  219.4920 N   0  0  0  0  0  0  0  0  0  0  0  0
  142.9080   74.6590  218.9620 C   0  0  0  0  0  0  0  0  0  0  0  0
  144.0480   73.9200  219.5200 C   0  0  0  0  0  0  0  0  0  0  0  0
  144.8370   74.5640  220.4700 C   0  0  0  0  0  0  0  0  0  0  0  0
  145.9460   73.9700  221.0360 C   0  0  0  0  0  0  0  0  0  0  0  0
  146.2960   72.7070  220.6600 C   0  0  0  0  0  0  0  0  0  0  0  0
  145.5490   72.0450  219.7360 C   0  0  0  0  0  0  0  0  0  0  0  0
  144.4300   72.6500  219.1690 C   0  0  0  0  0  0  0  0  0  0  0  0
  143.6660   71.8350  218.1970 C   0  0  0  0  0  0  0  0  0  0  0  0
  139.5150   74.2180  221.9240 C   0  0  0  0  0  0  0  0  0  0  0  0
  138.9340   72.8290  222.0270 C   0  0  0  0  0  0  0  0  0  0  0  0
  136.7379   70.7784  224.9260 H   0  0  0  0  0  0  0  0  0  0  0  0
  137.2976   71.7390  223.5152 H   0  0  0  0  0  0  0  0  0  0  0  0
  135.6523   71.0184  223.5152 H   0  0  0  0  0  0  0  0  0  0  0  0
  137.1984   68.7688  223.9034 H   0  0  0  0  0  0  0  0  0  0  0  0
  136.6625   69.3495  222.2920 H   0  0  0  0  0  0  0  0  0  0  0  0
  140.7512   72.5616  224.9017 H   0  0  0  0  0  0  0  0  0  0  0  0
  141.5369   72.1569  227.2223 H   0  0  0  0  0  0  0  0  0  0  0  0
  141.2281   69.9578  228.3264 H   0  0  0  0  0  0  0  0  0  0  0  0
  140.0971   68.1287  227.0497 H   0  0  0  0  0  0  0  0  0  0  0  0
  139.3013   68.5030  224.7337 H   0  0  0  0  0  0  0  0  0  0  0  0
  140.4022   72.4815  223.5944 H   0  0  0  0  0  0  0  0  0  0  0  0
  141.7648   71.0119  221.9774 H   0  0  0  0  0  0  0  0  0  0  0  0
  140.6406   71.5169  220.6995 H   0  0  0  0  0  0  0  0  0  0  0  0
  142.3460   73.3414  222.5152 H   0  0  0  0  0  0  0  0  0  0  0  0
  142.5172   73.1126  220.7343 H   0  0  0  0  0  0  0  0  0  0  0  0
  143.1951   75.6972  220.7711 H   0  0  0  0  0  0  0  0  0  0  0  0
  141.7220   77.5220  219.3810 H   0  0  0  0  0  0  0  0  0  0  0  0
  143.4420   77.5220  219.7850 H   0  0  0  0  0  0  0  0  0  0  0  0
  142.0761   73.9641  218.7750 H   0  0  0  0  0  0  0  0  0  0  0  0
  143.2059   75.1353  218.0163 H   0  0  0  0  0  0  0  0  0  0  0  0
  144.5659   75.5839  220.7804 H   0  0  0  0  0  0  0  0  0  0  0  0
  146.5432   74.5110  221.7847 H   0  0  0  0  0  0  0  0  0  0  0  0
  147.1800   72.2248  221.1027 H   0  0  0  0  0  0  0  0  0  0  0  0
  145.8305   71.0252  219.4346 H   0  0  0  0  0  0  0  0  0  0  0  0
  143.0112   71.1365  218.7387 H   0  0  0  0  0  0  0  0  0  0  0  0
  143.0543   72.4958  217.5651 H   0  0  0  0  0  0  0  0  0  0  0  0
  144.3649   71.2673  217.5651 H   0  0  0  0  0  0  0  0  0  0  0  0
  139.5637   74.6534  222.9330 H   0  0  0  0  0  0  0  0  0  0  0  0
  138.8615   74.7996  221.2572 H   0  0  0  0  0  0  0  0  0  0  0  0
  138.0141   72.8434  222.6299 H   0  0  0  0  0  0  0  0  0  0  0  0
  138.6693   72.4289  221.0371 H   0  0  0  0  0  0  0  0  0  0  0  0
  1  2  1  0
  2  3  1  0
  3  4  2  0
  3  5  1  0
  5  6  1  0
  6  7  2  0
  7  8  1  0
  8  9  2  0
  9 10  1  0
 10 11  2  0
  5 12  1  0
 12 13  1  0
 13 14  1  0
 14 15  1  0
 15 16  1  0
 16 17  2  0
 16 18  1  0
 18 19  1  0
 18 20  1  0
 20 21  1  0
 21 22  2  0
 22 23  1  0
 23 24  2  0
 24 25  1  0
 25 26  2  0
 26 27  1  0
 15 28  1  0
 28 29  1  0
 11  6  1  0
 29 12  1  0
 26 21  1  0
  1 30  1  0
  1 31  1  0
  1 32  1  0
  2 33  1  0
  2 34  1  0
  7 35  1  0
  8 36  1  0
  9 37  1  0
 10 38  1  0
 11 39  1  0
 12 40  1  0
 13 41  1  0
 13 42  1  0
 14 43  1  0
 14 44  1  0
 18 45  1  1
 19 46  1  0
 19 47  1  0
 20 48  1  0
 20 49  1  0
 22 50  1  0
 23 51  1  0
 24 52  1  0
 25 53  1  0
 27 54  1  0
 27 55  1  0
 27 56  1  0
 28 57  1  0
 28 58  1  0
 29 59  1  0
 29 60  1  0
M  END
>  <smiles>  (28) 
CCC(=O)N(c1ccccc1)C1CCN(C(=O)[C@H](N)Cc2ccccc2C)CC1

>  <score_type>  (28) 
oracle

>  <origin>  (28) 
autodockgpu

>  <m_score__min__energy>  (28) 
-7.6100000000000003

>  <m_primary>  (28) 
energy

>  <rmsd>  (28) 
6.326211887312936

>  <m_score__min__rmsd>  (28) 
6.326211887312936

>  <meeko>  (28) 
{"free_energy": -6.65, "intermolecular_energy": -9.04, "internal_energy": -2.57, "cluster_size": 19, "cluster_id": 4, "rank_in_cluster": 10}

>  <energy>  (28) 
-6.44

>  <cluster_rmsd>  (28) 
0.85

>  <cluster>  (28) 
4

$$$$

     RDKit          3D

 60 62  0  0  0  0  0  0  0  0999 V2000
  141.1130   71.4770  221.1420 C   0  0  0  0  0  0  0  0  0  0  0  0
  140.3980   72.6730  220.5040 C   0  0  0  0  0  0  0  0  0  0  0  0
  140.9850   73.9210  221.0170 C   0  0  0  0  0  0  0  0  0  0  0  0
  140.6410   74.2800  222.1850 O   0  0  0  0  0  0  0  0  0  0  0  0
  141.8950   74.7600  220.3380 N   0  0  0  0  0  0  0  0  0  0  0  0
  143.1360   74.1150  219.9420 C   0  0  0  0  0  0  0  0  0  0  0  0
  144.2040   74.1610  220.8410 C   0  0  0  0  0  0  0  0  0  0  0  0
  145.3960   73.5490  220.4760 C   0  0  0  0  0  0  0  0  0  0  0  0
  145.5570   72.9050  219.2670 C   0  0  0  0  0  0  0  0  0  0  0  0
  144.4680   72.8830  218.3990 C   0  0  0  0  0  0  0  0  0  0  0  0
  143.2650   73.4840  218.7330 C   0  0  0  0  0  0  0  0  0  0  0  0
  141.7310   76.1260  220.0050 C   0  0  0  0  0  0  0  0  0  0  0  0
  141.1080   77.0010  221.0510 C   0  0  0  0  0  0  0  0  0  0  0  0
  140.5040   78.2100  220.3080 C   0  0  0  0  0  0  0  0  0  0  0  0
  141.5030   78.8380  219.4650 N   0  0  0  0  0  0  0  0  0  0  0  0
  141.5430   80.2360  219.2010 C   0  0  0  0  0  0  0  0  0  0  0  0
  142.5060   80.7110  218.4840 O   0  0  0  0  0  0  0  0  0  0  0  0
  140.5800   81.2510  219.6660 C   0  0  2  0  0  0  0  0  0  0  0  0
  140.0710   82.1050  218.6800 N   0  0  0  0  0  0  0  0  0  0  0  0
  141.0540   81.9440  220.9230 C   0  0  0  0  0  0  0  0  0  0  0  0
  141.2630   80.9470  221.9810 C   0  0  0  0  0  0  0  0  0  0  0  0
  142.5610   80.4870  222.1920 C   0  0  0  0  0  0  0  0  0  0  0  0
  142.8620   79.5310  223.1400 C   0  0  0  0  0  0  0  0  0  0  0  0
  141.8630   79.0070  223.9060 C   0  0  0  0  0  0  0  0  0  0  0  0
  140.5820   79.4320  223.7300 C   0  0  0  0  0  0  0  0  0  0  0  0
  140.2860   80.3980  222.7710 C   0  0  0  0  0  0  0  0  0  0  0  0
  138.8680   80.8170  222.6810 C   0  0  0  0  0  0  0  0  0  0  0  0
  142.5440   78.0490  218.7860 C   0  0  0  0  0  0  0  0  0  0  0  0
  142.9970   76.8540  219.5890 C   0  0  0  0  0  0  0  0  0  0  0  0
  141.0625   71.5614  222.2376 H   0  0  0  0  0  0  0  0  0  0  0  0
  140.6240   70.5447  220.8232 H   0  0  0  0  0  0  0  0  0  0  0  0
  142.1657   71.4664  220.8232 H   0  0  0  0  0  0  0  0  0  0  0  0
  140.5179   72.6326  219.4113 H   0  0  0  0  0  0  0  0  0  0  0  0
  139.3275   72.6390  220.7549 H   0  0  0  0  0  0  0  0  0  0  0  0
  144.1036   74.6683  221.8119 H   0  0  0  0  0  0  0  0  0  0  0  0
  146.2431   73.5790  221.1771 H   0  0  0  0  0  0  0  0  0  0  0  0
  146.5103   72.4264  218.9982 H   0  0  0  0  0  0  0  0  0  0  0  0
  144.5651   72.3774  217.4269 H   0  0  0  0  0  0  0  0  0  0  0  0
  142.4184   73.4546  218.0313 H   0  0  0  0  0  0  0  0  0  0  0  0
  141.0430   75.9997  219.1561 H   0  0  0  0  0  0  0  0  0  0  0  0
  140.3196   76.4512  221.5860 H   0  0  0  0  0  0  0  0  0  0  0  0
  141.8517   77.3225  221.7950 H   0  0  0  0  0  0  0  0  0  0  0  0
  139.6654   77.8690  219.6831 H   0  0  0  0  0  0  0  0  0  0  0  0
  140.1511   78.9430  221.0484 H   0  0  0  0  0  0  0  0  0  0  0  0
  139.6800   80.6841  219.9465 H   0  0  0  0  0  0  0  0  0  0  0  0
  140.6800   82.1950  217.8710 H   0  0  0  0  0  0  0  0  0  0  0  0
  139.0680   82.1340  218.5920 H   0  0  0  0  0  0  0  0  0  0  0  0
  142.0002   82.4667  220.7193 H   0  0  0  0  0  0  0  0  0  0  0  0
  140.2965   82.6720  221.2489 H   0  0  0  0  0  0  0  0  0  0  0  0
  143.3759   80.9013  221.5802 H   0  0  0  0  0  0  0  0  0  0  0  0
  143.9001   79.1940  223.2769 H   0  0  0  0  0  0  0  0  0  0  0  0
  142.0917   78.2432  224.6638 H   0  0  0  0  0  0  0  0  0  0  0  0
  139.7760   79.0103  224.3485 H   0  0  0  0  0  0  0  0  0  0  0  0
  138.4566   80.9386  223.6939 H   0  0  0  0  0  0  0  0  0  0  0  0
  138.8017   81.7731  222.1411 H   0  0  0  0  0  0  0  0  0  0  0  0
  138.2927   80.0505  222.1411 H   0  0  0  0  0  0  0  0  0  0  0  0
  142.1436   77.6940  217.8249 H   0  0  0  0  0  0  0  0  0  0  0  0
  143.4172   78.7042  218.6506 H   0  0  0  0  0  0  0  0  0  0  0  0
  143.6307   76.1981  218.9740 H   0  0  0  0  0  0  0  0  0  0  0  0
  143.5931   77.1575  220.4623 H   0  0  0  0  0  0  0  0  0  0  0  0
  1  2  1  0
  2  3  1  0
  3  4  2  0
  3  5  1  0
  5  6  1  0
  6  7  2  0
  7  8  1  0
  8  9  2  0
  9 10  1  0
 10 11  2  0
  5 12  1  0
 12 13  1  0
 13 14  1  0
 14 15  1  0
 15 16  1  0
 16 17  2  0
 16 18  1  0
 18 19  1  0
 18 20  1  0
 20 21  1  0
 21 22  2  0
 22 23  1  0
 23 24  2  0
 24 25  1  0
 25 26  2  0
 26 27  1  0
 15 28  1  0
 28 29  1  0
 11  6  1  0
 29 12  1  0
 26 21  1  0
  1 30  1  0
  1 31  1  0
  1 32  1  0
  2 33  1  0
  2 34  1  0
  7 35  1  0
  8 36  1  0
  9 37  1  0
 10 38  1  0
 11 39  1  0
 12 40  1  0
 13 41  1  0
 13 42  1  0
 14 43  1  0
 14 44  1  0
 18 45  1  1
 19 46  1  0
 19 47  1  0
 20 48  1  0
 20 49  1  0
 22 50  1  0
 23 51  1  0
 24 52  1  0
 25 53  1  0
 27 54  1  0
 27 55  1  0
 27 56  1  0
 28 57  1  0
 28 58  1  0
 29 59  1  0
 29 60  1  0
M  END
>  <smiles>  (29) 
CCC(=O)N(c1ccccc1)C1CCN(C(=O)[C@H](N)Cc2ccccc2C)CC1

>  <score_type>  (29) 
oracle

>  <origin>  (29) 
autodockgpu

>  <m_score__min__energy>  (29) 
-7.6100000000000003

>  <m_primary>  (29) 
energy

>  <rmsd>  (29) 
5.775754762578148

>  <m_score__min__rmsd>  (29) 
5.775754762578148

>  <meeko>  (29) 
{"free_energy": -6.37, "intermolecular_energy": -8.76, "internal_energy": -2.67, "cluster_size": 15, "cluster_id": 6, "rank_in_cluster": 13}

>  <energy>  (29) 
-6.3

>  <cluster_rmsd>  (29) 
1.21

>  <cluster>  (29) 
4

$$$$

     RDKit          3D

 60 62  0  0  0  0  0  0  0  0999 V2000
  138.9800   72.6340  220.6690 C   0  0  0  0  0  0  0  0  0  0  0  0
  140.4650   72.7100  220.2980 C   0  0  0  0  0  0  0  0  0  0  0  0
  141.0570   73.9120  220.9060 C   0  0  0  0  0  0  0  0  0  0  0  0
  140.6870   74.2020  222.0850 O   0  0  0  0  0  0  0  0  0  0  0  0
  141.9980   74.7770  220.3070 N   0  0  0  0  0  0  0  0  0  0  0  0
  143.2750   74.1590  219.9900 C   0  0  0  0  0  0  0  0  0  0  0  0
  143.4100   73.5590  218.7360 C   0  0  0  0  0  0  0  0  0  0  0  0
  144.6240   72.9640  218.4200 C   0  0  0  0  0  0  0  0  0  0  0  0
  145.6890   72.9460  219.2960 C   0  0  0  0  0  0  0  0  0  0  0  0
  145.5140   73.5550  220.5370 C   0  0  0  0  0  0  0  0  0  0  0  0
  144.3150   74.1570  220.8830 C   0  0  0  0  0  0  0  0  0  0  0  0
  141.8350   76.1460  219.9860 C   0  0  0  0  0  0  0  0  0  0  0  0
  141.3980   77.0490  221.0990 C   0  0  0  0  0  0  0  0  0  0  0  0
  140.7350   78.2740  220.4370 C   0  0  0  0  0  0  0  0  0  0  0  0
  141.6240   78.8600  219.4520 N   0  0  0  0  0  0  0  0  0  0  0  0
  141.6730   80.2540  219.1690 C   0  0  0  0  0  0  0  0  0  0  0  0
  142.5390   80.6910  218.3160 O   0  0  0  0  0  0  0  0  0  0  0  0
  140.8220   81.3060  219.7550 C   0  0  2  0  0  0  0  0  0  0  0  0
  140.2920   82.2350  218.8520 N   0  0  0  0  0  0  0  0  0  0  0  0
  141.4430   81.9100  220.9950 C   0  0  0  0  0  0  0  0  0  0  0  0
  141.3690   80.9420  222.0980 C   0  0  0  0  0  0  0  0  0  0  0  0
  142.5400   80.2780  222.4580 C   0  0  0  0  0  0  0  0  0  0  0  0
  142.5750   79.3310  223.4600 C   0  0  0  0  0  0  0  0  0  0  0  0
  141.4290   79.0220  224.1310 C   0  0  0  0  0  0  0  0  0  0  0  0
  140.2660   79.6500  223.8090 C   0  0  0  0  0  0  0  0  0  0  0  0
  140.2390   80.6070  222.7970 C   0  0  0  0  0  0  0  0  0  0  0  0
  138.9320   81.2560  222.5450 C   0  0  0  0  0  0  0  0  0  0  0  0
  142.5300   78.0300  218.6400 C   0  0  0  0  0  0  0  0  0  0  0  0
  143.0520   76.8260  219.3840 C   0  0  0  0  0  0  0  0  0  0  0  0
  138.8754   72.6287  221.7640 H   0  0  0  0  0  0  0  0  0  0  0  0
  138.4534   73.5064  220.2546 H   0  0  0  0  0  0  0  0  0  0  0  0
  138.5452   71.7124  220.2546 H   0  0  0  0  0  0  0  0  0  0  0  0
  140.9836   71.8152  220.6727 H   0  0  0  0  0  0  0  0  0  0  0  0
  140.5695   72.7606  219.2042 H   0  0  0  0  0  0  0  0  0  0  0  0
  142.5767   73.5579  218.0179 H   0  0  0  0  0  0  0  0  0  0  0  0
  144.7407   72.4894  217.4345 H   0  0  0  0  0  0  0  0  0  0  0  0
  146.6420   72.4682  219.0249 H   0  0  0  0  0  0  0  0  0  0  0  0
  146.3454   73.5579  221.2573 H   0  0  0  0  0  0  0  0  0  0  0  0
  144.1983   74.6307  221.8689 H   0  0  0  0  0  0  0  0  0  0  0  0
  141.0282   76.0384  219.2461 H   0  0  0  0  0  0  0  0  0  0  0  0
  140.6761   76.5307  221.7472 H   0  0  0  0  0  0  0  0  0  0  0  0
  142.2513   77.3493  221.7249 H   0  0  0  0  0  0  0  0  0  0  0  0
  139.8039   77.9593  219.9430 H   0  0  0  0  0  0  0  0  0  0  0  0
  140.5173   79.0239  221.2118 H   0  0  0  0  0  0  0  0  0  0  0  0
  139.9126   80.7841  220.0876 H   0  0  0  0  0  0  0  0  0  0  0  0
  140.7970   82.2740  217.9710 H   0  0  0  0  0  0  0  0  0  0  0  0
  139.2950   82.3790  218.8960 H   0  0  0  0  0  0  0  0  0  0  0  0
  142.4957   82.1585  220.7946 H   0  0  0  0  0  0  0  0  0  0  0  0
  140.8978   82.8246  221.2712 H   0  0  0  0  0  0  0  0  0  0  0  0
  143.4708   80.5180  221.9232 H   0  0  0  0  0  0  0  0  0  0  0  0
  143.5198   78.8291  223.7158 H   0  0  0  0  0  0  0  0  0  0  0  0
  141.4448   78.2668  224.9307 H   0  0  0  0  0  0  0  0  0  0  0  0
  139.3417   79.4007  224.3508 H   0  0  0  0  0  0  0  0  0  0  0  0
  138.4503   81.4952  223.5046 H   0  0  0  0  0  0  0  0  0  0  0  0
  139.0869   82.1819  221.9716 H   0  0  0  0  0  0  0  0  0  0  0  0
  138.2880   80.5730  221.9716 H   0  0  0  0  0  0  0  0  0  0  0  0
  141.9843   77.6828  217.7503 H   0  0  0  0  0  0  0  0  0  0  0  0
  143.3964   78.6530  218.3732 H   0  0  0  0  0  0  0  0  0  0  0  0
  143.5682   76.1437  218.6926 H   0  0  0  0  0  0  0  0  0  0  0  0
  143.7770   77.1146  220.1593 H   0  0  0  0  0  0  0  0  0  0  0  0
  1  2  1  0
  2  3  1  0
  3  4  2  0
  3  5  1  0
  5  6  1  0
  6  7  2  0
  7  8  1  0
  8  9  2  0
  9 10  1  0
 10 11  2  0
  5 12  1  0
 12 13  1  0
 13 14  1  0
 14 15  1  0
 15 16  1  0
 16 17  2  0
 16 18  1  0
 18 19  1  0
 18 20  1  0
 20 21  1  0
 21 22  2  0
 22 23  1  0
 23 24  2  0
 24 25  1  0
 25 26  2  0
 26 27  1  0
 15 28  1  0
 28 29  1  0
 11  6  1  0
 29 12  1  0
 26 21  1  0
  1 30  1  0
  1 31  1  0
  1 32  1  0
  2 33  1  0
  2 34  1  0
  7 35  1  0
  8 36  1  0
  9 37  1  0
 10 38  1  0
 11 39  1  0
 12 40  1  0
 13 41  1  0
 13 42  1  0
 14 43  1  0
 14 44  1  0
 18 45  1  1
 19 46  1  0
 19 47  1  0
 20 48  1  0
 20 49  1  0
 22 50  1  0
 23 51  1  0
 24 52  1  0
 25 53  1  0
 27 54  1  0
 27 55  1  0
 27 56  1  0
 28 57  1  0
 28 58  1  0
 29 59  1  0
 29 60  1  0
M  END
>  <smiles>  (30) 
CCC(=O)N(c1ccccc1)C1CCN(C(=O)[C@H](N)Cc2ccccc2C)CC1

>  <score_type>  (30) 
oracle

>  <origin>  (30) 
autodockgpu

>  <m_score__min__energy>  (30) 
-7.6100000000000003

>  <m_primary>  (30) 
energy

>  <rmsd>  (30) 
5.80803773424876

>  <m_score__min__rmsd>  (30) 
5.80803773424876

>  <meeko>  (30) 
{"free_energy": -6.4, "intermolecular_energy": -8.78, "internal_energy": -2.6, "cluster_size": 15, "cluster_id": 6, "rank_in_cluster": 12}

>  <energy>  (30) 
-6.72

>  <cluster_rmsd>  (30) 
0.0

>  <cluster>  (30) 
5

$$$$

     RDKit          3D

 60 62  0  0  0  0  0  0  0  0999 V2000
  136.6240   71.2560  223.8070 C   0  0  0  0  0  0  0  0  0  0  0  0
  136.9920   70.0460  222.9410 C   0  0  0  0  0  0  0  0  0  0  0  0
  138.4550   69.9760  222.8010 C   0  0  0  0  0  0  0  0  0  0  0  0
  138.9250   68.9850  222.1630 O   0  0  0  0  0  0  0  0  0  0  0  0
  139.3910   70.9050  223.3070 N   0  0  0  0  0  0  0  0  0  0  0  0
  139.8850   70.6030  224.6400 C   0  0  0  0  0  0  0  0  0  0  0  0
  139.6000   69.3410  225.1660 C   0  0  0  0  0  0  0  0  0  0  0  0
  140.0650   69.0390  226.4380 C   0  0  0  0  0  0  0  0  0  0  0  0
  140.7920   69.9370  227.1930 C   0  0  0  0  0  0  0  0  0  0  0  0
  141.0530   71.1850  226.6330 C   0  0  0  0  0  0  0  0  0  0  0  0
  140.6030   71.5170  225.3650 C   0  0  0  0  0  0  0  0  0  0  0  0
  139.8900   72.0660  222.6710 C   0  0  0  0  0  0  0  0  0  0  0  0
  140.9950   71.8650  221.6780 C   0  0  0  0  0  0  0  0  0  0  0  0
  141.7470   73.2080  221.5800 C   0  0  0  0  0  0  0  0  0  0  0  0
  140.8220   74.2880  221.2940 N   0  0  0  0  0  0  0  0  0  0  0  0
  141.1610   75.4270  220.5110 C   0  0  0  0  0  0  0  0  0  0  0  0
  140.2520   76.3090  220.2610 O   0  0  0  0  0  0  0  0  0  0  0  0
  142.4780   75.7370  219.9260 C   0  0  2  0  0  0  0  0  0  0  0  0
  142.6520   77.0510  219.4770 N   0  0  0  0  0  0  0  0  0  0  0  0
  142.9300   74.6700  218.9540 C   0  0  0  0  0  0  0  0  0  0  0  0
  144.0580   73.9290  219.5340 C   0  0  0  0  0  0  0  0  0  0  0  0
  144.8350   74.5740  220.4940 C   0  0  0  0  0  0  0  0  0  0  0  0
  145.9320   73.9800  221.0800 C   0  0  0  0  0  0  0  0  0  0  0  0
  146.2830   72.7130  220.7170 C   0  0  0  0  0  0  0  0  0  0  0  0
  145.5480   72.0490  219.7840 C   0  0  0  0  0  0  0  0  0  0  0  0
  144.4400   72.6560  219.1960 C   0  0  0  0  0  0  0  0  0  0  0  0
  143.6890   71.8380  218.2170 C   0  0  0  0  0  0  0  0  0  0  0  0
  139.4510   74.2910  221.8320 C   0  0  0  0  0  0  0  0  0  0  0  0
  138.8580   72.9080  221.9420 C   0  0  0  0  0  0  0  0  0  0  0  0
  136.7065   70.9849  224.8699 H   0  0  0  0  0  0  0  0  0  0  0  0
  137.3100   72.0871  223.5863 H   0  0  0  0  0  0  0  0  0  0  0  0
  135.5914   71.5644  223.5863 H   0  0  0  0  0  0  0  0  0  0  0  0
  136.6241   69.1262  223.4192 H   0  0  0  0  0  0  0  0  0  0  0  0
  136.5310   70.1496  221.9476 H   0  0  0  0  0  0  0  0  0  0  0  0
  139.0220   68.6056  224.5870 H   0  0  0  0  0  0  0  0  0  0  0  0
  139.8461   68.0472  226.8603 H   0  0  0  0  0  0  0  0  0  0  0  0
  141.1518   69.6766  228.1994 H   0  0  0  0  0  0  0  0  0  0  0  0
  141.6290   71.9236  227.2098 H   0  0  0  0  0  0  0  0  0  0  0  0
  140.8212   72.5091  224.9430 H   0  0  0  0  0  0  0  0  0  0  0  0
  140.2709   72.5821  223.5646 H   0  0  0  0  0  0  0  0  0  0  0  0
  141.6758   71.0727  222.0226 H   0  0  0  0  0  0  0  0  0  0  0  0
  140.5983   71.5594  220.6986 H   0  0  0  0  0  0  0  0  0  0  0  0
  142.2545   73.4093  222.5349 H   0  0  0  0  0  0  0  0  0  0  0  0
  142.4834   73.1450  220.7653 H   0  0  0  0  0  0  0  0  0  0  0  0
  143.1802   75.7024  220.7720 H   0  0  0  0  0  0  0  0  0  0  0  0
  141.7770   77.5530  219.3490 H   0  0  0  0  0  0  0  0  0  0  0  0
  143.4890   77.5200  219.7870 H   0  0  0  0  0  0  0  0  0  0  0  0
  142.0986   73.9774  218.7563 H   0  0  0  0  0  0  0  0  0  0  0  0
  143.2452   75.1410  218.0112 H   0  0  0  0  0  0  0  0  0  0  0  0
  144.5626   75.5961  220.7957 H   0  0  0  0  0  0  0  0  0  0  0  0
  146.5198   74.5235  221.8345 H   0  0  0  0  0  0  0  0  0  0  0  0
  147.1574   72.2295  221.1770 H   0  0  0  0  0  0  0  0  0  0  0  0
  145.8302   71.0267  219.4921 H   0  0  0  0  0  0  0  0  0  0  0  0
  143.0392   71.1302  218.7525 H   0  0  0  0  0  0  0  0  0  0  0  0
  143.0733   72.4954  217.5855 H   0  0  0  0  0  0  0  0  0  0  0  0
  144.3965   71.2806  217.5855 H   0  0  0  0  0  0  0  0  0  0  0  0
  139.4684   74.7456  222.8335 H   0  0  0  0  0  0  0  0  0  0  0  0
  138.8241   74.8632  221.1322 H   0  0  0  0  0  0  0  0  0  0  0  0
  137.9183   72.9395  222.5129 H   0  0  0  0  0  0  0  0  0  0  0  0
  138.6244   72.4902  220.9516 H   0  0  0  0  0  0  0  0  0  0  0  0
  1  2  1  0
  2  3  1  0
  3  4  2  0
  3  5  1  0
  5  6  1  0
  6  7  2  0
  7  8  1  0
  8  9  2  0
  9 10  1  0
 10 11  2  0
  5 12  1  0
 12 13  1  0
 13 14  1  0
 14 15  1  0
 15 16  1  0
 16 17  2  0
 16 18  1  0
 18 19  1  0
 18 20  1  0
 20 21  1  0
 21 22  2  0
 22 23  1  0
 23 24  2  0
 24 25  1  0
 25 26  2  0
 26 27  1  0
 15 28  1  0
 28 29  1  0
 11  6  1  0
 29 12  1  0
 26 21  1  0
  1 30  1  0
  1 31  1  0
  1 32  1  0
  2 33  1  0
  2 34  1  0
  7 35  1  0
  8 36  1  0
  9 37  1  0
 10 38  1  0
 11 39  1  0
 12 40  1  0
 13 41  1  0
 13 42  1  0
 14 43  1  0
 14 44  1  0
 18 45  1  1
 19 46  1  0
 19 47  1  0
 20 48  1  0
 20 49  1  0
 22 50  1  0
 23 51  1  0
 24 52  1  0
 25 53  1  0
 27 54  1  0
 27 55  1  0
 27 56  1  0
 28 57  1  0
 28 58  1  0
 29 59  1  0
 29 60  1  0
M  END
>  <smiles>  (31) 
CCC(=O)N(c1ccccc1)C1CCN(C(=O)[C@H](N)Cc2ccccc2C)CC1

>  <score_type>  (31) 
oracle

>  <origin>  (31) 
autodockgpu

>  <m_score__min__energy>  (31) 
-7.6100000000000003

>  <m_primary>  (31) 
energy

>  <rmsd>  (31) 
6.292659084427456

>  <m_score__min__rmsd>  (31) 
6.292659084427456

>  <meeko>  (31) 
{"free_energy": -6.6, "intermolecular_energy": -8.99, "internal_energy": -2.58, "cluster_size": 19, "cluster_id": 4, "rank_in_cluster": 13}

>  <energy>  (31) 
-6.67

>  <cluster_rmsd>  (31) 
0.5

>  <cluster>  (31) 
5

$$$$

     RDKit          3D

 60 62  0  0  0  0  0  0  0  0999 V2000
  138.7980   67.3130  222.3470 C   0  0  0  0  0  0  0  0  0  0  0  0
  137.4970   68.1200  222.4200 C   0  0  0  0  0  0  0  0  0  0  0  0
  137.5150   68.9620  223.6270 C   0  0  0  0  0  0  0  0  0  0  0  0
  136.5020   68.8990  224.3880 O   0  0  0  0  0  0  0  0  0  0  0  0
  138.5510   69.8360  224.0230 N   0  0  0  0  0  0  0  0  0  0  0  0
  139.2680   69.4250  225.2190 C   0  0  0  0  0  0  0  0  0  0  0  0
  139.9660   70.4070  225.9250 C   0  0  0  0  0  0  0  0  0  0  0  0
  140.6550   70.0280  227.0690 C   0  0  0  0  0  0  0  0  0  0  0  0
  140.6730   68.7270  227.5250 C   0  0  0  0  0  0  0  0  0  0  0  0
  139.9650   67.7770  226.7920 C   0  0  0  0  0  0  0  0  0  0  0  0
  139.2670   68.1230  225.6470 C   0  0  0  0  0  0  0  0  0  0  0  0
  138.9600   71.0370  223.3950 C   0  0  0  0  0  0  0  0  0  0  0  0
  140.2640   70.9980  222.6570 C   0  0  0  0  0  0  0  0  0  0  0  0
  140.7730   72.4520  222.5880 C   0  0  0  0  0  0  0  0  0  0  0  0
  139.7520   73.3210  222.0330 N   0  0  0  0  0  0  0  0  0  0  0  0
  140.0410   74.4620  221.2330 C   0  0  0  0  0  0  0  0  0  0  0  0
  139.0620   75.1420  220.7350 O   0  0  0  0  0  0  0  0  0  0  0  0
  141.3750   74.9860  220.8890 C   0  0  2  0  0  0  0  0  0  0  0  0
  141.4800   76.3790  220.8010 N   0  0  0  0  0  0  0  0  0  0  0  0
  141.9990   74.2280  219.7380 C   0  0  0  0  0  0  0  0  0  0  0  0
  143.3530   73.8010  220.1120 C   0  0  0  0  0  0  0  0  0  0  0  0
  144.2720   74.7890  220.4610 C   0  0  0  0  0  0  0  0  0  0  0  0
  145.5770   74.4990  220.8020 C   0  0  0  0  0  0  0  0  0  0  0  0
  145.9980   73.2020  220.8000 C   0  0  0  0  0  0  0  0  0  0  0  0
  145.1300   72.2090  220.4650 C   0  0  0  0  0  0  0  0  0  0  0  0
  143.8130   72.5100  220.1240 C   0  0  0  0  0  0  0  0  0  0  0  0
  142.9400   71.3560  219.8080 C   0  0  0  0  0  0  0  0  0  0  0  0
  138.3210   73.0920  222.2930 C   0  0  0  0  0  0  0  0  0  0  0  0
  137.9690   71.6290  222.4090 C   0  0  0  0  0  0  0  0  0  0  0  0
  139.1512   67.0939  223.3655 H   0  0  0  0  0  0  0  0  0  0  0  0
  138.6148   66.3697  221.8116 H   0  0  0  0  0  0  0  0  0  0  0  0
  139.5617   67.8962  221.8116 H   0  0  0  0  0  0  0  0  0  0  0  0
  137.4095   68.7578  221.5281 H   0  0  0  0  0  0  0  0  0  0  0  0
  136.6388   67.4332  222.4621 H   0  0  0  0  0  0  0  0  0  0  0  0
  139.9698   71.4527  225.5838 H   0  0  0  0  0  0  0  0  0  0  0  0
  141.2072   70.7943  227.6328 H   0  0  0  0  0  0  0  0  0  0  0  0
  141.2262   68.4492  228.4343 H   0  0  0  0  0  0  0  0  0  0  0  0
  139.9603   66.7302  227.1298 H   0  0  0  0  0  0  0  0  0  0  0  0
  138.7144   67.3565  225.0838 H   0  0  0  0  0  0  0  0  0  0  0  0
  139.0525   71.6618  224.2956 H   0  0  0  0  0  0  0  0  0  0  0  0
  140.9867   70.3678  223.1959 H   0  0  0  0  0  0  0  0  0  0  0  0
  140.1383   70.5728  221.6503 H   0  0  0  0  0  0  0  0  0  0  0  0
  141.0285   72.7948  223.6015 H   0  0  0  0  0  0  0  0  0  0  0  0
  141.6617   72.4880  221.9407 H   0  0  0  0  0  0  0  0  0  0  0  0
  141.9989   74.7789  221.7710 H   0  0  0  0  0  0  0  0  0  0  0  0
  140.5820   76.8450  220.7080 H   0  0  0  0  0  0  0  0  0  0  0  0
  142.2440   76.8000  221.3050 H   0  0  0  0  0  0  0  0  0  0  0  0
  141.3866   73.3443  219.5057 H   0  0  0  0  0  0  0  0  0  0  0  0
  142.0506   74.8802  218.8537 H   0  0  0  0  0  0  0  0  0  0  0  0
  143.9446   75.8391  220.4647 H   0  0  0  0  0  0  0  0  0  0  0  0
  146.2721   75.3073  221.0732 H   0  0  0  0  0  0  0  0  0  0  0  0
  147.0367   72.9591  221.0685 H   0  0  0  0  0  0  0  0  0  0  0  0
  145.4700   71.1629  220.4634 H   0  0  0  0  0  0  0  0  0  0  0  0
  142.5904   70.8939  220.7430 H   0  0  0  0  0  0  0  0  0  0  0  0
  142.0744   71.7004  219.2232 H   0  0  0  0  0  0  0  0  0  0  0  0
  143.5069   70.6167  219.2232 H   0  0  0  0  0  0  0  0  0  0  0  0
  138.0513   73.5930  223.2344 H   0  0  0  0  0  0  0  0  0  0  0  0
  137.7622   73.4978  221.4368 H   0  0  0  0  0  0  0  0  0  0  0  0
  136.9412   71.5117  222.7831 H   0  0  0  0  0  0  0  0  0  0  0  0
  138.0206   71.1236  221.4333 H   0  0  0  0  0  0  0  0  0  0  0  0
  1  2  1  0
  2  3  1  0
  3  4  2  0
  3  5  1  0
  5  6  1  0
  6  7  2  0
  7  8  1  0
  8  9  2  0
  9 10  1  0
 10 11  2  0
  5 12  1  0
 12 13  1  0
 13 14  1  0
 14 15  1  0
 15 16  1  0
 16 17  2  0
 16 18  1  0
 18 19  1  0
 18 20  1  0
 20 21  1  0
 21 22  2  0
 22 23  1  0
 23 24  2  0
 24 25  1  0
 25 26  2  0
 26 27  1  0
 15 28  1  0
 28 29  1  0
 11  6  1  0
 29 12  1  0
 26 21  1  0
  1 30  1  0
  1 31  1  0
  1 32  1  0
  2 33  1  0
  2 34  1  0
  7 35  1  0
  8 36  1  0
  9 37  1  0
 10 38  1  0
 11 39  1  0
 12 40  1  0
 13 41  1  0
 13 42  1  0
 14 43  1  0
 14 44  1  0
 18 45  1  1
 19 46  1  0
 19 47  1  0
 20 48  1  0
 20 49  1  0
 22 50  1  0
 23 51  1  0
 24 52  1  0
 25 53  1  0
 27 54  1  0
 27 55  1  0
 27 56  1  0
 28 57  1  0
 28 58  1  0
 29 59  1  0
 29 60  1  0
M  END
>  <smiles>  (32) 
CCC(=O)N(c1ccccc1)C1CCN(C(=O)[C@H](N)Cc2ccccc2C)CC1

>  <score_type>  (32) 
oracle

>  <origin>  (32) 
autodockgpu

>  <m_score__min__energy>  (32) 
-7.6100000000000003

>  <m_primary>  (32) 
energy

>  <rmsd>  (32) 
6.948199055685333

>  <m_score__min__rmsd>  (32) 
6.948199055685333

>  <meeko>  (32) 
{"free_energy": -6.78, "intermolecular_energy": -9.17, "internal_energy": -2.43, "cluster_size": 19, "cluster_id": 4, "rank_in_cluster": 1}

>  <energy>  (32) 
-6.64

>  <cluster_rmsd>  (32) 
0.47

>  <cluster>  (32) 
5

$$$$

     RDKit          3D

 60 62  0  0  0  0  0  0  0  0999 V2000
  138.0460   68.0770  222.2810 C   0  0  0  0  0  0  0  0  0  0  0  0
  138.8310   68.1090  223.5970 C   0  0  0  0  0  0  0  0  0  0  0  0
  138.4360   69.2970  224.3690 C   0  0  0  0  0  0  0  0  0  0  0  0
  137.3330   69.2370  224.9940 O   0  0  0  0  0  0  0  0  0  0  0  0
  139.1630   70.5020  224.4840 N   0  0  0  0  0  0  0  0  0  0  0  0
  139.8420   70.6820  225.7570 C   0  0  0  0  0  0  0  0  0  0  0  0
  139.6450   69.7090  226.7380 C   0  0  0  0  0  0  0  0  0  0  0  0
  140.2870   69.8680  227.9590 C   0  0  0  0  0  0  0  0  0  0  0  0
  141.1030   70.9470  228.2310 C   0  0  0  0  0  0  0  0  0  0  0  0
  141.2720   71.8960  227.2260 C   0  0  0  0  0  0  0  0  0  0  0  0
  140.6460   71.7660  225.9970 C   0  0  0  0  0  0  0  0  0  0  0  0
  139.3030   71.5260  223.5160 C   0  0  0  0  0  0  0  0  0  0  0  0
  140.5640   71.5140  222.7050 C   0  0  0  0  0  0  0  0  0  0  0  0
  140.7700   72.9550  222.1940 C   0  0  0  0  0  0  0  0  0  0  0  0
  139.5790   73.4270  221.5140 N   0  0  0  0  0  0  0  0  0  0  0  0
  139.6090   74.3230  220.4090 C   0  0  0  0  0  0  0  0  0  0  0  0
  138.4980   74.6420  219.8310 O   0  0  0  0  0  0  0  0  0  0  0  0
  140.8000   74.9590  219.8170 C   0  0  2  0  0  0  0  0  0  0  0  0
  140.5860   76.1930  219.1920 N   0  0  0  0  0  0  0  0  0  0  0  0
  141.6250   73.9770  219.0170 C   0  0  0  0  0  0  0  0  0  0  0  0
  142.9320   73.7970  219.6630 C   0  0  0  0  0  0  0  0  0  0  0  0
  143.2480   72.5290  220.1460 C   0  0  0  0  0  0  0  0  0  0  0  0
  144.4350   72.2580  220.7940 C   0  0  0  0  0  0  0  0  0  0  0  0
  145.3430   73.2600  220.9750 C   0  0  0  0  0  0  0  0  0  0  0  0
  145.0710   74.5110  220.5160 C   0  0  0  0  0  0  0  0  0  0  0  0
  143.8700   74.7770  219.8620 C   0  0  0  0  0  0  0  0  0  0  0  0
  143.6840   76.1610  219.3720 C   0  0  0  0  0  0  0  0  0  0  0  0
  138.2320   73.0260  221.9520 C   0  0  0  0  0  0  0  0  0  0  0  0
  138.1830   71.6190  222.4970 C   0  0  0  0  0  0  0  0  0  0  0  0
  136.9685   68.0331  222.4978 H   0  0  0  0  0  0  0  0  0  0  0  0
  138.2665   68.9849  221.7004 H   0  0  0  0  0  0  0  0  0  0  0  0
  138.3397   67.1901  221.7004 H   0  0  0  0  0  0  0  0  0  0  0  0
  138.6099   67.2022  224.1790 H   0  0  0  0  0  0  0  0  0  0  0  0
  139.9091   68.1503  223.3825 H   0  0  0  0  0  0  0  0  0  0  0  0
  138.9984   68.8394  226.5490 H   0  0  0  0  0  0  0  0  0  0  0  0
  140.1396   69.1056  228.7382 H   0  0  0  0  0  0  0  0  0  0  0  0
  141.6016   71.0536  229.2057 H   0  0  0  0  0  0  0  0  0  0  0  0
  141.9165   72.7678  227.4120 H   0  0  0  0  0  0  0  0  0  0  0  0
  140.7933   72.5285  225.2180 H   0  0  0  0  0  0  0  0  0  0  0  0
  139.2980   72.3892  224.1978 H   0  0  0  0  0  0  0  0  0  0  0  0
  141.4152   71.2073  223.3306 H   0  0  0  0  0  0  0  0  0  0  0  0
  140.4928   70.8021  221.8695 H   0  0  0  0  0  0  0  0  0  0  0  0
  140.9851   73.6147  223.0476 H   0  0  0  0  0  0  0  0  0  0  0  0
  141.6119   72.9649  221.4861 H   0  0  0  0  0  0  0  0  0  0  0  0
  141.4202   75.2571  220.6752 H   0  0  0  0  0  0  0  0  0  0  0  0
  141.3140   76.4400  218.5280 H   0  0  0  0  0  0  0  0  0  0  0  0
  139.6240   76.4550  219.0430 H   0  0  0  0  0  0  0  0  0  0  0  0
  141.1021   73.0103  218.9712 H   0  0  0  0  0  0  0  0  0  0  0  0
  141.7695   74.3637  217.9974 H   0  0  0  0  0  0  0  0  0  0  0  0
  142.5236   71.7133  220.0052 H   0  0  0  0  0  0  0  0  0  0  0  0
  144.6476   71.2432  221.1615 H   0  0  0  0  0  0  0  0  0  0  0  0
  146.2929   73.0566  221.4910 H   0  0  0  0  0  0  0  0  0  0  0  0
  145.8040   75.3180  220.6621 H   0  0  0  0  0  0  0  0  0  0  0  0
  143.5922   76.8442  220.2292 H   0  0  0  0  0  0  0  0  0  0  0  0
  144.5509   76.4534  218.7613 H   0  0  0  0  0  0  0  0  0  0  0  0
  142.7706   76.2141  218.7613 H   0  0  0  0  0  0  0  0  0  0  0  0
  137.8988   73.7185  222.7390 H   0  0  0  0  0  0  0  0  0  0  0  0
  137.5756   73.0600  221.0699 H   0  0  0  0  0  0  0  0  0  0  0  0
  137.2121   71.4290  222.9778 H   0  0  0  0  0  0  0  0  0  0  0  0
  138.3027   70.8729  221.6976 H   0  0  0  0  0  0  0  0  0  0  0  0
  1  2  1  0
  2  3  1  0
  3  4  2  0
  3  5  1  0
  5  6  1  0
  6  7  2  0
  7  8  1  0
  8  9  2  0
  9 10  1  0
 10 11  2  0
  5 12  1  0
 12 13  1  0
 13 14  1  0
 14 15  1  0
 15 16  1  0
 16 17  2  0
 16 18  1  0
 18 19  1  0
 18 20  1  0
 20 21  1  0
 21 22  2  0
 22 23  1  0
 23 24  2  0
 24 25  1  0
 25 26  2  0
 26 27  1  0
 15 28  1  0
 28 29  1  0
 11  6  1  0
 29 12  1  0
 26 21  1  0
  1 30  1  0
  1 31  1  0
  1 32  1  0
  2 33  1  0
  2 34  1  0
  7 35  1  0
  8 36  1  0
  9 37  1  0
 10 38  1  0
 11 39  1  0
 12 40  1  0
 13 41  1  0
 13 42  1  0
 14 43  1  0
 14 44  1  0
 18 45  1  1
 19 46  1  0
 19 47  1  0
 20 48  1  0
 20 49  1  0
 22 50  1  0
 23 51  1  0
 24 52  1  0
 25 53  1  0
 27 54  1  0
 27 55  1  0
 27 56  1  0
 28 57  1  0
 28 58  1  0
 29 59  1  0
 29 60  1  0
M  END
>  <smiles>  (33) 
CCC(=O)N(c1ccccc1)C1CCN(C(=O)[C@H](N)Cc2ccccc2C)CC1

>  <score_type>  (33) 
oracle

>  <origin>  (33) 
autodockgpu

>  <m_score__min__energy>  (33) 
-7.6100000000000003

>  <m_primary>  (33) 
energy

>  <rmsd>  (33) 
6.62605564191317

>  <m_score__min__rmsd>  (33) 
6.62605564191317

>  <meeko>  (33) 
{"free_energy": -6.3, "intermolecular_energy": -8.68, "internal_energy": -2.31, "cluster_size": 19, "cluster_id": 4, "rank_in_cluster": 19}

>  <energy>  (33) 
-6.61

>  <cluster_rmsd>  (33) 
0.42

>  <cluster>  (33) 
5

$$$$

     RDKit          3D

 60 62  0  0  0  0  0  0  0  0999 V2000
  145.9300   74.0750  216.0860 C   0  0  0  0  0  0  0  0  0  0  0  0
  144.7410   73.8310  217.0220 C   0  0  0  0  0  0  0  0  0  0  0  0
  145.1710   72.9770  218.1400 C   0  0  0  0  0  0  0  0  0  0  0  0
  146.3050   73.2270  218.6520 O   0  0  0  0  0  0  0  0  0  0  0  0
  144.4450   71.9050  218.7020 N   0  0  0  0  0  0  0  0  0  0  0  0
  144.9750   70.5860  218.3960 C   0  0  0  0  0  0  0  0  0  0  0  0
  144.5710   69.9880  217.2010 C   0  0  0  0  0  0  0  0  0  0  0  0
  145.0700   68.7290  216.8960 C   0  0  0  0  0  0  0  0  0  0  0  0
  145.9410   68.0570  217.7270 C   0  0  0  0  0  0  0  0  0  0  0  0
  146.3190   68.6870  218.9100 C   0  0  0  0  0  0  0  0  0  0  0  0
  145.8390   69.9440  219.2440 C   0  0  0  0  0  0  0  0  0  0  0  0
  143.2880   71.9730  219.5150 C   0  0  0  0  0  0  0  0  0  0  0  0
  142.9730   70.7600  220.3380 C   0  0  0  0  0  0  0  0  0  0  0  0
  141.4610   70.8140  220.6390 C   0  0  0  0  0  0  0  0  0  0  0  0
  141.1070   72.0920  221.2260 N   0  0  0  0  0  0  0  0  0  0  0  0
  140.0730   72.2540  222.1910 C   0  0  0  0  0  0  0  0  0  0  0  0
  139.8690   73.4230  222.7010 O   0  0  0  0  0  0  0  0  0  0  0  0
  139.1690   71.2080  222.7030 C   0  0  2  0  0  0  0  0  0  0  0  0
  138.0530   71.6610  223.4150 N   0  0  0  0  0  0  0  0  0  0  0  0
  139.9290   70.0790  223.3630 C   0  0  0  0  0  0  0  0  0  0  0  0
  140.1090   70.3830  224.7890 C   0  0  0  0  0  0  0  0  0  0  0  0
  140.8320   71.5260  225.1230 C   0  0  0  0  0  0  0  0  0  0  0  0
  141.0830   71.8880  226.4300 C   0  0  0  0  0  0  0  0  0  0  0  0
  140.6140   71.1060  227.4440 C   0  0  0  0  0  0  0  0  0  0  0  0
  139.9040   69.9810  227.1580 C   0  0  0  0  0  0  0  0  0  0  0  0
  139.6530   69.6230  225.8360 C   0  0  0  0  0  0  0  0  0  0  0  0
  138.8430   68.4000  225.6310 C   0  0  0  0  0  0  0  0  0  0  0  0
  141.7860   73.3370  220.8300 C   0  0  0  0  0  0  0  0  0  0  0  0
  143.2430   73.1330  220.4940 C   0  0  0  0  0  0  0  0  0  0  0  0
  146.8348   74.2607  216.6833 H   0  0  0  0  0  0  0  0  0  0  0  0
  146.0848   73.1899  215.4515 H   0  0  0  0  0  0  0  0  0  0  0  0
  145.7237   74.9495  215.4515 H   0  0  0  0  0  0  0  0  0  0  0  0
  144.3773   74.7928  217.4128 H   0  0  0  0  0  0  0  0  0  0  0  0
  143.9313   73.3336  216.4680 H   0  0  0  0  0  0  0  0  0  0  0  0
  143.8761   70.5005  216.5195 H   0  0  0  0  0  0  0  0  0  0  0  0
  144.7588   68.2496  215.9561 H   0  0  0  0  0  0  0  0  0  0  0  0
  146.3234   67.0594  217.4651 H   0  0  0  0  0  0  0  0  0  0  0  0
  147.0131   68.1765  219.5939 H   0  0  0  0  0  0  0  0  0  0  0  0
  146.1499   70.4231  220.1841 H   0  0  0  0  0  0  0  0  0  0  0  0
  142.5423   72.0933  218.7153 H   0  0  0  0  0  0  0  0  0  0  0  0
  143.2160   69.8462  219.7760 H   0  0  0  0  0  0  0  0  0  0  0  0
  143.5627   70.7457  221.2665 H   0  0  0  0  0  0  0  0  0  0  0  0
  140.9001   70.6776  219.7027 H   0  0  0  0  0  0  0  0  0  0  0  0
  141.2103   70.0133  221.3504 H   0  0  0  0  0  0  0  0  0  0  0  0
  138.6934   70.7790  221.8087 H   0  0  0  0  0  0  0  0  0  0  0  0
  137.6040   70.9340  223.9660 H   0  0  0  0  0  0  0  0  0  0  0  0
  138.0850   72.6180  223.7300 H   0  0  0  0  0  0  0  0  0  0  0  0
  139.3621   69.1424  223.2557 H   0  0  0  0  0  0  0  0  0  0  0  0
  140.9125   69.9670  222.8832 H   0  0  0  0  0  0  0  0  0  0  0  0
  141.2172   72.1638  224.3138 H   0  0  0  0  0  0  0  0  0  0  0  0
  141.6566   72.7998  226.6526 H   0  0  0  0  0  0  0  0  0  0  0  0
  140.8091   71.3839  228.4903 H   0  0  0  0  0  0  0  0  0  0  0  0
  139.5260   69.3505  227.9762 H   0  0  0  0  0  0  0  0  0  0  0  0
  138.5632   67.9776  226.6074 H   0  0  0  0  0  0  0  0  0  0  0  0
  137.9333   68.6530  225.0667 H   0  0  0  0  0  0  0  0  0  0  0  0
  139.4309   67.6611  225.0667 H   0  0  0  0  0  0  0  0  0  0  0  0
  141.2767   73.7481  219.9459 H   0  0  0  0  0  0  0  0  0  0  0  0
  141.7393   74.0243  221.6876 H   0  0  0  0  0  0  0  0  0  0  0  0
  143.6592   74.0400  220.0314 H   0  0  0  0  0  0  0  0  0  0  0  0
  143.8388   72.9236  221.3946 H   0  0  0  0  0  0  0  0  0  0  0  0
  1  2  1  0
  2  3  1  0
  3  4  2  0
  3  5  1  0
  5  6  1  0
  6  7  2  0
  7  8  1  0
  8  9  2  0
  9 10  1  0
 10 11  2  0
  5 12  1  0
 12 13  1  0
 13 14  1  0
 14 15  1  0
 15 16  1  0
 16 17  2  0
 16 18  1  0
 18 19  1  0
 18 20  1  0
 20 21  1  0
 21 22  2  0
 22 23  1  0
 23 24  2  0
 24 25  1  0
 25 26  2  0
 26 27  1  0
 15 28  1  0
 28 29  1  0
 11  6  1  0
 29 12  1  0
 26 21  1  0
  1 30  1  0
  1 31  1  0
  1 32  1  0
  2 33  1  0
  2 34  1  0
  7 35  1  0
  8 36  1  0
  9 37  1  0
 10 38  1  0
 11 39  1  0
 12 40  1  0
 13 41  1  0
 13 42  1  0
 14 43  1  0
 14 44  1  0
 18 45  1  6
 19 46  1  0
 19 47  1  0
 20 48  1  0
 20 49  1  0
 22 50  1  0
 23 51  1  0
 24 52  1  0
 25 53  1  0
 27 54  1  0
 27 55  1  0
 27 56  1  0
 28 57  1  0
 28 58  1  0
 29 59  1  0
 29 60  1  0
M  END
>  <smiles>  (34) 
CCC(=O)N(c1ccccc1)C1CCN(C(=O)[C@H](N)Cc2ccccc2C)CC1

>  <score_type>  (34) 
oracle

>  <origin>  (34) 
autodockgpu

>  <m_score__min__energy>  (34) 
-7.6100000000000003

>  <m_primary>  (34) 
energy

>  <rmsd>  (34) 
8.531096120829606

>  <m_score__min__rmsd>  (34) 
8.531096120829606

>  <meeko>  (34) 
{"free_energy": -6.85, "intermolecular_energy": -9.24, "internal_energy": -2.29, "cluster_size": 5, "cluster_id": 2, "rank_in_cluster": 5}

>  <energy>  (34) 
-6.7

>  <cluster_rmsd>  (34) 
0.0

>  <cluster>  (34) 
6

$$$$

     RDKit          3D

 60 62  0  0  0  0  0  0  0  0999 V2000
  140.4490   71.9130  222.5330 C   0  0  0  0  0  0  0  0  0  0  0  0
  141.1110   72.3950  221.2380 C   0  0  0  0  0  0  0  0  0  0  0  0
  141.1490   73.8660  221.2300 C   0  0  0  0  0  0  0  0  0  0  0  0
  140.3410   74.4660  222.0020 O   0  0  0  0  0  0  0  0  0  0  0  0
  141.9980   74.6780  220.4470 N   0  0  0  0  0  0  0  0  0  0  0  0
  143.2080   74.0200  219.9820 C   0  0  0  0  0  0  0  0  0  0  0  0
  144.3290   74.0670  220.8120 C   0  0  0  0  0  0  0  0  0  0  0  0
  145.4920   73.4420  220.3800 C   0  0  0  0  0  0  0  0  0  0  0  0
  145.5740   72.7860  219.1700 C   0  0  0  0  0  0  0  0  0  0  0  0
  144.4330   72.7630  218.3710 C   0  0  0  0  0  0  0  0  0  0  0  0
  143.2570   73.3760  218.7730 C   0  0  0  0  0  0  0  0  0  0  0  0
  141.8010   76.0290  220.0720 C   0  0  0  0  0  0  0  0  0  0  0  0
  141.2370   76.9410  221.1190 C   0  0  0  0  0  0  0  0  0  0  0  0
  140.5760   78.1150  220.3690 C   0  0  0  0  0  0  0  0  0  0  0  0
  141.5140   78.7150  219.4390 N   0  0  0  0  0  0  0  0  0  0  0  0
  141.5240   80.1020  219.1190 C   0  0  0  0  0  0  0  0  0  0  0  0
  142.4360   80.5540  218.3230 O   0  0  0  0  0  0  0  0  0  0  0  0
  140.5840   81.1290  219.6030 C   0  0  2  0  0  0  0  0  0  0  0  0
  140.0380   81.9660  218.6240 N   0  0  0  0  0  0  0  0  0  0  0  0
  141.1110   81.8430  220.8270 C   0  0  0  0  0  0  0  0  0  0  0  0
  141.2840   80.8760  221.9200 C   0  0  0  0  0  0  0  0  0  0  0  0
  142.5620   80.3690  222.1410 C   0  0  0  0  0  0  0  0  0  0  0  0
  142.8290   79.4360  223.1220 C   0  0  0  0  0  0  0  0  0  0  0  0
  141.8130   78.9840  223.9110 C   0  0  0  0  0  0  0  0  0  0  0  0
  140.5500   79.4570  223.7260 C   0  0  0  0  0  0  0  0  0  0  0  0
  140.2890   80.3990  222.7340 C   0  0  0  0  0  0  0  0  0  0  0  0
  138.8900   80.8740  222.6350 C   0  0  0  0  0  0  0  0  0  0  0  0
  142.5170   77.9060  218.7270 C   0  0  0  0  0  0  0  0  0  0  0  0
  143.0310   76.7480  219.5460 C   0  0  0  0  0  0  0  0  0  0  0  0
  140.9992   72.3136  223.3972 H   0  0  0  0  0  0  0  0  0  0  0  0
  139.4076   72.2658  222.5658 H   0  0  0  0  0  0  0  0  0  0  0  0
  140.4649   70.8136  222.5658 H   0  0  0  0  0  0  0  0  0  0  0  0
  142.1362   72.0005  221.1804 H   0  0  0  0  0  0  0  0  0  0  0  0
  140.5335   72.0364  220.3732 H   0  0  0  0  0  0  0  0  0  0  0  0
  144.2926   74.5848  221.7818 H   0  0  0  0  0  0  0  0  0  0  0  0
  146.3808   73.4716  221.0275 H   0  0  0  0  0  0  0  0  0  0  0  0
  146.5060   72.2988  218.8475 H   0  0  0  0  0  0  0  0  0  0  0  0
  144.4663   72.2471  217.4001 H   0  0  0  0  0  0  0  0  0  0  0  0
  142.3681   73.3460  218.1257 H   0  0  0  0  0  0  0  0  0  0  0  0
  141.0612   75.8640  219.2748 H   0  0  0  0  0  0  0  0  0  0  0  0
  140.4891   76.4078  221.7242 H   0  0  0  0  0  0  0  0  0  0  0  0
  142.0233   77.2975  221.8007 H   0  0  0  0  0  0  0  0  0  0  0  0
  139.7023   77.7438  219.8133 H   0  0  0  0  0  0  0  0  0  0  0  0
  140.2645   78.8749  221.1007 H   0  0  0  0  0  0  0  0  0  0  0  0
  139.6941   80.5709  219.9293 H   0  0  0  0  0  0  0  0  0  0  0  0
  140.5990   82.0160  217.7780 H   0  0  0  0  0  0  0  0  0  0  0  0
  139.0320   82.0180  218.5940 H   0  0  0  0  0  0  0  0  0  0  0  0
  142.0797   82.3081  220.5918 H   0  0  0  0  0  0  0  0  0  0  0  0
  140.3966   82.6209  221.1345 H   0  0  0  0  0  0  0  0  0  0  0  0
  143.3895   80.7256  221.5101 H   0  0  0  0  0  0  0  0  0  0  0  0
  143.8527   79.0601  223.2662 H   0  0  0  0  0  0  0  0  0  0  0  0
  142.0134   78.2390  224.6951 H   0  0  0  0  0  0  0  0  0  0  0  0
  139.7309   79.0931  224.3637 H   0  0  0  0  0  0  0  0  0  0  0  0
  138.4779   81.0139  223.6453 H   0  0  0  0  0  0  0  0  0  0  0  0
  138.8652   81.8309  222.0931 H   0  0  0  0  0  0  0  0  0  0  0  0
  138.2876   80.1300  222.0931 H   0  0  0  0  0  0  0  0  0  0  0  0
  142.0596   77.5097  217.8085 H   0  0  0  0  0  0  0  0  0  0  0  0
  143.3737   78.5610  218.5102 H   0  0  0  0  0  0  0  0  0  0  0  0
  143.6298   76.0718  218.9182 H   0  0  0  0  0  0  0  0  0  0  0  0
  143.6790   77.0907  220.3662 H   0  0  0  0  0  0  0  0  0  0  0  0
  1  2  1  0
  2  3  1  0
  3  4  2  0
  3  5  1  0
  5  6  1  0
  6  7  2  0
  7  8  1  0
  8  9  2  0
  9 10  1  0
 10 11  2  0
  5 12  1  0
 12 13  1  0
 13 14  1  0
 14 15  1  0
 15 16  1  0
 16 17  2  0
 16 18  1  0
 18 19  1  0
 18 20  1  0
 20 21  1  0
 21 22  2  0
 22 23  1  0
 23 24  2  0
 24 25  1  0
 25 26  2  0
 26 27  1  0
 15 28  1  0
 28 29  1  0
 11  6  1  0
 29 12  1  0
 26 21  1  0
  1 30  1  0
  1 31  1  0
  1 32  1  0
  2 33  1  0
  2 34  1  0
  7 35  1  0
  8 36  1  0
  9 37  1  0
 10 38  1  0
 11 39  1  0
 12 40  1  0
 13 41  1  0
 13 42  1  0
 14 43  1  0
 14 44  1  0
 18 45  1  1
 19 46  1  0
 19 47  1  0
 20 48  1  0
 20 49  1  0
 22 50  1  0
 23 51  1  0
 24 52  1  0
 25 53  1  0
 27 54  1  0
 27 55  1  0
 27 56  1  0
 28 57  1  0
 28 58  1  0
 29 59  1  0
 29 60  1  0
M  END
>  <smiles>  (35) 
CCC(=O)N(c1ccccc1)C1CCN(C(=O)[C@H](N)Cc2ccccc2C)CC1

>  <score_type>  (35) 
oracle

>  <origin>  (35) 
autodockgpu

>  <m_score__min__energy>  (35) 
-7.6100000000000003

>  <m_primary>  (35) 
energy

>  <rmsd>  (35) 
5.744019732959233

>  <m_score__min__rmsd>  (35) 
5.744019732959233

>  <meeko>  (35) 
{"free_energy": -6.66, "intermolecular_energy": -9.04, "internal_energy": -2.57, "cluster_size": 15, "cluster_id": 6, "rank_in_cluster": 5}

>  <energy>  (35) 
-6.7

>  <cluster_rmsd>  (35) 
0.07

>  <cluster>  (35) 
6

$$$$

     RDKit          3D

 60 62  0  0  0  0  0  0  0  0999 V2000
  146.3280   73.0480  221.6650 C   0  0  0  0  0  0  0  0  0  0  0  0
  146.1090   73.9630  220.4550 C   0  0  0  0  0  0  0  0  0  0  0  0
  145.6920   73.1510  219.3010 C   0  0  0  0  0  0  0  0  0  0  0  0
  146.3250   73.3260  218.2150 O   0  0  0  0  0  0  0  0  0  0  0  0
  144.6550   72.1930  219.2820 N   0  0  0  0  0  0  0  0  0  0  0  0
  144.9760   70.9650  218.5730 C   0  0  0  0  0  0  0  0  0  0  0  0
  145.7170   69.9990  219.2560 C   0  0  0  0  0  0  0  0  0  0  0  0
  146.0310   68.8210  218.5910 C   0  0  0  0  0  0  0  0  0  0  0  0
  145.6390   68.5780  217.2920 C   0  0  0  0  0  0  0  0  0  0  0  0
  144.9010   69.5670  216.6460 C   0  0  0  0  0  0  0  0  0  0  0  0
  144.5720   70.7540  217.2810 C   0  0  0  0  0  0  0  0  0  0  0  0
  143.3700   72.2950  219.8670 C   0  0  0  0  0  0  0  0  0  0  0  0
  142.8690   71.0890  220.6020 C   0  0  0  0  0  0  0  0  0  0  0  0
  141.3300   71.1920  220.6190 C   0  0  0  0  0  0  0  0  0  0  0  0
  140.9150   72.4770  221.1470 N   0  0  0  0  0  0  0  0  0  0  0  0
  139.7260   72.6680  221.9060 C   0  0  0  0  0  0  0  0  0  0  0  0
  139.4690   73.8400  222.3850 O   0  0  0  0  0  0  0  0  0  0  0  0
  138.7100   71.6500  222.2280 C   0  0  2  0  0  0  0  0  0  0  0  0
  137.6020   72.1020  222.9550 N   0  0  0  0  0  0  0  0  0  0  0  0
  139.3340   70.3750  222.7500 C   0  0  0  0  0  0  0  0  0  0  0  0
  139.6740   70.5440  224.1690 C   0  0  0  0  0  0  0  0  0  0  0  0
  140.6670   71.4660  224.4930 C   0  0  0  0  0  0  0  0  0  0  0  0
  141.0820   71.6820  225.7900 C   0  0  0  0  0  0  0  0  0  0  0  0
  140.5090   70.9730  226.8040 C   0  0  0  0  0  0  0  0  0  0  0  0
  139.5360   70.0640  226.5280 C   0  0  0  0  0  0  0  0  0  0  0  0
  139.1210   69.8520  225.2150 C   0  0  0  0  0  0  0  0  0  0  0  0
  138.0330   68.8650  225.0230 C   0  0  0  0  0  0  0  0  0  0  0  0
  141.6960   73.7010  220.9000 C   0  0  0  0  0  0  0  0  0  0  0  0
  143.1820   73.4490  220.8360 C   0  0  0  0  0  0  0  0  0  0  0  0
  146.1898   73.6253  222.5911 H   0  0  0  0  0  0  0  0  0  0  0  0
  145.6022   72.2219  221.6362 H   0  0  0  0  0  0  0  0  0  0  0  0
  147.3492   72.6401  221.6362 H   0  0  0  0  0  0  0  0  0  0  0  0
  145.3261   74.6996  220.6882 H   0  0  0  0  0  0  0  0  0  0  0  0
  147.0450   74.4893  220.2165 H   0  0  0  0  0  0  0  0  0  0  0  0
  146.0434   70.1664  220.2930 H   0  0  0  0  0  0  0  0  0  0  0  0
  146.6142   68.0533  219.1206 H   0  0  0  0  0  0  0  0  0  0  0  0
  145.8994   67.6376  216.7842 H   0  0  0  0  0  0  0  0  0  0  0  0
  144.5722   69.4023  215.6093 H   0  0  0  0  0  0  0  0  0  0  0  0
  143.9900   71.5222  216.7509 H   0  0  0  0  0  0  0  0  0  0  0  0
  142.7901   72.4458  218.9445 H   0  0  0  0  0  0  0  0  0  0  0  0
  143.1824   70.1710  220.0834 H   0  0  0  0  0  0  0  0  0  0  0  0
  143.2755   71.0493  221.6234 H   0  0  0  0  0  0  0  0  0  0  0  0
  140.9480   71.0811  219.5934 H   0  0  0  0  0  0  0  0  0  0  0  0
  140.9262   70.3953  221.2611 H   0  0  0  0  0  0  0  0  0  0  0  0
  138.2462   71.3954  221.2636 H   0  0  0  0  0  0  0  0  0  0  0  0
  137.7410   73.0190  223.3720 H   0  0  0  0  0  0  0  0  0  0  0  0
  136.6990   71.8050  222.6210 H   0  0  0  0  0  0  0  0  0  0  0  0
  138.6203   69.5452  222.6399 H   0  0  0  0  0  0  0  0  0  0  0  0
  140.2463   70.1511  222.1776 H   0  0  0  0  0  0  0  0  0  0  0  0
  141.1376   72.0434  223.6836 H   0  0  0  0  0  0  0  0  0  0  0  0
  141.8688   72.4201  226.0049 H   0  0  0  0  0  0  0  0  0  0  0  0
  140.8330   71.1359  227.8425 H   0  0  0  0  0  0  0  0  0  0  0  0
  139.0737   69.4926  227.3464 H   0  0  0  0  0  0  0  0  0  0  0  0
  137.6642   68.5304  226.0038 H   0  0  0  0  0  0  0  0  0  0  0  0
  137.2100   69.3311  224.4613 H   0  0  0  0  0  0  0  0  0  0  0  0
  138.4170   68.0007  224.4613 H   0  0  0  0  0  0  0  0  0  0  0  0
  141.3727   74.1360  219.9428 H   0  0  0  0  0  0  0  0  0  0  0  0
  141.5139   74.3833  221.7434 H   0  0  0  0  0  0  0  0  0  0  0  0
  143.7060   74.3443  220.4702 H   0  0  0  0  0  0  0  0  0  0  0  0
  143.5935   73.2127  221.8284 H   0  0  0  0  0  0  0  0  0  0  0  0
  1  2  1  0
  2  3  1  0
  3  4  2  0
  3  5  1  0
  5  6  1  0
  6  7  2  0
  7  8  1  0
  8  9  2  0
  9 10  1  0
 10 11  2  0
  5 12  1  0
 12 13  1  0
 13 14  1  0
 14 15  1  0
 15 16  1  0
 16 17  2  0
 16 18  1  0
 18 19  1  0
 18 20  1  0
 20 21  1  0
 21 22  2  0
 22 23  1  0
 23 24  2  0
 24 25  1  0
 25 26  2  0
 26 27  1  0
 15 28  1  0
 28 29  1  0
 11  6  1  0
 29 12  1  0
 26 21  1  0
  1 30  1  0
  1 31  1  0
  1 32  1  0
  2 33  1  0
  2 34  1  0
  7 35  1  0
  8 36  1  0
  9 37  1  0
 10 38  1  0
 11 39  1  0
 12 40  1  0
 13 41  1  0
 13 42  1  0
 14 43  1  0
 14 44  1  0
 18 45  1  6
 19 46  1  0
 19 47  1  0
 20 48  1  0
 20 49  1  0
 22 50  1  0
 23 51  1  0
 24 52  1  0
 25 53  1  0
 27 54  1  0
 27 55  1  0
 27 56  1  0
 28 57  1  0
 28 58  1  0
 29 59  1  0
 29 60  1  0
M  END
>  <smiles>  (36) 
CCC(=O)N(c1ccccc1)C1CCN(C(=O)[C@H](N)Cc2ccccc2C)CC1

>  <score_type>  (36) 
oracle

>  <origin>  (36) 
autodockgpu

>  <m_score__min__energy>  (36) 
-7.6100000000000003

>  <m_primary>  (36) 
energy

>  <rmsd>  (36) 
8.124834212809851

>  <m_score__min__rmsd>  (36) 
8.124834212809851

>  <meeko>  (36) 
{"free_energy": -7.04, "intermolecular_energy": -9.43, "internal_energy": -2.23, "cluster_size": 5, "cluster_id": 2, "rank_in_cluster": 3}

>  <energy>  (36) 
-6.7

>  <cluster_rmsd>  (36) 
0.07

>  <cluster>  (36) 
6

$$$$

     RDKit          3D

 60 62  0  0  0  0  0  0  0  0999 V2000
  141.8100   76.9410  220.4020 C   0  0  0  0  0  0  0  0  0  0  0  0
  142.2440   76.2740  219.0920 C   0  0  0  0  0  0  0  0  0  0  0  0
  141.6940   74.9100  219.0360 C   0  0  0  0  0  0  0  0  0  0  0  0
  140.8780   74.6560  218.0990 O   0  0  0  0  0  0  0  0  0  0  0  0
  141.9860   73.8520  219.9250 N   0  0  0  0  0  0  0  0  0  0  0  0
  143.3930   73.4970  220.0050 C   0  0  0  0  0  0  0  0  0  0  0  0
  143.8340   72.4210  219.2310 C   0  0  0  0  0  0  0  0  0  0  0  0
  145.1760   72.0710  219.2980 C   0  0  0  0  0  0  0  0  0  0  0  0
  146.0770   72.7430  220.0950 C   0  0  0  0  0  0  0  0  0  0  0  0
  145.5980   73.8100  220.8520 C   0  0  0  0  0  0  0  0  0  0  0  0
  144.2650   74.1850  220.8080 C   0  0  0  0  0  0  0  0  0  0  0  0
  141.0790   73.1220  220.7310 C   0  0  0  0  0  0  0  0  0  0  0  0
  141.6680   72.0630  221.6130 C   0  0  0  0  0  0  0  0  0  0  0  0
  140.5370   71.0570  221.9070 C   0  0  0  0  0  0  0  0  0  0  0  0
  139.3710   71.7450  222.4290 N   0  0  0  0  0  0  0  0  0  0  0  0
  138.4820   71.1730  223.3820 C   0  0  0  0  0  0  0  0  0  0  0  0
  137.5030   71.8850  223.8320 O   0  0  0  0  0  0  0  0  0  0  0  0
  138.5440   69.8110  223.9430 C   0  0  2  0  0  0  0  0  0  0  0  0
  137.5450   69.4860  224.8680 N   0  0  0  0  0  0  0  0  0  0  0  0
  139.9470   69.4390  224.3680 C   0  0  0  0  0  0  0  0  0  0  0  0
  140.2560   70.0870  225.6500 C   0  0  0  0  0  0  0  0  0  0  0  0
  140.7200   71.4000  225.6180 C   0  0  0  0  0  0  0  0  0  0  0  0
  141.0650   72.0910  226.7610 C   0  0  0  0  0  0  0  0  0  0  0  0
  140.9540   71.4780  227.9750 C   0  0  0  0  0  0  0  0  0  0  0  0
  140.5030   70.1960  228.0460 C   0  0  0  0  0  0  0  0  0  0  0  0
  140.1550   69.5060  226.8880 C   0  0  0  0  0  0  0  0  0  0  0  0
  139.6450   68.1280  227.0750 C   0  0  0  0  0  0  0  0  0  0  0  0
  139.0050   73.0960  221.9720 C   0  0  0  0  0  0  0  0  0  0  0  0
  140.2040   73.9540  221.6500 C   0  0  0  0  0  0  0  0  0  0  0  0
  142.1896   76.3576  221.2538 H   0  0  0  0  0  0  0  0  0  0  0  0
  142.2173   77.9619  220.4462 H   0  0  0  0  0  0  0  0  0  0  0  0
  140.7117   76.9822  220.4462 H   0  0  0  0  0  0  0  0  0  0  0  0
  141.8665   76.8578  218.2396 H   0  0  0  0  0  0  0  0  0  0  0  0
  143.3422   76.2310  219.0462 H   0  0  0  0  0  0  0  0  0  0  0  0
  143.1370   71.8660  218.5859 H   0  0  0  0  0  0  0  0  0  0  0  0
  145.5333   71.2254  218.6920 H   0  0  0  0  0  0  0  0  0  0  0  0
  147.1360   72.4477  220.1322 H   0  0  0  0  0  0  0  0  0  0  0  0
  146.2928   74.3664  221.4982 H   0  0  0  0  0  0  0  0  0  0  0  0
  143.9083   75.0306  221.4144 H   0  0  0  0  0  0  0  0  0  0  0  0
  140.4896   72.6611  219.9247 H   0  0  0  0  0  0  0  0  0  0  0  0
  142.4997   71.5596  221.0984 H   0  0  0  0  0  0  0  0  0  0  0  0
  142.0657   72.4963  222.5426 H   0  0  0  0  0  0  0  0  0  0  0  0
  140.2645   70.5362  220.9772 H   0  0  0  0  0  0  0  0  0  0  0  0
  140.8894   70.3330  222.6565 H   0  0  0  0  0  0  0  0  0  0  0  0
  138.2875   69.1459  223.1053 H   0  0  0  0  0  0  0  0  0  0  0  0
  137.0170   70.2920  225.1910 H   0  0  0  0  0  0  0  0  0  0  0  0
  137.1130   68.5820  224.7570 H   0  0  0  0  0  0  0  0  0  0  0  0
  140.0188   68.3473  224.4818 H   0  0  0  0  0  0  0  0  0  0  0  0
  140.6638   69.7748  223.6041 H   0  0  0  0  0  0  0  0  0  0  0  0
  140.8148   71.9046  224.6452 H   0  0  0  0  0  0  0  0  0  0  0  0
  141.4266   73.1277  226.6943 H   0  0  0  0  0  0  0  0  0  0  0  0
  141.2281   72.0182  228.8932 H   0  0  0  0  0  0  0  0  0  0  0  0
  140.4129   69.7018  229.0246 H   0  0  0  0  0  0  0  0  0  0  0  0
  139.5642   67.9097  228.1501 H   0  0  0  0  0  0  0  0  0  0  0  0
  138.6537   68.0372  226.6069 H   0  0  0  0  0  0  0  0  0  0  0  0
  140.3383   67.4137  226.6069 H   0  0  0  0  0  0  0  0  0  0  0  0
  138.3862   73.0044  221.0672 H   0  0  0  0  0  0  0  0  0  0  0  0
  138.4610   73.5853  222.7934 H   0  0  0  0  0  0  0  0  0  0  0  0
  139.8879   74.8779  221.1436 H   0  0  0  0  0  0  0  0  0  0  0  0
  140.7440   74.2500  222.5614 H   0  0  0  0  0  0  0  0  0  0  0  0
  1  2  1  0
  2  3  1  0
  3  4  2  0
  3  5  1  0
  5  6  1  0
  6  7  2  0
  7  8  1  0
  8  9  2  0
  9 10  1  0
 10 11  2  0
  5 12  1  0
 12 13  1  0
 13 14  1  0
 14 15  1  0
 15 16  1  0
 16 17  2  0
 16 18  1  0
 18 19  1  0
 18 20  1  0
 20 21  1  0
 21 22  2  0
 22 23  1  0
 23 24  2  0
 24 25  1  0
 25 26  2  0
 26 27  1  0
 15 28  1  0
 28 29  1  0
 11  6  1  0
 29 12  1  0
 26 21  1  0
  1 30  1  0
  1 31  1  0
  1 32  1  0
  2 33  1  0
  2 34  1  0
  7 35  1  0
  8 36  1  0
  9 37  1  0
 10 38  1  0
 11 39  1  0
 12 40  1  0
 13 41  1  0
 13 42  1  0
 14 43  1  0
 14 44  1  0
 18 45  1  6
 19 46  1  0
 19 47  1  0
 20 48  1  0
 20 49  1  0
 22 50  1  0
 23 51  1  0
 24 52  1  0
 25 53  1  0
 27 54  1  0
 27 55  1  0
 27 56  1  0
 28 57  1  0
 28 58  1  0
 29 59  1  0
 29 60  1  0
M  END
>  <smiles>  (37) 
CCC(=O)N(c1ccccc1)C1CCN(C(=O)[C@H](N)Cc2ccccc2C)CC1

>  <score_type>  (37) 
oracle

>  <origin>  (37) 
autodockgpu

>  <m_score__min__energy>  (37) 
-7.6100000000000003

>  <m_primary>  (37) 
energy

>  <rmsd>  (37) 
8.871512359757181

>  <m_score__min__rmsd>  (37) 
8.871512359757181

>  <meeko>  (37) 
{"free_energy": -6.61, "intermolecular_energy": -8.99, "internal_energy": -2.48, "cluster_size": 4, "cluster_id": 5, "rank_in_cluster": 4}

>  <energy>  (37) 
-6.68

>  <cluster_rmsd>  (37) 
0.22

>  <cluster>  (37) 
6

$$$$

     RDKit          3D

 60 62  0  0  0  0  0  0  0  0999 V2000
  146.3700   73.1890  221.8690 C   0  0  0  0  0  0  0  0  0  0  0  0
  146.0920   74.1140  220.6780 C   0  0  0  0  0  0  0  0  0  0  0  0
  145.8280   73.2990  219.4820 C   0  0  0  0  0  0  0  0  0  0  0  0
  146.6520   73.4020  218.5220 O   0  0  0  0  0  0  0  0  0  0  0  0
  144.7460   72.4110  219.2950 N   0  0  0  0  0  0  0  0  0  0  0  0
  144.9780   71.3710  218.3070 C   0  0  0  0  0  0  0  0  0  0  0  0
  145.6380   70.2140  218.7270 C   0  0  0  0  0  0  0  0  0  0  0  0
  145.8660   69.2130  217.7930 C   0  0  0  0  0  0  0  0  0  0  0  0
  145.4670   69.3230  216.4770 C   0  0  0  0  0  0  0  0  0  0  0  0
  144.8130   70.4930  216.0980 C   0  0  0  0  0  0  0  0  0  0  0  0
  144.5700   71.5110  217.0060 C   0  0  0  0  0  0  0  0  0  0  0  0
  143.4930   72.4210  219.9540 C   0  0  0  0  0  0  0  0  0  0  0  0
  143.1840   71.2430  220.8270 C   0  0  0  0  0  0  0  0  0  0  0  0
  141.6470   71.1700  220.9380 C   0  0  0  0  0  0  0  0  0  0  0  0
  141.1090   72.4440  221.3740 N   0  0  0  0  0  0  0  0  0  0  0  0
  139.9510   72.5700  222.1910 C   0  0  0  0  0  0  0  0  0  0  0  0
  139.5810   73.7460  222.5770 O   0  0  0  0  0  0  0  0  0  0  0  0
  139.0850   71.4780  222.6710 C   0  0  2  0  0  0  0  0  0  0  0  0
  137.9780   71.8680  223.4350 N   0  0  0  0  0  0  0  0  0  0  0  0
  139.8870   70.3360  223.2530 C   0  0  0  0  0  0  0  0  0  0  0  0
  140.0570   70.5460  224.6970 C   0  0  0  0  0  0  0  0  0  0  0  0
  140.8020   71.6490  225.1090 C   0  0  0  0  0  0  0  0  0  0  0  0
  141.0460   71.9220  226.4390 C   0  0  0  0  0  0  0  0  0  0  0  0
  140.5450   71.0910  227.3970 C   0  0  0  0  0  0  0  0  0  0  0  0
  139.8120   70.0040  227.0340 C   0  0  0  0  0  0  0  0  0  0  0  0
  139.5690   69.7350  225.6890 C   0  0  0  0  0  0  0  0  0  0  0  0
  138.7320   68.5480  225.4000 C   0  0  0  0  0  0  0  0  0  0  0  0
  141.7210   73.7200  220.9650 C   0  0  0  0  0  0  0  0  0  0  0  0
  143.2210   73.6350  220.8240 C   0  0  0  0  0  0  0  0  0  0  0  0
  146.2046   73.7392  222.8070 H   0  0  0  0  0  0  0  0  0  0  0  0
  145.6923   72.3236  221.8272 H   0  0  0  0  0  0  0  0  0  0  0  0
  147.4125   72.8406  221.8272 H   0  0  0  0  0  0  0  0  0  0  0  0
  145.2151   74.7412  220.8964 H   0  0  0  0  0  0  0  0  0  0  0  0
  146.9653   74.7586  220.4998 H   0  0  0  0  0  0  0  0  0  0  0  0
  145.9682   70.0992  219.7700 H   0  0  0  0  0  0  0  0  0  0  0  0
  146.3844   68.2975  218.1142 H   0  0  0  0  0  0  0  0  0  0  0  0
  145.6582   68.5166  215.7537 H   0  0  0  0  0  0  0  0  0  0  0  0
  144.4824   70.6113  215.0556 H   0  0  0  0  0  0  0  0  0  0  0  0
  144.0524   72.4268  216.6844 H   0  0  0  0  0  0  0  0  0  0  0  0
  142.8480   72.4127  219.0630 H   0  0  0  0  0  0  0  0  0  0  0  0
  143.5763   70.3208  220.3735 H   0  0  0  0  0  0  0  0  0  0  0  0
  143.6494   71.3498  221.8180 H   0  0  0  0  0  0  0  0  0  0  0  0
  141.2246   70.9160  219.9546 H   0  0  0  0  0  0  0  0  0  0  0  0
  141.3795   70.3992  221.6758 H   0  0  0  0  0  0  0  0  0  0  0  0
  138.5961   71.0838  221.7679 H   0  0  0  0  0  0  0  0  0  0  0  0
  137.8410   71.2990  224.2660 H   0  0  0  0  0  0  0  0  0  0  0  0
  137.7560   72.8510  223.4270 H   0  0  0  0  0  0  0  0  0  0  0  0
  139.3556   69.3886  223.0799 H   0  0  0  0  0  0  0  0  0  0  0  0
  140.8738   70.2954  222.7687 H   0  0  0  0  0  0  0  0  0  0  0  0
  141.2107   72.3272  224.3455 H   0  0  0  0  0  0  0  0  0  0  0  0
  141.6399   72.8028  226.7244 H   0  0  0  0  0  0  0  0  0  0  0  0
  140.7331   71.2991  228.4607 H   0  0  0  0  0  0  0  0  0  0  0  0
  139.4088   69.3335  227.8072 H   0  0  0  0  0  0  0  0  0  0  0  0
  138.4081   68.0887  226.3456 H   0  0  0  0  0  0  0  0  0  0  0  0
  137.8491   68.8544  224.8199 H   0  0  0  0  0  0  0  0  0  0  0  0
  139.3171   67.8192  224.8199 H   0  0  0  0  0  0  0  0  0  0  0  0
  141.2941   74.0191  219.9964 H   0  0  0  0  0  0  0  0  0  0  0  0
  141.5054   74.4564  221.7532 H   0  0  0  0  0  0  0  0  0  0  0  0
  143.6116   74.5443  220.3438 H   0  0  0  0  0  0  0  0  0  0  0  0
  143.7127   73.5459  221.8039 H   0  0  0  0  0  0  0  0  0  0  0  0
  1  2  1  0
  2  3  1  0
  3  4  2  0
  3  5  1  0
  5  6  1  0
  6  7  2  0
  7  8  1  0
  8  9  2  0
  9 10  1  0
 10 11  2  0
  5 12  1  0
 12 13  1  0
 13 14  1  0
 14 15  1  0
 15 16  1  0
 16 17  2  0
 16 18  1  0
 18 19  1  0
 18 20  1  0
 20 21  1  0
 21 22  2  0
 22 23  1  0
 23 24  2  0
 24 25  1  0
 25 26  2  0
 26 27  1  0
 15 28  1  0
 28 29  1  0
 11  6  1  0
 29 12  1  0
 26 21  1  0
  1 30  1  0
  1 31  1  0
  1 32  1  0
  2 33  1  0
  2 34  1  0
  7 35  1  0
  8 36  1  0
  9 37  1  0
 10 38  1  0
 11 39  1  0
 12 40  1  0
 13 41  1  0
 13 42  1  0
 14 43  1  0
 14 44  1  0
 18 45  1  6
 19 46  1  0
 19 47  1  0
 20 48  1  0
 20 49  1  0
 22 50  1  0
 23 51  1  0
 24 52  1  0
 25 53  1  0
 27 54  1  0
 27 55  1  0
 27 56  1  0
 28 57  1  0
 28 58  1  0
 29 59  1  0
 29 60  1  0
M  END
>  <smiles>  (38) 
CCC(=O)N(c1ccccc1)C1CCN(C(=O)[C@H](N)Cc2ccccc2C)CC1

>  <score_type>  (38) 
oracle

>  <origin>  (38) 
autodockgpu

>  <m_score__min__energy>  (38) 
-7.6100000000000003

>  <m_primary>  (38) 
energy

>  <rmsd>  (38) 
8.257423388547794

>  <m_score__min__rmsd>  (38) 
8.257423388547794

>  <meeko>  (38) 
{"free_energy": -7.19, "intermolecular_energy": -9.58, "internal_energy": -2.13, "cluster_size": 5, "cluster_id": 2, "rank_in_cluster": 2}

>  <energy>  (38) 
-6.66

>  <cluster_rmsd>  (38) 
0.22

>  <cluster>  (38) 
6

$$$$

     RDKit          3D

 60 62  0  0  0  0  0  0  0  0999 V2000
  140.4560   71.9240  222.3540 C   0  0  0  0  0  0  0  0  0  0  0  0
  140.8970   72.5280  221.0160 C   0  0  0  0  0  0  0  0  0  0  0  0
  141.1580   73.9650  221.1940 C   0  0  0  0  0  0  0  0  0  0  0  0
  140.4970   74.5620  222.0970 O   0  0  0  0  0  0  0  0  0  0  0  0
  142.0730   74.7470  220.4560 N   0  0  0  0  0  0  0  0  0  0  0  0
  143.2930   74.0560  220.0740 C   0  0  0  0  0  0  0  0  0  0  0  0
  143.2780   73.3270  218.8840 C   0  0  0  0  0  0  0  0  0  0  0  0
  144.4370   72.6610  218.5060 C   0  0  0  0  0  0  0  0  0  0  0  0
  145.5900   72.6960  219.2630 C   0  0  0  0  0  0  0  0  0  0  0  0
  145.5630   73.4330  220.4440 C   0  0  0  0  0  0  0  0  0  0  0  0
  144.4230   74.1090  220.8480 C   0  0  0  0  0  0  0  0  0  0  0  0
  141.9320   76.0980  220.0550 C   0  0  0  0  0  0  0  0  0  0  0  0
  141.4590   77.0620  221.1010 C   0  0  0  0  0  0  0  0  0  0  0  0
  140.8310   78.2530  220.3480 C   0  0  0  0  0  0  0  0  0  0  0  0
  141.7610   78.7800  219.3680 N   0  0  0  0  0  0  0  0  0  0  0  0
  141.8310   80.1570  219.0130 C   0  0  0  0  0  0  0  0  0  0  0  0
  142.7320   80.5420  218.1710 O   0  0  0  0  0  0  0  0  0  0  0  0
  140.9650   81.2430  219.5080 C   0  0  2  0  0  0  0  0  0  0  0  0
  140.6100   82.2170  218.5670 N   0  0  0  0  0  0  0  0  0  0  0  0
  141.4460   81.7870  220.8340 C   0  0  0  0  0  0  0  0  0  0  0  0
  140.9210   80.9530  221.9230 C   0  0  0  0  0  0  0  0  0  0  0  0
  139.5380   80.8760  222.0730 C   0  0  0  0  0  0  0  0  0  0  0  0
  138.9420   80.1430  223.0780 C   0  0  0  0  0  0  0  0  0  0  0  0
  139.7240   79.4640  223.9660 C   0  0  0  0  0  0  0  0  0  0  0  0
  141.0780   79.5140  223.8510 C   0  0  0  0  0  0  0  0  0  0  0  0
  141.6730   80.2550  222.8330 C   0  0  0  0  0  0  0  0  0  0  0  0
  143.1520   80.2180  222.7740 C   0  0  0  0  0  0  0  0  0  0  0  0
  142.6910   77.9030  218.6370 C   0  0  0  0  0  0  0  0  0  0  0  0
  143.1760   76.7380  219.4650 C   0  0  0  0  0  0  0  0  0  0  0  0
  140.8843   72.5106  223.1801 H   0  0  0  0  0  0  0  0  0  0  0  0
  139.3582   71.9436  222.4211 H   0  0  0  0  0  0  0  0  0  0  0  0
  140.8089   70.8843  222.4211 H   0  0  0  0  0  0  0  0  0  0  0  0
  141.8141   72.0278  220.6715 H   0  0  0  0  0  0  0  0  0  0  0  0
  140.1024   72.3875  220.2684 H   0  0  0  0  0  0  0  0  0  0  0  0
  142.3721   73.2810  218.2617 H   0  0  0  0  0  0  0  0  0  0  0  0
  144.4355   72.0847  217.5690 H   0  0  0  0  0  0  0  0  0  0  0  0
  146.4972   72.1613  218.9452 H   0  0  0  0  0  0  0  0  0  0  0  0
  146.4664   73.4796  221.0699 H   0  0  0  0  0  0  0  0  0  0  0  0
  144.4248   74.6852  221.7850 H   0  0  0  0  0  0  0  0  0  0  0  0
  141.1537   75.9552  219.2909 H   0  0  0  0  0  0  0  0  0  0  0  0
  140.7089   76.5831  221.7475 H   0  0  0  0  0  0  0  0  0  0  0  0
  142.2894   77.3909  221.7431 H   0  0  0  0  0  0  0  0  0  0  0  0
  139.9173   77.9168  219.8361 H   0  0  0  0  0  0  0  0  0  0  0  0
  140.5896   79.0451  221.0721 H   0  0  0  0  0  0  0  0  0  0  0  0
  139.9926   80.7671  219.7030 H   0  0  0  0  0  0  0  0  0  0  0  0
  141.2200   82.2330  217.7540 H   0  0  0  0  0  0  0  0  0  0  0  0
  139.6270   82.4270  218.4940 H   0  0  0  0  0  0  0  0  0  0  0  0
  142.5456   81.7736  220.8590 H   0  0  0  0  0  0  0  0  0  0  0  0
  141.0897   82.8203  220.9581 H   0  0  0  0  0  0  0  0  0  0  0  0
  138.8974   81.4201  221.3634 H   0  0  0  0  0  0  0  0  0  0  0  0
  137.8459   80.1063  223.1627 H   0  0  0  0  0  0  0  0  0  0  0  0
  139.2604   78.8776  224.7730 H   0  0  0  0  0  0  0  0  0  0  0  0
  141.7076   78.9654  224.5670 H   0  0  0  0  0  0  0  0  0  0  0  0
  143.5596   80.2078  223.7957 H   0  0  0  0  0  0  0  0  0  0  0  0
  143.4751   79.3115  222.2413 H   0  0  0  0  0  0  0  0  0  0  0  0
  143.5201   81.1072  222.2413 H   0  0  0  0  0  0  0  0  0  0  0  0
  142.1769   77.5108  217.7471 H   0  0  0  0  0  0  0  0  0  0  0  0
  143.5712   78.5062  218.3698 H   0  0  0  0  0  0  0  0  0  0  0  0
  143.7135   76.0166  218.8320 H   0  0  0  0  0  0  0  0  0  0  0  0
  143.8728   77.0645  220.2510 H   0  0  0  0  0  0  0  0  0  0  0  0
  1  2  1  0
  2  3  1  0
  3  4  2  0
  3  5  1  0
  5  6  1  0
  6  7  2  0
  7  8  1  0
  8  9  2  0
  9 10  1  0
 10 11  2  0
  5 12  1  0
 12 13  1  0
 13 14  1  0
 14 15  1  0
 15 16  1  0
 16 17  2  0
 16 18  1  0
 18 19  1  0
 18 20  1  0
 20 21  1  0
 21 22  2  0
 22 23  1  0
 23 24  2  0
 24 25  1  0
 25 26  2  0
 26 27  1  0
 15 28  1  0
 28 29  1  0
 11  6  1  0
 29 12  1  0
 26 21  1  0
  1 30  1  0
  1 31  1  0
  1 32  1  0
  2 33  1  0
  2 34  1  0
  7 35  1  0
  8 36  1  0
  9 37  1  0
 10 38  1  0
 11 39  1  0
 12 40  1  0
 13 41  1  0
 13 42  1  0
 14 43  1  0
 14 44  1  0
 18 45  1  1
 19 46  1  0
 19 47  1  0
 20 48  1  0
 20 49  1  0
 22 50  1  0
 23 51  1  0
 24 52  1  0
 25 53  1  0
 27 54  1  0
 27 55  1  0
 27 56  1  0
 28 57  1  0
 28 58  1  0
 29 59  1  0
 29 60  1  0
M  END
>  <smiles>  (39) 
CCC(=O)N(c1ccccc1)C1CCN(C(=O)[C@H](N)Cc2ccccc2C)CC1

>  <score_type>  (39) 
oracle

>  <origin>  (39) 
autodockgpu

>  <m_score__min__energy>  (39) 
-7.6100000000000003

>  <m_primary>  (39) 
energy

>  <rmsd>  (39) 
5.730474199656592

>  <m_score__min__rmsd>  (39) 
5.730474199656592

>  <meeko>  (39) 
{"free_energy": -6.47, "intermolecular_energy": -8.86, "internal_energy": -2.57, "cluster_size": 15, "cluster_id": 6, "rank_in_cluster": 9}

>  <energy>  (39) 
-6.63

>  <cluster_rmsd>  (39) 
0.22

>  <cluster>  (39) 
6

$$$$

     RDKit          3D

 60 62  0  0  0  0  0  0  0  0999 V2000
  142.9450   80.8540  224.2190 C   0  0  0  0  0  0  0  0  0  0  0  0
  142.9860   80.6940  222.6960 C   0  0  0  0  0  0  0  0  0  0  0  0
  141.6370   80.9050  222.1490 C   0  0  0  0  0  0  0  0  0  0  0  0
  141.4470   81.9660  221.4790 O   0  0  0  0  0  0  0  0  0  0  0  0
  140.5290   80.0410  222.2950 N   0  0  0  0  0  0  0  0  0  0  0  0
  139.3480   80.6620  222.8720 C   0  0  0  0  0  0  0  0  0  0  0  0
  138.6530   81.5840  222.0870 C   0  0  0  0  0  0  0  0  0  0  0  0
  137.5230   82.1850  222.6250 C   0  0  0  0  0  0  0  0  0  0  0  0
  137.0700   81.9030  223.8970 C   0  0  0  0  0  0  0  0  0  0  0  0
  137.7920   80.9790  224.6480 C   0  0  0  0  0  0  0  0  0  0  0  0
  138.9240   80.3610  224.1400 C   0  0  0  0  0  0  0  0  0  0  0  0
  140.4450   78.6720  221.9460 C   0  0  0  0  0  0  0  0  0  0  0  0
  141.0160   78.2830  220.6150 C   0  0  0  0  0  0  0  0  0  0  0  0
  140.3160   76.9710  220.2040 C   0  0  0  0  0  0  0  0  0  0  0  0
  140.4300   75.9830  221.2600 N   0  0  0  0  0  0  0  0  0  0  0  0
  140.5320   74.5840  221.0190 C   0  0  0  0  0  0  0  0  0  0  0  0
  140.6890   73.7860  222.0220 O   0  0  0  0  0  0  0  0  0  0  0  0
  140.4800   73.9060  219.7110 C   0  0  2  0  0  0  0  0  0  0  0  0
  140.1830   72.5380  219.7450 N   0  0  0  0  0  0  0  0  0  0  0  0
  141.6550   74.2780  218.8350 C   0  0  0  0  0  0  0  0  0  0  0  0
  142.9060   73.9750  219.5430 C   0  0  0  0  0  0  0  0  0  0  0  0
  143.1820   72.6400  219.8300 C   0  0  0  0  0  0  0  0  0  0  0  0
  144.3140   72.2480  220.5140 C   0  0  0  0  0  0  0  0  0  0  0  0
  145.2060   73.1930  220.9310 C   0  0  0  0  0  0  0  0  0  0  0  0
  144.9720   74.5070  220.6680 C   0  0  0  0  0  0  0  0  0  0  0  0
  143.8270   74.8940  219.9760 C   0  0  0  0  0  0  0  0  0  0  0  0
  143.6810   76.3440  219.7110 C   0  0  0  0  0  0  0  0  0  0  0  0
  140.4140   76.3690  222.6810 C   0  0  0  0  0  0  0  0  0  0  0  0
  141.0680   77.7050  222.9370 C   0  0  0  0  0  0  0  0  0  0  0  0
  143.1911   79.8935  224.6953 H   0  0  0  0  0  0  0  0  0  0  0  0
  143.6773   81.6146  224.5276 H   0  0  0  0  0  0  0  0  0  0  0  0
  141.9372   81.1688  224.5276 H   0  0  0  0  0  0  0  0  0  0  0  0
  143.6766   81.4350  222.2671 H   0  0  0  0  0  0  0  0  0  0  0  0
  143.3331   79.6819  222.4408 H   0  0  0  0  0  0  0  0  0  0  0  0
  138.9918   81.8278  221.0693 H   0  0  0  0  0  0  0  0  0  0  0  0
  136.9685   82.9128  222.0144 H   0  0  0  0  0  0  0  0  0  0  0  0
  136.1713   82.3902  224.3032 H   0  0  0  0  0  0  0  0  0  0  0  0
  137.4567   80.7342  225.6666 H   0  0  0  0  0  0  0  0  0  0  0  0
  139.4786   79.6335  224.7509 H   0  0  0  0  0  0  0  0  0  0  0  0
  139.3489   78.5805  221.9309 H   0  0  0  0  0  0  0  0  0  0  0  0
  140.8166   79.0690  219.8717 H   0  0  0  0  0  0  0  0  0  0  0  0
  142.1064   78.1504  220.6736 H   0  0  0  0  0  0  0  0  0  0  0  0
  139.2522   77.1733  220.0106 H   0  0  0  0  0  0  0  0  0  0  0  0
  140.7982   76.5793  219.2962 H   0  0  0  0  0  0  0  0  0  0  0  0
  139.5849   74.3101  219.2156 H   0  0  0  0  0  0  0  0  0  0  0  0
  140.4770   72.0410  218.9080 H   0  0  0  0  0  0  0  0  0  0  0  0
  140.2020   72.1010  220.6530 H   0  0  0  0  0  0  0  0  0  0  0  0
  141.6132   73.7002  217.8999 H   0  0  0  0  0  0  0  0  0  0  0  0
  141.6149   75.3525  218.6029 H   0  0  0  0  0  0  0  0  0  0  0  0
  142.4704   71.8694  219.4987 H   0  0  0  0  0  0  0  0  0  0  0  0
  144.4961   71.1832  220.7215 H   0  0  0  0  0  0  0  0  0  0  0  0
  146.1118   72.8929  221.4783 H   0  0  0  0  0  0  0  0  0  0  0  0
  145.6914   75.2684  221.0039 H   0  0  0  0  0  0  0  0  0  0  0  0
  143.6263   76.8875  220.6658 H   0  0  0  0  0  0  0  0  0  0  0  0
  144.5478   76.7006  219.1352 H   0  0  0  0  0  0  0  0  0  0  0  0
  142.7605   76.5207  219.1352 H   0  0  0  0  0  0  0  0  0  0  0  0
  139.3683   76.4203  223.0185 H   0  0  0  0  0  0  0  0  0  0  0  0
  140.9875   75.6107  223.2342 H   0  0  0  0  0  0  0  0  0  0  0  0
  140.8723   78.0352  223.9679 H   0  0  0  0  0  0  0  0  0  0  0  0
  142.1597   77.6496  222.8142 H   0  0  0  0  0  0  0  0  0  0  0  0
  1  2  1  0
  2  3  1  0
  3  4  2  0
  3  5  1  0
  5  6  1  0
  6  7  2  0
  7  8  1  0
  8  9  2  0
  9 10  1  0
 10 11  2  0
  5 12  1  0
 12 13  1  0
 13 14  1  0
 14 15  1  0
 15 16  1  0
 16 17  2  0
 16 18  1  0
 18 19  1  0
 18 20  1  0
 20 21  1  0
 21 22  2  0
 22 23  1  0
 23 24  2  0
 24 25  1  0
 25 26  2  0
 26 27  1  0
 15 28  1  0
 28 29  1  0
 11  6  1  0
 29 12  1  0
 26 21  1  0
  1 30  1  0
  1 31  1  0
  1 32  1  0
  2 33  1  0
  2 34  1  0
  7 35  1  0
  8 36  1  0
  9 37  1  0
 10 38  1  0
 11 39  1  0
 12 40  1  0
 13 41  1  0
 13 42  1  0
 14 43  1  0
 14 44  1  0
 18 45  1  6
 19 46  1  0
 19 47  1  0
 20 48  1  0
 20 49  1  0
 22 50  1  0
 23 51  1  0
 24 52  1  0
 25 53  1  0
 27 54  1  0
 27 55  1  0
 27 56  1  0
 28 57  1  0
 28 58  1  0
 29 59  1  0
 29 60  1  0
M  END
>  <smiles>  (40) 
CCC(=O)N(c1ccccc1)C1CCN(C(=O)[C@H](N)Cc2ccccc2C)CC1

>  <score_type>  (40) 
oracle

>  <origin>  (40) 
autodockgpu

>  <m_score__min__energy>  (40) 
-7.6100000000000003

>  <m_primary>  (40) 
energy

>  <rmsd>  (40) 
3.6212614588244993

>  <m_score__min__rmsd>  (40) 
3.6212614588244993

>  <meeko>  (40) 
{"free_energy": -5.9, "intermolecular_energy": -8.29, "internal_energy": -2.72, "cluster_size": 1, "cluster_id": 8, "rank_in_cluster": 1}

>  <energy>  (40) 
-6.63

>  <cluster_rmsd>  (40) 
0.21

>  <cluster>  (40) 
6

$$$$

     RDKit          3D

 60 62  0  0  0  0  0  0  0  0999 V2000
  146.2860   73.3160  221.9520 C   0  0  0  0  0  0  0  0  0  0  0  0
  146.2670   73.9280  220.5470 C   0  0  0  0  0  0  0  0  0  0  0  0
  145.2110   73.2830  219.7510 C   0  0  0  0  0  0  0  0  0  0  0  0
  145.5710   72.3680  218.9500 O   0  0  0  0  0  0  0  0  0  0  0  0
  143.8310   73.5840  219.7900 N   0  0  0  0  0  0  0  0  0  0  0  0
  143.4530   74.7910  219.0750 C   0  0  0  0  0  0  0  0  0  0  0  0
  143.1980   74.6790  217.7070 C   0  0  0  0  0  0  0  0  0  0  0  0
  142.8350   75.8250  217.0110 C   0  0  0  0  0  0  0  0  0  0  0  0
  142.7200   77.0560  217.6210 C   0  0  0  0  0  0  0  0  0  0  0  0
  142.9840   77.1250  218.9870 C   0  0  0  0  0  0  0  0  0  0  0  0
  143.3480   76.0010  219.7100 C   0  0  0  0  0  0  0  0  0  0  0  0
  142.8030   72.8520  220.4310 C   0  0  0  0  0  0  0  0  0  0  0  0
  141.7210   73.6520  221.0910 C   0  0  0  0  0  0  0  0  0  0  0  0
  141.0970   72.7430  222.1690 C   0  0  0  0  0  0  0  0  0  0  0  0
  140.6910   71.4760  221.5920 N   0  0  0  0  0  0  0  0  0  0  0  0
  139.5630   70.7340  222.0400 C   0  0  0  0  0  0  0  0  0  0  0  0
  139.2450   69.6430  221.4250 O   0  0  0  0  0  0  0  0  0  0  0  0
  138.6740   71.0700  223.1670 C   0  0  2  0  0  0  0  0  0  0  0  0
  137.5830   71.8900  222.8600 N   0  0  0  0  0  0  0  0  0  0  0  0
  139.4530   71.4830  224.3960 C   0  0  0  0  0  0  0  0  0  0  0  0
  139.6840   70.3070  225.2450 C   0  0  0  0  0  0  0  0  0  0  0  0
  139.1480   69.0910  224.8290 C   0  0  0  0  0  0  0  0  0  0  0  0
  139.2830   67.9320  225.5650 C   0  0  0  0  0  0  0  0  0  0  0  0
  139.9630   67.9630  226.7460 C   0  0  0  0  0  0  0  0  0  0  0  0
  140.5030   69.1330  227.1850 C   0  0  0  0  0  0  0  0  0  0  0  0
  140.3640   70.2990  226.4360 C   0  0  0  0  0  0  0  0  0  0  0  0
  141.0150   71.5110  226.9840 C   0  0  0  0  0  0  0  0  0  0  0  0
  141.4550   70.8460  220.5020 C   0  0  0  0  0  0  0  0  0  0  0  0
  142.0720   71.8490  219.5580 C   0  0  0  0  0  0  0  0  0  0  0  0
  146.2610   74.1199  222.7025 H   0  0  0  0  0  0  0  0  0  0  0  0
  145.4076   72.6666  222.0810 H   0  0  0  0  0  0  0  0  0  0  0  0
  147.2030   72.7223  222.0810 H   0  0  0  0  0  0  0  0  0  0  0  0
  146.0660   75.0071  220.6187 H   0  0  0  0  0  0  0  0  0  0  0  0
  147.2421   73.7706  220.0628 H   0  0  0  0  0  0  0  0  0  0  0  0
  143.2822   73.7095  217.1942 H   0  0  0  0  0  0  0  0  0  0  0  0
  142.6317   75.7474  215.9327 H   0  0  0  0  0  0  0  0  0  0  0  0
  142.4305   77.9506  217.0501 H   0  0  0  0  0  0  0  0  0  0  0  0
  142.9016   78.0931  219.5027 H   0  0  0  0  0  0  0  0  0  0  0  0
  143.5517   76.0791  220.7881 H   0  0  0  0  0  0  0  0  0  0  0  0
  143.4195   72.3484  221.1902 H   0  0  0  0  0  0  0  0  0  0  0  0
  142.1454   74.5547  221.5548 H   0  0  0  0  0  0  0  0  0  0  0  0
  140.9658   73.9771  220.3602 H   0  0  0  0  0  0  0  0  0  0  0  0
  141.8381   72.5592  222.9609 H   0  0  0  0  0  0  0  0  0  0  0  0
  140.2113   73.2435  222.5873 H   0  0  0  0  0  0  0  0  0  0  0  0
  138.1689   70.1270  223.4231 H   0  0  0  0  0  0  0  0  0  0  0  0
  136.8260   71.3970  222.3940 H   0  0  0  0  0  0  0  0  0  0  0  0
  137.4030   72.6500  223.4980 H   0  0  0  0  0  0  0  0  0  0  0  0
  140.4193   71.9112  224.0913 H   0  0  0  0  0  0  0  0  0  0  0  0
  138.8806   72.2354  224.9583 H   0  0  0  0  0  0  0  0  0  0  0  0
  138.5964   69.0531  223.8781 H   0  0  0  0  0  0  0  0  0  0  0  0
  138.8454   66.9904  225.2017 H   0  0  0  0  0  0  0  0  0  0  0  0
  140.0750   67.0455  227.3424 H   0  0  0  0  0  0  0  0  0  0  0  0
  141.0527   69.1577  228.1375 H   0  0  0  0  0  0  0  0  0  0  0  0
  140.9946   71.4730  228.0831 H   0  0  0  0  0  0  0  0  0  0  0  0
  142.0582   71.5551  226.6379 H   0  0  0  0  0  0  0  0  0  0  0  0
  140.4758   72.4051  226.6379 H   0  0  0  0  0  0  0  0  0  0  0  0
  142.2593   70.2389  220.9431 H   0  0  0  0  0  0  0  0  0  0  0  0
  140.7517   70.2341  219.9182 H   0  0  0  0  0  0  0  0  0  0  0  0
  142.7772   71.3495  218.8774 H   0  0  0  0  0  0  0  0  0  0  0  0
  141.3085   72.3384  218.9355 H   0  0  0  0  0  0  0  0  0  0  0  0
  1  2  1  0
  2  3  1  0
  3  4  2  0
  3  5  1  0
  5  6  1  0
  6  7  2  0
  7  8  1  0
  8  9  2  0
  9 10  1  0
 10 11  2  0
  5 12  1  0
 12 13  1  0
 13 14  1  0
 14 15  1  0
 15 16  1  0
 16 17  2  0
 16 18  1  0
 18 19  1  0
 18 20  1  0
 20 21  1  0
 21 22  2  0
 22 23  1  0
 23 24  2  0
 24 25  1  0
 25 26  2  0
 26 27  1  0
 15 28  1  0
 28 29  1  0
 11  6  1  0
 29 12  1  0
 26 21  1  0
  1 30  1  0
  1 31  1  0
  1 32  1  0
  2 33  1  0
  2 34  1  0
  7 35  1  0
  8 36  1  0
  9 37  1  0
 10 38  1  0
 11 39  1  0
 12 40  1  0
 13 41  1  0
 13 42  1  0
 14 43  1  0
 14 44  1  0
 18 45  1  1
 19 46  1  0
 19 47  1  0
 20 48  1  0
 20 49  1  0
 22 50  1  0
 23 51  1  0
 24 52  1  0
 25 53  1  0
 27 54  1  0
 27 55  1  0
 27 56  1  0
 28 57  1  0
 28 58  1  0
 29 59  1  0
 29 60  1  0
M  END
>  <smiles>  (41) 
CCC(=O)N(c1ccccc1)C1CCN(C(=O)[C@H](N)Cc2ccccc2C)CC1

>  <score_type>  (41) 
oracle

>  <origin>  (41) 
autodockgpu

>  <m_score__min__energy>  (41) 
-7.6100000000000003

>  <m_primary>  (41) 
energy

>  <rmsd>  (41) 
8.472714299926901

>  <m_score__min__rmsd>  (41) 
8.472714299926901

>  <meeko>  (41) 
{"free_energy": -7.57, "intermolecular_energy": -9.95, "internal_energy": -1.62, "cluster_size": 3, "cluster_id": 1, "rank_in_cluster": 2}

>  <energy>  (41) 
-6.53

>  <cluster_rmsd>  (41) 
0.61

>  <cluster>  (41) 
6

$$$$

     RDKit          3D

 60 62  0  0  0  0  0  0  0  0999 V2000
  138.7150   67.4680  222.6570 C   0  0  0  0  0  0  0  0  0  0  0  0
  139.0830   68.7820  221.9590 C   0  0  0  0  0  0  0  0  0  0  0  0
  138.6560   69.9130  222.7960 C   0  0  0  0  0  0  0  0  0  0  0  0
  137.4160   70.0030  223.0530 O   0  0  0  0  0  0  0  0  0  0  0  0
  139.4900   70.9120  223.3450 N   0  0  0  0  0  0  0  0  0  0  0  0
  139.8730   70.6900  224.7290 C   0  0  0  0  0  0  0  0  0  0  0  0
  139.3330   69.5790  225.3790 C   0  0  0  0  0  0  0  0  0  0  0  0
  139.6910   69.3550  226.7020 C   0  0  0  0  0  0  0  0  0  0  0  0
  140.5520   70.1870  227.3870 C   0  0  0  0  0  0  0  0  0  0  0  0
  141.0670   71.2850  226.7030 C   0  0  0  0  0  0  0  0  0  0  0  0
  140.7310   71.5360  225.3830 C   0  0  0  0  0  0  0  0  0  0  0  0
  139.9850   72.0750  222.7060 C   0  0  0  0  0  0  0  0  0  0  0  0
  141.0470   71.8700  221.6680 C   0  0  0  0  0  0  0  0  0  0  0  0
  141.8180   73.2000  221.5600 C   0  0  0  0  0  0  0  0  0  0  0  0
  140.9020   74.3000  221.3260 N   0  0  0  0  0  0  0  0  0  0  0  0
  141.2310   75.4450  220.5470 C   0  0  0  0  0  0  0  0  0  0  0  0
  140.3280   76.3470  220.3460 O   0  0  0  0  0  0  0  0  0  0  0  0
  142.5300   75.7410  219.9150 C   0  0  2  0  0  0  0  0  0  0  0  0
  142.6940   77.0480  219.4430 N   0  0  0  0  0  0  0  0  0  0  0  0
  142.9450   74.6590  218.9440 C   0  0  0  0  0  0  0  0  0  0  0  0
  144.0770   73.9090  219.5040 C   0  0  0  0  0  0  0  0  0  0  0  0
  144.8600   74.5410  220.4680 C   0  0  0  0  0  0  0  0  0  0  0  0
  145.9620   73.9380  221.0380 C   0  0  0  0  0  0  0  0  0  0  0  0
  146.3110   72.6770  220.6520 C   0  0  0  0  0  0  0  0  0  0  0  0
  145.5710   72.0280  219.7140 C   0  0  0  0  0  0  0  0  0  0  0  0
  144.4580   72.6430  219.1440 C   0  0  0  0  0  0  0  0  0  0  0  0
  143.7010   71.8400  218.1560 C   0  0  0  0  0  0  0  0  0  0  0  0
  139.5540   74.3190  221.9170 C   0  0  0  0  0  0  0  0  0  0  0  0
  138.9400   72.9450  222.0310 C   0  0  0  0  0  0  0  0  0  0  0  0
  138.7543   67.6085  223.7473 H   0  0  0  0  0  0  0  0  0  0  0  0
  137.6984   67.1685  222.3623 H   0  0  0  0  0  0  0  0  0  0  0  0
  139.4281   66.6840  222.3623 H   0  0  0  0  0  0  0  0  0  0  0  0
  140.1719   68.8261  221.8093 H   0  0  0  0  0  0  0  0  0  0  0  0
  138.5784   68.8347  220.9830 H   0  0  0  0  0  0  0  0  0  0  0  0
  138.6428   68.8995  224.8576 H   0  0  0  0  0  0  0  0  0  0  0  0
  139.2723   68.4814  227.2231 H   0  0  0  0  0  0  0  0  0  0  0  0
  140.8218   69.9902  228.4351 H   0  0  0  0  0  0  0  0  0  0  0  0
  141.7556   71.9679  227.2222 H   0  0  0  0  0  0  0  0  0  0  0  0
  141.1503   72.4094  224.8622 H   0  0  0  0  0  0  0  0  0  0  0  0
  140.4100   72.5714  223.5908 H   0  0  0  0  0  0  0  0  0  0  0  0
  141.7264   71.0610  221.9745 H   0  0  0  0  0  0  0  0  0  0  0  0
  140.6072   71.5862  220.7005 H   0  0  0  0  0  0  0  0  0  0  0  0
  142.3658   73.3781  222.4971 H   0  0  0  0  0  0  0  0  0  0  0  0
  142.5210   73.1365  220.7163 H   0  0  0  0  0  0  0  0  0  0  0  0
  143.2601   75.7146  220.7373 H   0  0  0  0  0  0  0  0  0  0  0  0
  141.8160   77.5460  219.3200 H   0  0  0  0  0  0  0  0  0  0  0  0
  143.5340   77.5240  219.7330 H   0  0  0  0  0  0  0  0  0  0  0  0
  142.1003   73.9754  218.7733 H   0  0  0  0  0  0  0  0  0  0  0  0
  143.2437   75.1168  217.9894 H   0  0  0  0  0  0  0  0  0  0  0  0
  144.5893   75.5585  220.7863 H   0  0  0  0  0  0  0  0  0  0  0  0
  146.5543   74.4695  221.7974 H   0  0  0  0  0  0  0  0  0  0  0  0
  147.1887   72.1866  221.0984 H   0  0  0  0  0  0  0  0  0  0  0  0
  145.8526   71.0111  219.4031 H   0  0  0  0  0  0  0  0  0  0  0  0
  143.0391   71.1379  218.6841 H   0  0  0  0  0  0  0  0  0  0  0  0
  143.0973   72.5090  217.5251 H   0  0  0  0  0  0  0  0  0  0  0  0
  144.4044   71.2768  217.5251 H   0  0  0  0  0  0  0  0  0  0  0  0
  139.6188   74.7585  222.9233 H   0  0  0  0  0  0  0  0  0  0  0  0
  138.9110   74.9121  221.2501 H   0  0  0  0  0  0  0  0  0  0  0  0
  138.0245   72.9846  222.6396 H   0  0  0  0  0  0  0  0  0  0  0  0
  138.6590   72.5460  221.0452 H   0  0  0  0  0  0  0  0  0  0  0  0
  1  2  1  0
  2  3  1  0
  3  4  2  0
  3  5  1  0
  5  6  1  0
  6  7  2  0
  7  8  1  0
  8  9  2  0
  9 10  1  0
 10 11  2  0
  5 12  1  0
 12 13  1  0
 13 14  1  0
 14 15  1  0
 15 16  1  0
 16 17  2  0
 16 18  1  0
 18 19  1  0
 18 20  1  0
 20 21  1  0
 21 22  2  0
 22 23  1  0
 23 24  2  0
 24 25  1  0
 25 26  2  0
 26 27  1  0
 15 28  1  0
 28 29  1  0
 11  6  1  0
 29 12  1  0
 26 21  1  0
  1 30  1  0
  1 31  1  0
  1 32  1  0
  2 33  1  0
  2 34  1  0
  7 35  1  0
  8 36  1  0
  9 37  1  0
 10 38  1  0
 11 39  1  0
 12 40  1  0
 13 41  1  0
 13 42  1  0
 14 43  1  0
 14 44  1  0
 18 45  1  1
 19 46  1  0
 19 47  1  0
 20 48  1  0
 20 49  1  0
 22 50  1  0
 23 51  1  0
 24 52  1  0
 25 53  1  0
 27 54  1  0
 27 55  1  0
 27 56  1  0
 28 57  1  0
 28 58  1  0
 29 59  1  0
 29 60  1  0
M  END
>  <smiles>  (42) 
CCC(=O)N(c1ccccc1)C1CCN(C(=O)[C@H](N)Cc2ccccc2C)CC1

>  <score_type>  (42) 
oracle

>  <origin>  (42) 
autodockgpu

>  <m_score__min__energy>  (42) 
-7.6100000000000003

>  <m_primary>  (42) 
energy

>  <rmsd>  (42) 
6.290086513364298

>  <m_score__min__rmsd>  (42) 
6.290086513364298

>  <meeko>  (42) 
{"free_energy": -6.71, "intermolecular_energy": -9.1, "internal_energy": -2.51, "cluster_size": 19, "cluster_id": 4, "rank_in_cluster": 2}

>  <energy>  (42) 
-6.47

>  <cluster_rmsd>  (42) 
0.7

>  <cluster>  (42) 
6

$$$$

     RDKit          3D

 60 62  0  0  0  0  0  0  0  0999 V2000
  140.6940   71.8410  222.4490 C   0  0  0  0  0  0  0  0  0  0  0  0
  141.0460   72.4120  221.0710 C   0  0  0  0  0  0  0  0  0  0  0  0
  141.1540   73.8760  221.1650 C   0  0  0  0  0  0  0  0  0  0  0  0
  140.3850   74.4580  221.9890 O   0  0  0  0  0  0  0  0  0  0  0  0
  142.0310   74.7000  220.4260 N   0  0  0  0  0  0  0  0  0  0  0  0
  143.2640   74.0530  220.0090 C   0  0  0  0  0  0  0  0  0  0  0  0
  143.2760   73.4280  218.7600 C   0  0  0  0  0  0  0  0  0  0  0  0
  144.4470   72.8060  218.3480 C   0  0  0  0  0  0  0  0  0  0  0  0
  145.5860   72.7850  219.1250 C   0  0  0  0  0  0  0  0  0  0  0  0
  145.5330   73.4180  220.3650 C   0  0  0  0  0  0  0  0  0  0  0  0
  144.3790   74.0480  220.8050 C   0  0  0  0  0  0  0  0  0  0  0  0
  141.8420   76.0530  220.0540 C   0  0  0  0  0  0  0  0  0  0  0  0
  141.2860   76.9660  221.1050 C   0  0  0  0  0  0  0  0  0  0  0  0
  140.6310   78.1460  220.3590 C   0  0  0  0  0  0  0  0  0  0  0  0
  141.5710   78.7420  219.4280 N   0  0  0  0  0  0  0  0  0  0  0  0
  141.5890   80.1290  219.1110 C   0  0  0  0  0  0  0  0  0  0  0  0
  142.5020   80.5770  218.3140 O   0  0  0  0  0  0  0  0  0  0  0  0
  140.6570   81.1610  219.5990 C   0  0  2  0  0  0  0  0  0  0  0  0
  140.1180   82.0080  218.6230 N   0  0  0  0  0  0  0  0  0  0  0  0
  141.1870   81.8650  220.8280 C   0  0  0  0  0  0  0  0  0  0  0  0
  141.3500   80.8920  221.9160 C   0  0  0  0  0  0  0  0  0  0  0  0
  142.6230   80.3690  222.1340 C   0  0  0  0  0  0  0  0  0  0  0  0
  142.8800   79.4290  223.1100 C   0  0  0  0  0  0  0  0  0  0  0  0
  141.8590   78.9850  223.8980 C   0  0  0  0  0  0  0  0  0  0  0  0
  140.6020   79.4720  223.7160 C   0  0  0  0  0  0  0  0  0  0  0  0
  140.3510   80.4220  222.7290 C   0  0  0  0  0  0  0  0  0  0  0  0
  138.9570   80.9140  222.6330 C   0  0  0  0  0  0  0  0  0  0  0  0
  142.5670   77.9280  218.7120 C   0  0  0  0  0  0  0  0  0  0  0  0
  143.0750   76.7650  219.5280 C   0  0  0  0  0  0  0  0  0  0  0  0
  141.0991   72.4982  223.2326 H   0  0  0  0  0  0  0  0  0  0  0  0
  139.6006   71.7788  222.5517 H   0  0  0  0  0  0  0  0  0  0  0  0
  141.1297   70.8362  222.5517 H   0  0  0  0  0  0  0  0  0  0  0  0
  142.0059   71.9935  220.7340 H   0  0  0  0  0  0  0  0  0  0  0  0
  140.2592   72.1459  220.3497 H   0  0  0  0  0  0  0  0  0  0  0  0
  142.3815   73.4285  218.1197 H   0  0  0  0  0  0  0  0  0  0  0  0
  144.4669   72.3117  217.3655 H   0  0  0  0  0  0  0  0  0  0  0  0
  146.5032   72.2865  218.7783 H   0  0  0  0  0  0  0  0  0  0  0  0
  146.4253   73.4179  221.0083 H   0  0  0  0  0  0  0  0  0  0  0  0
  144.3588   74.5412  221.7880 H   0  0  0  0  0  0  0  0  0  0  0  0
  141.1001   75.8949  219.2574 H   0  0  0  0  0  0  0  0  0  0  0  0
  140.5360   76.4360  221.7105 H   0  0  0  0  0  0  0  0  0  0  0  0
  142.0758   77.3156  221.7861 H   0  0  0  0  0  0  0  0  0  0  0  0
  139.7536   77.7817  219.8044 H   0  0  0  0  0  0  0  0  0  0  0  0
  140.3261   78.9064  221.0931 H   0  0  0  0  0  0  0  0  0  0  0  0
  139.7628   80.6074  219.9213 H   0  0  0  0  0  0  0  0  0  0  0  0
  140.6680   82.0400  217.7690 H   0  0  0  0  0  0  0  0  0  0  0  0
  139.1130   82.0850  218.6070 H   0  0  0  0  0  0  0  0  0  0  0  0
  142.1598   82.3237  220.5972 H   0  0  0  0  0  0  0  0  0  0  0  0
  140.4779   82.6468  221.1378 H   0  0  0  0  0  0  0  0  0  0  0  0
  143.4541   80.7189  221.5041 H   0  0  0  0  0  0  0  0  0  0  0  0
  143.8994   79.0408  223.2517 H   0  0  0  0  0  0  0  0  0  0  0  0
  142.0517   78.2347  224.6790 H   0  0  0  0  0  0  0  0  0  0  0  0
  139.7792   79.1135  224.3519 H   0  0  0  0  0  0  0  0  0  0  0  0
  138.5486   81.0581  223.6441 H   0  0  0  0  0  0  0  0  0  0  0  0
  138.9426   81.8715  222.0918 H   0  0  0  0  0  0  0  0  0  0  0  0
  138.3447   80.1777  222.0918 H   0  0  0  0  0  0  0  0  0  0  0  0
  142.1050   77.5365  217.7937 H   0  0  0  0  0  0  0  0  0  0  0  0
  143.4275   78.5777  218.4942 H   0  0  0  0  0  0  0  0  0  0  0  0
  143.6687   76.0863  218.8979 H   0  0  0  0  0  0  0  0  0  0  0  0
  143.7263   77.1019  220.3479 H   0  0  0  0  0  0  0  0  0  0  0  0
  1  2  1  0
  2  3  1  0
  3  4  2  0
  3  5  1  0
  5  6  1  0
  6  7  2  0
  7  8  1  0
  8  9  2  0
  9 10  1  0
 10 11  2  0
  5 12  1  0
 12 13  1  0
 13 14  1  0
 14 15  1  0
 15 16  1  0
 16 17  2  0
 16 18  1  0
 18 19  1  0
 18 20  1  0
 20 21  1  0
 21 22  2  0
 22 23  1  0
 23 24  2  0
 24 25  1  0
 25 26  2  0
 26 27  1  0
 15 28  1  0
 28 29  1  0
 11  6  1  0
 29 12  1  0
 26 21  1  0
  1 30  1  0
  1 31  1  0
  1 32  1  0
  2 33  1  0
  2 34  1  0
  7 35  1  0
  8 36  1  0
  9 37  1  0
 10 38  1  0
 11 39  1  0
 12 40  1  0
 13 41  1  0
 13 42  1  0
 14 43  1  0
 14 44  1  0
 18 45  1  1
 19 46  1  0
 19 47  1  0
 20 48  1  0
 20 49  1  0
 22 50  1  0
 23 51  1  0
 24 52  1  0
 25 53  1  0
 27 54  1  0
 27 55  1  0
 27 56  1  0
 28 57  1  0
 28 58  1  0
 29 59  1  0
 29 60  1  0
M  END
>  <smiles>  (43) 
CCC(=O)N(c1ccccc1)C1CCN(C(=O)[C@H](N)Cc2ccccc2C)CC1

>  <score_type>  (43) 
oracle

>  <origin>  (43) 
autodockgpu

>  <m_score__min__energy>  (43) 
-7.6100000000000003

>  <m_primary>  (43) 
energy

>  <rmsd>  (43) 
5.756851401813437

>  <m_score__min__rmsd>  (43) 
5.756851401813437

>  <meeko>  (43) 
{"free_energy": -6.63, "intermolecular_energy": -9.02, "internal_energy": -2.58, "cluster_size": 15, "cluster_id": 6, "rank_in_cluster": 6}

>  <energy>  (43) 
-6.43

>  <cluster_rmsd>  (43) 
0.43

>  <cluster>  (43) 
6

$$$$

     RDKit          3D

 60 62  0  0  0  0  0  0  0  0999 V2000
  146.1760   73.7480  221.5880 C   0  0  0  0  0  0  0  0  0  0  0  0
  146.1490   72.6450  220.5240 C   0  0  0  0  0  0  0  0  0  0  0  0
  145.2190   73.0290  219.4510 C   0  0  0  0  0  0  0  0  0  0  0  0
  145.6730   73.0220  218.2660 O   0  0  0  0  0  0  0  0  0  0  0  0
  143.8670   73.4050  219.6090 N   0  0  0  0  0  0  0  0  0  0  0  0
  143.5080   74.6610  218.9710 C   0  0  0  0  0  0  0  0  0  0  0  0
  143.6270   75.8280  219.7280 C   0  0  0  0  0  0  0  0  0  0  0  0
  143.2870   77.0350  219.1320 C   0  0  0  0  0  0  0  0  0  0  0  0
  142.8390   77.1160  217.8300 C   0  0  0  0  0  0  0  0  0  0  0  0
  142.7330   75.9290  217.1100 C   0  0  0  0  0  0  0  0  0  0  0  0
  143.0640   74.7080  217.6760 C   0  0  0  0  0  0  0  0  0  0  0  0
  142.8480   72.7060  220.3010 C   0  0  0  0  0  0  0  0  0  0  0  0
  141.7930   73.5400  220.9630 C   0  0  0  0  0  0  0  0  0  0  0  0
  141.1900   72.6740  222.0870 C   0  0  0  0  0  0  0  0  0  0  0  0
  140.7540   71.3940  221.5620 N   0  0  0  0  0  0  0  0  0  0  0  0
  139.6300   70.6800  222.0650 C   0  0  0  0  0  0  0  0  0  0  0  0
  139.2840   69.5740  221.4940 O   0  0  0  0  0  0  0  0  0  0  0  0
  138.7770   71.0630  223.2040 C   0  0  2  0  0  0  0  0  0  0  0  0
  137.6810   71.8780  222.8980 N   0  0  0  0  0  0  0  0  0  0  0  0
  139.5930   71.5160  224.3930 C   0  0  0  0  0  0  0  0  0  0  0  0
  139.7910   70.3850  225.3090 C   0  0  0  0  0  0  0  0  0  0  0  0
  139.2610   69.1500  224.9390 C   0  0  0  0  0  0  0  0  0  0  0  0
  139.3670   68.0300  225.7370 C   0  0  0  0  0  0  0  0  0  0  0  0
  140.0090   68.1200  226.9370 C   0  0  0  0  0  0  0  0  0  0  0  0
  140.5410   69.3090  227.3320 C   0  0  0  0  0  0  0  0  0  0  0  0
  140.4320   70.4350  226.5200 C   0  0  0  0  0  0  0  0  0  0  0  0
  141.0710   71.6710  227.0250 C   0  0  0  0  0  0  0  0  0  0  0  0
  141.4810   70.7200  220.4730 C   0  0  0  0  0  0  0  0  0  0  0  0
  142.0830   71.6840  219.4810 C   0  0  0  0  0  0  0  0  0  0  0  0
  146.1648   73.2922  222.5890 H   0  0  0  0  0  0  0  0  0  0  0  0
  147.0891   74.3497  221.4693 H   0  0  0  0  0  0  0  0  0  0  0  0
  145.2934   74.3937  221.4693 H   0  0  0  0  0  0  0  0  0  0  0  0
  147.1579   72.5124  220.1062 H   0  0  0  0  0  0  0  0  0  0  0  0
  145.8168   71.7006  220.9798 H   0  0  0  0  0  0  0  0  0  0  0  0
  143.9807   75.7922  220.7690 H   0  0  0  0  0  0  0  0  0  0  0  0
  143.3782   77.9604  219.7196 H   0  0  0  0  0  0  0  0  0  0  0  0
  142.5751   78.0830  217.3770 H   0  0  0  0  0  0  0  0  0  0  0  0
  142.3788   75.9610  216.0691 H   0  0  0  0  0  0  0  0  0  0  0  0
  142.9707   73.7824  217.0890 H   0  0  0  0  0  0  0  0  0  0  0  0
  143.4790   72.2199  221.0597 H   0  0  0  0  0  0  0  0  0  0  0  0
  142.2394   74.4526  221.3847 H   0  0  0  0  0  0  0  0  0  0  0  0
  141.0214   73.8497  220.2428 H   0  0  0  0  0  0  0  0  0  0  0  0
  141.9511   72.5068  222.8634 H   0  0  0  0  0  0  0  0  0  0  0  0
  140.3224   73.1982  222.5141 H   0  0  0  0  0  0  0  0  0  0  0  0
  138.2753   70.1332  223.5103 H   0  0  0  0  0  0  0  0  0  0  0  0
  137.5920   72.6820  223.5140 H   0  0  0  0  0  0  0  0  0  0  0  0
  137.4200   71.9270  221.9260 H   0  0  0  0  0  0  0  0  0  0  0  0
  140.5705   71.8844  224.0482 H   0  0  0  0  0  0  0  0  0  0  0  0
  139.0613   72.3240  224.9168 H   0  0  0  0  0  0  0  0  0  0  0  0
  138.7387   69.0655  223.9746 H   0  0  0  0  0  0  0  0  0  0  0  0
  138.9374   67.0722  225.4084 H   0  0  0  0  0  0  0  0  0  0  0  0
  140.0966   67.2344  227.5836 H   0  0  0  0  0  0  0  0  0  0  0  0
  141.0604   69.3809  228.2990 H   0  0  0  0  0  0  0  0  0  0  0  0
  141.0668   71.6629  228.1250 H   0  0  0  0  0  0  0  0  0  0  0  0
  142.1084   71.7219  226.6627 H   0  0  0  0  0  0  0  0  0  0  0  0
  140.5127   72.5468  226.6627 H   0  0  0  0  0  0  0  0  0  0  0  0
  142.2902   70.1178  220.9119 H   0  0  0  0  0  0  0  0  0  0  0  0
  140.7552   70.0981  219.9285 H   0  0  0  0  0  0  0  0  0  0  0  0
  142.7641   71.1544  218.7987 H   0  0  0  0  0  0  0  0  0  0  0  0
  141.3084   72.1619  218.8632 H   0  0  0  0  0  0  0  0  0  0  0  0
  1  2  1  0
  2  3  1  0
  3  4  2  0
  3  5  1  0
  5  6  1  0
  6  7  2  0
  7  8  1  0
  8  9  2  0
  9 10  1  0
 10 11  2  0
  5 12  1  0
 12 13  1  0
 13 14  1  0
 14 15  1  0
 15 16  1  0
 16 17  2  0
 16 18  1  0
 18 19  1  0
 18 20  1  0
 20 21  1  0
 21 22  2  0
 22 23  1  0
 23 24  2  0
 24 25  1  0
 25 26  2  0
 26 27  1  0
 15 28  1  0
 28 29  1  0
 11  6  1  0
 29 12  1  0
 26 21  1  0
  1 30  1  0
  1 31  1  0
  1 32  1  0
  2 33  1  0
  2 34  1  0
  7 35  1  0
  8 36  1  0
  9 37  1  0
 10 38  1  0
 11 39  1  0
 12 40  1  0
 13 41  1  0
 13 42  1  0
 14 43  1  0
 14 44  1  0
 18 45  1  1
 19 46  1  0
 19 47  1  0
 20 48  1  0
 20 49  1  0
 22 50  1  0
 23 51  1  0
 24 52  1  0
 25 53  1  0
 27 54  1  0
 27 55  1  0
 27 56  1  0
 28 57  1  0
 28 58  1  0
 29 59  1  0
 29 60  1  0
M  END
>  <smiles>  (44) 
CCC(=O)N(c1ccccc1)C1CCN(C(=O)[C@H](N)Cc2ccccc2C)CC1

>  <score_type>  (44) 
oracle

>  <origin>  (44) 
autodockgpu

>  <m_score__min__energy>  (44) 
-7.6100000000000003

>  <m_primary>  (44) 
energy

>  <rmsd>  (44) 
8.523476411872222

>  <m_score__min__rmsd>  (44) 
8.523476411872222

>  <meeko>  (44) 
{"free_energy": -7.33, "intermolecular_energy": -9.71, "internal_energy": -1.68, "cluster_size": 3, "cluster_id": 1, "rank_in_cluster": 3}

>  <energy>  (44) 
-6.41

>  <cluster_rmsd>  (44) 
0.73

>  <cluster>  (44) 
6

$$$$

     RDKit          3D

 60 62  0  0  0  0  0  0  0  0999 V2000
  138.8850   68.2810  221.3840 C   0  0  0  0  0  0  0  0  0  0  0  0
  137.9290   67.7650  222.4660 C   0  0  0  0  0  0  0  0  0  0  0  0
  137.6840   68.8340  223.4470 C   0  0  0  0  0  0  0  0  0  0  0  0
  136.5050   68.9340  223.9060 O   0  0  0  0  0  0  0  0  0  0  0  0
  138.6330   69.7620  223.9290 N   0  0  0  0  0  0  0  0  0  0  0  0
  139.2770   69.3800  225.1750 C   0  0  0  0  0  0  0  0  0  0  0  0
  139.9410   70.3760  225.8920 C   0  0  0  0  0  0  0  0  0  0  0  0
  140.5610   70.0250  227.0840 C   0  0  0  0  0  0  0  0  0  0  0  0
  140.5430   68.7370  227.5760 C   0  0  0  0  0  0  0  0  0  0  0  0
  139.8700   67.7720  226.8300 C   0  0  0  0  0  0  0  0  0  0  0  0
  139.2410   68.0900  225.6370 C   0  0  0  0  0  0  0  0  0  0  0  0
  139.0170   70.9920  223.3430 C   0  0  0  0  0  0  0  0  0  0  0  0
  140.3290   71.0080  222.6170 C   0  0  0  0  0  0  0  0  0  0  0  0
  140.8030   72.4750  222.5990 C   0  0  0  0  0  0  0  0  0  0  0  0
  139.7660   73.3360  222.0620 N   0  0  0  0  0  0  0  0  0  0  0  0
  140.0350   74.5080  221.3010 C   0  0  0  0  0  0  0  0  0  0  0  0
  139.0440   75.1800  220.8150 O   0  0  0  0  0  0  0  0  0  0  0  0
  141.3590   75.0740  220.9860 C   0  0  2  0  0  0  0  0  0  0  0  0
  141.4410   76.4720  220.9870 N   0  0  0  0  0  0  0  0  0  0  0  0
  141.9890   74.4030  219.7870 C   0  0  0  0  0  0  0  0  0  0  0  0
  143.3260   73.9130  220.1490 C   0  0  0  0  0  0  0  0  0  0  0  0
  144.2980   74.8580  220.4690 C   0  0  0  0  0  0  0  0  0  0  0  0
  145.5920   74.5080  220.7950 C   0  0  0  0  0  0  0  0  0  0  0  0
  145.9470   73.1920  220.8090 C   0  0  0  0  0  0  0  0  0  0  0  0
  145.0250   72.2390  220.5030 C   0  0  0  0  0  0  0  0  0  0  0  0
  143.7200   72.6000  220.1750 C   0  0  0  0  0  0  0  0  0  0  0  0
  142.7850   71.4880  219.8910 C   0  0  0  0  0  0  0  0  0  0  0  0
  138.3390   73.0650  222.3010 C   0  0  0  0  0  0  0  0  0  0  0  0
  138.0220   71.5910  222.3670 C   0  0  0  0  0  0  0  0  0  0  0  0
  139.7576   68.7520  221.8601 H   0  0  0  0  0  0  0  0  0  0  0  0
  139.2182   67.4402  220.7578 H   0  0  0  0  0  0  0  0  0  0  0  0
  138.3650   69.0210  220.7578 H   0  0  0  0  0  0  0  0  0  0  0  0
  136.9771   67.4656  222.0031 H   0  0  0  0  0  0  0  0  0  0  0  0
  138.3774   66.8966  222.9709 H   0  0  0  0  0  0  0  0  0  0  0  0
  139.9725   71.4117  225.5228 H   0  0  0  0  0  0  0  0  0  0  0  0
  141.0860   70.8034  227.6570 H   0  0  0  0  0  0  0  0  0  0  0  0
  141.0416   68.4810  228.5225 H   0  0  0  0  0  0  0  0  0  0  0  0
  139.8372   66.7352  227.1959 H   0  0  0  0  0  0  0  0  0  0  0  0
  138.7158   67.3117  225.0640 H   0  0  0  0  0  0  0  0  0  0  0  0
  139.0844   71.5900  224.2638 H   0  0  0  0  0  0  0  0  0  0  0  0
  141.0618   70.3785  223.1430 H   0  0  0  0  0  0  0  0  0  0  0  0
  140.2230   70.6122  221.5962 H   0  0  0  0  0  0  0  0  0  0  0  0
  141.0411   72.7914  223.6253 H   0  0  0  0  0  0  0  0  0  0  0  0
  141.6964   72.5531  221.9620 H   0  0  0  0  0  0  0  0  0  0  0  0
  141.9904   74.8197  221.8501 H   0  0  0  0  0  0  0  0  0  0  0  0
  142.3940   76.8200  220.9240 H   0  0  0  0  0  0  0  0  0  0  0  0
  140.6710   76.9630  220.5610 H   0  0  0  0  0  0  0  0  0  0  0  0
  141.3620   73.5573  219.4681 H   0  0  0  0  0  0  0  0  0  0  0  0
  142.0734   75.1267  218.9629 H   0  0  0  0  0  0  0  0  0  0  0  0
  144.0236   75.9232  220.4615 H   0  0  0  0  0  0  0  0  0  0  0  0
  146.3311   75.2845  221.0416 H   0  0  0  0  0  0  0  0  0  0  0  0
  146.9760   72.9011  221.0670 H   0  0  0  0  0  0  0  0  0  0  0  0
  145.3119   71.1771  220.5147 H   0  0  0  0  0  0  0  0  0  0  0  0
  142.4254   71.0603  220.8385 H   0  0  0  0  0  0  0  0  0  0  0  0
  141.9300   71.8667  219.3117 H   0  0  0  0  0  0  0  0  0  0  0  0
  143.3049   70.7107  219.3117 H   0  0  0  0  0  0  0  0  0  0  0  0
  138.0491   73.5290  223.2552 H   0  0  0  0  0  0  0  0  0  0  0  0
  137.7777   73.4848  221.4532 H   0  0  0  0  0  0  0  0  0  0  0  0
  136.9939   71.4370  222.7267 H   0  0  0  0  0  0  0  0  0  0  0  0
  138.0954   71.1186  221.3763 H   0  0  0  0  0  0  0  0  0  0  0  0
  1  2  1  0
  2  3  1  0
  3  4  2  0
  3  5  1  0
  5  6  1  0
  6  7  2  0
  7  8  1  0
  8  9  2  0
  9 10  1  0
 10 11  2  0
  5 12  1  0
 12 13  1  0
 13 14  1  0
 14 15  1  0
 15 16  1  0
 16 17  2  0
 16 18  1  0
 18 19  1  0
 18 20  1  0
 20 21  1  0
 21 22  2  0
 22 23  1  0
 23 24  2  0
 24 25  1  0
 25 26  2  0
 26 27  1  0
 15 28  1  0
 28 29  1  0
 11  6  1  0
 29 12  1  0
 26 21  1  0
  1 30  1  0
  1 31  1  0
  1 32  1  0
  2 33  1  0
  2 34  1  0
  7 35  1  0
  8 36  1  0
  9 37  1  0
 10 38  1  0
 11 39  1  0
 12 40  1  0
 13 41  1  0
 13 42  1  0
 14 43  1  0
 14 44  1  0
 18 45  1  1
 19 46  1  0
 19 47  1  0
 20 48  1  0
 20 49  1  0
 22 50  1  0
 23 51  1  0
 24 52  1  0
 25 53  1  0
 27 54  1  0
 27 55  1  0
 27 56  1  0
 28 57  1  0
 28 58  1  0
 29 59  1  0
 29 60  1  0
M  END
>  <smiles>  (45) 
CCC(=O)N(c1ccccc1)C1CCN(C(=O)[C@H](N)Cc2ccccc2C)CC1

>  <score_type>  (45) 
oracle

>  <origin>  (45) 
autodockgpu

>  <m_score__min__energy>  (45) 
-7.6100000000000003

>  <m_primary>  (45) 
energy

>  <rmsd>  (45) 
6.939964061807637

>  <m_score__min__rmsd>  (45) 
6.939964061807637

>  <meeko>  (45) 
{"free_energy": -6.52, "intermolecular_energy": -8.9, "internal_energy": -2.28, "cluster_size": 19, "cluster_id": 4, "rank_in_cluster": 15}

>  <energy>  (45) 
-6.4

>  <cluster_rmsd>  (45) 
0.47

>  <cluster>  (45) 
6

$$$$

     RDKit          3D

 60 62  0  0  0  0  0  0  0  0999 V2000
  142.1600   80.2470  218.6280 C   0  0  0  0  0  0  0  0  0  0  0  0
  141.2090   79.0520  218.7590 C   0  0  0  0  0  0  0  0  0  0  0  0
  141.8870   77.9690  219.4880 C   0  0  0  0  0  0  0  0  0  0  0  0
  142.9020   77.4490  218.9320 O   0  0  0  0  0  0  0  0  0  0  0  0
  141.5200   77.4490  220.7480 N   0  0  0  0  0  0  0  0  0  0  0  0
  141.4110   78.4410  221.8060 C   0  0  0  0  0  0  0  0  0  0  0  0
  140.2290   78.4660  222.5490 C   0  0  0  0  0  0  0  0  0  0  0  0
  140.1110   79.4080  223.5620 C   0  0  0  0  0  0  0  0  0  0  0  0
  141.1120   80.3110  223.8540 C   0  0  0  0  0  0  0  0  0  0  0  0
  142.2740   80.2530  223.0880 C   0  0  0  0  0  0  0  0  0  0  0  0
  142.4240   79.3250  222.0710 C   0  0  0  0  0  0  0  0  0  0  0  0
  141.2490   76.1010  221.0840 C   0  0  0  0  0  0  0  0  0  0  0  0
  139.8130   75.6720  221.0330 C   0  0  0  0  0  0  0  0  0  0  0  0
  139.6880   74.4470  221.9610 C   0  0  0  0  0  0  0  0  0  0  0  0
  140.6670   73.4380  221.6040 N   0  0  0  0  0  0  0  0  0  0  0  0
  140.4370   72.0390  221.7320 C   0  0  0  0  0  0  0  0  0  0  0  0
  141.3480   71.2150  221.3330 O   0  0  0  0  0  0  0  0  0  0  0  0
  139.2370   71.3880  222.2870 C   0  0  2  0  0  0  0  0  0  0  0  0
  138.3410   72.2290  222.9570 N   0  0  0  0  0  0  0  0  0  0  0  0
  139.5770   70.1090  223.0200 C   0  0  0  0  0  0  0  0  0  0  0  0
  139.8770   70.4180  224.4240 C   0  0  0  0  0  0  0  0  0  0  0  0
  140.7230   71.4930  224.6860 C   0  0  0  0  0  0  0  0  0  0  0  0
  141.0910   71.8500  225.9670 C   0  0  0  0  0  0  0  0  0  0  0  0
  140.6170   71.1340  227.0250 C   0  0  0  0  0  0  0  0  0  0  0  0
  139.7870   70.0770  226.8100 C   0  0  0  0  0  0  0  0  0  0  0  0
  139.4190   69.7230  225.5140 C   0  0  0  0  0  0  0  0  0  0  0  0
  138.4860   68.5800  225.3880 C   0  0  0  0  0  0  0  0  0  0  0  0
  142.0030   73.8040  221.1050 C   0  0  0  0  0  0  0  0  0  0  0  0
  141.9970   75.0610  220.2700 C   0  0  0  0  0  0  0  0  0  0  0  0
  142.4427   80.6022  219.6300 H   0  0  0  0  0  0  0  0  0  0  0  0
  143.0627   79.9389  218.0800 H   0  0  0  0  0  0  0  0  0  0  0  0
  141.6571   81.0575  218.0800 H   0  0  0  0  0  0  0  0  0  0  0  0
  140.3078   79.3582  219.3105 H   0  0  0  0  0  0  0  0  0  0  0  0
  140.9211   78.6986  217.7579 H   0  0  0  0  0  0  0  0  0  0  0  0
  139.4136   77.7586  222.3375 H   0  0  0  0  0  0  0  0  0  0  0  0
  139.1843   79.4353  224.1541 H   0  0  0  0  0  0  0  0  0  0  0  0
  140.9970   81.0491  224.6614 H   0  0  0  0  0  0  0  0  0  0  0  0
  143.0907   80.9601  223.2955 H   0  0  0  0  0  0  0  0  0  0  0  0
  143.3509   79.2977  221.4794 H   0  0  0  0  0  0  0  0  0  0  0  0
  141.6015   76.1254  222.1257 H   0  0  0  0  0  0  0  0  0  0  0  0
  139.1610   76.4844  221.3865 H   0  0  0  0  0  0  0  0  0  0  0  0
  139.5083   75.4249  220.0054 H   0  0  0  0  0  0  0  0  0  0  0  0
  139.8558   74.7623  223.0014 H   0  0  0  0  0  0  0  0  0  0  0  0
  138.6803   74.0195  221.8525 H   0  0  0  0  0  0  0  0  0  0  0  0
  138.6411   71.0934  221.4106 H   0  0  0  0  0  0  0  0  0  0  0  0
  137.5190   71.7440  223.3090 H   0  0  0  0  0  0  0  0  0  0  0  0
  138.7470   73.0070  223.4520 H   0  0  0  0  0  0  0  0  0  0  0  0
  138.7218   69.4189  222.9705 H   0  0  0  0  0  0  0  0  0  0  0  0
  140.4537   69.6382  222.5513 H   0  0  0  0  0  0  0  0  0  0  0  0
  141.1122   72.0791  223.8404 H   0  0  0  0  0  0  0  0  0  0  0  0
  141.7618   72.7059  226.1328 H   0  0  0  0  0  0  0  0  0  0  0  0
  140.9045   71.4096  228.0504 H   0  0  0  0  0  0  0  0  0  0  0  0
  139.4047   69.4991  227.6643 H   0  0  0  0  0  0  0  0  0  0  0  0
  138.1992   68.2286  226.3901 H   0  0  0  0  0  0  0  0  0  0  0  0
  137.5871   68.8991  224.8401 H   0  0  0  0  0  0  0  0  0  0  0  0
  138.9786   67.7632  224.8401 H   0  0  0  0  0  0  0  0  0  0  0  0
  142.6687   73.9590  221.9669 H   0  0  0  0  0  0  0  0  0  0  0  0
  142.3497   72.9827  220.4605 H   0  0  0  0  0  0  0  0  0  0  0  0
  143.0267   75.3958  220.0760 H   0  0  0  0  0  0  0  0  0  0  0  0
  141.5188   74.8936  219.2936 H   0  0  0  0  0  0  0  0  0  0  0  0
  1  2  1  0
  2  3  1  0
  3  4  2  0
  3  5  1  0
  5  6  1  0
  6  7  2  0
  7  8  1  0
  8  9  2  0
  9 10  1  0
 10 11  2  0
  5 12  1  0
 12 13  1  0
 13 14  1  0
 14 15  1  0
 15 16  1  0
 16 17  2  0
 16 18  1  0
 18 19  1  0
 18 20  1  0
 20 21  1  0
 21 22  2  0
 22 23  1  0
 23 24  2  0
 24 25  1  0
 25 26  2  0
 26 27  1  0
 15 28  1  0
 28 29  1  0
 11  6  1  0
 29 12  1  0
 26 21  1  0
  1 30  1  0
  1 31  1  0
  1 32  1  0
  2 33  1  0
  2 34  1  0
  7 35  1  0
  8 36  1  0
  9 37  1  0
 10 38  1  0
 11 39  1  0
 12 40  1  0
 13 41  1  0
 13 42  1  0
 14 43  1  0
 14 44  1  0
 18 45  1  6
 19 46  1  0
 19 47  1  0
 20 48  1  0
 20 49  1  0
 22 50  1  0
 23 51  1  0
 24 52  1  0
 25 53  1  0
 27 54  1  0
 27 55  1  0
 27 56  1  0
 28 57  1  0
 28 58  1  0
 29 59  1  0
 29 60  1  0
M  END
>  <smiles>  (46) 
CCC(=O)N(c1ccccc1)C1CCN(C(=O)[C@H](N)Cc2ccccc2C)CC1

>  <score_type>  (46) 
oracle

>  <origin>  (46) 
autodockgpu

>  <m_score__min__energy>  (46) 
-7.6100000000000003

>  <m_primary>  (46) 
energy

>  <rmsd>  (46) 
7.0136755452276995

>  <m_score__min__rmsd>  (46) 
7.0136755452276995

>  <meeko>  (46) 
{"free_energy": -7.19, "intermolecular_energy": -9.58, "internal_energy": -1.42, "cluster_size": 2, "cluster_id": 3, "rank_in_cluster": 1}

>  <energy>  (46) 
-6.37

>  <cluster_rmsd>  (46) 
0.36

>  <cluster>  (46) 
6

$$$$

     RDKit          3D

 60 62  0  0  0  0  0  0  0  0999 V2000
  140.4390   71.9610  222.6460 C   0  0  0  0  0  0  0  0  0  0  0  0
  141.2240   72.4090  221.4090 C   0  0  0  0  0  0  0  0  0  0  0  0
  141.2040   73.8780  221.3270 C   0  0  0  0  0  0  0  0  0  0  0  0
  140.3510   74.4830  222.0460 O   0  0  0  0  0  0  0  0  0  0  0  0
  142.0420   74.6840  220.5260 N   0  0  0  0  0  0  0  0  0  0  0  0
  143.2440   74.0210  220.0480 C   0  0  0  0  0  0  0  0  0  0  0  0
  144.3880   74.1020  220.8450 C   0  0  0  0  0  0  0  0  0  0  0  0
  145.5440   73.4740  220.4010 C   0  0  0  0  0  0  0  0  0  0  0  0
  145.5980   72.7820  219.2090 C   0  0  0  0  0  0  0  0  0  0  0  0
  144.4370   72.7260  218.4430 C   0  0  0  0  0  0  0  0  0  0  0  0
  143.2670   73.3420  218.8580 C   0  0  0  0  0  0  0  0  0  0  0  0
  141.8410   76.0320  220.1430 C   0  0  0  0  0  0  0  0  0  0  0  0
  141.2490   76.9410  221.1770 C   0  0  0  0  0  0  0  0  0  0  0  0
  140.5920   78.1080  220.4120 C   0  0  0  0  0  0  0  0  0  0  0  0
  141.5420   78.7140  219.4990 N   0  0  0  0  0  0  0  0  0  0  0  0
  141.5460   80.1000  219.1760 C   0  0  0  0  0  0  0  0  0  0  0  0
  142.4690   80.5590  218.3960 O   0  0  0  0  0  0  0  0  0  0  0  0
  140.5880   81.1190  219.6400 C   0  0  2  0  0  0  0  0  0  0  0  0
  140.0420   81.9400  218.6460 N   0  0  0  0  0  0  0  0  0  0  0  0
  141.0920   81.8530  220.8620 C   0  0  0  0  0  0  0  0  0  0  0  0
  141.2860   80.8950  221.9590 C   0  0  0  0  0  0  0  0  0  0  0  0
  142.5740   80.4130  222.1800 C   0  0  0  0  0  0  0  0  0  0  0  0
  142.8610   79.4910  223.1650 C   0  0  0  0  0  0  0  0  0  0  0  0
  141.8560   79.0240  223.9600 C   0  0  0  0  0  0  0  0  0  0  0  0
  140.5850   79.4720  223.7760 C   0  0  0  0  0  0  0  0  0  0  0  0
  140.3030   80.4050  222.7800 C   0  0  0  0  0  0  0  0  0  0  0  0
  138.8950   80.8530  222.6820 C   0  0  0  0  0  0  0  0  0  0  0  0
  142.5650   77.9120  218.8080 C   0  0  0  0  0  0  0  0  0  0  0  0
  143.0730   76.7600  219.6400 C   0  0  0  0  0  0  0  0  0  0  0  0
  140.9784   72.2688  223.5539 H   0  0  0  0  0  0  0  0  0  0  0  0
  139.4423   72.4263  222.6361 H   0  0  0  0  0  0  0  0  0  0  0  0
  140.3327   70.8662  222.6361 H   0  0  0  0  0  0  0  0  0  0  0  0
  142.2640   72.0593  221.4871 H   0  0  0  0  0  0  0  0  0  0  0  0
  140.7633   71.9829  220.5056 H   0  0  0  0  0  0  0  0  0  0  0  0
  144.3736   74.6489  221.7993 H   0  0  0  0  0  0  0  0  0  0  0  0
  146.4498   73.5304  221.0225 H   0  0  0  0  0  0  0  0  0  0  0  0
  146.5249   72.2922  218.8758 H   0  0  0  0  0  0  0  0  0  0  0  0
  144.4485   72.1810  217.4876 H   0  0  0  0  0  0  0  0  0  0  0  0
  142.3618   73.2862  218.2356 H   0  0  0  0  0  0  0  0  0  0  0  0
  141.1192   75.8586  219.3312 H   0  0  0  0  0  0  0  0  0  0  0  0
  140.4944   76.4023  221.7689 H   0  0  0  0  0  0  0  0  0  0  0  0
  142.0190   77.3057  221.8728 H   0  0  0  0  0  0  0  0  0  0  0  0
  139.7322   77.7281  219.8406 H   0  0  0  0  0  0  0  0  0  0  0  0
  140.2600   78.8666  221.1361 H   0  0  0  0  0  0  0  0  0  0  0  0
  139.7027   80.5517  219.9631 H   0  0  0  0  0  0  0  0  0  0  0  0
  140.6120   81.9910  217.8060 H   0  0  0  0  0  0  0  0  0  0  0  0
  139.0360   81.9780  218.6030 H   0  0  0  0  0  0  0  0  0  0  0  0
  142.0490   82.3422  220.6280 H   0  0  0  0  0  0  0  0  0  0  0  0
  140.3573   82.6141  221.1634 H   0  0  0  0  0  0  0  0  0  0  0  0
  143.3932   80.7815  221.5451 H   0  0  0  0  0  0  0  0  0  0  0  0
  143.8920   79.1353  223.3081 H   0  0  0  0  0  0  0  0  0  0  0  0
  142.0727   78.2873  224.7476 H   0  0  0  0  0  0  0  0  0  0  0  0
  139.7746   79.0955  224.4174 H   0  0  0  0  0  0  0  0  0  0  0  0
  138.4810   80.9847  223.6926 H   0  0  0  0  0  0  0  0  0  0  0  0
  138.8514   81.8094  222.1403 H   0  0  0  0  0  0  0  0  0  0  0  0
  138.3067   80.0977  222.1403 H   0  0  0  0  0  0  0  0  0  0  0  0
  142.1284   77.5097  217.8819 H   0  0  0  0  0  0  0  0  0  0  0  0
  143.4201   78.5736  218.6055 H   0  0  0  0  0  0  0  0  0  0  0  0
  143.6899   76.0877  219.0256 H   0  0  0  0  0  0  0  0  0  0  0  0
  143.7016   77.1104  220.4719 H   0  0  0  0  0  0  0  0  0  0  0  0
  1  2  1  0
  2  3  1  0
  3  4  2  0
  3  5  1  0
  5  6  1  0
  6  7  2  0
  7  8  1  0
  8  9  2  0
  9 10  1  0
 10 11  2  0
  5 12  1  0
 12 13  1  0
 13 14  1  0
 14 15  1  0
 15 16  1  0
 16 17  2  0
 16 18  1  0
 18 19  1  0
 18 20  1  0
 20 21  1  0
 21 22  2  0
 22 23  1  0
 23 24  2  0
 24 25  1  0
 25 26  2  0
 26 27  1  0
 15 28  1  0
 28 29  1  0
 11  6  1  0
 29 12  1  0
 26 21  1  0
  1 30  1  0
  1 31  1  0
  1 32  1  0
  2 33  1  0
  2 34  1  0
  7 35  1  0
  8 36  1  0
  9 37  1  0
 10 38  1  0
 11 39  1  0
 12 40  1  0
 13 41  1  0
 13 42  1  0
 14 43  1  0
 14 44  1  0
 18 45  1  1
 19 46  1  0
 19 47  1  0
 20 48  1  0
 20 49  1  0
 22 50  1  0
 23 51  1  0
 24 52  1  0
 25 53  1  0
 27 54  1  0
 27 55  1  0
 27 56  1  0
 28 57  1  0
 28 58  1  0
 29 59  1  0
 29 60  1  0
M  END
>  <smiles>  (47) 
CCC(=O)N(c1ccccc1)C1CCN(C(=O)[C@H](N)Cc2ccccc2C)CC1

>  <score_type>  (47) 
oracle

>  <origin>  (47) 
autodockgpu

>  <m_score__min__energy>  (47) 
-7.6100000000000003

>  <m_primary>  (47) 
energy

>  <rmsd>  (47) 
5.750797670679048

>  <m_score__min__rmsd>  (47) 
5.750797670679048

>  <meeko>  (47) 
{"free_energy": -6.68, "intermolecular_energy": -9.07, "internal_energy": -2.54, "cluster_size": 15, "cluster_id": 6, "rank_in_cluster": 4}

>  <energy>  (47) 
-6.26

>  <cluster_rmsd>  (47) 
0.51

>  <cluster>  (47) 
6

$$$$

     RDKit          3D

 60 62  0  0  0  0  0  0  0  0999 V2000
  140.6210   71.8920  222.4510 C   0  0  0  0  0  0  0  0  0  0  0  0
  141.0680   72.4600  221.0990 C   0  0  0  0  0  0  0  0  0  0  0  0
  141.1830   73.9230  221.2010 C   0  0  0  0  0  0  0  0  0  0  0  0
  140.4180   74.5040  222.0300 O   0  0  0  0  0  0  0  0  0  0  0  0
  142.0630   74.7480  220.4670 N   0  0  0  0  0  0  0  0  0  0  0  0
  143.2950   74.0990  220.0490 C   0  0  0  0  0  0  0  0  0  0  0  0
  143.3100   73.4870  218.7940 C   0  0  0  0  0  0  0  0  0  0  0  0
  144.4800   72.8640  218.3810 C   0  0  0  0  0  0  0  0  0  0  0  0
  145.6160   72.8290  219.1640 C   0  0  0  0  0  0  0  0  0  0  0  0
  145.5590   73.4500  220.4090 C   0  0  0  0  0  0  0  0  0  0  0  0
  144.4070   74.0810  220.8500 C   0  0  0  0  0  0  0  0  0  0  0  0
  141.8780   76.1020  220.0990 C   0  0  0  0  0  0  0  0  0  0  0  0
  141.4300   77.0360  221.1830 C   0  0  0  0  0  0  0  0  0  0  0  0
  140.7470   78.2270  220.4810 C   0  0  0  0  0  0  0  0  0  0  0  0
  141.6240   78.7940  219.4740 N   0  0  0  0  0  0  0  0  0  0  0  0
  141.6510   80.1780  219.1440 C   0  0  0  0  0  0  0  0  0  0  0  0
  142.5080   80.5980  218.2740 O   0  0  0  0  0  0  0  0  0  0  0  0
  140.7850   81.2350  219.6960 C   0  0  2  0  0  0  0  0  0  0  0  0
  140.2420   82.1270  218.7640 N   0  0  0  0  0  0  0  0  0  0  0  0
  141.3980   81.8870  220.9150 C   0  0  0  0  0  0  0  0  0  0  0  0
  141.3530   80.9490  222.0450 C   0  0  0  0  0  0  0  0  0  0  0  0
  142.5410   80.3250  222.4190 C   0  0  0  0  0  0  0  0  0  0  0  0
  142.6040   79.4070  223.4460 C   0  0  0  0  0  0  0  0  0  0  0  0
  141.4680   79.0880  224.1300 C   0  0  0  0  0  0  0  0  0  0  0  0
  140.2880   79.6770  223.7950 C   0  0  0  0  0  0  0  0  0  0  0  0
  140.2330   80.6040  222.7570 C   0  0  0  0  0  0  0  0  0  0  0  0
  138.9090   81.2120  222.4920 C   0  0  0  0  0  0  0  0  0  0  0  0
  142.5400   77.9500  218.6880 C   0  0  0  0  0  0  0  0  0  0  0  0
  143.0830   76.7800  219.4720 C   0  0  0  0  0  0  0  0  0  0  0  0
  141.0797   72.4749  223.2633 H   0  0  0  0  0  0  0  0  0  0  0  0
  139.5255   71.9522  222.5299 H   0  0  0  0  0  0  0  0  0  0  0  0
  140.9371   70.8413  222.5299 H   0  0  0  0  0  0  0  0  0  0  0  0
  142.0440   72.0328  220.8254 H   0  0  0  0  0  0  0  0  0  0  0  0
  140.3279   72.2012  220.3275 H   0  0  0  0  0  0  0  0  0  0  0  0
  142.4185   73.4982  218.1497 H   0  0  0  0  0  0  0  0  0  0  0  0
  144.5024   72.3804  217.3932 H   0  0  0  0  0  0  0  0  0  0  0  0
  146.5325   72.3291  218.8174 H   0  0  0  0  0  0  0  0  0  0  0  0
  146.4481   73.4394  221.0566 H   0  0  0  0  0  0  0  0  0  0  0  0
  144.3850   74.5649  221.8376 H   0  0  0  0  0  0  0  0  0  0  0  0
  141.0720   75.9567  219.3647 H   0  0  0  0  0  0  0  0  0  0  0  0
  140.7177   76.5292  221.8507 H   0  0  0  0  0  0  0  0  0  0  0  0
  142.2799   77.3701  221.7962 H   0  0  0  0  0  0  0  0  0  0  0  0
  139.8201   77.8809  220.0004 H   0  0  0  0  0  0  0  0  0  0  0  0
  140.5198   78.9993  221.2306 H   0  0  0  0  0  0  0  0  0  0  0  0
  139.8829   80.7114  220.0454 H   0  0  0  0  0  0  0  0  0  0  0  0
  140.7430   82.1410  217.8800 H   0  0  0  0  0  0  0  0  0  0  0  0
  139.2440   82.2630  218.8080 H   0  0  0  0  0  0  0  0  0  0  0  0
  142.4434   82.1544  220.7015 H   0  0  0  0  0  0  0  0  0  0  0  0
  140.8325   82.7956  221.1691 H   0  0  0  0  0  0  0  0  0  0  0  0
  143.4637   80.5740  221.8745 H   0  0  0  0  0  0  0  0  0  0  0  0
  143.5621   78.9361  223.7113 H   0  0  0  0  0  0  0  0  0  0  0  0
  141.5056   78.3563  224.9505 H   0  0  0  0  0  0  0  0  0  0  0  0
  139.3722   79.4195  224.3472 H   0  0  0  0  0  0  0  0  0  0  0  0
  138.4125   81.4400  223.4467 H   0  0  0  0  0  0  0  0  0  0  0  0
  139.0403   82.1400  221.9162 H   0  0  0  0  0  0  0  0  0  0  0  0
  138.2907   80.5076  221.9162 H   0  0  0  0  0  0  0  0  0  0  0  0
  141.9968   77.5637  217.8129 H   0  0  0  0  0  0  0  0  0  0  0  0
  143.3959   78.5763  218.3964 H   0  0  0  0  0  0  0  0  0  0  0  0
  143.6090   76.0828  218.8033 H   0  0  0  0  0  0  0  0  0  0  0  0
  143.8046   77.1063  220.2354 H   0  0  0  0  0  0  0  0  0  0  0  0
  1  2  1  0
  2  3  1  0
  3  4  2  0
  3  5  1  0
  5  6  1  0
  6  7  2  0
  7  8  1  0
  8  9  2  0
  9 10  1  0
 10 11  2  0
  5 12  1  0
 12 13  1  0
 13 14  1  0
 14 15  1  0
 15 16  1  0
 16 17  2  0
 16 18  1  0
 18 19  1  0
 18 20  1  0
 20 21  1  0
 21 22  2  0
 22 23  1  0
 23 24  2  0
 24 25  1  0
 25 26  2  0
 26 27  1  0
 15 28  1  0
 28 29  1  0
 11  6  1  0
 29 12  1  0
 26 21  1  0
  1 30  1  0
  1 31  1  0
  1 32  1  0
  2 33  1  0
  2 34  1  0
  7 35  1  0
  8 36  1  0
  9 37  1  0
 10 38  1  0
 11 39  1  0
 12 40  1  0
 13 41  1  0
 13 42  1  0
 14 43  1  0
 14 44  1  0
 18 45  1  1
 19 46  1  0
 19 47  1  0
 20 48  1  0
 20 49  1  0
 22 50  1  0
 23 51  1  0
 24 52  1  0
 25 53  1  0
 27 54  1  0
 27 55  1  0
 27 56  1  0
 28 57  1  0
 28 58  1  0
 29 59  1  0
 29 60  1  0
M  END
>  <smiles>  (48) 
CCC(=O)N(c1ccccc1)C1CCN(C(=O)[C@H](N)Cc2ccccc2C)CC1

>  <score_type>  (48) 
oracle

>  <origin>  (48) 
autodockgpu

>  <m_score__min__energy>  (48) 
-7.6100000000000003

>  <m_primary>  (48) 
energy

>  <rmsd>  (48) 
5.79154998993495

>  <m_score__min__rmsd>  (48) 
5.79154998993495

>  <meeko>  (48) 
{"free_energy": -6.7, "intermolecular_energy": -9.09, "internal_energy": -2.58, "cluster_size": 15, "cluster_id": 6, "rank_in_cluster": 3}

>  <energy>  (48) 
-6.19

>  <cluster_rmsd>  (48) 
0.84

>  <cluster>  (48) 
6

$$$$

     RDKit          3D

 60 62  0  0  0  0  0  0  0  0999 V2000
  139.1820   68.5710  221.6090 C   0  0  0  0  0  0  0  0  0  0  0  0
  137.9020   69.4110  221.6690 C   0  0  0  0  0  0  0  0  0  0  0  0
  137.9250   70.2460  222.8800 C   0  0  0  0  0  0  0  0  0  0  0  0
  136.8750   70.2540  223.5930 O   0  0  0  0  0  0  0  0  0  0  0  0
  139.0020   71.0410  223.3290 N   0  0  0  0  0  0  0  0  0  0  0  0
  139.6030   70.6000  224.5770 C   0  0  0  0  0  0  0  0  0  0  0  0
  140.4240   71.5040  225.2540 C   0  0  0  0  0  0  0  0  0  0  0  0
  141.0050   71.0970  226.4470 C   0  0  0  0  0  0  0  0  0  0  0  0
  140.8000   69.8410  226.9790 C   0  0  0  0  0  0  0  0  0  0  0  0
  139.9750   68.9690  226.2730 C   0  0  0  0  0  0  0  0  0  0  0  0
  139.3800   69.3450  225.0790 C   0  0  0  0  0  0  0  0  0  0  0  0
  139.5490   72.1900  222.7080 C   0  0  0  0  0  0  0  0  0  0  0  0
  140.6550   71.9580  221.7230 C   0  0  0  0  0  0  0  0  0  0  0  0
  141.4560   73.2730  221.6450 C   0  0  0  0  0  0  0  0  0  0  0  0
  140.5730   74.3890  221.3610 N   0  0  0  0  0  0  0  0  0  0  0  0
  140.9610   75.5220  220.5920 C   0  0  0  0  0  0  0  0  0  0  0  0
  140.0860   76.4390  220.3430 O   0  0  0  0  0  0  0  0  0  0  0  0
  142.2930   75.7890  220.0210 C   0  0  2  0  0  0  0  0  0  0  0  0
  142.5060   77.0910  219.5530 N   0  0  0  0  0  0  0  0  0  0  0  0
  142.7320   74.6950  219.0750 C   0  0  0  0  0  0  0  0  0  0  0  0
  143.8550   73.9580  219.6690 C   0  0  0  0  0  0  0  0  0  0  0  0
  144.7530   74.6700  220.4610 C   0  0  0  0  0  0  0  0  0  0  0  0
  145.8560   74.0810  221.0430 C   0  0  0  0  0  0  0  0  0  0  0  0
  146.0900   72.7520  220.8430 C   0  0  0  0  0  0  0  0  0  0  0  0
  145.2350   72.0230  220.0760 C   0  0  0  0  0  0  0  0  0  0  0  0
  144.1230   72.6240  219.4930 C   0  0  0  0  0  0  0  0  0  0  0  0
  143.2370   71.7370  218.7040 C   0  0  0  0  0  0  0  0  0  0  0  0
  139.1980   74.4370  221.8870 C   0  0  0  0  0  0  0  0  0  0  0  0
  138.5540   73.0750  221.9790 C   0  0  0  0  0  0  0  0  0  0  0  0
  139.5223   68.3477  222.6309 H   0  0  0  0  0  0  0  0  0  0  0  0
  138.9786   67.6302  221.0765 H   0  0  0  0  0  0  0  0  0  0  0  0
  139.9641   69.1320  221.0765 H   0  0  0  0  0  0  0  0  0  0  0  0
  137.8432   70.0553  220.7794 H   0  0  0  0  0  0  0  0  0  0  0  0
  137.0259   68.7464  221.6962 H   0  0  0  0  0  0  0  0  0  0  0  0
  140.6055   72.5119  224.8525 H   0  0  0  0  0  0  0  0  0  0  0  0
  141.6529   71.8022  226.9882 H   0  0  0  0  0  0  0  0  0  0  0  0
  141.2709   69.5392  227.9262 H   0  0  0  0  0  0  0  0  0  0  0  0
  139.7917   67.9602  226.6715 H   0  0  0  0  0  0  0  0  0  0  0  0
  138.7324   68.6397  224.5375 H   0  0  0  0  0  0  0  0  0  0  0  0
  139.9410   72.6843  223.6091 H   0  0  0  0  0  0  0  0  0  0  0  0
  141.3033   71.1381  222.0659 H   0  0  0  0  0  0  0  0  0  0  0  0
  140.2566   71.6763  220.7372 H   0  0  0  0  0  0  0  0  0  0  0  0
  141.9614   73.4467  222.6064 H   0  0  0  0  0  0  0  0  0  0  0  0
  142.1974   73.1909  220.8366 H   0  0  0  0  0  0  0  0  0  0  0  0
  142.9826   75.7515  220.8772 H   0  0  0  0  0  0  0  0  0  0  0  0
  141.6530   77.6400  219.4850 H   0  0  0  0  0  0  0  0  0  0  0  0
  143.3880   77.5140  219.7990 H   0  0  0  0  0  0  0  0  0  0  0  0
  141.8936   74.0055  218.8970 H   0  0  0  0  0  0  0  0  0  0  0  0
  143.0486   75.1401  218.1202 H   0  0  0  0  0  0  0  0  0  0  0  0
  144.5757   75.7426  220.6285 H   0  0  0  0  0  0  0  0  0  0  0  0
  146.5411   74.6777  221.6631 H   0  0  0  0  0  0  0  0  0  0  0  0
  146.9673   72.2713  221.3005 H   0  0  0  0  0  0  0  0  0  0  0  0
  145.4237   70.9513  219.9154 H   0  0  0  0  0  0  0  0  0  0  0  0
  142.6273   71.1266  219.3864 H   0  0  0  0  0  0  0  0  0  0  0  0
  142.5774   72.3476  218.0698 H   0  0  0  0  0  0  0  0  0  0  0  0
  143.8483   71.0781  218.0698 H   0  0  0  0  0  0  0  0  0  0  0  0
  139.2228   74.8817  222.8928 H   0  0  0  0  0  0  0  0  0  0  0  0
  138.5987   75.0378  221.1871 H   0  0  0  0  0  0  0  0  0  0  0  0
  137.6114   73.1352  222.5428 H   0  0  0  0  0  0  0  0  0  0  0  0
  138.3133   72.6750  220.9830 H   0  0  0  0  0  0  0  0  0  0  0  0
  1  2  1  0
  2  3  1  0
  3  4  2  0
  3  5  1  0
  5  6  1  0
  6  7  2  0
  7  8  1  0
  8  9  2  0
  9 10  1  0
 10 11  2  0
  5 12  1  0
 12 13  1  0
 13 14  1  0
 14 15  1  0
 15 16  1  0
 16 17  2  0
 16 18  1  0
 18 19  1  0
 18 20  1  0
 20 21  1  0
 21 22  2  0
 22 23  1  0
 23 24  2  0
 24 25  1  0
 25 26  2  0
 26 27  1  0
 15 28  1  0
 28 29  1  0
 11  6  1  0
 29 12  1  0
 26 21  1  0
  1 30  1  0
  1 31  1  0
  1 32  1  0
  2 33  1  0
  2 34  1  0
  7 35  1  0
  8 36  1  0
  9 37  1  0
 10 38  1  0
 11 39  1  0
 12 40  1  0
 13 41  1  0
 13 42  1  0
 14 43  1  0
 14 44  1  0
 18 45  1  1
 19 46  1  0
 19 47  1  0
 20 48  1  0
 20 49  1  0
 22 50  1  0
 23 51  1  0
 24 52  1  0
 25 53  1  0
 27 54  1  0
 27 55  1  0
 27 56  1  0
 28 57  1  0
 28 58  1  0
 29 59  1  0
 29 60  1  0
M  END
>  <smiles>  (49) 
CCC(=O)N(c1ccccc1)C1CCN(C(=O)[C@H](N)Cc2ccccc2C)CC1

>  <score_type>  (49) 
oracle

>  <origin>  (49) 
autodockgpu

>  <m_score__min__energy>  (49) 
-7.6100000000000003

>  <m_primary>  (49) 
energy

>  <rmsd>  (49) 
6.218262028947554

>  <m_score__min__rmsd>  (49) 
6.218262028947554

>  <meeko>  (49) 
{"free_energy": -6.46, "intermolecular_energy": -8.84, "internal_energy": -2.62, "cluster_size": 19, "cluster_id": 4, "rank_in_cluster": 16}

>  <energy>  (49) 
-6.65

>  <cluster_rmsd>  (49) 
0.0

>  <cluster>  (49) 
7

$$$$

     RDKit          3D

 60 62  0  0  0  0  0  0  0  0999 V2000
  146.8560   70.0100  215.8520 C   0  0  0  0  0  0  0  0  0  0  0  0
  145.5750   70.8430  215.9680 C   0  0  0  0  0  0  0  0  0  0  0  0
  145.3710   71.2250  217.3740 C   0  0  0  0  0  0  0  0  0  0  0  0
  145.9430   72.2850  217.7710 O   0  0  0  0  0  0  0  0  0  0  0  0
  144.5980   70.5260  218.3280 N   0  0  0  0  0  0  0  0  0  0  0  0
  144.9810   69.1370  218.5190 C   0  0  0  0  0  0  0  0  0  0  0  0
  144.2840   68.1690  217.7920 C   0  0  0  0  0  0  0  0  0  0  0  0
  144.6390   66.8370  217.9650 C   0  0  0  0  0  0  0  0  0  0  0  0
  145.6460   66.4450  218.8230 C   0  0  0  0  0  0  0  0  0  0  0  0
  146.3150   67.4410  219.5290 C   0  0  0  0  0  0  0  0  0  0  0  0
  145.9850   68.7790  219.3790 C   0  0  0  0  0  0  0  0  0  0  0  0
  143.5210   71.0220  219.1020 C   0  0  0  0  0  0  0  0  0  0  0  0
  142.6410   70.0010  219.7580 C   0  0  0  0  0  0  0  0  0  0  0  0
  141.2840   70.6890  220.0110 C   0  0  0  0  0  0  0  0  0  0  0  0
  141.4720   71.9300  220.7370 N   0  0  0  0  0  0  0  0  0  0  0  0
  140.5340   72.4400  221.6780 C   0  0  0  0  0  0  0  0  0  0  0  0
  140.8160   73.5250  222.3190 O   0  0  0  0  0  0  0  0  0  0  0  0
  139.2250   71.8580  222.0260 C   0  0  2  0  0  0  0  0  0  0  0  0
  138.3490   72.6990  222.7220 N   0  0  0  0  0  0  0  0  0  0  0  0
  139.3620   70.4670  222.6030 C   0  0  0  0  0  0  0  0  0  0  0  0
  139.6730   70.5610  224.0350 C   0  0  0  0  0  0  0  0  0  0  0  0
  140.7110   71.4090  224.4190 C   0  0  0  0  0  0  0  0  0  0  0  0
  141.1030   71.5500  225.7340 C   0  0  0  0  0  0  0  0  0  0  0  0
  140.4610   70.8400  226.7050 C   0  0  0  0  0  0  0  0  0  0  0  0
  139.4420   70.0030  226.3700 C   0  0  0  0  0  0  0  0  0  0  0  0
  139.0510   69.8660  225.0400 C   0  0  0  0  0  0  0  0  0  0  0  0
  137.9110   68.9560  224.7830 C   0  0  0  0  0  0  0  0  0  0  0  0
  142.6570   72.7780  220.5200 C   0  0  0  0  0  0  0  0  0  0  0  0
  143.9020   71.9840  220.2120 C   0  0  0  0  0  0  0  0  0  0  0  0
  147.2283   69.7679  216.8584 H   0  0  0  0  0  0  0  0  0  0  0  0
  146.6400   69.0791  215.3072 H   0  0  0  0  0  0  0  0  0  0  0  0
  147.6192   70.5850  215.3072 H   0  0  0  0  0  0  0  0  0  0  0  0
  145.6681   71.7487  215.3507 H   0  0  0  0  0  0  0  0  0  0  0  0
  144.7166   70.2508  215.6180 H   0  0  0  0  0  0  0  0  0  0  0  0
  143.4763   68.4535  217.1016 H   0  0  0  0  0  0  0  0  0  0  0  0
  144.0973   66.0664  217.3969 H   0  0  0  0  0  0  0  0  0  0  0  0
  145.9105   65.3842  218.9447 H   0  0  0  0  0  0  0  0  0  0  0  0
  147.1229   67.1602  220.2208 H   0  0  0  0  0  0  0  0  0  0  0  0
  146.5267   69.5492  219.9477 H   0  0  0  0  0  0  0  0  0  0  0  0
  142.9727   71.5352  218.2983 H   0  0  0  0  0  0  0  0  0  0  0  0
  142.5089   69.1321  219.0965 H   0  0  0  0  0  0  0  0  0  0  0  0
  143.0843   69.6389  220.6973 H   0  0  0  0  0  0  0  0  0  0  0  0
  140.8013   70.9035  219.0461 H   0  0  0  0  0  0  0  0  0  0  0  0
  140.6510   70.0182  220.6105 H   0  0  0  0  0  0  0  0  0  0  0  0
  138.6987   71.7449  221.0667 H   0  0  0  0  0  0  0  0  0  0  0  0
  137.8360   72.2240  223.4600 H   0  0  0  0  0  0  0  0  0  0  0  0
  138.6340   73.6610  222.8120 H   0  0  0  0  0  0  0  0  0  0  0  0
  138.4178   69.9191  222.4678 H   0  0  0  0  0  0  0  0  0  0  0  0
  140.1725   69.9329  222.0854 H   0  0  0  0  0  0  0  0  0  0  0  0
  141.2368   71.9869  223.6447 H   0  0  0  0  0  0  0  0  0  0  0  0
  141.9268   72.2297  225.9971 H   0  0  0  0  0  0  0  0  0  0  0  0
  140.7662   70.9437  227.7567 H   0  0  0  0  0  0  0  0  0  0  0  0
  138.9239   69.4312  227.1539 H   0  0  0  0  0  0  0  0  0  0  0  0
  137.4881   68.6185  225.7407 H   0  0  0  0  0  0  0  0  0  0  0  0
  137.1388   69.4888  224.2087 H   0  0  0  0  0  0  0  0  0  0  0  0
  138.2594   68.0849  224.2087 H   0  0  0  0  0  0  0  0  0  0  0  0
  142.4546   73.4538  219.6760 H   0  0  0  0  0  0  0  0  0  0  0  0
  142.8416   73.3302  221.4533 H   0  0  0  0  0  0  0  0  0  0  0  0
  144.7089   72.6528  219.8779 H   0  0  0  0  0  0  0  0  0  0  0  0
  144.2686   71.4490  221.1005 H   0  0  0  0  0  0  0  0  0  0  0  0
  1  2  1  0
  2  3  1  0
  3  4  2  0
  3  5  1  0
  5  6  1  0
  6  7  2  0
  7  8  1  0
  8  9  2  0
  9 10  1  0
 10 11  2  0
  5 12  1  0
 12 13  1  0
 13 14  1  0
 14 15  1  0
 15 16  1  0
 16 17  2  0
 16 18  1  0
 18 19  1  0
 18 20  1  0
 20 21  1  0
 21 22  2  0
 22 23  1  0
 23 24  2  0
 24 25  1  0
 25 26  2  0
 26 27  1  0
 15 28  1  0
 28 29  1  0
 11  6  1  0
 29 12  1  0
 26 21  1  0
  1 30  1  0
  1 31  1  0
  1 32  1  0
  2 33  1  0
  2 34  1  0
  7 35  1  0
  8 36  1  0
  9 37  1  0
 10 38  1  0
 11 39  1  0
 12 40  1  0
 13 41  1  0
 13 42  1  0
 14 43  1  0
 14 44  1  0
 18 45  1  6
 19 46  1  0
 19 47  1  0
 20 48  1  0
 20 49  1  0
 22 50  1  0
 23 51  1  0
 24 52  1  0
 25 53  1  0
 27 54  1  0
 27 55  1  0
 27 56  1  0
 28 57  1  0
 28 58  1  0
 29 59  1  0
 29 60  1  0
M  END
>  <smiles>  (50) 
CCC(=O)N(c1ccccc1)C1CCN(C(=O)[C@H](N)Cc2ccccc2C)CC1

>  <score_type>  (50) 
oracle

>  <origin>  (50) 
autodockgpu

>  <m_score__min__energy>  (50) 
-7.6100000000000003

>  <m_primary>  (50) 
energy

>  <rmsd>  (50) 
8.533452812269537

>  <m_score__min__rmsd>  (50) 
8.533452812269537

>  <meeko>  (50) 
{"free_energy": -6.92, "intermolecular_energy": -9.31, "internal_energy": -2.18, "cluster_size": 5, "cluster_id": 2, "rank_in_cluster": 4}

>  <energy>  (50) 
-5.9

>  <cluster_rmsd>  (50) 
0.0

>  <cluster>  (50) 
8

$$$$
