
     RDKit          3D

 47 50  0  0  0  0  0  0  0  0999 V2000
  140.1670   72.4030  220.6300 O   0  0  0  0  0  0  0  0  0  0  0  0
  139.7840   72.7880  221.7830 C   0  0  0  0  0  0  0  0  0  0  0  0
  139.2560   74.0940  221.9810 N   0  0  0  0  0  0  0  0  0  0  0  0
  139.1520   75.0010  220.8470 C   0  0  0  0  0  0  0  0  0  0  0  0
  140.3050   75.9090  220.8390 C   0  0  0  0  0  0  0  0  0  0  0  0
  140.4180   76.8090  221.7080 O   0  0  0  0  0  0  0  0  0  0  0  0
  141.3320   75.8190  219.8660 N   0  0  0  0  0  0  0  0  0  0  0  0
  141.1030   75.4980  218.4550 C   0  0  0  0  0  0  0  0  0  0  0  0
  142.3200   76.0040  217.7050 C   0  0  0  0  0  0  0  0  0  0  0  0
  143.1190   76.7010  218.7600 C   0  0  0  0  0  0  0  0  0  0  0  0
  142.7740   76.0220  220.0590 C   0  0  2  0  0  0  0  0  0  0  0  0
  143.4720   74.7490  220.2770 C   0  0  0  0  0  0  0  0  0  0  0  0
  144.8270   74.6130  220.4630 C   0  0  0  0  0  0  0  0  0  0  0  0
  145.4490   73.3960  220.6650 C   0  0  0  0  0  0  0  0  0  0  0  0
  144.6520   72.2750  220.6790 C   0  0  0  0  0  0  0  0  0  0  0  0
  143.2840   72.4080  220.4910 C   0  0  0  0  0  0  0  0  0  0  0  0
  142.7360   73.6210  220.2980 N   0  0  0  0  0  0  0  0  0  0  0  0
  139.8870   71.8820  222.9200 C   0  0  0  0  0  0  0  0  0  0  0  0
  139.4640   70.5670  222.7940 C   0  0  0  0  0  0  0  0  0  0  0  0
  139.5240   69.6530  223.8080 C   0  0  0  0  0  0  0  0  0  0  0  0
  140.0320   70.0510  225.0210 C   0  0  0  0  0  0  0  0  0  0  0  0
  140.1030   69.1450  226.0610 C   0  0  0  0  0  0  0  0  0  0  0  0
  140.6240   69.5990  227.2650 C   0  0  0  0  0  0  0  0  0  0  0  0
  140.7220   68.3450  228.7000 Br  0  0  0  0  0  0  0  0  0  0  0  0
  141.0560   70.8980  227.4310 C   0  0  0  0  0  0  0  0  0  0  0  0
  140.9720   71.7890  226.3660 C   0  0  0  0  0  0  0  0  0  0  0  0
  140.4540   71.3640  225.1430 C   0  0  0  0  0  0  0  0  0  0  0  0
  140.3790   72.2460  224.1150 N   0  0  0  0  0  0  0  0  0  0  0  0
  138.9620   74.3510  222.9450 H   0  0  0  0  0  0  0  0  0  0  0  0
  139.1364   74.4200  219.9131 H   0  0  0  0  0  0  0  0  0  0  0  0
  138.2247   75.5868  220.9301 H   0  0  0  0  0  0  0  0  0  0  0  0
  140.9981   74.4110  218.3231 H   0  0  0  0  0  0  0  0  0  0  0  0
  140.1790   75.9639  218.0820 H   0  0  0  0  0  0  0  0  0  0  0  0
  142.8883   75.1688  217.2697 H   0  0  0  0  0  0  0  0  0  0  0  0
  142.0598   76.6611  216.8621 H   0  0  0  0  0  0  0  0  0  0  0  0
  144.1947   76.6033  218.5517 H   0  0  0  0  0  0  0  0  0  0  0  0
  142.8896   77.7763  218.7943 H   0  0  0  0  0  0  0  0  0  0  0  0
  143.0647   76.6037  220.9462 H   0  0  0  0  0  0  0  0  0  0  0  0
  145.4486   75.5204  220.4504 H   0  0  0  0  0  0  0  0  0  0  0  0
  146.5373   73.3263  220.8088 H   0  0  0  0  0  0  0  0  0  0  0  0
  145.0958   71.2811  220.8380 H   0  0  0  0  0  0  0  0  0  0  0  0
  142.6425   71.5145  220.4998 H   0  0  0  0  0  0  0  0  0  0  0  0
  139.0580   70.2421  221.8247 H   0  0  0  0  0  0  0  0  0  0  0  0
  139.1734   68.6214  223.6565 H   0  0  0  0  0  0  0  0  0  0  0  0
  139.7608   68.1066  225.9403 H   0  0  0  0  0  0  0  0  0  0  0  0
  141.4639   71.2271  228.3981 H   0  0  0  0  0  0  0  0  0  0  0  0
  141.3137   72.8274  226.4884 H   0  0  0  0  0  0  0  0  0  0  0  0
  1  2  2  0
  2  3  1  0
  3  4  1  0
  4  5  1  0
  5  6  2  0
  5  7  1  0
  7  8  1  0
  8  9  1  0
  9 10  1  0
 10 11  1  0
 11 12  1  0
 12 13  2  0
 13 14  1  0
 14 15  2  0
 15 16  1  0
 16 17  2  0
  2 18  1  0
 18 19  2  0
 19 20  1  0
 20 21  2  0
 21 22  1  0
 22 23  2  0
 23 24  1  0
 23 25  1  0
 25 26  2  0
 26 27  1  0
 27 28  2  0
 11  7  1  0
 17 12  1  0
 28 18  1  0
 27 21  1  0
  3 29  1  0
  4 30  1  0
  4 31  1  0
  8 32  1  0
  8 33  1  0
  9 34  1  0
  9 35  1  0
 10 36  1  0
 10 37  1  0
 11 38  1  1
 13 39  1  0
 14 40  1  0
 15 41  1  0
 16 42  1  0
 19 43  1  0
 20 44  1  0
 22 45  1  0
 25 46  1  0
 26 47  1  0
M  END
>  <smiles>  (1) 
O=C(NCC(=O)N1CCCC1c1ccccn1)c1ccc2cc(Br)ccc2n1

>  <score_type>  (1) 
oracle

>  <origin>  (1) 
autodockgpu

>  <m_score__min__energy>  (1) 
-8.8000000000000007

>  <m_primary>  (1) 
energy

>  <rmsd>  (1) 
3.936504653974235

>  <m_score__min__rmsd>  (1) 
3.936504653974235

>  <meeko>  (1) 
{"free_energy": -8.02, "intermolecular_energy": -9.51, "internal_energy": -1.91, "cluster_size": 4, "cluster_id": 3, "rank_in_cluster": 1}

>  <energy>  (1) 
-8.8

>  <cluster_rmsd>  (1) 
0.0

>  <cluster>  (1) 
1

$$$$

     RDKit          3D

 47 50  0  0  0  0  0  0  0  0999 V2000
  142.1390   73.2780  220.8160 O   0  0  0  0  0  0  0  0  0  0  0  0
  141.3140   73.9860  221.4810 C   0  0  0  0  0  0  0  0  0  0  0  0
  140.3480   73.3800  222.3310 N   0  0  0  0  0  0  0  0  0  0  0  0
  140.3040   71.9300  222.4420 C   0  0  0  0  0  0  0  0  0  0  0  0
  138.9900   71.5160  222.9470 C   0  0  0  0  0  0  0  0  0  0  0  0
  137.9360   71.9730  222.4390 O   0  0  0  0  0  0  0  0  0  0  0  0
  138.8460   70.5960  224.0160 N   0  0  0  0  0  0  0  0  0  0  0  0
  137.5590   70.2130  224.6040 C   0  0  0  0  0  0  0  0  0  0  0  0
  137.7950   68.8900  225.3070 C   0  0  0  0  0  0  0  0  0  0  0  0
  139.2100   68.5520  224.9560 C   0  0  0  0  0  0  0  0  0  0  0  0
  139.9060   69.8670  224.7240 C   0  0  2  0  0  0  0  0  0  0  0  0
  140.3070   70.5610  225.9550 C   0  0  0  0  0  0  0  0  0  0  0  0
  141.0500   71.7160  226.0040 C   0  0  0  0  0  0  0  0  0  0  0  0
  141.4080   72.3400  227.1830 C   0  0  0  0  0  0  0  0  0  0  0  0
  140.9890   71.7600  228.3570 C   0  0  0  0  0  0  0  0  0  0  0  0
  140.2390   70.5930  228.3120 C   0  0  0  0  0  0  0  0  0  0  0  0
  139.9210   70.0310  227.1320 N   0  0  0  0  0  0  0  0  0  0  0  0
  141.3550   75.4380  221.3720 C   0  0  0  0  0  0  0  0  0  0  0  0
  141.9780   76.0310  220.2820 C   0  0  0  0  0  0  0  0  0  0  0  0
  142.0620   77.3830  220.1020 C   0  0  0  0  0  0  0  0  0  0  0  0
  141.5010   78.2070  221.0480 C   0  0  0  0  0  0  0  0  0  0  0  0
  141.5740   79.5770  220.8870 C   0  0  0  0  0  0  0  0  0  0  0  0
  140.9910   80.3630  221.8730 C   0  0  0  0  0  0  0  0  0  0  0  0
  141.0920   82.2560  221.6490 Br  0  0  0  0  0  0  0  0  0  0  0  0
  140.3630   79.8140  222.9700 C   0  0  0  0  0  0  0  0  0  0  0  0
  140.3050   78.4300  223.1050 C   0  0  0  0  0  0  0  0  0  0  0  0
  140.8800   77.6120  222.1330 C   0  0  0  0  0  0  0  0  0  0  0  0
  140.8150   76.2660  222.2810 N   0  0  0  0  0  0  0  0  0  0  0  0
  139.7010   74.0110  222.8470 H   0  0  0  0  0  0  0  0  0  0  0  0
  140.4739   71.4815  221.4521 H   0  0  0  0  0  0  0  0  0  0  0  0
  141.0863   71.5924  223.1377 H   0  0  0  0  0  0  0  0  0  0  0  0
  137.2269   70.9745  225.3250 H   0  0  0  0  0  0  0  0  0  0  0  0
  136.7762   70.1261  223.8361 H   0  0  0  0  0  0  0  0  0  0  0  0
  137.6751   68.9967  226.3952 H   0  0  0  0  0  0  0  0  0  0  0  0
  137.0812   68.1107  225.0017 H   0  0  0  0  0  0  0  0  0  0  0  0
  139.6890   68.0068  225.7826 H   0  0  0  0  0  0  0  0  0  0  0  0
  139.2612   67.9068  224.0665 H   0  0  0  0  0  0  0  0  0  0  0  0
  140.8619   69.7667  224.1890 H   0  0  0  0  0  0  0  0  0  0  0  0
  141.3765   72.1668  225.0552 H   0  0  0  0  0  0  0  0  0  0  0  0
  142.0046   73.2642  227.1827 H   0  0  0  0  0  0  0  0  0  0  0  0
  141.2460   72.2171  229.3240 H   0  0  0  0  0  0  0  0  0  0  0  0
  139.9021   70.1242  229.2483 H   0  0  0  0  0  0  0  0  0  0  0  0
  142.4288   75.3764  219.5215 H   0  0  0  0  0  0  0  0  0  0  0  0
  142.5674   77.8024  219.2196 H   0  0  0  0  0  0  0  0  0  0  0  0
  142.0724   80.0263  220.0154 H   0  0  0  0  0  0  0  0  0  0  0  0
  139.9110   80.4647  223.7331 H   0  0  0  0  0  0  0  0  0  0  0  0
  139.8063   77.9821  223.9771 H   0  0  0  0  0  0  0  0  0  0  0  0
  1  2  2  0
  2  3  1  0
  3  4  1  0
  4  5  1  0
  5  6  2  0
  5  7  1  0
  7  8  1  0
  8  9  1  0
  9 10  1  0
 10 11  1  0
 11 12  1  0
 12 13  2  0
 13 14  1  0
 14 15  2  0
 15 16  1  0
 16 17  2  0
  2 18  1  0
 18 19  2  0
 19 20  1  0
 20 21  2  0
 21 22  1  0
 22 23  2  0
 23 24  1  0
 23 25  1  0
 25 26  2  0
 26 27  1  0
 27 28  2  0
 11  7  1  0
 17 12  1  0
 28 18  1  0
 27 21  1  0
  3 29  1  0
  4 30  1  0
  4 31  1  0
  8 32  1  0
  8 33  1  0
  9 34  1  0
  9 35  1  0
 10 36  1  0
 10 37  1  0
 11 38  1  6
 13 39  1  0
 14 40  1  0
 15 41  1  0
 16 42  1  0
 19 43  1  0
 20 44  1  0
 22 45  1  0
 25 46  1  0
 26 47  1  0
M  END
>  <smiles>  (2) 
O=C(NCC(=O)N1CCCC1c1ccccn1)c1ccc2cc(Br)ccc2n1

>  <score_type>  (2) 
oracle

>  <origin>  (2) 
autodockgpu

>  <m_score__min__energy>  (2) 
-8.8000000000000007

>  <m_primary>  (2) 
energy

>  <rmsd>  (2) 
9.108605723103613

>  <m_score__min__rmsd>  (2) 
9.108605723103613

>  <meeko>  (2) 
{"free_energy": -8.33, "intermolecular_energy": -9.82, "internal_energy": -1.56, "cluster_size": 10, "cluster_id": 2, "rank_in_cluster": 6}

>  <energy>  (2) 
-8.79

>  <cluster_rmsd>  (2) 
0.1

>  <cluster>  (2) 
1

$$$$

     RDKit          3D

 47 50  0  0  0  0  0  0  0  0999 V2000
  139.1820   71.9040  220.6700 O   0  0  0  0  0  0  0  0  0  0  0  0
  139.3410   72.4000  221.8330 C   0  0  0  0  0  0  0  0  0  0  0  0
  139.2870   73.8070  222.0420 N   0  0  0  0  0  0  0  0  0  0  0  0
  139.0470   74.6880  220.9100 C   0  0  0  0  0  0  0  0  0  0  0  0
  139.3570   76.0700  221.2900 C   0  0  0  0  0  0  0  0  0  0  0  0
  138.5860   76.7160  222.0430 O   0  0  0  0  0  0  0  0  0  0  0  0
  140.5230   76.7370  220.8350 N   0  0  0  0  0  0  0  0  0  0  0  0
  141.7770   76.0610  220.4940 C   0  0  0  0  0  0  0  0  0  0  0  0
  142.5400   77.0180  219.5970 C   0  0  0  0  0  0  0  0  0  0  0  0
  141.5830   78.1500  219.3950 C   0  0  0  0  0  0  0  0  0  0  0  0
  140.7080   78.1790  220.6200 C   0  0  2  0  0  0  0  0  0  0  0  0
  141.3270   78.8220  221.7870 C   0  0  0  0  0  0  0  0  0  0  0  0
  141.1800   78.4060  223.0880 C   0  0  0  0  0  0  0  0  0  0  0  0
  141.7780   79.0380  224.1610 C   0  0  0  0  0  0  0  0  0  0  0  0
  142.5590   80.1370  223.8900 C   0  0  0  0  0  0  0  0  0  0  0  0
  142.7100   80.5600  222.5770 C   0  0  0  0  0  0  0  0  0  0  0  0
  142.1010   79.9030  221.5740 N   0  0  0  0  0  0  0  0  0  0  0  0
  139.5820   71.5200  222.9690 C   0  0  0  0  0  0  0  0  0  0  0  0
  139.2790   70.1700  222.8710 C   0  0  0  0  0  0  0  0  0  0  0  0
  139.4730   69.2760  223.8860 C   0  0  0  0  0  0  0  0  0  0  0  0
  139.9980   69.7330  225.0720 C   0  0  0  0  0  0  0  0  0  0  0  0
  140.2030   68.8480  226.1120 C   0  0  0  0  0  0  0  0  0  0  0  0
  140.7340   69.3620  227.2870 C   0  0  0  0  0  0  0  0  0  0  0  0
  141.0170   68.1370  228.7240 Br  0  0  0  0  0  0  0  0  0  0  0  0
  141.0490   70.6970  227.4250 C   0  0  0  0  0  0  0  0  0  0  0  0
  140.8310   71.5650  226.3600 C   0  0  0  0  0  0  0  0  0  0  0  0
  140.2990   71.0800  225.1650 C   0  0  0  0  0  0  0  0  0  0  0  0
  140.0930   71.9410  224.1370 N   0  0  0  0  0  0  0  0  0  0  0  0
  139.4250   74.1510  223.0140 H   0  0  0  0  0  0  0  0  0  0  0  0
  139.6884   74.3867  220.0687 H   0  0  0  0  0  0  0  0  0  0  0  0
  137.9910   74.6190  220.6099 H   0  0  0  0  0  0  0  0  0  0  0  0
  142.3558   75.8478  221.4048 H   0  0  0  0  0  0  0  0  0  0  0  0
  141.5920   75.1001  219.9916 H   0  0  0  0  0  0  0  0  0  0  0  0
  143.4614   77.3655  220.0872 H   0  0  0  0  0  0  0  0  0  0  0  0
  142.8596   76.5548  218.6518 H   0  0  0  0  0  0  0  0  0  0  0  0
  142.1298   79.0990  219.2936 H   0  0  0  0  0  0  0  0  0  0  0  0
  140.9887   78.0160  218.4791 H   0  0  0  0  0  0  0  0  0  0  0  0
  139.7892   78.7689  220.4868 H   0  0  0  0  0  0  0  0  0  0  0  0
  140.5535   77.5237  223.2856 H   0  0  0  0  0  0  0  0  0  0  0  0
  141.6353   78.6769  225.1902 H   0  0  0  0  0  0  0  0  0  0  0  0
  143.0599   80.6764  224.7074 H   0  0  0  0  0  0  0  0  0  0  0  0
  143.3325   81.4393  222.3549 H   0  0  0  0  0  0  0  0  0  0  0  0
  138.8596   69.7987  221.9243 H   0  0  0  0  0  0  0  0  0  0  0  0
  139.2150   68.2145  223.7573 H   0  0  0  0  0  0  0  0  0  0  0  0
  139.9559   67.7806  226.0135 H   0  0  0  0  0  0  0  0  0  0  0  0
  141.4693   71.0728  228.3695 H   0  0  0  0  0  0  0  0  0  0  0  0
  141.0777   72.6323  226.4600 H   0  0  0  0  0  0  0  0  0  0  0  0
  1  2  2  0
  2  3  1  0
  3  4  1  0
  4  5  1  0
  5  6  2  0
  5  7  1  0
  7  8  1  0
  8  9  1  0
  9 10  1  0
 10 11  1  0
 11 12  1  0
 12 13  2  0
 13 14  1  0
 14 15  2  0
 15 16  1  0
 16 17  2  0
  2 18  1  0
 18 19  2  0
 19 20  1  0
 20 21  2  0
 21 22  1  0
 22 23  2  0
 23 24  1  0
 23 25  1  0
 25 26  2  0
 26 27  1  0
 27 28  2  0
 11  7  1  0
 17 12  1  0
 28 18  1  0
 27 21  1  0
  3 29  1  0
  4 30  1  0
  4 31  1  0
  8 32  1  0
  8 33  1  0
  9 34  1  0
  9 35  1  0
 10 36  1  0
 10 37  1  0
 11 38  1  6
 13 39  1  0
 14 40  1  0
 15 41  1  0
 16 42  1  0
 19 43  1  0
 20 44  1  0
 22 45  1  0
 25 46  1  0
 26 47  1  0
M  END
>  <smiles>  (3) 
O=C(NCC(=O)N1CCCC1c1ccccn1)c1ccc2cc(Br)ccc2n1

>  <score_type>  (3) 
oracle

>  <origin>  (3) 
autodockgpu

>  <m_score__min__energy>  (3) 
-8.8000000000000007

>  <m_primary>  (3) 
energy

>  <rmsd>  (3) 
2.57932028132151

>  <m_score__min__rmsd>  (3) 
2.57932028132151

>  <meeko>  (3) 
{"free_energy": -8.67, "intermolecular_energy": -10.16, "internal_energy": -1.53, "cluster_size": 25, "cluster_id": 1, "rank_in_cluster": 10}

>  <energy>  (3) 
-8.79

>  <cluster_rmsd>  (3) 
0.54

>  <cluster>  (3) 
1

$$$$

     RDKit          3D

 47 50  0  0  0  0  0  0  0  0999 V2000
  133.4680   70.2250  226.6350 O   0  0  0  0  0  0  0  0  0  0  0  0
  133.8240   71.3320  226.1120 C   0  0  0  0  0  0  0  0  0  0  0  0
  134.8040   71.3720  225.0820 N   0  0  0  0  0  0  0  0  0  0  0  0
  135.4060   70.1310  224.6210 C   0  0  0  0  0  0  0  0  0  0  0  0
  136.4420   70.4290  223.6250 C   0  0  0  0  0  0  0  0  0  0  0  0
  136.4140   71.5030  222.9740 O   0  0  0  0  0  0  0  0  0  0  0  0
  137.5080   69.5350  223.3500 N   0  0  0  0  0  0  0  0  0  0  0  0
  137.3300   68.1790  222.8260 C   0  0  0  0  0  0  0  0  0  0  0  0
  138.6600   67.7890  222.2080 C   0  0  0  0  0  0  0  0  0  0  0  0
  139.4810   69.0340  222.3270 C   0  0  0  0  0  0  0  0  0  0  0  0
  138.9470   69.7720  223.5260 C   0  0  2  0  0  0  0  0  0  0  0  0
  139.4250   69.2530  224.8140 C   0  0  0  0  0  0  0  0  0  0  0  0
  140.0990   69.9870  225.7600 C   0  0  0  0  0  0  0  0  0  0  0  0
  140.5330   69.4630  226.9620 C   0  0  0  0  0  0  0  0  0  0  0  0
  140.2660   68.1360  227.2050 C   0  0  0  0  0  0  0  0  0  0  0  0
  139.5860   67.3910  226.2530 C   0  0  0  0  0  0  0  0  0  0  0  0
  139.1880   67.9580  225.0990 N   0  0  0  0  0  0  0  0  0  0  0  0
  133.2220   72.5760  226.5720 C   0  0  0  0  0  0  0  0  0  0  0  0
  131.9970   72.5510  227.2240 C   0  0  0  0  0  0  0  0  0  0  0  0
  131.3630   73.6690  227.6870 C   0  0  0  0  0  0  0  0  0  0  0  0
  131.9670   74.8900  227.5010 C   0  0  0  0  0  0  0  0  0  0  0  0
  131.3450   76.0340  227.9600 C   0  0  0  0  0  0  0  0  0  0  0  0
  131.9980   77.2410  227.7460 C   0  0  0  0  0  0  0  0  0  0  0  0
  131.1380   78.8210  228.3820 Br  0  0  0  0  0  0  0  0  0  0  0  0
  133.2160   77.3090  227.1040 C   0  0  0  0  0  0  0  0  0  0  0  0
  133.8190   76.1390  226.6510 C   0  0  0  0  0  0  0  0  0  0  0  0
  133.1890   74.9110  226.8510 C   0  0  0  0  0  0  0  0  0  0  0  0
  133.7900   73.7810  226.4040 N   0  0  0  0  0  0  0  0  0  0  0  0
  135.0530   72.3050  224.6950 H   0  0  0  0  0  0  0  0  0  0  0  0
  135.8585   69.6041  225.4740 H   0  0  0  0  0  0  0  0  0  0  0  0
  134.6321   69.4956  224.1656 H   0  0  0  0  0  0  0  0  0  0  0  0
  137.0694   67.4863  223.6398 H   0  0  0  0  0  0  0  0  0  0  0  0
  136.5159   68.1371  222.0875 H   0  0  0  0  0  0  0  0  0  0  0  0
  139.1224   66.9590  222.7623 H   0  0  0  0  0  0  0  0  0  0  0  0
  138.5628   67.4384  221.1699 H   0  0  0  0  0  0  0  0  0  0  0  0
  140.5409   68.7799  222.4758 H   0  0  0  0  0  0  0  0  0  0  0  0
  139.4167   69.6469  221.4158 H   0  0  0  0  0  0  0  0  0  0  0  0
  139.2610   70.8254  223.5669 H   0  0  0  0  0  0  0  0  0  0  0  0
  140.3036   71.0470  225.5491 H   0  0  0  0  0  0  0  0  0  0  0  0
  141.0705   70.0821  227.6953 H   0  0  0  0  0  0  0  0  0  0  0  0
  140.5892   67.6691  228.1471 H   0  0  0  0  0  0  0  0  0  0  0  0
  139.3704   66.3291  226.4425 H   0  0  0  0  0  0  0  0  0  0  0  0
  131.5095   71.5768  227.3764 H   0  0  0  0  0  0  0  0  0  0  0  0
  130.3913   73.5940  228.1971 H   0  0  0  0  0  0  0  0  0  0  0  0
  130.3732   75.9913  228.4736 H   0  0  0  0  0  0  0  0  0  0  0  0
  133.7079   78.2809  226.9508 H   0  0  0  0  0  0  0  0  0  0  0  0
  134.7902   76.1829  226.1364 H   0  0  0  0  0  0  0  0  0  0  0  0
  1  2  2  0
  2  3  1  0
  3  4  1  0
  4  5  1  0
  5  6  2  0
  5  7  1  0
  7  8  1  0
  8  9  1  0
  9 10  1  0
 10 11  1  0
 11 12  1  0
 12 13  2  0
 13 14  1  0
 14 15  2  0
 15 16  1  0
 16 17  2  0
  2 18  1  0
 18 19  2  0
 19 20  1  0
 20 21  2  0
 21 22  1  0
 22 23  2  0
 23 24  1  0
 23 25  1  0
 25 26  2  0
 26 27  1  0
 27 28  2  0
 11  7  1  0
 17 12  1  0
 28 18  1  0
 27 21  1  0
  3 29  1  0
  4 30  1  0
  4 31  1  0
  8 32  1  0
  8 33  1  0
  9 34  1  0
  9 35  1  0
 10 36  1  0
 10 37  1  0
 11 38  1  6
 13 39  1  0
 14 40  1  0
 15 41  1  0
 16 42  1  0
 19 43  1  0
 20 44  1  0
 22 45  1  0
 25 46  1  0
 26 47  1  0
M  END
>  <smiles>  (4) 
O=C(NCC(=O)N1CCCC1c1ccccn1)c1ccc2cc(Br)ccc2n1

>  <score_type>  (4) 
oracle

>  <origin>  (4) 
autodockgpu

>  <m_score__min__energy>  (4) 
-8.8000000000000007

>  <m_primary>  (4) 
energy

>  <rmsd>  (4) 
9.588198666146367

>  <m_score__min__rmsd>  (4) 
9.588198666146367

>  <meeko>  (4) 
{"free_energy": -7.85, "intermolecular_energy": -9.35, "internal_energy": -1.75, "cluster_size": 5, "cluster_id": 4, "rank_in_cluster": 3}

>  <energy>  (4) 
-8.79

>  <cluster_rmsd>  (4) 
0.16

>  <cluster>  (4) 
1

$$$$

     RDKit          3D

 47 50  0  0  0  0  0  0  0  0999 V2000
  139.3860   71.9970  220.6850 O   0  0  0  0  0  0  0  0  0  0  0  0
  139.3970   72.4670  221.8690 C   0  0  0  0  0  0  0  0  0  0  0  0
  139.1830   73.8530  222.1090 N   0  0  0  0  0  0  0  0  0  0  0  0
  138.9490   74.7440  220.9820 C   0  0  0  0  0  0  0  0  0  0  0  0
  139.3550   76.1070  221.3430 C   0  0  0  0  0  0  0  0  0  0  0  0
  138.6250   76.8200  222.0770 O   0  0  0  0  0  0  0  0  0  0  0  0
  140.5700   76.6800  220.8900 N   0  0  0  0  0  0  0  0  0  0  0  0
  141.8100   75.9270  220.6880 C   0  0  0  0  0  0  0  0  0  0  0  0
  142.6590   76.7590  219.7450 C   0  0  0  0  0  0  0  0  0  0  0  0
  141.7620   77.8990  219.3780 C   0  0  0  0  0  0  0  0  0  0  0  0
  140.8270   78.0850  220.5440 C   0  0  2  0  0  0  0  0  0  0  0  0
  141.4120   78.8190  221.6730 C   0  0  0  0  0  0  0  0  0  0  0  0
  142.0580   80.0280  221.5790 C   0  0  0  0  0  0  0  0  0  0  0  0
  142.5960   80.6900  222.6660 C   0  0  0  0  0  0  0  0  0  0  0  0
  142.4650   80.0910  223.8970 C   0  0  0  0  0  0  0  0  0  0  0  0
  141.8130   78.8700  223.9960 C   0  0  0  0  0  0  0  0  0  0  0  0
  141.3100   78.2740  222.9000 N   0  0  0  0  0  0  0  0  0  0  0  0
  139.6310   71.5780  222.9990 C   0  0  0  0  0  0  0  0  0  0  0  0
  139.3060   70.2320  222.8960 C   0  0  0  0  0  0  0  0  0  0  0  0
  139.4920   69.3300  223.9050 C   0  0  0  0  0  0  0  0  0  0  0  0
  140.0300   69.7720  225.0900 C   0  0  0  0  0  0  0  0  0  0  0  0
  140.2280   68.8790  226.1240 C   0  0  0  0  0  0  0  0  0  0  0  0
  140.7740   69.3780  227.2990 C   0  0  0  0  0  0  0  0  0  0  0  0
  141.0470   68.1420  228.7270 Br  0  0  0  0  0  0  0  0  0  0  0  0
  141.1110   70.7070  227.4420 C   0  0  0  0  0  0  0  0  0  0  0  0
  140.9000   71.5850  226.3820 C   0  0  0  0  0  0  0  0  0  0  0  0
  140.3530   71.1150  225.1890 C   0  0  0  0  0  0  0  0  0  0  0  0
  140.1550   71.9830  224.1670 N   0  0  0  0  0  0  0  0  0  0  0  0
  139.2040   74.1770  223.0970 H   0  0  0  0  0  0  0  0  0  0  0  0
  139.5371   74.4033  220.1171 H   0  0  0  0  0  0  0  0  0  0  0  0
  137.8796   74.7362  220.7246 H   0  0  0  0  0  0  0  0  0  0  0  0
  142.3310   75.7854  221.6464 H   0  0  0  0  0  0  0  0  0  0  0  0
  141.6103   74.9280  220.2732 H   0  0  0  0  0  0  0  0  0  0  0  0
  143.5672   77.1204  220.2495 H   0  0  0  0  0  0  0  0  0  0  0  0
  143.0083   76.1909  218.8702 H   0  0  0  0  0  0  0  0  0  0  0  0
  142.3528   78.8120  219.2127 H   0  0  0  0  0  0  0  0  0  0  0  0
  141.2105   77.6941  218.4486 H   0  0  0  0  0  0  0  0  0  0  0  0
  139.9422   78.6924  220.3028 H   0  0  0  0  0  0  0  0  0  0  0  0
  142.1518   80.4932  220.5866 H   0  0  0  0  0  0  0  0  0  0  0  0
  143.1082   81.6567  222.5514 H   0  0  0  0  0  0  0  0  0  0  0  0
  142.8737   80.5758  224.7958 H   0  0  0  0  0  0  0  0  0  0  0  0
  141.7067   78.3859  224.9780 H   0  0  0  0  0  0  0  0  0  0  0  0
  138.8751   69.8722  221.9500 H   0  0  0  0  0  0  0  0  0  0  0  0
  139.2172   68.2732  223.7720 H   0  0  0  0  0  0  0  0  0  0  0  0
  139.9641   67.8161  226.0212 H   0  0  0  0  0  0  0  0  0  0  0  0
  141.5431   71.0710  228.3858 H   0  0  0  0  0  0  0  0  0  0  0  0
  141.1645   72.6477  226.4858 H   0  0  0  0  0  0  0  0  0  0  0  0
  1  2  2  0
  2  3  1  0
  3  4  1  0
  4  5  1  0
  5  6  2  0
  5  7  1  0
  7  8  1  0
  8  9  1  0
  9 10  1  0
 10 11  1  0
 11 12  1  0
 12 13  2  0
 13 14  1  0
 14 15  2  0
 15 16  1  0
 16 17  2  0
  2 18  1  0
 18 19  2  0
 19 20  1  0
 20 21  2  0
 21 22  1  0
 22 23  2  0
 23 24  1  0
 23 25  1  0
 25 26  2  0
 26 27  1  0
 27 28  2  0
 11  7  1  0
 17 12  1  0
 28 18  1  0
 27 21  1  0
  3 29  1  0
  4 30  1  0
  4 31  1  0
  8 32  1  0
  8 33  1  0
  9 34  1  0
  9 35  1  0
 10 36  1  0
 10 37  1  0
 11 38  1  6
 13 39  1  0
 14 40  1  0
 15 41  1  0
 16 42  1  0
 19 43  1  0
 20 44  1  0
 22 45  1  0
 25 46  1  0
 26 47  1  0
M  END
>  <smiles>  (5) 
O=C(NCC(=O)N1CCCC1c1ccccn1)c1ccc2cc(Br)ccc2n1

>  <score_type>  (5) 
oracle

>  <origin>  (5) 
autodockgpu

>  <m_score__min__energy>  (5) 
-8.8000000000000007

>  <m_primary>  (5) 
energy

>  <rmsd>  (5) 
2.1484235262810434

>  <m_score__min__rmsd>  (5) 
2.1484235262810434

>  <meeko>  (5) 
{"free_energy": -8.74, "intermolecular_energy": -10.23, "internal_energy": -1.53, "cluster_size": 25, "cluster_id": 1, "rank_in_cluster": 7}

>  <energy>  (5) 
-8.78

>  <cluster_rmsd>  (5) 
0.53

>  <cluster>  (5) 
1

$$$$

     RDKit          3D

 47 50  0  0  0  0  0  0  0  0999 V2000
  139.7500   72.3120  220.5990 O   0  0  0  0  0  0  0  0  0  0  0  0
  139.6530   72.7710  221.7840 C   0  0  0  0  0  0  0  0  0  0  0  0
  139.3730   74.1460  222.0170 N   0  0  0  0  0  0  0  0  0  0  0  0
  139.1940   75.0400  220.8820 C   0  0  0  0  0  0  0  0  0  0  0  0
  140.3140   75.9840  220.8210 C   0  0  0  0  0  0  0  0  0  0  0  0
  140.3820   76.9510  221.6210 O   0  0  0  0  0  0  0  0  0  0  0  0
  141.3600   75.8580  219.8720 N   0  0  0  0  0  0  0  0  0  0  0  0
  141.1560   75.5090  218.4640 C   0  0  0  0  0  0  0  0  0  0  0  0
  142.3970   75.9790  217.7300 C   0  0  0  0  0  0  0  0  0  0  0  0
  143.1850   76.6870  218.7870 C   0  0  0  0  0  0  0  0  0  0  0  0
  142.8010   76.0410  220.0930 C   0  0  2  0  0  0  0  0  0  0  0  0
  143.4740   74.7620  220.3530 C   0  0  0  0  0  0  0  0  0  0  0  0
  144.8340   74.5900  220.4480 C   0  0  0  0  0  0  0  0  0  0  0  0
  145.4310   73.3690  220.6940 C   0  0  0  0  0  0  0  0  0  0  0  0
  144.6020   72.2820  220.8490 C   0  0  0  0  0  0  0  0  0  0  0  0
  143.2290   72.4510  220.7530 C   0  0  0  0  0  0  0  0  0  0  0  0
  142.7060   73.6670  220.5110 N   0  0  0  0  0  0  0  0  0  0  0  0
  139.8330   71.8780  222.9220 C   0  0  0  0  0  0  0  0  0  0  0  0
  139.4740   70.5420  222.8130 C   0  0  0  0  0  0  0  0  0  0  0  0
  139.6080   69.6380  223.8290 C   0  0  0  0  0  0  0  0  0  0  0  0
  140.1260   70.0690  225.0270 C   0  0  0  0  0  0  0  0  0  0  0  0
  140.2710   69.1740  226.0680 C   0  0  0  0  0  0  0  0  0  0  0  0
  140.7990   69.6620  227.2560 C   0  0  0  0  0  0  0  0  0  0  0  0
  140.9990   68.4220  228.6940 Br  0  0  0  0  0  0  0  0  0  0  0  0
  141.1680   70.9810  227.4050 C   0  0  0  0  0  0  0  0  0  0  0  0
  141.0100   71.8610  226.3380 C   0  0  0  0  0  0  0  0  0  0  0  0
  140.4830   71.4030  225.1310 C   0  0  0  0  0  0  0  0  0  0  0  0
  140.3360   72.2730  224.1020 N   0  0  0  0  0  0  0  0  0  0  0  0
  139.3070   74.4600  223.0060 H   0  0  0  0  0  0  0  0  0  0  0  0
  139.1600   74.4512  219.9535 H   0  0  0  0  0  0  0  0  0  0  0  0
  138.2522   75.5961  220.9988 H   0  0  0  0  0  0  0  0  0  0  0  0
  141.0364   74.4211  218.3538 H   0  0  0  0  0  0  0  0  0  0  0  0
  140.2478   75.9807  218.0606 H   0  0  0  0  0  0  0  0  0  0  0  0
  142.9608   75.1254  217.3256 H   0  0  0  0  0  0  0  0  0  0  0  0
  142.1656   76.6214  216.8676 H   0  0  0  0  0  0  0  0  0  0  0  0
  144.2632   76.5682  218.6041 H   0  0  0  0  0  0  0  0  0  0  0  0
  142.9726   77.7663  218.7932 H   0  0  0  0  0  0  0  0  0  0  0  0
  143.0818   76.6358  220.9747 H   0  0  0  0  0  0  0  0  0  0  0  0
  145.4810   75.4706  220.3215 H   0  0  0  0  0  0  0  0  0  0  0  0
  146.5243   73.2698  220.7631 H   0  0  0  0  0  0  0  0  0  0  0  0
  145.0252   71.2863  221.0476 H   0  0  0  0  0  0  0  0  0  0  0  0
  142.5624   71.5846  220.8756 H   0  0  0  0  0  0  0  0  0  0  0  0
  139.0589   70.1915  221.8565 H   0  0  0  0  0  0  0  0  0  0  0  0
  139.3080   68.5887  223.6912 H   0  0  0  0  0  0  0  0  0  0  0  0
  139.9804   68.1185  225.9609 H   0  0  0  0  0  0  0  0  0  0  0  0
  141.5841   71.3359  228.3594 H   0  0  0  0  0  0  0  0  0  0  0  0
  141.3005   72.9163  226.4469 H   0  0  0  0  0  0  0  0  0  0  0  0
  1  2  2  0
  2  3  1  0
  3  4  1  0
  4  5  1  0
  5  6  2  0
  5  7  1  0
  7  8  1  0
  8  9  1  0
  9 10  1  0
 10 11  1  0
 11 12  1  0
 12 13  2  0
 13 14  1  0
 14 15  2  0
 15 16  1  0
 16 17  2  0
  2 18  1  0
 18 19  2  0
 19 20  1  0
 20 21  2  0
 21 22  1  0
 22 23  2  0
 23 24  1  0
 23 25  1  0
 25 26  2  0
 26 27  1  0
 27 28  2  0
 11  7  1  0
 17 12  1  0
 28 18  1  0
 27 21  1  0
  3 29  1  0
  4 30  1  0
  4 31  1  0
  8 32  1  0
  8 33  1  0
  9 34  1  0
  9 35  1  0
 10 36  1  0
 10 37  1  0
 11 38  1  1
 13 39  1  0
 14 40  1  0
 15 41  1  0
 16 42  1  0
 19 43  1  0
 20 44  1  0
 22 45  1  0
 25 46  1  0
 26 47  1  0
M  END
>  <smiles>  (6) 
O=C(NCC(=O)N1CCCC1c1ccccn1)c1ccc2cc(Br)ccc2n1

>  <score_type>  (6) 
oracle

>  <origin>  (6) 
autodockgpu

>  <m_score__min__energy>  (6) 
-8.8000000000000007

>  <m_primary>  (6) 
energy

>  <rmsd>  (6) 
3.9358799176747263

>  <m_score__min__rmsd>  (6) 
3.9358799176747263

>  <meeko>  (6) 
{"free_energy": -7.9, "intermolecular_energy": -9.39, "internal_energy": -2.01, "cluster_size": 4, "cluster_id": 3, "rank_in_cluster": 3}

>  <energy>  (6) 
-8.77

>  <cluster_rmsd>  (6) 
0.26

>  <cluster>  (6) 
1

$$$$

     RDKit          3D

 47 50  0  0  0  0  0  0  0  0999 V2000
  133.1130   69.8000  226.5150 O   0  0  0  0  0  0  0  0  0  0  0  0
  133.7260   70.8820  226.2320 C   0  0  0  0  0  0  0  0  0  0  0  0
  134.9630   70.8600  225.5300 N   0  0  0  0  0  0  0  0  0  0  0  0
  135.5340   69.5830  225.1290 C   0  0  0  0  0  0  0  0  0  0  0  0
  136.0660   69.6910  223.7660 C   0  0  0  0  0  0  0  0  0  0  0  0
  135.3440   70.1110  222.8270 O   0  0  0  0  0  0  0  0  0  0  0  0
  137.4000   69.3330  223.4430 N   0  0  0  0  0  0  0  0  0  0  0  0
  137.7640   68.1810  222.6140 C   0  0  0  0  0  0  0  0  0  0  0  0
  139.1670   68.4560  222.1060 C   0  0  0  0  0  0  0  0  0  0  0  0
  139.4570   69.8370  222.6020 C   0  0  0  0  0  0  0  0  0  0  0  0
  138.6370   70.0100  223.8540 C   0  0  2  0  0  0  0  0  0  0  0  0
  139.2220   69.3860  225.0470 C   0  0  0  0  0  0  0  0  0  0  0  0
  140.1430   69.9790  225.8770 C   0  0  0  0  0  0  0  0  0  0  0  0
  140.6720   69.3590  226.9930 C   0  0  0  0  0  0  0  0  0  0  0  0
  140.2400   68.0830  227.2700 C   0  0  0  0  0  0  0  0  0  0  0  0
  139.3100   67.4810  226.4340 C   0  0  0  0  0  0  0  0  0  0  0  0
  138.8320   68.1360  225.3610 N   0  0  0  0  0  0  0  0  0  0  0  0
  133.1560   72.1610  226.6320 C   0  0  0  0  0  0  0  0  0  0  0  0
  131.9080   72.2020  227.2370 C   0  0  0  0  0  0  0  0  0  0  0  0
  131.3010   73.3570  227.6420 C   0  0  0  0  0  0  0  0  0  0  0  0
  131.9580   74.5480  227.4440 C   0  0  0  0  0  0  0  0  0  0  0  0
  131.3640   75.7290  227.8460 C   0  0  0  0  0  0  0  0  0  0  0  0
  132.0710   76.9030  227.6220 C   0  0  0  0  0  0  0  0  0  0  0  0
  131.2490   78.5330  228.1780 Br  0  0  0  0  0  0  0  0  0  0  0  0
  133.3140   76.9060  227.0250 C   0  0  0  0  0  0  0  0  0  0  0  0
  133.8870   75.7010  226.6300 C   0  0  0  0  0  0  0  0  0  0  0  0
  133.2030   74.5040  226.8410 C   0  0  0  0  0  0  0  0  0  0  0  0
  133.7760   73.3380  226.4510 N   0  0  0  0  0  0  0  0  0  0  0  0
  135.4150   71.7750  225.3290 H   0  0  0  0  0  0  0  0  0  0  0  0
  136.3465   69.3118  225.8192 H   0  0  0  0  0  0  0  0  0  0  0  0
  134.7541   68.8077  225.1576 H   0  0  0  0  0  0  0  0  0  0  0  0
  137.7488   67.2589  223.2136 H   0  0  0  0  0  0  0  0  0  0  0  0
  137.0555   68.0428  221.7840 H   0  0  0  0  0  0  0  0  0  0  0  0
  139.8836   67.7315  222.5202 H   0  0  0  0  0  0  0  0  0  0  0  0
  139.2502   68.3686  221.0126 H   0  0  0  0  0  0  0  0  0  0  0  0
  140.5280   69.9445  222.8288 H   0  0  0  0  0  0  0  0  0  0  0  0
  139.2052   70.5969  221.8476 H   0  0  0  0  0  0  0  0  0  0  0  0
  138.5315   71.0594  224.1666 H   0  0  0  0  0  0  0  0  0  0  0  0
  140.4764   71.0003  225.6407 H   0  0  0  0  0  0  0  0  0  0  0  0
  141.4087   69.8655  227.6338 H   0  0  0  0  0  0  0  0  0  0  0  0
  140.6283   67.5441  228.1468 H   0  0  0  0  0  0  0  0  0  0  0  0
  138.9612   66.4605  226.6506 H   0  0  0  0  0  0  0  0  0  0  0  0
  131.3780   71.2519  227.3995 H   0  0  0  0  0  0  0  0  0  0  0  0
  130.3086   73.3343  228.1160 H   0  0  0  0  0  0  0  0  0  0  0  0
  130.3730   75.7388  228.3233 H   0  0  0  0  0  0  0  0  0  0  0  0
  133.8484   77.8536  226.8623 H   0  0  0  0  0  0  0  0  0  0  0  0
  134.8777   75.6925  226.1522 H   0  0  0  0  0  0  0  0  0  0  0  0
  1  2  2  0
  2  3  1  0
  3  4  1  0
  4  5  1  0
  5  6  2  0
  5  7  1  0
  7  8  1  0
  8  9  1  0
  9 10  1  0
 10 11  1  0
 11 12  1  0
 12 13  2  0
 13 14  1  0
 14 15  2  0
 15 16  1  0
 16 17  2  0
  2 18  1  0
 18 19  2  0
 19 20  1  0
 20 21  2  0
 21 22  1  0
 22 23  2  0
 23 24  1  0
 23 25  1  0
 25 26  2  0
 26 27  1  0
 27 28  2  0
 11  7  1  0
 17 12  1  0
 28 18  1  0
 27 21  1  0
  3 29  1  0
  4 30  1  0
  4 31  1  0
  8 32  1  0
  8 33  1  0
  9 34  1  0
  9 35  1  0
 10 36  1  0
 10 37  1  0
 11 38  1  1
 13 39  1  0
 14 40  1  0
 15 41  1  0
 16 42  1  0
 19 43  1  0
 20 44  1  0
 22 45  1  0
 25 46  1  0
 26 47  1  0
M  END
>  <smiles>  (7) 
O=C(NCC(=O)N1CCCC1c1ccccn1)c1ccc2cc(Br)ccc2n1

>  <score_type>  (7) 
oracle

>  <origin>  (7) 
autodockgpu

>  <m_score__min__energy>  (7) 
-8.8000000000000007

>  <m_primary>  (7) 
energy

>  <rmsd>  (7) 
9.535850911456754

>  <m_score__min__rmsd>  (7) 
9.535850911456754

>  <meeko>  (7) 
{"free_energy": -7.93, "intermolecular_energy": -9.42, "internal_energy": -1.53, "cluster_size": 5, "cluster_id": 4, "rank_in_cluster": 2}

>  <energy>  (7) 
-8.74

>  <cluster_rmsd>  (7) 
0.37

>  <cluster>  (7) 
1

$$$$

     RDKit          3D

 47 50  0  0  0  0  0  0  0  0999 V2000
  133.9560   69.3030  226.6530 O   0  0  0  0  0  0  0  0  0  0  0  0
  134.2440   70.3550  225.9920 C   0  0  0  0  0  0  0  0  0  0  0  0
  135.1190   70.2990  224.8720 N   0  0  0  0  0  0  0  0  0  0  0  0
  135.6920   69.0220  224.4770 C   0  0  0  0  0  0  0  0  0  0  0  0
  136.5820   69.2190  223.3270 C   0  0  0  0  0  0  0  0  0  0  0  0
  136.2050   68.9200  222.1660 O   0  0  0  0  0  0  0  0  0  0  0  0
  137.8900   69.7470  223.4640 N   0  0  0  0  0  0  0  0  0  0  0  0
  138.9390   69.6210  222.4490 C   0  0  0  0  0  0  0  0  0  0  0  0
  139.9440   70.7180  222.7440 C   0  0  0  0  0  0  0  0  0  0  0  0
  139.3120   71.4820  223.8650 C   0  0  0  0  0  0  0  0  0  0  0  0
  138.4430   70.4980  224.6000 C   0  0  2  0  0  0  0  0  0  0  0  0
  139.1740   69.6190  225.5220 C   0  0  0  0  0  0  0  0  0  0  0  0
  140.0910   70.0400  226.4540 C   0  0  0  0  0  0  0  0  0  0  0  0
  140.7600   69.1820  227.3050 C   0  0  0  0  0  0  0  0  0  0  0  0
  140.4780   67.8400  227.1970 C   0  0  0  0  0  0  0  0  0  0  0  0
  139.5530   67.4100  226.2570 C   0  0  0  0  0  0  0  0  0  0  0  0
  138.9330   68.2950  225.4550 N   0  0  0  0  0  0  0  0  0  0  0  0
  133.6710   71.6350  226.3860 C   0  0  0  0  0  0  0  0  0  0  0  0
  132.5060   71.6670  227.1390 C   0  0  0  0  0  0  0  0  0  0  0  0
  131.9030   72.8230  227.5500 C   0  0  0  0  0  0  0  0  0  0  0  0
  132.4770   74.0220  227.2020 C   0  0  0  0  0  0  0  0  0  0  0  0
  131.8850   75.2030  227.6070 C   0  0  0  0  0  0  0  0  0  0  0  0
  132.5060   76.3860  227.2280 C   0  0  0  0  0  0  0  0  0  0  0  0
  131.6870   78.0170  227.7880 Br  0  0  0  0  0  0  0  0  0  0  0  0
  133.6640   76.3970  226.4810 C   0  0  0  0  0  0  0  0  0  0  0  0
  134.2380   75.1920  226.0880 C   0  0  0  0  0  0  0  0  0  0  0  0
  133.6390   73.9860  226.4520 C   0  0  0  0  0  0  0  0  0  0  0  0
  134.2110   72.8200  226.0600 N   0  0  0  0  0  0  0  0  0  0  0  0
  135.3160   71.1910  224.3740 H   0  0  0  0  0  0  0  0  0  0  0  0
  136.2655   68.6022  225.3166 H   0  0  0  0  0  0  0  0  0  0  0  0
  134.8845   68.3280  224.2006 H   0  0  0  0  0  0  0  0  0  0  0  0
  139.4200   68.6341  222.5176 H   0  0  0  0  0  0  0  0  0  0  0  0
  138.5283   69.7150  221.4329 H   0  0  0  0  0  0  0  0  0  0  0  0
  140.9099   70.2927  223.0541 H   0  0  0  0  0  0  0  0  0  0  0  0
  140.1607   71.3462  221.8674 H   0  0  0  0  0  0  0  0  0  0  0  0
  140.0848   71.8851  224.5361 H   0  0  0  0  0  0  0  0  0  0  0  0
  138.7269   72.3353  223.4913 H   0  0  0  0  0  0  0  0  0  0  0  0
  137.7090   70.9762  225.2653 H   0  0  0  0  0  0  0  0  0  0  0  0
  140.3037   71.1168  226.5264 H   0  0  0  0  0  0  0  0  0  0  0  0
  141.4885   69.5566  228.0391 H   0  0  0  0  0  0  0  0  0  0  0  0
  140.9822   67.1134  227.8511 H   0  0  0  0  0  0  0  0  0  0  0  0
  139.3246   66.3378  226.1665 H   0  0  0  0  0  0  0  0  0  0  0  0
  132.0424   70.7101  227.4206 H   0  0  0  0  0  0  0  0  0  0  0  0
  130.9789   72.7940  228.1460 H   0  0  0  0  0  0  0  0  0  0  0  0
  130.9612   75.2061  228.2041 H   0  0  0  0  0  0  0  0  0  0  0  0
  134.1312   77.3516  226.1975 H   0  0  0  0  0  0  0  0  0  0  0  0
  135.1622   75.1904  225.4915 H   0  0  0  0  0  0  0  0  0  0  0  0
  1  2  2  0
  2  3  1  0
  3  4  1  0
  4  5  1  0
  5  6  2  0
  5  7  1  0
  7  8  1  0
  8  9  1  0
  9 10  1  0
 10 11  1  0
 11 12  1  0
 12 13  2  0
 13 14  1  0
 14 15  2  0
 15 16  1  0
 16 17  2  0
  2 18  1  0
 18 19  2  0
 19 20  1  0
 20 21  2  0
 21 22  1  0
 22 23  2  0
 23 24  1  0
 23 25  1  0
 25 26  2  0
 26 27  1  0
 27 28  2  0
 11  7  1  0
 17 12  1  0
 28 18  1  0
 27 21  1  0
  3 29  1  0
  4 30  1  0
  4 31  1  0
  8 32  1  0
  8 33  1  0
  9 34  1  0
  9 35  1  0
 10 36  1  0
 10 37  1  0
 11 38  1  1
 13 39  1  0
 14 40  1  0
 15 41  1  0
 16 42  1  0
 19 43  1  0
 20 44  1  0
 22 45  1  0
 25 46  1  0
 26 47  1  0
M  END
>  <smiles>  (8) 
O=C(NCC(=O)N1CCCC1c1ccccn1)c1ccc2cc(Br)ccc2n1

>  <score_type>  (8) 
oracle

>  <origin>  (8) 
autodockgpu

>  <m_score__min__energy>  (8) 
-8.8000000000000007

>  <m_primary>  (8) 
energy

>  <rmsd>  (8) 
9.184396593198056

>  <m_score__min__rmsd>  (8) 
9.184396593198056

>  <meeko>  (8) 
{"free_energy": -7.96, "intermolecular_energy": -9.45, "internal_energy": -1.65, "cluster_size": 5, "cluster_id": 4, "rank_in_cluster": 1}

>  <energy>  (8) 
-8.73

>  <cluster_rmsd>  (8) 
0.25

>  <cluster>  (8) 
1

$$$$

     RDKit          3D

 47 50  0  0  0  0  0  0  0  0999 V2000
  142.4130   79.5230  216.9340 O   0  0  0  0  0  0  0  0  0  0  0  0
  142.5270   78.9360  218.0590 C   0  0  0  0  0  0  0  0  0  0  0  0
  142.2450   79.6210  219.2740 N   0  0  0  0  0  0  0  0  0  0  0  0
  141.8210   81.0120  219.2270 C   0  0  0  0  0  0  0  0  0  0  0  0
  141.4430   81.4540  220.5740 C   0  0  0  0  0  0  0  0  0  0  0  0
  140.9300   82.5870  220.7560 O   0  0  0  0  0  0  0  0  0  0  0  0
  141.6350   80.6410  221.7200 N   0  0  0  0  0  0  0  0  0  0  0  0
  142.9120   80.5010  222.4240 C   0  0  0  0  0  0  0  0  0  0  0  0
  142.5720   80.0000  223.8150 C   0  0  0  0  0  0  0  0  0  0  0  0
  141.0760   80.0070  223.8360 C   0  0  0  0  0  0  0  0  0  0  0  0
  140.6390   79.8090  222.4080 C   0  0  2  0  0  0  0  0  0  0  0  0
  140.6940   78.4140  221.9500 C   0  0  0  0  0  0  0  0  0  0  0  0
  141.0060   77.3350  222.7410 C   0  0  0  0  0  0  0  0  0  0  0  0
  141.0480   76.0360  222.2730 C   0  0  0  0  0  0  0  0  0  0  0  0
  140.7560   75.8350  220.9440 C   0  0  0  0  0  0  0  0  0  0  0  0
  140.4400   76.9220  220.1420 C   0  0  0  0  0  0  0  0  0  0  0  0
  140.4160   78.1650  220.6560 N   0  0  0  0  0  0  0  0  0  0  0  0
  142.9510   77.5430  218.1090 C   0  0  0  0  0  0  0  0  0  0  0  0
  142.9900   76.7920  216.9430 C   0  0  0  0  0  0  0  0  0  0  0  0
  143.3750   75.4810  216.9000 C   0  0  0  0  0  0  0  0  0  0  0  0
  143.7440   74.8670  218.0730 C   0  0  0  0  0  0  0  0  0  0  0  0
  144.1370   73.5430  218.0540 C   0  0  0  0  0  0  0  0  0  0  0  0
  144.4990   72.9710  219.2670 C   0  0  0  0  0  0  0  0  0  0  0  0
  145.0420   71.1420  219.2390 Br  0  0  0  0  0  0  0  0  0  0  0  0
  144.4740   73.6830  220.4470 C   0  0  0  0  0  0  0  0  0  0  0  0
  144.0740   75.0160  220.4350 C   0  0  0  0  0  0  0  0  0  0  0  0
  143.7040   75.6200  219.2340 C   0  0  0  0  0  0  0  0  0  0  0  0
  143.3160   76.9190  219.2400 N   0  0  0  0  0  0  0  0  0  0  0  0
  142.3560   79.0880  220.1600 H   0  0  0  0  0  0  0  0  0  0  0  0
  142.6479   81.6350  218.8553 H   0  0  0  0  0  0  0  0  0  0  0  0
  140.9569   81.1093  218.5533 H   0  0  0  0  0  0  0  0  0  0  0  0
  143.5571   79.7772  221.9045 H   0  0  0  0  0  0  0  0  0  0  0  0
  143.4568   81.4558  222.4625 H   0  0  0  0  0  0  0  0  0  0  0  0
  142.9622   78.9837  223.9726 H   0  0  0  0  0  0  0  0  0  0  0  0
  143.0134   80.6174  224.6112 H   0  0  0  0  0  0  0  0  0  0  0  0
  140.6989   79.1893  224.4678 H   0  0  0  0  0  0  0  0  0  0  0  0
  140.6836   80.9474  224.2504 H   0  0  0  0  0  0  0  0  0  0  0  0
  139.5856   80.0725  222.2322 H   0  0  0  0  0  0  0  0  0  0  0  0
  141.2342   77.5147  223.8020 H   0  0  0  0  0  0  0  0  0  0  0  0
  141.3045   75.1966  222.9361 H   0  0  0  0  0  0  0  0  0  0  0  0
  140.7729   74.8200  220.5203 H   0  0  0  0  0  0  0  0  0  0  0  0
  140.2074   76.7664  219.0782 H   0  0  0  0  0  0  0  0  0  0  0  0
  142.6949   77.2782  216.0014 H   0  0  0  0  0  0  0  0  0  0  0  0
  143.3891   74.9299  215.9481 H   0  0  0  0  0  0  0  0  0  0  0  0
  144.1622   72.9659  217.1179 H   0  0  0  0  0  0  0  0  0  0  0  0
  144.7680   73.2012  221.3912 H   0  0  0  0  0  0  0  0  0  0  0  0
  144.0498   75.5922  221.3717 H   0  0  0  0  0  0  0  0  0  0  0  0
  1  2  2  0
  2  3  1  0
  3  4  1  0
  4  5  1  0
  5  6  2  0
  5  7  1  0
  7  8  1  0
  8  9  1  0
  9 10  1  0
 10 11  1  0
 11 12  1  0
 12 13  2  0
 13 14  1  0
 14 15  2  0
 15 16  1  0
 16 17  2  0
  2 18  1  0
 18 19  2  0
 19 20  1  0
 20 21  2  0
 21 22  1  0
 22 23  2  0
 23 24  1  0
 23 25  1  0
 25 26  2  0
 26 27  1  0
 27 28  2  0
 11  7  1  0
 17 12  1  0
 28 18  1  0
 27 21  1  0
  3 29  1  0
  4 30  1  0
  4 31  1  0
  8 32  1  0
  8 33  1  0
  9 34  1  0
  9 35  1  0
 10 36  1  0
 10 37  1  0
 11 38  1  1
 13 39  1  0
 14 40  1  0
 15 41  1  0
 16 42  1  0
 19 43  1  0
 20 44  1  0
 22 45  1  0
 25 46  1  0
 26 47  1  0
M  END
>  <smiles>  (9) 
O=C(NCC(=O)N1CCCC1c1ccccn1)c1ccc2cc(Br)ccc2n1

>  <score_type>  (9) 
oracle

>  <origin>  (9) 
autodockgpu

>  <m_score__min__energy>  (9) 
-8.8000000000000007

>  <m_primary>  (9) 
energy

>  <rmsd>  (9) 
8.087262140679305

>  <m_score__min__rmsd>  (9) 
8.087262140679305

>  <meeko>  (9) 
{"free_energy": -6.25, "intermolecular_energy": -7.74, "internal_energy": -3.17, "cluster_size": 2, "cluster_id": 7, "rank_in_cluster": 2}

>  <energy>  (9) 
-8.73

>  <cluster_rmsd>  (9) 
0.6

>  <cluster>  (9) 
1

$$$$

     RDKit          3D

 47 50  0  0  0  0  0  0  0  0999 V2000
  138.7650   72.6590  220.9110 O   0  0  0  0  0  0  0  0  0  0  0  0
  139.7210   72.8020  221.7420 C   0  0  0  0  0  0  0  0  0  0  0  0
  140.6990   73.8190  221.5650 N   0  0  0  0  0  0  0  0  0  0  0  0
  140.6050   74.7080  220.4180 C   0  0  0  0  0  0  0  0  0  0  0  0
  141.8390   75.4940  220.3040 C   0  0  0  0  0  0  0  0  0  0  0  0
  142.9560   74.9700  220.5400 O   0  0  0  0  0  0  0  0  0  0  0  0
  141.8340   76.8610  219.9290 N   0  0  0  0  0  0  0  0  0  0  0  0
  142.8100   77.4690  219.0220 C   0  0  0  0  0  0  0  0  0  0  0  0
  142.1660   78.7390  218.4990 C   0  0  0  0  0  0  0  0  0  0  0  0
  140.7840   78.6940  219.0740 C   0  0  0  0  0  0  0  0  0  0  0  0
  140.8910   77.9060  220.3520 C   0  0  2  0  0  0  0  0  0  0  0  0
  141.4120   78.6730  221.4910 C   0  0  0  0  0  0  0  0  0  0  0  0
  141.9180   79.9480  221.4180 C   0  0  0  0  0  0  0  0  0  0  0  0
  142.4010   80.6380  222.5140 C   0  0  0  0  0  0  0  0  0  0  0  0
  142.3620   79.9980  223.7300 C   0  0  0  0  0  0  0  0  0  0  0  0
  141.8520   78.7100  223.8070 C   0  0  0  0  0  0  0  0  0  0  0  0
  141.3960   78.0890  222.7040 N   0  0  0  0  0  0  0  0  0  0  0  0
  139.8180   71.9120  222.8920 C   0  0  0  0  0  0  0  0  0  0  0  0
  139.3250   70.6180  222.8060 C   0  0  0  0  0  0  0  0  0  0  0  0
  139.3750   69.7200  223.8350 C   0  0  0  0  0  0  0  0  0  0  0  0
  139.9440   70.1140  225.0230 C   0  0  0  0  0  0  0  0  0  0  0  0
  140.0050   69.2240  226.0770 C   0  0  0  0  0  0  0  0  0  0  0  0
  140.5890   69.6730  227.2540 C   0  0  0  0  0  0  0  0  0  0  0  0
  140.6740   68.4410  228.7090 Br  0  0  0  0  0  0  0  0  0  0  0  0
  141.0900   70.9510  227.3800 C   0  0  0  0  0  0  0  0  0  0  0  0
  141.0140   71.8260  226.3010 C   0  0  0  0  0  0  0  0  0  0  0  0
  140.4340   71.4060  225.1050 C   0  0  0  0  0  0  0  0  0  0  0  0
  140.3670   72.2720  224.0630 N   0  0  0  0  0  0  0  0  0  0  0  0
  141.4550   73.8850  222.2770 H   0  0  0  0  0  0  0  0  0  0  0  0
  140.4639   74.1128  219.5037 H   0  0  0  0  0  0  0  0  0  0  0  0
  139.7496   75.3868  220.5502 H   0  0  0  0  0  0  0  0  0  0  0  0
  143.7376   77.7066  219.5634 H   0  0  0  0  0  0  0  0  0  0  0  0
  143.0751   76.7861  218.2014 H   0  0  0  0  0  0  0  0  0  0  0  0
  142.7091   79.6286  218.8506 H   0  0  0  0  0  0  0  0  0  0  0  0
  142.1708   78.8003  217.4007 H   0  0  0  0  0  0  0  0  0  0  0  0
  140.4234   79.7122  219.2820 H   0  0  0  0  0  0  0  0  0  0  0  0
  140.0718   78.2319  218.3746 H   0  0  0  0  0  0  0  0  0  0  0  0
  139.9200   77.5547  220.7312 H   0  0  0  0  0  0  0  0  0  0  0  0
  141.9399   80.4453  220.4371 H   0  0  0  0  0  0  0  0  0  0  0  0
  142.8005   81.6583  222.4171 H   0  0  0  0  0  0  0  0  0  0  0  0
  142.7321   80.5029  224.6345 H   0  0  0  0  0  0  0  0  0  0  0  0
  141.8202   78.1926  224.7772 H   0  0  0  0  0  0  0  0  0  0  0  0
  138.8690   70.2973  221.8578 H   0  0  0  0  0  0  0  0  0  0  0  0
  138.9691   68.7047  223.7154 H   0  0  0  0  0  0  0  0  0  0  0  0
  139.6076   68.2022  225.9879 H   0  0  0  0  0  0  0  0  0  0  0  0
  141.5464   71.2765  228.3264 H   0  0  0  0  0  0  0  0  0  0  0  0
  141.4111   72.8478  226.3915 H   0  0  0  0  0  0  0  0  0  0  0  0
  1  2  2  0
  2  3  1  0
  3  4  1  0
  4  5  1  0
  5  6  2  0
  5  7  1  0
  7  8  1  0
  8  9  1  0
  9 10  1  0
 10 11  1  0
 11 12  1  0
 12 13  2  0
 13 14  1  0
 14 15  2  0
 15 16  1  0
 16 17  2  0
  2 18  1  0
 18 19  2  0
 19 20  1  0
 20 21  2  0
 21 22  1  0
 22 23  2  0
 23 24  1  0
 23 25  1  0
 25 26  2  0
 26 27  1  0
 27 28  2  0
 11  7  1  0
 17 12  1  0
 28 18  1  0
 27 21  1  0
  3 29  1  0
  4 30  1  0
  4 31  1  0
  8 32  1  0
  8 33  1  0
  9 34  1  0
  9 35  1  0
 10 36  1  0
 10 37  1  0
 11 38  1  1
 13 39  1  0
 14 40  1  0
 15 41  1  0
 16 42  1  0
 19 43  1  0
 20 44  1  0
 22 45  1  0
 25 46  1  0
 26 47  1  0
M  END
>  <smiles>  (10) 
O=C(NCC(=O)N1CCCC1c1ccccn1)c1ccc2cc(Br)ccc2n1

>  <score_type>  (10) 
oracle

>  <origin>  (10) 
autodockgpu

>  <m_score__min__energy>  (10) 
-8.8000000000000007

>  <m_primary>  (10) 
energy

>  <rmsd>  (10) 
2.473388790311423

>  <m_score__min__rmsd>  (10) 
2.473388790311423

>  <meeko>  (10) 
{"free_energy": -8.04, "intermolecular_energy": -9.53, "internal_energy": -1.57, "cluster_size": 25, "cluster_id": 1, "rank_in_cluster": 20}

>  <energy>  (10) 
-8.67

>  <cluster_rmsd>  (10) 
0.63

>  <cluster>  (10) 
1

$$$$

     RDKit          3D

 47 50  0  0  0  0  0  0  0  0999 V2000
  140.0560   72.4150  220.6790 O   0  0  0  0  0  0  0  0  0  0  0  0
  139.8770   72.8380  221.8680 C   0  0  0  0  0  0  0  0  0  0  0  0
  139.5990   74.2100  222.1230 N   0  0  0  0  0  0  0  0  0  0  0  0
  139.5160   75.1400  221.0070 C   0  0  0  0  0  0  0  0  0  0  0  0
  139.4090   76.5110  221.5200 C   0  0  0  0  0  0  0  0  0  0  0  0
  138.7350   76.7590  222.5500 O   0  0  0  0  0  0  0  0  0  0  0  0
  140.0500   77.6070  220.8890 N   0  0  0  0  0  0  0  0  0  0  0  0
  141.1210   77.4740  219.8970 C   0  0  0  0  0  0  0  0  0  0  0  0
  141.1480   78.7820  219.1290 C   0  0  0  0  0  0  0  0  0  0  0  0
  139.9790   79.5370  219.6800 C   0  0  0  0  0  0  0  0  0  0  0  0
  139.7870   79.0390  221.0870 C   0  0  2  0  0  0  0  0  0  0  0  0
  140.7120   79.6250  222.0650 C   0  0  0  0  0  0  0  0  0  0  0  0
  141.3390   78.9330  223.0730 C   0  0  0  0  0  0  0  0  0  0  0  0
  142.2040   79.5210  223.9760 C   0  0  0  0  0  0  0  0  0  0  0  0
  142.4370   80.8690  223.8400 C   0  0  0  0  0  0  0  0  0  0  0  0
  141.8070   81.5720  222.8230 C   0  0  0  0  0  0  0  0  0  0  0  0
  140.9740   80.9430  221.9740 N   0  0  0  0  0  0  0  0  0  0  0  0
  139.9590   71.9090  222.9870 C   0  0  0  0  0  0  0  0  0  0  0  0
  139.5270   70.5990  222.8290 C   0  0  0  0  0  0  0  0  0  0  0  0
  139.5680   69.6640  223.8240 C   0  0  0  0  0  0  0  0  0  0  0  0
  140.0640   70.0330  225.0520 C   0  0  0  0  0  0  0  0  0  0  0  0
  140.1160   69.1050  226.0730 C   0  0  0  0  0  0  0  0  0  0  0  0
  140.6260   69.5310  227.2930 C   0  0  0  0  0  0  0  0  0  0  0  0
  140.6960   68.2470  228.7030 Br  0  0  0  0  0  0  0  0  0  0  0  0
  141.0660   70.8220  227.4900 C   0  0  0  0  0  0  0  0  0  0  0  0
  141.0010   71.7360  226.4430 C   0  0  0  0  0  0  0  0  0  0  0  0
  140.4950   71.3400  225.2050 C   0  0  0  0  0  0  0  0  0  0  0  0
  140.4390   72.2430  224.1950 N   0  0  0  0  0  0  0  0  0  0  0  0
  139.4630   74.4940  223.1140 H   0  0  0  0  0  0  0  0  0  0  0  0
  140.4199   75.0501  220.3867 H   0  0  0  0  0  0  0  0  0  0  0  0
  138.6296   74.9055  220.3993 H   0  0  0  0  0  0  0  0  0  0  0  0
  142.0860   77.3051  220.3973 H   0  0  0  0  0  0  0  0  0  0  0  0
  140.9451   76.6187  219.2280 H   0  0  0  0  0  0  0  0  0  0  0  0
  142.0873   79.3249  219.3106 H   0  0  0  0  0  0  0  0  0  0  0  0
  141.0903   78.6397  218.0398 H   0  0  0  0  0  0  0  0  0  0  0  0
  140.1886   80.6168  219.6824 H   0  0  0  0  0  0  0  0  0  0  0  0
  139.0762   79.3805  219.0713 H   0  0  0  0  0  0  0  0  0  0  0  0
  138.8046   79.2955  221.5103 H   0  0  0  0  0  0  0  0  0  0  0  0
  141.1421   77.8548  223.1659 H   0  0  0  0  0  0  0  0  0  0  0  0
  142.6866   78.9342  224.7715 H   0  0  0  0  0  0  0  0  0  0  0  0
  143.1177   81.3864  224.5321 H   0  0  0  0  0  0  0  0  0  0  0  0
  141.9898   82.6508  222.7101 H   0  0  0  0  0  0  0  0  0  0  0  0
  139.1298   70.2974  221.8485 H   0  0  0  0  0  0  0  0  0  0  0  0
  139.2120   68.6384  223.6466 H   0  0  0  0  0  0  0  0  0  0  0  0
  139.7682   68.0718  225.9266 H   0  0  0  0  0  0  0  0  0  0  0  0
  141.4658   71.1277  228.4681 H   0  0  0  0  0  0  0  0  0  0  0  0
  141.3481   72.7692  226.5913 H   0  0  0  0  0  0  0  0  0  0  0  0
  1  2  2  0
  2  3  1  0
  3  4  1  0
  4  5  1  0
  5  6  2  0
  5  7  1  0
  7  8  1  0
  8  9  1  0
  9 10  1  0
 10 11  1  0
 11 12  1  0
 12 13  2  0
 13 14  1  0
 14 15  2  0
 15 16  1  0
 16 17  2  0
  2 18  1  0
 18 19  2  0
 19 20  1  0
 20 21  2  0
 21 22  1  0
 22 23  2  0
 23 24  1  0
 23 25  1  0
 25 26  2  0
 26 27  1  0
 27 28  2  0
 11  7  1  0
 17 12  1  0
 28 18  1  0
 27 21  1  0
  3 29  1  0
  4 30  1  0
  4 31  1  0
  8 32  1  0
  8 33  1  0
  9 34  1  0
  9 35  1  0
 10 36  1  0
 10 37  1  0
 11 38  1  1
 13 39  1  0
 14 40  1  0
 15 41  1  0
 16 42  1  0
 19 43  1  0
 20 44  1  0
 22 45  1  0
 25 46  1  0
 26 47  1  0
M  END
>  <smiles>  (11) 
O=C(NCC(=O)N1CCCC1c1ccccn1)c1ccc2cc(Br)ccc2n1

>  <score_type>  (11) 
oracle

>  <origin>  (11) 
autodockgpu

>  <m_score__min__energy>  (11) 
-8.8000000000000007

>  <m_primary>  (11) 
energy

>  <rmsd>  (11) 
2.7990802991841144

>  <m_score__min__rmsd>  (11) 
2.7990802991841144

>  <meeko>  (11) 
{"free_energy": -8.31, "intermolecular_energy": -9.8, "internal_energy": -1.66, "cluster_size": 25, "cluster_id": 1, "rank_in_cluster": 19}

>  <energy>  (11) 
-8.66

>  <cluster_rmsd>  (11) 
0.44

>  <cluster>  (11) 
1

$$$$

     RDKit          3D

 47 50  0  0  0  0  0  0  0  0999 V2000
  141.9860   73.2010  220.8080 O   0  0  0  0  0  0  0  0  0  0  0  0
  141.1420   73.9260  221.4310 C   0  0  0  0  0  0  0  0  0  0  0  0
  140.1090   73.3390  222.2130 N   0  0  0  0  0  0  0  0  0  0  0  0
  140.0170   71.8900  222.3030 C   0  0  0  0  0  0  0  0  0  0  0  0
  138.7990   71.5200  223.0320 C   0  0  0  0  0  0  0  0  0  0  0  0
  137.6980   72.0580  222.7550 O   0  0  0  0  0  0  0  0  0  0  0  0
  138.8030   70.5540  224.0700 N   0  0  0  0  0  0  0  0  0  0  0  0
  137.5930   70.0190  224.7000 C   0  0  0  0  0  0  0  0  0  0  0  0
  137.9980   68.7040  225.3400 C   0  0  0  0  0  0  0  0  0  0  0  0
  139.4220   68.5290  224.9130 C   0  0  0  0  0  0  0  0  0  0  0  0
  139.9660   69.9170  224.7020 C   0  0  2  0  0  0  0  0  0  0  0  0
  140.3520   70.6070  225.9390 C   0  0  0  0  0  0  0  0  0  0  0  0
  141.1010   71.7570  226.0010 C   0  0  0  0  0  0  0  0  0  0  0  0
  141.4450   72.3780  227.1860 C   0  0  0  0  0  0  0  0  0  0  0  0
  141.0040   71.7990  228.3530 C   0  0  0  0  0  0  0  0  0  0  0  0
  140.2480   70.6370  228.2950 C   0  0  0  0  0  0  0  0  0  0  0  0
  139.9450   70.0780  227.1090 N   0  0  0  0  0  0  0  0  0  0  0  0
  141.2320   75.3770  221.3440 C   0  0  0  0  0  0  0  0  0  0  0  0
  141.9380   75.9630  220.3030 C   0  0  0  0  0  0  0  0  0  0  0  0
  142.0720   77.3140  220.1460 C   0  0  0  0  0  0  0  0  0  0  0  0
  141.4780   78.1440  221.0660 C   0  0  0  0  0  0  0  0  0  0  0  0
  141.5990   79.5130  220.9280 C   0  0  0  0  0  0  0  0  0  0  0  0
  140.9800   80.3050  221.8850 C   0  0  0  0  0  0  0  0  0  0  0  0
  141.1490   82.1960  221.6930 Br  0  0  0  0  0  0  0  0  0  0  0  0
  140.2690   79.7620  222.9340 C   0  0  0  0  0  0  0  0  0  0  0  0
  140.1630   78.3790  223.0480 C   0  0  0  0  0  0  0  0  0  0  0  0
  140.7740   77.5560  222.1030 C   0  0  0  0  0  0  0  0  0  0  0  0
  140.6610   76.2100  222.2290 N   0  0  0  0  0  0  0  0  0  0  0  0
  139.4510   73.9830  222.6980 H   0  0  0  0  0  0  0  0  0  0  0  0
  139.9824   71.4615  221.2905 H   0  0  0  0  0  0  0  0  0  0  0  0
  140.8959   71.5000  222.8372 H   0  0  0  0  0  0  0  0  0  0  0  0
  137.2201   70.7167  225.4643 H   0  0  0  0  0  0  0  0  0  0  0  0
  136.7867   69.8769  223.9654 H   0  0  0  0  0  0  0  0  0  0  0  0
  137.9206   68.7602  226.4358 H   0  0  0  0  0  0  0  0  0  0  0  0
  137.3545   67.8649  225.0369 H   0  0  0  0  0  0  0  0  0  0  0  0
  139.9944   68.0091  225.6953 H   0  0  0  0  0  0  0  0  0  0  0  0
  139.4964   67.9238  223.9975 H   0  0  0  0  0  0  0  0  0  0  0  0
  140.9005   69.9361  224.1220 H   0  0  0  0  0  0  0  0  0  0  0  0
  141.4447   72.2068  225.0578 H   0  0  0  0  0  0  0  0  0  0  0  0
  142.0473   73.2984  227.1959 H   0  0  0  0  0  0  0  0  0  0  0  0
  141.2486   72.2534  229.3244 H   0  0  0  0  0  0  0  0  0  0  0  0
  139.8937   70.1692  229.2254 H   0  0  0  0  0  0  0  0  0  0  0  0
  142.4161   75.3039  219.5634 H   0  0  0  0  0  0  0  0  0  0  0  0
  142.6428   77.7279  219.3017 H   0  0  0  0  0  0  0  0  0  0  0  0
  142.1626   79.9571  220.0942 H   0  0  0  0  0  0  0  0  0  0  0  0
  139.7889   80.4173  223.6757 H   0  0  0  0  0  0  0  0  0  0  0  0
  139.5984   77.9363  223.8818 H   0  0  0  0  0  0  0  0  0  0  0  0
  1  2  2  0
  2  3  1  0
  3  4  1  0
  4  5  1  0
  5  6  2  0
  5  7  1  0
  7  8  1  0
  8  9  1  0
  9 10  1  0
 10 11  1  0
 11 12  1  0
 12 13  2  0
 13 14  1  0
 14 15  2  0
 15 16  1  0
 16 17  2  0
  2 18  1  0
 18 19  2  0
 19 20  1  0
 20 21  2  0
 21 22  1  0
 22 23  2  0
 23 24  1  0
 23 25  1  0
 25 26  2  0
 26 27  1  0
 27 28  2  0
 11  7  1  0
 17 12  1  0
 28 18  1  0
 27 21  1  0
  3 29  1  0
  4 30  1  0
  4 31  1  0
  8 32  1  0
  8 33  1  0
  9 34  1  0
  9 35  1  0
 10 36  1  0
 10 37  1  0
 11 38  1  6
 13 39  1  0
 14 40  1  0
 15 41  1  0
 16 42  1  0
 19 43  1  0
 20 44  1  0
 22 45  1  0
 25 46  1  0
 26 47  1  0
M  END
>  <smiles>  (12) 
O=C(NCC(=O)N1CCCC1c1ccccn1)c1ccc2cc(Br)ccc2n1

>  <score_type>  (12) 
oracle

>  <origin>  (12) 
autodockgpu

>  <m_score__min__energy>  (12) 
-8.8000000000000007

>  <m_primary>  (12) 
energy

>  <rmsd>  (12) 
9.081666075880579

>  <m_score__min__rmsd>  (12) 
9.081666075880579

>  <meeko>  (12) 
{"free_energy": -8.38, "intermolecular_energy": -9.87, "internal_energy": -1.62, "cluster_size": 10, "cluster_id": 2, "rank_in_cluster": 4}

>  <energy>  (12) 
-8.54

>  <cluster_rmsd>  (12) 
0.71

>  <cluster>  (12) 
1

$$$$

     RDKit          3D

 47 50  0  0  0  0  0  0  0  0999 V2000
  138.9760   71.8960  220.6650 O   0  0  0  0  0  0  0  0  0  0  0  0
  139.1750   72.3970  221.8200 C   0  0  0  0  0  0  0  0  0  0  0  0
  139.1400   73.8040  222.0240 N   0  0  0  0  0  0  0  0  0  0  0  0
  138.8740   74.6830  220.8950 C   0  0  0  0  0  0  0  0  0  0  0  0
  139.9270   74.5180  219.8860 C   0  0  0  0  0  0  0  0  0  0  0  0
  139.7320   73.8120  218.8660 O   0  0  0  0  0  0  0  0  0  0  0  0
  141.1970   75.1360  220.0110 N   0  0  0  0  0  0  0  0  0  0  0  0
  142.3840   74.4740  220.5550 C   0  0  0  0  0  0  0  0  0  0  0  0
  143.5770   75.2590  220.0420 C   0  0  0  0  0  0  0  0  0  0  0  0
  142.9640   76.2660  219.1200 C   0  0  0  0  0  0  0  0  0  0  0  0
  141.5700   76.5070  219.6360 C   0  0  2  0  0  0  0  0  0  0  0  0
  141.5020   77.4170  220.7860 C   0  0  0  0  0  0  0  0  0  0  0  0
  141.8190   78.7540  220.7550 C   0  0  0  0  0  0  0  0  0  0  0  0
  141.7430   79.5800  221.8610 C   0  0  0  0  0  0  0  0  0  0  0  0
  141.3240   79.0150  223.0420 C   0  0  0  0  0  0  0  0  0  0  0  0
  141.0030   77.6650  223.0780 C   0  0  0  0  0  0  0  0  0  0  0  0
  141.0970   76.9120  221.9670 N   0  0  0  0  0  0  0  0  0  0  0  0
  139.4420   71.5200  222.9520 C   0  0  0  0  0  0  0  0  0  0  0  0
  139.0940   70.1780  222.8820 C   0  0  0  0  0  0  0  0  0  0  0  0
  139.3080   69.2870  223.8960 C   0  0  0  0  0  0  0  0  0  0  0  0
  139.9010   69.7380  225.0510 C   0  0  0  0  0  0  0  0  0  0  0  0
  140.1280   68.8570  226.0900 C   0  0  0  0  0  0  0  0  0  0  0  0
  140.7290   69.3640  227.2340 C   0  0  0  0  0  0  0  0  0  0  0  0
  141.0420   68.1440  228.6680 Br  0  0  0  0  0  0  0  0  0  0  0  0
  141.0900   70.6900  227.3430 C   0  0  0  0  0  0  0  0  0  0  0  0
  140.8490   71.5560  226.2800 C   0  0  0  0  0  0  0  0  0  0  0  0
  140.2470   71.0770  225.1170 C   0  0  0  0  0  0  0  0  0  0  0  0
  140.0190   71.9340  224.0910 N   0  0  0  0  0  0  0  0  0  0  0  0
  139.3110   74.1520  222.9890 H   0  0  0  0  0  0  0  0  0  0  0  0
  137.8997   74.4272  220.4530 H   0  0  0  0  0  0  0  0  0  0  0  0
  138.8580   75.7274  221.2400 H   0  0  0  0  0  0  0  0  0  0  0  0
  142.3602   74.4911  221.6546 H   0  0  0  0  0  0  0  0  0  0  0  0
  142.4335   73.4198  220.2447 H   0  0  0  0  0  0  0  0  0  0  0  0
  144.1064   75.7546  220.8691 H   0  0  0  0  0  0  0  0  0  0  0  0
  144.3256   74.6241  219.5455 H   0  0  0  0  0  0  0  0  0  0  0  0
  143.5439   77.2006  219.1348 H   0  0  0  0  0  0  0  0  0  0  0  0
  142.9522   75.9059  218.0807 H   0  0  0  0  0  0  0  0  0  0  0  0
  140.9137   77.0034  218.9060 H   0  0  0  0  0  0  0  0  0  0  0  0
  142.1504   79.1894  219.8007 H   0  0  0  0  0  0  0  0  0  0  0  0
  142.0071   80.6460  221.7985 H   0  0  0  0  0  0  0  0  0  0  0  0
  141.2437   79.6281  223.9518 H   0  0  0  0  0  0  0  0  0  0  0  0
  140.6695   77.2077  224.0212 H   0  0  0  0  0  0  0  0  0  0  0  0
  138.6198   69.8115  221.9596 H   0  0  0  0  0  0  0  0  0  0  0  0
  139.0123   68.2328  223.7901 H   0  0  0  0  0  0  0  0  0  0  0  0
  139.8442   67.7970  226.0142 H   0  0  0  0  0  0  0  0  0  0  0  0
  141.5650   71.0611  228.2632 H   0  0  0  0  0  0  0  0  0  0  0  0
  141.1329   72.6159  226.3573 H   0  0  0  0  0  0  0  0  0  0  0  0
  1  2  2  0
  2  3  1  0
  3  4  1  0
  4  5  1  0
  5  6  2  0
  5  7  1  0
  7  8  1  0
  8  9  1  0
  9 10  1  0
 10 11  1  0
 11 12  1  0
 12 13  2  0
 13 14  1  0
 14 15  2  0
 15 16  1  0
 16 17  2  0
  2 18  1  0
 18 19  2  0
 19 20  1  0
 20 21  2  0
 21 22  1  0
 22 23  2  0
 23 24  1  0
 23 25  1  0
 25 26  2  0
 26 27  1  0
 27 28  2  0
 11  7  1  0
 17 12  1  0
 28 18  1  0
 27 21  1  0
  3 29  1  0
  4 30  1  0
  4 31  1  0
  8 32  1  0
  8 33  1  0
  9 34  1  0
  9 35  1  0
 10 36  1  0
 10 37  1  0
 11 38  1  6
 13 39  1  0
 14 40  1  0
 15 41  1  0
 16 42  1  0
 19 43  1  0
 20 44  1  0
 22 45  1  0
 25 46  1  0
 26 47  1  0
M  END
>  <smiles>  (13) 
O=C(NCC(=O)N1CCCC1c1ccccn1)c1ccc2cc(Br)ccc2n1

>  <score_type>  (13) 
oracle

>  <origin>  (13) 
autodockgpu

>  <m_score__min__energy>  (13) 
-8.8000000000000007

>  <m_primary>  (13) 
energy

>  <rmsd>  (13) 
2.2793081060690503

>  <m_score__min__rmsd>  (13) 
2.2793081060690503

>  <meeko>  (13) 
{"free_energy": -7.82, "intermolecular_energy": -9.31, "internal_energy": -1.68, "cluster_size": 25, "cluster_id": 1, "rank_in_cluster": 24}

>  <energy>  (13) 
-8.48

>  <cluster_rmsd>  (13) 
0.72

>  <cluster>  (13) 
1

$$$$

     RDKit          3D

 47 50  0  0  0  0  0  0  0  0999 V2000
  142.1180   73.1730  220.7510 O   0  0  0  0  0  0  0  0  0  0  0  0
  141.3190   73.8850  221.4440 C   0  0  0  0  0  0  0  0  0  0  0  0
  140.3690   73.2820  222.3140 N   0  0  0  0  0  0  0  0  0  0  0  0
  140.3110   71.8310  222.4130 C   0  0  0  0  0  0  0  0  0  0  0  0
  138.9760   71.4240  222.8670 C   0  0  0  0  0  0  0  0  0  0  0  0
  137.9450   71.8620  222.2980 O   0  0  0  0  0  0  0  0  0  0  0  0
  138.7860   70.5320  223.9530 N   0  0  0  0  0  0  0  0  0  0  0  0
  137.4790   70.2040  224.5280 C   0  0  0  0  0  0  0  0  0  0  0  0
  137.6610   68.8890  225.2630 C   0  0  0  0  0  0  0  0  0  0  0  0
  139.0690   68.4990  224.9410 C   0  0  0  0  0  0  0  0  0  0  0  0
  139.8110   69.7850  224.6930 C   0  0  2  0  0  0  0  0  0  0  0  0
  140.2150   70.4920  225.9150 C   0  0  0  0  0  0  0  0  0  0  0  0
  140.9990   71.6200  225.9520 C   0  0  0  0  0  0  0  0  0  0  0  0
  141.3590   72.2590  227.1230 C   0  0  0  0  0  0  0  0  0  0  0  0
  140.8980   71.7210  228.3020 C   0  0  0  0  0  0  0  0  0  0  0  0
  140.1070   70.5810  228.2690 C   0  0  0  0  0  0  0  0  0  0  0  0
  139.7900   70.0040  227.0960 N   0  0  0  0  0  0  0  0  0  0  0  0
  141.3750   75.3370  221.3480 C   0  0  0  0  0  0  0  0  0  0  0  0
  142.0080   75.9320  220.2650 C   0  0  0  0  0  0  0  0  0  0  0  0
  142.1060   77.2850  220.0970 C   0  0  0  0  0  0  0  0  0  0  0  0
  141.5500   78.1070  221.0480 C   0  0  0  0  0  0  0  0  0  0  0  0
  141.6370   79.4770  220.8990 C   0  0  0  0  0  0  0  0  0  0  0  0
  141.0590   80.2610  221.8890 C   0  0  0  0  0  0  0  0  0  0  0  0
  141.1800   82.1540  221.6810 Br  0  0  0  0  0  0  0  0  0  0  0  0
  140.4210   79.7090  222.9790 C   0  0  0  0  0  0  0  0  0  0  0  0
  140.3500   78.3250  223.1030 C   0  0  0  0  0  0  0  0  0  0  0  0
  140.9200   77.5090  222.1260 C   0  0  0  0  0  0  0  0  0  0  0  0
  140.8410   76.1620  222.2620 N   0  0  0  0  0  0  0  0  0  0  0  0
  139.7440   73.9150  222.8530 H   0  0  0  0  0  0  0  0  0  0  0  0
  140.5137   71.3879  221.4268 H   0  0  0  0  0  0  0  0  0  0  0  0
  141.0652   71.4825  223.1339 H   0  0  0  0  0  0  0  0  0  0  0  0
  137.1610   70.9914  225.2272 H   0  0  0  0  0  0  0  0  0  0  0  0
  136.7056   70.1258  223.7497 H   0  0  0  0  0  0  0  0  0  0  0  0
  137.5285   69.0230  226.3467 H   0  0  0  0  0  0  0  0  0  0  0  0
  136.9268   68.1265  224.9638 H   0  0  0  0  0  0  0  0  0  0  0  0
  139.5177   67.9560  225.7859 H   0  0  0  0  0  0  0  0  0  0  0  0
  139.1121   67.8344  224.0655 H   0  0  0  0  0  0  0  0  0  0  0  0
  140.7714   69.6426  224.1760 H   0  0  0  0  0  0  0  0  0  0  0  0
  141.3588   72.0360  224.9994 H   0  0  0  0  0  0  0  0  0  0  0  0
  141.9885   73.1610  227.1128 H   0  0  0  0  0  0  0  0  0  0  0  0
  141.1542   72.1905  229.2632 H   0  0  0  0  0  0  0  0  0  0  0  0
  139.7366   70.1461  229.2090 H   0  0  0  0  0  0  0  0  0  0  0  0
  142.4549   75.2792  219.5007 H   0  0  0  0  0  0  0  0  0  0  0  0
  142.6186   77.7068  219.2199 H   0  0  0  0  0  0  0  0  0  0  0  0
  142.1428   79.9284  220.0327 H   0  0  0  0  0  0  0  0  0  0  0  0
  139.9714   80.3578  223.7451 H   0  0  0  0  0  0  0  0  0  0  0  0
  139.8450   77.8750  223.9704 H   0  0  0  0  0  0  0  0  0  0  0  0
  1  2  2  0
  2  3  1  0
  3  4  1  0
  4  5  1  0
  5  6  2  0
  5  7  1  0
  7  8  1  0
  8  9  1  0
  9 10  1  0
 10 11  1  0
 11 12  1  0
 12 13  2  0
 13 14  1  0
 14 15  2  0
 15 16  1  0
 16 17  2  0
  2 18  1  0
 18 19  2  0
 19 20  1  0
 20 21  2  0
 21 22  1  0
 22 23  2  0
 23 24  1  0
 23 25  1  0
 25 26  2  0
 26 27  1  0
 27 28  2  0
 11  7  1  0
 17 12  1  0
 28 18  1  0
 27 21  1  0
  3 29  1  0
  4 30  1  0
  4 31  1  0
  8 32  1  0
  8 33  1  0
  9 34  1  0
  9 35  1  0
 10 36  1  0
 10 37  1  0
 11 38  1  6
 13 39  1  0
 14 40  1  0
 15 41  1  0
 16 42  1  0
 19 43  1  0
 20 44  1  0
 22 45  1  0
 25 46  1  0
 26 47  1  0
M  END
>  <smiles>  (14) 
O=C(NCC(=O)N1CCCC1c1ccccn1)c1ccc2cc(Br)ccc2n1

>  <score_type>  (14) 
oracle

>  <origin>  (14) 
autodockgpu

>  <m_score__min__energy>  (14) 
-8.8000000000000007

>  <m_primary>  (14) 
energy

>  <rmsd>  (14) 
9.09151171043554

>  <m_score__min__rmsd>  (14) 
9.09151171043554

>  <meeko>  (14) 
{"free_energy": -8.3, "intermolecular_energy": -9.79, "internal_energy": -1.55, "cluster_size": 10, "cluster_id": 2, "rank_in_cluster": 7}

>  <energy>  (14) 
-8.45

>  <cluster_rmsd>  (14) 
1.3

>  <cluster>  (14) 
1

$$$$

     RDKit          3D

 47 50  0  0  0  0  0  0  0  0999 V2000
  139.0200   72.0810  220.7490 O   0  0  0  0  0  0  0  0  0  0  0  0
  139.2900   72.5650  221.8970 C   0  0  0  0  0  0  0  0  0  0  0  0
  139.3500   73.9710  222.1030 N   0  0  0  0  0  0  0  0  0  0  0  0
  139.0990   74.8680  220.9840 C   0  0  0  0  0  0  0  0  0  0  0  0
  140.1350   74.6780  219.9630 C   0  0  0  0  0  0  0  0  0  0  0  0
  139.9830   73.8340  219.0450 O   0  0  0  0  0  0  0  0  0  0  0  0
  141.3410   75.4250  219.9600 N   0  0  0  0  0  0  0  0  0  0  0  0
  142.6460   74.8810  220.3420 C   0  0  0  0  0  0  0  0  0  0  0  0
  143.6830   75.7980  219.7200 C   0  0  0  0  0  0  0  0  0  0  0  0
  142.8650   76.7540  218.9100 C   0  0  0  0  0  0  0  0  0  0  0  0
  141.5240   76.8350  219.5900 C   0  0  2  0  0  0  0  0  0  0  0  0
  141.4990   77.7090  220.7700 C   0  0  0  0  0  0  0  0  0  0  0  0
  141.8280   79.0430  220.7710 C   0  0  0  0  0  0  0  0  0  0  0  0
  141.7930   79.8340  221.9030 C   0  0  0  0  0  0  0  0  0  0  0  0
  141.4040   79.2360  223.0790 C   0  0  0  0  0  0  0  0  0  0  0  0
  141.0710   77.8890  223.0820 C   0  0  0  0  0  0  0  0  0  0  0  0
  141.1260   77.1700  221.9460 N   0  0  0  0  0  0  0  0  0  0  0  0
  139.5410   71.6700  223.0190 C   0  0  0  0  0  0  0  0  0  0  0  0
  139.1820   70.3320  222.9280 C   0  0  0  0  0  0  0  0  0  0  0  0
  139.3810   69.4260  223.9310 C   0  0  0  0  0  0  0  0  0  0  0  0
  139.9700   69.8560  225.0960 C   0  0  0  0  0  0  0  0  0  0  0  0
  140.1820   68.9580  226.1240 C   0  0  0  0  0  0  0  0  0  0  0  0
  140.7790   69.4450  227.2790 C   0  0  0  0  0  0  0  0  0  0  0  0
  141.0710   68.2020  228.6980 Br  0  0  0  0  0  0  0  0  0  0  0  0
  141.1510   70.7650  227.4090 C   0  0  0  0  0  0  0  0  0  0  0  0
  140.9250   71.6480  226.3570 C   0  0  0  0  0  0  0  0  0  0  0  0
  140.3270   71.1900  225.1830 C   0  0  0  0  0  0  0  0  0  0  0  0
  140.1140   72.0630  224.1670 N   0  0  0  0  0  0  0  0  0  0  0  0
  139.5750   74.3050  223.0610 H   0  0  0  0  0  0  0  0  0  0  0  0
  138.1124   74.6467  220.5509 H   0  0  0  0  0  0  0  0  0  0  0  0
  139.1191   75.9095  221.3373 H   0  0  0  0  0  0  0  0  0  0  0  0
  142.7507   74.8735  221.4370 H   0  0  0  0  0  0  0  0  0  0  0  0
  142.7664   73.8443  219.9945 H   0  0  0  0  0  0  0  0  0  0  0  0
  144.2540   76.3289  220.4959 H   0  0  0  0  0  0  0  0  0  0  0  0
  144.4278   75.2560  219.1187 H   0  0  0  0  0  0  0  0  0  0  0  0
  143.3435   77.7443  218.8900 H   0  0  0  0  0  0  0  0  0  0  0  0
  142.7676   76.4169  217.8675 H   0  0  0  0  0  0  0  0  0  0  0  0
  140.7386   77.2737  218.9570 H   0  0  0  0  0  0  0  0  0  0  0  0
  142.1352   79.5051  219.8212 H   0  0  0  0  0  0  0  0  0  0  0  0
  142.0652   80.8991  221.8654 H   0  0  0  0  0  0  0  0  0  0  0  0
  141.3573   79.8208  224.0095 H   0  0  0  0  0  0  0  0  0  0  0  0
  140.7598   77.4055  224.0198 H   0  0  0  0  0  0  0  0  0  0  0  0
  138.7115   69.9822  221.9973 H   0  0  0  0  0  0  0  0  0  0  0  0
  139.0767   68.3760  223.8089 H   0  0  0  0  0  0  0  0  0  0  0  0
  139.8901   67.9015  226.0314 H   0  0  0  0  0  0  0  0  0  0  0  0
  141.6232   71.1187  228.3374 H   0  0  0  0  0  0  0  0  0  0  0  0
  141.2172   72.7043  226.4512 H   0  0  0  0  0  0  0  0  0  0  0  0
  1  2  2  0
  2  3  1  0
  3  4  1  0
  4  5  1  0
  5  6  2  0
  5  7  1  0
  7  8  1  0
  8  9  1  0
  9 10  1  0
 10 11  1  0
 11 12  1  0
 12 13  2  0
 13 14  1  0
 14 15  2  0
 15 16  1  0
 16 17  2  0
  2 18  1  0
 18 19  2  0
 19 20  1  0
 20 21  2  0
 21 22  1  0
 22 23  2  0
 23 24  1  0
 23 25  1  0
 25 26  2  0
 26 27  1  0
 27 28  2  0
 11  7  1  0
 17 12  1  0
 28 18  1  0
 27 21  1  0
  3 29  1  0
  4 30  1  0
  4 31  1  0
  8 32  1  0
  8 33  1  0
  9 34  1  0
  9 35  1  0
 10 36  1  0
 10 37  1  0
 11 38  1  6
 13 39  1  0
 14 40  1  0
 15 41  1  0
 16 42  1  0
 19 43  1  0
 20 44  1  0
 22 45  1  0
 25 46  1  0
 26 47  1  0
M  END
>  <smiles>  (15) 
O=C(NCC(=O)N1CCCC1c1ccccn1)c1ccc2cc(Br)ccc2n1

>  <score_type>  (15) 
oracle

>  <origin>  (15) 
autodockgpu

>  <m_score__min__energy>  (15) 
-8.8000000000000007

>  <m_primary>  (15) 
energy

>  <rmsd>  (15) 
2.254023391039522

>  <m_score__min__rmsd>  (15) 
2.254023391039522

>  <meeko>  (15) 
{"free_energy": -7.95, "intermolecular_energy": -9.44, "internal_energy": -1.63, "cluster_size": 25, "cluster_id": 1, "rank_in_cluster": 21}

>  <energy>  (15) 
-8.44

>  <cluster_rmsd>  (15) 
1.31

>  <cluster>  (15) 
1

$$$$

     RDKit          3D

 47 50  0  0  0  0  0  0  0  0999 V2000
  140.0110   72.4350  220.6840 O   0  0  0  0  0  0  0  0  0  0  0  0
  139.8810   72.8660  221.8770 C   0  0  0  0  0  0  0  0  0  0  0  0
  139.6600   74.2470  222.1360 N   0  0  0  0  0  0  0  0  0  0  0  0
  139.5800   75.1790  221.0200 C   0  0  0  0  0  0  0  0  0  0  0  0
  140.9340   75.5080  220.5590 C   0  0  0  0  0  0  0  0  0  0  0  0
  141.8310   74.6290  220.5290 O   0  0  0  0  0  0  0  0  0  0  0  0
  141.2920   76.8110  220.1320 N   0  0  0  0  0  0  0  0  0  0  0  0
  142.4790   77.1170  219.3290 C   0  0  0  0  0  0  0  0  0  0  0  0
  142.2130   78.4620  218.6790 C   0  0  0  0  0  0  0  0  0  0  0  0
  140.8040   78.7730  219.0790 C   0  0  0  0  0  0  0  0  0  0  0  0
  140.5800   78.0700  220.3920 C   0  0  2  0  0  0  0  0  0  0  0  0
  141.1370   78.7730  221.5550 C   0  0  0  0  0  0  0  0  0  0  0  0
  141.4790   80.1030  221.5830 C   0  0  0  0  0  0  0  0  0  0  0  0
  142.0020   80.7310  222.6980 C   0  0  0  0  0  0  0  0  0  0  0  0
  142.1800   79.9660  223.8270 C   0  0  0  0  0  0  0  0  0  0  0  0
  141.8350   78.6220  223.8020 C   0  0  0  0  0  0  0  0  0  0  0  0
  141.3310   78.0670  222.6850 N   0  0  0  0  0  0  0  0  0  0  0  0
  139.9610   71.9360  222.9950 C   0  0  0  0  0  0  0  0  0  0  0  0
  139.5160   70.6300  222.8390 C   0  0  0  0  0  0  0  0  0  0  0  0
  139.5540   69.6950  223.8340 C   0  0  0  0  0  0  0  0  0  0  0  0
  140.0590   70.0600  225.0590 C   0  0  0  0  0  0  0  0  0  0  0  0
  140.1080   69.1310  226.0800 C   0  0  0  0  0  0  0  0  0  0  0  0
  140.6270   69.5520  227.2970 C   0  0  0  0  0  0  0  0  0  0  0  0
  140.6930   68.2670  228.7070 Br  0  0  0  0  0  0  0  0  0  0  0  0
  141.0800   70.8390  227.4930 C   0  0  0  0  0  0  0  0  0  0  0  0
  141.0180   71.7540  226.4460 C   0  0  0  0  0  0  0  0  0  0  0  0
  140.5020   71.3620  225.2110 C   0  0  0  0  0  0  0  0  0  0  0  0
  140.4500   72.2660  224.2010 N   0  0  0  0  0  0  0  0  0  0  0  0
  139.5630   74.5380  223.1290 H   0  0  0  0  0  0  0  0  0  0  0  0
  139.0145   74.7177  220.1970 H   0  0  0  0  0  0  0  0  0  0  0  0
  139.0703   76.0978  221.3456 H   0  0  0  0  0  0  0  0  0  0  0  0
  143.3702   77.1732  219.9713 H   0  0  0  0  0  0  0  0  0  0  0  0
  142.6664   76.3372  218.5761 H   0  0  0  0  0  0  0  0  0  0  0  0
  142.9070   79.2261  219.0590 H   0  0  0  0  0  0  0  0  0  0  0  0
  142.3542   78.4453  217.5882 H   0  0  0  0  0  0  0  0  0  0  0  0
  140.6716   79.8584  219.1992 H   0  0  0  0  0  0  0  0  0  0  0  0
  140.0857   78.4392  218.3157 H   0  0  0  0  0  0  0  0  0  0  0  0
  139.5176   77.9769  220.6615 H   0  0  0  0  0  0  0  0  0  0  0  0
  141.3290   80.6993  220.6709 H   0  0  0  0  0  0  0  0  0  0  0  0
  142.2650   81.7990  222.6828 H   0  0  0  0  0  0  0  0  0  0  0  0
  142.5924   80.4157  224.7422 H   0  0  0  0  0  0  0  0  0  0  0  0
  141.9748   78.0058  224.7024 H   0  0  0  0  0  0  0  0  0  0  0  0
  139.1108   70.3321  221.8607 H   0  0  0  0  0  0  0  0  0  0  0  0
  139.1885   68.6724  223.6587 H   0  0  0  0  0  0  0  0  0  0  0  0
  139.7508   68.1008  225.9350 H   0  0  0  0  0  0  0  0  0  0  0  0
  141.4873   71.1406  228.4693 H   0  0  0  0  0  0  0  0  0  0  0  0
  141.3752   72.7841  226.5923 H   0  0  0  0  0  0  0  0  0  0  0  0
  1  2  2  0
  2  3  1  0
  3  4  1  0
  4  5  1  0
  5  6  2  0
  5  7  1  0
  7  8  1  0
  8  9  1  0
  9 10  1  0
 10 11  1  0
 11 12  1  0
 12 13  2  0
 13 14  1  0
 14 15  2  0
 15 16  1  0
 16 17  2  0
  2 18  1  0
 18 19  2  0
 19 20  1  0
 20 21  2  0
 21 22  1  0
 22 23  2  0
 23 24  1  0
 23 25  1  0
 25 26  2  0
 26 27  1  0
 27 28  2  0
 11  7  1  0
 17 12  1  0
 28 18  1  0
 27 21  1  0
  3 29  1  0
  4 30  1  0
  4 31  1  0
  8 32  1  0
  8 33  1  0
  9 34  1  0
  9 35  1  0
 10 36  1  0
 10 37  1  0
 11 38  1  1
 13 39  1  0
 14 40  1  0
 15 41  1  0
 16 42  1  0
 19 43  1  0
 20 44  1  0
 22 45  1  0
 25 46  1  0
 26 47  1  0
M  END
>  <smiles>  (16) 
O=C(NCC(=O)N1CCCC1c1ccccn1)c1ccc2cc(Br)ccc2n1

>  <score_type>  (16) 
oracle

>  <origin>  (16) 
autodockgpu

>  <m_score__min__energy>  (16) 
-8.8000000000000007

>  <m_primary>  (16) 
energy

>  <rmsd>  (16) 
2.291182929136022

>  <m_score__min__rmsd>  (16) 
2.291182929136022

>  <meeko>  (16) 
{"free_energy": -8.48, "intermolecular_energy": -9.97, "internal_energy": -1.45, "cluster_size": 25, "cluster_id": 1, "rank_in_cluster": 13}

>  <energy>  (16) 
-8.43

>  <cluster_rmsd>  (16) 
0.9

>  <cluster>  (16) 
1

$$$$

     RDKit          3D

 47 50  0  0  0  0  0  0  0  0999 V2000
  140.1670   72.5200  220.6970 O   0  0  0  0  0  0  0  0  0  0  0  0
  139.6350   72.7950  221.8220 C   0  0  0  0  0  0  0  0  0  0  0  0
  138.8680   73.9810  221.9980 N   0  0  0  0  0  0  0  0  0  0  0  0
  138.6910   74.8900  220.8760 C   0  0  0  0  0  0  0  0  0  0  0  0
  139.1720   76.2250  221.2460 C   0  0  0  0  0  0  0  0  0  0  0  0
  138.4430   77.0100  221.9030 O   0  0  0  0  0  0  0  0  0  0  0  0
  140.4630   76.6910  220.8880 N   0  0  0  0  0  0  0  0  0  0  0  0
  141.6480   75.8350  220.7880 C   0  0  0  0  0  0  0  0  0  0  0  0
  142.6340   76.5820  219.9110 C   0  0  0  0  0  0  0  0  0  0  0  0
  141.8680   77.7890  219.4680 C   0  0  0  0  0  0  0  0  0  0  0  0
  140.8630   78.0650  220.5550 C   0  0  2  0  0  0  0  0  0  0  0  0
  141.4160   78.7620  221.7230 C   0  0  0  0  0  0  0  0  0  0  0  0
  141.2810   78.3480  223.0260 C   0  0  0  0  0  0  0  0  0  0  0  0
  141.8160   79.0320  224.1010 C   0  0  0  0  0  0  0  0  0  0  0  0
  142.5170   80.1830  223.8300 C   0  0  0  0  0  0  0  0  0  0  0  0
  142.6560   80.6050  222.5160 C   0  0  0  0  0  0  0  0  0  0  0  0
  142.1110   79.8960  221.5110 N   0  0  0  0  0  0  0  0  0  0  0  0
  139.8110   71.8870  222.9470 C   0  0  0  0  0  0  0  0  0  0  0  0
  139.4410   70.5550  222.8230 C   0  0  0  0  0  0  0  0  0  0  0  0
  139.5710   69.6380  223.8270 C   0  0  0  0  0  0  0  0  0  0  0  0
  140.0980   70.0490  225.0290 C   0  0  0  0  0  0  0  0  0  0  0  0
  140.2390   69.1400  226.0580 C   0  0  0  0  0  0  0  0  0  0  0  0
  140.7760   69.6080  227.2500 C   0  0  0  0  0  0  0  0  0  0  0  0
  140.9700   68.3490  228.6710 Br  0  0  0  0  0  0  0  0  0  0  0  0
  141.1560   70.9230  227.4140 C   0  0  0  0  0  0  0  0  0  0  0  0
  141.0010   71.8180  226.3590 C   0  0  0  0  0  0  0  0  0  0  0  0
  140.4660   71.3780  225.1480 C   0  0  0  0  0  0  0  0  0  0  0  0
  140.3220   72.2630  224.1310 N   0  0  0  0  0  0  0  0  0  0  0  0
  138.4600   74.1510  222.9390 H   0  0  0  0  0  0  0  0  0  0  0  0
  139.2628   74.5210  220.0118 H   0  0  0  0  0  0  0  0  0  0  0  0
  137.6240   74.9449  220.6142 H   0  0  0  0  0  0  0  0  0  0  0  0
  142.0790   75.6618  221.7851 H   0  0  0  0  0  0  0  0  0  0  0  0
  141.3983   74.8512  220.3639 H   0  0  0  0  0  0  0  0  0  0  0  0
  143.5272   76.8722  220.4836 H   0  0  0  0  0  0  0  0  0  0  0  0
  143.0010   75.9764  219.0692 H   0  0  0  0  0  0  0  0  0  0  0  0
  142.5447   78.6476  219.3462 H   0  0  0  0  0  0  0  0  0  0  0  0
  141.3766   77.6208  218.4983 H   0  0  0  0  0  0  0  0  0  0  0  0
  140.0537   78.7401  220.2400 H   0  0  0  0  0  0  0  0  0  0  0  0
  140.7178   77.4241  223.2239 H   0  0  0  0  0  0  0  0  0  0  0  0
  141.6862   78.6701  225.1316 H   0  0  0  0  0  0  0  0  0  0  0  0
  142.9644   80.7651  224.6491 H   0  0  0  0  0  0  0  0  0  0  0  0
  143.2157   81.5256  222.2942 H   0  0  0  0  0  0  0  0  0  0  0  0
  139.0200   70.2195  221.8637 H   0  0  0  0  0  0  0  0  0  0  0  0
  139.2609   68.5933  223.6774 H   0  0  0  0  0  0  0  0  0  0  0  0
  139.9385   68.0886  225.9388 H   0  0  0  0  0  0  0  0  0  0  0  0
  141.5785   71.2625  228.3712 H   0  0  0  0  0  0  0  0  0  0  0  0
  141.2997   72.8697  226.4799 H   0  0  0  0  0  0  0  0  0  0  0  0
  1  2  2  0
  2  3  1  0
  3  4  1  0
  4  5  1  0
  5  6  2  0
  5  7  1  0
  7  8  1  0
  8  9  1  0
  9 10  1  0
 10 11  1  0
 11 12  1  0
 12 13  2  0
 13 14  1  0
 14 15  2  0
 15 16  1  0
 16 17  2  0
  2 18  1  0
 18 19  2  0
 19 20  1  0
 20 21  2  0
 21 22  1  0
 22 23  2  0
 23 24  1  0
 23 25  1  0
 25 26  2  0
 26 27  1  0
 27 28  2  0
 11  7  1  0
 17 12  1  0
 28 18  1  0
 27 21  1  0
  3 29  1  0
  4 30  1  0
  4 31  1  0
  8 32  1  0
  8 33  1  0
  9 34  1  0
  9 35  1  0
 10 36  1  0
 10 37  1  0
 11 38  1  6
 13 39  1  0
 14 40  1  0
 15 41  1  0
 16 42  1  0
 19 43  1  0
 20 44  1  0
 22 45  1  0
 25 46  1  0
 26 47  1  0
M  END
>  <smiles>  (17) 
O=C(NCC(=O)N1CCCC1c1ccccn1)c1ccc2cc(Br)ccc2n1

>  <score_type>  (17) 
oracle

>  <origin>  (17) 
autodockgpu

>  <m_score__min__energy>  (17) 
-8.8000000000000007

>  <m_primary>  (17) 
energy

>  <rmsd>  (17) 
2.6476067646984265

>  <m_score__min__rmsd>  (17) 
2.6476067646984265

>  <meeko>  (17) 
{"free_energy": -8.79, "intermolecular_energy": -10.28, "internal_energy": -1.44, "cluster_size": 25, "cluster_id": 1, "rank_in_cluster": 3}

>  <energy>  (17) 
-8.42

>  <cluster_rmsd>  (17) 
1.34

>  <cluster>  (17) 
1

$$$$

     RDKit          3D

 47 50  0  0  0  0  0  0  0  0999 V2000
  134.7250   68.2770  224.9220 O   0  0  0  0  0  0  0  0  0  0  0  0
  134.9670   69.3860  224.3430 C   0  0  0  0  0  0  0  0  0  0  0  0
  135.6750   69.4290  223.1100 N   0  0  0  0  0  0  0  0  0  0  0  0
  136.1290   68.1860  222.5040 C   0  0  0  0  0  0  0  0  0  0  0  0
  137.5800   68.0560  222.6790 C   0  0  0  0  0  0  0  0  0  0  0  0
  138.1760   67.0060  222.3340 O   0  0  0  0  0  0  0  0  0  0  0  0
  138.3700   69.0930  223.2360 N   0  0  0  0  0  0  0  0  0  0  0  0
  139.4870   69.7400  222.5420 C   0  0  0  0  0  0  0  0  0  0  0  0
  139.6990   71.0720  223.2370 C   0  0  0  0  0  0  0  0  0  0  0  0
  138.5770   71.1350  224.2260 C   0  0  0  0  0  0  0  0  0  0  0  0
  138.2410   69.7070  224.5650 C   0  0  2  0  0  0  0  0  0  0  0  0
  139.1520   69.0870  225.5360 C   0  0  0  0  0  0  0  0  0  0  0  0
  139.9610   69.7740  226.4080 C   0  0  0  0  0  0  0  0  0  0  0  0
  140.8070   69.1540  227.3080 C   0  0  0  0  0  0  0  0  0  0  0  0
  140.8230   67.7790  227.3150 C   0  0  0  0  0  0  0  0  0  0  0  0
  140.0080   67.0820  226.4350 C   0  0  0  0  0  0  0  0  0  0  0  0
  139.2050   67.7420  225.5810 N   0  0  0  0  0  0  0  0  0  0  0  0
  134.5140   70.6320  224.9470 C   0  0  0  0  0  0  0  0  0  0  0  0
  133.5590   70.6030  225.9530 C   0  0  0  0  0  0  0  0  0  0  0  0
  133.0790   71.7230  226.5730 C   0  0  0  0  0  0  0  0  0  0  0  0
  133.5650   72.9480  226.1830 C   0  0  0  0  0  0  0  0  0  0  0  0
  133.0950   74.0930  226.7950 C   0  0  0  0  0  0  0  0  0  0  0  0
  133.6190   75.3040  226.3630 C   0  0  0  0  0  0  0  0  0  0  0  0
  132.9690   76.8860  227.2100 Br  0  0  0  0  0  0  0  0  0  0  0  0
  134.5690   75.3760  225.3670 C   0  0  0  0  0  0  0  0  0  0  0  0
  135.0240   74.2050  224.7680 C   0  0  0  0  0  0  0  0  0  0  0  0
  134.5180   72.9720  225.1790 C   0  0  0  0  0  0  0  0  0  0  0  0
  134.9720   71.8410  224.5850 N   0  0  0  0  0  0  0  0  0  0  0  0
  135.8420   70.3630  222.6860 H   0  0  0  0  0  0  0  0  0  0  0  0
  135.6241   67.3368  222.9877 H   0  0  0  0  0  0  0  0  0  0  0  0
  135.8891   68.1932  221.4305 H   0  0  0  0  0  0  0  0  0  0  0  0
  140.3934   69.1213  222.6177 H   0  0  0  0  0  0  0  0  0  0  0  0
  139.2714   69.8748  221.4718 H   0  0  0  0  0  0  0  0  0  0  0  0
  140.6736   71.0986  223.7464 H   0  0  0  0  0  0  0  0  0  0  0  0
  139.7024   71.9225  222.5394 H   0  0  0  0  0  0  0  0  0  0  0  0
  138.8936   71.6777  225.1289 H   0  0  0  0  0  0  0  0  0  0  0  0
  137.7065   71.6665  223.8140 H   0  0  0  0  0  0  0  0  0  0  0  0
  137.2636   69.5931  225.0566 H   0  0  0  0  0  0  0  0  0  0  0  0
  139.9341   70.8735  226.3890 H   0  0  0  0  0  0  0  0  0  0  0  0
  141.4420   69.7370  227.9912 H   0  0  0  0  0  0  0  0  0  0  0  0
  141.4770   67.2359  228.0131 H   0  0  0  0  0  0  0  0  0  0  0  0
  140.0184   65.9821  226.4355 H   0  0  0  0  0  0  0  0  0  0  0  0
  133.1665   69.6252  226.2691 H   0  0  0  0  0  0  0  0  0  0  0  0
  132.3208   71.6454  227.3662 H   0  0  0  0  0  0  0  0  0  0  0  0
  132.3374   74.0477  227.5912 H   0  0  0  0  0  0  0  0  0  0  0  0
  134.9646   76.3516  225.0479 H   0  0  0  0  0  0  0  0  0  0  0  0
  135.7815   74.2519  223.9717 H   0  0  0  0  0  0  0  0  0  0  0  0
  1  2  2  0
  2  3  1  0
  3  4  1  0
  4  5  1  0
  5  6  2  0
  5  7  1  0
  7  8  1  0
  8  9  1  0
  9 10  1  0
 10 11  1  0
 11 12  1  0
 12 13  2  0
 13 14  1  0
 14 15  2  0
 15 16  1  0
 16 17  2  0
  2 18  1  0
 18 19  2  0
 19 20  1  0
 20 21  2  0
 21 22  1  0
 22 23  2  0
 23 24  1  0
 23 25  1  0
 25 26  2  0
 26 27  1  0
 27 28  2  0
 11  7  1  0
 17 12  1  0
 28 18  1  0
 27 21  1  0
  3 29  1  0
  4 30  1  0
  4 31  1  0
  8 32  1  0
  8 33  1  0
  9 34  1  0
  9 35  1  0
 10 36  1  0
 10 37  1  0
 11 38  1  1
 13 39  1  0
 14 40  1  0
 15 41  1  0
 16 42  1  0
 19 43  1  0
 20 44  1  0
 22 45  1  0
 25 46  1  0
 26 47  1  0
M  END
>  <smiles>  (18) 
O=C(NCC(=O)N1CCCC1c1ccccn1)c1ccc2cc(Br)ccc2n1

>  <score_type>  (18) 
oracle

>  <origin>  (18) 
autodockgpu

>  <m_score__min__energy>  (18) 
-8.8000000000000007

>  <m_primary>  (18) 
energy

>  <rmsd>  (18) 
8.849137538388185

>  <m_score__min__rmsd>  (18) 
8.849137538388185

>  <meeko>  (18) 
{"free_energy": -7.63, "intermolecular_energy": -9.12, "internal_energy": -2.06, "cluster_size": 5, "cluster_id": 4, "rank_in_cluster": 5}

>  <energy>  (18) 
-8.32

>  <cluster_rmsd>  (18) 
0.69

>  <cluster>  (18) 
1

$$$$

     RDKit          3D

 47 50  0  0  0  0  0  0  0  0999 V2000
  139.6810   72.3420  220.7100 O   0  0  0  0  0  0  0  0  0  0  0  0
  139.6730   72.7900  221.9030 C   0  0  0  0  0  0  0  0  0  0  0  0
  139.5070   74.1790  222.1630 N   0  0  0  0  0  0  0  0  0  0  0  0
  139.3430   75.0990  221.0470 C   0  0  0  0  0  0  0  0  0  0  0  0
  140.1790   76.2850  221.2640 C   0  0  0  0  0  0  0  0  0  0  0  0
  141.4320   76.2020  221.2210 O   0  0  0  0  0  0  0  0  0  0  0  0
  139.6250   77.5630  221.5290 N   0  0  0  0  0  0  0  0  0  0  0  0
  139.0600   78.4430  220.5030 C   0  0  0  0  0  0  0  0  0  0  0  0
  138.1500   79.4120  221.2350 C   0  0  0  0  0  0  0  0  0  0  0  0
  138.1750   78.9190  222.6480 C   0  0  0  0  0  0  0  0  0  0  0  0
  139.5070   78.2400  222.8280 C   0  0  2  0  0  0  0  0  0  0  0  0
  140.6260   79.1620  223.0580 C   0  0  0  0  0  0  0  0  0  0  0  0
  140.5180   80.4080  223.6260 C   0  0  0  0  0  0  0  0  0  0  0  0
  141.5960   81.2490  223.8270 C   0  0  0  0  0  0  0  0  0  0  0  0
  142.8330   80.7940  223.4320 C   0  0  0  0  0  0  0  0  0  0  0  0
  142.9460   79.5360  222.8580 C   0  0  0  0  0  0  0  0  0  0  0  0
  141.8580   78.7630  222.6880 N   0  0  0  0  0  0  0  0  0  0  0  0
  139.8370   71.8710  223.0220 C   0  0  0  0  0  0  0  0  0  0  0  0
  139.4760   70.5390  222.8780 C   0  0  0  0  0  0  0  0  0  0  0  0
  139.5960   69.6110  223.8750 C   0  0  0  0  0  0  0  0  0  0  0  0
  140.1010   70.0130  225.0880 C   0  0  0  0  0  0  0  0  0  0  0  0
  140.2320   69.0930  226.1100 C   0  0  0  0  0  0  0  0  0  0  0  0
  140.7480   69.5520  227.3150 C   0  0  0  0  0  0  0  0  0  0  0  0
  140.9280   68.2790  228.7260 Br  0  0  0  0  0  0  0  0  0  0  0  0
  141.1190   70.8670  227.4980 C   0  0  0  0  0  0  0  0  0  0  0  0
  140.9750   71.7720  226.4500 C   0  0  0  0  0  0  0  0  0  0  0  0
  140.4610   71.3430  225.2270 C   0  0  0  0  0  0  0  0  0  0  0  0
  140.3280   72.2370  224.2160 N   0  0  0  0  0  0  0  0  0  0  0  0
  139.5090   74.4830  223.1570 H   0  0  0  0  0  0  0  0  0  0  0  0
  139.6471   74.6017  220.1141 H   0  0  0  0  0  0  0  0  0  0  0  0
  138.2882   75.4023  220.9738 H   0  0  0  0  0  0  0  0  0  0  0  0
  139.8618   78.9894  219.9849 H   0  0  0  0  0  0  0  0  0  0  0  0
  138.5092   77.8711  219.7417 H   0  0  0  0  0  0  0  0  0  0  0  0
  138.5373   80.4395  221.1706 H   0  0  0  0  0  0  0  0  0  0  0  0
  137.1350   79.4474  220.8125 H   0  0  0  0  0  0  0  0  0  0  0  0
  138.0779   79.7616  223.3484 H   0  0  0  0  0  0  0  0  0  0  0  0
  137.3414   78.2299  222.8488 H   0  0  0  0  0  0  0  0  0  0  0  0
  139.5510   77.5919  223.7157 H   0  0  0  0  0  0  0  0  0  0  0  0
  139.5214   80.7545  223.9371 H   0  0  0  0  0  0  0  0  0  0  0  0
  141.4703   82.2416  224.2841 H   0  0  0  0  0  0  0  0  0  0  0  0
  143.7251   81.4226  223.5702 H   0  0  0  0  0  0  0  0  0  0  0  0
  143.9324   79.1679  222.5395 H   0  0  0  0  0  0  0  0  0  0  0  0
  139.0712   70.2118  221.9090 H   0  0  0  0  0  0  0  0  0  0  0  0
  139.2950   68.5660  223.7097 H   0  0  0  0  0  0  0  0  0  0  0  0
  139.9399   68.0411  225.9752 H   0  0  0  0  0  0  0  0  0  0  0  0
  141.5257   71.1987  228.4647 H   0  0  0  0  0  0  0  0  0  0  0  0
  141.2663   72.8239  226.5866 H   0  0  0  0  0  0  0  0  0  0  0  0
  1  2  2  0
  2  3  1  0
  3  4  1  0
  4  5  1  0
  5  6  2  0
  5  7  1  0
  7  8  1  0
  8  9  1  0
  9 10  1  0
 10 11  1  0
 11 12  1  0
 12 13  2  0
 13 14  1  0
 14 15  2  0
 15 16  1  0
 16 17  2  0
  2 18  1  0
 18 19  2  0
 19 20  1  0
 20 21  2  0
 21 22  1  0
 22 23  2  0
 23 24  1  0
 23 25  1  0
 25 26  2  0
 26 27  1  0
 27 28  2  0
 11  7  1  0
 17 12  1  0
 28 18  1  0
 27 21  1  0
  3 29  1  0
  4 30  1  0
  4 31  1  0
  8 32  1  0
  8 33  1  0
  9 34  1  0
  9 35  1  0
 10 36  1  0
 10 37  1  0
 11 38  1  1
 13 39  1  0
 14 40  1  0
 15 41  1  0
 16 42  1  0
 19 43  1  0
 20 44  1  0
 22 45  1  0
 25 46  1  0
 26 47  1  0
M  END
>  <smiles>  (19) 
O=C(NCC(=O)N1CCCC1c1ccccn1)c1ccc2cc(Br)ccc2n1

>  <score_type>  (19) 
oracle

>  <origin>  (19) 
autodockgpu

>  <m_score__min__energy>  (19) 
-8.8000000000000007

>  <m_primary>  (19) 
energy

>  <rmsd>  (19) 
3.0979438239496115

>  <m_score__min__rmsd>  (19) 
3.0979438239496115

>  <meeko>  (19) 
{"free_energy": -8.42, "intermolecular_energy": -9.91, "internal_energy": -1.43, "cluster_size": 25, "cluster_id": 1, "rank_in_cluster": 17}

>  <energy>  (19) 
-8.31

>  <cluster_rmsd>  (19) 
0.85

>  <cluster>  (19) 
1

$$$$

     RDKit          3D

 47 50  0  0  0  0  0  0  0  0999 V2000
  136.4170   77.4690  221.6000 O   0  0  0  0  0  0  0  0  0  0  0  0
  137.3470   77.7220  222.4340 C   0  0  0  0  0  0  0  0  0  0  0  0
  138.4570   76.8450  222.5810 N   0  0  0  0  0  0  0  0  0  0  0  0
  138.5300   75.6420  221.7660 C   0  0  0  0  0  0  0  0  0  0  0  0
  139.9350   75.2670  221.5700 C   0  0  0  0  0  0  0  0  0  0  0  0
  140.3580   74.1460  221.9480 O   0  0  0  0  0  0  0  0  0  0  0  0
  140.8720   76.1360  220.9550 N   0  0  0  0  0  0  0  0  0  0  0  0
  142.2000   75.7220  220.4960 C   0  0  0  0  0  0  0  0  0  0  0  0
  142.6360   76.7600  219.4790 C   0  0  0  0  0  0  0  0  0  0  0  0
  141.4380   77.6470  219.3450 C   0  0  0  0  0  0  0  0  0  0  0  0
  140.7130   77.5680  220.6630 C   0  0  2  0  0  0  0  0  0  0  0  0
  141.2960   78.4010  221.7220 C   0  0  0  0  0  0  0  0  0  0  0  0
  141.9680   79.5820  221.5170 C   0  0  0  0  0  0  0  0  0  0  0  0
  142.5040   80.3400  222.5400 C   0  0  0  0  0  0  0  0  0  0  0  0
  142.3440   79.8700  223.8230 C   0  0  0  0  0  0  0  0  0  0  0  0
  141.6660   78.6780  224.0340 C   0  0  0  0  0  0  0  0  0  0  0  0
  141.1660   77.9840  222.9960 N   0  0  0  0  0  0  0  0  0  0  0  0
  137.2770   78.9260  223.2510 C   0  0  0  0  0  0  0  0  0  0  0  0
  138.4210   79.6800  223.4680 C   0  0  0  0  0  0  0  0  0  0  0  0
  138.4440   80.8210  224.2210 C   0  0  0  0  0  0  0  0  0  0  0  0
  137.2730   81.2500  224.7970 C   0  0  0  0  0  0  0  0  0  0  0  0
  137.2710   82.4000  225.5620 C   0  0  0  0  0  0  0  0  0  0  0  0
  136.0610   82.7890  226.1220 C   0  0  0  0  0  0  0  0  0  0  0  0
  136.0620   84.3780  227.1780 Br  0  0  0  0  0  0  0  0  0  0  0  0
  134.9020   82.0680  225.9300 C   0  0  0  0  0  0  0  0  0  0  0  0
  134.9340   80.9130  225.1550 C   0  0  0  0  0  0  0  0  0  0  0  0
  136.1330   80.4950  224.5780 C   0  0  0  0  0  0  0  0  0  0  0  0
  136.1460   79.3670  223.8260 N   0  0  0  0  0  0  0  0  0  0  0  0
  139.1840   77.1060  223.2790 H   0  0  0  0  0  0  0  0  0  0  0  0
  137.9995   74.8228  222.2735 H   0  0  0  0  0  0  0  0  0  0  0  0
  138.0623   75.8328  220.7889 H   0  0  0  0  0  0  0  0  0  0  0  0
  142.9046   75.6952  221.3403 H   0  0  0  0  0  0  0  0  0  0  0  0
  142.1772   74.7138  220.0568 H   0  0  0  0  0  0  0  0  0  0  0  0
  143.5052   77.3266  219.8442 H   0  0  0  0  0  0  0  0  0  0  0  0
  142.9480   76.3160  218.5222 H   0  0  0  0  0  0  0  0  0  0  0  0
  141.7497   78.6821  219.1418 H   0  0  0  0  0  0  0  0  0  0  0  0
  140.7938   77.3306  218.5114 H   0  0  0  0  0  0  0  0  0  0  0  0
  139.6787   77.9394  220.6158 H   0  0  0  0  0  0  0  0  0  0  0  0
  142.0852   79.9426  220.4844 H   0  0  0  0  0  0  0  0  0  0  0  0
  143.0368   81.2807  222.3371 H   0  0  0  0  0  0  0  0  0  0  0  0
  142.7504   80.4348  224.6749 H   0  0  0  0  0  0  0  0  0  0  0  0
  141.5364   78.2977  225.0580 H   0  0  0  0  0  0  0  0  0  0  0  0
  139.3615   79.3412  223.0090 H   0  0  0  0  0  0  0  0  0  0  0  0
  139.3791   81.3828  224.3624 H   0  0  0  0  0  0  0  0  0  0  0  0
  138.1897   82.9836  225.7211 H   0  0  0  0  0  0  0  0  0  0  0  0
  133.9588   82.4033  226.3861 H   0  0  0  0  0  0  0  0  0  0  0  0
  134.0146   80.3301  224.9975 H   0  0  0  0  0  0  0  0  0  0  0  0
  1  2  2  0
  2  3  1  0
  3  4  1  0
  4  5  1  0
  5  6  2  0
  5  7  1  0
  7  8  1  0
  8  9  1  0
  9 10  1  0
 10 11  1  0
 11 12  1  0
 12 13  2  0
 13 14  1  0
 14 15  2  0
 15 16  1  0
 16 17  2  0
  2 18  1  0
 18 19  2  0
 19 20  1  0
 20 21  2  0
 21 22  1  0
 22 23  2  0
 23 24  1  0
 23 25  1  0
 25 26  2  0
 26 27  1  0
 27 28  2  0
 11  7  1  0
 17 12  1  0
 28 18  1  0
 27 21  1  0
  3 29  1  0
  4 30  1  0
  4 31  1  0
  8 32  1  0
  8 33  1  0
  9 34  1  0
  9 35  1  0
 10 36  1  0
 10 37  1  0
 11 38  1  6
 13 39  1  0
 14 40  1  0
 15 41  1  0
 16 42  1  0
 19 43  1  0
 20 44  1  0
 22 45  1  0
 25 46  1  0
 26 47  1  0
M  END
>  <smiles>  (20) 
O=C(NCC(=O)N1CCCC1c1ccccn1)c1ccc2cc(Br)ccc2n1

>  <score_type>  (20) 
oracle

>  <origin>  (20) 
autodockgpu

>  <m_score__min__energy>  (20) 
-8.8000000000000007

>  <m_primary>  (20) 
energy

>  <rmsd>  (20) 
7.631787813434313

>  <m_score__min__rmsd>  (20) 
7.631787813434313

>  <meeko>  (20) 
{"free_energy": -6.81, "intermolecular_energy": -8.3, "internal_energy": -2.63, "cluster_size": 2, "cluster_id": 5, "rank_in_cluster": 2}

>  <energy>  (20) 
-8.04

>  <cluster_rmsd>  (20) 
1.13

>  <cluster>  (20) 
1

$$$$

     RDKit          3D

 47 50  0  0  0  0  0  0  0  0999 V2000
  142.1440   73.2720  220.8080 O   0  0  0  0  0  0  0  0  0  0  0  0
  141.3110   73.9850  221.4580 C   0  0  0  0  0  0  0  0  0  0  0  0
  140.3190   73.3840  222.2810 N   0  0  0  0  0  0  0  0  0  0  0  0
  140.2570   71.9340  222.3810 C   0  0  0  0  0  0  0  0  0  0  0  0
  138.9500   71.5350  222.9150 C   0  0  0  0  0  0  0  0  0  0  0  0
  137.8910   72.0190  222.4440 O   0  0  0  0  0  0  0  0  0  0  0  0
  138.8180   70.5990  223.9710 N   0  0  0  0  0  0  0  0  0  0  0  0
  137.5370   70.1990  224.5610 C   0  0  0  0  0  0  0  0  0  0  0  0
  137.7860   68.8680  225.2440 C   0  0  0  0  0  0  0  0  0  0  0  0
  139.2000   68.5440  224.8800 C   0  0  0  0  0  0  0  0  0  0  0  0
  139.8870   69.8660  224.6630 C   0  0  2  0  0  0  0  0  0  0  0  0
  140.2910   70.5450  225.9010 C   0  0  0  0  0  0  0  0  0  0  0  0
  141.0690   71.6750  225.9640 C   0  0  0  0  0  0  0  0  0  0  0  0
  141.4290   72.2870  227.1500 C   0  0  0  0  0  0  0  0  0  0  0  0
  140.9730   71.7180  228.3160 C   0  0  0  0  0  0  0  0  0  0  0  0
  140.1860   70.5760  228.2570 C   0  0  0  0  0  0  0  0  0  0  0  0
  139.8690   70.0270  227.0710 N   0  0  0  0  0  0  0  0  0  0  0  0
  141.3700   75.4380  221.3590 C   0  0  0  0  0  0  0  0  0  0  0  0
  142.0200   76.0300  220.2850 C   0  0  0  0  0  0  0  0  0  0  0  0
  142.1220   77.3820  220.1160 C   0  0  0  0  0  0  0  0  0  0  0  0
  141.5520   78.2070  221.0570 C   0  0  0  0  0  0  0  0  0  0  0  0
  141.6430   79.5760  220.9070 C   0  0  0  0  0  0  0  0  0  0  0  0
  141.0510   80.3630  221.8860 C   0  0  0  0  0  0  0  0  0  0  0  0
  141.1770   82.2560  221.6760 Br  0  0  0  0  0  0  0  0  0  0  0  0
  140.3960   79.8140  222.9670 C   0  0  0  0  0  0  0  0  0  0  0  0
  140.3210   78.4300  223.0930 C   0  0  0  0  0  0  0  0  0  0  0  0
  140.9050   77.6120  222.1260 C   0  0  0  0  0  0  0  0  0  0  0  0
  140.8230   76.2650  222.2630 N   0  0  0  0  0  0  0  0  0  0  0  0
  139.6670   74.0190  222.7860 H   0  0  0  0  0  0  0  0  0  0  0  0
  140.3959   71.4916  221.3835 H   0  0  0  0  0  0  0  0  0  0  0  0
  141.0514   71.5790  223.0540 H   0  0  0  0  0  0  0  0  0  0  0  0
  137.2040   70.9481  225.2945 H   0  0  0  0  0  0  0  0  0  0  0  0
  136.7504   70.1174  223.7964 H   0  0  0  0  0  0  0  0  0  0  0  0
  137.6722   68.9589  226.3343 H   0  0  0  0  0  0  0  0  0  0  0  0
  137.0754   68.0884  224.9321 H   0  0  0  0  0  0  0  0  0  0  0  0
  139.6871   67.9897  225.6958 H   0  0  0  0  0  0  0  0  0  0  0  0
  139.2495   67.9123  223.9809 H   0  0  0  0  0  0  0  0  0  0  0  0
  140.8405   69.7788  224.1215 H   0  0  0  0  0  0  0  0  0  0  0  0
  141.4243   72.1162  225.0211 H   0  0  0  0  0  0  0  0  0  0  0  0
  142.0544   73.1918  227.1607 H   0  0  0  0  0  0  0  0  0  0  0  0
  141.2299   72.1644  229.2880 H   0  0  0  0  0  0  0  0  0  0  0  0
  139.8191   70.1169  229.1869 H   0  0  0  0  0  0  0  0  0  0  0  0
  142.4779   75.3752  219.5289 H   0  0  0  0  0  0  0  0  0  0  0  0
  142.6486   77.8014  219.2461 H   0  0  0  0  0  0  0  0  0  0  0  0
  142.1628   80.0249  220.0478 H   0  0  0  0  0  0  0  0  0  0  0  0
  139.9357   80.4650  223.7249 H   0  0  0  0  0  0  0  0  0  0  0  0
  139.8022   77.9822  223.9534 H   0  0  0  0  0  0  0  0  0  0  0  0
  1  2  2  0
  2  3  1  0
  3  4  1  0
  4  5  1  0
  5  6  2  0
  5  7  1  0
  7  8  1  0
  8  9  1  0
  9 10  1  0
 10 11  1  0
 11 12  1  0
 12 13  2  0
 13 14  1  0
 14 15  2  0
 15 16  1  0
 16 17  2  0
  2 18  1  0
 18 19  2  0
 19 20  1  0
 20 21  2  0
 21 22  1  0
 22 23  2  0
 23 24  1  0
 23 25  1  0
 25 26  2  0
 26 27  1  0
 27 28  2  0
 11  7  1  0
 17 12  1  0
 28 18  1  0
 27 21  1  0
  3 29  1  0
  4 30  1  0
  4 31  1  0
  8 32  1  0
  8 33  1  0
  9 34  1  0
  9 35  1  0
 10 36  1  0
 10 37  1  0
 11 38  1  6
 13 39  1  0
 14 40  1  0
 15 41  1  0
 16 42  1  0
 19 43  1  0
 20 44  1  0
 22 45  1  0
 25 46  1  0
 26 47  1  0
M  END
>  <smiles>  (21) 
O=C(NCC(=O)N1CCCC1c1ccccn1)c1ccc2cc(Br)ccc2n1

>  <score_type>  (21) 
oracle

>  <origin>  (21) 
autodockgpu

>  <m_score__min__energy>  (21) 
-8.8000000000000007

>  <m_primary>  (21) 
energy

>  <rmsd>  (21) 
9.101843582038004

>  <m_score__min__rmsd>  (21) 
9.101843582038004

>  <meeko>  (21) 
{"free_energy": -8.34, "intermolecular_energy": -9.83, "internal_energy": -1.57, "cluster_size": 10, "cluster_id": 2, "rank_in_cluster": 5}

>  <energy>  (21) 
-7.95

>  <cluster_rmsd>  (21) 
1.07

>  <cluster>  (21) 
1

$$$$

     RDKit          3D

 47 50  0  0  0  0  0  0  0  0999 V2000
  140.3670   72.4670  220.6450 O   0  0  0  0  0  0  0  0  0  0  0  0
  139.8610   72.8100  221.7630 C   0  0  0  0  0  0  0  0  0  0  0  0
  139.2090   74.0640  221.9180 N   0  0  0  0  0  0  0  0  0  0  0  0
  139.1180   74.9670  220.7810 C   0  0  0  0  0  0  0  0  0  0  0  0
  140.2490   75.9010  220.8050 C   0  0  0  0  0  0  0  0  0  0  0  0
  140.3200   76.7990  221.6810 O   0  0  0  0  0  0  0  0  0  0  0  0
  141.3020   75.8390  219.8580 N   0  0  0  0  0  0  0  0  0  0  0  0
  141.1250   75.4600  218.4540 C   0  0  0  0  0  0  0  0  0  0  0  0
  142.3290   76.0110  217.7140 C   0  0  0  0  0  0  0  0  0  0  0  0
  143.0620   76.7870  218.7620 C   0  0  0  0  0  0  0  0  0  0  0  0
  142.7260   76.1310  220.0760 C   0  0  2  0  0  0  0  0  0  0  0  0
  143.4900   74.9070  220.3510 C   0  0  0  0  0  0  0  0  0  0  0  0
  144.8570   74.8410  220.4720 C   0  0  0  0  0  0  0  0  0  0  0  0
  145.5420   73.6690  220.7310 C   0  0  0  0  0  0  0  0  0  0  0  0
  144.7970   72.5220  220.8740 C   0  0  0  0  0  0  0  0  0  0  0  0
  143.4160   72.5850  220.7530 C   0  0  0  0  0  0  0  0  0  0  0  0
  142.8060   73.7570  220.4990 N   0  0  0  0  0  0  0  0  0  0  0  0
  139.9510   71.9080  222.9040 C   0  0  0  0  0  0  0  0  0  0  0  0
  139.5080   70.5980  222.7840 C   0  0  0  0  0  0  0  0  0  0  0  0
  139.5550   69.6870  223.8020 C   0  0  0  0  0  0  0  0  0  0  0  0
  140.0680   70.0840  225.0140 C   0  0  0  0  0  0  0  0  0  0  0  0
  140.1250   69.1810  226.0570 C   0  0  0  0  0  0  0  0  0  0  0  0
  140.6510   69.6340  227.2600 C   0  0  0  0  0  0  0  0  0  0  0  0
  140.7300   68.3850  228.7010 Br  0  0  0  0  0  0  0  0  0  0  0  0
  141.1010   70.9270  227.4210 C   0  0  0  0  0  0  0  0  0  0  0  0
  141.0310   71.8150  226.3510 C   0  0  0  0  0  0  0  0  0  0  0  0
  140.5080   71.3910  225.1300 C   0  0  0  0  0  0  0  0  0  0  0  0
  140.4460   72.2700  224.0980 N   0  0  0  0  0  0  0  0  0  0  0  0
  138.8170   74.2870  222.8550 H   0  0  0  0  0  0  0  0  0  0  0  0
  139.1431   74.3850  219.8479 H   0  0  0  0  0  0  0  0  0  0  0  0
  138.1756   75.5317  220.8364 H   0  0  0  0  0  0  0  0  0  0  0  0
  141.0852   74.3651  218.3563 H   0  0  0  0  0  0  0  0  0  0  0  0
  140.1851   75.8596  218.0455 H   0  0  0  0  0  0  0  0  0  0  0  0
  142.9541   75.1963  217.3196 H   0  0  0  0  0  0  0  0  0  0  0  0
  142.0517   76.6244  216.8440 H   0  0  0  0  0  0  0  0  0  0  0  0
  144.1461   76.7452  218.5802 H   0  0  0  0  0  0  0  0  0  0  0  0
  142.7707   77.8477  218.7552 H   0  0  0  0  0  0  0  0  0  0  0  0
  142.9625   76.7563  220.9495 H   0  0  0  0  0  0  0  0  0  0  0  0
  145.4362   75.7690  220.3568 H   0  0  0  0  0  0  0  0  0  0  0  0
  146.6384   73.6542  220.8192 H   0  0  0  0  0  0  0  0  0  0  0  0
  145.2919   71.5620  221.0827 H   0  0  0  0  0  0  0  0  0  0  0  0
  142.8157   71.6701  220.8656 H   0  0  0  0  0  0  0  0  0  0  0  0
  139.0964   70.2752  221.8163 H   0  0  0  0  0  0  0  0  0  0  0  0
  139.1906   68.6596  223.6547 H   0  0  0  0  0  0  0  0  0  0  0  0
  139.7690   68.1468  225.9401 H   0  0  0  0  0  0  0  0  0  0  0  0
  141.5121   71.2546  228.3873 H   0  0  0  0  0  0  0  0  0  0  0  0
  141.3876   72.8489  226.4686 H   0  0  0  0  0  0  0  0  0  0  0  0
  1  2  2  0
  2  3  1  0
  3  4  1  0
  4  5  1  0
  5  6  2  0
  5  7  1  0
  7  8  1  0
  8  9  1  0
  9 10  1  0
 10 11  1  0
 11 12  1  0
 12 13  2  0
 13 14  1  0
 14 15  2  0
 15 16  1  0
 16 17  2  0
  2 18  1  0
 18 19  2  0
 19 20  1  0
 20 21  2  0
 21 22  1  0
 22 23  2  0
 23 24  1  0
 23 25  1  0
 25 26  2  0
 26 27  1  0
 27 28  2  0
 11  7  1  0
 17 12  1  0
 28 18  1  0
 27 21  1  0
  3 29  1  0
  4 30  1  0
  4 31  1  0
  8 32  1  0
  8 33  1  0
  9 34  1  0
  9 35  1  0
 10 36  1  0
 10 37  1  0
 11 38  1  1
 13 39  1  0
 14 40  1  0
 15 41  1  0
 16 42  1  0
 19 43  1  0
 20 44  1  0
 22 45  1  0
 25 46  1  0
 26 47  1  0
M  END
>  <smiles>  (22) 
O=C(NCC(=O)N1CCCC1c1ccccn1)c1ccc2cc(Br)ccc2n1

>  <score_type>  (22) 
oracle

>  <origin>  (22) 
autodockgpu

>  <m_score__min__energy>  (22) 
-8.8000000000000007

>  <m_primary>  (22) 
energy

>  <rmsd>  (22) 
3.862209844837635

>  <m_score__min__rmsd>  (22) 
3.862209844837635

>  <meeko>  (22) 
{"free_energy": -7.99, "intermolecular_energy": -9.49, "internal_energy": -1.88, "cluster_size": 4, "cluster_id": 3, "rank_in_cluster": 2}

>  <energy>  (22) 
-7.92

>  <cluster_rmsd>  (22) 
1.58

>  <cluster>  (22) 
1

$$$$

     RDKit          3D

 47 50  0  0  0  0  0  0  0  0999 V2000
  140.3920   72.5660  220.7600 O   0  0  0  0  0  0  0  0  0  0  0  0
  139.8120   72.8370  221.8620 C   0  0  0  0  0  0  0  0  0  0  0  0
  139.0630   74.0360  222.0200 N   0  0  0  0  0  0  0  0  0  0  0  0
  138.9590   74.9650  220.9040 C   0  0  0  0  0  0  0  0  0  0  0  0
  139.3760   76.3020  221.3400 C   0  0  0  0  0  0  0  0  0  0  0  0
  138.6840   76.9520  222.1630 O   0  0  0  0  0  0  0  0  0  0  0  0
  140.5590   76.9200  220.8620 N   0  0  0  0  0  0  0  0  0  0  0  0
  141.7920   76.1970  220.5400 C   0  0  0  0  0  0  0  0  0  0  0  0
  142.5800   77.1020  219.6120 C   0  0  0  0  0  0  0  0  0  0  0  0
  141.6550   78.2550  219.3760 C   0  0  0  0  0  0  0  0  0  0  0  0
  140.7850   78.3480  220.6010 C   0  0  2  0  0  0  0  0  0  0  0  0
  141.4260   79.0100  221.7450 C   0  0  0  0  0  0  0  0  0  0  0  0
  142.1750   80.1590  221.6740 C   0  0  0  0  0  0  0  0  0  0  0  0
  142.7630   80.7520  222.7750 C   0  0  0  0  0  0  0  0  0  0  0  0
  142.5740   80.1460  223.9950 C   0  0  0  0  0  0  0  0  0  0  0  0
  141.8180   78.9860  224.0700 C   0  0  0  0  0  0  0  0  0  0  0  0
  141.2700   78.4540  222.9620 N   0  0  0  0  0  0  0  0  0  0  0  0
  139.9140   71.9090  222.9800 C   0  0  0  0  0  0  0  0  0  0  0  0
  139.4970   70.5940  222.8260 C   0  0  0  0  0  0  0  0  0  0  0  0
  139.5570   69.6600  223.8220 C   0  0  0  0  0  0  0  0  0  0  0  0
  140.0580   70.0360  225.0450 C   0  0  0  0  0  0  0  0  0  0  0  0
  140.1290   69.1090  226.0660 C   0  0  0  0  0  0  0  0  0  0  0  0
  140.6420   69.5420  227.2820 C   0  0  0  0  0  0  0  0  0  0  0  0
  140.7390   68.2590  228.6920 Br  0  0  0  0  0  0  0  0  0  0  0  0
  141.0670   70.8380  227.4760 C   0  0  0  0  0  0  0  0  0  0  0  0
  140.9840   71.7510  226.4280 C   0  0  0  0  0  0  0  0  0  0  0  0
  140.4730   71.3480  225.1950 C   0  0  0  0  0  0  0  0  0  0  0  0
  140.3990   72.2500  224.1850 N   0  0  0  0  0  0  0  0  0  0  0  0
  138.6130   74.2010  222.9430 H   0  0  0  0  0  0  0  0  0  0  0  0
  139.6097   74.6272  220.0840 H   0  0  0  0  0  0  0  0  0  0  0  0
  137.9169   75.0021  220.5538 H   0  0  0  0  0  0  0  0  0  0  0  0
  142.3669   75.9957  221.4560 H   0  0  0  0  0  0  0  0  0  0  0  0
  141.5775   75.2266  220.0685 H   0  0  0  0  0  0  0  0  0  0  0  0
  143.5125   77.4378  220.0892 H   0  0  0  0  0  0  0  0  0  0  0  0
  142.8836   76.6001  218.6815 H   0  0  0  0  0  0  0  0  0  0  0  0
  142.2288   79.1841  219.2435 H   0  0  0  0  0  0  0  0  0  0  0  0
  141.0544   78.1094  218.4660 H   0  0  0  0  0  0  0  0  0  0  0  0
  139.8829   78.9594  220.4514 H   0  0  0  0  0  0  0  0  0  0  0  0
  142.3140   80.6314  220.6904 H   0  0  0  0  0  0  0  0  0  0  0  0
  143.3584   81.6720  222.6794 H   0  0  0  0  0  0  0  0  0  0  0  0
  143.0188   80.5779  224.9036 H   0  0  0  0  0  0  0  0  0  0  0  0
  141.6649   78.4966  225.0432 H   0  0  0  0  0  0  0  0  0  0  0  0
  139.0963   70.2868  221.8487 H   0  0  0  0  0  0  0  0  0  0  0  0
  139.2119   68.6301  223.6484 H   0  0  0  0  0  0  0  0  0  0  0  0
  139.7934   68.0713  225.9224 H   0  0  0  0  0  0  0  0  0  0  0  0
  141.4689   71.1492  228.4515 H   0  0  0  0  0  0  0  0  0  0  0  0
  141.3209   72.7881  226.5726 H   0  0  0  0  0  0  0  0  0  0  0  0
  1  2  2  0
  2  3  1  0
  3  4  1  0
  4  5  1  0
  5  6  2  0
  5  7  1  0
  7  8  1  0
  8  9  1  0
  9 10  1  0
 10 11  1  0
 11 12  1  0
 12 13  2  0
 13 14  1  0
 14 15  2  0
 15 16  1  0
 16 17  2  0
  2 18  1  0
 18 19  2  0
 19 20  1  0
 20 21  2  0
 21 22  1  0
 22 23  2  0
 23 24  1  0
 23 25  1  0
 25 26  2  0
 26 27  1  0
 27 28  2  0
 11  7  1  0
 17 12  1  0
 28 18  1  0
 27 21  1  0
  3 29  1  0
  4 30  1  0
  4 31  1  0
  8 32  1  0
  8 33  1  0
  9 34  1  0
  9 35  1  0
 10 36  1  0
 10 37  1  0
 11 38  1  6
 13 39  1  0
 14 40  1  0
 15 41  1  0
 16 42  1  0
 19 43  1  0
 20 44  1  0
 22 45  1  0
 25 46  1  0
 26 47  1  0
M  END
>  <smiles>  (23) 
O=C(NCC(=O)N1CCCC1c1ccccn1)c1ccc2cc(Br)ccc2n1

>  <score_type>  (23) 
oracle

>  <origin>  (23) 
autodockgpu

>  <m_score__min__energy>  (23) 
-8.8000000000000007

>  <m_primary>  (23) 
energy

>  <rmsd>  (23) 
2.265228949757109

>  <m_score__min__rmsd>  (23) 
2.265228949757109

>  <meeko>  (23) 
{"free_energy": -8.8, "intermolecular_energy": -10.29, "internal_energy": -1.46, "cluster_size": 25, "cluster_id": 1, "rank_in_cluster": 1}

>  <energy>  (23) 
-7.88

>  <cluster_rmsd>  (23) 
1.48

>  <cluster>  (23) 
1

$$$$

     RDKit          3D

 47 50  0  0  0  0  0  0  0  0999 V2000
  139.3770   71.9420  220.6640 O   0  0  0  0  0  0  0  0  0  0  0  0
  139.3900   72.4220  221.8440 C   0  0  0  0  0  0  0  0  0  0  0  0
  139.1830   73.8110  222.0720 N   0  0  0  0  0  0  0  0  0  0  0  0
  138.9540   74.6940  220.9380 C   0  0  0  0  0  0  0  0  0  0  0  0
  139.3280   76.0650  221.3010 C   0  0  0  0  0  0  0  0  0  0  0  0
  138.5580   76.7780  221.9930 O   0  0  0  0  0  0  0  0  0  0  0  0
  140.5560   76.6470  220.8970 N   0  0  0  0  0  0  0  0  0  0  0  0
  141.7910   75.8900  220.6760 C   0  0  0  0  0  0  0  0  0  0  0  0
  142.6640   76.7590  219.7910 C   0  0  0  0  0  0  0  0  0  0  0  0
  141.7860   77.9270  219.4690 C   0  0  0  0  0  0  0  0  0  0  0  0
  140.8350   78.0640  220.6280 C   0  0  2  0  0  0  0  0  0  0  0  0
  141.4080   78.7330  221.8020 C   0  0  0  0  0  0  0  0  0  0  0  0
  141.2890   78.2930  223.0980 C   0  0  0  0  0  0  0  0  0  0  0  0
  141.8430   78.9500  224.1800 C   0  0  0  0  0  0  0  0  0  0  0  0
  142.5480   80.1030  223.9230 C   0  0  0  0  0  0  0  0  0  0  0  0
  142.6710   80.5510  222.6150 C   0  0  0  0  0  0  0  0  0  0  0  0
  142.1080   79.8670  221.6040 N   0  0  0  0  0  0  0  0  0  0  0  0
  139.6200   71.5410  222.9810 C   0  0  0  0  0  0  0  0  0  0  0  0
  139.3020   70.1930  222.8840 C   0  0  0  0  0  0  0  0  0  0  0  0
  139.4850   69.2980  223.9010 C   0  0  0  0  0  0  0  0  0  0  0  0
  140.0120   69.7510  225.0870 C   0  0  0  0  0  0  0  0  0  0  0  0
  140.2060   68.8650  226.1280 C   0  0  0  0  0  0  0  0  0  0  0  0
  140.7410   69.3740  227.3040 C   0  0  0  0  0  0  0  0  0  0  0  0
  141.0090   68.1480  228.7420 Br  0  0  0  0  0  0  0  0  0  0  0  0
  141.0700   70.7060  227.4400 C   0  0  0  0  0  0  0  0  0  0  0  0
  140.8630   71.5760  226.3740 C   0  0  0  0  0  0  0  0  0  0  0  0
  140.3280   71.0950  225.1790 C   0  0  0  0  0  0  0  0  0  0  0  0
  140.1330   71.9570  224.1500 N   0  0  0  0  0  0  0  0  0  0  0  0
  139.2060   74.1430  223.0570 H   0  0  0  0  0  0  0  0  0  0  0  0
  139.5642   74.3613  220.0854 H   0  0  0  0  0  0  0  0  0  0  0  0
  137.8898   74.6659  220.6612 H   0  0  0  0  0  0  0  0  0  0  0  0
  142.2947   75.6931  221.6339 H   0  0  0  0  0  0  0  0  0  0  0  0
  141.5870   74.9160  220.2073 H   0  0  0  0  0  0  0  0  0  0  0  0
  143.5678   77.0832  220.3277 H   0  0  0  0  0  0  0  0  0  0  0  0
  143.0211   76.2325  218.8937 H   0  0  0  0  0  0  0  0  0  0  0  0
  142.3896   78.8401  219.3600 H   0  0  0  0  0  0  0  0  0  0  0  0
  141.2473   77.7768  218.5217 H   0  0  0  0  0  0  0  0  0  0  0  0
  139.9613   78.6937  220.4042 H   0  0  0  0  0  0  0  0  0  0  0  0
  140.7226   77.3686  223.2842 H   0  0  0  0  0  0  0  0  0  0  0  0
  141.7252   78.5669  225.2044 H   0  0  0  0  0  0  0  0  0  0  0  0
  143.0106   80.6654  224.7475 H   0  0  0  0  0  0  0  0  0  0  0  0
  143.2334   81.4726  222.4042 H   0  0  0  0  0  0  0  0  0  0  0  0
  138.8798   69.8251  221.9372 H   0  0  0  0  0  0  0  0  0  0  0  0
  139.2165   68.2390  223.7731 H   0  0  0  0  0  0  0  0  0  0  0  0
  139.9475   67.8003  226.0299 H   0  0  0  0  0  0  0  0  0  0  0  0
  141.4932   71.0783  228.3846 H   0  0  0  0  0  0  0  0  0  0  0  0
  141.1207   72.6407  226.4734 H   0  0  0  0  0  0  0  0  0  0  0  0
  1  2  2  0
  2  3  1  0
  3  4  1  0
  4  5  1  0
  5  6  2  0
  5  7  1  0
  7  8  1  0
  8  9  1  0
  9 10  1  0
 10 11  1  0
 11 12  1  0
 12 13  2  0
 13 14  1  0
 14 15  2  0
 15 16  1  0
 16 17  2  0
  2 18  1  0
 18 19  2  0
 19 20  1  0
 20 21  2  0
 21 22  1  0
 22 23  2  0
 23 24  1  0
 23 25  1  0
 25 26  2  0
 26 27  1  0
 27 28  2  0
 11  7  1  0
 17 12  1  0
 28 18  1  0
 27 21  1  0
  3 29  1  0
  4 30  1  0
  4 31  1  0
  8 32  1  0
  8 33  1  0
  9 34  1  0
  9 35  1  0
 10 36  1  0
 10 37  1  0
 11 38  1  6
 13 39  1  0
 14 40  1  0
 15 41  1  0
 16 42  1  0
 19 43  1  0
 20 44  1  0
 22 45  1  0
 25 46  1  0
 26 47  1  0
M  END
>  <smiles>  (24) 
O=C(NCC(=O)N1CCCC1c1ccccn1)c1ccc2cc(Br)ccc2n1

>  <score_type>  (24) 
oracle

>  <origin>  (24) 
autodockgpu

>  <m_score__min__energy>  (24) 
-8.8000000000000007

>  <m_primary>  (24) 
energy

>  <rmsd>  (24) 
2.6078521322204518

>  <m_score__min__rmsd>  (24) 
2.6078521322204518

>  <meeko>  (24) 
{"free_energy": -8.73, "intermolecular_energy": -10.22, "internal_energy": -1.51, "cluster_size": 25, "cluster_id": 1, "rank_in_cluster": 9}

>  <energy>  (24) 
-7.82

>  <cluster_rmsd>  (24) 
1.18

>  <cluster>  (24) 
1

$$$$

     RDKit          3D

 47 50  0  0  0  0  0  0  0  0999 V2000
  140.1130   72.4360  220.6690 O   0  0  0  0  0  0  0  0  0  0  0  0
  139.9150   72.8560  221.8560 C   0  0  0  0  0  0  0  0  0  0  0  0
  139.6270   74.2260  222.1080 N   0  0  0  0  0  0  0  0  0  0  0  0
  139.5560   75.1580  220.9930 C   0  0  0  0  0  0  0  0  0  0  0  0
  139.5380   76.5330  221.5040 C   0  0  0  0  0  0  0  0  0  0  0  0
  138.8960   76.8220  222.5440 O   0  0  0  0  0  0  0  0  0  0  0  0
  140.2330   77.5890  220.8600 N   0  0  0  0  0  0  0  0  0  0  0  0
  141.3860   77.3970  219.9770 C   0  0  0  0  0  0  0  0  0  0  0  0
  141.4800   78.6530  219.1300 C   0  0  0  0  0  0  0  0  0  0  0  0
  140.2680   79.4360  219.5260 C   0  0  0  0  0  0  0  0  0  0  0  0
  139.9540   79.0290  220.9410 C   0  0  2  0  0  0  0  0  0  0  0  0
  140.7910   79.6840  221.9550 C   0  0  0  0  0  0  0  0  0  0  0  0
  141.0310   81.0340  222.0290 C   0  0  0  0  0  0  0  0  0  0  0  0
  141.8250   81.6140  222.9990 C   0  0  0  0  0  0  0  0  0  0  0  0
  142.3940   80.7780  223.9310 C   0  0  0  0  0  0  0  0  0  0  0  0
  142.1540   79.4130  223.8600 C   0  0  0  0  0  0  0  0  0  0  0  0
  141.3710   78.9070  222.8900 N   0  0  0  0  0  0  0  0  0  0  0  0
  139.9850   71.9260  222.9740 C   0  0  0  0  0  0  0  0  0  0  0  0
  139.5330   70.6230  222.8160 C   0  0  0  0  0  0  0  0  0  0  0  0
  139.5620   69.6870  223.8110 C   0  0  0  0  0  0  0  0  0  0  0  0
  140.0640   70.0490  225.0390 C   0  0  0  0  0  0  0  0  0  0  0  0
  140.1030   69.1200  226.0600 C   0  0  0  0  0  0  0  0  0  0  0  0
  140.6200   69.5380  227.2790 C   0  0  0  0  0  0  0  0  0  0  0  0
  140.6730   68.2520  228.6890 Br  0  0  0  0  0  0  0  0  0  0  0  0
  141.0790   70.8230  227.4770 C   0  0  0  0  0  0  0  0  0  0  0  0
  141.0270   71.7380  226.4290 C   0  0  0  0  0  0  0  0  0  0  0  0
  140.5140   71.3490  225.1920 C   0  0  0  0  0  0  0  0  0  0  0  0
  140.4700   72.2530  224.1820 N   0  0  0  0  0  0  0  0  0  0  0  0
  139.4750   74.5090  223.0970 H   0  0  0  0  0  0  0  0  0  0  0  0
  140.4330   75.0199  220.3435 H   0  0  0  0  0  0  0  0  0  0  0  0
  138.6385   74.9697  220.4161 H   0  0  0  0  0  0  0  0  0  0  0  0
  142.3034   77.2665  220.5697 H   0  0  0  0  0  0  0  0  0  0  0  0
  141.2696   76.4987  219.3529 H   0  0  0  0  0  0  0  0  0  0  0  0
  142.4000   79.2118  219.3569 H   0  0  0  0  0  0  0  0  0  0  0  0
  141.5173   78.4394  218.0516 H   0  0  0  0  0  0  0  0  0  0  0  0
  140.4770   80.5148  219.4762 H   0  0  0  0  0  0  0  0  0  0  0  0
  139.4217   79.2359  218.8524 H   0  0  0  0  0  0  0  0  0  0  0  0
  138.9385   79.3059  221.2606 H   0  0  0  0  0  0  0  0  0  0  0  0
  140.5665   81.6879  221.2762 H   0  0  0  0  0  0  0  0  0  0  0  0
  141.9953   82.7004  223.0250 H   0  0  0  0  0  0  0  0  0  0  0  0
  143.0341   81.1879  224.7262 H   0  0  0  0  0  0  0  0  0  0  0  0
  142.6074   78.7397  224.6024 H   0  0  0  0  0  0  0  0  0  0  0  0
  139.1294   70.3279  221.8362 H   0  0  0  0  0  0  0  0  0  0  0  0
  139.1919   68.6664  223.6337 H   0  0  0  0  0  0  0  0  0  0  0  0
  139.7398   68.0921  225.9137 H   0  0  0  0  0  0  0  0  0  0  0  0
  141.4830   71.1228  228.4552 H   0  0  0  0  0  0  0  0  0  0  0  0
  141.3899   72.7659  226.5764 H   0  0  0  0  0  0  0  0  0  0  0  0
  1  2  2  0
  2  3  1  0
  3  4  1  0
  4  5  1  0
  5  6  2  0
  5  7  1  0
  7  8  1  0
  8  9  1  0
  9 10  1  0
 10 11  1  0
 11 12  1  0
 12 13  2  0
 13 14  1  0
 14 15  2  0
 15 16  1  0
 16 17  2  0
  2 18  1  0
 18 19  2  0
 19 20  1  0
 20 21  2  0
 21 22  1  0
 22 23  2  0
 23 24  1  0
 23 25  1  0
 25 26  2  0
 26 27  1  0
 27 28  2  0
 11  7  1  0
 17 12  1  0
 28 18  1  0
 27 21  1  0
  3 29  1  0
  4 30  1  0
  4 31  1  0
  8 32  1  0
  8 33  1  0
  9 34  1  0
  9 35  1  0
 10 36  1  0
 10 37  1  0
 11 38  1  1
 13 39  1  0
 14 40  1  0
 15 41  1  0
 16 42  1  0
 19 43  1  0
 20 44  1  0
 22 45  1  0
 25 46  1  0
 26 47  1  0
M  END
>  <smiles>  (25) 
O=C(NCC(=O)N1CCCC1c1ccccn1)c1ccc2cc(Br)ccc2n1

>  <score_type>  (25) 
oracle

>  <origin>  (25) 
autodockgpu

>  <m_score__min__energy>  (25) 
-8.8000000000000007

>  <m_primary>  (25) 
energy

>  <rmsd>  (25) 
2.4035651714939195

>  <m_score__min__rmsd>  (25) 
2.4035651714939195

>  <meeko>  (25) 
{"free_energy": -8.32, "intermolecular_energy": -9.82, "internal_energy": -1.68, "cluster_size": 25, "cluster_id": 1, "rank_in_cluster": 18}

>  <energy>  (25) 
-7.73

>  <cluster_rmsd>  (25) 
1.23

>  <cluster>  (25) 
1

$$$$

     RDKit          3D

 47 50  0  0  0  0  0  0  0  0999 V2000
  139.7570   72.1290  220.6520 O   0  0  0  0  0  0  0  0  0  0  0  0
  139.6260   72.5720  221.8400 C   0  0  0  0  0  0  0  0  0  0  0  0
  139.3170   73.9400  222.0810 N   0  0  0  0  0  0  0  0  0  0  0  0
  139.1490   74.8430  220.9530 C   0  0  0  0  0  0  0  0  0  0  0  0
  139.4820   76.2110  221.3670 C   0  0  0  0  0  0  0  0  0  0  0  0
  138.7590   76.8250  222.1900 O   0  0  0  0  0  0  0  0  0  0  0  0
  140.6170   76.8970  220.8660 N   0  0  0  0  0  0  0  0  0  0  0  0
  141.8700   76.2440  220.4810 C   0  0  0  0  0  0  0  0  0  0  0  0
  142.5820   77.2100  219.5540 C   0  0  0  0  0  0  0  0  0  0  0  0
  141.5960   78.3230  219.3820 C   0  0  0  0  0  0  0  0  0  0  0  0
  140.7670   78.3410  220.6390 C   0  0  2  0  0  0  0  0  0  0  0  0
  141.4150   79.0020  221.7790 C   0  0  0  0  0  0  0  0  0  0  0  0
  142.1560   80.1560  221.7050 C   0  0  0  0  0  0  0  0  0  0  0  0
  142.7530   80.7480  222.8020 C   0  0  0  0  0  0  0  0  0  0  0  0
  142.5820   80.1350  224.0210 C   0  0  0  0  0  0  0  0  0  0  0  0
  141.8340   78.9690  224.0990 C   0  0  0  0  0  0  0  0  0  0  0  0
  141.2780   78.4390  222.9950 N   0  0  0  0  0  0  0  0  0  0  0  0
  139.7940   71.6700  222.9710 C   0  0  0  0  0  0  0  0  0  0  0  0
  139.4300   70.3360  222.8500 C   0  0  0  0  0  0  0  0  0  0  0  0
  139.5540   69.4230  223.8590 C   0  0  0  0  0  0  0  0  0  0  0  0
  140.0680   69.8420  225.0630 C   0  0  0  0  0  0  0  0  0  0  0  0
  140.2030   68.9380  226.0980 C   0  0  0  0  0  0  0  0  0  0  0  0
  140.7270   69.4140  227.2930 C   0  0  0  0  0  0  0  0  0  0  0  0
  140.9120   68.1620  228.7220 Br  0  0  0  0  0  0  0  0  0  0  0  0
  141.1010   70.7300  227.4540 C   0  0  0  0  0  0  0  0  0  0  0  0
  140.9530   71.6190  226.3930 C   0  0  0  0  0  0  0  0  0  0  0  0
  140.4310   71.1730  225.1800 C   0  0  0  0  0  0  0  0  0  0  0  0
  140.2930   72.0530  224.1570 N   0  0  0  0  0  0  0  0  0  0  0  0
  139.2240   74.2410  223.0720 H   0  0  0  0  0  0  0  0  0  0  0  0
  139.8162   74.5351  220.1344 H   0  0  0  0  0  0  0  0  0  0  0  0
  138.1050   74.8084  220.6082 H   0  0  0  0  0  0  0  0  0  0  0  0
  142.4856   76.0452  221.3707 H   0  0  0  0  0  0  0  0  0  0  0  0
  141.6842   75.2783  219.9882 H   0  0  0  0  0  0  0  0  0  0  0  0
  143.5135   77.5772  220.0095 H   0  0  0  0  0  0  0  0  0  0  0  0
  142.8769   76.7486  218.6000 H   0  0  0  0  0  0  0  0  0  0  0  0
  142.1201   79.2819  219.2560 H   0  0  0  0  0  0  0  0  0  0  0  0
  140.9710   78.1732  218.4893 H   0  0  0  0  0  0  0  0  0  0  0  0
  139.8327   78.9128  220.5381 H   0  0  0  0  0  0  0  0  0  0  0  0
  142.2808   80.6337  220.7220 H   0  0  0  0  0  0  0  0  0  0  0  0
  143.3413   81.6723  222.7039 H   0  0  0  0  0  0  0  0  0  0  0  0
  143.0344   80.5654  224.9266 H   0  0  0  0  0  0  0  0  0  0  0  0
  141.6946   78.4742  225.0715 H   0  0  0  0  0  0  0  0  0  0  0  0
  139.0189   69.9949  221.8884 H   0  0  0  0  0  0  0  0  0  0  0  0
  139.2494   68.3764  223.7111 H   0  0  0  0  0  0  0  0  0  0  0  0
  139.9079   67.8848  225.9810 H   0  0  0  0  0  0  0  0  0  0  0  0
  141.5134   71.0757  228.4134 H   0  0  0  0  0  0  0  0  0  0  0  0
  141.2476   72.6721  226.5118 H   0  0  0  0  0  0  0  0  0  0  0  0
  1  2  2  0
  2  3  1  0
  3  4  1  0
  4  5  1  0
  5  6  2  0
  5  7  1  0
  7  8  1  0
  8  9  1  0
  9 10  1  0
 10 11  1  0
 11 12  1  0
 12 13  2  0
 13 14  1  0
 14 15  2  0
 15 16  1  0
 16 17  2  0
  2 18  1  0
 18 19  2  0
 19 20  1  0
 20 21  2  0
 21 22  1  0
 22 23  2  0
 23 24  1  0
 23 25  1  0
 25 26  2  0
 26 27  1  0
 27 28  2  0
 11  7  1  0
 17 12  1  0
 28 18  1  0
 27 21  1  0
  3 29  1  0
  4 30  1  0
  4 31  1  0
  8 32  1  0
  8 33  1  0
  9 34  1  0
  9 35  1  0
 10 36  1  0
 10 37  1  0
 11 38  1  6
 13 39  1  0
 14 40  1  0
 15 41  1  0
 16 42  1  0
 19 43  1  0
 20 44  1  0
 22 45  1  0
 25 46  1  0
 26 47  1  0
M  END
>  <smiles>  (26) 
O=C(NCC(=O)N1CCCC1c1ccccn1)c1ccc2cc(Br)ccc2n1

>  <score_type>  (26) 
oracle

>  <origin>  (26) 
autodockgpu

>  <m_score__min__energy>  (26) 
-8.8000000000000007

>  <m_primary>  (26) 
energy

>  <rmsd>  (26) 
2.2285425219402977

>  <m_score__min__rmsd>  (26) 
2.2285425219402977

>  <meeko>  (26) 
{"free_energy": -8.73, "intermolecular_energy": -10.22, "internal_energy": -1.53, "cluster_size": 25, "cluster_id": 1, "rank_in_cluster": 8}

>  <energy>  (26) 
-8.45

>  <cluster_rmsd>  (26) 
0.0

>  <cluster>  (26) 
2

$$$$

     RDKit          3D

 47 50  0  0  0  0  0  0  0  0999 V2000
  138.8110   71.8200  220.6880 O   0  0  0  0  0  0  0  0  0  0  0  0
  139.1070   72.3380  221.8140 C   0  0  0  0  0  0  0  0  0  0  0  0
  139.1690   73.7500  221.9770 N   0  0  0  0  0  0  0  0  0  0  0  0
  138.8890   74.6130  220.8390 C   0  0  0  0  0  0  0  0  0  0  0  0
  139.9520   74.4640  219.8390 C   0  0  0  0  0  0  0  0  0  0  0  0
  139.7660   73.7760  218.8040 O   0  0  0  0  0  0  0  0  0  0  0  0
  141.2210   75.0770  219.9860 N   0  0  0  0  0  0  0  0  0  0  0  0
  142.3980   74.4090  220.5470 C   0  0  0  0  0  0  0  0  0  0  0  0
  143.6010   75.1920  220.0560 C   0  0  0  0  0  0  0  0  0  0  0  0
  143.0070   76.2050  219.1290 C   0  0  0  0  0  0  0  0  0  0  0  0
  141.6050   76.4490  219.6230 C   0  0  2  0  0  0  0  0  0  0  0  0
  141.5210   77.3540  220.7760 C   0  0  0  0  0  0  0  0  0  0  0  0
  141.8710   78.6830  220.7620 C   0  0  0  0  0  0  0  0  0  0  0  0
  141.7780   79.5050  221.8690 C   0  0  0  0  0  0  0  0  0  0  0  0
  141.3070   78.9450  223.0330 C   0  0  0  0  0  0  0  0  0  0  0  0
  140.9530   77.6030  223.0510 C   0  0  0  0  0  0  0  0  0  0  0  0
  141.0660   76.8530  221.9400 N   0  0  0  0  0  0  0  0  0  0  0  0
  139.3870   71.4760  222.9550 C   0  0  0  0  0  0  0  0  0  0  0  0
  139.0510   70.1310  222.9020 C   0  0  0  0  0  0  0  0  0  0  0  0
  139.2780   69.2540  223.9250 C   0  0  0  0  0  0  0  0  0  0  0  0
  139.8710   69.7240  225.0730 C   0  0  0  0  0  0  0  0  0  0  0  0
  140.1110   68.8560  226.1200 C   0  0  0  0  0  0  0  0  0  0  0  0
  140.7120   69.3830  227.2560 C   0  0  0  0  0  0  0  0  0  0  0  0
  141.0420   68.1820  228.7020 Br  0  0  0  0  0  0  0  0  0  0  0  0
  141.0610   70.7130  227.3480 C   0  0  0  0  0  0  0  0  0  0  0  0
  140.8070   71.5640  226.2770 C   0  0  0  0  0  0  0  0  0  0  0  0
  140.2050   71.0660  225.1210 C   0  0  0  0  0  0  0  0  0  0  0  0
  139.9650   71.9090  224.0870 N   0  0  0  0  0  0  0  0  0  0  0  0
  139.4160   74.1120  222.9200 H   0  0  0  0  0  0  0  0  0  0  0  0
  137.9240   74.3303  220.3932 H   0  0  0  0  0  0  0  0  0  0  0  0
  138.8454   75.6597  221.1746 H   0  0  0  0  0  0  0  0  0  0  0  0
  142.3567   74.4223  221.6461 H   0  0  0  0  0  0  0  0  0  0  0  0
  142.4493   73.3558  220.2338 H   0  0  0  0  0  0  0  0  0  0  0  0
  144.1191   75.6821  220.8935 H   0  0  0  0  0  0  0  0  0  0  0  0
  144.3546   74.5563  219.5682 H   0  0  0  0  0  0  0  0  0  0  0  0
  143.5899   77.1374  219.1577 H   0  0  0  0  0  0  0  0  0  0  0  0
  143.0110   75.8495  218.0880 H   0  0  0  0  0  0  0  0  0  0  0  0
  140.9628   76.9511  218.8844 H   0  0  0  0  0  0  0  0  0  0  0  0
  142.2443   79.1145  219.8215 H   0  0  0  0  0  0  0  0  0  0  0  0
  142.0691   80.5647  221.8208 H   0  0  0  0  0  0  0  0  0  0  0  0
  141.2115   79.5557  223.9429 H   0  0  0  0  0  0  0  0  0  0  0  0
  140.5775   77.1496  223.9802 H   0  0  0  0  0  0  0  0  0  0  0  0
  138.5758   69.7496  221.9862 H   0  0  0  0  0  0  0  0  0  0  0  0
  138.9927   68.1957  223.8322 H   0  0  0  0  0  0  0  0  0  0  0  0
  139.8378   67.7923  226.0570 H   0  0  0  0  0  0  0  0  0  0  0  0
  141.5369   71.0990  228.2615 H   0  0  0  0  0  0  0  0  0  0  0  0
  141.0803   72.6276  226.3415 H   0  0  0  0  0  0  0  0  0  0  0  0
  1  2  2  0
  2  3  1  0
  3  4  1  0
  4  5  1  0
  5  6  2  0
  5  7  1  0
  7  8  1  0
  8  9  1  0
  9 10  1  0
 10 11  1  0
 11 12  1  0
 12 13  2  0
 13 14  1  0
 14 15  2  0
 15 16  1  0
 16 17  2  0
  2 18  1  0
 18 19  2  0
 19 20  1  0
 20 21  2  0
 21 22  1  0
 22 23  2  0
 23 24  1  0
 23 25  1  0
 25 26  2  0
 26 27  1  0
 27 28  2  0
 11  7  1  0
 17 12  1  0
 28 18  1  0
 27 21  1  0
  3 29  1  0
  4 30  1  0
  4 31  1  0
  8 32  1  0
  8 33  1  0
  9 34  1  0
  9 35  1  0
 10 36  1  0
 10 37  1  0
 11 38  1  6
 13 39  1  0
 14 40  1  0
 15 41  1  0
 16 42  1  0
 19 43  1  0
 20 44  1  0
 22 45  1  0
 25 46  1  0
 26 47  1  0
M  END
>  <smiles>  (27) 
O=C(NCC(=O)N1CCCC1c1ccccn1)c1ccc2cc(Br)ccc2n1

>  <score_type>  (27) 
oracle

>  <origin>  (27) 
autodockgpu

>  <m_score__min__energy>  (27) 
-8.8000000000000007

>  <m_primary>  (27) 
energy

>  <rmsd>  (27) 
2.298083068617275

>  <m_score__min__rmsd>  (27) 
2.298083068617275

>  <meeko>  (27) 
{"free_energy": -7.73, "intermolecular_energy": -9.23, "internal_energy": -1.74, "cluster_size": 25, "cluster_id": 1, "rank_in_cluster": 25}

>  <energy>  (27) 
-8.44

>  <cluster_rmsd>  (27) 
0.07

>  <cluster>  (27) 
2

$$$$

     RDKit          3D

 47 50  0  0  0  0  0  0  0  0999 V2000
  139.1650   71.9500  220.7290 O   0  0  0  0  0  0  0  0  0  0  0  0
  139.2910   72.4360  221.9010 C   0  0  0  0  0  0  0  0  0  0  0  0
  139.1760   73.8350  222.1300 N   0  0  0  0  0  0  0  0  0  0  0  0
  138.9100   74.7230  221.0070 C   0  0  0  0  0  0  0  0  0  0  0  0
  139.3450   76.0830  221.3440 C   0  0  0  0  0  0  0  0  0  0  0  0
  138.6200   76.8320  222.0460 O   0  0  0  0  0  0  0  0  0  0  0  0
  140.5840   76.6120  220.9030 N   0  0  0  0  0  0  0  0  0  0  0  0
  141.8020   75.8180  220.7280 C   0  0  0  0  0  0  0  0  0  0  0  0
  142.6900   76.6110  219.7880 C   0  0  0  0  0  0  0  0  0  0  0  0
  141.8350   77.7750  219.3940 C   0  0  0  0  0  0  0  0  0  0  0  0
  140.8900   78.0040  220.5440 C   0  0  2  0  0  0  0  0  0  0  0  0
  141.4810   78.7330  221.6730 C   0  0  0  0  0  0  0  0  0  0  0  0
  142.1690   79.9180  221.5740 C   0  0  0  0  0  0  0  0  0  0  0  0
  142.7120   80.5760  222.6610 C   0  0  0  0  0  0  0  0  0  0  0  0
  142.5410   79.9980  223.8970 C   0  0  0  0  0  0  0  0  0  0  0  0
  141.8460   78.8020  224.0020 C   0  0  0  0  0  0  0  0  0  0  0  0
  141.3410   78.2080  222.9050 N   0  0  0  0  0  0  0  0  0  0  0  0
  139.5580   71.5500  223.0260 C   0  0  0  0  0  0  0  0  0  0  0  0
  139.2850   70.1940  222.9160 C   0  0  0  0  0  0  0  0  0  0  0  0
  139.5050   69.2940  223.9200 C   0  0  0  0  0  0  0  0  0  0  0  0
  140.0250   69.7510  225.1080 C   0  0  0  0  0  0  0  0  0  0  0  0
  140.2550   68.8600  226.1380 C   0  0  0  0  0  0  0  0  0  0  0  0
  140.7810   69.3740  227.3160 C   0  0  0  0  0  0  0  0  0  0  0  0
  141.0990   68.1410  228.7380 Br  0  0  0  0  0  0  0  0  0  0  0  0
  141.0650   70.7140  227.4660 C   0  0  0  0  0  0  0  0  0  0  0  0
  140.8220   71.5880  226.4110 C   0  0  0  0  0  0  0  0  0  0  0  0
  140.2950   71.1040  225.2140 C   0  0  0  0  0  0  0  0  0  0  0  0
  140.0650   71.9700  224.1960 N   0  0  0  0  0  0  0  0  0  0  0  0
  139.2900   74.1710  223.1070 H   0  0  0  0  0  0  0  0  0  0  0  0
  139.4610   74.3706  220.1226 H   0  0  0  0  0  0  0  0  0  0  0  0
  137.8316   74.7265  220.7904 H   0  0  0  0  0  0  0  0  0  0  0  0
  142.3046   75.6718  221.6955 H   0  0  0  0  0  0  0  0  0  0  0  0
  141.5766   74.8208  220.3221 H   0  0  0  0  0  0  0  0  0  0  0  0
  143.6020   76.9496  220.3014 H   0  0  0  0  0  0  0  0  0  0  0  0
  143.0332   76.0214  218.9251 H   0  0  0  0  0  0  0  0  0  0  0  0
  142.4569   78.6668  219.2269 H   0  0  0  0  0  0  0  0  0  0  0  0
  141.2909   77.5770  218.4587 H   0  0  0  0  0  0  0  0  0  0  0  0
  140.0284   78.6357  220.2823 H   0  0  0  0  0  0  0  0  0  0  0  0
  142.2942   80.3664  220.5774 H   0  0  0  0  0  0  0  0  0  0  0  0
  143.2586   81.5232  222.5425 H   0  0  0  0  0  0  0  0  0  0  0  0
  142.9523   80.4805  224.7959 H   0  0  0  0  0  0  0  0  0  0  0  0
  141.7067   78.3360  224.9886 H   0  0  0  0  0  0  0  0  0  0  0  0
  138.8684   69.8231  221.9679 H   0  0  0  0  0  0  0  0  0  0  0  0
  139.2715   68.2281  223.7811 H   0  0  0  0  0  0  0  0  0  0  0  0
  140.0310   67.7885  226.0298 H   0  0  0  0  0  0  0  0  0  0  0  0
  141.4806   71.0899  228.4126 H   0  0  0  0  0  0  0  0  0  0  0  0
  141.0453   72.6595  226.5210 H   0  0  0  0  0  0  0  0  0  0  0  0
  1  2  2  0
  2  3  1  0
  3  4  1  0
  4  5  1  0
  5  6  2  0
  5  7  1  0
  7  8  1  0
  8  9  1  0
  9 10  1  0
 10 11  1  0
 11 12  1  0
 12 13  2  0
 13 14  1  0
 14 15  2  0
 15 16  1  0
 16 17  2  0
  2 18  1  0
 18 19  2  0
 19 20  1  0
 20 21  2  0
 21 22  1  0
 22 23  2  0
 23 24  1  0
 23 25  1  0
 25 26  2  0
 26 27  1  0
 27 28  2  0
 11  7  1  0
 17 12  1  0
 28 18  1  0
 27 21  1  0
  3 29  1  0
  4 30  1  0
  4 31  1  0
  8 32  1  0
  8 33  1  0
  9 34  1  0
  9 35  1  0
 10 36  1  0
 10 37  1  0
 11 38  1  6
 13 39  1  0
 14 40  1  0
 15 41  1  0
 16 42  1  0
 19 43  1  0
 20 44  1  0
 22 45  1  0
 25 46  1  0
 26 47  1  0
M  END
>  <smiles>  (28) 
O=C(NCC(=O)N1CCCC1c1ccccn1)c1ccc2cc(Br)ccc2n1

>  <score_type>  (28) 
oracle

>  <origin>  (28) 
autodockgpu

>  <m_score__min__energy>  (28) 
-8.8000000000000007

>  <m_primary>  (28) 
energy

>  <rmsd>  (28) 
2.154205161090915

>  <m_score__min__rmsd>  (28) 
2.154205161090915

>  <meeko>  (28) 
{"free_energy": -8.66, "intermolecular_energy": -10.16, "internal_energy": -1.55, "cluster_size": 25, "cluster_id": 1, "rank_in_cluster": 11}

>  <energy>  (28) 
-8.43

>  <cluster_rmsd>  (28) 
0.16

>  <cluster>  (28) 
2

$$$$

     RDKit          3D

 47 50  0  0  0  0  0  0  0  0999 V2000
  138.4670   76.0130  223.0860 O   0  0  0  0  0  0  0  0  0  0  0  0
  139.3010   76.2960  222.1650 C   0  0  0  0  0  0  0  0  0  0  0  0
  139.3210   77.5870  221.5680 N   0  0  0  0  0  0  0  0  0  0  0  0
  138.3740   78.5960  222.0170 C   0  0  0  0  0  0  0  0  0  0  0  0
  139.0010   79.4320  223.0470 C   0  0  0  0  0  0  0  0  0  0  0  0
  138.3670   79.7580  224.0810 O   0  0  0  0  0  0  0  0  0  0  0  0
  140.3310   79.9080  222.9290 N   0  0  0  0  0  0  0  0  0  0  0  0
  140.7420   81.2830  223.2220 C   0  0  0  0  0  0  0  0  0  0  0  0
  142.2380   81.2310  223.4720 C   0  0  0  0  0  0  0  0  0  0  0  0
  142.5530   79.7690  223.4160 C   0  0  0  0  0  0  0  0  0  0  0  0
  141.5210   79.1560  222.5080 C   0  0  2  0  0  0  0  0  0  0  0  0
  141.7940   79.3380  221.0760 C   0  0  0  0  0  0  0  0  0  0  0  0
  141.9010   80.5510  220.4410 C   0  0  0  0  0  0  0  0  0  0  0  0
  142.1590   80.6830  219.0900 C   0  0  0  0  0  0  0  0  0  0  0  0
  142.3150   79.5260  218.3620 C   0  0  0  0  0  0  0  0  0  0  0  0
  142.2080   78.2980  219.0000 C   0  0  0  0  0  0  0  0  0  0  0  0
  141.9550   78.2350  220.3200 N   0  0  0  0  0  0  0  0  0  0  0  0
  140.2500   75.2880  221.7140 C   0  0  0  0  0  0  0  0  0  0  0  0
  139.9600   73.9410  221.8850 C   0  0  0  0  0  0  0  0  0  0  0  0
  140.7920   72.9320  221.4910 C   0  0  0  0  0  0  0  0  0  0  0  0
  141.9850   73.2610  220.8920 C   0  0  0  0  0  0  0  0  0  0  0  0
  142.8430   72.2580  220.4850 C   0  0  0  0  0  0  0  0  0  0  0  0
  144.0340   72.6460  219.8850 C   0  0  0  0  0  0  0  0  0  0  0  0
  145.2180   71.2580  219.3240 Br  0  0  0  0  0  0  0  0  0  0  0  0
  144.3590   73.9720  219.6970 C   0  0  0  0  0  0  0  0  0  0  0  0
  143.4750   74.9610  220.1170 C   0  0  0  0  0  0  0  0  0  0  0  0
  142.2700   74.6050  220.7220 C   0  0  0  0  0  0  0  0  0  0  0  0
  141.4210   75.5820  221.1250 N   0  0  0  0  0  0  0  0  0  0  0  0
  140.0240   77.7580  220.8210 H   0  0  0  0  0  0  0  0  0  0  0  0
  138.0771   79.2251  221.1649 H   0  0  0  0  0  0  0  0  0  0  0  0
  137.4846   78.1030  222.4365 H   0  0  0  0  0  0  0  0  0  0  0  0
  140.5205   81.9381  222.3666 H   0  0  0  0  0  0  0  0  0  0  0  0
  140.2031   81.6868  224.0918 H   0  0  0  0  0  0  0  0  0  0  0  0
  142.7859   81.7810  222.6927 H   0  0  0  0  0  0  0  0  0  0  0  0
  142.5285   81.6948  224.4262 H   0  0  0  0  0  0  0  0  0  0  0  0
  143.5625   79.6110  223.0086 H   0  0  0  0  0  0  0  0  0  0  0  0
  142.5299   79.3136  224.4170 H   0  0  0  0  0  0  0  0  0  0  0  0
  141.4564   78.0615  222.5971 H   0  0  0  0  0  0  0  0  0  0  0  0
  141.7747   81.4654  221.0393 H   0  0  0  0  0  0  0  0  0  0  0  0
  142.2365   81.6726  218.6159 H   0  0  0  0  0  0  0  0  0  0  0  0
  142.5229   79.5738  217.2829 H   0  0  0  0  0  0  0  0  0  0  0  0
  142.3309   77.3699  218.4225 H   0  0  0  0  0  0  0  0  0  0  0  0
  139.0073   73.6715  222.3644 H   0  0  0  0  0  0  0  0  0  0  0  0
  140.5138   71.8796  221.6494 H   0  0  0  0  0  0  0  0  0  0  0  0
  142.5935   71.1965  220.6300 H   0  0  0  0  0  0  0  0  0  0  0  0
  145.3105   74.2466  219.2183 H   0  0  0  0  0  0  0  0  0  0  0  0
  143.7262   76.0221  219.9721 H   0  0  0  0  0  0  0  0  0  0  0  0
  1  2  2  0
  2  3  1  0
  3  4  1  0
  4  5  1  0
  5  6  2  0
  5  7  1  0
  7  8  1  0
  8  9  1  0
  9 10  1  0
 10 11  1  0
 11 12  1  0
 12 13  2  0
 13 14  1  0
 14 15  2  0
 15 16  1  0
 16 17  2  0
  2 18  1  0
 18 19  2  0
 19 20  1  0
 20 21  2  0
 21 22  1  0
 22 23  2  0
 23 24  1  0
 23 25  1  0
 25 26  2  0
 26 27  1  0
 27 28  2  0
 11  7  1  0
 17 12  1  0
 28 18  1  0
 27 21  1  0
  3 29  1  0
  4 30  1  0
  4 31  1  0
  8 32  1  0
  8 33  1  0
  9 34  1  0
  9 35  1  0
 10 36  1  0
 10 37  1  0
 11 38  1  6
 13 39  1  0
 14 40  1  0
 15 41  1  0
 16 42  1  0
 19 43  1  0
 20 44  1  0
 22 45  1  0
 25 46  1  0
 26 47  1  0
M  END
>  <smiles>  (29) 
O=C(NCC(=O)N1CCCC1c1ccccn1)c1ccc2cc(Br)ccc2n1

>  <score_type>  (29) 
oracle

>  <origin>  (29) 
autodockgpu

>  <m_score__min__energy>  (29) 
-8.8000000000000007

>  <m_primary>  (29) 
energy

>  <rmsd>  (29) 
6.143147096912962

>  <m_score__min__rmsd>  (29) 
6.143147096912962

>  <meeko>  (29) 
{"free_energy": -6.72, "intermolecular_energy": -8.21, "internal_energy": -2.63, "cluster_size": 1, "cluster_id": 6, "rank_in_cluster": 1}

>  <energy>  (29) 
-8.38

>  <cluster_rmsd>  (29) 
0.14

>  <cluster>  (29) 
2

$$$$

     RDKit          3D

 47 50  0  0  0  0  0  0  0  0999 V2000
  136.7770   71.8870  221.1610 O   0  0  0  0  0  0  0  0  0  0  0  0
  137.5780   72.3810  222.0200 C   0  0  0  0  0  0  0  0  0  0  0  0
  137.9890   73.7410  221.9420 N   0  0  0  0  0  0  0  0  0  0  0  0
  137.4850   74.5780  220.8630 C   0  0  0  0  0  0  0  0  0  0  0  0
  137.8770   75.9710  221.0990 C   0  0  0  0  0  0  0  0  0  0  0  0
  137.0090   76.8540  221.3140 O   0  0  0  0  0  0  0  0  0  0  0  0
  139.2330   76.3870  221.0960 N   0  0  0  0  0  0  0  0  0  0  0  0
  139.8240   77.2580  220.0780 C   0  0  0  0  0  0  0  0  0  0  0  0
  141.0710   77.8530  220.7050 C   0  0  0  0  0  0  0  0  0  0  0  0
  141.0280   77.3520  222.1150 C   0  0  0  0  0  0  0  0  0  0  0  0
  140.2790   76.0470  222.0700 C   0  0  2  0  0  0  0  0  0  0  0  0
  141.0850   74.9050  221.6170 C   0  0  0  0  0  0  0  0  0  0  0  0
  142.2010   74.9930  220.8210 C   0  0  0  0  0  0  0  0  0  0  0  0
  142.9340   73.8950  220.4150 C   0  0  0  0  0  0  0  0  0  0  0  0
  142.5080   72.6590  220.8420 C   0  0  0  0  0  0  0  0  0  0  0  0
  141.3810   72.5660  221.6460 C   0  0  0  0  0  0  0  0  0  0  0  0
  140.7080   73.6730  222.0090 N   0  0  0  0  0  0  0  0  0  0  0  0
  138.0840   71.5460  223.1010 C   0  0  0  0  0  0  0  0  0  0  0  0
  137.4460   70.3530  223.4080 C   0  0  0  0  0  0  0  0  0  0  0  0
  137.8540   69.5110  224.4040 C   0  0  0  0  0  0  0  0  0  0  0  0
  138.9560   69.8600  225.1480 C   0  0  0  0  0  0  0  0  0  0  0  0
  139.3870   69.0250  226.1600 C   0  0  0  0  0  0  0  0  0  0  0  0
  140.5050   69.4250  226.8800 C   0  0  0  0  0  0  0  0  0  0  0  0
  141.0990   68.2700  228.2790 Br  0  0  0  0  0  0  0  0  0  0  0  0
  141.1670   70.6020  226.6070 C   0  0  0  0  0  0  0  0  0  0  0  0
  140.7100   71.4240  225.5810 C   0  0  0  0  0  0  0  0  0  0  0  0
  139.5900   71.0510  224.8390 C   0  0  0  0  0  0  0  0  0  0  0  0
  139.1580   71.8630  223.8430 N   0  0  0  0  0  0  0  0  0  0  0  0
  138.6440   74.0860  222.6720 H   0  0  0  0  0  0  0  0  0  0  0  0
  137.9066   74.2358  219.9064 H   0  0  0  0  0  0  0  0  0  0  0  0
  136.3878   74.5076  220.8272 H   0  0  0  0  0  0  0  0  0  0  0  0
  140.0877   76.6750  219.1833 H   0  0  0  0  0  0  0  0  0  0  0  0
  139.1200   78.0420  219.7623 H   0  0  0  0  0  0  0  0  0  0  0  0
  141.9766   77.4999  220.1900 H   0  0  0  0  0  0  0  0  0  0  0  0
  141.0997   78.9508  220.6417 H   0  0  0  0  0  0  0  0  0  0  0  0
  142.0479   77.1942  222.4956 H   0  0  0  0  0  0  0  0  0  0  0  0
  140.5379   78.0745  222.7841 H   0  0  0  0  0  0  0  0  0  0  0  0
  139.9287   75.7103  223.0569 H   0  0  0  0  0  0  0  0  0  0  0  0
  142.5279   75.9897  220.4897 H   0  0  0  0  0  0  0  0  0  0  0  0
  143.8226   74.0047  219.7759 H   0  0  0  0  0  0  0  0  0  0  0  0
  143.0562   71.7516  220.5485 H   0  0  0  0  0  0  0  0  0  0  0  0
  141.0352   71.5798  221.9892 H   0  0  0  0  0  0  0  0  0  0  0  0
  136.5628   70.0691  222.8170 H   0  0  0  0  0  0  0  0  0  0  0  0
  137.3127   68.5749  224.6059 H   0  0  0  0  0  0  0  0  0  0  0  0
  138.8666   68.0827  226.3862 H   0  0  0  0  0  0  0  0  0  0  0  0
  142.0504   70.8900  227.1957 H   0  0  0  0  0  0  0  0  0  0  0  0
  141.2314   72.3661  225.3559 H   0  0  0  0  0  0  0  0  0  0  0  0
  1  2  2  0
  2  3  1  0
  3  4  1  0
  4  5  1  0
  5  6  2  0
  5  7  1  0
  7  8  1  0
  8  9  1  0
  9 10  1  0
 10 11  1  0
 11 12  1  0
 12 13  2  0
 13 14  1  0
 14 15  2  0
 15 16  1  0
 16 17  2  0
  2 18  1  0
 18 19  2  0
 19 20  1  0
 20 21  2  0
 21 22  1  0
 22 23  2  0
 23 24  1  0
 23 25  1  0
 25 26  2  0
 26 27  1  0
 27 28  2  0
 11  7  1  0
 17 12  1  0
 28 18  1  0
 27 21  1  0
  3 29  1  0
  4 30  1  0
  4 31  1  0
  8 32  1  0
  8 33  1  0
  9 34  1  0
  9 35  1  0
 10 36  1  0
 10 37  1  0
 11 38  1  1
 13 39  1  0
 14 40  1  0
 15 41  1  0
 16 42  1  0
 19 43  1  0
 20 44  1  0
 22 45  1  0
 25 46  1  0
 26 47  1  0
M  END
>  <smiles>  (30) 
O=C(NCC(=O)N1CCCC1c1ccccn1)c1ccc2cc(Br)ccc2n1

>  <score_type>  (30) 
oracle

>  <origin>  (30) 
autodockgpu

>  <m_score__min__energy>  (30) 
-8.8000000000000007

>  <m_primary>  (30) 
energy

>  <rmsd>  (30) 
3.788142114257904

>  <m_score__min__rmsd>  (30) 
3.788142114257904

>  <meeko>  (30) 
{"free_energy": -7.18, "intermolecular_energy": -8.67, "internal_energy": -2.57, "cluster_size": 4, "cluster_id": 3, "rank_in_cluster": 4}

>  <energy>  (30) 
-8.34

>  <cluster_rmsd>  (30) 
0.28

>  <cluster>  (30) 
2

$$$$

     RDKit          3D

 47 50  0  0  0  0  0  0  0  0999 V2000
  139.9980   72.3040  220.6870 O   0  0  0  0  0  0  0  0  0  0  0  0
  139.6160   72.6590  221.8500 C   0  0  0  0  0  0  0  0  0  0  0  0
  139.0060   73.9260  222.0650 N   0  0  0  0  0  0  0  0  0  0  0  0
  138.8150   74.8270  220.9380 C   0  0  0  0  0  0  0  0  0  0  0  0
  139.2580   76.1750  221.3090 C   0  0  0  0  0  0  0  0  0  0  0  0
  138.5250   76.9230  222.0020 O   0  0  0  0  0  0  0  0  0  0  0  0
  140.5160   76.6950  220.9100 N   0  0  0  0  0  0  0  0  0  0  0  0
  141.7230   75.8830  220.7350 C   0  0  0  0  0  0  0  0  0  0  0  0
  142.6460   76.6890  219.8400 C   0  0  0  0  0  0  0  0  0  0  0  0
  141.8210   77.8810  219.4670 C   0  0  0  0  0  0  0  0  0  0  0  0
  140.8560   78.0910  220.6030 C   0  0  2  0  0  0  0  0  0  0  0  0
  141.4360   78.7730  221.7680 C   0  0  0  0  0  0  0  0  0  0  0  0
  141.2780   78.3760  223.0740 C   0  0  0  0  0  0  0  0  0  0  0  0
  141.8390   79.0440  224.1450 C   0  0  0  0  0  0  0  0  0  0  0  0
  142.5930   80.1610  223.8670 C   0  0  0  0  0  0  0  0  0  0  0  0
  142.7540   80.5640  222.5490 C   0  0  0  0  0  0  0  0  0  0  0  0
  142.1820   79.8720  221.5480 N   0  0  0  0  0  0  0  0  0  0  0  0
  139.8060   71.7590  222.9790 C   0  0  0  0  0  0  0  0  0  0  0  0
  139.4590   70.4200  222.8600 C   0  0  0  0  0  0  0  0  0  0  0  0
  139.6040   69.5090  223.8680 C   0  0  0  0  0  0  0  0  0  0  0  0
  140.1210   69.9350  225.0690 C   0  0  0  0  0  0  0  0  0  0  0  0
  140.2760   69.0320  226.1020 C   0  0  0  0  0  0  0  0  0  0  0  0
  140.8020   69.5150  227.2930 C   0  0  0  0  0  0  0  0  0  0  0  0
  141.0160   68.2660  228.7200 Br  0  0  0  0  0  0  0  0  0  0  0  0
  141.1590   70.8370  227.4520 C   0  0  0  0  0  0  0  0  0  0  0  0
  140.9910   71.7240  226.3930 C   0  0  0  0  0  0  0  0  0  0  0  0
  140.4660   71.2710  225.1830 C   0  0  0  0  0  0  0  0  0  0  0  0
  140.3080   72.1490  224.1620 N   0  0  0  0  0  0  0  0  0  0  0  0
  138.7160   74.1580  223.0360 H   0  0  0  0  0  0  0  0  0  0  0  0
  139.4039   74.4708  220.0799 H   0  0  0  0  0  0  0  0  0  0  0  0
  137.7495   74.8532  220.6661 H   0  0  0  0  0  0  0  0  0  0  0  0
  142.2017   75.6960  221.7076 H   0  0  0  0  0  0  0  0  0  0  0  0
  141.4880   74.9038  220.2924 H   0  0  0  0  0  0  0  0  0  0  0  0
  143.5528   76.9933  220.3832 H   0  0  0  0  0  0  0  0  0  0  0  0
  142.9970   76.1213  218.9656 H   0  0  0  0  0  0  0  0  0  0  0  0
  142.4626   78.7657  219.3423 H   0  0  0  0  0  0  0  0  0  0  0  0
  141.2934   77.7233  218.5147 H   0  0  0  0  0  0  0  0  0  0  0  0
  140.0121   78.7472  220.3437 H   0  0  0  0  0  0  0  0  0  0  0  0
  140.6734   77.4798  223.2771 H   0  0  0  0  0  0  0  0  0  0  0  0
  141.6891   78.6972  225.1781 H   0  0  0  0  0  0  0  0  0  0  0  0
  143.0640   80.7295  224.6825 H   0  0  0  0  0  0  0  0  0  0  0  0
  143.3545   81.4570  222.3212 H   0  0  0  0  0  0  0  0  0  0  0  0
  139.0446   70.0735  221.9017 H   0  0  0  0  0  0  0  0  0  0  0  0
  139.3136   68.4581  223.7220 H   0  0  0  0  0  0  0  0  0  0  0  0
  139.9948   67.9749  225.9864 H   0  0  0  0  0  0  0  0  0  0  0  0
  141.5734   71.1880  228.4086 H   0  0  0  0  0  0  0  0  0  0  0  0
  141.2719   72.7811  226.5101 H   0  0  0  0  0  0  0  0  0  0  0  0
  1  2  2  0
  2  3  1  0
  3  4  1  0
  4  5  1  0
  5  6  2  0
  5  7  1  0
  7  8  1  0
  8  9  1  0
  9 10  1  0
 10 11  1  0
 11 12  1  0
 12 13  2  0
 13 14  1  0
 14 15  2  0
 15 16  1  0
 16 17  2  0
  2 18  1  0
 18 19  2  0
 19 20  1  0
 20 21  2  0
 21 22  1  0
 22 23  2  0
 23 24  1  0
 23 25  1  0
 25 26  2  0
 26 27  1  0
 27 28  2  0
 11  7  1  0
 17 12  1  0
 28 18  1  0
 27 21  1  0
  3 29  1  0
  4 30  1  0
  4 31  1  0
  8 32  1  0
  8 33  1  0
  9 34  1  0
  9 35  1  0
 10 36  1  0
 10 37  1  0
 11 38  1  6
 13 39  1  0
 14 40  1  0
 15 41  1  0
 16 42  1  0
 19 43  1  0
 20 44  1  0
 22 45  1  0
 25 46  1  0
 26 47  1  0
M  END
>  <smiles>  (31) 
O=C(NCC(=O)N1CCCC1c1ccccn1)c1ccc2cc(Br)ccc2n1

>  <score_type>  (31) 
oracle

>  <origin>  (31) 
autodockgpu

>  <m_score__min__energy>  (31) 
-8.8000000000000007

>  <m_primary>  (31) 
energy

>  <rmsd>  (31) 
2.63478260006065

>  <m_score__min__rmsd>  (31) 
2.63478260006065

>  <meeko>  (31) 
{"free_energy": -8.78, "intermolecular_energy": -10.27, "internal_energy": -1.46, "cluster_size": 25, "cluster_id": 1, "rank_in_cluster": 5}

>  <energy>  (31) 
-8.33

>  <cluster_rmsd>  (31) 
0.29

>  <cluster>  (31) 
2

$$$$

     RDKit          3D

 47 50  0  0  0  0  0  0  0  0999 V2000
  140.3650   72.5020  220.7230 O   0  0  0  0  0  0  0  0  0  0  0  0
  140.0460   72.8960  221.8920 C   0  0  0  0  0  0  0  0  0  0  0  0
  139.6540   74.2420  222.1300 N   0  0  0  0  0  0  0  0  0  0  0  0
  139.6170   75.1820  221.0190 C   0  0  0  0  0  0  0  0  0  0  0  0
  140.9700   75.6840  220.7570 C   0  0  0  0  0  0  0  0  0  0  0  0
  141.9720   74.9450  220.9260 O   0  0  0  0  0  0  0  0  0  0  0  0
  141.2130   77.0070  220.3070 N   0  0  0  0  0  0  0  0  0  0  0  0
  142.2520   77.3690  219.3400 C   0  0  0  0  0  0  0  0  0  0  0  0
  141.8430   78.7130  218.7660 C   0  0  0  0  0  0  0  0  0  0  0  0
  140.5020   78.9640  219.3810 C   0  0  0  0  0  0  0  0  0  0  0  0
  140.5050   78.2330  220.6980 C   0  0  2  0  0  0  0  0  0  0  0  0
  141.2060   78.9400  221.7770 C   0  0  0  0  0  0  0  0  0  0  0  0
  141.8690   80.1350  221.6380 C   0  0  0  0  0  0  0  0  0  0  0  0
  142.5190   80.7710  222.6780 C   0  0  0  0  0  0  0  0  0  0  0  0
  142.4880   80.1580  223.9090 C   0  0  0  0  0  0  0  0  0  0  0  0
  141.8210   78.9500  224.0540 C   0  0  0  0  0  0  0  0  0  0  0  0
  141.2060   78.3800  223.0020 N   0  0  0  0  0  0  0  0  0  0  0  0
  140.0830   71.9580  223.0060 C   0  0  0  0  0  0  0  0  0  0  0  0
  139.6000   70.6670  222.8370 C   0  0  0  0  0  0  0  0  0  0  0  0
  139.5960   69.7260  223.8270 C   0  0  0  0  0  0  0  0  0  0  0  0
  140.0970   70.0680  225.0600 C   0  0  0  0  0  0  0  0  0  0  0  0
  140.1040   69.1330  226.0770 C   0  0  0  0  0  0  0  0  0  0  0  0
  140.6210   69.5310  227.3020 C   0  0  0  0  0  0  0  0  0  0  0  0
  140.6290   68.2370  228.7050 Br  0  0  0  0  0  0  0  0  0  0  0  0
  141.1100   70.8030  227.5110 C   0  0  0  0  0  0  0  0  0  0  0  0
  141.0900   71.7240  226.4690 C   0  0  0  0  0  0  0  0  0  0  0  0
  140.5780   71.3560  225.2250 C   0  0  0  0  0  0  0  0  0  0  0  0
  140.5660   72.2660  224.2200 N   0  0  0  0  0  0  0  0  0  0  0  0
  139.4060   74.5030  223.1060 H   0  0  0  0  0  0  0  0  0  0  0  0
  139.2344   74.6738  220.1215 H   0  0  0  0  0  0  0  0  0  0  0  0
  138.9567   76.0242  221.2735 H   0  0  0  0  0  0  0  0  0  0  0  0
  143.2283   77.4488  219.8406 H   0  0  0  0  0  0  0  0  0  0  0  0
  142.3497   76.6083  218.5515 H   0  0  0  0  0  0  0  0  0  0  0  0
  142.5595   79.4970  219.0524 H   0  0  0  0  0  0  0  0  0  0  0  0
  141.8170   78.7184  217.6663 H   0  0  0  0  0  0  0  0  0  0  0  0
  140.3514   80.0416  219.5425 H   0  0  0  0  0  0  0  0  0  0  0  0
  139.6881   78.6148  218.7286 H   0  0  0  0  0  0  0  0  0  0  0  0
  139.5002   78.0943  221.1236 H   0  0  0  0  0  0  0  0  0  0  0  0
  141.8831   80.6107  220.6463 H   0  0  0  0  0  0  0  0  0  0  0  0
  143.0399   81.7282  222.5278 H   0  0  0  0  0  0  0  0  0  0  0  0
  142.9882   80.6219  224.7719 H   0  0  0  0  0  0  0  0  0  0  0  0
  141.7949   78.4549  225.0360 H   0  0  0  0  0  0  0  0  0  0  0  0
  139.1987   70.3869  221.8519 H   0  0  0  0  0  0  0  0  0  0  0  0
  139.2004   68.7165  223.6413 H   0  0  0  0  0  0  0  0  0  0  0  0
  139.7160   68.1154  225.9223 H   0  0  0  0  0  0  0  0  0  0  0  0
  141.5129   71.0873  228.4943 H   0  0  0  0  0  0  0  0  0  0  0  0
  141.4775   72.7414  226.6259 H   0  0  0  0  0  0  0  0  0  0  0  0
  1  2  2  0
  2  3  1  0
  3  4  1  0
  4  5  1  0
  5  6  2  0
  5  7  1  0
  7  8  1  0
  8  9  1  0
  9 10  1  0
 10 11  1  0
 11 12  1  0
 12 13  2  0
 13 14  1  0
 14 15  2  0
 15 16  1  0
 16 17  2  0
  2 18  1  0
 18 19  2  0
 19 20  1  0
 20 21  2  0
 21 22  1  0
 22 23  2  0
 23 24  1  0
 23 25  1  0
 25 26  2  0
 26 27  1  0
 27 28  2  0
 11  7  1  0
 17 12  1  0
 28 18  1  0
 27 21  1  0
  3 29  1  0
  4 30  1  0
  4 31  1  0
  8 32  1  0
  8 33  1  0
  9 34  1  0
  9 35  1  0
 10 36  1  0
 10 37  1  0
 11 38  1  1
 13 39  1  0
 14 40  1  0
 15 41  1  0
 16 42  1  0
 19 43  1  0
 20 44  1  0
 22 45  1  0
 25 46  1  0
 26 47  1  0
M  END
>  <smiles>  (32) 
O=C(NCC(=O)N1CCCC1c1ccccn1)c1ccc2cc(Br)ccc2n1

>  <score_type>  (32) 
oracle

>  <origin>  (32) 
autodockgpu

>  <m_score__min__energy>  (32) 
-8.8000000000000007

>  <m_primary>  (32) 
energy

>  <rmsd>  (32) 
2.364474531794198

>  <m_score__min__rmsd>  (32) 
2.364474531794198

>  <meeko>  (32) 
{"free_energy": -8.54, "intermolecular_energy": -10.03, "internal_energy": -1.34, "cluster_size": 25, "cluster_id": 1, "rank_in_cluster": 12}

>  <energy>  (32) 
-8.3

>  <cluster_rmsd>  (32) 
0.31

>  <cluster>  (32) 
2

$$$$

     RDKit          3D

 47 50  0  0  0  0  0  0  0  0999 V2000
  142.2010   79.2910  216.9070 O   0  0  0  0  0  0  0  0  0  0  0  0
  142.4430   78.7360  218.0280 C   0  0  0  0  0  0  0  0  0  0  0  0
  142.2830   79.4500  219.2480 N   0  0  0  0  0  0  0  0  0  0  0  0
  141.8350   80.8340  219.2120 C   0  0  0  0  0  0  0  0  0  0  0  0
  141.0400   81.1230  220.4100 C   0  0  0  0  0  0  0  0  0  0  0  0
  140.1380   81.9970  220.3850 O   0  0  0  0  0  0  0  0  0  0  0  0
  141.2460   80.4430  221.6370 N   0  0  0  0  0  0  0  0  0  0  0  0
  142.5490   80.3070  222.2940 C   0  0  0  0  0  0  0  0  0  0  0  0
  142.2570   80.0010  223.7500 C   0  0  0  0  0  0  0  0  0  0  0  0
  140.7660   80.1060  223.8400 C   0  0  0  0  0  0  0  0  0  0  0  0
  140.2430   79.7650  222.4700 C   0  0  2  0  0  0  0  0  0  0  0  0
  140.1920   78.3250  222.1850 C   0  0  0  0  0  0  0  0  0  0  0  0
  139.2080   77.4700  222.6190 C   0  0  0  0  0  0  0  0  0  0  0  0
  139.1940   76.1190  222.3310 C   0  0  0  0  0  0  0  0  0  0  0  0
  140.2270   75.6260  221.5680 C   0  0  0  0  0  0  0  0  0  0  0  0
  141.2220   76.4860  221.1290 C   0  0  0  0  0  0  0  0  0  0  0  0
  141.1810   77.7940  221.4420 N   0  0  0  0  0  0  0  0  0  0  0  0
  142.8920   77.3500  218.0670 C   0  0  0  0  0  0  0  0  0  0  0  0
  142.8820   76.5890  216.9070 C   0  0  0  0  0  0  0  0  0  0  0  0
  143.2850   75.2840  216.8550 C   0  0  0  0  0  0  0  0  0  0  0  0
  143.7260   74.6870  218.0120 C   0  0  0  0  0  0  0  0  0  0  0  0
  144.1380   73.3690  217.9850 C   0  0  0  0  0  0  0  0  0  0  0  0
  144.5730   72.8150  219.1810 C   0  0  0  0  0  0  0  0  0  0  0  0
  145.1430   70.9940  219.1400 Br  0  0  0  0  0  0  0  0  0  0  0  0
  144.5980   73.5370  220.3550 C   0  0  0  0  0  0  0  0  0  0  0  0
  144.1760   74.8630  220.3530 C   0  0  0  0  0  0  0  0  0  0  0  0
  143.7340   75.4500  219.1680 C   0  0  0  0  0  0  0  0  0  0  0  0
  143.3260   76.7430  219.1830 N   0  0  0  0  0  0  0  0  0  0  0  0
  142.4970   78.9430  220.1310 H   0  0  0  0  0  0  0  0  0  0  0  0
  142.7089   81.5014  219.1823 H   0  0  0  0  0  0  0  0  0  0  0  0
  141.2185   80.9961  218.3155 H   0  0  0  0  0  0  0  0  0  0  0  0
  143.1219   79.4856  221.8389 H   0  0  0  0  0  0  0  0  0  0  0  0
  143.1492   81.2228  222.1888 H   0  0  0  0  0  0  0  0  0  0  0  0
  142.5960   78.9884  224.0141 H   0  0  0  0  0  0  0  0  0  0  0  0
  142.7758   80.6808  224.4419 H   0  0  0  0  0  0  0  0  0  0  0  0
  140.3771   79.3965  224.5852 H   0  0  0  0  0  0  0  0  0  0  0  0
  140.4509   81.1124  224.1527 H   0  0  0  0  0  0  0  0  0  0  0  0
  139.1984   80.0720  222.3135 H   0  0  0  0  0  0  0  0  0  0  0  0
  138.3893   77.8824  223.2270 H   0  0  0  0  0  0  0  0  0  0  0  0
  138.3895   75.4641  222.6969 H   0  0  0  0  0  0  0  0  0  0  0  0
  140.2634   74.5577  221.3082 H   0  0  0  0  0  0  0  0  0  0  0  0
  142.0511   76.0961  220.5203 H   0  0  0  0  0  0  0  0  0  0  0  0
  142.5304   77.0619  215.9781 H   0  0  0  0  0  0  0  0  0  0  0  0
  143.2571   74.7241  215.9086 H   0  0  0  0  0  0  0  0  0  0  0  0
  144.1221   72.7827  217.0544 H   0  0  0  0  0  0  0  0  0  0  0  0
  144.9489   73.0685  221.2863 H   0  0  0  0  0  0  0  0  0  0  0  0
  144.1911   75.4472  221.2849 H   0  0  0  0  0  0  0  0  0  0  0  0
  1  2  2  0
  2  3  1  0
  3  4  1  0
  4  5  1  0
  5  6  2  0
  5  7  1  0
  7  8  1  0
  8  9  1  0
  9 10  1  0
 10 11  1  0
 11 12  1  0
 12 13  2  0
 13 14  1  0
 14 15  2  0
 15 16  1  0
 16 17  2  0
  2 18  1  0
 18 19  2  0
 19 20  1  0
 20 21  2  0
 21 22  1  0
 22 23  2  0
 23 24  1  0
 23 25  1  0
 25 26  2  0
 26 27  1  0
 27 28  2  0
 11  7  1  0
 17 12  1  0
 28 18  1  0
 27 21  1  0
  3 29  1  0
  4 30  1  0
  4 31  1  0
  8 32  1  0
  8 33  1  0
  9 34  1  0
  9 35  1  0
 10 36  1  0
 10 37  1  0
 11 38  1  1
 13 39  1  0
 14 40  1  0
 15 41  1  0
 16 42  1  0
 19 43  1  0
 20 44  1  0
 22 45  1  0
 25 46  1  0
 26 47  1  0
M  END
>  <smiles>  (33) 
O=C(NCC(=O)N1CCCC1c1ccccn1)c1ccc2cc(Br)ccc2n1

>  <score_type>  (33) 
oracle

>  <origin>  (33) 
autodockgpu

>  <m_score__min__energy>  (33) 
-8.8000000000000007

>  <m_primary>  (33) 
energy

>  <rmsd>  (33) 
7.991017926354162

>  <m_score__min__rmsd>  (33) 
7.991017926354162

>  <meeko>  (33) 
{"free_energy": -6.39, "intermolecular_energy": -7.88, "internal_energy": -2.87, "cluster_size": 2, "cluster_id": 7, "rank_in_cluster": 1}

>  <energy>  (33) 
-8.25

>  <cluster_rmsd>  (33) 
0.91

>  <cluster>  (33) 
2

$$$$

     RDKit          3D

 47 50  0  0  0  0  0  0  0  0999 V2000
  140.0240   72.3830  220.6490 O   0  0  0  0  0  0  0  0  0  0  0  0
  139.6570   72.7620  221.8090 C   0  0  0  0  0  0  0  0  0  0  0  0
  139.0850   74.0490  222.0120 N   0  0  0  0  0  0  0  0  0  0  0  0
  138.9190   74.9430  220.8760 C   0  0  0  0  0  0  0  0  0  0  0  0
  139.3430   76.2970  221.2520 C   0  0  0  0  0  0  0  0  0  0  0  0
  138.6100   77.0200  221.9730 O   0  0  0  0  0  0  0  0  0  0  0  0
  140.5780   76.8480  220.8290 N   0  0  0  0  0  0  0  0  0  0  0  0
  141.8030   76.0690  220.6340 C   0  0  0  0  0  0  0  0  0  0  0  0
  142.6870   76.8960  219.7190 C   0  0  0  0  0  0  0  0  0  0  0  0
  141.8230   78.0640  219.3570 C   0  0  0  0  0  0  0  0  0  0  0  0
  140.8740   78.2520  220.5110 C   0  0  2  0  0  0  0  0  0  0  0  0
  141.4560   78.9540  221.6620 C   0  0  0  0  0  0  0  0  0  0  0  0
  142.1420   80.1420  221.5970 C   0  0  0  0  0  0  0  0  0  0  0  0
  142.6770   80.7730  222.7040 C   0  0  0  0  0  0  0  0  0  0  0  0
  142.5010   80.1630  223.9240 C   0  0  0  0  0  0  0  0  0  0  0  0
  141.8090   78.9620  223.9940 C   0  0  0  0  0  0  0  0  0  0  0  0
  141.3120   78.3960  222.8790 N   0  0  0  0  0  0  0  0  0  0  0  0
  139.8220   71.8680  222.9480 C   0  0  0  0  0  0  0  0  0  0  0  0
  139.4500   70.5360  222.8390 C   0  0  0  0  0  0  0  0  0  0  0  0
  139.5700   69.6310  223.8560 C   0  0  0  0  0  0  0  0  0  0  0  0
  140.0870   70.0580  225.0560 C   0  0  0  0  0  0  0  0  0  0  0  0
  140.2190   69.1620  226.0980 C   0  0  0  0  0  0  0  0  0  0  0  0
  140.7460   69.6450  227.2880 C   0  0  0  0  0  0  0  0  0  0  0  0
  140.9270   68.4050  228.7280 Br  0  0  0  0  0  0  0  0  0  0  0  0
  141.1280   70.9610  227.4370 C   0  0  0  0  0  0  0  0  0  0  0  0
  140.9840   71.8420  226.3690 C   0  0  0  0  0  0  0  0  0  0  0  0
  140.4570   71.3880  225.1610 C   0  0  0  0  0  0  0  0  0  0  0  0
  140.3240   72.2590  224.1300 N   0  0  0  0  0  0  0  0  0  0  0  0
  138.8050   74.3000  222.9810 H   0  0  0  0  0  0  0  0  0  0  0  0
  139.5334   74.5865  220.0362 H   0  0  0  0  0  0  0  0  0  0  0  0
  137.8611   74.9607  220.5752 H   0  0  0  0  0  0  0  0  0  0  0  0
  142.3047   75.8990  221.5980 H   0  0  0  0  0  0  0  0  0  0  0  0
  141.5865   75.0821  220.1990 H   0  0  0  0  0  0  0  0  0  0  0  0
  143.5952   77.2270  220.2440 H   0  0  0  0  0  0  0  0  0  0  0  0
  143.0370   76.3344  218.8403 H   0  0  0  0  0  0  0  0  0  0  0  0
  142.4378   78.9653  219.2171 H   0  0  0  0  0  0  0  0  0  0  0  0
  141.2823   77.8885  218.4153 H   0  0  0  0  0  0  0  0  0  0  0  0
  140.0078   78.8840  220.2655 H   0  0  0  0  0  0  0  0  0  0  0  0
  142.2724   80.6158  220.6129 H   0  0  0  0  0  0  0  0  0  0  0  0
  143.2215   81.7245  222.6130 H   0  0  0  0  0  0  0  0  0  0  0  0
  142.9056   80.6235  224.8373 H   0  0  0  0  0  0  0  0  0  0  0  0
  141.6659   78.4697  224.9672 H   0  0  0  0  0  0  0  0  0  0  0  0
  139.0355   70.1890  221.8810 H   0  0  0  0  0  0  0  0  0  0  0  0
  139.2600   68.5847  223.7175 H   0  0  0  0  0  0  0  0  0  0  0  0
  139.9191   68.1092  225.9898 H   0  0  0  0  0  0  0  0  0  0  0  0
  141.5436   71.3124  228.3929 H   0  0  0  0  0  0  0  0  0  0  0  0
  141.2854   72.8943  226.4780 H   0  0  0  0  0  0  0  0  0  0  0  0
  1  2  2  0
  2  3  1  0
  3  4  1  0
  4  5  1  0
  5  6  2  0
  5  7  1  0
  7  8  1  0
  8  9  1  0
  9 10  1  0
 10 11  1  0
 11 12  1  0
 12 13  2  0
 13 14  1  0
 14 15  2  0
 15 16  1  0
 16 17  2  0
  2 18  1  0
 18 19  2  0
 19 20  1  0
 20 21  2  0
 21 22  1  0
 22 23  2  0
 23 24  1  0
 23 25  1  0
 25 26  2  0
 26 27  1  0
 27 28  2  0
 11  7  1  0
 17 12  1  0
 28 18  1  0
 27 21  1  0
  3 29  1  0
  4 30  1  0
  4 31  1  0
  8 32  1  0
  8 33  1  0
  9 34  1  0
  9 35  1  0
 10 36  1  0
 10 37  1  0
 11 38  1  6
 13 39  1  0
 14 40  1  0
 15 41  1  0
 16 42  1  0
 19 43  1  0
 20 44  1  0
 22 45  1  0
 25 46  1  0
 26 47  1  0
M  END
>  <smiles>  (34) 
O=C(NCC(=O)N1CCCC1c1ccccn1)c1ccc2cc(Br)ccc2n1

>  <score_type>  (34) 
oracle

>  <origin>  (34) 
autodockgpu

>  <m_score__min__energy>  (34) 
-8.8000000000000007

>  <m_primary>  (34) 
energy

>  <rmsd>  (34) 
2.2398206956753546

>  <m_score__min__rmsd>  (34) 
2.2398206956753546

>  <meeko>  (34) 
{"free_energy": -8.79, "intermolecular_energy": -10.28, "internal_energy": -1.48, "cluster_size": 25, "cluster_id": 1, "rank_in_cluster": 4}

>  <energy>  (34) 
-8.14

>  <cluster_rmsd>  (34) 
0.51

>  <cluster>  (34) 
2

$$$$

     RDKit          3D

 47 50  0  0  0  0  0  0  0  0999 V2000
  139.1460   77.4940  219.8050 O   0  0  0  0  0  0  0  0  0  0  0  0
  140.2780   77.8660  220.2560 C   0  0  0  0  0  0  0  0  0  0  0  0
  140.8120   77.3030  221.4480 N   0  0  0  0  0  0  0  0  0  0  0  0
  140.0520   76.2860  222.1600 C   0  0  0  0  0  0  0  0  0  0  0  0
  138.8360   76.8860  222.7210 C   0  0  0  0  0  0  0  0  0  0  0  0
  137.8910   76.1630  223.1210 O   0  0  0  0  0  0  0  0  0  0  0  0
  138.6690   78.2900  222.8360 N   0  0  0  0  0  0  0  0  0  0  0  0
  137.8520   79.0980  221.9280 C   0  0  0  0  0  0  0  0  0  0  0  0
  137.5310   80.3780  222.6780 C   0  0  0  0  0  0  0  0  0  0  0  0
  138.1070   80.1420  224.0390 C   0  0  0  0  0  0  0  0  0  0  0  0
  139.2530   79.1840  223.8450 C   0  0  2  0  0  0  0  0  0  0  0  0
  140.4870   79.8130  223.3580 C   0  0  0  0  0  0  0  0  0  0  0  0
  140.5840   81.0980  222.8820 C   0  0  0  0  0  0  0  0  0  0  0  0
  141.7650   81.6560  222.4310 C   0  0  0  0  0  0  0  0  0  0  0  0
  142.8900   80.8660  222.4700 C   0  0  0  0  0  0  0  0  0  0  0  0
  142.7970   79.5670  222.9490 C   0  0  0  0  0  0  0  0  0  0  0  0
  141.6170   79.0800  223.3750 N   0  0  0  0  0  0  0  0  0  0  0  0
  141.0410   78.8830  219.5450 C   0  0  0  0  0  0  0  0  0  0  0  0
  142.1450   78.5150  218.7890 C   0  0  0  0  0  0  0  0  0  0  0  0
  142.9150   79.4030  218.0920 C   0  0  0  0  0  0  0  0  0  0  0  0
  142.5830   80.7360  218.1380 C   0  0  0  0  0  0  0  0  0  0  0  0
  143.3470   81.6520  217.4420 C   0  0  0  0  0  0  0  0  0  0  0  0
  142.9680   82.9860  217.5230 C   0  0  0  0  0  0  0  0  0  0  0  0
  144.0250   84.2510  216.5600 Br  0  0  0  0  0  0  0  0  0  0  0  0
  141.8790   83.3930  218.2630 C   0  0  0  0  0  0  0  0  0  0  0  0
  141.1280   82.4470  218.9540 C   0  0  0  0  0  0  0  0  0  0  0  0
  141.4810   81.1000  218.8930 C   0  0  0  0  0  0  0  0  0  0  0  0
  140.7390   80.1910  219.5730 N   0  0  0  0  0  0  0  0  0  0  0  0
  141.7400   77.6470  221.7660 H   0  0  0  0  0  0  0  0  0  0  0  0
  139.7756   75.4805  221.4637 H   0  0  0  0  0  0  0  0  0  0  0  0
  140.6658   75.8730  222.9741 H   0  0  0  0  0  0  0  0  0  0  0  0
  138.4126   79.3242  221.0090 H   0  0  0  0  0  0  0  0  0  0  0  0
  136.9364   78.5662  221.6299 H   0  0  0  0  0  0  0  0  0  0  0  0
  138.0054   81.2454  222.1957 H   0  0  0  0  0  0  0  0  0  0  0  0
  136.4541   80.6007  222.7023 H   0  0  0  0  0  0  0  0  0  0  0  0
  138.4680   81.0873  224.4703 H   0  0  0  0  0  0  0  0  0  0  0  0
  137.3541   79.7346  224.7298 H   0  0  0  0  0  0  0  0  0  0  0  0
  139.5863   78.7059  224.7779 H   0  0  0  0  0  0  0  0  0  0  0  0
  139.6737   81.7152  222.8586 H   0  0  0  0  0  0  0  0  0  0  0  0
  141.8037   82.6895  222.0562 H   0  0  0  0  0  0  0  0  0  0  0  0
  143.8566   81.2610  222.1240 H   0  0  0  0  0  0  0  0  0  0  0  0
  143.6939   78.9310  222.9807 H   0  0  0  0  0  0  0  0  0  0  0  0
  142.4152   77.4495  218.7486 H   0  0  0  0  0  0  0  0  0  0  0  0
  143.7809   79.0588  217.5074 H   0  0  0  0  0  0  0  0  0  0  0  0
  144.2186   81.3386  216.8487 H   0  0  0  0  0  0  0  0  0  0  0  0
  141.6055   84.4575  218.3071 H   0  0  0  0  0  0  0  0  0  0  0  0
  140.2570   82.7618  219.5475 H   0  0  0  0  0  0  0  0  0  0  0  0
  1  2  2  0
  2  3  1  0
  3  4  1  0
  4  5  1  0
  5  6  2  0
  5  7  1  0
  7  8  1  0
  8  9  1  0
  9 10  1  0
 10 11  1  0
 11 12  1  0
 12 13  2  0
 13 14  1  0
 14 15  2  0
 15 16  1  0
 16 17  2  0
  2 18  1  0
 18 19  2  0
 19 20  1  0
 20 21  2  0
 21 22  1  0
 22 23  2  0
 23 24  1  0
 23 25  1  0
 25 26  2  0
 26 27  1  0
 27 28  2  0
 11  7  1  0
 17 12  1  0
 28 18  1  0
 27 21  1  0
  3 29  1  0
  4 30  1  0
  4 31  1  0
  8 32  1  0
  8 33  1  0
  9 34  1  0
  9 35  1  0
 10 36  1  0
 10 37  1  0
 11 38  1  1
 13 39  1  0
 14 40  1  0
 15 41  1  0
 16 42  1  0
 19 43  1  0
 20 44  1  0
 22 45  1  0
 25 46  1  0
 26 47  1  0
M  END
>  <smiles>  (35) 
O=C(NCC(=O)N1CCCC1c1ccccn1)c1ccc2cc(Br)ccc2n1

>  <score_type>  (35) 
oracle

>  <origin>  (35) 
autodockgpu

>  <m_score__min__energy>  (35) 
-8.8000000000000007

>  <m_primary>  (35) 
energy

>  <rmsd>  (35) 
9.089668712177007

>  <m_score__min__rmsd>  (35) 
9.089668712177007

>  <meeko>  (35) 
{"free_energy": -5.99, "intermolecular_energy": -7.48, "internal_energy": -3.25, "cluster_size": 1, "cluster_id": 8, "rank_in_cluster": 1}

>  <energy>  (35) 
-8.02

>  <cluster_rmsd>  (35) 
0.71

>  <cluster>  (35) 
2

$$$$

     RDKit          3D

 47 50  0  0  0  0  0  0  0  0999 V2000
  141.8350   73.0830  220.7610 O   0  0  0  0  0  0  0  0  0  0  0  0
  141.0250   73.8210  221.4140 C   0  0  0  0  0  0  0  0  0  0  0  0
  139.9850   73.2500  222.1990 N   0  0  0  0  0  0  0  0  0  0  0  0
  139.8460   71.8030  222.2560 C   0  0  0  0  0  0  0  0  0  0  0  0
  138.6960   71.4540  223.0980 C   0  0  0  0  0  0  0  0  0  0  0  0
  137.5880   72.0230  222.9370 O   0  0  0  0  0  0  0  0  0  0  0  0
  138.7770   70.4750  224.1210 N   0  0  0  0  0  0  0  0  0  0  0  0
  137.6130   69.8590  224.7630 C   0  0  0  0  0  0  0  0  0  0  0  0
  138.1080   68.5620  225.3760 C   0  0  0  0  0  0  0  0  0  0  0  0
  139.5320   68.4800  224.9210 C   0  0  0  0  0  0  0  0  0  0  0  0
  139.9880   69.9010  224.7220 C   0  0  2  0  0  0  0  0  0  0  0  0
  140.3540   70.5950  225.9640 C   0  0  0  0  0  0  0  0  0  0  0  0
  141.0870   71.7550  226.0320 C   0  0  0  0  0  0  0  0  0  0  0  0
  141.4130   72.3800  227.2210 C   0  0  0  0  0  0  0  0  0  0  0  0
  140.9690   71.7940  228.3830 C   0  0  0  0  0  0  0  0  0  0  0  0
  140.2290   70.6230  228.3180 C   0  0  0  0  0  0  0  0  0  0  0  0
  139.9430   70.0610  227.1300 N   0  0  0  0  0  0  0  0  0  0  0  0
  141.1630   75.2700  221.3580 C   0  0  0  0  0  0  0  0  0  0  0  0
  141.9050   75.8540  220.3420 C   0  0  0  0  0  0  0  0  0  0  0  0
  142.0850   77.2030  220.2160 C   0  0  0  0  0  0  0  0  0  0  0  0
  141.5000   78.0320  221.1430 C   0  0  0  0  0  0  0  0  0  0  0  0
  141.6680   79.3990  221.0360 C   0  0  0  0  0  0  0  0  0  0  0  0
  141.0560   80.1910  221.9990 C   0  0  0  0  0  0  0  0  0  0  0  0
  141.2890   82.0790  221.8490 Br  0  0  0  0  0  0  0  0  0  0  0  0
  140.3110   79.6500  223.0240 C   0  0  0  0  0  0  0  0  0  0  0  0
  140.1590   78.2690  223.1070 C   0  0  0  0  0  0  0  0  0  0  0  0
  140.7600   77.4460  222.1550 C   0  0  0  0  0  0  0  0  0  0  0  0
  140.6030   76.1020  222.2510 N   0  0  0  0  0  0  0  0  0  0  0  0
  139.3560   73.9040  222.7080 H   0  0  0  0  0  0  0  0  0  0  0  0
  139.6897   71.4096  221.2407 H   0  0  0  0  0  0  0  0  0  0  0  0
  140.7595   71.3638  222.6833 H   0  0  0  0  0  0  0  0  0  0  0  0
  137.2124   70.5220  225.5440 H   0  0  0  0  0  0  0  0  0  0  0  0
  136.8038   69.6788  224.0401 H   0  0  0  0  0  0  0  0  0  0  0  0
  138.0477   68.5980  226.4738 H   0  0  0  0  0  0  0  0  0  0  0  0
  137.5107   67.6897  225.0721 H   0  0  0  0  0  0  0  0  0  0  0  0
  140.1491   67.9842  225.6848 H   0  0  0  0  0  0  0  0  0  0  0  0
  139.6253   67.8941  223.9947 H   0  0  0  0  0  0  0  0  0  0  0  0
  140.9087   69.9855  224.1261 H   0  0  0  0  0  0  0  0  0  0  0  0
  141.4322   72.2098  225.0918 H   0  0  0  0  0  0  0  0  0  0  0  0
  142.0033   73.3080  227.2370 H   0  0  0  0  0  0  0  0  0  0  0  0
  141.1991   72.2507  229.3569 H   0  0  0  0  0  0  0  0  0  0  0  0
  139.8732   70.1501  229.2452 H   0  0  0  0  0  0  0  0  0  0  0  0
  142.3744   75.1952  219.5966 H   0  0  0  0  0  0  0  0  0  0  0  0
  142.6845   77.6158  219.3913 H   0  0  0  0  0  0  0  0  0  0  0  0
  142.2614   79.8416  220.2224 H   0  0  0  0  0  0  0  0  0  0  0  0
  139.8396   80.3050  223.7715 H   0  0  0  0  0  0  0  0  0  0  0  0
  139.5661   77.8277  223.9217 H   0  0  0  0  0  0  0  0  0  0  0  0
  1  2  2  0
  2  3  1  0
  3  4  1  0
  4  5  1  0
  5  6  2  0
  5  7  1  0
  7  8  1  0
  8  9  1  0
  9 10  1  0
 10 11  1  0
 11 12  1  0
 12 13  2  0
 13 14  1  0
 14 15  2  0
 15 16  1  0
 16 17  2  0
  2 18  1  0
 18 19  2  0
 19 20  1  0
 20 21  2  0
 21 22  1  0
 22 23  2  0
 23 24  1  0
 23 25  1  0
 25 26  2  0
 26 27  1  0
 27 28  2  0
 11  7  1  0
 17 12  1  0
 28 18  1  0
 27 21  1  0
  3 29  1  0
  4 30  1  0
  4 31  1  0
  8 32  1  0
  8 33  1  0
  9 34  1  0
  9 35  1  0
 10 36  1  0
 10 37  1  0
 11 38  1  6
 13 39  1  0
 14 40  1  0
 15 41  1  0
 16 42  1  0
 19 43  1  0
 20 44  1  0
 22 45  1  0
 25 46  1  0
 26 47  1  0
M  END
>  <smiles>  (36) 
O=C(NCC(=O)N1CCCC1c1ccccn1)c1ccc2cc(Br)ccc2n1

>  <score_type>  (36) 
oracle

>  <origin>  (36) 
autodockgpu

>  <m_score__min__energy>  (36) 
-8.8000000000000007

>  <m_primary>  (36) 
energy

>  <rmsd>  (36) 
9.054825433365277

>  <m_score__min__rmsd>  (36) 
9.054825433365277

>  <meeko>  (36) 
{"free_energy": -8.45, "intermolecular_energy": -9.94, "internal_energy": -1.63, "cluster_size": 10, "cluster_id": 2, "rank_in_cluster": 1}

>  <energy>  (36) 
-8.02

>  <cluster_rmsd>  (36) 
0.0

>  <cluster>  (36) 
3

$$$$

     RDKit          3D

 47 50  0  0  0  0  0  0  0  0999 V2000
  140.6180   72.6370  220.8600 O   0  0  0  0  0  0  0  0  0  0  0  0
  140.0010   72.8930  221.9460 C   0  0  0  0  0  0  0  0  0  0  0  0
  139.2540   74.0940  222.0970 N   0  0  0  0  0  0  0  0  0  0  0  0
  139.1940   75.0410  220.9950 C   0  0  0  0  0  0  0  0  0  0  0  0
  140.0660   76.1850  221.2850 C   0  0  0  0  0  0  0  0  0  0  0  0
  141.3140   76.0460  221.3230 O   0  0  0  0  0  0  0  0  0  0  0  0
  139.5530   77.4840  221.5330 N   0  0  0  0  0  0  0  0  0  0  0  0
  139.0100   78.3650  220.4960 C   0  0  0  0  0  0  0  0  0  0  0  0
  138.1340   79.3730  221.2180 C   0  0  0  0  0  0  0  0  0  0  0  0
  138.1520   78.9010  222.6380 C   0  0  0  0  0  0  0  0  0  0  0  0
  139.4630   78.1840  222.8210 C   0  0  2  0  0  0  0  0  0  0  0  0
  140.6120   79.0740  223.0320 C   0  0  0  0  0  0  0  0  0  0  0  0
  140.5530   80.3130  223.6230 C   0  0  0  0  0  0  0  0  0  0  0  0
  141.6570   81.1230  223.8040 C   0  0  0  0  0  0  0  0  0  0  0  0
  142.8690   80.6460  223.3620 C   0  0  0  0  0  0  0  0  0  0  0  0
  142.9330   79.3950  222.7640 C   0  0  0  0  0  0  0  0  0  0  0  0
  141.8210   78.6520  222.6160 N   0  0  0  0  0  0  0  0  0  0  0  0
  140.0590   71.9450  223.0510 C   0  0  0  0  0  0  0  0  0  0  0  0
  139.5990   70.6480  222.8730 C   0  0  0  0  0  0  0  0  0  0  0  0
  139.6170   69.6980  223.8540 C   0  0  0  0  0  0  0  0  0  0  0  0
  140.1150   70.0390  225.0890 C   0  0  0  0  0  0  0  0  0  0  0  0
  140.1430   69.0950  226.0970 C   0  0  0  0  0  0  0  0  0  0  0  0
  140.6570   69.4920  227.3250 C   0  0  0  0  0  0  0  0  0  0  0  0
  140.6940   68.1870  228.7160 Br  0  0  0  0  0  0  0  0  0  0  0  0
  141.1230   70.7710  227.5430 C   0  0  0  0  0  0  0  0  0  0  0  0
  141.0820   71.7010  226.5080 C   0  0  0  0  0  0  0  0  0  0  0  0
  140.5730   71.3340  225.2630 C   0  0  0  0  0  0  0  0  0  0  0  0
  140.5410   72.2520  224.2660 N   0  0  0  0  0  0  0  0  0  0  0  0
  138.7730   74.2460  223.0070 H   0  0  0  0  0  0  0  0  0  0  0  0
  139.5299   74.5491  220.0702 H   0  0  0  0  0  0  0  0  0  0  0  0
  138.1590   75.3916  220.8688 H   0  0  0  0  0  0  0  0  0  0  0  0
  139.8255   78.8784  219.9655 H   0  0  0  0  0  0  0  0  0  0  0  0
  138.4379   77.7989  219.7462 H   0  0  0  0  0  0  0  0  0  0  0  0
  138.5523   80.3870  221.1358 H   0  0  0  0  0  0  0  0  0  0  0  0
  137.1182   79.4333  220.8003 H   0  0  0  0  0  0  0  0  0  0  0  0
  138.0852   79.7567  223.3260 H   0  0  0  0  0  0  0  0  0  0  0  0
  137.2987   78.2413  222.8539 H   0  0  0  0  0  0  0  0  0  0  0  0
  139.4915   77.5483  223.7182 H   0  0  0  0  0  0  0  0  0  0  0  0
  139.5754   80.6789  223.9701 H   0  0  0  0  0  0  0  0  0  0  0  0
  141.5704   82.1098  224.2823 H   0  0  0  0  0  0  0  0  0  0  0  0
  143.7800   81.2509  223.4814 H   0  0  0  0  0  0  0  0  0  0  0  0
  143.8995   79.0083  222.4086 H   0  0  0  0  0  0  0  0  0  0  0  0
  139.1977   70.3696  221.8874 H   0  0  0  0  0  0  0  0  0  0  0  0
  139.2413   68.6825  223.6601 H   0  0  0  0  0  0  0  0  0  0  0  0
  139.7738   68.0717  225.9342 H   0  0  0  0  0  0  0  0  0  0  0  0
  141.5241   71.0545  228.5272 H   0  0  0  0  0  0  0  0  0  0  0  0
  141.4508   72.7242  226.6722 H   0  0  0  0  0  0  0  0  0  0  0  0
  1  2  2  0
  2  3  1  0
  3  4  1  0
  4  5  1  0
  5  6  2  0
  5  7  1  0
  7  8  1  0
  8  9  1  0
  9 10  1  0
 10 11  1  0
 11 12  1  0
 12 13  2  0
 13 14  1  0
 14 15  2  0
 15 16  1  0
 16 17  2  0
  2 18  1  0
 18 19  2  0
 19 20  1  0
 20 21  2  0
 21 22  1  0
 22 23  2  0
 23 24  1  0
 23 25  1  0
 25 26  2  0
 26 27  1  0
 27 28  2  0
 11  7  1  0
 17 12  1  0
 28 18  1  0
 27 21  1  0
  3 29  1  0
  4 30  1  0
  4 31  1  0
  8 32  1  0
  8 33  1  0
  9 34  1  0
  9 35  1  0
 10 36  1  0
 10 37  1  0
 11 38  1  1
 13 39  1  0
 14 40  1  0
 15 41  1  0
 16 42  1  0
 19 43  1  0
 20 44  1  0
 22 45  1  0
 25 46  1  0
 26 47  1  0
M  END
>  <smiles>  (37) 
O=C(NCC(=O)N1CCCC1c1ccccn1)c1ccc2cc(Br)ccc2n1

>  <score_type>  (37) 
oracle

>  <origin>  (37) 
autodockgpu

>  <m_score__min__energy>  (37) 
-8.8000000000000007

>  <m_primary>  (37) 
energy

>  <rmsd>  (37) 
3.0908451462239297

>  <m_score__min__rmsd>  (37) 
3.0908451462239297

>  <meeko>  (37) 
{"free_energy": -8.45, "intermolecular_energy": -9.94, "internal_energy": -1.3, "cluster_size": 25, "cluster_id": 1, "rank_in_cluster": 14}

>  <energy>  (37) 
-7.99

>  <cluster_rmsd>  (37) 
0.15

>  <cluster>  (37) 
3

$$$$

     RDKit          3D

 47 50  0  0  0  0  0  0  0  0999 V2000
  140.2740   72.4900  220.6840 O   0  0  0  0  0  0  0  0  0  0  0  0
  139.7780   72.8100  221.8140 C   0  0  0  0  0  0  0  0  0  0  0  0
  139.1020   74.0490  221.9920 N   0  0  0  0  0  0  0  0  0  0  0  0
  138.9760   74.9620  220.8660 C   0  0  0  0  0  0  0  0  0  0  0  0
  139.3730   76.3120  221.2820 C   0  0  0  0  0  0  0  0  0  0  0  0
  138.6670   76.9670  222.0880 O   0  0  0  0  0  0  0  0  0  0  0  0
  140.5540   76.9350  220.8040 N   0  0  0  0  0  0  0  0  0  0  0  0
  141.8010   76.2220  220.5160 C   0  0  0  0  0  0  0  0  0  0  0  0
  142.5890   77.1160  219.5760 C   0  0  0  0  0  0  0  0  0  0  0  0
  141.6510   78.2480  219.2990 C   0  0  0  0  0  0  0  0  0  0  0  0
  140.7630   78.3590  220.5110 C   0  0  2  0  0  0  0  0  0  0  0  0
  141.3790   79.0580  221.6460 C   0  0  0  0  0  0  0  0  0  0  0  0
  142.0380   80.2610  221.5690 C   0  0  0  0  0  0  0  0  0  0  0  0
  142.6050   80.8890  222.6610 C   0  0  0  0  0  0  0  0  0  0  0  0
  142.4920   80.2600  223.8790 C   0  0  0  0  0  0  0  0  0  0  0  0
  141.8270   79.0450  223.9610 C   0  0  0  0  0  0  0  0  0  0  0  0
  141.2950   78.4830  222.8610 N   0  0  0  0  0  0  0  0  0  0  0  0
  139.9020   71.8980  222.9430 C   0  0  0  0  0  0  0  0  0  0  0  0
  139.4890   70.5800  222.8140 C   0  0  0  0  0  0  0  0  0  0  0  0
  139.5690   69.6600  223.8210 C   0  0  0  0  0  0  0  0  0  0  0  0
  140.0880   70.0550  225.0310 C   0  0  0  0  0  0  0  0  0  0  0  0
  140.1790   69.1420  226.0630 C   0  0  0  0  0  0  0  0  0  0  0  0
  140.7100   69.5940  227.2650 C   0  0  0  0  0  0  0  0  0  0  0  0
  140.8350   68.3310  228.6900 Br  0  0  0  0  0  0  0  0  0  0  0  0
  141.1320   70.8950  227.4340 C   0  0  0  0  0  0  0  0  0  0  0  0
  141.0270   71.7930  226.3760 C   0  0  0  0  0  0  0  0  0  0  0  0
  140.4990   71.3710  225.1560 C   0  0  0  0  0  0  0  0  0  0  0  0
  140.4040   72.2580  224.1350 N   0  0  0  0  0  0  0  0  0  0  0  0
  138.7190   74.2540  222.9370 H   0  0  0  0  0  0  0  0  0  0  0  0
  139.6274   74.6248  220.0463 H   0  0  0  0  0  0  0  0  0  0  0  0
  137.9311   74.9774  220.5225 H   0  0  0  0  0  0  0  0  0  0  0  0
  142.3663   76.0512  221.4441 H   0  0  0  0  0  0  0  0  0  0  0  0
  141.6064   75.2374  220.0657 H   0  0  0  0  0  0  0  0  0  0  0  0
  143.5097   77.4775  220.0573 H   0  0  0  0  0  0  0  0  0  0  0  0
  142.9130   76.5959  218.6625 H   0  0  0  0  0  0  0  0  0  0  0  0
  142.2128   79.1819  219.1502 H   0  0  0  0  0  0  0  0  0  0  0  0
  141.0647   78.0705  218.3854 H   0  0  0  0  0  0  0  0  0  0  0  0
  139.8545   78.9536  220.3349 H   0  0  0  0  0  0  0  0  0  0  0  0
  142.1183   80.7496  220.5867 H   0  0  0  0  0  0  0  0  0  0  0  0
  143.1256   81.8528  222.5606 H   0  0  0  0  0  0  0  0  0  0  0  0
  142.9255   80.7166  224.7810 H   0  0  0  0  0  0  0  0  0  0  0  0
  141.7342   78.5378  224.9327 H   0  0  0  0  0  0  0  0  0  0  0  0
  139.0742   70.2577  221.8475 H   0  0  0  0  0  0  0  0  0  0  0  0
  139.2258   68.6264  223.6669 H   0  0  0  0  0  0  0  0  0  0  0  0
  139.8454   68.1012  225.9389 H   0  0  0  0  0  0  0  0  0  0  0  0
  141.5489   71.2213  228.3982 H   0  0  0  0  0  0  0  0  0  0  0  0
  141.3599   72.8339  226.5017 H   0  0  0  0  0  0  0  0  0  0  0  0
  1  2  2  0
  2  3  1  0
  3  4  1  0
  4  5  1  0
  5  6  2  0
  5  7  1  0
  7  8  1  0
  8  9  1  0
  9 10  1  0
 10 11  1  0
 11 12  1  0
 12 13  2  0
 13 14  1  0
 14 15  2  0
 15 16  1  0
 16 17  2  0
  2 18  1  0
 18 19  2  0
 19 20  1  0
 20 21  2  0
 21 22  1  0
 22 23  2  0
 23 24  1  0
 23 25  1  0
 25 26  2  0
 26 27  1  0
 27 28  2  0
 11  7  1  0
 17 12  1  0
 28 18  1  0
 27 21  1  0
  3 29  1  0
  4 30  1  0
  4 31  1  0
  8 32  1  0
  8 33  1  0
  9 34  1  0
  9 35  1  0
 10 36  1  0
 10 37  1  0
 11 38  1  6
 13 39  1  0
 14 40  1  0
 15 41  1  0
 16 42  1  0
 19 43  1  0
 20 44  1  0
 22 45  1  0
 25 46  1  0
 26 47  1  0
M  END
>  <smiles>  (38) 
O=C(NCC(=O)N1CCCC1c1ccccn1)c1ccc2cc(Br)ccc2n1

>  <score_type>  (38) 
oracle

>  <origin>  (38) 
autodockgpu

>  <m_score__min__energy>  (38) 
-8.8000000000000007

>  <m_primary>  (38) 
energy

>  <rmsd>  (38) 
2.228629875199184

>  <m_score__min__rmsd>  (38) 
2.228629875199184

>  <meeko>  (38) 
{"free_energy": -8.79, "intermolecular_energy": -10.28, "internal_energy": -1.47, "cluster_size": 25, "cluster_id": 1, "rank_in_cluster": 2}

>  <energy>  (38) 
-7.9

>  <cluster_rmsd>  (38) 
0.16

>  <cluster>  (38) 
3

$$$$

     RDKit          3D

 47 50  0  0  0  0  0  0  0  0999 V2000
  141.5950   73.0600  220.7360 O   0  0  0  0  0  0  0  0  0  0  0  0
  140.8190   73.8250  221.3960 C   0  0  0  0  0  0  0  0  0  0  0  0
  139.7430   73.2930  222.1600 N   0  0  0  0  0  0  0  0  0  0  0  0
  139.5290   71.8530  222.1850 C   0  0  0  0  0  0  0  0  0  0  0  0
  138.4990   71.5290  223.1790 C   0  0  0  0  0  0  0  0  0  0  0  0
  137.4090   72.1530  223.1980 O   0  0  0  0  0  0  0  0  0  0  0  0
  138.6790   70.5120  224.1510 N   0  0  0  0  0  0  0  0  0  0  0  0
  137.5810   69.8160  224.8250 C   0  0  0  0  0  0  0  0  0  0  0  0
  138.1650   68.5190  225.3530 C   0  0  0  0  0  0  0  0  0  0  0  0
  139.5640   68.5220  224.8190 C   0  0  0  0  0  0  0  0  0  0  0  0
  139.9460   69.9690  224.6600 C   0  0  2  0  0  0  0  0  0  0  0  0
  140.3490   70.6270  225.9100 C   0  0  0  0  0  0  0  0  0  0  0  0
  141.1090   71.7690  225.9920 C   0  0  0  0  0  0  0  0  0  0  0  0
  141.4690   72.3590  227.1880 C   0  0  0  0  0  0  0  0  0  0  0  0
  141.0330   71.7560  228.3450 C   0  0  0  0  0  0  0  0  0  0  0  0
  140.2660   70.6030  228.2670 C   0  0  0  0  0  0  0  0  0  0  0  0
  139.9470   70.0750  227.0710 N   0  0  0  0  0  0  0  0  0  0  0  0
  141.0310   75.2660  221.3730 C   0  0  0  0  0  0  0  0  0  0  0  0
  141.8970   75.8210  220.4410 C   0  0  0  0  0  0  0  0  0  0  0  0
  142.1530   77.1600  220.3500 C   0  0  0  0  0  0  0  0  0  0  0  0
  141.5210   78.0100  221.2260 C   0  0  0  0  0  0  0  0  0  0  0  0
  141.7640   79.3670  221.1530 C   0  0  0  0  0  0  0  0  0  0  0  0
  141.1010   80.1810  222.0620 C   0  0  0  0  0  0  0  0  0  0  0  0
  141.4380   82.0570  221.9590 Br  0  0  0  0  0  0  0  0  0  0  0  0
  140.2330   79.6700  223.0020 C   0  0  0  0  0  0  0  0  0  0  0  0
  140.0070   78.2970  223.0530 C   0  0  0  0  0  0  0  0  0  0  0  0
  140.6580   77.4530  222.1540 C   0  0  0  0  0  0  0  0  0  0  0  0
  140.4270   76.1180  222.2170 N   0  0  0  0  0  0  0  0  0  0  0  0
  139.1440   73.9670  222.6770 H   0  0  0  0  0  0  0  0  0  0  0  0
  139.1997   71.5139  221.1917 H   0  0  0  0  0  0  0  0  0  0  0  0
  140.4686   71.3471  222.4521 H   0  0  0  0  0  0  0  0  0  0  0  0
  137.1946   70.4262  225.6547 H   0  0  0  0  0  0  0  0  0  0  0  0
  136.7426   69.6285  224.1380 H   0  0  0  0  0  0  0  0  0  0  0  0
  138.1641   68.5065  226.4529 H   0  0  0  0  0  0  0  0  0  0  0  0
  137.5905   67.6334  225.0437 H   0  0  0  0  0  0  0  0  0  0  0  0
  140.2435   68.0230  225.5256 H   0  0  0  0  0  0  0  0  0  0  0  0
  139.6310   67.9810  223.8636 H   0  0  0  0  0  0  0  0  0  0  0  0
  140.8282   70.1199  224.0205 H   0  0  0  0  0  0  0  0  0  0  0  0
  141.4483   72.2377  225.0565 H   0  0  0  0  0  0  0  0  0  0  0  0
  142.0794   73.2737  227.2142 H   0  0  0  0  0  0  0  0  0  0  0  0
  141.2907   72.1850  229.3246 H   0  0  0  0  0  0  0  0  0  0  0  0
  139.9159   70.1166  229.1894 H   0  0  0  0  0  0  0  0  0  0  0  0
  142.4051   75.1457  219.7369 H   0  0  0  0  0  0  0  0  0  0  0  0
  142.8494   77.5491  219.5926 H   0  0  0  0  0  0  0  0  0  0  0  0
  142.4541   79.7860  220.4059 H   0  0  0  0  0  0  0  0  0  0  0  0
  139.7221   80.3420  223.7073 H   0  0  0  0  0  0  0  0  0  0  0  0
  139.3167   77.8792  223.8006 H   0  0  0  0  0  0  0  0  0  0  0  0
  1  2  2  0
  2  3  1  0
  3  4  1  0
  4  5  1  0
  5  6  2  0
  5  7  1  0
  7  8  1  0
  8  9  1  0
  9 10  1  0
 10 11  1  0
 11 12  1  0
 12 13  2  0
 13 14  1  0
 14 15  2  0
 15 16  1  0
 16 17  2  0
  2 18  1  0
 18 19  2  0
 19 20  1  0
 20 21  2  0
 21 22  1  0
 22 23  2  0
 23 24  1  0
 23 25  1  0
 25 26  2  0
 26 27  1  0
 27 28  2  0
 11  7  1  0
 17 12  1  0
 28 18  1  0
 27 21  1  0
  3 29  1  0
  4 30  1  0
  4 31  1  0
  8 32  1  0
  8 33  1  0
  9 34  1  0
  9 35  1  0
 10 36  1  0
 10 37  1  0
 11 38  1  6
 13 39  1  0
 14 40  1  0
 15 41  1  0
 16 42  1  0
 19 43  1  0
 20 44  1  0
 22 45  1  0
 25 46  1  0
 26 47  1  0
M  END
>  <smiles>  (39) 
O=C(NCC(=O)N1CCCC1c1ccccn1)c1ccc2cc(Br)ccc2n1

>  <score_type>  (39) 
oracle

>  <origin>  (39) 
autodockgpu

>  <m_score__min__energy>  (39) 
-8.8000000000000007

>  <m_primary>  (39) 
energy

>  <rmsd>  (39) 
9.025004622443912

>  <m_score__min__rmsd>  (39) 
9.025004622443912

>  <meeko>  (39) 
{"free_energy": -8.43, "intermolecular_energy": -9.92, "internal_energy": -1.67, "cluster_size": 10, "cluster_id": 2, "rank_in_cluster": 3}

>  <energy>  (39) 
-7.18

>  <cluster_rmsd>  (39) 
1.8

>  <cluster>  (39) 
3

$$$$

     RDKit          3D

 47 50  0  0  0  0  0  0  0  0999 V2000
  139.2500   72.7080  220.3280 O   0  0  0  0  0  0  0  0  0  0  0  0
  140.1760   72.7740  221.2010 C   0  0  0  0  0  0  0  0  0  0  0  0
  141.2730   73.6640  221.0380 N   0  0  0  0  0  0  0  0  0  0  0  0
  141.3360   74.5120  219.8570 C   0  0  0  0  0  0  0  0  0  0  0  0
  141.6350   75.8910  220.2590 C   0  0  0  0  0  0  0  0  0  0  0  0
  142.7480   76.4090  219.9920 O   0  0  0  0  0  0  0  0  0  0  0  0
  140.7000   76.6960  220.9590 N   0  0  0  0  0  0  0  0  0  0  0  0
  139.5220   77.3120  220.3430 C   0  0  0  0  0  0  0  0  0  0  0  0
  138.5640   77.6170  221.4790 C   0  0  0  0  0  0  0  0  0  0  0  0
  139.2400   77.0260  222.6770 C   0  0  0  0  0  0  0  0  0  0  0  0
  140.7160   77.0620  222.3820 C   0  0  2  0  0  0  0  0  0  0  0  0
  141.3410   78.3740  222.5930 C   0  0  0  0  0  0  0  0  0  0  0  0
  141.6940   78.8930  223.8150 C   0  0  0  0  0  0  0  0  0  0  0  0
  142.2810   80.1330  223.9740 C   0  0  0  0  0  0  0  0  0  0  0  0
  142.5150   80.8710  222.8370 C   0  0  0  0  0  0  0  0  0  0  0  0
  142.1590   80.3510  221.6010 C   0  0  0  0  0  0  0  0  0  0  0  0
  141.5900   79.1350  221.5100 N   0  0  0  0  0  0  0  0  0  0  0  0
  140.1160   71.9260  222.3840 C   0  0  0  0  0  0  0  0  0  0  0  0
  139.4730   70.6980  222.3210 C   0  0  0  0  0  0  0  0  0  0  0  0
  139.3710   69.8430  223.3820 C   0  0  0  0  0  0  0  0  0  0  0  0
  139.9340   70.2130  224.5800 C   0  0  0  0  0  0  0  0  0  0  0  0
  139.8430   69.3640  225.6660 C   0  0  0  0  0  0  0  0  0  0  0  0
  140.4290   69.7870  226.8520 C   0  0  0  0  0  0  0  0  0  0  0  0
  140.3020   68.6130  228.3520 Br  0  0  0  0  0  0  0  0  0  0  0  0
  141.0770   70.9990  226.9560 C   0  0  0  0  0  0  0  0  0  0  0  0
  141.1530   71.8330  225.8450 C   0  0  0  0  0  0  0  0  0  0  0  0
  140.5750   71.4380  224.6390 C   0  0  0  0  0  0  0  0  0  0  0  0
  140.6580   72.2630  223.5660 N   0  0  0  0  0  0  0  0  0  0  0  0
  141.9980   73.6720  221.7840 H   0  0  0  0  0  0  0  0  0  0  0  0
  142.1267   74.1465  219.1852 H   0  0  0  0  0  0  0  0  0  0  0  0
  140.3684   74.4846  219.3345 H   0  0  0  0  0  0  0  0  0  0  0  0
  139.8042   78.2390  219.8224 H   0  0  0  0  0  0  0  0  0  0  0  0
  139.0629   76.6451  219.5984 H   0  0  0  0  0  0  0  0  0  0  0  0
  138.4298   78.7022  221.5991 H   0  0  0  0  0  0  0  0  0  0  0  0
  137.5570   77.2076  221.3108 H   0  0  0  0  0  0  0  0  0  0  0  0
  139.0152   77.6208  223.5746 H   0  0  0  0  0  0  0  0  0  0  0  0
  138.8930   76.0001  222.8696 H   0  0  0  0  0  0  0  0  0  0  0  0
  141.3092   76.4113  223.0414 H   0  0  0  0  0  0  0  0  0  0  0  0
  141.4989   78.2895  224.7137 H   0  0  0  0  0  0  0  0  0  0  0  0
  142.5505   80.5150  224.9697 H   0  0  0  0  0  0  0  0  0  0  0  0
  142.9805   81.8652  222.9072 H   0  0  0  0  0  0  0  0  0  0  0  0
  142.3433   80.9371  220.6886 H   0  0  0  0  0  0  0  0  0  0  0  0
  139.0207   70.3963  221.3647 H   0  0  0  0  0  0  0  0  0  0  0  0
  138.8498   68.8798  223.2796 H   0  0  0  0  0  0  0  0  0  0  0  0
  139.3284   68.3944  225.5945 H   0  0  0  0  0  0  0  0  0  0  0  0
  141.5307   71.3046  227.9103 H   0  0  0  0  0  0  0  0  0  0  0  0
  141.6681   72.8022  225.9178 H   0  0  0  0  0  0  0  0  0  0  0  0
  1  2  2  0
  2  3  1  0
  3  4  1  0
  4  5  1  0
  5  6  2  0
  5  7  1  0
  7  8  1  0
  8  9  1  0
  9 10  1  0
 10 11  1  0
 11 12  1  0
 12 13  2  0
 13 14  1  0
 14 15  2  0
 15 16  1  0
 16 17  2  0
  2 18  1  0
 18 19  2  0
 19 20  1  0
 20 21  2  0
 21 22  1  0
 22 23  2  0
 23 24  1  0
 23 25  1  0
 25 26  2  0
 26 27  1  0
 27 28  2  0
 11  7  1  0
 17 12  1  0
 28 18  1  0
 27 21  1  0
  3 29  1  0
  4 30  1  0
  4 31  1  0
  8 32  1  0
  8 33  1  0
  9 34  1  0
  9 35  1  0
 10 36  1  0
 10 37  1  0
 11 38  1  1
 13 39  1  0
 14 40  1  0
 15 41  1  0
 16 42  1  0
 19 43  1  0
 20 44  1  0
 22 45  1  0
 25 46  1  0
 26 47  1  0
M  END
>  <smiles>  (40) 
O=C(NCC(=O)N1CCCC1c1ccccn1)c1ccc2cc(Br)ccc2n1

>  <score_type>  (40) 
oracle

>  <origin>  (40) 
autodockgpu

>  <m_score__min__energy>  (40) 
-8.8000000000000007

>  <m_primary>  (40) 
energy

>  <rmsd>  (40) 
3.2147058924277743

>  <m_score__min__rmsd>  (40) 
3.2147058924277743

>  <meeko>  (40) 
{"free_energy": -7.88, "intermolecular_energy": -9.37, "internal_energy": -1.63, "cluster_size": 25, "cluster_id": 1, "rank_in_cluster": 23}

>  <energy>  (40) 
-7.96

>  <cluster_rmsd>  (40) 
0.0

>  <cluster>  (40) 
4

$$$$

     RDKit          3D

 47 50  0  0  0  0  0  0  0  0999 V2000
  137.6350   77.9710  220.7990 O   0  0  0  0  0  0  0  0  0  0  0  0
  137.8790   77.8160  222.0400 C   0  0  0  0  0  0  0  0  0  0  0  0
  138.3540   76.5730  222.5430 N   0  0  0  0  0  0  0  0  0  0  0  0
  138.5640   75.4640  221.6240 C   0  0  0  0  0  0  0  0  0  0  0  0
  139.9980   75.1690  221.5320 C   0  0  0  0  0  0  0  0  0  0  0  0
  140.4690   74.1170  222.0330 O   0  0  0  0  0  0  0  0  0  0  0  0
  140.9110   76.0400  220.8860 N   0  0  0  0  0  0  0  0  0  0  0  0
  142.2420   75.6410  220.4230 C   0  0  0  0  0  0  0  0  0  0  0  0
  142.6470   76.6610  219.3750 C   0  0  0  0  0  0  0  0  0  0  0  0
  141.4300   77.5200  219.2320 C   0  0  0  0  0  0  0  0  0  0  0  0
  140.7200   77.4600  220.5590 C   0  0  2  0  0  0  0  0  0  0  0  0
  141.2970   78.3320  221.5900 C   0  0  0  0  0  0  0  0  0  0  0  0
  141.8240   79.5800  221.3640 C   0  0  0  0  0  0  0  0  0  0  0  0
  142.3590   80.3730  222.3620 C   0  0  0  0  0  0  0  0  0  0  0  0
  142.3530   79.8660  223.6400 C   0  0  0  0  0  0  0  0  0  0  0  0
  141.8230   78.6050  223.8730 C   0  0  0  0  0  0  0  0  0  0  0  0
  141.3160   77.8810  222.8590 N   0  0  0  0  0  0  0  0  0  0  0  0
  137.6700   78.9240  222.9630 C   0  0  0  0  0  0  0  0  0  0  0  0
  138.7480   79.7030  223.3600 C   0  0  0  0  0  0  0  0  0  0  0  0
  138.6410   80.7600  224.2200 C   0  0  0  0  0  0  0  0  0  0  0  0
  137.4000   81.0730  224.7230 C   0  0  0  0  0  0  0  0  0  0  0  0
  137.2670   82.1360  225.5940 C   0  0  0  0  0  0  0  0  0  0  0  0
  135.9930   82.4090  226.0730 C   0  0  0  0  0  0  0  0  0  0  0  0
  135.8110   83.8790  227.2770 Br  0  0  0  0  0  0  0  0  0  0  0  0
  134.8970   81.6600  225.7030 C   0  0  0  0  0  0  0  0  0  0  0  0
  135.0610   80.5940  224.8240 C   0  0  0  0  0  0  0  0  0  0  0  0
  136.3280   80.2940  224.3250 C   0  0  0  0  0  0  0  0  0  0  0  0
  136.4700   79.2510  223.4690 N   0  0  0  0  0  0  0  0  0  0  0  0
  138.5350   76.5080  223.5650 H   0  0  0  0  0  0  0  0  0  0  0  0
  138.0301   74.5759  221.9931 H   0  0  0  0  0  0  0  0  0  0  0  0
  138.1812   75.7352  220.6290 H   0  0  0  0  0  0  0  0  0  0  0  0
  142.9557   75.6498  221.2600 H   0  0  0  0  0  0  0  0  0  0  0  0
  142.2345   74.6217  220.0096 H   0  0  0  0  0  0  0  0  0  0  0  0
  143.5084   77.2539  219.7162 H   0  0  0  0  0  0  0  0  0  0  0  0
  142.9582   76.1990  218.4265 H   0  0  0  0  0  0  0  0  0  0  0  0
  141.7186   78.5557  218.9996 H   0  0  0  0  0  0  0  0  0  0  0  0
  140.7839   77.1696  218.4136 H   0  0  0  0  0  0  0  0  0  0  0  0
  139.6777   77.8086  220.5133 H   0  0  0  0  0  0  0  0  0  0  0  0
  141.8202   79.9689  220.3350 H   0  0  0  0  0  0  0  0  0  0  0  0
  142.7724   81.3685  222.1427 H   0  0  0  0  0  0  0  0  0  0  0  0
  142.7654   80.4559  224.4718 H   0  0  0  0  0  0  0  0  0  0  0  0
  141.8174   78.1947  224.8936 H   0  0  0  0  0  0  0  0  0  0  0  0
  139.7428   79.4562  222.9607 H   0  0  0  0  0  0  0  0  0  0  0  0
  139.5273   81.3468  224.5032 H   0  0  0  0  0  0  0  0  0  0  0  0
  138.1344   82.7414  225.8958 H   0  0  0  0  0  0  0  0  0  0  0  0
  133.9002   81.9030  226.0995 H   0  0  0  0  0  0  0  0  0  0  0  0
  134.1929   79.9891  224.5233 H   0  0  0  0  0  0  0  0  0  0  0  0
  1  2  2  0
  2  3  1  0
  3  4  1  0
  4  5  1  0
  5  6  2  0
  5  7  1  0
  7  8  1  0
  8  9  1  0
  9 10  1  0
 10 11  1  0
 11 12  1  0
 12 13  2  0
 13 14  1  0
 14 15  2  0
 15 16  1  0
 16 17  2  0
  2 18  1  0
 18 19  2  0
 19 20  1  0
 20 21  2  0
 21 22  1  0
 22 23  2  0
 23 24  1  0
 23 25  1  0
 25 26  2  0
 26 27  1  0
 27 28  2  0
 11  7  1  0
 17 12  1  0
 28 18  1  0
 27 21  1  0
  3 29  1  0
  4 30  1  0
  4 31  1  0
  8 32  1  0
  8 33  1  0
  9 34  1  0
  9 35  1  0
 10 36  1  0
 10 37  1  0
 11 38  1  6
 13 39  1  0
 14 40  1  0
 15 41  1  0
 16 42  1  0
 19 43  1  0
 20 44  1  0
 22 45  1  0
 25 46  1  0
 26 47  1  0
M  END
>  <smiles>  (41) 
O=C(NCC(=O)N1CCCC1c1ccccn1)c1ccc2cc(Br)ccc2n1

>  <score_type>  (41) 
oracle

>  <origin>  (41) 
autodockgpu

>  <m_score__min__energy>  (41) 
-8.8000000000000007

>  <m_primary>  (41) 
energy

>  <rmsd>  (41) 
7.501162950618683

>  <m_score__min__rmsd>  (41) 
7.501162950618683

>  <meeko>  (41) 
{"free_energy": -7.02, "intermolecular_energy": -8.52, "internal_energy": -2.22, "cluster_size": 2, "cluster_id": 5, "rank_in_cluster": 1}

>  <energy>  (41) 
-7.93

>  <cluster_rmsd>  (41) 
0.86

>  <cluster>  (41) 
4

$$$$

     RDKit          3D

 47 50  0  0  0  0  0  0  0  0999 V2000
  139.8860   72.3720  220.6430 O   0  0  0  0  0  0  0  0  0  0  0  0
  139.8050   72.8230  221.8330 C   0  0  0  0  0  0  0  0  0  0  0  0
  139.6350   74.2130  222.0790 N   0  0  0  0  0  0  0  0  0  0  0  0
  139.5510   75.1330  220.9540 C   0  0  0  0  0  0  0  0  0  0  0  0
  140.5660   76.1820  221.1020 C   0  0  0  0  0  0  0  0  0  0  0  0
  141.7250   76.0200  220.6460 O   0  0  0  0  0  0  0  0  0  0  0  0
  140.2940   77.4110  221.7550 N   0  0  0  0  0  0  0  0  0  0  0  0
  138.9490   77.8850  222.0900 C   0  0  0  0  0  0  0  0  0  0  0  0
  139.1280   78.9150  223.1890 C   0  0  0  0  0  0  0  0  0  0  0  0
  140.5940   78.8610  223.4870 C   0  0  0  0  0  0  0  0  0  0  0  0
  141.2610   78.4190  222.2120 C   0  0  2  0  0  0  0  0  0  0  0  0
  141.4330   79.4880  221.2200 C   0  0  0  0  0  0  0  0  0  0  0  0
  141.3040   80.8310  221.4770 C   0  0  0  0  0  0  0  0  0  0  0  0
  141.4740   81.8090  220.5160 C   0  0  0  0  0  0  0  0  0  0  0  0
  141.7890   81.3950  219.2430 C   0  0  0  0  0  0  0  0  0  0  0  0
  141.9190   80.0390  218.9790 C   0  0  0  0  0  0  0  0  0  0  0  0
  141.7420   79.1330  219.9580 N   0  0  0  0  0  0  0  0  0  0  0  0
  139.8890   71.9050  222.9610 C   0  0  0  0  0  0  0  0  0  0  0  0
  139.4440   70.5980  222.8210 C   0  0  0  0  0  0  0  0  0  0  0  0
  139.4860   69.6730  223.8260 C   0  0  0  0  0  0  0  0  0  0  0  0
  139.9960   70.0520  225.0450 C   0  0  0  0  0  0  0  0  0  0  0  0
  140.0490   69.1340  226.0760 C   0  0  0  0  0  0  0  0  0  0  0  0
  140.5730   69.5690  227.2870 C   0  0  0  0  0  0  0  0  0  0  0  0
  140.6450   68.3000  228.7100 Br  0  0  0  0  0  0  0  0  0  0  0  0
  141.0260   70.8580  227.4660 C   0  0  0  0  0  0  0  0  0  0  0  0
  140.9600   71.7610  226.4090 C   0  0  0  0  0  0  0  0  0  0  0  0
  140.4400   71.3560  225.1810 C   0  0  0  0  0  0  0  0  0  0  0  0
  140.3830   72.2490  224.1610 N   0  0  0  0  0  0  0  0  0  0  0  0
  139.5760   74.5200  223.0710 H   0  0  0  0  0  0  0  0  0  0  0  0
  139.7258   74.5834  220.0173 H   0  0  0  0  0  0  0  0  0  0  0  0
  138.5514   75.5914  220.9296 H   0  0  0  0  0  0  0  0  0  0  0  0
  138.4757   78.3443  221.2096 H   0  0  0  0  0  0  0  0  0  0  0  0
  138.3008   77.0581  222.4157 H   0  0  0  0  0  0  0  0  0  0  0  0
  138.8348   79.9162  222.8404 H   0  0  0  0  0  0  0  0  0  0  0  0
  138.5046   78.7105  224.0719 H   0  0  0  0  0  0  0  0  0  0  0  0
  140.9601   79.8545  223.7853 H   0  0  0  0  0  0  0  0  0  0  0  0
  140.8114   78.1708  224.3155 H   0  0  0  0  0  0  0  0  0  0  0  0
  142.2928   78.0669  222.3583 H   0  0  0  0  0  0  0  0  0  0  0  0
  141.0523   81.1442  222.5010 H   0  0  0  0  0  0  0  0  0  0  0  0
  141.3619   82.8759  220.7594 H   0  0  0  0  0  0  0  0  0  0  0  0
  141.9367   82.1328  218.4406 H   0  0  0  0  0  0  0  0  0  0  0  0
  142.1686   79.7022  217.9620 H   0  0  0  0  0  0  0  0  0  0  0  0
  139.0350   70.2896  221.8475 H   0  0  0  0  0  0  0  0  0  0  0  0
  139.1200   68.6485  223.6633 H   0  0  0  0  0  0  0  0  0  0  0  0
  139.6914   68.1022  225.9437 H   0  0  0  0  0  0  0  0  0  0  0  0
  141.4368   71.1710  228.4372 H   0  0  0  0  0  0  0  0  0  0  0  0
  141.3177   72.7926  226.5426 H   0  0  0  0  0  0  0  0  0  0  0  0
  1  2  2  0
  2  3  1  0
  3  4  1  0
  4  5  1  0
  5  6  2  0
  5  7  1  0
  7  8  1  0
  8  9  1  0
  9 10  1  0
 10 11  1  0
 11 12  1  0
 12 13  2  0
 13 14  1  0
 14 15  2  0
 15 16  1  0
 16 17  2  0
  2 18  1  0
 18 19  2  0
 19 20  1  0
 20 21  2  0
 21 22  1  0
 22 23  2  0
 23 24  1  0
 23 25  1  0
 25 26  2  0
 26 27  1  0
 27 28  2  0
 11  7  1  0
 17 12  1  0
 28 18  1  0
 27 21  1  0
  3 29  1  0
  4 30  1  0
  4 31  1  0
  8 32  1  0
  8 33  1  0
  9 34  1  0
  9 35  1  0
 10 36  1  0
 10 37  1  0
 11 38  1  1
 13 39  1  0
 14 40  1  0
 15 41  1  0
 16 42  1  0
 19 43  1  0
 20 44  1  0
 22 45  1  0
 25 46  1  0
 26 47  1  0
M  END
>  <smiles>  (42) 
O=C(NCC(=O)N1CCCC1c1ccccn1)c1ccc2cc(Br)ccc2n1

>  <score_type>  (42) 
oracle

>  <origin>  (42) 
autodockgpu

>  <m_score__min__energy>  (42) 
-8.8000000000000007

>  <m_primary>  (42) 
energy

>  <rmsd>  (42) 
3.114856836591202

>  <m_score__min__rmsd>  (42) 
3.114856836591202

>  <meeko>  (42) 
{"free_energy": -7.92, "intermolecular_energy": -9.41, "internal_energy": -1.41, "cluster_size": 25, "cluster_id": 1, "rank_in_cluster": 22}

>  <energy>  (42) 
-7.85

>  <cluster_rmsd>  (42) 
1.09

>  <cluster>  (42) 
4

$$$$

     RDKit          3D

 47 50  0  0  0  0  0  0  0  0999 V2000
  139.8630   72.1550  220.6390 O   0  0  0  0  0  0  0  0  0  0  0  0
  139.5980   72.5650  221.8160 C   0  0  0  0  0  0  0  0  0  0  0  0
  139.1300   73.8890  222.0410 N   0  0  0  0  0  0  0  0  0  0  0  0
  138.9500   74.7850  220.9080 C   0  0  0  0  0  0  0  0  0  0  0  0
  139.3600   76.1420  221.2870 C   0  0  0  0  0  0  0  0  0  0  0  0
  138.6300   76.8500  222.0250 O   0  0  0  0  0  0  0  0  0  0  0  0
  140.5810   76.7140  220.8470 N   0  0  0  0  0  0  0  0  0  0  0  0
  141.8230   75.9600  220.6630 C   0  0  0  0  0  0  0  0  0  0  0  0
  142.6840   76.7890  219.7270 C   0  0  0  0  0  0  0  0  0  0  0  0
  141.7910   77.9280  219.3450 C   0  0  0  0  0  0  0  0  0  0  0  0
  140.8420   78.1170  220.4980 C   0  0  2  0  0  0  0  0  0  0  0  0
  141.4120   78.8560  221.6320 C   0  0  0  0  0  0  0  0  0  0  0  0
  142.0370   80.0770  221.5440 C   0  0  0  0  0  0  0  0  0  0  0  0
  142.5620   80.7430  222.6350 C   0  0  0  0  0  0  0  0  0  0  0  0
  142.4400   80.1350  223.8630 C   0  0  0  0  0  0  0  0  0  0  0  0
  141.8100   78.9020  223.9560 C   0  0  0  0  0  0  0  0  0  0  0  0
  141.3190   78.3030  222.8560 N   0  0  0  0  0  0  0  0  0  0  0  0
  139.7780   71.6710  222.9520 C   0  0  0  0  0  0  0  0  0  0  0  0
  139.4340   70.3310  222.8360 C   0  0  0  0  0  0  0  0  0  0  0  0
  139.5690   69.4250  223.8490 C   0  0  0  0  0  0  0  0  0  0  0  0
  140.0730   69.8570  225.0530 C   0  0  0  0  0  0  0  0  0  0  0  0
  140.2180   68.9600  226.0920 C   0  0  0  0  0  0  0  0  0  0  0  0
  140.7320   69.4490  227.2860 C   0  0  0  0  0  0  0  0  0  0  0  0
  140.9330   68.2060  228.7210 Br  0  0  0  0  0  0  0  0  0  0  0  0
  141.0860   70.7720  227.4420 C   0  0  0  0  0  0  0  0  0  0  0  0
  140.9280   71.6540  226.3780 C   0  0  0  0  0  0  0  0  0  0  0  0
  140.4150   71.1940  225.1650 C   0  0  0  0  0  0  0  0  0  0  0  0
  140.2670   72.0670  224.1380 N   0  0  0  0  0  0  0  0  0  0  0  0
  138.9310   74.1660  223.0240 H   0  0  0  0  0  0  0  0  0  0  0  0
  139.5655   74.4381  220.0649 H   0  0  0  0  0  0  0  0  0  0  0  0
  137.8909   74.7917  220.6108 H   0  0  0  0  0  0  0  0  0  0  0  0
  142.3322   75.8217  221.6282 H   0  0  0  0  0  0  0  0  0  0  0  0
  141.6282   74.9595  220.2495 H   0  0  0  0  0  0  0  0  0  0  0  0
  143.5860   77.1523  220.2412 H   0  0  0  0  0  0  0  0  0  0  0  0
  143.0442   76.2179  218.8586 H   0  0  0  0  0  0  0  0  0  0  0  0
  142.3835   78.8407  219.1843 H   0  0  0  0  0  0  0  0  0  0  0  0
  141.2513   77.7201  218.4093 H   0  0  0  0  0  0  0  0  0  0  0  0
  139.9600   78.7226  220.2424 H   0  0  0  0  0  0  0  0  0  0  0  0
  142.1238   80.5484  220.5539 H   0  0  0  0  0  0  0  0  0  0  0  0
  143.0571   81.7192  222.5260 H   0  0  0  0  0  0  0  0  0  0  0  0
  142.8389   80.6227  224.7647 H   0  0  0  0  0  0  0  0  0  0  0  0
  141.7114   78.4112  224.9355 H   0  0  0  0  0  0  0  0  0  0  0  0
  139.0304   69.9795  221.8750 H   0  0  0  0  0  0  0  0  0  0  0  0
  139.2809   68.3732  223.7048 H   0  0  0  0  0  0  0  0  0  0  0  0
  139.9382   67.9022  225.9791 H   0  0  0  0  0  0  0  0  0  0  0  0
  141.4906   71.1278  228.4010 H   0  0  0  0  0  0  0  0  0  0  0  0
  141.2069   72.7118  226.4928 H   0  0  0  0  0  0  0  0  0  0  0  0
  1  2  2  0
  2  3  1  0
  3  4  1  0
  4  5  1  0
  5  6  2  0
  5  7  1  0
  7  8  1  0
  8  9  1  0
  9 10  1  0
 10 11  1  0
 11 12  1  0
 12 13  2  0
 13 14  1  0
 14 15  2  0
 15 16  1  0
 16 17  2  0
  2 18  1  0
 18 19  2  0
 19 20  1  0
 20 21  2  0
 21 22  1  0
 22 23  2  0
 23 24  1  0
 23 25  1  0
 25 26  2  0
 26 27  1  0
 27 28  2  0
 11  7  1  0
 17 12  1  0
 28 18  1  0
 27 21  1  0
  3 29  1  0
  4 30  1  0
  4 31  1  0
  8 32  1  0
  8 33  1  0
  9 34  1  0
  9 35  1  0
 10 36  1  0
 10 37  1  0
 11 38  1  6
 13 39  1  0
 14 40  1  0
 15 41  1  0
 16 42  1  0
 19 43  1  0
 20 44  1  0
 22 45  1  0
 25 46  1  0
 26 47  1  0
M  END
>  <smiles>  (43) 
O=C(NCC(=O)N1CCCC1c1ccccn1)c1ccc2cc(Br)ccc2n1

>  <score_type>  (43) 
oracle

>  <origin>  (43) 
autodockgpu

>  <m_score__min__energy>  (43) 
-8.8000000000000007

>  <m_primary>  (43) 
energy

>  <rmsd>  (43) 
2.164030930021744

>  <m_score__min__rmsd>  (43) 
2.164030930021744

>  <meeko>  (43) 
{"free_energy": -8.77, "intermolecular_energy": -10.26, "internal_energy": -1.5, "cluster_size": 25, "cluster_id": 1, "rank_in_cluster": 6}

>  <energy>  (43) 
-7.76

>  <cluster_rmsd>  (43) 
0.53

>  <cluster>  (43) 
4

$$$$

     RDKit          3D

 47 50  0  0  0  0  0  0  0  0999 V2000
  141.8790   73.0690  220.7780 O   0  0  0  0  0  0  0  0  0  0  0  0
  141.0720   73.8170  221.4210 C   0  0  0  0  0  0  0  0  0  0  0  0
  140.0200   73.2590  222.2000 N   0  0  0  0  0  0  0  0  0  0  0  0
  139.8670   71.8140  222.2630 C   0  0  0  0  0  0  0  0  0  0  0  0
  138.7200   71.4790  223.1130 C   0  0  0  0  0  0  0  0  0  0  0  0
  137.6190   72.0660  222.9640 O   0  0  0  0  0  0  0  0  0  0  0  0
  138.7930   70.4930  224.1300 N   0  0  0  0  0  0  0  0  0  0  0  0
  137.6250   69.8890  224.7760 C   0  0  0  0  0  0  0  0  0  0  0  0
  138.1070   68.5820  225.3780 C   0  0  0  0  0  0  0  0  0  0  0  0
  139.5260   68.4830  224.9140 C   0  0  0  0  0  0  0  0  0  0  0  0
  140.0000   69.8990  224.7200 C   0  0  2  0  0  0  0  0  0  0  0  0
  140.3840   70.5810  225.9630 C   0  0  0  0  0  0  0  0  0  0  0  0
  141.1040   71.7490  226.0320 C   0  0  0  0  0  0  0  0  0  0  0  0
  141.4470   72.3620  227.2220 C   0  0  0  0  0  0  0  0  0  0  0  0
  141.0340   71.7550  228.3860 C   0  0  0  0  0  0  0  0  0  0  0  0
  140.3070   70.5760  228.3200 C   0  0  0  0  0  0  0  0  0  0  0  0
  140.0040   70.0260  227.1300 N   0  0  0  0  0  0  0  0  0  0  0  0
  141.2220   75.2640  221.3590 C   0  0  0  0  0  0  0  0  0  0  0  0
  141.9710   75.8380  220.3410 C   0  0  0  0  0  0  0  0  0  0  0  0
  142.1630   77.1840  220.2090 C   0  0  0  0  0  0  0  0  0  0  0  0
  141.5850   78.0230  221.1330 C   0  0  0  0  0  0  0  0  0  0  0  0
  141.7650   79.3870  221.0200 C   0  0  0  0  0  0  0  0  0  0  0  0
  141.1610   80.1890  221.9790 C   0  0  0  0  0  0  0  0  0  0  0  0
  141.4110   82.0740  221.8220 Br  0  0  0  0  0  0  0  0  0  0  0  0
  140.4100   79.6590  223.0060 C   0  0  0  0  0  0  0  0  0  0  0  0
  140.2450   78.2800  223.0950 C   0  0  0  0  0  0  0  0  0  0  0  0
  140.8390   77.4470  222.1470 C   0  0  0  0  0  0  0  0  0  0  0  0
  140.6690   76.1060  222.2480 N   0  0  0  0  0  0  0  0  0  0  0  0
  139.3930   73.9210  222.7010 H   0  0  0  0  0  0  0  0  0  0  0  0
  139.7003   71.4187  221.2501 H   0  0  0  0  0  0  0  0  0  0  0  0
  140.7789   71.3675  222.6861 H   0  0  0  0  0  0  0  0  0  0  0  0
  137.2384   70.5526  225.5635 H   0  0  0  0  0  0  0  0  0  0  0  0
  136.8085   69.7240  224.0576 H   0  0  0  0  0  0  0  0  0  0  0  0
  138.0542   68.6124  226.4763 H   0  0  0  0  0  0  0  0  0  0  0  0
  137.4962   67.7197  225.0723 H   0  0  0  0  0  0  0  0  0  0  0  0
  140.1410   67.9746  225.6712 H   0  0  0  0  0  0  0  0  0  0  0  0
  139.6057   67.9009  223.9841 H   0  0  0  0  0  0  0  0  0  0  0  0
  140.9179   69.9742  224.1185 H   0  0  0  0  0  0  0  0  0  0  0  0
  141.4240   72.2207  225.0912 H   0  0  0  0  0  0  0  0  0  0  0  0
  142.0264   73.2969  227.2382 H   0  0  0  0  0  0  0  0  0  0  0  0
  141.2786   72.2016  229.3611 H   0  0  0  0  0  0  0  0  0  0  0  0
  139.9755   70.0866  229.2477 H   0  0  0  0  0  0  0  0  0  0  0  0
  142.4358   75.1719  219.5993 H   0  0  0  0  0  0  0  0  0  0  0  0
  142.7662   77.5877  219.3825 H   0  0  0  0  0  0  0  0  0  0  0  0
  142.3621   79.8204  220.2042 H   0  0  0  0  0  0  0  0  0  0  0  0
  139.9442   80.3215  223.7503 H   0  0  0  0  0  0  0  0  0  0  0  0
  139.6474   77.8479  223.9112 H   0  0  0  0  0  0  0  0  0  0  0  0
  1  2  2  0
  2  3  1  0
  3  4  1  0
  4  5  1  0
  5  6  2  0
  5  7  1  0
  7  8  1  0
  8  9  1  0
  9 10  1  0
 10 11  1  0
 11 12  1  0
 12 13  2  0
 13 14  1  0
 14 15  2  0
 15 16  1  0
 16 17  2  0
  2 18  1  0
 18 19  2  0
 19 20  1  0
 20 21  2  0
 21 22  1  0
 22 23  2  0
 23 24  1  0
 23 25  1  0
 25 26  2  0
 26 27  1  0
 27 28  2  0
 11  7  1  0
 17 12  1  0
 28 18  1  0
 27 21  1  0
  3 29  1  0
  4 30  1  0
  4 31  1  0
  8 32  1  0
  8 33  1  0
  9 34  1  0
  9 35  1  0
 10 36  1  0
 10 37  1  0
 11 38  1  6
 13 39  1  0
 14 40  1  0
 15 41  1  0
 16 42  1  0
 19 43  1  0
 20 44  1  0
 22 45  1  0
 25 46  1  0
 26 47  1  0
M  END
>  <smiles>  (44) 
O=C(NCC(=O)N1CCCC1c1ccccn1)c1ccc2cc(Br)ccc2n1

>  <score_type>  (44) 
oracle

>  <origin>  (44) 
autodockgpu

>  <m_score__min__energy>  (44) 
-8.8000000000000007

>  <m_primary>  (44) 
energy

>  <rmsd>  (44) 
9.061587274666001

>  <m_score__min__rmsd>  (44) 
9.061587274666001

>  <meeko>  (44) 
{"free_energy": -8.44, "intermolecular_energy": -9.93, "internal_energy": -1.64, "cluster_size": 10, "cluster_id": 2, "rank_in_cluster": 2}

>  <energy>  (44) 
-7.63

>  <cluster_rmsd>  (44) 
1.33

>  <cluster>  (44) 
4

$$$$

     RDKit          3D

 47 50  0  0  0  0  0  0  0  0999 V2000
  140.1950   72.4330  220.6720 O   0  0  0  0  0  0  0  0  0  0  0  0
  139.9900   72.8610  221.8550 C   0  0  0  0  0  0  0  0  0  0  0  0
  139.7120   74.2350  222.0990 N   0  0  0  0  0  0  0  0  0  0  0  0
  139.6600   75.1620  220.9780 C   0  0  0  0  0  0  0  0  0  0  0  0
  140.9690   75.8020  220.8110 C   0  0  0  0  0  0  0  0  0  0  0  0
  142.0280   75.1620  221.0310 O   0  0  0  0  0  0  0  0  0  0  0  0
  141.1050   77.1520  220.3990 N   0  0  0  0  0  0  0  0  0  0  0  0
  142.0680   77.6140  219.3970 C   0  0  0  0  0  0  0  0  0  0  0  0
  141.5470   78.9470  218.8940 C   0  0  0  0  0  0  0  0  0  0  0  0
  140.2260   79.0900  219.5830 C   0  0  0  0  0  0  0  0  0  0  0  0
  140.3420   78.3160  220.8700 C   0  0  2  0  0  0  0  0  0  0  0  0
  141.0530   79.0290  221.9390 C   0  0  0  0  0  0  0  0  0  0  0  0
  141.2740   78.5390  223.2030 C   0  0  0  0  0  0  0  0  0  0  0  0
  141.9480   79.2400  224.1840 C   0  0  0  0  0  0  0  0  0  0  0  0
  142.4140   80.4920  223.8570 C   0  0  0  0  0  0  0  0  0  0  0  0
  142.1920   80.9920  222.5810 C   0  0  0  0  0  0  0  0  0  0  0  0
  141.5280   80.2600  221.6680 N   0  0  0  0  0  0  0  0  0  0  0  0
  140.0420   71.9350  222.9780 C   0  0  0  0  0  0  0  0  0  0  0  0
  139.5680   70.6390  222.8270 C   0  0  0  0  0  0  0  0  0  0  0  0
  139.5790   69.7080  223.8260 C   0  0  0  0  0  0  0  0  0  0  0  0
  140.0850   70.0680  225.0530 C   0  0  0  0  0  0  0  0  0  0  0  0
  140.1060   69.1440  226.0790 C   0  0  0  0  0  0  0  0  0  0  0  0
  140.6280   69.5590  227.2970 C   0  0  0  0  0  0  0  0  0  0  0  0
  140.6560   68.2800  228.7130 Br  0  0  0  0  0  0  0  0  0  0  0  0
  141.1080   70.8370  227.4890 C   0  0  0  0  0  0  0  0  0  0  0  0
  141.0740   71.7470  226.4370 C   0  0  0  0  0  0  0  0  0  0  0  0
  140.5560   71.3610  225.2000 C   0  0  0  0  0  0  0  0  0  0  0  0
  140.5300   72.2600  224.1860 N   0  0  0  0  0  0  0  0  0  0  0  0
  139.5540   74.5230  223.0850 H   0  0  0  0  0  0  0  0  0  0  0  0
  139.4004   74.6135  220.0605 H   0  0  0  0  0  0  0  0  0  0  0  0
  138.8984   75.9312  221.1736 H   0  0  0  0  0  0  0  0  0  0  0  0
  143.0615   77.7399  219.8522 H   0  0  0  0  0  0  0  0  0  0  0  0
  142.1727   76.8887  218.5767 H   0  0  0  0  0  0  0  0  0  0  0  0
  142.2267   79.7654  219.1737 H   0  0  0  0  0  0  0  0  0  0  0  0
  141.4645   78.9880  217.7979 H   0  0  0  0  0  0  0  0  0  0  0  0
  140.0168   80.1495  219.7919 H   0  0  0  0  0  0  0  0  0  0  0  0
  139.4033   78.7117  218.9585 H   0  0  0  0  0  0  0  0  0  0  0  0
  139.3708   78.0988  221.3386 H   0  0  0  0  0  0  0  0  0  0  0  0
  140.8944   77.5358  223.4468 H   0  0  0  0  0  0  0  0  0  0  0  0
  142.1056   78.8142  225.1859 H   0  0  0  0  0  0  0  0  0  0  0  0
  142.9584   81.0925  224.6007 H   0  0  0  0  0  0  0  0  0  0  0  0
  142.5614   81.9933  222.3146 H   0  0  0  0  0  0  0  0  0  0  0  0
  139.1609   70.3456  221.8481 H   0  0  0  0  0  0  0  0  0  0  0  0
  139.1918   68.6930  223.6531 H   0  0  0  0  0  0  0  0  0  0  0  0
  139.7251   68.1218  225.9373 H   0  0  0  0  0  0  0  0  0  0  0  0
  141.5148   71.1351  228.4666 H   0  0  0  0  0  0  0  0  0  0  0  0
  141.4548   72.7690  226.5801 H   0  0  0  0  0  0  0  0  0  0  0  0
  1  2  2  0
  2  3  1  0
  3  4  1  0
  4  5  1  0
  5  6  2  0
  5  7  1  0
  7  8  1  0
  8  9  1  0
  9 10  1  0
 10 11  1  0
 11 12  1  0
 12 13  2  0
 13 14  1  0
 14 15  2  0
 15 16  1  0
 16 17  2  0
  2 18  1  0
 18 19  2  0
 19 20  1  0
 20 21  2  0
 21 22  1  0
 22 23  2  0
 23 24  1  0
 23 25  1  0
 25 26  2  0
 26 27  1  0
 27 28  2  0
 11  7  1  0
 17 12  1  0
 28 18  1  0
 27 21  1  0
  3 29  1  0
  4 30  1  0
  4 31  1  0
  8 32  1  0
  8 33  1  0
  9 34  1  0
  9 35  1  0
 10 36  1  0
 10 37  1  0
 11 38  1  1
 13 39  1  0
 14 40  1  0
 15 41  1  0
 16 42  1  0
 19 43  1  0
 20 44  1  0
 22 45  1  0
 25 46  1  0
 26 47  1  0
M  END
>  <smiles>  (45) 
O=C(NCC(=O)N1CCCC1c1ccccn1)c1ccc2cc(Br)ccc2n1

>  <score_type>  (45) 
oracle

>  <origin>  (45) 
autodockgpu

>  <m_score__min__energy>  (45) 
-8.8000000000000007

>  <m_primary>  (45) 
energy

>  <rmsd>  (45) 
2.8134560155367834

>  <m_score__min__rmsd>  (45) 
2.8134560155367834

>  <meeko>  (45) 
{"free_energy": -8.43, "intermolecular_energy": -9.92, "internal_energy": -1.4, "cluster_size": 25, "cluster_id": 1, "rank_in_cluster": 16}

>  <energy>  (45) 
-7.02

>  <cluster_rmsd>  (45) 
0.0

>  <cluster>  (45) 
5

$$$$

     RDKit          3D

 47 50  0  0  0  0  0  0  0  0999 V2000
  133.6440   69.3170  226.4690 O   0  0  0  0  0  0  0  0  0  0  0  0
  134.1100   70.3900  225.9630 C   0  0  0  0  0  0  0  0  0  0  0  0
  135.1600   70.3520  225.0050 N   0  0  0  0  0  0  0  0  0  0  0  0
  135.7080   69.0670  224.5970 C   0  0  0  0  0  0  0  0  0  0  0  0
  136.5760   69.2530  223.4290 C   0  0  0  0  0  0  0  0  0  0  0  0
  136.1740   68.9530  222.2770 O   0  0  0  0  0  0  0  0  0  0  0  0
  137.8910   69.7720  223.5380 N   0  0  0  0  0  0  0  0  0  0  0  0
  138.9230   69.6220  222.5090 C   0  0  0  0  0  0  0  0  0  0  0  0
  139.9420   70.7140  222.7720 C   0  0  0  0  0  0  0  0  0  0  0  0
  139.3340   71.5000  223.8910 C   0  0  0  0  0  0  0  0  0  0  0  0
  138.4680   70.5340  224.6550 C   0  0  2  0  0  0  0  0  0  0  0  0
  139.2050   69.6620  225.5780 C   0  0  0  0  0  0  0  0  0  0  0  0
  139.1670   68.2890  225.5670 C   0  0  0  0  0  0  0  0  0  0  0  0
  139.8760   67.5010  226.4530 C   0  0  0  0  0  0  0  0  0  0  0  0
  140.6560   68.1450  227.3850 C   0  0  0  0  0  0  0  0  0  0  0  0
  140.6970   69.5320  227.4000 C   0  0  0  0  0  0  0  0  0  0  0  0
  139.9830   70.2450  226.5100 N   0  0  0  0  0  0  0  0  0  0  0  0
  133.5630   71.6770  226.3700 C   0  0  0  0  0  0  0  0  0  0  0  0
  132.4060   71.7250  227.1340 C   0  0  0  0  0  0  0  0  0  0  0  0
  131.8260   72.8880  227.5580 C   0  0  0  0  0  0  0  0  0  0  0  0
  132.4160   74.0800  227.2100 C   0  0  0  0  0  0  0  0  0  0  0  0
  131.8480   75.2680  227.6260 C   0  0  0  0  0  0  0  0  0  0  0  0
  132.4850   76.4420  227.2470 C   0  0  0  0  0  0  0  0  0  0  0  0
  131.6980   78.0830  227.8240 Br  0  0  0  0  0  0  0  0  0  0  0  0
  133.6350   76.4380  226.4890 C   0  0  0  0  0  0  0  0  0  0  0  0
  134.1850   75.2260  226.0830 C   0  0  0  0  0  0  0  0  0  0  0  0
  133.5700   74.0280  226.4470 C   0  0  0  0  0  0  0  0  0  0  0  0
  134.1190   72.8550  226.0440 N   0  0  0  0  0  0  0  0  0  0  0  0
  135.4970   71.2610  224.6280 H   0  0  0  0  0  0  0  0  0  0  0  0
  136.2933   68.6389  225.4241 H   0  0  0  0  0  0  0  0  0  0  0  0
  134.8857   68.3841  224.3372 H   0  0  0  0  0  0  0  0  0  0  0  0
  139.3964   68.6320  222.5847 H   0  0  0  0  0  0  0  0  0  0  0  0
  138.4973   69.7050  221.4981 H   0  0  0  0  0  0  0  0  0  0  0  0
  140.9088   70.2847  223.0735 H   0  0  0  0  0  0  0  0  0  0  0  0
  140.1508   71.3271  221.8829 H   0  0  0  0  0  0  0  0  0  0  0  0
  140.1205   71.9066  224.5437 H   0  0  0  0  0  0  0  0  0  0  0  0
  138.7501   72.3524  223.5135 H   0  0  0  0  0  0  0  0  0  0  0  0
  137.7493   71.0280  225.3253 H   0  0  0  0  0  0  0  0  0  0  0  0
  138.5393   67.7909  224.8134 H   0  0  0  0  0  0  0  0  0  0  0  0
  139.8190   66.4031  226.4146 H   0  0  0  0  0  0  0  0  0  0  0  0
  141.2427   67.5652  228.1127 H   0  0  0  0  0  0  0  0  0  0  0  0
  141.3175   70.0521  228.1446 H   0  0  0  0  0  0  0  0  0  0  0  0
  131.9288   70.7743  227.4142 H   0  0  0  0  0  0  0  0  0  0  0  0
  130.9081   72.8705  228.1639 H   0  0  0  0  0  0  0  0  0  0  0  0
  130.9300   75.2835  228.2318 H   0  0  0  0  0  0  0  0  0  0  0  0
  134.1154   77.3864  226.2065 H   0  0  0  0  0  0  0  0  0  0  0  0
  135.1026   75.2126  225.4764 H   0  0  0  0  0  0  0  0  0  0  0  0
  1  2  2  0
  2  3  1  0
  3  4  1  0
  4  5  1  0
  5  6  2  0
  5  7  1  0
  7  8  1  0
  8  9  1  0
  9 10  1  0
 10 11  1  0
 11 12  1  0
 12 13  2  0
 13 14  1  0
 14 15  2  0
 15 16  1  0
 16 17  2  0
  2 18  1  0
 18 19  2  0
 19 20  1  0
 20 21  2  0
 21 22  1  0
 22 23  2  0
 23 24  1  0
 23 25  1  0
 25 26  2  0
 26 27  1  0
 27 28  2  0
 11  7  1  0
 17 12  1  0
 28 18  1  0
 27 21  1  0
  3 29  1  0
  4 30  1  0
  4 31  1  0
  8 32  1  0
  8 33  1  0
  9 34  1  0
  9 35  1  0
 10 36  1  0
 10 37  1  0
 11 38  1  1
 13 39  1  0
 14 40  1  0
 15 41  1  0
 16 42  1  0
 19 43  1  0
 20 44  1  0
 22 45  1  0
 25 46  1  0
 26 47  1  0
M  END
>  <smiles>  (46) 
O=C(NCC(=O)N1CCCC1c1ccccn1)c1ccc2cc(Br)ccc2n1

>  <score_type>  (46) 
oracle

>  <origin>  (46) 
autodockgpu

>  <m_score__min__energy>  (46) 
-8.8000000000000007

>  <m_primary>  (46) 
energy

>  <rmsd>  (46) 
9.290829497060383

>  <m_score__min__rmsd>  (46) 
9.290829497060383

>  <meeko>  (46) 
{"free_energy": -7.76, "intermolecular_energy": -9.25, "internal_energy": -1.58, "cluster_size": 5, "cluster_id": 4, "rank_in_cluster": 4}

>  <energy>  (46) 
-6.81

>  <cluster_rmsd>  (46) 
0.46

>  <cluster>  (46) 
5

$$$$

     RDKit          3D

 47 50  0  0  0  0  0  0  0  0999 V2000
  142.0680   73.1410  220.5440 O   0  0  0  0  0  0  0  0  0  0  0  0
  141.3590   73.8500  221.3310 C   0  0  0  0  0  0  0  0  0  0  0  0
  140.4800   73.2430  222.2710 N   0  0  0  0  0  0  0  0  0  0  0  0
  140.3940   71.7920  222.3340 C   0  0  0  0  0  0  0  0  0  0  0  0
  139.0050   71.3950  222.5880 C   0  0  0  0  0  0  0  0  0  0  0  0
  138.0810   71.7710  221.8240 O   0  0  0  0  0  0  0  0  0  0  0  0
  138.6400   70.5800  223.6900 N   0  0  0  0  0  0  0  0  0  0  0  0
  137.2790   70.4800  224.2230 C   0  0  0  0  0  0  0  0  0  0  0  0
  137.2270   69.1780  225.0010 C   0  0  0  0  0  0  0  0  0  0  0  0
  138.5660   68.5620  224.7450 C   0  0  0  0  0  0  0  0  0  0  0  0
  139.5090   69.7080  224.4900 C   0  0  2  0  0  0  0  0  0  0  0  0
  139.9780   70.3840  225.7070 C   0  0  0  0  0  0  0  0  0  0  0  0
  140.7630   71.5110  225.7310 C   0  0  0  0  0  0  0  0  0  0  0  0
  141.1850   72.1200  226.8970 C   0  0  0  0  0  0  0  0  0  0  0  0
  140.7870   71.5520  228.0840 C   0  0  0  0  0  0  0  0  0  0  0  0
  139.9950   70.4130  228.0650 C   0  0  0  0  0  0  0  0  0  0  0  0
  139.6160   69.8650  226.8960 N   0  0  0  0  0  0  0  0  0  0  0  0
  141.4430   75.3030  221.2700 C   0  0  0  0  0  0  0  0  0  0  0  0
  142.0730   75.9130  220.1940 C   0  0  0  0  0  0  0  0  0  0  0  0
  142.1970   77.2670  220.0580 C   0  0  0  0  0  0  0  0  0  0  0  0
  141.6700   78.0750  221.0380 C   0  0  0  0  0  0  0  0  0  0  0  0
  141.7830   79.4470  220.9220 C   0  0  0  0  0  0  0  0  0  0  0  0
  141.2340   80.2170  221.9390 C   0  0  0  0  0  0  0  0  0  0  0  0
  141.3910   82.1120  221.7780 Br  0  0  0  0  0  0  0  0  0  0  0  0
  140.6000   79.6500  223.0240 C   0  0  0  0  0  0  0  0  0  0  0  0
  140.5020   78.2650  223.1140 C   0  0  0  0  0  0  0  0  0  0  0  0
  141.0430   77.4630  222.1090 C   0  0  0  0  0  0  0  0  0  0  0  0
  140.9380   76.1150  222.2120 N   0  0  0  0  0  0  0  0  0  0  0  0
  139.9270   73.8740  222.8850 H   0  0  0  0  0  0  0  0  0  0  0  0
  140.7290   71.3630  221.3781 H   0  0  0  0  0  0  0  0  0  0  0  0
  141.0357   71.4217  223.1471 H   0  0  0  0  0  0  0  0  0  0  0  0
  137.0655   71.3305  224.8872 H   0  0  0  0  0  0  0  0  0  0  0  0
  136.5296   70.4976  223.4180 H   0  0  0  0  0  0  0  0  0  0  0  0
  137.0806   69.3675  226.0746 H   0  0  0  0  0  0  0  0  0  0  0  0
  136.3926   68.5299  224.6948 H   0  0  0  0  0  0  0  0  0  0  0  0
  138.8948   67.9845  225.6216 H   0  0  0  0  0  0  0  0  0  0  0  0
  138.5339   67.8694  223.8910 H   0  0  0  0  0  0  0  0  0  0  0  0
  140.4522   69.4005  224.0148 H   0  0  0  0  0  0  0  0  0  0  0  0
  141.0718   71.9516  224.7716 H   0  0  0  0  0  0  0  0  0  0  0  0
  141.8137   73.0224  226.8765 H   0  0  0  0  0  0  0  0  0  0  0  0
  141.0942   71.9973  229.0418 H   0  0  0  0  0  0  0  0  0  0  0  0
  139.6746   69.9547  229.0123 H   0  0  0  0  0  0  0  0  0  0  0  0
  142.4958   75.2709  219.4073 H   0  0  0  0  0  0  0  0  0  0  0  0
  142.7066   77.7006  219.1849 H   0  0  0  0  0  0  0  0  0  0  0  0
  142.2865   79.9099  220.0605 H   0  0  0  0  0  0  0  0  0  0  0  0
  140.1747   80.2879  223.8128 H   0  0  0  0  0  0  0  0  0  0  0  0
  139.9987   77.8032  223.9762 H   0  0  0  0  0  0  0  0  0  0  0  0
  1  2  2  0
  2  3  1  0
  3  4  1  0
  4  5  1  0
  5  6  2  0
  5  7  1  0
  7  8  1  0
  8  9  1  0
  9 10  1  0
 10 11  1  0
 11 12  1  0
 12 13  2  0
 13 14  1  0
 14 15  2  0
 15 16  1  0
 16 17  2  0
  2 18  1  0
 18 19  2  0
 19 20  1  0
 20 21  2  0
 21 22  1  0
 22 23  2  0
 23 24  1  0
 23 25  1  0
 25 26  2  0
 26 27  1  0
 27 28  2  0
 11  7  1  0
 17 12  1  0
 28 18  1  0
 27 21  1  0
  3 29  1  0
  4 30  1  0
  4 31  1  0
  8 32  1  0
  8 33  1  0
  9 34  1  0
  9 35  1  0
 10 36  1  0
 10 37  1  0
 11 38  1  6
 13 39  1  0
 14 40  1  0
 15 41  1  0
 16 42  1  0
 19 43  1  0
 20 44  1  0
 22 45  1  0
 25 46  1  0
 26 47  1  0
M  END
>  <smiles>  (47) 
O=C(NCC(=O)N1CCCC1c1ccccn1)c1ccc2cc(Br)ccc2n1

>  <score_type>  (47) 
oracle

>  <origin>  (47) 
autodockgpu

>  <m_score__min__energy>  (47) 
-8.8000000000000007

>  <m_primary>  (47) 
energy

>  <rmsd>  (47) 
9.043128689110885

>  <m_score__min__rmsd>  (47) 
9.043128689110885

>  <meeko>  (47) 
{"free_energy": -8.14, "intermolecular_energy": -9.63, "internal_energy": -1.54, "cluster_size": 10, "cluster_id": 2, "rank_in_cluster": 9}

>  <energy>  (47) 
-6.72

>  <cluster_rmsd>  (47) 
0.0

>  <cluster>  (47) 
6

$$$$

     RDKit          3D

 47 50  0  0  0  0  0  0  0  0999 V2000
  140.9100   73.1180  220.5520 O   0  0  0  0  0  0  0  0  0  0  0  0
  140.2120   73.9030  221.2730 C   0  0  0  0  0  0  0  0  0  0  0  0
  139.1170   73.4150  222.0380 N   0  0  0  0  0  0  0  0  0  0  0  0
  138.7910   71.9970  221.9950 C   0  0  0  0  0  0  0  0  0  0  0  0
  139.7130   71.2570  222.8630 C   0  0  0  0  0  0  0  0  0  0  0  0
  140.9550   71.3190  222.6800 O   0  0  0  0  0  0  0  0  0  0  0  0
  139.2590   70.4460  223.9340 N   0  0  0  0  0  0  0  0  0  0  0  0
  137.8670   70.3870  224.3870 C   0  0  0  0  0  0  0  0  0  0  0  0
  137.7270   69.0820  225.1470 C   0  0  0  0  0  0  0  0  0  0  0  0
  139.0570   68.4220  224.9620 C   0  0  0  0  0  0  0  0  0  0  0  0
  140.0510   69.5370  224.7730 C   0  0  2  0  0  0  0  0  0  0  0  0
  140.4720   70.1870  226.0220 C   0  0  0  0  0  0  0  0  0  0  0  0
  140.6410   69.5470  227.2260 C   0  0  0  0  0  0  0  0  0  0  0  0
  141.0380   70.1930  228.3810 C   0  0  0  0  0  0  0  0  0  0  0  0
  141.2720   71.5460  228.2980 C   0  0  0  0  0  0  0  0  0  0  0  0
  141.1020   72.1950  227.0840 C   0  0  0  0  0  0  0  0  0  0  0  0
  140.7130   71.5110  225.9930 N   0  0  0  0  0  0  0  0  0  0  0  0
  140.5350   75.3230  221.3180 C   0  0  0  0  0  0  0  0  0  0  0  0
  141.4960   75.8390  220.4590 C   0  0  0  0  0  0  0  0  0  0  0  0
  141.8590   77.1560  220.4350 C   0  0  0  0  0  0  0  0  0  0  0  0
  141.2430   78.0230  221.3060 C   0  0  0  0  0  0  0  0  0  0  0  0
  141.5940   79.3590  221.3000 C   0  0  0  0  0  0  0  0  0  0  0  0
  140.9420   80.1900  222.2010 C   0  0  0  0  0  0  0  0  0  0  0  0
  141.4280   82.0360  222.1910 Br  0  0  0  0  0  0  0  0  0  0  0  0
  139.9820   79.7170  223.0700 C   0  0  0  0  0  0  0  0  0  0  0  0
  139.6490   78.3660  223.0540 C   0  0  0  0  0  0  0  0  0  0  0  0
  140.2860   77.5040  222.1610 C   0  0  0  0  0  0  0  0  0  0  0  0
  139.9490   76.1910  222.1580 N   0  0  0  0  0  0  0  0  0  0  0  0
  138.5850   74.1050  222.6060 H   0  0  0  0  0  0  0  0  0  0  0  0
  137.7587   71.8473  222.3443 H   0  0  0  0  0  0  0  0  0  0  0  0
  138.8854   71.6301  220.9623 H   0  0  0  0  0  0  0  0  0  0  0  0
  137.6437   71.2387  225.0464 H   0  0  0  0  0  0  0  0  0  0  0  0
  137.1664   70.4361  223.5404 H   0  0  0  0  0  0  0  0  0  0  0  0
  137.5256   69.2677  226.2123 H   0  0  0  0  0  0  0  0  0  0  0  0
  136.8903   68.4654  224.7867 H   0  0  0  0  0  0  0  0  0  0  0  0
  139.3150   67.8265  225.8502 H   0  0  0  0  0  0  0  0  0  0  0  0
  139.0508   67.7375  224.1009 H   0  0  0  0  0  0  0  0  0  0  0  0
  141.0086   69.2007  224.3490 H   0  0  0  0  0  0  0  0  0  0  0  0
  140.4505   68.4646  227.2728 H   0  0  0  0  0  0  0  0  0  0  0  0
  141.1619   69.6477  229.3282 H   0  0  0  0  0  0  0  0  0  0  0  0
  141.5915   72.1089  229.1875 H   0  0  0  0  0  0  0  0  0  0  0  0
  141.2867   73.2771  227.0129 H   0  0  0  0  0  0  0  0  0  0  0  0
  141.9922   75.1500  219.7597 H   0  0  0  0  0  0  0  0  0  0  0  0
  142.6272   77.5146  219.7341 H   0  0  0  0  0  0  0  0  0  0  0  0
  142.3577   79.7480  220.6105 H   0  0  0  0  0  0  0  0  0  0  0  0
  139.4829   80.4024  223.7708 H   0  0  0  0  0  0  0  0  0  0  0  0
  138.8850   77.9785  223.7441 H   0  0  0  0  0  0  0  0  0  0  0  0
  1  2  2  0
  2  3  1  0
  3  4  1  0
  4  5  1  0
  5  6  2  0
  5  7  1  0
  7  8  1  0
  8  9  1  0
  9 10  1  0
 10 11  1  0
 11 12  1  0
 12 13  2  0
 13 14  1  0
 14 15  2  0
 15 16  1  0
 16 17  2  0
  2 18  1  0
 18 19  2  0
 19 20  1  0
 20 21  2  0
 21 22  1  0
 22 23  2  0
 23 24  1  0
 23 25  1  0
 25 26  2  0
 26 27  1  0
 27 28  2  0
 11  7  1  0
 17 12  1  0
 28 18  1  0
 27 21  1  0
  3 29  1  0
  4 30  1  0
  4 31  1  0
  8 32  1  0
  8 33  1  0
  9 34  1  0
  9 35  1  0
 10 36  1  0
 10 37  1  0
 11 38  1  6
 13 39  1  0
 14 40  1  0
 15 41  1  0
 16 42  1  0
 19 43  1  0
 20 44  1  0
 22 45  1  0
 25 46  1  0
 26 47  1  0
M  END
>  <smiles>  (48) 
O=C(NCC(=O)N1CCCC1c1ccccn1)c1ccc2cc(Br)ccc2n1

>  <score_type>  (48) 
oracle

>  <origin>  (48) 
autodockgpu

>  <m_score__min__energy>  (48) 
-8.8000000000000007

>  <m_primary>  (48) 
energy

>  <rmsd>  (48) 
9.237181845537389

>  <m_score__min__rmsd>  (48) 
9.237181845537389

>  <meeko>  (48) 
{"free_energy": -8.25, "intermolecular_energy": -9.74, "internal_energy": -1.54, "cluster_size": 10, "cluster_id": 2, "rank_in_cluster": 8}

>  <energy>  (48) 
-6.39

>  <cluster_rmsd>  (48) 
0.0

>  <cluster>  (48) 
7

$$$$

     RDKit          3D

 47 50  0  0  0  0  0  0  0  0999 V2000
  140.6860   72.6730  220.8700 O   0  0  0  0  0  0  0  0  0  0  0  0
  139.9880   72.8860  221.9150 C   0  0  0  0  0  0  0  0  0  0  0  0
  139.1530   74.0330  222.0170 N   0  0  0  0  0  0  0  0  0  0  0  0
  139.0960   74.9740  220.9090 C   0  0  0  0  0  0  0  0  0  0  0  0
  139.9690   76.1180  221.1920 C   0  0  0  0  0  0  0  0  0  0  0  0
  141.2180   75.9820  221.2100 O   0  0  0  0  0  0  0  0  0  0  0  0
  139.4580   77.4140  221.4570 N   0  0  0  0  0  0  0  0  0  0  0  0
  138.9020   78.3040  220.4340 C   0  0  0  0  0  0  0  0  0  0  0  0
  138.0330   79.3040  221.1740 C   0  0  0  0  0  0  0  0  0  0  0  0
  138.0670   78.8200  222.5890 C   0  0  0  0  0  0  0  0  0  0  0  0
  139.3820   78.1030  222.7520 C   0  0  2  0  0  0  0  0  0  0  0  0
  140.5320   78.9930  222.9580 C   0  0  0  0  0  0  0  0  0  0  0  0
  141.8280   78.7010  222.6070 C   0  0  0  0  0  0  0  0  0  0  0  0
  142.8850   79.5650  222.8170 C   0  0  0  0  0  0  0  0  0  0  0  0
  142.6040   80.7750  223.4070 C   0  0  0  0  0  0  0  0  0  0  0  0
  141.2960   81.0730  223.7630 C   0  0  0  0  0  0  0  0  0  0  0  0
  140.3080   80.1900  223.5330 N   0  0  0  0  0  0  0  0  0  0  0  0
  140.0440   71.9450  223.0260 C   0  0  0  0  0  0  0  0  0  0  0  0
  139.5750   70.6500  222.8570 C   0  0  0  0  0  0  0  0  0  0  0  0
  139.5890   69.7050  223.8450 C   0  0  0  0  0  0  0  0  0  0  0  0
  140.0950   70.0500  225.0750 C   0  0  0  0  0  0  0  0  0  0  0  0
  140.1200   69.1120  226.0890 C   0  0  0  0  0  0  0  0  0  0  0  0
  140.6410   69.5130  227.3120 C   0  0  0  0  0  0  0  0  0  0  0  0
  140.6750   68.2160  228.7110 Br  0  0  0  0  0  0  0  0  0  0  0  0
  141.1170   70.7900  227.5200 C   0  0  0  0  0  0  0  0  0  0  0  0
  141.0790   71.7140  226.4810 C   0  0  0  0  0  0  0  0  0  0  0  0
  140.5620   71.3430  225.2400 C   0  0  0  0  0  0  0  0  0  0  0  0
  140.5320   72.2560  224.2380 N   0  0  0  0  0  0  0  0  0  0  0  0
  138.6080   74.1520  222.8950 H   0  0  0  0  0  0  0  0  0  0  0  0
  139.4319   74.4759  219.9876 H   0  0  0  0  0  0  0  0  0  0  0  0
  138.0617   75.3258  220.7803 H   0  0  0  0  0  0  0  0  0  0  0  0
  139.7109   78.8233  219.8991 H   0  0  0  0  0  0  0  0  0  0  0  0
  138.3221   77.7437  219.6858 H   0  0  0  0  0  0  0  0  0  0  0  0
  138.4491   80.3193  221.0961 H   0  0  0  0  0  0  0  0  0  0  0  0
  137.0126   79.3664  220.7680 H   0  0  0  0  0  0  0  0  0  0  0  0
  138.0063   79.6697  223.2850 H   0  0  0  0  0  0  0  0  0  0  0  0
  137.2171   78.1570  222.8082 H   0  0  0  0  0  0  0  0  0  0  0  0
  139.4220   77.4599  223.6435 H   0  0  0  0  0  0  0  0  0  0  0  0
  142.0343   77.7293  222.1345 H   0  0  0  0  0  0  0  0  0  0  0  0
  143.9106   79.2960  222.5240 H   0  0  0  0  0  0  0  0  0  0  0  0
  143.4091   81.5006  223.5952 H   0  0  0  0  0  0  0  0  0  0  0  0
  141.0657   82.0386  224.2368 H   0  0  0  0  0  0  0  0  0  0  0  0
  139.1696   70.3682  221.8740 H   0  0  0  0  0  0  0  0  0  0  0  0
  139.2039   68.6915  223.6594 H   0  0  0  0  0  0  0  0  0  0  0  0
  139.7430   68.0903  225.9340 H   0  0  0  0  0  0  0  0  0  0  0  0
  141.5241   71.0763  228.5010 H   0  0  0  0  0  0  0  0  0  0  0  0
  141.4560   72.7354  226.6379 H   0  0  0  0  0  0  0  0  0  0  0  0
  1  2  2  0
  2  3  1  0
  3  4  1  0
  4  5  1  0
  5  6  2  0
  5  7  1  0
  7  8  1  0
  8  9  1  0
  9 10  1  0
 10 11  1  0
 11 12  1  0
 12 13  2  0
 13 14  1  0
 14 15  2  0
 15 16  1  0
 16 17  2  0
  2 18  1  0
 18 19  2  0
 19 20  1  0
 20 21  2  0
 21 22  1  0
 22 23  2  0
 23 24  1  0
 23 25  1  0
 25 26  2  0
 26 27  1  0
 27 28  2  0
 11  7  1  0
 17 12  1  0
 28 18  1  0
 27 21  1  0
  3 29  1  0
  4 30  1  0
  4 31  1  0
  8 32  1  0
  8 33  1  0
  9 34  1  0
  9 35  1  0
 10 36  1  0
 10 37  1  0
 11 38  1  1
 13 39  1  0
 14 40  1  0
 15 41  1  0
 16 42  1  0
 19 43  1  0
 20 44  1  0
 22 45  1  0
 25 46  1  0
 26 47  1  0
M  END
>  <smiles>  (49) 
O=C(NCC(=O)N1CCCC1c1ccccn1)c1ccc2cc(Br)ccc2n1

>  <score_type>  (49) 
oracle

>  <origin>  (49) 
autodockgpu

>  <m_score__min__energy>  (49) 
-8.8000000000000007

>  <m_primary>  (49) 
energy

>  <rmsd>  (49) 
3.1155208298567376

>  <m_score__min__rmsd>  (49) 
3.1155208298567376

>  <meeko>  (49) 
{"free_energy": -8.44, "intermolecular_energy": -9.93, "internal_energy": -1.29, "cluster_size": 25, "cluster_id": 1, "rank_in_cluster": 15}

>  <energy>  (49) 
-6.25

>  <cluster_rmsd>  (49) 
0.6

>  <cluster>  (49) 
7

$$$$

     RDKit          3D

 47 50  0  0  0  0  0  0  0  0999 V2000
  142.1890   73.1670  220.6630 O   0  0  0  0  0  0  0  0  0  0  0  0
  141.4310   73.8700  221.4080 C   0  0  0  0  0  0  0  0  0  0  0  0
  140.5430   73.2570  222.3350 N   0  0  0  0  0  0  0  0  0  0  0  0
  140.5020   71.8050  222.4300 C   0  0  0  0  0  0  0  0  0  0  0  0
  139.1130   71.3650  222.6020 C   0  0  0  0  0  0  0  0  0  0  0  0
  138.2320   71.6790  221.7630 O   0  0  0  0  0  0  0  0  0  0  0  0
  138.7000   70.5770  223.7060 N   0  0  0  0  0  0  0  0  0  0  0  0
  137.3350   70.5590  224.2400 C   0  0  0  0  0  0  0  0  0  0  0  0
  137.2060   69.2650  225.0200 C   0  0  0  0  0  0  0  0  0  0  0  0
  138.5050   68.5680  224.7650 C   0  0  0  0  0  0  0  0  0  0  0  0
  139.5160   69.6550  224.5080 C   0  0  2  0  0  0  0  0  0  0  0  0
  140.0250   70.3040  225.7230 C   0  0  0  0  0  0  0  0  0  0  0  0
  139.8450   69.8360  227.0020 C   0  0  0  0  0  0  0  0  0  0  0  0
  140.3390   70.4760  228.1230 C   0  0  0  0  0  0  0  0  0  0  0  0
  141.0460   71.6390  227.9250 C   0  0  0  0  0  0  0  0  0  0  0  0
  141.2290   72.1150  226.6340 C   0  0  0  0  0  0  0  0  0  0  0  0
  140.7230   71.4470  225.5820 N   0  0  0  0  0  0  0  0  0  0  0  0
  141.4710   75.3230  221.3150 C   0  0  0  0  0  0  0  0  0  0  0  0
  142.0730   75.9280  220.2210 C   0  0  0  0  0  0  0  0  0  0  0  0
  142.1540   77.2820  220.0540 C   0  0  0  0  0  0  0  0  0  0  0  0
  141.6110   78.0950  221.0200 C   0  0  0  0  0  0  0  0  0  0  0  0
  141.6800   79.4670  220.8730 C   0  0  0  0  0  0  0  0  0  0  0  0
  141.1160   80.2420  221.8770 C   0  0  0  0  0  0  0  0  0  0  0  0
  141.2130   82.1370  221.6730 Br  0  0  0  0  0  0  0  0  0  0  0  0
  140.5080   79.6810  222.9800 C   0  0  0  0  0  0  0  0  0  0  0  0
  140.4530   78.2950  223.1010 C   0  0  0  0  0  0  0  0  0  0  0  0
  141.0100   77.4890  222.1090 C   0  0  0  0  0  0  0  0  0  0  0  0
  140.9480   76.1410  222.2430 N   0  0  0  0  0  0  0  0  0  0  0  0
  139.9500   73.8830  222.9150 H   0  0  0  0  0  0  0  0  0  0  0  0
  140.9145   71.3656  221.5098 H   0  0  0  0  0  0  0  0  0  0  0  0
  141.1000   71.4771  223.2931 H   0  0  0  0  0  0  0  0  0  0  0  0
  137.1728   71.4220  224.9025 H   0  0  0  0  0  0  0  0  0  0  0  0
  136.5876   70.6195  223.4352 H   0  0  0  0  0  0  0  0  0  0  0  0
  137.0721   69.4653  226.0933 H   0  0  0  0  0  0  0  0  0  0  0  0
  136.3340   68.6678  224.7150 H   0  0  0  0  0  0  0  0  0  0  0  0
  138.7982   67.9730  225.6425 H   0  0  0  0  0  0  0  0  0  0  0  0
  138.4309   67.8769  223.9124 H   0  0  0  0  0  0  0  0  0  0  0  0
  140.4389   69.2900  224.0337 H   0  0  0  0  0  0  0  0  0  0  0  0
  139.2783   68.9035  227.1412 H   0  0  0  0  0  0  0  0  0  0  0  0
  140.1734   70.0716  229.1325 H   0  0  0  0  0  0  0  0  0  0  0  0
  141.4630   72.1874  228.7826 H   0  0  0  0  0  0  0  0  0  0  0  0
  141.7921   73.0456  226.4701 H   0  0  0  0  0  0  0  0  0  0  0  0
  142.5093   75.2819  219.4450 H   0  0  0  0  0  0  0  0  0  0  0  0
  142.6426   77.7113  219.1669 H   0  0  0  0  0  0  0  0  0  0  0  0
  142.1617   79.9260  219.9970 H   0  0  0  0  0  0  0  0  0  0  0  0
  140.0699   80.3233  223.7582 H   0  0  0  0  0  0  0  0  0  0  0  0
  139.9712   77.8369  223.9773 H   0  0  0  0  0  0  0  0  0  0  0  0
  1  2  2  0
  2  3  1  0
  3  4  1  0
  4  5  1  0
  5  6  2  0
  5  7  1  0
  7  8  1  0
  8  9  1  0
  9 10  1  0
 10 11  1  0
 11 12  1  0
 12 13  2  0
 13 14  1  0
 14 15  2  0
 15 16  1  0
 16 17  2  0
  2 18  1  0
 18 19  2  0
 19 20  1  0
 20 21  2  0
 21 22  1  0
 22 23  2  0
 23 24  1  0
 23 25  1  0
 25 26  2  0
 26 27  1  0
 27 28  2  0
 11  7  1  0
 17 12  1  0
 28 18  1  0
 27 21  1  0
  3 29  1  0
  4 30  1  0
  4 31  1  0
  8 32  1  0
  8 33  1  0
  9 34  1  0
  9 35  1  0
 10 36  1  0
 10 37  1  0
 11 38  1  6
 13 39  1  0
 14 40  1  0
 15 41  1  0
 16 42  1  0
 19 43  1  0
 20 44  1  0
 22 45  1  0
 25 46  1  0
 26 47  1  0
M  END
>  <smiles>  (50) 
O=C(NCC(=O)N1CCCC1c1ccccn1)c1ccc2cc(Br)ccc2n1

>  <score_type>  (50) 
oracle

>  <origin>  (50) 
autodockgpu

>  <m_score__min__energy>  (50) 
-8.8000000000000007

>  <m_primary>  (50) 
energy

>  <rmsd>  (50) 
9.247014959061197

>  <m_score__min__rmsd>  (50) 
9.247014959061197

>  <meeko>  (50) 
{"free_energy": -8.02, "intermolecular_energy": -9.51, "internal_energy": -1.56, "cluster_size": 10, "cluster_id": 2, "rank_in_cluster": 10}

>  <energy>  (50) 
-5.99

>  <cluster_rmsd>  (50) 
0.0

>  <cluster>  (50) 
8

$$$$

     RDKit          3D

 47 50  0  0  0  0  0  0  0  0999 V2000
  142.0570   79.2560  216.9300 O   0  0  0  0  0  0  0  0  0  0  0  0
  142.4010   78.6850  218.0200 C   0  0  0  0  0  0  0  0  0  0  0  0
  142.3070   79.3640  219.2630 N   0  0  0  0  0  0  0  0  0  0  0  0
  141.8240   80.7150  219.3440 C   0  0  0  0  0  0  0  0  0  0  0  0
  140.9700   80.9460  220.5320 C   0  0  0  0  0  0  0  0  0  0  0  0
  139.8010   81.4150  220.4290 O   0  0  0  0  0  0  0  0  0  0  0  0
  141.4660   80.6380  221.8260 N   0  0  0  0  0  0  0  0  0  0  0  0
  141.4430   81.6330  222.9090 C   0  0  0  0  0  0  0  0  0  0  0  0
  142.5010   81.1200  223.8950 C   0  0  0  0  0  0  0  0  0  0  0  0
  142.2340   79.6340  223.8100 C   0  0  0  0  0  0  0  0  0  0  0  0
  142.0400   79.4260  222.3250 C   0  0  1  0  0  0  0  0  0  0  0  0
  141.1110   78.2620  222.1370 C   0  0  0  0  0  0  0  0  0  0  0  0
  139.9100   78.1620  222.8000 C   0  0  0  0  0  0  0  0  0  0  0  0
  139.1210   77.0400  222.5520 C   0  0  0  0  0  0  0  0  0  0  0  0
  139.5870   76.0950  221.6580 C   0  0  0  0  0  0  0  0  0  0  0  0
  140.7950   76.2120  221.0020 C   0  0  0  0  0  0  0  0  0  0  0  0
  141.5400   77.3080  221.2590 N   0  0  0  0  0  0  0  0  0  0  0  0
  142.8990   77.3110  217.9840 C   0  0  0  0  0  0  0  0  0  0  0  0
  143.0030   76.6280  216.7960 C   0  0  0  0  0  0  0  0  0  0  0  0
  143.4840   75.3150  216.8070 C   0  0  0  0  0  0  0  0  0  0  0  0
  143.8490   74.7210  218.0090 C   0  0  0  0  0  0  0  0  0  0  0  0
  144.3280   73.4230  218.0540 C   0  0  0  0  0  0  0  0  0  0  0  0
  144.6830   72.8650  219.2860 C   0  0  0  0  0  0  0  0  0  0  0  0
  145.3390   71.0630  219.2690 Br  0  0  0  0  0  0  0  0  0  0  0  0
  144.5670   73.5780  220.4610 C   0  0  0  0  0  0  0  0  0  0  0  0
  144.0830   74.8680  220.3660 C   0  0  0  0  0  0  0  0  0  0  0  0
  143.7310   75.4350  219.1800 C   0  0  0  0  0  0  0  0  0  0  0  0
  143.2640   76.6920  219.1260 N   0  0  0  0  0  0  0  0  0  0  0  0
  142.6130   78.8220  220.1250 H   0  0  0  0  0  0  0  0  0  0  0  0
  142.6872   81.3950  219.3934 H   0  0  0  0  0  0  0  0  0  0  0  0
  141.2094   80.9024  218.4512 H   0  0  0  0  0  0  0  0  0  0  0  0
  141.7100   82.6309  222.5309 H   0  0  0  0  0  0  0  0  0  0  0  0
  140.4491   81.7417  223.3677 H   0  0  0  0  0  0  0  0  0  0  0  0
  143.5207   81.3716  223.5682 H   0  0  0  0  0  0  0  0  0  0  0  0
  142.4390   81.5464  224.9071 H   0  0  0  0  0  0  0  0  0  0  0  0
  143.0897   79.0534  224.1852 H   0  0  0  0  0  0  0  0  0  0  0  0
  141.3773   79.3050  224.4165 H   0  0  0  0  0  0  0  0  0  0  0  0
  142.9765   79.2063  221.7913 H   0  0  0  0  0  0  0  0  0  0  0  0
  139.5828   78.9421  223.5031 H   0  0  0  0  0  0  0  0  0  0  0  0
  138.1516   76.9101  223.0554 H   0  0  0  0  0  0  0  0  0  0  0  0
  138.9662   75.2087  221.4603 H   0  0  0  0  0  0  0  0  0  0  0  0
  141.1382   75.4413  220.2961 H   0  0  0  0  0  0  0  0  0  0  0  0
  142.7120   77.1074  215.8497 H   0  0  0  0  0  0  0  0  0  0  0  0
  143.5733   74.7532  215.8655 H   0  0  0  0  0  0  0  0  0  0  0  0
  144.4284   72.8360  217.1292 H   0  0  0  0  0  0  0  0  0  0  0  0
  144.8473   73.1390  221.4299 H   0  0  0  0  0  0  0  0  0  0  0  0
  143.9777   75.4612  221.2863 H   0  0  0  0  0  0  0  0  0  0  0  0
  1  2  2  0
  2  3  1  0
  3  4  1  0
  4  5  1  0
  5  6  2  0
  5  7  1  0
  7  8  1  0
  8  9  1  0
  9 10  1  0
 10 11  1  0
 11 12  1  0
 12 13  2  0
 13 14  1  0
 14 15  2  0
 15 16  1  0
 16 17  2  0
  2 18  1  0
 18 19  2  0
 19 20  1  0
 20 21  2  0
 21 22  1  0
 22 23  2  0
 23 24  1  0
 23 25  1  0
 25 26  2  0
 26 27  1  0
 27 28  2  0
 11  7  1  0
 17 12  1  0
 28 18  1  0
 27 21  1  0
  3 29  1  0
  4 30  1  0
  4 31  1  0
  8 32  1  0
  8 33  1  0
  9 34  1  0
  9 35  1  0
 10 36  1  0
 10 37  1  0
 11 38  1  6
 13 39  1  0
 14 40  1  0
 15 41  1  0
 16 42  1  0
 19 43  1  0
 20 44  1  0
 22 45  1  0
 25 46  1  0
 26 47  1  0
M  END
>  <smiles>  (51) 
O=C(NCC(=O)N1CCCC1c1ccccn1)c1ccc2cc(Br)ccc2n1

>  <score_type>  (51) 
oracle

>  <origin>  (51) 
autodockgpu

>  <m_score__min__energy>  (51) 
-8.7200000000000006

>  <m_primary>  (51) 
energy

>  <rmsd>  (51) 
8.032047051759735

>  <m_score__min__rmsd>  (51) 
8.032047051759735

>  <meeko>  (51) 
{"free_energy": -6.63, "intermolecular_energy": -8.12, "internal_energy": -2.97, "cluster_size": 4, "cluster_id": 9, "rank_in_cluster": 4}

>  <energy>  (51) 
-8.72

>  <cluster_rmsd>  (51) 
0.0

>  <cluster>  (51) 
1

$$$$

     RDKit          3D

 47 50  0  0  0  0  0  0  0  0999 V2000
  133.6930   69.2450  226.4660 O   0  0  0  0  0  0  0  0  0  0  0  0
  134.2270   70.3490  226.1100 C   0  0  0  0  0  0  0  0  0  0  0  0
  135.4260   70.3700  225.3500 N   0  0  0  0  0  0  0  0  0  0  0  0
  136.0840   69.1550  224.9550 C   0  0  0  0  0  0  0  0  0  0  0  0
  136.8260   69.2950  223.6810 C   0  0  0  0  0  0  0  0  0  0  0  0
  136.5110   68.6330  222.6530 O   0  0  0  0  0  0  0  0  0  0  0  0
  137.9230   70.1930  223.6010 N   0  0  0  0  0  0  0  0  0  0  0  0
  137.7320   71.5960  223.1990 C   0  0  0  0  0  0  0  0  0  0  0  0
  139.1290   72.0310  222.7330 C   0  0  0  0  0  0  0  0  0  0  0  0
  139.9780   71.3270  223.7670 C   0  0  0  0  0  0  0  0  0  0  0  0
  139.3130   69.9730  223.8620 C   0  0  1  0  0  0  0  0  0  0  0  0
  139.5320   69.4450  225.2500 C   0  0  0  0  0  0  0  0  0  0  0  0
  139.4440   68.1050  225.5520 C   0  0  0  0  0  0  0  0  0  0  0  0
  139.6660   67.7200  226.8730 C   0  0  0  0  0  0  0  0  0  0  0  0
  139.9610   68.7000  227.8020 C   0  0  0  0  0  0  0  0  0  0  0  0
  140.0440   70.0400  227.4810 C   0  0  0  0  0  0  0  0  0  0  0  0
  139.8250   70.3860  226.1950 N   0  0  0  0  0  0  0  0  0  0  0  0
  133.5910   71.6090  226.4900 C   0  0  0  0  0  0  0  0  0  0  0  0
  132.4090   71.6220  227.1910 C   0  0  0  0  0  0  0  0  0  0  0  0
  131.8360   72.8500  227.5340 C   0  0  0  0  0  0  0  0  0  0  0  0
  132.4620   74.0340  227.1670 C   0  0  0  0  0  0  0  0  0  0  0  0
  131.9200   75.2660  227.4910 C   0  0  0  0  0  0  0  0  0  0  0  0
  132.5850   76.4320  227.1010 C   0  0  0  0  0  0  0  0  0  0  0  0
  131.7740   78.1010  227.5870 Br  0  0  0  0  0  0  0  0  0  0  0  0
  133.7710   76.3850  226.3980 C   0  0  0  0  0  0  0  0  0  0  0  0
  134.2720   75.1350  226.0970 C   0  0  0  0  0  0  0  0  0  0  0  0
  133.6450   73.9840  226.4650 C   0  0  0  0  0  0  0  0  0  0  0  0
  134.1620   72.7850  226.1550 N   0  0  0  0  0  0  0  0  0  0  0  0
  135.8090   71.3290  225.0930 H   0  0  0  0  0  0  0  0  0  0  0  0
  136.7927   68.8657  225.7450 H   0  0  0  0  0  0  0  0  0  0  0  0
  135.3076   68.3903  224.8050 H   0  0  0  0  0  0  0  0  0  0  0  0
  137.0025   71.6740  222.3794 H   0  0  0  0  0  0  0  0  0  0  0  0
  137.3376   72.2237  224.0116 H   0  0  0  0  0  0  0  0  0  0  0  0
  139.3486   71.6779  221.7146 H   0  0  0  0  0  0  0  0  0  0  0  0
  139.2800   73.1188  222.6704 H   0  0  0  0  0  0  0  0  0  0  0  0
  141.0213   71.2357  223.4306 H   0  0  0  0  0  0  0  0  0  0  0  0
  140.0330   71.8591  224.7281 H   0  0  0  0  0  0  0  0  0  0  0  0
  139.7177   69.2402  223.1484 H   0  0  0  0  0  0  0  0  0  0  0  0
  139.2063   67.3623  224.7762 H   0  0  0  0  0  0  0  0  0  0  0  0
  139.6079   66.6622  227.1690 H   0  0  0  0  0  0  0  0  0  0  0  0
  140.1377   68.3983  228.8449 H   0  0  0  0  0  0  0  0  0  0  0  0
  140.2796   70.7966  228.2439 H   0  0  0  0  0  0  0  0  0  0  0  0
  131.9206   70.6791  227.4782 H   0  0  0  0  0  0  0  0  0  0  0  0
  130.8898   72.8785  228.0943 H   0  0  0  0  0  0  0  0  0  0  0  0
  130.9747   75.3268  228.0502 H   0  0  0  0  0  0  0  0  0  0  0  0
  134.2939   77.3028  226.0911 H   0  0  0  0  0  0  0  0  0  0  0  0
  135.2163   75.0658  225.5370 H   0  0  0  0  0  0  0  0  0  0  0  0
  1  2  2  0
  2  3  1  0
  3  4  1  0
  4  5  1  0
  5  6  2  0
  5  7  1  0
  7  8  1  0
  8  9  1  0
  9 10  1  0
 10 11  1  0
 11 12  1  0
 12 13  2  0
 13 14  1  0
 14 15  2  0
 15 16  1  0
 16 17  2  0
  2 18  1  0
 18 19  2  0
 19 20  1  0
 20 21  2  0
 21 22  1  0
 22 23  2  0
 23 24  1  0
 23 25  1  0
 25 26  2  0
 26 27  1  0
 27 28  2  0
 11  7  1  0
 17 12  1  0
 28 18  1  0
 27 21  1  0
  3 29  1  0
  4 30  1  0
  4 31  1  0
  8 32  1  0
  8 33  1  0
  9 34  1  0
  9 35  1  0
 10 36  1  0
 10 37  1  0
 11 38  1  6
 13 39  1  0
 14 40  1  0
 15 41  1  0
 16 42  1  0
 19 43  1  0
 20 44  1  0
 22 45  1  0
 25 46  1  0
 26 47  1  0
M  END
>  <smiles>  (52) 
O=C(NCC(=O)N1CCCC1c1ccccn1)c1ccc2cc(Br)ccc2n1

>  <score_type>  (52) 
oracle

>  <origin>  (52) 
autodockgpu

>  <m_score__min__energy>  (52) 
-8.7200000000000006

>  <m_primary>  (52) 
energy

>  <rmsd>  (52) 
9.162093892456204

>  <m_score__min__rmsd>  (52) 
9.162093892456204

>  <meeko>  (52) 
{"free_energy": -7.8, "intermolecular_energy": -9.3, "internal_energy": -1.77, "cluster_size": 9, "cluster_id": 1, "rank_in_cluster": 9}

>  <energy>  (52) 
-8.69

>  <cluster_rmsd>  (52) 
0.08

>  <cluster>  (52) 
1

$$$$

     RDKit          3D

 47 50  0  0  0  0  0  0  0  0999 V2000
  134.1260   69.2570  226.4570 O   0  0  0  0  0  0  0  0  0  0  0  0
  134.4160   70.3860  225.9350 C   0  0  0  0  0  0  0  0  0  0  0  0
  135.4000   70.4890  224.9170 N   0  0  0  0  0  0  0  0  0  0  0  0
  136.1050   69.3330  224.4360 C   0  0  0  0  0  0  0  0  0  0  0  0
  137.5350   69.3340  224.8210 C   0  0  0  0  0  0  0  0  0  0  0  0
  138.0030   68.4950  225.6410 O   0  0  0  0  0  0  0  0  0  0  0  0
  138.4130   70.3000  224.2620 N   0  0  0  0  0  0  0  0  0  0  0  0
  137.9030   71.4160  223.4510 C   0  0  0  0  0  0  0  0  0  0  0  0
  139.1270   71.8630  222.6400 C   0  0  0  0  0  0  0  0  0  0  0  0
  140.2030   71.7170  223.6920 C   0  0  0  0  0  0  0  0  0  0  0  0
  139.8390   70.4030  224.3450 C   0  0  1  0  0  0  0  0  0  0  0  0
  140.3010   70.4500  225.7720 C   0  0  0  0  0  0  0  0  0  0  0  0
  140.5880   71.6320  226.4170 C   0  0  0  0  0  0  0  0  0  0  0  0
  141.0090   71.5640  227.7430 C   0  0  0  0  0  0  0  0  0  0  0  0
  141.1150   70.3190  228.3350 C   0  0  0  0  0  0  0  0  0  0  0  0
  140.8240   69.1440  227.6730 C   0  0  0  0  0  0  0  0  0  0  0  0
  140.4170   69.2380  226.3900 N   0  0  0  0  0  0  0  0  0  0  0  0
  133.7240   71.5880  226.3950 C   0  0  0  0  0  0  0  0  0  0  0  0
  132.5850   71.5010  227.1580 C   0  0  0  0  0  0  0  0  0  0  0  0
  131.9550   72.6760  227.5770 C   0  0  0  0  0  0  0  0  0  0  0  0
  132.4830   73.9100  227.2200 C   0  0  0  0  0  0  0  0  0  0  0  0
  131.8820   75.0920  227.6170 C   0  0  0  0  0  0  0  0  0  0  0  0
  132.4490   76.3120  227.2340 C   0  0  0  0  0  0  0  0  0  0  0  0
  131.5610   77.9070  227.8230 Br  0  0  0  0  0  0  0  0  0  0  0  0
  133.5940   76.3660  226.4670 C   0  0  0  0  0  0  0  0  0  0  0  0
  134.1560   75.1620  226.0940 C   0  0  0  0  0  0  0  0  0  0  0  0
  133.6250   73.9610  226.4540 C   0  0  0  0  0  0  0  0  0  0  0  0
  134.1990   72.8100  226.0730 N   0  0  0  0  0  0  0  0  0  0  0  0
  135.5860   71.4640  224.5330 H   0  0  0  0  0  0  0  0  0  0  0  0
  135.6293   68.4325  224.8518 H   0  0  0  0  0  0  0  0  0  0  0  0
  136.0569   69.3482  223.3372 H   0  0  0  0  0  0  0  0  0  0  0  0
  137.0931   71.0804  222.7866 H   0  0  0  0  0  0  0  0  0  0  0  0
  137.4753   72.2260  224.0601 H   0  0  0  0  0  0  0  0  0  0  0  0
  139.3076   71.2056  221.7767 H   0  0  0  0  0  0  0  0  0  0  0  0
  139.0473   72.8650  222.1932 H   0  0  0  0  0  0  0  0  0  0  0  0
  141.2028   71.6715  223.2356 H   0  0  0  0  0  0  0  0  0  0  0  0
  140.2482   72.5611  224.3959 H   0  0  0  0  0  0  0  0  0  0  0  0
  140.3081   69.5336  223.8613 H   0  0  0  0  0  0  0  0  0  0  0  0
  140.4881   72.5988  225.9019 H   0  0  0  0  0  0  0  0  0  0  0  0
  141.2511   72.4780  228.3052 H   0  0  0  0  0  0  0  0  0  0  0  0
  141.4467   70.2627  229.3823 H   0  0  0  0  0  0  0  0  0  0  0  0
  140.9201   68.1683  228.1719 H   0  0  0  0  0  0  0  0  0  0  0  0
  132.1741   70.5191  227.4356 H   0  0  0  0  0  0  0  0  0  0  0  0
  131.0422   72.6236  228.1887 H   0  0  0  0  0  0  0  0  0  0  0  0
  130.9674   75.0721  228.2278 H   0  0  0  0  0  0  0  0  0  0  0  0
  134.0393   77.3258  226.1660 H   0  0  0  0  0  0  0  0  0  0  0  0
  135.0695   75.1730  225.4813 H   0  0  0  0  0  0  0  0  0  0  0  0
  1  2  2  0
  2  3  1  0
  3  4  1  0
  4  5  1  0
  5  6  2  0
  5  7  1  0
  7  8  1  0
  8  9  1  0
  9 10  1  0
 10 11  1  0
 11 12  1  0
 12 13  2  0
 13 14  1  0
 14 15  2  0
 15 16  1  0
 16 17  2  0
  2 18  1  0
 18 19  2  0
 19 20  1  0
 20 21  2  0
 21 22  1  0
 22 23  2  0
 23 24  1  0
 23 25  1  0
 25 26  2  0
 26 27  1  0
 27 28  2  0
 11  7  1  0
 17 12  1  0
 28 18  1  0
 27 21  1  0
  3 29  1  0
  4 30  1  0
  4 31  1  0
  8 32  1  0
  8 33  1  0
  9 34  1  0
  9 35  1  0
 10 36  1  0
 10 37  1  0
 11 38  1  6
 13 39  1  0
 14 40  1  0
 15 41  1  0
 16 42  1  0
 19 43  1  0
 20 44  1  0
 22 45  1  0
 25 46  1  0
 26 47  1  0
M  END
>  <smiles>  (53) 
O=C(NCC(=O)N1CCCC1c1ccccn1)c1ccc2cc(Br)ccc2n1

>  <score_type>  (53) 
oracle

>  <origin>  (53) 
autodockgpu

>  <m_score__min__energy>  (53) 
-8.7200000000000006

>  <m_primary>  (53) 
energy

>  <rmsd>  (53) 
8.645930715966639

>  <m_score__min__rmsd>  (53) 
8.645930715966639

>  <meeko>  (53) 
{"free_energy": -8.62, "intermolecular_energy": -10.11, "internal_energy": -1.55, "cluster_size": 9, "cluster_id": 1, "rank_in_cluster": 3}

>  <energy>  (53) 
-8.62

>  <cluster_rmsd>  (53) 
0.59

>  <cluster>  (53) 
1

$$$$

     RDKit          3D

 47 50  0  0  0  0  0  0  0  0999 V2000
  138.2760   76.5760  222.9190 O   0  0  0  0  0  0  0  0  0  0  0  0
  139.2020   76.8060  222.0700 C   0  0  0  0  0  0  0  0  0  0  0  0
  139.3580   78.0930  221.4880 N   0  0  0  0  0  0  0  0  0  0  0  0
  138.4830   79.1800  221.8290 C   0  0  0  0  0  0  0  0  0  0  0  0
  139.2140   80.3670  222.3280 C   0  0  0  0  0  0  0  0  0  0  0  0
  138.6450   81.4860  222.4730 O   0  0  0  0  0  0  0  0  0  0  0  0
  140.5920   80.2590  222.6530 N   0  0  0  0  0  0  0  0  0  0  0  0
  141.0380   79.5180  223.8430 C   0  0  0  0  0  0  0  0  0  0  0  0
  142.4410   80.0800  224.1140 C   0  0  0  0  0  0  0  0  0  0  0  0
  142.9440   80.2150  222.6940 C   0  0  0  0  0  0  0  0  0  0  0  0
  141.7400   80.7840  221.9790 C   0  0  1  0  0  0  0  0  0  0  0  0
  141.7910   80.3290  220.5500 C   0  0  0  0  0  0  0  0  0  0  0  0
  141.7920   81.2110  219.4940 C   0  0  0  0  0  0  0  0  0  0  0  0
  141.8420   80.6830  218.2050 C   0  0  0  0  0  0  0  0  0  0  0  0
  141.8880   79.3090  218.0600 C   0  0  0  0  0  0  0  0  0  0  0  0
  141.8870   78.4390  219.1310 C   0  0  0  0  0  0  0  0  0  0  0  0
  141.8380   78.9760  220.3680 N   0  0  0  0  0  0  0  0  0  0  0  0
  140.1150   75.7290  221.6940 C   0  0  0  0  0  0  0  0  0  0  0  0
  139.8030   74.4160  221.9520 C   0  0  0  0  0  0  0  0  0  0  0  0
  140.7040   73.4160  221.5750 C   0  0  0  0  0  0  0  0  0  0  0  0
  141.8960   73.7580  220.9490 C   0  0  0  0  0  0  0  0  0  0  0  0
  142.8100   72.7920  220.5650 C   0  0  0  0  0  0  0  0  0  0  0  0
  143.9980   73.1830  219.9380 C   0  0  0  0  0  0  0  0  0  0  0  0
  145.2140   71.7890  219.4330 Br  0  0  0  0  0  0  0  0  0  0  0  0
  144.2810   74.5100  219.6930 C   0  0  0  0  0  0  0  0  0  0  0  0
  143.3410   75.4360  220.0950 C   0  0  0  0  0  0  0  0  0  0  0  0
  142.1770   75.0840  220.7070 C   0  0  0  0  0  0  0  0  0  0  0  0
  141.2850   76.0120  221.0850 N   0  0  0  0  0  0  0  0  0  0  0  0
  140.1520   78.2050  220.7900 H   0  0  0  0  0  0  0  0  0  0  0  0
  137.9140   79.4682  220.9328 H   0  0  0  0  0  0  0  0  0  0  0  0
  137.8216   78.8333  222.6367 H   0  0  0  0  0  0  0  0  0  0  0  0
  140.3687   79.7049  224.6957 H   0  0  0  0  0  0  0  0  0  0  0  0
  141.0358   78.4282  223.6934 H   0  0  0  0  0  0  0  0  0  0  0  0
  142.4000   81.0520  224.6274 H   0  0  0  0  0  0  0  0  0  0  0  0
  143.0695   79.4632  224.7732 H   0  0  0  0  0  0  0  0  0  0  0  0
  143.8016   80.9017  222.6387 H   0  0  0  0  0  0  0  0  0  0  0  0
  143.3064   79.2700  222.2632 H   0  0  0  0  0  0  0  0  0  0  0  0
  141.7103   81.8836  221.9877 H   0  0  0  0  0  0  0  0  0  0  0  0
  141.7546   82.2975  219.6616 H   0  0  0  0  0  0  0  0  0  0  0  0
  141.8448   81.3431  217.3251 H   0  0  0  0  0  0  0  0  0  0  0  0
  141.9272   78.8898  217.0438 H   0  0  0  0  0  0  0  0  0  0  0  0
  141.9247   77.3498  218.9822 H   0  0  0  0  0  0  0  0  0  0  0  0
  138.8568   74.1552  222.4486 H   0  0  0  0  0  0  0  0  0  0  0  0
  140.4695   72.3598  221.7737 H   0  0  0  0  0  0  0  0  0  0  0  0
  142.6043   71.7275  220.7510 H   0  0  0  0  0  0  0  0  0  0  0  0
  145.2148   74.8166  219.1990 H   0  0  0  0  0  0  0  0  0  0  0  0
  143.5401   76.5025  219.9137 H   0  0  0  0  0  0  0  0  0  0  0  0
  1  2  2  0
  2  3  1  0
  3  4  1  0
  4  5  1  0
  5  6  2  0
  5  7  1  0
  7  8  1  0
  8  9  1  0
  9 10  1  0
 10 11  1  0
 11 12  1  0
 12 13  2  0
 13 14  1  0
 14 15  2  0
 15 16  1  0
 16 17  2  0
  2 18  1  0
 18 19  2  0
 19 20  1  0
 20 21  2  0
 21 22  1  0
 22 23  2  0
 23 24  1  0
 23 25  1  0
 25 26  2  0
 26 27  1  0
 27 28  2  0
 11  7  1  0
 17 12  1  0
 28 18  1  0
 27 21  1  0
  3 29  1  0
  4 30  1  0
  4 31  1  0
  8 32  1  0
  8 33  1  0
  9 34  1  0
  9 35  1  0
 10 36  1  0
 10 37  1  0
 11 38  1  6
 13 39  1  0
 14 40  1  0
 15 41  1  0
 16 42  1  0
 19 43  1  0
 20 44  1  0
 22 45  1  0
 25 46  1  0
 26 47  1  0
M  END
>  <smiles>  (54) 
O=C(NCC(=O)N1CCCC1c1ccccn1)c1ccc2cc(Br)ccc2n1

>  <score_type>  (54) 
oracle

>  <origin>  (54) 
autodockgpu

>  <m_score__min__energy>  (54) 
-8.7200000000000006

>  <m_primary>  (54) 
energy

>  <rmsd>  (54) 
6.312459506288778

>  <m_score__min__rmsd>  (54) 
6.312459506288778

>  <meeko>  (54) 
{"free_energy": -6.35, "intermolecular_energy": -7.85, "internal_energy": -3.14, "cluster_size": 2, "cluster_id": 11, "rank_in_cluster": 2}

>  <energy>  (54) 
-8.22

>  <cluster_rmsd>  (54) 
1.15

>  <cluster>  (54) 
1

$$$$

     RDKit          3D

 47 50  0  0  0  0  0  0  0  0999 V2000
  140.0720   72.4220  220.5470 O   0  0  0  0  0  0  0  0  0  0  0  0
  139.9160   72.8110  221.7540 C   0  0  0  0  0  0  0  0  0  0  0  0
  139.7030   74.1820  222.0590 N   0  0  0  0  0  0  0  0  0  0  0  0
  139.6540   75.1800  221.0260 C   0  0  0  0  0  0  0  0  0  0  0  0
  140.8310   76.0790  221.0460 C   0  0  0  0  0  0  0  0  0  0  0  0
  141.1890   76.6820  222.0960 O   0  0  0  0  0  0  0  0  0  0  0  0
  141.5840   76.2780  219.8590 N   0  0  0  0  0  0  0  0  0  0  0  0
  141.8270   77.6280  219.3270 C   0  0  0  0  0  0  0  0  0  0  0  0
  142.1700   77.3780  217.8510 C   0  0  0  0  0  0  0  0  0  0  0  0
  143.0020   76.1230  217.9870 C   0  0  0  0  0  0  0  0  0  0  0  0
  142.2130   75.3220  218.9990 C   0  0  1  0  0  0  0  0  0  0  0  0
  143.1760   74.4550  219.7560 C   0  0  0  0  0  0  0  0  0  0  0  0
  144.4220   74.8950  220.1390 C   0  0  0  0  0  0  0  0  0  0  0  0
  145.2390   74.0090  220.8400 C   0  0  0  0  0  0  0  0  0  0  0  0
  144.7530   72.7440  221.1100 C   0  0  0  0  0  0  0  0  0  0  0  0
  143.5000   72.3190  220.7180 C   0  0  0  0  0  0  0  0  0  0  0  0
  142.7290   73.1970  220.0420 N   0  0  0  0  0  0  0  0  0  0  0  0
  139.9590   71.8290  222.8360 C   0  0  0  0  0  0  0  0  0  0  0  0
  139.5270   70.5400  222.6380 C   0  0  0  0  0  0  0  0  0  0  0  0
  139.5850   69.6330  223.7000 C   0  0  0  0  0  0  0  0  0  0  0  0
  140.0750   70.0420  224.9350 C   0  0  0  0  0  0  0  0  0  0  0  0
  140.1450   69.1690  226.0060 C   0  0  0  0  0  0  0  0  0  0  0  0
  140.6450   69.6240  227.2300 C   0  0  0  0  0  0  0  0  0  0  0  0
  140.7130   68.3570  228.6680 Br  0  0  0  0  0  0  0  0  0  0  0  0
  141.0710   70.9250  227.3960 C   0  0  0  0  0  0  0  0  0  0  0  0
  140.9810   71.7590  226.3000 C   0  0  0  0  0  0  0  0  0  0  0  0
  140.4990   71.3410  225.0970 C   0  0  0  0  0  0  0  0  0  0  0  0
  140.4260   72.1800  224.0520 N   0  0  0  0  0  0  0  0  0  0  0  0
  139.5830   74.4260  223.0870 H   0  0  0  0  0  0  0  0  0  0  0  0
  139.6132   74.6748  220.0497 H   0  0  0  0  0  0  0  0  0  0  0  0
  138.7605   75.7972  221.2012 H   0  0  0  0  0  0  0  0  0  0  0  0
  140.9279   78.2548  219.4206 H   0  0  0  0  0  0  0  0  0  0  0  0
  142.6227   78.1631  219.8661 H   0  0  0  0  0  0  0  0  0  0  0  0
  141.2680   77.2068  217.2451 H   0  0  0  0  0  0  0  0  0  0  0  0
  142.6712   78.2147  217.3424 H   0  0  0  0  0  0  0  0  0  0  0  0
  143.0778   75.5893  217.0281 H   0  0  0  0  0  0  0  0  0  0  0  0
  144.0419   76.3144  218.2904 H   0  0  0  0  0  0  0  0  0  0  0  0
  141.4532   74.6716  218.5411 H   0  0  0  0  0  0  0  0  0  0  0  0
  144.7627   75.9132  219.8998 H   0  0  0  0  0  0  0  0  0  0  0  0
  146.2446   74.3093  221.1696 H   0  0  0  0  0  0  0  0  0  0  0  0
  145.3950   72.0429  221.6634 H   0  0  0  0  0  0  0  0  0  0  0  0
  143.1433   71.3041  220.9475 H   0  0  0  0  0  0  0  0  0  0  0  0
  139.1407   70.2260  221.6571 H   0  0  0  0  0  0  0  0  0  0  0  0
  139.2434   68.5970  223.5587 H   0  0  0  0  0  0  0  0  0  0  0  0
  139.8105   68.1269  225.8957 H   0  0  0  0  0  0  0  0  0  0  0  0
  141.4649   71.2821  228.3589 H   0  0  0  0  0  0  0  0  0  0  0  0
  141.3119   72.8031  226.4024 H   0  0  0  0  0  0  0  0  0  0  0  0
  1  2  2  0
  2  3  1  0
  3  4  1  0
  4  5  1  0
  5  6  2  0
  5  7  1  0
  7  8  1  0
  8  9  1  0
  9 10  1  0
 10 11  1  0
 11 12  1  0
 12 13  2  0
 13 14  1  0
 14 15  2  0
 15 16  1  0
 16 17  2  0
  2 18  1  0
 18 19  2  0
 19 20  1  0
 20 21  2  0
 21 22  1  0
 22 23  2  0
 23 24  1  0
 23 25  1  0
 25 26  2  0
 26 27  1  0
 27 28  2  0
 11  7  1  0
 17 12  1  0
 28 18  1  0
 27 21  1  0
  3 29  1  0
  4 30  1  0
  4 31  1  0
  8 32  1  0
  8 33  1  0
  9 34  1  0
  9 35  1  0
 10 36  1  0
 10 37  1  0
 11 38  1  6
 13 39  1  0
 14 40  1  0
 15 41  1  0
 16 42  1  0
 19 43  1  0
 20 44  1  0
 22 45  1  0
 25 46  1  0
 26 47  1  0
M  END
>  <smiles>  (55) 
O=C(NCC(=O)N1CCCC1c1ccccn1)c1ccc2cc(Br)ccc2n1

>  <score_type>  (55) 
oracle

>  <origin>  (55) 
autodockgpu

>  <m_score__min__energy>  (55) 
-8.7200000000000006

>  <m_primary>  (55) 
energy

>  <rmsd>  (55) 
3.9914087496620074

>  <m_score__min__rmsd>  (55) 
3.9914087496620074

>  <meeko>  (55) 
{"free_energy": -8.02, "intermolecular_energy": -9.51, "internal_energy": -2.01, "cluster_size": 10, "cluster_id": 3, "rank_in_cluster": 10}

>  <energy>  (55) 
-8.18

>  <cluster_rmsd>  (55) 
1.28

>  <cluster>  (55) 
1

$$$$

     RDKit          3D

 47 50  0  0  0  0  0  0  0  0999 V2000
  140.1020   72.4860  220.5740 O   0  0  0  0  0  0  0  0  0  0  0  0
  139.9180   72.8770  221.7760 C   0  0  0  0  0  0  0  0  0  0  0  0
  139.6790   74.2450  222.0710 N   0  0  0  0  0  0  0  0  0  0  0  0
  139.6370   75.2390  221.0340 C   0  0  0  0  0  0  0  0  0  0  0  0
  140.9770   75.7750  220.7020 C   0  0  0  0  0  0  0  0  0  0  0  0
  142.0360   75.2040  221.0880 O   0  0  0  0  0  0  0  0  0  0  0  0
  141.0890   76.9620  219.9310 N   0  0  0  0  0  0  0  0  0  0  0  0
  140.3590   77.1190  218.6630 C   0  0  0  0  0  0  0  0  0  0  0  0
  141.1370   78.2230  217.9320 C   0  0  0  0  0  0  0  0  0  0  0  0
  141.4520   79.1330  219.0980 C   0  0  0  0  0  0  0  0  0  0  0  0
  141.8490   78.1500  220.1760 C   0  0  1  0  0  0  0  0  0  0  0  0
  141.5060   78.7550  221.5060 C   0  0  0  0  0  0  0  0  0  0  0  0
  142.4260   79.4410  222.2640 C   0  0  0  0  0  0  0  0  0  0  0  0
  142.0030   79.9640  223.4850 C   0  0  0  0  0  0  0  0  0  0  0  0
  140.6880   79.7660  223.8630 C   0  0  0  0  0  0  0  0  0  0  0  0
  139.7780   79.0750  223.0890 C   0  0  0  0  0  0  0  0  0  0  0  0
  140.2140   78.5790  221.9120 N   0  0  0  0  0  0  0  0  0  0  0  0
  139.9530   71.8990  222.8620 C   0  0  0  0  0  0  0  0  0  0  0  0
  139.4970   70.6170  222.6740 C   0  0  0  0  0  0  0  0  0  0  0  0
  139.5490   69.7140  223.7400 C   0  0  0  0  0  0  0  0  0  0  0  0
  140.0570   70.1200  224.9680 C   0  0  0  0  0  0  0  0  0  0  0  0
  140.1210   69.2510  226.0430 C   0  0  0  0  0  0  0  0  0  0  0  0
  140.6400   69.7030  227.2610 C   0  0  0  0  0  0  0  0  0  0  0  0
  140.6980   68.4420  228.7040 Br  0  0  0  0  0  0  0  0  0  0  0  0
  141.0900   70.9980  227.4170 C   0  0  0  0  0  0  0  0  0  0  0  0
  141.0050   71.8280  226.3170 C   0  0  0  0  0  0  0  0  0  0  0  0
  140.5050   71.4130  225.1200 C   0  0  0  0  0  0  0  0  0  0  0  0
  140.4370   72.2480  224.0730 N   0  0  0  0  0  0  0  0  0  0  0  0
  139.5360   74.4920  223.0960 H   0  0  0  0  0  0  0  0  0  0  0  0
  139.2051   74.7859  220.1294 H   0  0  0  0  0  0  0  0  0  0  0  0
  139.0255   76.0765  221.4009 H   0  0  0  0  0  0  0  0  0  0  0  0
  140.3695   76.1829  218.0854 H   0  0  0  0  0  0  0  0  0  0  0  0
  139.2979   77.3693  218.8091 H   0  0  0  0  0  0  0  0  0  0  0  0
  142.0505   77.8343  217.4583 H   0  0  0  0  0  0  0  0  0  0  0  0
  140.5960   78.7012  217.1022 H   0  0  0  0  0  0  0  0  0  0  0  0
  142.2798   79.8164  218.8576 H   0  0  0  0  0  0  0  0  0  0  0  0
  140.6153   79.7870  219.3848 H   0  0  0  0  0  0  0  0  0  0  0  0
  142.9236   77.9152  220.1739 H   0  0  0  0  0  0  0  0  0  0  0  0
  143.4618   79.5727  221.9181 H   0  0  0  0  0  0  0  0  0  0  0  0
  142.6979   80.5201  224.1314 H   0  0  0  0  0  0  0  0  0  0  0  0
  140.3513   80.1785  224.8256 H   0  0  0  0  0  0  0  0  0  0  0  0
  138.7380   78.9340  223.4185 H   0  0  0  0  0  0  0  0  0  0  0  0
  139.0964   70.3052  221.6981 H   0  0  0  0  0  0  0  0  0  0  0  0
  139.1882   68.6834  223.6068 H   0  0  0  0  0  0  0  0  0  0  0  0
  139.7671   68.2145  225.9408 H   0  0  0  0  0  0  0  0  0  0  0  0
  141.4981   71.3531  228.3748 H   0  0  0  0  0  0  0  0  0  0  0  0
  141.3553   72.8665  226.4111 H   0  0  0  0  0  0  0  0  0  0  0  0
  1  2  2  0
  2  3  1  0
  3  4  1  0
  4  5  1  0
  5  6  2  0
  5  7  1  0
  7  8  1  0
  8  9  1  0
  9 10  1  0
 10 11  1  0
 11 12  1  0
 12 13  2  0
 13 14  1  0
 14 15  2  0
 15 16  1  0
 16 17  2  0
  2 18  1  0
 18 19  2  0
 19 20  1  0
 20 21  2  0
 21 22  1  0
 22 23  2  0
 23 24  1  0
 23 25  1  0
 25 26  2  0
 26 27  1  0
 27 28  2  0
 11  7  1  0
 17 12  1  0
 28 18  1  0
 27 21  1  0
  3 29  1  0
  4 30  1  0
  4 31  1  0
  8 32  1  0
  8 33  1  0
  9 34  1  0
  9 35  1  0
 10 36  1  0
 10 37  1  0
 11 38  1  1
 13 39  1  0
 14 40  1  0
 15 41  1  0
 16 42  1  0
 19 43  1  0
 20 44  1  0
 22 45  1  0
 25 46  1  0
 26 47  1  0
M  END
>  <smiles>  (56) 
O=C(NCC(=O)N1CCCC1c1ccccn1)c1ccc2cc(Br)ccc2n1

>  <score_type>  (56) 
oracle

>  <origin>  (56) 
autodockgpu

>  <m_score__min__energy>  (56) 
-8.7200000000000006

>  <m_primary>  (56) 
energy

>  <rmsd>  (56) 
2.1981602693461793

>  <m_score__min__rmsd>  (56) 
2.1981602693461793

>  <meeko>  (56) 
{"free_energy": -8.14, "intermolecular_energy": -9.63, "internal_energy": -1.55, "cluster_size": 11, "cluster_id": 2, "rank_in_cluster": 9}

>  <energy>  (56) 
-8.08

>  <cluster_rmsd>  (56) 
1.36

>  <cluster>  (56) 
1

$$$$

     RDKit          3D

 47 50  0  0  0  0  0  0  0  0999 V2000
  140.0160   72.4620  220.5450 O   0  0  0  0  0  0  0  0  0  0  0  0
  139.8940   72.8510  221.7560 C   0  0  0  0  0  0  0  0  0  0  0  0
  139.7210   74.2260  222.0690 N   0  0  0  0  0  0  0  0  0  0  0  0
  139.6780   75.2280  221.0400 C   0  0  0  0  0  0  0  0  0  0  0  0
  140.7620   76.2290  221.1720 C   0  0  0  0  0  0  0  0  0  0  0  0
  140.9980   76.8120  222.2670 O   0  0  0  0  0  0  0  0  0  0  0  0
  141.5640   76.5500  220.0450 N   0  0  0  0  0  0  0  0  0  0  0  0
  141.8820   77.9460  219.7090 C   0  0  0  0  0  0  0  0  0  0  0  0
  142.2650   77.8820  218.2240 C   0  0  0  0  0  0  0  0  0  0  0  0
  143.0380   76.5820  218.2110 C   0  0  0  0  0  0  0  0  0  0  0  0
  142.1810   75.6910  219.0810 C   0  0  1  0  0  0  0  0  0  0  0  0
  143.0790   74.6840  219.7400 C   0  0  0  0  0  0  0  0  0  0  0  0
  144.3570   74.9900  220.1460 C   0  0  0  0  0  0  0  0  0  0  0  0
  145.1080   73.9820  220.7490 C   0  0  0  0  0  0  0  0  0  0  0  0
  144.5280   72.7370  220.9060 C   0  0  0  0  0  0  0  0  0  0  0  0
  143.2430   72.4480  220.4930 C   0  0  0  0  0  0  0  0  0  0  0  0
  142.5380   73.4420  219.9120 N   0  0  0  0  0  0  0  0  0  0  0  0
  139.9320   71.8650  222.8340 C   0  0  0  0  0  0  0  0  0  0  0  0
  139.4750   70.5850  222.6380 C   0  0  0  0  0  0  0  0  0  0  0  0
  139.5290   69.6730  223.6960 C   0  0  0  0  0  0  0  0  0  0  0  0
  140.0430   70.0690  224.9250 C   0  0  0  0  0  0  0  0  0  0  0  0
  140.1100   69.1910  225.9930 C   0  0  0  0  0  0  0  0  0  0  0  0
  140.6340   69.6330  227.2130 C   0  0  0  0  0  0  0  0  0  0  0  0
  140.6960   68.3600  228.6450 Br  0  0  0  0  0  0  0  0  0  0  0  0
  141.0860   70.9260  227.3770 C   0  0  0  0  0  0  0  0  0  0  0  0
  140.9970   71.7640  226.2840 C   0  0  0  0  0  0  0  0  0  0  0  0
  140.4920   71.3600  225.0860 C   0  0  0  0  0  0  0  0  0  0  0  0
  140.4210   72.2030  224.0460 N   0  0  0  0  0  0  0  0  0  0  0  0
  139.6270   74.4700  223.0990 H   0  0  0  0  0  0  0  0  0  0  0  0
  139.7732   74.7329  220.0623 H   0  0  0  0  0  0  0  0  0  0  0  0
  138.7202   75.7607  221.1343 H   0  0  0  0  0  0  0  0  0  0  0  0
  141.0074   78.5956  219.8613 H   0  0  0  0  0  0  0  0  0  0  0  0
  142.6805   78.3657  220.3385 H   0  0  0  0  0  0  0  0  0  0  0  0
  141.3782   77.8367  217.5748 H   0  0  0  0  0  0  0  0  0  0  0  0
  142.8188   78.7554  217.8491 H   0  0  0  0  0  0  0  0  0  0  0  0
  143.1241   76.1795  217.1909 H   0  0  0  0  0  0  0  0  0  0  0  0
  144.0741   76.6813  218.5668 H   0  0  0  0  0  0  0  0  0  0  0  0
  141.4101   75.1457  218.5168 H   0  0  0  0  0  0  0  0  0  0  0  0
  144.7732   75.9977  219.9996 H   0  0  0  0  0  0  0  0  0  0  0  0
  146.1359   74.1725  221.0911 H   0  0  0  0  0  0  0  0  0  0  0  0
  145.1178   71.9398  221.3821 H   0  0  0  0  0  0  0  0  0  0  0  0
  142.8101   71.4464  220.6319 H   0  0  0  0  0  0  0  0  0  0  0  0
  139.0715   70.2812  221.6608 H   0  0  0  0  0  0  0  0  0  0  0  0
  139.1655   68.6443  223.5561 H   0  0  0  0  0  0  0  0  0  0  0  0
  139.7547   68.1557  225.8838 H   0  0  0  0  0  0  0  0  0  0  0  0
  141.4987   71.2734  228.3356 H   0  0  0  0  0  0  0  0  0  0  0  0
  141.3487   72.8014  226.3850 H   0  0  0  0  0  0  0  0  0  0  0  0
  1  2  2  0
  2  3  1  0
  3  4  1  0
  4  5  1  0
  5  6  2  0
  5  7  1  0
  7  8  1  0
  8  9  1  0
  9 10  1  0
 10 11  1  0
 11 12  1  0
 12 13  2  0
 13 14  1  0
 14 15  2  0
 15 16  1  0
 16 17  2  0
  2 18  1  0
 18 19  2  0
 19 20  1  0
 20 21  2  0
 21 22  1  0
 22 23  2  0
 23 24  1  0
 23 25  1  0
 25 26  2  0
 26 27  1  0
 27 28  2  0
 11  7  1  0
 17 12  1  0
 28 18  1  0
 27 21  1  0
  3 29  1  0
  4 30  1  0
  4 31  1  0
  8 32  1  0
  8 33  1  0
  9 34  1  0
  9 35  1  0
 10 36  1  0
 10 37  1  0
 11 38  1  6
 13 39  1  0
 14 40  1  0
 15 41  1  0
 16 42  1  0
 19 43  1  0
 20 44  1  0
 22 45  1  0
 25 46  1  0
 26 47  1  0
M  END
>  <smiles>  (57) 
O=C(NCC(=O)N1CCCC1c1ccccn1)c1ccc2cc(Br)ccc2n1

>  <score_type>  (57) 
oracle

>  <origin>  (57) 
autodockgpu

>  <m_score__min__energy>  (57) 
-8.7200000000000006

>  <m_primary>  (57) 
energy

>  <rmsd>  (57) 
3.98963659514565

>  <m_score__min__rmsd>  (57) 
3.98963659514565

>  <meeko>  (57) 
{"free_energy": -8.12, "intermolecular_energy": -9.62, "internal_energy": -2.02, "cluster_size": 10, "cluster_id": 3, "rank_in_cluster": 5}

>  <energy>  (57) 
-7.96

>  <cluster_rmsd>  (57) 
1.39

>  <cluster>  (57) 
1

$$$$

     RDKit          3D

 47 50  0  0  0  0  0  0  0  0999 V2000
  139.9840   72.6730  220.5590 O   0  0  0  0  0  0  0  0  0  0  0  0
  139.8490   73.0060  221.7850 C   0  0  0  0  0  0  0  0  0  0  0  0
  139.6510   74.3620  222.1570 N   0  0  0  0  0  0  0  0  0  0  0  0
  139.5940   75.4080  221.1730 C   0  0  0  0  0  0  0  0  0  0  0  0
  140.3830   76.6000  221.5610 C   0  0  0  0  0  0  0  0  0  0  0  0
  140.7320   76.8050  222.7580 O   0  0  0  0  0  0  0  0  0  0  0  0
  140.7640   77.5440  220.5720 N   0  0  0  0  0  0  0  0  0  0  0  0
  140.0220   77.6640  219.3070 C   0  0  0  0  0  0  0  0  0  0  0  0
  141.0220   78.3500  218.3650 C   0  0  0  0  0  0  0  0  0  0  0  0
  141.6520   79.3330  219.3270 C   0  0  0  0  0  0  0  0  0  0  0  0
  141.8360   78.4930  220.5710 C   0  0  1  0  0  0  0  0  0  0  0  0
  141.7610   79.4040  221.7610 C   0  0  0  0  0  0  0  0  0  0  0  0
  142.7370   79.4340  222.7300 C   0  0  0  0  0  0  0  0  0  0  0  0
  142.5720   80.3180  223.7940 C   0  0  0  0  0  0  0  0  0  0  0  0
  141.4400   81.1120  223.8180 C   0  0  0  0  0  0  0  0  0  0  0  0
  140.4700   81.0680  222.8370 C   0  0  0  0  0  0  0  0  0  0  0  0
  140.6560   80.2040  221.8170 N   0  0  0  0  0  0  0  0  0  0  0  0
  139.9010   71.9740  222.8180 C   0  0  0  0  0  0  0  0  0  0  0  0
  139.4650   70.6960  222.5640 C   0  0  0  0  0  0  0  0  0  0  0  0
  139.5310   69.7400  223.5810 C   0  0  0  0  0  0  0  0  0  0  0  0
  140.0350   70.0880  224.8290 C   0  0  0  0  0  0  0  0  0  0  0  0
  140.1130   69.1660  225.8570 C   0  0  0  0  0  0  0  0  0  0  0  0
  140.6270   69.5620  227.0960 C   0  0  0  0  0  0  0  0  0  0  0  0
  140.7060   68.2280  228.4710 Br  0  0  0  0  0  0  0  0  0  0  0  0
  141.0570   70.8530  227.3190 C   0  0  0  0  0  0  0  0  0  0  0  0
  140.9580   71.7370  226.2640 C   0  0  0  0  0  0  0  0  0  0  0  0
  140.4620   71.3780  225.0480 C   0  0  0  0  0  0  0  0  0  0  0  0
  140.3810   72.2660  224.0450 N   0  0  0  0  0  0  0  0  0  0  0  0
  139.5480   74.5590  223.1970 H   0  0  0  0  0  0  0  0  0  0  0  0
  139.9880   75.0191  220.2225 H   0  0  0  0  0  0  0  0  0  0  0  0
  138.5434   75.7203  221.0799 H   0  0  0  0  0  0  0  0  0  0  0  0
  139.7372   76.6732  218.9233 H   0  0  0  0  0  0  0  0  0  0  0  0
  139.0822   78.2254  219.4146 H   0  0  0  0  0  0  0  0  0  0  0  0
  141.7602   77.6394  217.9648 H   0  0  0  0  0  0  0  0  0  0  0  0
  140.5785   78.8003  217.4647 H   0  0  0  0  0  0  0  0  0  0  0  0
  142.6172   79.6993  218.9472 H   0  0  0  0  0  0  0  0  0  0  0  0
  141.0478   80.2374  219.4914 H   0  0  0  0  0  0  0  0  0  0  0  0
  142.8023   77.9683  220.6013 H   0  0  0  0  0  0  0  0  0  0  0  0
  143.6197   78.7807  222.6667 H   0  0  0  0  0  0  0  0  0  0  0  0
  143.3232   80.3828  224.5949 H   0  0  0  0  0  0  0  0  0  0  0  0
  141.3065   81.8105  224.6572 H   0  0  0  0  0  0  0  0  0  0  0  0
  139.5797   81.7123  222.8847 H   0  0  0  0  0  0  0  0  0  0  0  0
  139.0692   70.4289  221.5730 H   0  0  0  0  0  0  0  0  0  0  0  0
  139.1844   68.7129  223.3942 H   0  0  0  0  0  0  0  0  0  0  0  0
  139.7740   68.1311  225.7016 H   0  0  0  0  0  0  0  0  0  0  0  0
  141.4607   71.1642  228.2938 H   0  0  0  0  0  0  0  0  0  0  0  0
  141.2935   72.7741  226.4116 H   0  0  0  0  0  0  0  0  0  0  0  0
  1  2  2  0
  2  3  1  0
  3  4  1  0
  4  5  1  0
  5  6  2  0
  5  7  1  0
  7  8  1  0
  8  9  1  0
  9 10  1  0
 10 11  1  0
 11 12  1  0
 12 13  2  0
 13 14  1  0
 14 15  2  0
 15 16  1  0
 16 17  2  0
  2 18  1  0
 18 19  2  0
 19 20  1  0
 20 21  2  0
 21 22  1  0
 22 23  2  0
 23 24  1  0
 23 25  1  0
 25 26  2  0
 26 27  1  0
 27 28  2  0
 11  7  1  0
 17 12  1  0
 28 18  1  0
 27 21  1  0
  3 29  1  0
  4 30  1  0
  4 31  1  0
  8 32  1  0
  8 33  1  0
  9 34  1  0
  9 35  1  0
 10 36  1  0
 10 37  1  0
 11 38  1  6
 13 39  1  0
 14 40  1  0
 15 41  1  0
 16 42  1  0
 19 43  1  0
 20 44  1  0
 22 45  1  0
 25 46  1  0
 26 47  1  0
M  END
>  <smiles>  (58) 
O=C(NCC(=O)N1CCCC1c1ccccn1)c1ccc2cc(Br)ccc2n1

>  <score_type>  (58) 
oracle

>  <origin>  (58) 
autodockgpu

>  <m_score__min__energy>  (58) 
-8.7200000000000006

>  <m_primary>  (58) 
energy

>  <rmsd>  (58) 
2.4811786241503277

>  <m_score__min__rmsd>  (58) 
2.4811786241503277

>  <meeko>  (58) 
{"free_energy": -8.46, "intermolecular_energy": -9.95, "internal_energy": -1.66, "cluster_size": 11, "cluster_id": 2, "rank_in_cluster": 5}

>  <energy>  (58) 
-7.91

>  <cluster_rmsd>  (58) 
1.84

>  <cluster>  (58) 
1

$$$$

     RDKit          3D

 47 50  0  0  0  0  0  0  0  0999 V2000
  142.0540   79.3580  216.9760 O   0  0  0  0  0  0  0  0  0  0  0  0
  142.3670   78.7660  218.0630 C   0  0  0  0  0  0  0  0  0  0  0  0
  142.2360   79.4210  219.3170 N   0  0  0  0  0  0  0  0  0  0  0  0
  141.7500   80.7700  219.4100 C   0  0  0  0  0  0  0  0  0  0  0  0
  140.9350   81.0010  220.6250 C   0  0  0  0  0  0  0  0  0  0  0  0
  139.7900   81.5290  220.5660 O   0  0  0  0  0  0  0  0  0  0  0  0
  141.4440   80.6230  221.8950 N   0  0  0  0  0  0  0  0  0  0  0  0
  141.4700   81.5720  223.0190 C   0  0  0  0  0  0  0  0  0  0  0  0
  142.5290   80.9860  223.9630 C   0  0  0  0  0  0  0  0  0  0  0  0
  142.2150   79.5130  223.8220 C   0  0  0  0  0  0  0  0  0  0  0  0
  141.9900   79.3740  222.3330 C   0  0  1  0  0  0  0  0  0  0  0  0
  141.0220   78.2480  222.1140 C   0  0  0  0  0  0  0  0  0  0  0  0
  139.7970   78.1950  222.7380 C   0  0  0  0  0  0  0  0  0  0  0  0
  138.9730   77.1050  222.4630 C   0  0  0  0  0  0  0  0  0  0  0  0
  139.4310   76.1420  221.5830 C   0  0  0  0  0  0  0  0  0  0  0  0
  140.6630   76.2110  220.9660 C   0  0  0  0  0  0  0  0  0  0  0  0
  141.4410   77.2780  221.2490 N   0  0  0  0  0  0  0  0  0  0  0  0
  142.8670   77.3930  218.0150 C   0  0  0  0  0  0  0  0  0  0  0  0
  142.9770   76.7220  216.8210 C   0  0  0  0  0  0  0  0  0  0  0  0
  143.4600   75.4110  216.8200 C   0  0  0  0  0  0  0  0  0  0  0  0
  143.8200   74.8040  218.0170 C   0  0  0  0  0  0  0  0  0  0  0  0
  144.3000   73.5060  218.0510 C   0  0  0  0  0  0  0  0  0  0  0  0
  144.6500   72.9360  219.2790 C   0  0  0  0  0  0  0  0  0  0  0  0
  145.3090   71.1350  219.2450 Br  0  0  0  0  0  0  0  0  0  0  0  0
  144.5270   73.6360  220.4600 C   0  0  0  0  0  0  0  0  0  0  0  0
  144.0430   74.9260  220.3770 C   0  0  0  0  0  0  0  0  0  0  0  0
  143.6950   75.5050  219.1950 C   0  0  0  0  0  0  0  0  0  0  0  0
  143.2270   76.7620  219.1520 N   0  0  0  0  0  0  0  0  0  0  0  0
  142.5180   78.8620  220.1770 H   0  0  0  0  0  0  0  0  0  0  0  0
  142.6113   81.4539  219.4286 H   0  0  0  0  0  0  0  0  0  0  0  0
  141.1052   80.9519  218.5376 H   0  0  0  0  0  0  0  0  0  0  0  0
  141.7608   82.5766  222.6780 H   0  0  0  0  0  0  0  0  0  0  0  0
  140.4880   81.6911  223.5002 H   0  0  0  0  0  0  0  0  0  0  0  0
  143.5501   81.2203  223.6277 H   0  0  0  0  0  0  0  0  0  0  0  0
  142.4977   81.3713  224.9928 H   0  0  0  0  0  0  0  0  0  0  0  0
  143.0585   78.8917  224.1574 H   0  0  0  0  0  0  0  0  0  0  0  0
  141.3592   79.1844  224.4299 H   0  0  0  0  0  0  0  0  0  0  0  0
  142.9105   79.1494  221.7741 H   0  0  0  0  0  0  0  0  0  0  0  0
  139.4782   78.9872  223.4315 H   0  0  0  0  0  0  0  0  0  0  0  0
  137.9833   77.0133  222.9342 H   0  0  0  0  0  0  0  0  0  0  0  0
  138.7828   75.2805  221.3646 H   0  0  0  0  0  0  0  0  0  0  0  0
  140.9985   75.4275  220.2707 H   0  0  0  0  0  0  0  0  0  0  0  0
  142.6886   77.2105  215.8785 H   0  0  0  0  0  0  0  0  0  0  0  0
  143.5552   74.8600  215.8727 H   0  0  0  0  0  0  0  0  0  0  0  0
  144.4051   72.9284  217.1208 H   0  0  0  0  0  0  0  0  0  0  0  0
  144.8023   73.1867  221.4256 H   0  0  0  0  0  0  0  0  0  0  0  0
  143.9341   75.5096  221.3030 H   0  0  0  0  0  0  0  0  0  0  0  0
  1  2  2  0
  2  3  1  0
  3  4  1  0
  4  5  1  0
  5  6  2  0
  5  7  1  0
  7  8  1  0
  8  9  1  0
  9 10  1  0
 10 11  1  0
 11 12  1  0
 12 13  2  0
 13 14  1  0
 14 15  2  0
 15 16  1  0
 16 17  2  0
  2 18  1  0
 18 19  2  0
 19 20  1  0
 20 21  2  0
 21 22  1  0
 22 23  2  0
 23 24  1  0
 23 25  1  0
 25 26  2  0
 26 27  1  0
 27 28  2  0
 11  7  1  0
 17 12  1  0
 28 18  1  0
 27 21  1  0
  3 29  1  0
  4 30  1  0
  4 31  1  0
  8 32  1  0
  8 33  1  0
  9 34  1  0
  9 35  1  0
 10 36  1  0
 10 37  1  0
 11 38  1  6
 13 39  1  0
 14 40  1  0
 15 41  1  0
 16 42  1  0
 19 43  1  0
 20 44  1  0
 22 45  1  0
 25 46  1  0
 26 47  1  0
M  END
>  <smiles>  (59) 
O=C(NCC(=O)N1CCCC1c1ccccn1)c1ccc2cc(Br)ccc2n1

>  <score_type>  (59) 
oracle

>  <origin>  (59) 
autodockgpu

>  <m_score__min__energy>  (59) 
-8.7200000000000006

>  <m_primary>  (59) 
energy

>  <rmsd>  (59) 
8.041318851957351

>  <m_score__min__rmsd>  (59) 
8.041318851957351

>  <meeko>  (59) 
{"free_energy": -6.69, "intermolecular_energy": -8.18, "internal_energy": -2.94, "cluster_size": 4, "cluster_id": 9, "rank_in_cluster": 1}

>  <energy>  (59) 
-7.8

>  <cluster_rmsd>  (59) 
1.05

>  <cluster>  (59) 
1

$$$$

     RDKit          3D

 47 50  0  0  0  0  0  0  0  0999 V2000
  135.7280   75.0510  221.6430 O   0  0  0  0  0  0  0  0  0  0  0  0
  136.9180   75.0040  222.1050 C   0  0  0  0  0  0  0  0  0  0  0  0
  137.5640   73.7600  222.3370 N   0  0  0  0  0  0  0  0  0  0  0  0
  136.9070   72.5120  222.0620 C   0  0  0  0  0  0  0  0  0  0  0  0
  137.8580   71.3870  221.9140 C   0  0  0  0  0  0  0  0  0  0  0  0
  137.8210   70.6120  220.9170 O   0  0  0  0  0  0  0  0  0  0  0  0
  138.8420   71.1610  222.9130 N   0  0  0  0  0  0  0  0  0  0  0  0
  138.9520   69.8610  223.5950 C   0  0  0  0  0  0  0  0  0  0  0  0
  139.7070   70.1950  224.8890 C   0  0  0  0  0  0  0  0  0  0  0  0
  140.6990   71.2050  224.3560 C   0  0  0  0  0  0  0  0  0  0  0  0
  139.8430   72.0410  223.4330 C   0  0  1  0  0  0  0  0  0  0  0  0
  140.7230   72.5740  222.3400 C   0  0  0  0  0  0  0  0  0  0  0  0
  141.5970   71.7750  221.6400 C   0  0  0  0  0  0  0  0  0  0  0  0
  142.3690   72.3700  220.6440 C   0  0  0  0  0  0  0  0  0  0  0  0
  142.2130   73.7250  220.4150 C   0  0  0  0  0  0  0  0  0  0  0  0
  141.3310   74.5120  221.1270 C   0  0  0  0  0  0  0  0  0  0  0  0
  140.5960   73.9100  222.0860 N   0  0  0  0  0  0  0  0  0  0  0  0
  137.6230   76.2490  222.3990 C   0  0  0  0  0  0  0  0  0  0  0  0
  136.9330   77.4150  222.6300 C   0  0  0  0  0  0  0  0  0  0  0  0
  137.6470   78.5840  222.9070 C   0  0  0  0  0  0  0  0  0  0  0  0
  139.0360   78.5550  222.9470 C   0  0  0  0  0  0  0  0  0  0  0  0
  139.7720   79.6960  223.2180 C   0  0  0  0  0  0  0  0  0  0  0  0
  141.1680   79.6190  223.2470 C   0  0  0  0  0  0  0  0  0  0  0  0
  142.1200   81.2400  223.6310 Br  0  0  0  0  0  0  0  0  0  0  0  0
  141.8310   78.4330  223.0120 C   0  0  0  0  0  0  0  0  0  0  0  0
  141.0540   77.3240  222.7450 C   0  0  0  0  0  0  0  0  0  0  0  0
  139.6940   77.3700  222.7100 C   0  0  0  0  0  0  0  0  0  0  0  0
  138.9710   76.2710  222.4470 N   0  0  0  0  0  0  0  0  0  0  0  0
  138.5540   73.8040  222.7230 H   0  0  0  0  0  0  0  0  0  0  0  0
  136.2201   72.2856  222.8908 H   0  0  0  0  0  0  0  0  0  0  0  0
  136.3705   72.6217  221.1080 H   0  0  0  0  0  0  0  0  0  0  0  0
  137.9567   69.4482  223.8164 H   0  0  0  0  0  0  0  0  0  0  0  0
  139.4631   69.1008  222.9860 H   0  0  0  0  0  0  0  0  0  0  0  0
  139.0432   70.6350  225.6478 H   0  0  0  0  0  0  0  0  0  0  0  0
  140.1537   69.3311  225.4028 H   0  0  0  0  0  0  0  0  0  0  0  0
  141.1221   71.8146  225.1680 H   0  0  0  0  0  0  0  0  0  0  0  0
  141.5676   70.7490  223.8585 H   0  0  0  0  0  0  0  0  0  0  0  0
  139.3674   72.8948  223.9378 H   0  0  0  0  0  0  0  0  0  0  0  0
  141.6838   70.7006  221.8594 H   0  0  0  0  0  0  0  0  0  0  0  0
  143.0842   71.7771  220.0550 H   0  0  0  0  0  0  0  0  0  0  0  0
  142.8202   74.1973  219.6287 H   0  0  0  0  0  0  0  0  0  0  0  0
  141.2308   75.5879  220.9211 H   0  0  0  0  0  0  0  0  0  0  0  0
  135.8336   77.4279  222.5973 H   0  0  0  0  0  0  0  0  0  0  0  0
  137.1103   79.5260  223.0931 H   0  0  0  0  0  0  0  0  0  0  0  0
  139.2640   80.6529  223.4085 H   0  0  0  0  0  0  0  0  0  0  0  0
  142.9291   78.3735  223.0362 H   0  0  0  0  0  0  0  0  0  0  0  0
  141.5543   76.3635  222.5526 H   0  0  0  0  0  0  0  0  0  0  0  0
  1  2  2  0
  2  3  1  0
  3  4  1  0
  4  5  1  0
  5  6  2  0
  5  7  1  0
  7  8  1  0
  8  9  1  0
  9 10  1  0
 10 11  1  0
 11 12  1  0
 12 13  2  0
 13 14  1  0
 14 15  2  0
 15 16  1  0
 16 17  2  0
  2 18  1  0
 18 19  2  0
 19 20  1  0
 20 21  2  0
 21 22  1  0
 22 23  2  0
 23 24  1  0
 23 25  1  0
 25 26  2  0
 26 27  1  0
 27 28  2  0
 11  7  1  0
 17 12  1  0
 28 18  1  0
 27 21  1  0
  3 29  1  0
  4 30  1  0
  4 31  1  0
  8 32  1  0
  8 33  1  0
  9 34  1  0
  9 35  1  0
 10 36  1  0
 10 37  1  0
 11 38  1  1
 13 39  1  0
 14 40  1  0
 15 41  1  0
 16 42  1  0
 19 43  1  0
 20 44  1  0
 22 45  1  0
 25 46  1  0
 26 47  1  0
M  END
>  <smiles>  (60) 
O=C(NCC(=O)N1CCCC1c1ccccn1)c1ccc2cc(Br)ccc2n1

>  <score_type>  (60) 
oracle

>  <origin>  (60) 
autodockgpu

>  <m_score__min__energy>  (60) 
-8.7200000000000006

>  <m_primary>  (60) 
energy

>  <rmsd>  (60) 
7.84555917988735

>  <m_score__min__rmsd>  (60) 
7.84555917988735

>  <meeko>  (60) 
{"free_energy": -6.83, "intermolecular_energy": -8.32, "internal_energy": -2.81, "cluster_size": 1, "cluster_id": 8, "rank_in_cluster": 1}

>  <energy>  (60) 
-8.51

>  <cluster_rmsd>  (60) 
0.0

>  <cluster>  (60) 
2

$$$$

     RDKit          3D

 47 50  0  0  0  0  0  0  0  0999 V2000
  142.0650   79.2910  216.8960 O   0  0  0  0  0  0  0  0  0  0  0  0
  142.3910   78.7110  217.9870 C   0  0  0  0  0  0  0  0  0  0  0  0
  142.2640   79.3760  219.2350 N   0  0  0  0  0  0  0  0  0  0  0  0
  141.7680   80.7220  219.3200 C   0  0  0  0  0  0  0  0  0  0  0  0
  140.9210   80.9440  220.5140 C   0  0  0  0  0  0  0  0  0  0  0  0
  139.7540   81.4190  220.4220 O   0  0  0  0  0  0  0  0  0  0  0  0
  141.4220   80.6200  221.8020 N   0  0  0  0  0  0  0  0  0  0  0  0
  141.4150   81.6070  222.8930 C   0  0  0  0  0  0  0  0  0  0  0  0
  142.4740   81.0740  223.8690 C   0  0  0  0  0  0  0  0  0  0  0  0
  142.1910   79.5910  223.7740 C   0  0  0  0  0  0  0  0  0  0  0  0
  141.9860   79.3980  222.2890 C   0  0  1  0  0  0  0  0  0  0  0  0
  141.0440   78.2460  222.0970 C   0  0  0  0  0  0  0  0  0  0  0  0
  139.8440   78.1540  222.7650 C   0  0  0  0  0  0  0  0  0  0  0  0
  139.0420   77.0420  222.5140 C   0  0  0  0  0  0  0  0  0  0  0  0
  139.4940   76.0980  221.6100 C   0  0  0  0  0  0  0  0  0  0  0  0
  140.7000   76.2070  220.9490 C   0  0  0  0  0  0  0  0  0  0  0  0
  141.4570   77.2930  221.2100 N   0  0  0  0  0  0  0  0  0  0  0  0
  142.9010   77.3420  217.9460 C   0  0  0  0  0  0  0  0  0  0  0  0
  143.0830   76.6900  216.7510 C   0  0  0  0  0  0  0  0  0  0  0  0
  143.5720   75.3810  216.7580 C   0  0  0  0  0  0  0  0  0  0  0  0
  143.8680   74.7580  217.9640 C   0  0  0  0  0  0  0  0  0  0  0  0
  144.3530   73.4620  218.0060 C   0  0  0  0  0  0  0  0  0  0  0  0
  144.6370   72.8750  219.2430 C   0  0  0  0  0  0  0  0  0  0  0  0
  145.3080   71.0790  219.2200 Br  0  0  0  0  0  0  0  0  0  0  0  0
  144.4440   73.5570  220.4260 C   0  0  0  0  0  0  0  0  0  0  0  0
  143.9570   74.8460  220.3350 C   0  0  0  0  0  0  0  0  0  0  0  0
  143.6730   75.4410  219.1430 C   0  0  0  0  0  0  0  0  0  0  0  0
  143.2010   76.6960  219.0930 N   0  0  0  0  0  0  0  0  0  0  0  0
  142.5570   78.8270  220.0980 H   0  0  0  0  0  0  0  0  0  0  0  0
  142.6246   81.4107  219.3631 H   0  0  0  0  0  0  0  0  0  0  0  0
  141.1448   80.9034  218.4319 H   0  0  0  0  0  0  0  0  0  0  0  0
  141.6903   82.6051  222.5214 H   0  0  0  0  0  0  0  0  0  0  0  0
  140.4249   81.7229  223.3581 H   0  0  0  0  0  0  0  0  0  0  0  0
  143.4944   81.3175  223.5380 H   0  0  0  0  0  0  0  0  0  0  0  0
  142.4222   81.4927  224.8849 H   0  0  0  0  0  0  0  0  0  0  0  0
  143.0428   78.9985  224.1391 H   0  0  0  0  0  0  0  0  0  0  0  0
  141.3349   79.2655  224.3833 H   0  0  0  0  0  0  0  0  0  0  0  0
  142.9174   79.1734  221.7485 H   0  0  0  0  0  0  0  0  0  0  0  0
  139.5280   78.9332  223.4743 H   0  0  0  0  0  0  0  0  0  0  0  0
  138.0742   76.9184  223.0220 H   0  0  0  0  0  0  0  0  0  0  0  0
  138.8629   75.2198  221.4088 H   0  0  0  0  0  0  0  0  0  0  0  0
  141.0319   75.4377  220.2362 H   0  0  0  0  0  0  0  0  0  0  0  0
  142.8469   77.1916  215.8009 H   0  0  0  0  0  0  0  0  0  0  0  0
  143.7224   74.8444  215.8096 H   0  0  0  0  0  0  0  0  0  0  0  0
  144.5135   72.8991  217.0747 H   0  0  0  0  0  0  0  0  0  0  0  0
  144.6680   73.0948  221.3987 H   0  0  0  0  0  0  0  0  0  0  0  0
  143.7919   75.4149  221.2619 H   0  0  0  0  0  0  0  0  0  0  0  0
  1  2  2  0
  2  3  1  0
  3  4  1  0
  4  5  1  0
  5  6  2  0
  5  7  1  0
  7  8  1  0
  8  9  1  0
  9 10  1  0
 10 11  1  0
 11 12  1  0
 12 13  2  0
 13 14  1  0
 14 15  2  0
 15 16  1  0
 16 17  2  0
  2 18  1  0
 18 19  2  0
 19 20  1  0
 20 21  2  0
 21 22  1  0
 22 23  2  0
 23 24  1  0
 23 25  1  0
 25 26  2  0
 26 27  1  0
 27 28  2  0
 11  7  1  0
 17 12  1  0
 28 18  1  0
 27 21  1  0
  3 29  1  0
  4 30  1  0
  4 31  1  0
  8 32  1  0
  8 33  1  0
  9 34  1  0
  9 35  1  0
 10 36  1  0
 10 37  1  0
 11 38  1  6
 13 39  1  0
 14 40  1  0
 15 41  1  0
 16 42  1  0
 19 43  1  0
 20 44  1  0
 22 45  1  0
 25 46  1  0
 26 47  1  0
M  END
>  <smiles>  (61) 
O=C(NCC(=O)N1CCCC1c1ccccn1)c1ccc2cc(Br)ccc2n1

>  <score_type>  (61) 
oracle

>  <origin>  (61) 
autodockgpu

>  <m_score__min__energy>  (61) 
-8.7200000000000006

>  <m_primary>  (61) 
energy

>  <rmsd>  (61) 
8.044174601001297

>  <m_score__min__rmsd>  (61) 
8.044174601001297

>  <meeko>  (61) 
{"free_energy": -6.67, "intermolecular_energy": -8.16, "internal_energy": -2.95, "cluster_size": 4, "cluster_id": 9, "rank_in_cluster": 3}

>  <energy>  (61) 
-8.5

>  <cluster_rmsd>  (61) 
0.26

>  <cluster>  (61) 
2

$$$$

     RDKit          3D

 47 50  0  0  0  0  0  0  0  0999 V2000
  141.3960   71.1610  221.4280 O   0  0  0  0  0  0  0  0  0  0  0  0
  140.6030   72.0420  221.9040 C   0  0  0  0  0  0  0  0  0  0  0  0
  139.4900   71.6680  222.7040 N   0  0  0  0  0  0  0  0  0  0  0  0
  139.2130   70.2900  223.0050 C   0  0  0  0  0  0  0  0  0  0  0  0
  138.5030   70.1190  224.2930 C   0  0  0  0  0  0  0  0  0  0  0  0
  137.4660   70.7840  224.5740 O   0  0  0  0  0  0  0  0  0  0  0  0
  138.9910   69.1880  225.2470 N   0  0  0  0  0  0  0  0  0  0  0  0
  139.3870   67.8270  224.8510 C   0  0  0  0  0  0  0  0  0  0  0  0
  139.3240   67.0350  226.1650 C   0  0  0  0  0  0  0  0  0  0  0  0
  139.8790   68.0700  227.1180 C   0  0  0  0  0  0  0  0  0  0  0  0
  139.1910   69.3340  226.6570 C   0  0  1  0  0  0  0  0  0  0  0  0
  140.0940   70.4930  226.9640 C   0  0  0  0  0  0  0  0  0  0  0  0
  140.0990   71.1200  228.1890 C   0  0  0  0  0  0  0  0  0  0  0  0
  140.9780   72.1860  228.3700 C   0  0  0  0  0  0  0  0  0  0  0  0
  141.7920   72.5530  227.3150 C   0  0  0  0  0  0  0  0  0  0  0  0
  141.7730   71.9120  226.0930 C   0  0  0  0  0  0  0  0  0  0  0  0
  140.9130   70.8830  225.9440 N   0  0  0  0  0  0  0  0  0  0  0  0
  140.8470   73.4540  221.6220 C   0  0  0  0  0  0  0  0  0  0  0  0
  141.8420   73.8410  220.7570 C   0  0  0  0  0  0  0  0  0  0  0  0
  142.0420   75.2030  220.5160 C   0  0  0  0  0  0  0  0  0  0  0  0
  141.2370   76.1440  221.1470 C   0  0  0  0  0  0  0  0  0  0  0  0
  141.4100   77.5000  220.9290 C   0  0  0  0  0  0  0  0  0  0  0  0
  140.5760   78.4110  221.5870 C   0  0  0  0  0  0  0  0  0  0  0  0
  140.8740   80.2730  221.2350 Br  0  0  0  0  0  0  0  0  0  0  0  0
  139.5850   77.9910  222.4490 C   0  0  0  0  0  0  0  0  0  0  0  0
  139.4530   76.6290  222.6340 C   0  0  0  0  0  0  0  0  0  0  0  0
  140.2500   75.7210  222.0070 C   0  0  0  0  0  0  0  0  0  0  0  0
  140.0920   74.4040  222.2120 N   0  0  0  0  0  0  0  0  0  0  0  0
  138.8760   72.4590  223.0630 H   0  0  0  0  0  0  0  0  0  0  0  0
  138.5892   69.8725  222.2009 H   0  0  0  0  0  0  0  0  0  0  0  0
  140.1772   69.7665  223.0846 H   0  0  0  0  0  0  0  0  0  0  0  0
  138.6867   67.4143  224.1099 H   0  0  0  0  0  0  0  0  0  0  0  0
  140.3795   67.7915  224.3781 H   0  0  0  0  0  0  0  0  0  0  0  0
  138.2927   66.7528  226.4232 H   0  0  0  0  0  0  0  0  0  0  0  0
  139.8624   66.0758  226.1557 H   0  0  0  0  0  0  0  0  0  0  0  0
  139.6188   67.8322  228.1600 H   0  0  0  0  0  0  0  0  0  0  0  0
  140.9769   68.1365  227.1055 H   0  0  0  0  0  0  0  0  0  0  0  0
  138.2268   69.5088  227.1567 H   0  0  0  0  0  0  0  0  0  0  0  0
  139.4311   70.7906  228.9986 H   0  0  0  0  0  0  0  0  0  0  0  0
  141.0229   72.7224  229.3293 H   0  0  0  0  0  0  0  0  0  0  0  0
  142.4866   73.3943  227.4558 H   0  0  0  0  0  0  0  0  0  0  0  0
  142.4335   72.2278  225.2720 H   0  0  0  0  0  0  0  0  0  0  0  0
  142.4728   73.0887  220.2608 H   0  0  0  0  0  0  0  0  0  0  0  0
  142.8355   75.5298  219.8278 H   0  0  0  0  0  0  0  0  0  0  0  0
  142.1946   77.8576  220.2459 H   0  0  0  0  0  0  0  0  0  0  0  0
  138.9298   78.7079  222.9655 H   0  0  0  0  0  0  0  0  0  0  0  0
  138.6716   76.2627  223.3161 H   0  0  0  0  0  0  0  0  0  0  0  0
  1  2  2  0
  2  3  1  0
  3  4  1  0
  4  5  1  0
  5  6  2  0
  5  7  1  0
  7  8  1  0
  8  9  1  0
  9 10  1  0
 10 11  1  0
 11 12  1  0
 12 13  2  0
 13 14  1  0
 14 15  2  0
 15 16  1  0
 16 17  2  0
  2 18  1  0
 18 19  2  0
 19 20  1  0
 20 21  2  0
 21 22  1  0
 22 23  2  0
 23 24  1  0
 23 25  1  0
 25 26  2  0
 26 27  1  0
 27 28  2  0
 11  7  1  0
 17 12  1  0
 28 18  1  0
 27 21  1  0
  3 29  1  0
  4 30  1  0
  4 31  1  0
  8 32  1  0
  8 33  1  0
  9 34  1  0
  9 35  1  0
 10 36  1  0
 10 37  1  0
 11 38  1  1
 13 39  1  0
 14 40  1  0
 15 41  1  0
 16 42  1  0
 19 43  1  0
 20 44  1  0
 22 45  1  0
 25 46  1  0
 26 47  1  0
M  END
>  <smiles>  (62) 
O=C(NCC(=O)N1CCCC1c1ccccn1)c1ccc2cc(Br)ccc2n1

>  <score_type>  (62) 
oracle

>  <origin>  (62) 
autodockgpu

>  <m_score__min__energy>  (62) 
-8.7200000000000006

>  <m_primary>  (62) 
energy

>  <rmsd>  (62) 
9.151885111245742

>  <m_score__min__rmsd>  (62) 
9.151885111245742

>  <meeko>  (62) 
{"free_energy": -7.68, "intermolecular_energy": -9.17, "internal_energy": -1.97, "cluster_size": 3, "cluster_id": 4, "rank_in_cluster": 2}

>  <energy>  (62) 
-8.5

>  <cluster_rmsd>  (62) 
1.45

>  <cluster>  (62) 
2

$$$$

     RDKit          3D

 47 50  0  0  0  0  0  0  0  0999 V2000
  139.8500   72.4650  220.5460 O   0  0  0  0  0  0  0  0  0  0  0  0
  139.7800   72.8720  221.7550 C   0  0  0  0  0  0  0  0  0  0  0  0
  139.6490   74.2550  222.0540 N   0  0  0  0  0  0  0  0  0  0  0  0
  139.5910   75.2440  221.0140 C   0  0  0  0  0  0  0  0  0  0  0  0
  140.5100   76.3800  221.2540 C   0  0  0  0  0  0  0  0  0  0  0  0
  140.5530   76.9760  222.3670 O   0  0  0  0  0  0  0  0  0  0  0  0
  141.3700   76.8220  220.2140 N   0  0  0  0  0  0  0  0  0  0  0  0
  141.7040   78.2460  220.0540 C   0  0  0  0  0  0  0  0  0  0  0  0
  142.1650   78.3470  218.5930 C   0  0  0  0  0  0  0  0  0  0  0  0
  142.9390   77.0530  218.4760 C   0  0  0  0  0  0  0  0  0  0  0  0
  142.0390   76.0730  219.1940 C   0  0  1  0  0  0  0  0  0  0  0  0
  142.9020   74.9960  219.7830 C   0  0  0  0  0  0  0  0  0  0  0  0
  144.2210   75.2050  220.1130 C   0  0  0  0  0  0  0  0  0  0  0  0
  144.9340   74.1380  220.6550 C   0  0  0  0  0  0  0  0  0  0  0  0
  144.2790   72.9330  220.8310 C   0  0  0  0  0  0  0  0  0  0  0  0
  142.9550   72.7410  220.4940 C   0  0  0  0  0  0  0  0  0  0  0  0
  142.2870   73.7910  219.9710 N   0  0  0  0  0  0  0  0  0  0  0  0
  139.8360   71.9000  222.8440 C   0  0  0  0  0  0  0  0  0  0  0  0
  139.3950   70.6110  222.6650 C   0  0  0  0  0  0  0  0  0  0  0  0
  139.4660   69.7130  223.7340 C   0  0  0  0  0  0  0  0  0  0  0  0
  139.9780   70.1310  224.9570 C   0  0  0  0  0  0  0  0  0  0  0  0
  140.0600   69.2670  226.0350 C   0  0  0  0  0  0  0  0  0  0  0  0
  140.5820   69.7310  227.2470 C   0  0  0  0  0  0  0  0  0  0  0  0
  140.6670   68.4760  228.6950 Br  0  0  0  0  0  0  0  0  0  0  0  0
  141.0160   71.0320  227.3940 C   0  0  0  0  0  0  0  0  0  0  0  0
  140.9130   71.8560  226.2920 C   0  0  0  0  0  0  0  0  0  0  0  0
  140.4090   71.4300  225.1010 C   0  0  0  0  0  0  0  0  0  0  0  0
  140.3230   72.2600  224.0500 N   0  0  0  0  0  0  0  0  0  0  0  0
  139.5980   74.5150  223.0840 H   0  0  0  0  0  0  0  0  0  0  0  0
  139.8616   74.7679  220.0600 H   0  0  0  0  0  0  0  0  0  0  0  0
  138.5666   75.6441  220.9927 H   0  0  0  0  0  0  0  0  0  0  0  0
  140.8219   78.8787  220.2321 H   0  0  0  0  0  0  0  0  0  0  0  0
  142.4677   78.5886  220.7677 H   0  0  0  0  0  0  0  0  0  0  0  0
  141.3138   78.3787  217.8969 H   0  0  0  0  0  0  0  0  0  0  0  0
  142.7365   79.2543  218.3476 H   0  0  0  0  0  0  0  0  0  0  0  0
  143.0798   76.7669  217.4232 H   0  0  0  0  0  0  0  0  0  0  0  0
  143.9543   77.1076  218.8958 H   0  0  0  0  0  0  0  0  0  0  0  0
  141.3007   75.5966  218.5322 H   0  0  0  0  0  0  0  0  0  0  0  0
  144.6976   76.1836  219.9540 H   0  0  0  0  0  0  0  0  0  0  0  0
  145.9915   74.2512  220.9359 H   0  0  0  0  0  0  0  0  0  0  0  0
  144.8393   72.0888  221.2593 H   0  0  0  0  0  0  0  0  0  0  0  0
  142.4624   71.7692  220.6457 H   0  0  0  0  0  0  0  0  0  0  0  0
  138.9914   70.2900  221.6934 H   0  0  0  0  0  0  0  0  0  0  0  0
  139.1173   68.6774  223.6077 H   0  0  0  0  0  0  0  0  0  0  0  0
  139.7181   68.2258  225.9397 H   0  0  0  0  0  0  0  0  0  0  0  0
  141.4260   71.3965  228.3474 H   0  0  0  0  0  0  0  0  0  0  0  0
  141.2516   72.8989  226.3792 H   0  0  0  0  0  0  0  0  0  0  0  0
  1  2  2  0
  2  3  1  0
  3  4  1  0
  4  5  1  0
  5  6  2  0
  5  7  1  0
  7  8  1  0
  8  9  1  0
  9 10  1  0
 10 11  1  0
 11 12  1  0
 12 13  2  0
 13 14  1  0
 14 15  2  0
 15 16  1  0
 16 17  2  0
  2 18  1  0
 18 19  2  0
 19 20  1  0
 20 21  2  0
 21 22  1  0
 22 23  2  0
 23 24  1  0
 23 25  1  0
 25 26  2  0
 26 27  1  0
 27 28  2  0
 11  7  1  0
 17 12  1  0
 28 18  1  0
 27 21  1  0
  3 29  1  0
  4 30  1  0
  4 31  1  0
  8 32  1  0
  8 33  1  0
  9 34  1  0
  9 35  1  0
 10 36  1  0
 10 37  1  0
 11 38  1  6
 13 39  1  0
 14 40  1  0
 15 41  1  0
 16 42  1  0
 19 43  1  0
 20 44  1  0
 22 45  1  0
 25 46  1  0
 26 47  1  0
M  END
>  <smiles>  (63) 
O=C(NCC(=O)N1CCCC1c1ccccn1)c1ccc2cc(Br)ccc2n1

>  <score_type>  (63) 
oracle

>  <origin>  (63) 
autodockgpu

>  <m_score__min__energy>  (63) 
-8.7200000000000006

>  <m_primary>  (63) 
energy

>  <rmsd>  (63) 
3.901525352796052

>  <m_score__min__rmsd>  (63) 
3.901525352796052

>  <meeko>  (63) 
{"free_energy": -8.2, "intermolecular_energy": -9.69, "internal_energy": -2.03, "cluster_size": 10, "cluster_id": 3, "rank_in_cluster": 3}

>  <energy>  (63) 
-8.48

>  <cluster_rmsd>  (63) 
1.45

>  <cluster>  (63) 
2

$$$$

     RDKit          3D

 47 50  0  0  0  0  0  0  0  0999 V2000
  142.2430   73.1430  220.6020 O   0  0  0  0  0  0  0  0  0  0  0  0
  141.4330   73.8720  221.2690 C   0  0  0  0  0  0  0  0  0  0  0  0
  140.4480   73.2890  222.1090 N   0  0  0  0  0  0  0  0  0  0  0  0
  140.3220   71.8640  222.2410 C   0  0  0  0  0  0  0  0  0  0  0  0
  139.0860   71.4620  222.9490 C   0  0  0  0  0  0  0  0  0  0  0  0
  138.1120   72.2540  223.0870 O   0  0  0  0  0  0  0  0  0  0  0  0
  138.9790   70.1550  223.4920 N   0  0  0  0  0  0  0  0  0  0  0  0
  139.2170   68.9630  222.6630 C   0  0  0  0  0  0  0  0  0  0  0  0
  138.5040   67.8400  223.4300 C   0  0  0  0  0  0  0  0  0  0  0  0
  138.8490   68.2360  224.8480 C   0  0  0  0  0  0  0  0  0  0  0  0
  138.6530   69.7350  224.8210 C   0  0  1  0  0  0  0  0  0  0  0  0
  139.5820   70.3430  225.8300 C   0  0  0  0  0  0  0  0  0  0  0  0
  139.5590   69.9930  227.1610 C   0  0  0  0  0  0  0  0  0  0  0  0
  140.4660   70.6180  228.0150 C   0  0  0  0  0  0  0  0  0  0  0  0
  141.3350   71.5500  227.4800 C   0  0  0  0  0  0  0  0  0  0  0  0
  141.3450   71.8890  226.1420 C   0  0  0  0  0  0  0  0  0  0  0  0
  140.4560   71.2690  225.3370 N   0  0  0  0  0  0  0  0  0  0  0  0
  141.5240   75.3270  221.1640 C   0  0  0  0  0  0  0  0  0  0  0  0
  142.1600   75.9210  220.1010 C   0  0  0  0  0  0  0  0  0  0  0  0
  142.2250   77.3160  220.0400 C   0  0  0  0  0  0  0  0  0  0  0  0
  141.6500   78.0810  221.0480 C   0  0  0  0  0  0  0  0  0  0  0  0
  141.6970   79.4630  221.0180 C   0  0  0  0  0  0  0  0  0  0  0  0
  141.1050   80.1930  222.0540 C   0  0  0  0  0  0  0  0  0  0  0  0
  141.2100   82.1040  221.9420 Br  0  0  0  0  0  0  0  0  0  0  0  0
  140.4740   79.5660  223.1080 C   0  0  0  0  0  0  0  0  0  0  0  0
  140.4530   78.1860  223.0950 C   0  0  0  0  0  0  0  0  0  0  0  0
  141.0210   77.4520  222.0990 C   0  0  0  0  0  0  0  0  0  0  0  0
  140.9820   76.1110  222.1190 N   0  0  0  0  0  0  0  0  0  0  0  0
  139.8100   73.9620  222.6310 H   0  0  0  0  0  0  0  0  0  0  0  0
  140.3128   71.4171  221.2359 H   0  0  0  0  0  0  0  0  0  0  0  0
  141.1760   71.5092  222.8367 H   0  0  0  0  0  0  0  0  0  0  0  0
  138.7838   69.0896  221.6599 H   0  0  0  0  0  0  0  0  0  0  0  0
  140.2864   68.7597  222.5047 H   0  0  0  0  0  0  0  0  0  0  0  0
  137.4180   67.8509  223.2551 H   0  0  0  0  0  0  0  0  0  0  0  0
  138.8036   66.8203  223.1462 H   0  0  0  0  0  0  0  0  0  0  0  0
  138.1712   67.7586  225.5710 H   0  0  0  0  0  0  0  0  0  0  0  0
  139.8591   67.9295  225.1574 H   0  0  0  0  0  0  0  0  0  0  0  0
  137.6269   70.0426  225.0711 H   0  0  0  0  0  0  0  0  0  0  0  0
  138.8475   69.2439  227.5386 H   0  0  0  0  0  0  0  0  0  0  0  0
  140.4896   70.3756  229.0877 H   0  0  0  0  0  0  0  0  0  0  0  0
  142.0520   72.0447  228.1517 H   0  0  0  0  0  0  0  0  0  0  0  0
  142.0499   72.6353  225.7469 H   0  0  0  0  0  0  0  0  0  0  0  0
  142.6122   75.3069  219.3083 H   0  0  0  0  0  0  0  0  0  0  0  0
  142.7304   77.8075  219.1956 H   0  0  0  0  0  0  0  0  0  0  0  0
  142.1955   79.9834  220.1869 H   0  0  0  0  0  0  0  0  0  0  0  0
  140.0083   80.1401  223.9226 H   0  0  0  0  0  0  0  0  0  0  0  0
  139.9573   77.6579  223.9229 H   0  0  0  0  0  0  0  0  0  0  0  0
  1  2  2  0
  2  3  1  0
  3  4  1  0
  4  5  1  0
  5  6  2  0
  5  7  1  0
  7  8  1  0
  8  9  1  0
  9 10  1  0
 10 11  1  0
 11 12  1  0
 12 13  2  0
 13 14  1  0
 14 15  2  0
 15 16  1  0
 16 17  2  0
  2 18  1  0
 18 19  2  0
 19 20  1  0
 20 21  2  0
 21 22  1  0
 22 23  2  0
 23 24  1  0
 23 25  1  0
 25 26  2  0
 26 27  1  0
 27 28  2  0
 11  7  1  0
 17 12  1  0
 28 18  1  0
 27 21  1  0
  3 29  1  0
  4 30  1  0
  4 31  1  0
  8 32  1  0
  8 33  1  0
  9 34  1  0
  9 35  1  0
 10 36  1  0
 10 37  1  0
 11 38  1  1
 13 39  1  0
 14 40  1  0
 15 41  1  0
 16 42  1  0
 19 43  1  0
 20 44  1  0
 22 45  1  0
 25 46  1  0
 26 47  1  0
M  END
>  <smiles>  (64) 
O=C(NCC(=O)N1CCCC1c1ccccn1)c1ccc2cc(Br)ccc2n1

>  <score_type>  (64) 
oracle

>  <origin>  (64) 
autodockgpu

>  <m_score__min__energy>  (64) 
-8.7200000000000006

>  <m_primary>  (64) 
energy

>  <rmsd>  (64) 
9.20637651936716

>  <m_score__min__rmsd>  (64) 
9.20637651936716

>  <meeko>  (64) 
{"free_energy": -7.62, "intermolecular_energy": -9.11, "internal_energy": -1.73, "cluster_size": 3, "cluster_id": 4, "rank_in_cluster": 3}

>  <energy>  (64) 
-8.46

>  <cluster_rmsd>  (64) 
1.46

>  <cluster>  (64) 
2

$$$$

     RDKit          3D

 47 50  0  0  0  0  0  0  0  0999 V2000
  134.7380   68.4900  225.2520 O   0  0  0  0  0  0  0  0  0  0  0  0
  135.0380   69.7010  224.9780 C   0  0  0  0  0  0  0  0  0  0  0  0
  136.0730   70.0080  224.0550 N   0  0  0  0  0  0  0  0  0  0  0  0
  136.8210   68.9720  223.3970 C   0  0  0  0  0  0  0  0  0  0  0  0
  138.2460   68.9520  223.8010 C   0  0  0  0  0  0  0  0  0  0  0  0
  138.7860   67.9150  224.2800 O   0  0  0  0  0  0  0  0  0  0  0  0
  139.0360   70.1220  223.6530 N   0  0  0  0  0  0  0  0  0  0  0  0
  138.5880   71.2430  222.8110 C   0  0  0  0  0  0  0  0  0  0  0  0
  139.8860   72.0020  222.5010 C   0  0  0  0  0  0  0  0  0  0  0  0
  140.5800   71.8880  223.8400 C   0  0  0  0  0  0  0  0  0  0  0  0
  140.3070   70.4510  224.2220 C   0  0  1  0  0  0  0  0  0  0  0  0
  140.2750   70.3670  225.7200 C   0  0  0  0  0  0  0  0  0  0  0  0
  140.4560   71.4680  226.5250 C   0  0  0  0  0  0  0  0  0  0  0  0
  140.4060   71.2810  227.9050 C   0  0  0  0  0  0  0  0  0  0  0  0
  140.1770   70.0060  228.3860 C   0  0  0  0  0  0  0  0  0  0  0  0
  139.9970   68.9120  227.5640 C   0  0  0  0  0  0  0  0  0  0  0  0
  140.0500   69.1210  226.2310 N   0  0  0  0  0  0  0  0  0  0  0  0
  134.3030   70.7860  225.6260 C   0  0  0  0  0  0  0  0  0  0  0  0
  133.2770   70.5220  226.5010 C   0  0  0  0  0  0  0  0  0  0  0  0
  132.6010   71.5890  227.0970 C   0  0  0  0  0  0  0  0  0  0  0  0
  132.9700   72.8960  226.8020 C   0  0  0  0  0  0  0  0  0  0  0  0
  132.3190   73.9750  227.3750 C   0  0  0  0  0  0  0  0  0  0  0  0
  132.7250   75.2730  227.0470 C   0  0  0  0  0  0  0  0  0  0  0  0
  131.7780   76.7160  227.8820 Br  0  0  0  0  0  0  0  0  0  0  0  0
  133.7590   75.5040  226.1650 C   0  0  0  0  0  0  0  0  0  0  0  0
  134.3760   74.3980  225.6180 C   0  0  0  0  0  0  0  0  0  0  0  0
  134.0020   73.1240  225.9200 C   0  0  0  0  0  0  0  0  0  0  0  0
  134.6250   72.0710  225.3690 N   0  0  0  0  0  0  0  0  0  0  0  0
  136.2630   71.0400  223.8810 H   0  0  0  0  0  0  0  0  0  0  0  0
  136.3707   67.9999  223.6466 H   0  0  0  0  0  0  0  0  0  0  0  0
  136.7847   69.1712  222.3158 H   0  0  0  0  0  0  0  0  0  0  0  0
  138.1170   70.8765  221.8870 H   0  0  0  0  0  0  0  0  0  0  0  0
  137.8318   71.8721  223.3033 H   0  0  0  0  0  0  0  0  0  0  0  0
  140.4620   71.5163  221.6995 H   0  0  0  0  0  0  0  0  0  0  0  0
  139.7467   73.0304  222.1363 H   0  0  0  0  0  0  0  0  0  0  0  0
  141.6596   72.0774  223.7467 H   0  0  0  0  0  0  0  0  0  0  0  0
  140.2255   72.6168  224.5837 H   0  0  0  0  0  0  0  0  0  0  0  0
  141.0736   69.7521  223.8562 H   0  0  0  0  0  0  0  0  0  0  0  0
  140.6344   72.4638  226.0931 H   0  0  0  0  0  0  0  0  0  0  0  0
  140.5453   72.1270  228.5941 H   0  0  0  0  0  0  0  0  0  0  0  0
  140.1363   69.8559  229.4750 H   0  0  0  0  0  0  0  0  0  0  0  0
  139.8174   67.9091  227.9785 H   0  0  0  0  0  0  0  0  0  0  0  0
  132.9919   69.4843  226.7290 H   0  0  0  0  0  0  0  0  0  0  0  0
  131.7770   71.3950  227.7995 H   0  0  0  0  0  0  0  0  0  0  0  0
  131.4910   73.8135  228.0809 H   0  0  0  0  0  0  0  0  0  0  0  0
  134.0780   76.5251  225.9087 H   0  0  0  0  0  0  0  0  0  0  0  0
  135.2033   74.5514  224.9095 H   0  0  0  0  0  0  0  0  0  0  0  0
  1  2  2  0
  2  3  1  0
  3  4  1  0
  4  5  1  0
  5  6  2  0
  5  7  1  0
  7  8  1  0
  8  9  1  0
  9 10  1  0
 10 11  1  0
 11 12  1  0
 12 13  2  0
 13 14  1  0
 14 15  2  0
 15 16  1  0
 16 17  2  0
  2 18  1  0
 18 19  2  0
 19 20  1  0
 20 21  2  0
 21 22  1  0
 22 23  2  0
 23 24  1  0
 23 25  1  0
 25 26  2  0
 26 27  1  0
 27 28  2  0
 11  7  1  0
 17 12  1  0
 28 18  1  0
 27 21  1  0
  3 29  1  0
  4 30  1  0
  4 31  1  0
  8 32  1  0
  8 33  1  0
  9 34  1  0
  9 35  1  0
 10 36  1  0
 10 37  1  0
 11 38  1  6
 13 39  1  0
 14 40  1  0
 15 41  1  0
 16 42  1  0
 19 43  1  0
 20 44  1  0
 22 45  1  0
 25 46  1  0
 26 47  1  0
M  END
>  <smiles>  (65) 
O=C(NCC(=O)N1CCCC1c1ccccn1)c1ccc2cc(Br)ccc2n1

>  <score_type>  (65) 
oracle

>  <origin>  (65) 
autodockgpu

>  <m_score__min__energy>  (65) 
-8.7200000000000006

>  <m_primary>  (65) 
energy

>  <rmsd>  (65) 
8.280720659450642

>  <m_score__min__rmsd>  (65) 
8.280720659450642

>  <meeko>  (65) 
{"free_energy": -8.22, "intermolecular_energy": -9.71, "internal_energy": -1.68, "cluster_size": 9, "cluster_id": 1, "rank_in_cluster": 4}

>  <energy>  (65) 
-8.45

>  <cluster_rmsd>  (65) 
0.37

>  <cluster>  (65) 
2

$$$$

     RDKit          3D

 47 50  0  0  0  0  0  0  0  0999 V2000
  135.1050   68.4360  224.8850 O   0  0  0  0  0  0  0  0  0  0  0  0
  135.5760   69.6210  224.9620 C   0  0  0  0  0  0  0  0  0  0  0  0
  136.8780   69.9230  224.4810 N   0  0  0  0  0  0  0  0  0  0  0  0
  137.7130   68.9120  223.8930 C   0  0  0  0  0  0  0  0  0  0  0  0
  138.8640   68.5510  224.7520 C   0  0  0  0  0  0  0  0  0  0  0  0
  139.2200   67.3500  224.9140 O   0  0  0  0  0  0  0  0  0  0  0  0
  139.5930   69.5710  225.4170 N   0  0  0  0  0  0  0  0  0  0  0  0
  140.6190   69.2450  226.4210 C   0  0  0  0  0  0  0  0  0  0  0  0
  140.7520   70.5400  227.2350 C   0  0  0  0  0  0  0  0  0  0  0  0
  140.6380   71.5580  226.1220 C   0  0  0  0  0  0  0  0  0  0  0  0
  139.5140   70.9940  225.2840 C   0  0  1  0  0  0  0  0  0  0  0  0
  139.7340   71.4240  223.8630 C   0  0  0  0  0  0  0  0  0  0  0  0
  140.9850   71.4800  223.2940 C   0  0  0  0  0  0  0  0  0  0  0  0
  141.0790   71.8910  221.9660 C   0  0  0  0  0  0  0  0  0  0  0  0
  139.9140   72.2190  221.2970 C   0  0  0  0  0  0  0  0  0  0  0  0
  138.6670   72.1570  221.8830 C   0  0  0  0  0  0  0  0  0  0  0  0
  138.6040   71.7550  223.1700 N   0  0  0  0  0  0  0  0  0  0  0  0
  134.7620   70.6800  225.5540 C   0  0  0  0  0  0  0  0  0  0  0  0
  133.7140   70.3820  226.3920 C   0  0  0  0  0  0  0  0  0  0  0  0
  132.9600   71.4250  226.9360 C   0  0  0  0  0  0  0  0  0  0  0  0
  133.2760   72.7430  226.6270 C   0  0  0  0  0  0  0  0  0  0  0  0
  132.5490   73.7980  227.1480 C   0  0  0  0  0  0  0  0  0  0  0  0
  132.9020   75.1080  226.8090 C   0  0  0  0  0  0  0  0  0  0  0  0
  131.8490   76.5180  227.5710 Br  0  0  0  0  0  0  0  0  0  0  0  0
  133.9600   75.3740  225.9650 C   0  0  0  0  0  0  0  0  0  0  0  0
  134.6540   74.2890  225.4690 C   0  0  0  0  0  0  0  0  0  0  0  0
  134.3320   73.0040  225.7830 C   0  0  0  0  0  0  0  0  0  0  0  0
  135.0290   71.9740  225.2820 N   0  0  0  0  0  0  0  0  0  0  0  0
  137.1990   70.9320  224.5820 H   0  0  0  0  0  0  0  0  0  0  0  0
  137.1062   68.0108  223.7206 H   0  0  0  0  0  0  0  0  0  0  0  0
  138.1144   69.3180  222.9528 H   0  0  0  0  0  0  0  0  0  0  0  0
  140.2923   68.4113  227.0599 H   0  0  0  0  0  0  0  0  0  0  0  0
  141.5700   68.9232  225.9714 H   0  0  0  0  0  0  0  0  0  0  0  0
  139.9409   70.6458  227.9705 H   0  0  0  0  0  0  0  0  0  0  0  0
  141.6661   70.6155  227.8422 H   0  0  0  0  0  0  0  0  0  0  0  0
  140.3809   72.5522  226.5162 H   0  0  0  0  0  0  0  0  0  0  0  0
  141.5735   71.7056  225.5624 H   0  0  0  0  0  0  0  0  0  0  0  0
  138.5203   71.3455  225.5986 H   0  0  0  0  0  0  0  0  0  0  0  0
  141.8827   71.2089  223.8691 H   0  0  0  0  0  0  0  0  0  0  0  0
  142.0550   71.9530  221.4625 H   0  0  0  0  0  0  0  0  0  0  0  0
  139.9852   72.5445  220.2487 H   0  0  0  0  0  0  0  0  0  0  0  0
  137.7588   72.4248  221.3231 H   0  0  0  0  0  0  0  0  0  0  0  0
  133.4721   69.3360  226.6313 H   0  0  0  0  0  0  0  0  0  0  0  0
  132.1176   71.2035  227.6078 H   0  0  0  0  0  0  0  0  0  0  0  0
  131.7011   73.6084  227.8226 H   0  0  0  0  0  0  0  0  0  0  0  0
  134.2381   76.4045  225.6992 H   0  0  0  0  0  0  0  0  0  0  0  0
  135.5021   74.4699  224.7922 H   0  0  0  0  0  0  0  0  0  0  0  0
  1  2  2  0
  2  3  1  0
  3  4  1  0
  4  5  1  0
  5  6  2  0
  5  7  1  0
  7  8  1  0
  8  9  1  0
  9 10  1  0
 10 11  1  0
 11 12  1  0
 12 13  2  0
 13 14  1  0
 14 15  2  0
 15 16  1  0
 16 17  2  0
  2 18  1  0
 18 19  2  0
 19 20  1  0
 20 21  2  0
 21 22  1  0
 22 23  2  0
 23 24  1  0
 23 25  1  0
 25 26  2  0
 26 27  1  0
 27 28  2  0
 11  7  1  0
 17 12  1  0
 28 18  1  0
 27 21  1  0
  3 29  1  0
  4 30  1  0
  4 31  1  0
  8 32  1  0
  8 33  1  0
  9 34  1  0
  9 35  1  0
 10 36  1  0
 10 37  1  0
 11 38  1  1
 13 39  1  0
 14 40  1  0
 15 41  1  0
 16 42  1  0
 19 43  1  0
 20 44  1  0
 22 45  1  0
 25 46  1  0
 26 47  1  0
M  END
>  <smiles>  (66) 
O=C(NCC(=O)N1CCCC1c1ccccn1)c1ccc2cc(Br)ccc2n1

>  <score_type>  (66) 
oracle

>  <origin>  (66) 
autodockgpu

>  <m_score__min__energy>  (66) 
-8.7200000000000006

>  <m_primary>  (66) 
energy

>  <rmsd>  (66) 
8.220159018670257

>  <m_score__min__rmsd>  (66) 
8.220159018670257

>  <meeko>  (66) 
{"free_energy": -7.52, "intermolecular_energy": -9.01, "internal_energy": -2.43, "cluster_size": 4, "cluster_id": 5, "rank_in_cluster": 4}

>  <energy>  (66) 
-8.39

>  <cluster_rmsd>  (66) 
1.44

>  <cluster>  (66) 
2

$$$$

     RDKit          3D

 47 50  0  0  0  0  0  0  0  0999 V2000
  133.6250   69.2710  226.4360 O   0  0  0  0  0  0  0  0  0  0  0  0
  134.1660   70.3750  226.0910 C   0  0  0  0  0  0  0  0  0  0  0  0
  135.3720   70.3960  225.3400 N   0  0  0  0  0  0  0  0  0  0  0  0
  136.0280   69.1800  224.9430 C   0  0  0  0  0  0  0  0  0  0  0  0
  136.7380   69.3110  223.6510 C   0  0  0  0  0  0  0  0  0  0  0  0
  136.3660   68.6800  222.6210 O   0  0  0  0  0  0  0  0  0  0  0  0
  137.8690   70.1640  223.5520 N   0  0  0  0  0  0  0  0  0  0  0  0
  137.7260   71.5790  223.1780 C   0  0  0  0  0  0  0  0  0  0  0  0
  139.1260   71.9640  222.6780 C   0  0  0  0  0  0  0  0  0  0  0  0
  139.9740   71.2080  223.6760 C   0  0  0  0  0  0  0  0  0  0  0  0
  139.2550   69.8810  223.7690 C   0  0  1  0  0  0  0  0  0  0  0  0
  139.4910   69.3210  225.1410 C   0  0  0  0  0  0  0  0  0  0  0  0
  139.9520   70.0910  226.1840 C   0  0  0  0  0  0  0  0  0  0  0  0
  140.1370   69.4720  227.4190 C   0  0  0  0  0  0  0  0  0  0  0  0
  139.8470   68.1250  227.5270 C   0  0  0  0  0  0  0  0  0  0  0  0
  139.3850   67.3670  226.4700 C   0  0  0  0  0  0  0  0  0  0  0  0
  139.2150   67.9910  225.2850 N   0  0  0  0  0  0  0  0  0  0  0  0
  133.5330   71.6360  226.4740 C   0  0  0  0  0  0  0  0  0  0  0  0
  132.3490   71.6490  227.1710 C   0  0  0  0  0  0  0  0  0  0  0  0
  131.7770   72.8770  227.5170 C   0  0  0  0  0  0  0  0  0  0  0  0
  132.4090   74.0610  227.1570 C   0  0  0  0  0  0  0  0  0  0  0  0
  131.8690   75.2930  227.4830 C   0  0  0  0  0  0  0  0  0  0  0  0
  132.5390   76.4590  227.1000 C   0  0  0  0  0  0  0  0  0  0  0  0
  131.7310   78.1280  227.5900 Br  0  0  0  0  0  0  0  0  0  0  0  0
  133.7270   76.4110  226.4010 C   0  0  0  0  0  0  0  0  0  0  0  0
  134.2250   75.1610  226.0970 C   0  0  0  0  0  0  0  0  0  0  0  0
  133.5940   74.0100  226.4580 C   0  0  0  0  0  0  0  0  0  0  0  0
  134.1080   72.8110  226.1450 N   0  0  0  0  0  0  0  0  0  0  0  0
  135.7600   71.3540  225.0920 H   0  0  0  0  0  0  0  0  0  0  0  0
  136.7570   68.9036  225.7190 H   0  0  0  0  0  0  0  0  0  0  0  0
  135.2533   68.4087  224.8203 H   0  0  0  0  0  0  0  0  0  0  0  0
  136.9773   71.7009  222.3814 H   0  0  0  0  0  0  0  0  0  0  0  0
  137.3819   72.2087  224.0118 H   0  0  0  0  0  0  0  0  0  0  0  0
  139.3015   71.6193  221.6482 H   0  0  0  0  0  0  0  0  0  0  0  0
  139.3205   73.0455  222.6277 H   0  0  0  0  0  0  0  0  0  0  0  0
  141.0026   71.0790  223.3080 H   0  0  0  0  0  0  0  0  0  0  0  0
  140.0789   71.7211  224.6433 H   0  0  0  0  0  0  0  0  0  0  0  0
  139.6075   69.1437  223.0327 H   0  0  0  0  0  0  0  0  0  0  0  0
  140.1677   71.1610  226.0475 H   0  0  0  0  0  0  0  0  0  0  0  0
  140.5045   70.0411  228.2857 H   0  0  0  0  0  0  0  0  0  0  0  0
  139.9911   67.6341  228.5008 H   0  0  0  0  0  0  0  0  0  0  0  0
  139.1639   66.2960  226.5886 H   0  0  0  0  0  0  0  0  0  0  0  0
  131.8578   70.7060  227.4530 H   0  0  0  0  0  0  0  0  0  0  0  0
  130.8284   72.9058  228.0732 H   0  0  0  0  0  0  0  0  0  0  0  0
  130.9214   75.3543  228.0383 H   0  0  0  0  0  0  0  0  0  0  0  0
  134.2538   77.3284  226.0994 H   0  0  0  0  0  0  0  0  0  0  0  0
  135.1710   75.0914  225.5399 H   0  0  0  0  0  0  0  0  0  0  0  0
  1  2  2  0
  2  3  1  0
  3  4  1  0
  4  5  1  0
  5  6  2  0
  5  7  1  0
  7  8  1  0
  8  9  1  0
  9 10  1  0
 10 11  1  0
 11 12  1  0
 12 13  2  0
 13 14  1  0
 14 15  2  0
 15 16  1  0
 16 17  2  0
  2 18  1  0
 18 19  2  0
 19 20  1  0
 20 21  2  0
 21 22  1  0
 22 23  2  0
 23 24  1  0
 23 25  1  0
 25 26  2  0
 26 27  1  0
 27 28  2  0
 11  7  1  0
 17 12  1  0
 28 18  1  0
 27 21  1  0
  3 29  1  0
  4 30  1  0
  4 31  1  0
  8 32  1  0
  8 33  1  0
  9 34  1  0
  9 35  1  0
 10 36  1  0
 10 37  1  0
 11 38  1  6
 13 39  1  0
 14 40  1  0
 15 41  1  0
 16 42  1  0
 19 43  1  0
 20 44  1  0
 22 45  1  0
 25 46  1  0
 26 47  1  0
M  END
>  <smiles>  (67) 
O=C(NCC(=O)N1CCCC1c1ccccn1)c1ccc2cc(Br)ccc2n1

>  <score_type>  (67) 
oracle

>  <origin>  (67) 
autodockgpu

>  <m_score__min__energy>  (67) 
-8.7200000000000006

>  <m_primary>  (67) 
energy

>  <rmsd>  (67) 
9.110167603209343

>  <m_score__min__rmsd>  (67) 
9.110167603209343

>  <meeko>  (67) 
{"free_energy": -8.18, "intermolecular_energy": -9.67, "internal_energy": -1.76, "cluster_size": 9, "cluster_id": 1, "rank_in_cluster": 5}

>  <energy>  (67) 
-8.33

>  <cluster_rmsd>  (67) 
1.45

>  <cluster>  (67) 
2

$$$$

     RDKit          3D

 47 50  0  0  0  0  0  0  0  0999 V2000
  142.1130   79.3830  216.9990 O   0  0  0  0  0  0  0  0  0  0  0  0
  142.3910   78.7820  218.0910 C   0  0  0  0  0  0  0  0  0  0  0  0
  142.2420   79.4340  219.3440 N   0  0  0  0  0  0  0  0  0  0  0  0
  141.7750   80.7900  219.4320 C   0  0  0  0  0  0  0  0  0  0  0  0
  140.9680   81.0390  220.6480 C   0  0  0  0  0  0  0  0  0  0  0  0
  139.8280   81.5790  220.5900 O   0  0  0  0  0  0  0  0  0  0  0  0
  141.4780   80.6660  221.9200 N   0  0  0  0  0  0  0  0  0  0  0  0
  141.5150   81.6220  223.0370 C   0  0  0  0  0  0  0  0  0  0  0  0
  142.5720   81.0330  223.9820 C   0  0  0  0  0  0  0  0  0  0  0  0
  142.2460   79.5620  223.8510 C   0  0  0  0  0  0  0  0  0  0  0  0
  142.0150   79.4150  222.3640 C   0  0  1  0  0  0  0  0  0  0  0  0
  141.0380   78.2950  222.1550 C   0  0  0  0  0  0  0  0  0  0  0  0
  139.8100   78.2610  222.7750 C   0  0  0  0  0  0  0  0  0  0  0  0
  138.9770   77.1760  222.5110 C   0  0  0  0  0  0  0  0  0  0  0  0
  139.4290   76.1980  221.6450 C   0  0  0  0  0  0  0  0  0  0  0  0
  140.6640   76.2480  221.0320 C   0  0  0  0  0  0  0  0  0  0  0  0
  141.4510   77.3100  221.3040 N   0  0  0  0  0  0  0  0  0  0  0  0
  142.8700   77.4010  218.0480 C   0  0  0  0  0  0  0  0  0  0  0  0
  142.9450   76.7160  216.8600 C   0  0  0  0  0  0  0  0  0  0  0  0
  143.4080   75.3970  216.8650 C   0  0  0  0  0  0  0  0  0  0  0  0
  143.7850   74.7980  218.0610 C   0  0  0  0  0  0  0  0  0  0  0  0
  144.2460   73.4940  218.0990 C   0  0  0  0  0  0  0  0  0  0  0  0
  144.6140   72.9330  219.3260 C   0  0  0  0  0  0  0  0  0  0  0  0
  145.2460   71.1220  219.2990 Br  0  0  0  0  0  0  0  0  0  0  0  0
  144.5270   73.6480  220.5010 C   0  0  0  0  0  0  0  0  0  0  0  0
  144.0600   74.9440  220.4130 C   0  0  0  0  0  0  0  0  0  0  0  0
  143.6960   75.5150  219.2320 C   0  0  0  0  0  0  0  0  0  0  0  0
  143.2460   76.7780  219.1850 N   0  0  0  0  0  0  0  0  0  0  0  0
  142.4940   78.8670  220.2080 H   0  0  0  0  0  0  0  0  0  0  0  0
  142.6458   81.4620  219.4440 H   0  0  0  0  0  0  0  0  0  0  0  0
  141.1293   80.9760  218.5611 H   0  0  0  0  0  0  0  0  0  0  0  0
  141.8133   82.6218  222.6885 H   0  0  0  0  0  0  0  0  0  0  0  0
  140.5354   81.7528  223.5201 H   0  0  0  0  0  0  0  0  0  0  0  0
  143.5941   81.2570  223.6425 H   0  0  0  0  0  0  0  0  0  0  0  0
  142.5465   81.4248  225.0095 H   0  0  0  0  0  0  0  0  0  0  0  0
  143.0857   78.9362  224.1876 H   0  0  0  0  0  0  0  0  0  0  0  0
  141.3894   79.2442  224.4636 H   0  0  0  0  0  0  0  0  0  0  0  0
  142.9315   79.1792  221.8033 H   0  0  0  0  0  0  0  0  0  0  0  0
  139.4961   79.0648  223.4572 H   0  0  0  0  0  0  0  0  0  0  0  0
  137.9848   77.0995  222.9798 H   0  0  0  0  0  0  0  0  0  0  0  0
  138.7736   75.3400  221.4348 H   0  0  0  0  0  0  0  0  0  0  0  0
  140.9945   75.4527  220.3477 H   0  0  0  0  0  0  0  0  0  0  0  0
  142.6450   77.1984  215.9180 H   0  0  0  0  0  0  0  0  0  0  0  0
  143.4739   74.8334  215.9226 H   0  0  0  0  0  0  0  0  0  0  0  0
  144.3223   72.9045  217.1734 H   0  0  0  0  0  0  0  0  0  0  0  0
  144.8167   73.2058  221.4656 H   0  0  0  0  0  0  0  0  0  0  0  0
  143.9787   75.5394  221.3343 H   0  0  0  0  0  0  0  0  0  0  0  0
  1  2  2  0
  2  3  1  0
  3  4  1  0
  4  5  1  0
  5  6  2  0
  5  7  1  0
  7  8  1  0
  8  9  1  0
  9 10  1  0
 10 11  1  0
 11 12  1  0
 12 13  2  0
 13 14  1  0
 14 15  2  0
 15 16  1  0
 16 17  2  0
  2 18  1  0
 18 19  2  0
 19 20  1  0
 20 21  2  0
 21 22  1  0
 22 23  2  0
 23 24  1  0
 23 25  1  0
 25 26  2  0
 26 27  1  0
 27 28  2  0
 11  7  1  0
 17 12  1  0
 28 18  1  0
 27 21  1  0
  3 29  1  0
  4 30  1  0
  4 31  1  0
  8 32  1  0
  8 33  1  0
  9 34  1  0
  9 35  1  0
 10 36  1  0
 10 37  1  0
 11 38  1  6
 13 39  1  0
 14 40  1  0
 15 41  1  0
 16 42  1  0
 19 43  1  0
 20 44  1  0
 22 45  1  0
 25 46  1  0
 26 47  1  0
M  END
>  <smiles>  (68) 
O=C(NCC(=O)N1CCCC1c1ccccn1)c1ccc2cc(Br)ccc2n1

>  <score_type>  (68) 
oracle

>  <origin>  (68) 
autodockgpu

>  <m_score__min__energy>  (68) 
-8.7200000000000006

>  <m_primary>  (68) 
energy

>  <rmsd>  (68) 
8.035595668128115

>  <m_score__min__rmsd>  (68) 
8.035595668128115

>  <meeko>  (68) 
{"free_energy": -6.68, "intermolecular_energy": -8.17, "internal_energy": -2.97, "cluster_size": 4, "cluster_id": 9, "rank_in_cluster": 2}

>  <energy>  (68) 
-8.14

>  <cluster_rmsd>  (68) 
1.53

>  <cluster>  (68) 
2

$$$$

     RDKit          3D

 47 50  0  0  0  0  0  0  0  0999 V2000
  139.9270   72.4610  220.5490 O   0  0  0  0  0  0  0  0  0  0  0  0
  139.8320   72.8700  221.7550 C   0  0  0  0  0  0  0  0  0  0  0  0
  139.6810   74.2520  222.0490 N   0  0  0  0  0  0  0  0  0  0  0  0
  139.6310   75.2380  221.0050 C   0  0  0  0  0  0  0  0  0  0  0  0
  140.1010   76.5690  221.4530 C   0  0  0  0  0  0  0  0  0  0  0  0
  140.0210   76.9300  222.6610 O   0  0  0  0  0  0  0  0  0  0  0  0
  140.6580   77.4730  220.5110 N   0  0  0  0  0  0  0  0  0  0  0  0
  140.0650   77.6440  219.1760 C   0  0  0  0  0  0  0  0  0  0  0  0
  141.2100   78.2410  218.3450 C   0  0  0  0  0  0  0  0  0  0  0  0
  141.8130   79.1760  219.3690 C   0  0  0  0  0  0  0  0  0  0  0  0
  141.7980   78.3320  220.6230 C   0  0  1  0  0  0  0  0  0  0  0  0
  141.6730   79.2540  221.8010 C   0  0  0  0  0  0  0  0  0  0  0  0
  142.6840   79.4200  222.7190 C   0  0  0  0  0  0  0  0  0  0  0  0
  142.4670   80.3010  223.7760 C   0  0  0  0  0  0  0  0  0  0  0  0
  141.2520   80.9580  223.8430 C   0  0  0  0  0  0  0  0  0  0  0  0
  140.2480   80.7800  222.9130 C   0  0  0  0  0  0  0  0  0  0  0  0
  140.4850   79.9210  221.8990 N   0  0  0  0  0  0  0  0  0  0  0  0
  139.8790   71.9010  222.8490 C   0  0  0  0  0  0  0  0  0  0  0  0
  139.4200   70.6180  222.6760 C   0  0  0  0  0  0  0  0  0  0  0  0
  139.4830   69.7230  223.7480 C   0  0  0  0  0  0  0  0  0  0  0  0
  140.0050   70.1380  224.9670 C   0  0  0  0  0  0  0  0  0  0  0  0
  140.0800   69.2770  226.0480 C   0  0  0  0  0  0  0  0  0  0  0  0
  140.6130   69.7390  227.2560 C   0  0  0  0  0  0  0  0  0  0  0  0
  140.6860   68.4880  228.7080 Br  0  0  0  0  0  0  0  0  0  0  0  0
  141.0650   71.0340  227.3970 C   0  0  0  0  0  0  0  0  0  0  0  0
  140.9680   71.8560  226.2920 C   0  0  0  0  0  0  0  0  0  0  0  0
  140.4540   71.4320  225.1050 C   0  0  0  0  0  0  0  0  0  0  0  0
  140.3760   72.2590  224.0510 N   0  0  0  0  0  0  0  0  0  0  0  0
  139.6090   74.5140  223.0770 H   0  0  0  0  0  0  0  0  0  0  0  0
  140.2670   74.9020  220.1728 H   0  0  0  0  0  0  0  0  0  0  0  0
  138.5802   75.3430  220.6972 H   0  0  0  0  0  0  0  0  0  0  0  0
  139.7428   76.6768  218.7627 H   0  0  0  0  0  0  0  0  0  0  0  0
  139.1676   78.2801  219.1856 H   0  0  0  0  0  0  0  0  0  0  0  0
  141.9262   77.4707  218.0230 H   0  0  0  0  0  0  0  0  0  0  0  0
  140.9008   78.7195  217.4040 H   0  0  0  0  0  0  0  0  0  0  0  0
  142.8389   79.4612  219.0929 H   0  0  0  0  0  0  0  0  0  0  0  0
  141.2699   80.1271  219.4713 H   0  0  0  0  0  0  0  0  0  0  0  0
  142.7104   77.7312  220.7521 H   0  0  0  0  0  0  0  0  0  0  0  0
  143.6340   78.8742  222.6214 H   0  0  0  0  0  0  0  0  0  0  0  0
  143.2423   80.4698  224.5379 H   0  0  0  0  0  0  0  0  0  0  0  0
  141.0777   81.6548  224.6762 H   0  0  0  0  0  0  0  0  0  0  0  0
  139.2917   81.3173  222.9948 H   0  0  0  0  0  0  0  0  0  0  0  0
  139.0084   70.2991  221.7070 H   0  0  0  0  0  0  0  0  0  0  0  0
  139.1199   68.6918  223.6267 H   0  0  0  0  0  0  0  0  0  0  0  0
  139.7241   68.2400  225.9582 H   0  0  0  0  0  0  0  0  0  0  0  0
  141.4841   71.3960  228.3474 H   0  0  0  0  0  0  0  0  0  0  0  0
  141.3201   72.8949  226.3741 H   0  0  0  0  0  0  0  0  0  0  0  0
  1  2  2  0
  2  3  1  0
  3  4  1  0
  4  5  1  0
  5  6  2  0
  5  7  1  0
  7  8  1  0
  8  9  1  0
  9 10  1  0
 10 11  1  0
 11 12  1  0
 12 13  2  0
 13 14  1  0
 14 15  2  0
 15 16  1  0
 16 17  2  0
  2 18  1  0
 18 19  2  0
 19 20  1  0
 20 21  2  0
 21 22  1  0
 22 23  2  0
 23 24  1  0
 23 25  1  0
 25 26  2  0
 26 27  1  0
 27 28  2  0
 11  7  1  0
 17 12  1  0
 28 18  1  0
 27 21  1  0
  3 29  1  0
  4 30  1  0
  4 31  1  0
  8 32  1  0
  8 33  1  0
  9 34  1  0
  9 35  1  0
 10 36  1  0
 10 37  1  0
 11 38  1  1
 13 39  1  0
 14 40  1  0
 15 41  1  0
 16 42  1  0
 19 43  1  0
 20 44  1  0
 22 45  1  0
 25 46  1  0
 26 47  1  0
M  END
>  <smiles>  (69) 
O=C(NCC(=O)N1CCCC1c1ccccn1)c1ccc2cc(Br)ccc2n1

>  <score_type>  (69) 
oracle

>  <origin>  (69) 
autodockgpu

>  <m_score__min__energy>  (69) 
-8.7200000000000006

>  <m_primary>  (69) 
energy

>  <rmsd>  (69) 
2.4190088756852233

>  <m_score__min__rmsd>  (69) 
2.4190088756852233

>  <meeko>  (69) 
{"free_energy": -8.5, "intermolecular_energy": -9.99, "internal_energy": -1.72, "cluster_size": 11, "cluster_id": 2, "rank_in_cluster": 3}

>  <energy>  (69) 
-7.99

>  <cluster_rmsd>  (69) 
0.78

>  <cluster>  (69) 
2

$$$$

     RDKit          3D

 47 50  0  0  0  0  0  0  0  0999 V2000
  138.8430   72.7190  220.6300 O   0  0  0  0  0  0  0  0  0  0  0  0
  139.7030   72.8720  221.5610 C   0  0  0  0  0  0  0  0  0  0  0  0
  140.6160   73.9610  221.5420 N   0  0  0  0  0  0  0  0  0  0  0  0
  140.6080   74.9270  220.4780 C   0  0  0  0  0  0  0  0  0  0  0  0
  140.7960   76.3130  220.9630 C   0  0  0  0  0  0  0  0  0  0  0  0
  141.8790   76.9380  220.7850 O   0  0  0  0  0  0  0  0  0  0  0  0
  139.7390   76.9680  221.6490 N   0  0  0  0  0  0  0  0  0  0  0  0
  138.7460   76.2070  222.4240 C   0  0  0  0  0  0  0  0  0  0  0  0
  137.5540   77.1690  222.5270 C   0  0  0  0  0  0  0  0  0  0  0  0
  138.2910   78.4740  222.7310 C   0  0  0  0  0  0  0  0  0  0  0  0
  139.4260   78.3610  221.7390 C   0  0  1  0  0  0  0  0  0  0  0  0
  140.5870   79.1500  222.2700 C   0  0  0  0  0  0  0  0  0  0  0  0
  141.1150   80.2290  221.6000 C   0  0  0  0  0  0  0  0  0  0  0  0
  142.1930   80.8930  222.1820 C   0  0  0  0  0  0  0  0  0  0  0  0
  142.6700   80.4320  223.3950 C   0  0  0  0  0  0  0  0  0  0  0  0
  142.1290   79.3470  224.0530 C   0  0  0  0  0  0  0  0  0  0  0  0
  141.0850   78.7230  223.4680 N   0  0  0  0  0  0  0  0  0  0  0  0
  139.7480   71.9130  222.6630 C   0  0  0  0  0  0  0  0  0  0  0  0
  139.2170   70.6530  222.5250 C   0  0  0  0  0  0  0  0  0  0  0  0
  139.2810   69.7670  223.6040 C   0  0  0  0  0  0  0  0  0  0  0  0
  139.8760   70.1660  224.7940 C   0  0  0  0  0  0  0  0  0  0  0  0
  139.9540   69.3130  225.8810 C   0  0  0  0  0  0  0  0  0  0  0  0
  140.5610   69.7570  227.0600 C   0  0  0  0  0  0  0  0  0  0  0  0
  140.6330   68.5180  228.5220 Br  0  0  0  0  0  0  0  0  0  0  0  0
  141.0850   71.0290  227.1660 C   0  0  0  0  0  0  0  0  0  0  0  0
  140.9820   71.8430  226.0570 C   0  0  0  0  0  0  0  0  0  0  0  0
  140.3970   71.4360  224.8970 C   0  0  0  0  0  0  0  0  0  0  0  0
  140.3140   72.2560  223.8380 N   0  0  0  0  0  0  0  0  0  0  0  0
  141.3020   74.0200  222.3520 H   0  0  0  0  0  0  0  0  0  0  0  0
  141.4213   74.6859  219.7777 H   0  0  0  0  0  0  0  0  0  0  0  0
  139.6231   74.8763  219.9907 H   0  0  0  0  0  0  0  0  0  0  0  0
  138.4612   75.2837  221.8982 H   0  0  0  0  0  0  0  0  0  0  0  0
  139.1239   75.8880  223.4066 H   0  0  0  0  0  0  0  0  0  0  0  0
  136.9549   77.1778  221.6045 H   0  0  0  0  0  0  0  0  0  0  0  0
  136.8230   76.9208  223.3106 H   0  0  0  0  0  0  0  0  0  0  0  0
  137.6464   79.3356  222.5025 H   0  0  0  0  0  0  0  0  0  0  0  0
  138.6253   78.6340  223.7667 H   0  0  0  0  0  0  0  0  0  0  0  0
  139.1721   78.7534  220.7432 H   0  0  0  0  0  0  0  0  0  0  0  0
  140.6996   80.5572  220.6358 H   0  0  0  0  0  0  0  0  0  0  0  0
  142.6529   81.7620  221.6888 H   0  0  0  0  0  0  0  0  0  0  0  0
  143.5205   80.9547  223.8569 H   0  0  0  0  0  0  0  0  0  0  0  0
  142.5328   79.0038  225.0169 H   0  0  0  0  0  0  0  0  0  0  0  0
  138.7481   70.3461  221.5785 H   0  0  0  0  0  0  0  0  0  0  0  0
  138.8606   68.7548  223.5109 H   0  0  0  0  0  0  0  0  0  0  0  0
  139.5422   68.2949  225.8182 H   0  0  0  0  0  0  0  0  0  0  0  0
  141.5633   71.3782  228.0930 H   0  0  0  0  0  0  0  0  0  0  0  0
  141.3894   72.8633  226.1123 H   0  0  0  0  0  0  0  0  0  0  0  0
  1  2  2  0
  2  3  1  0
  3  4  1  0
  4  5  1  0
  5  6  2  0
  5  7  1  0
  7  8  1  0
  8  9  1  0
  9 10  1  0
 10 11  1  0
 11 12  1  0
 12 13  2  0
 13 14  1  0
 14 15  2  0
 15 16  1  0
 16 17  2  0
  2 18  1  0
 18 19  2  0
 19 20  1  0
 20 21  2  0
 21 22  1  0
 22 23  2  0
 23 24  1  0
 23 25  1  0
 25 26  2  0
 26 27  1  0
 27 28  2  0
 11  7  1  0
 17 12  1  0
 28 18  1  0
 27 21  1  0
  3 29  1  0
  4 30  1  0
  4 31  1  0
  8 32  1  0
  8 33  1  0
  9 34  1  0
  9 35  1  0
 10 36  1  0
 10 37  1  0
 11 38  1  6
 13 39  1  0
 14 40  1  0
 15 41  1  0
 16 42  1  0
 19 43  1  0
 20 44  1  0
 22 45  1  0
 25 46  1  0
 26 47  1  0
M  END
>  <smiles>  (70) 
O=C(NCC(=O)N1CCCC1c1ccccn1)c1ccc2cc(Br)ccc2n1

>  <score_type>  (70) 
oracle

>  <origin>  (70) 
autodockgpu

>  <m_score__min__energy>  (70) 
-8.7200000000000006

>  <m_primary>  (70) 
energy

>  <rmsd>  (70) 
2.9471411095204703

>  <m_score__min__rmsd>  (70) 
2.9471411095204703

>  <meeko>  (70) 
{"free_energy": -7.99, "intermolecular_energy": -9.48, "internal_energy": -1.68, "cluster_size": 11, "cluster_id": 2, "rank_in_cluster": 10}

>  <energy>  (70) 
-7.99

>  <cluster_rmsd>  (70) 
0.87

>  <cluster>  (70) 
2

$$$$

     RDKit          3D

 47 50  0  0  0  0  0  0  0  0999 V2000
  139.9990   72.4700  220.5370 O   0  0  0  0  0  0  0  0  0  0  0  0
  139.8730   72.8870  221.7370 C   0  0  0  0  0  0  0  0  0  0  0  0
  139.7110   74.2700  222.0180 N   0  0  0  0  0  0  0  0  0  0  0  0
  139.6840   75.2500  220.9670 C   0  0  0  0  0  0  0  0  0  0  0  0
  140.1120   76.5910  221.4250 C   0  0  0  0  0  0  0  0  0  0  0  0
  139.9850   76.9540  222.6290 O   0  0  0  0  0  0  0  0  0  0  0  0
  140.6810   77.5030  220.4980 N   0  0  0  0  0  0  0  0  0  0  0  0
  140.0980   77.6940  219.1600 C   0  0  0  0  0  0  0  0  0  0  0  0
  141.2520   78.2940  218.3450 C   0  0  0  0  0  0  0  0  0  0  0  0
  141.8530   79.2130  219.3840 C   0  0  0  0  0  0  0  0  0  0  0  0
  141.8240   78.3550  220.6290 C   0  0  1  0  0  0  0  0  0  0  0  0
  141.6960   79.2640  221.8160 C   0  0  0  0  0  0  0  0  0  0  0  0
  140.5070   79.8640  222.1610 C   0  0  0  0  0  0  0  0  0  0  0  0
  140.4950   80.6890  223.2840 C   0  0  0  0  0  0  0  0  0  0  0  0
  141.6750   80.8580  223.9860 C   0  0  0  0  0  0  0  0  0  0  0  0
  142.8590   80.2480  223.6250 C   0  0  0  0  0  0  0  0  0  0  0  0
  142.8420   79.4540  222.5340 N   0  0  0  0  0  0  0  0  0  0  0  0
  139.8960   71.9260  222.8370 C   0  0  0  0  0  0  0  0  0  0  0  0
  139.3870   70.6590  222.6800 C   0  0  0  0  0  0  0  0  0  0  0  0
  139.4290   69.7710  223.7580 C   0  0  0  0  0  0  0  0  0  0  0  0
  139.9800   70.1750  224.9680 C   0  0  0  0  0  0  0  0  0  0  0  0
  140.0350   69.3200  226.0550 C   0  0  0  0  0  0  0  0  0  0  0  0
  140.5980   69.7700  227.2540 C   0  0  0  0  0  0  0  0  0  0  0  0
  140.6410   68.5280  228.7140 Br  0  0  0  0  0  0  0  0  0  0  0  0
  141.1010   71.0480  227.3790 C   0  0  0  0  0  0  0  0  0  0  0  0
  141.0220   71.8640  226.2690 C   0  0  0  0  0  0  0  0  0  0  0  0
  140.4790   71.4510  225.0900 C   0  0  0  0  0  0  0  0  0  0  0  0
  140.4200   72.2730  224.0310 N   0  0  0  0  0  0  0  0  0  0  0  0
  139.6130   74.5390  223.0420 H   0  0  0  0  0  0  0  0  0  0  0  0
  140.3579   74.9214  220.1621 H   0  0  0  0  0  0  0  0  0  0  0  0
  138.6442   75.3343  220.6181 H   0  0  0  0  0  0  0  0  0  0  0  0
  139.7731   76.7339  218.7326 H   0  0  0  0  0  0  0  0  0  0  0  0
  139.2043   78.3352  219.1710 H   0  0  0  0  0  0  0  0  0  0  0  0
  141.9660   77.5234  218.0189 H   0  0  0  0  0  0  0  0  0  0  0  0
  140.9522   78.7856  217.4078 H   0  0  0  0  0  0  0  0  0  0  0  0
  142.8825   79.4950  219.1185 H   0  0  0  0  0  0  0  0  0  0  0  0
  141.3145   80.1659  219.4933 H   0  0  0  0  0  0  0  0  0  0  0  0
  142.7321   77.7479  220.7589 H   0  0  0  0  0  0  0  0  0  0  0  0
  139.5948   79.6978  221.5692 H   0  0  0  0  0  0  0  0  0  0  0  0
  139.5710   81.1929  223.6040 H   0  0  0  0  0  0  0  0  0  0  0  0
  141.6692   81.5087  224.8729 H   0  0  0  0  0  0  0  0  0  0  0  0
  143.7812   80.4030  224.2043 H   0  0  0  0  0  0  0  0  0  0  0  0
  138.9523   70.3482  221.7185 H   0  0  0  0  0  0  0  0  0  0  0  0
  139.0263   68.7532  223.6489 H   0  0  0  0  0  0  0  0  0  0  0  0
  139.6398   68.2964  225.9769 H   0  0  0  0  0  0  0  0  0  0  0  0
  141.5453   71.4011  228.3213 H   0  0  0  0  0  0  0  0  0  0  0  0
  141.4134   72.8896  226.3391 H   0  0  0  0  0  0  0  0  0  0  0  0
  1  2  2  0
  2  3  1  0
  3  4  1  0
  4  5  1  0
  5  6  2  0
  5  7  1  0
  7  8  1  0
  8  9  1  0
  9 10  1  0
 10 11  1  0
 11 12  1  0
 12 13  2  0
 13 14  1  0
 14 15  2  0
 15 16  1  0
 16 17  2  0
  2 18  1  0
 18 19  2  0
 19 20  1  0
 20 21  2  0
 21 22  1  0
 22 23  2  0
 23 24  1  0
 23 25  1  0
 25 26  2  0
 26 27  1  0
 27 28  2  0
 11  7  1  0
 17 12  1  0
 28 18  1  0
 27 21  1  0
  3 29  1  0
  4 30  1  0
  4 31  1  0
  8 32  1  0
  8 33  1  0
  9 34  1  0
  9 35  1  0
 10 36  1  0
 10 37  1  0
 11 38  1  1
 13 39  1  0
 14 40  1  0
 15 41  1  0
 16 42  1  0
 19 43  1  0
 20 44  1  0
 22 45  1  0
 25 46  1  0
 26 47  1  0
M  END
>  <smiles>  (71) 
O=C(NCC(=O)N1CCCC1c1ccccn1)c1ccc2cc(Br)ccc2n1

>  <score_type>  (71) 
oracle

>  <origin>  (71) 
autodockgpu

>  <m_score__min__energy>  (71) 
-8.7200000000000006

>  <m_primary>  (71) 
energy

>  <rmsd>  (71) 
2.2970081354597913

>  <m_score__min__rmsd>  (71) 
2.2970081354597913

>  <meeko>  (71) 
{"free_energy": -8.33, "intermolecular_energy": -9.82, "internal_energy": -1.64, "cluster_size": 11, "cluster_id": 2, "rank_in_cluster": 8}

>  <energy>  (71) 
-8.22

>  <cluster_rmsd>  (71) 
0.0

>  <cluster>  (71) 
3

$$$$

     RDKit          3D

 47 50  0  0  0  0  0  0  0  0999 V2000
  140.5380   72.5220  220.3350 O   0  0  0  0  0  0  0  0  0  0  0  0
  140.0310   73.3490  221.1670 C   0  0  0  0  0  0  0  0  0  0  0  0
  138.9930   72.9520  222.0520 N   0  0  0  0  0  0  0  0  0  0  0  0
  138.4730   71.6120  222.0440 C   0  0  0  0  0  0  0  0  0  0  0  0
  138.1510   71.1170  223.4020 C   0  0  0  0  0  0  0  0  0  0  0  0
  137.4870   71.8120  224.2220 O   0  0  0  0  0  0  0  0  0  0  0  0
  138.5940   69.8300  223.8050 N   0  0  0  0  0  0  0  0  0  0  0  0
  139.0470   68.8360  222.8200 C   0  0  0  0  0  0  0  0  0  0  0  0
  138.9140   67.5010  223.5650 C   0  0  0  0  0  0  0  0  0  0  0  0
  139.3790   67.9240  224.9410 C   0  0  0  0  0  0  0  0  0  0  0  0
  138.6940   69.2610  225.1150 C   0  0  1  0  0  0  0  0  0  0  0  0
  139.5470   70.1060  226.0150 C   0  0  0  0  0  0  0  0  0  0  0  0
  139.5770   69.9310  227.3800 C   0  0  0  0  0  0  0  0  0  0  0  0
  140.4050   70.7690  228.1250 C   0  0  0  0  0  0  0  0  0  0  0  0
  141.1460   71.7250  227.4540 C   0  0  0  0  0  0  0  0  0  0  0  0
  141.1030   71.8860  226.0840 C   0  0  0  0  0  0  0  0  0  0  0  0
  140.2930   71.0610  225.3870 N   0  0  0  0  0  0  0  0  0  0  0  0
  140.5290   74.7220  221.2080 C   0  0  0  0  0  0  0  0  0  0  0  0
  141.5740   75.1200  220.4100 C   0  0  0  0  0  0  0  0  0  0  0  0
  142.0190   76.4430  220.4810 C   0  0  0  0  0  0  0  0  0  0  0  0
  141.4050   77.3350  221.3520 C   0  0  0  0  0  0  0  0  0  0  0  0
  141.8220   78.6510  221.4470 C   0  0  0  0  0  0  0  0  0  0  0  0
  141.1750   79.5130  222.3370 C   0  0  0  0  0  0  0  0  0  0  0  0
  141.8070   81.3220  222.4120 Br  0  0  0  0  0  0  0  0  0  0  0  0
  140.1280   79.0830  223.1250 C   0  0  0  0  0  0  0  0  0  0  0  0
  139.7480   77.7620  222.9960 C   0  0  0  0  0  0  0  0  0  0  0  0
  140.3610   76.9020  222.1370 C   0  0  0  0  0  0  0  0  0  0  0  0
  139.9650   75.6240  222.0390 N   0  0  0  0  0  0  0  0  0  0  0  0
  138.6230   73.6970  222.7140 H   0  0  0  0  0  0  0  0  0  0  0  0
  137.5565   71.5936  221.4360 H   0  0  0  0  0  0  0  0  0  0  0  0
  139.2508   70.9558  221.6264 H   0  0  0  0  0  0  0  0  0  0  0  0
  138.4081   68.8512  221.9247 H   0  0  0  0  0  0  0  0  0  0  0  0
  140.0698   69.0251  222.4622 H   0  0  0  0  0  0  0  0  0  0  0  0
  137.8744   67.1417  223.5774 H   0  0  0  0  0  0  0  0  0  0  0  0
  139.4743   66.6643  223.1223 H   0  0  0  0  0  0  0  0  0  0  0  0
  139.0542   67.2069  225.7093 H   0  0  0  0  0  0  0  0  0  0  0  0
  140.4734   67.9732  225.0406 H   0  0  0  0  0  0  0  0  0  0  0  0
  137.6944   69.1807  225.5670 H   0  0  0  0  0  0  0  0  0  0  0  0
  138.9676   69.1554  227.8669 H   0  0  0  0  0  0  0  0  0  0  0  0
  140.4676   70.6725  229.2190 H   0  0  0  0  0  0  0  0  0  0  0  0
  141.8000   72.3878  228.0396 H   0  0  0  0  0  0  0  0  0  0  0  0
  141.7050   72.6563  225.5798 H   0  0  0  0  0  0  0  0  0  0  0  0
  142.0543   74.4067  219.7241 H   0  0  0  0  0  0  0  0  0  0  0  0
  142.8542   76.7778  219.8482 H   0  0  0  0  0  0  0  0  0  0  0  0
  142.6550   79.0154  220.8278 H   0  0  0  0  0  0  0  0  0  0  0  0
  139.6187   79.7619  223.8247 H   0  0  0  0  0  0  0  0  0  0  0  0
  138.9164   77.3894  223.6121 H   0  0  0  0  0  0  0  0  0  0  0  0
  1  2  2  0
  2  3  1  0
  3  4  1  0
  4  5  1  0
  5  6  2  0
  5  7  1  0
  7  8  1  0
  8  9  1  0
  9 10  1  0
 10 11  1  0
 11 12  1  0
 12 13  2  0
 13 14  1  0
 14 15  2  0
 15 16  1  0
 16 17  2  0
  2 18  1  0
 18 19  2  0
 19 20  1  0
 20 21  2  0
 21 22  1  0
 22 23  2  0
 23 24  1  0
 23 25  1  0
 25 26  2  0
 26 27  1  0
 27 28  2  0
 11  7  1  0
 17 12  1  0
 28 18  1  0
 27 21  1  0
  3 29  1  0
  4 30  1  0
  4 31  1  0
  8 32  1  0
  8 33  1  0
  9 34  1  0
  9 35  1  0
 10 36  1  0
 10 37  1  0
 11 38  1  1
 13 39  1  0
 14 40  1  0
 15 41  1  0
 16 42  1  0
 19 43  1  0
 20 44  1  0
 22 45  1  0
 25 46  1  0
 26 47  1  0
M  END
>  <smiles>  (72) 
O=C(NCC(=O)N1CCCC1c1ccccn1)c1ccc2cc(Br)ccc2n1

>  <score_type>  (72) 
oracle

>  <origin>  (72) 
autodockgpu

>  <m_score__min__energy>  (72) 
-8.7200000000000006

>  <m_primary>  (72) 
energy

>  <rmsd>  (72) 
9.023753241596703

>  <m_score__min__rmsd>  (72) 
9.023753241596703

>  <meeko>  (72) 
{"free_energy": -7.74, "intermolecular_energy": -9.24, "internal_energy": -1.81, "cluster_size": 3, "cluster_id": 4, "rank_in_cluster": 1}

>  <energy>  (72) 
-8.22

>  <cluster_rmsd>  (72) 
0.17

>  <cluster>  (72) 
3

$$$$

     RDKit          3D

 47 50  0  0  0  0  0  0  0  0999 V2000
  140.7420   72.5860  220.6510 O   0  0  0  0  0  0  0  0  0  0  0  0
  140.1390   72.8890  221.7360 C   0  0  0  0  0  0  0  0  0  0  0  0
  139.5110   74.1530  221.8950 N   0  0  0  0  0  0  0  0  0  0  0  0
  139.5310   75.1370  220.8480 C   0  0  0  0  0  0  0  0  0  0  0  0
  140.0600   76.4430  221.3010 C   0  0  0  0  0  0  0  0  0  0  0  0
  141.2770   76.7520  221.1620 O   0  0  0  0  0  0  0  0  0  0  0  0
  139.1870   77.3820  221.9110 N   0  0  0  0  0  0  0  0  0  0  0  0
  138.0380   76.9440  222.7180 C   0  0  0  0  0  0  0  0  0  0  0  0
  137.1100   78.1660  222.7200 C   0  0  0  0  0  0  0  0  0  0  0  0
  138.1350   79.2710  222.8410 C   0  0  0  0  0  0  0  0  0  0  0  0
  139.2150   78.8130  221.8870 C   0  0  1  0  0  0  0  0  0  0  0  0
  140.5280   79.3430  222.3840 C   0  0  0  0  0  0  0  0  0  0  0  0
  141.3260   80.1680  221.6240 C   0  0  0  0  0  0  0  0  0  0  0  0
  142.5270   80.6050  222.1800 C   0  0  0  0  0  0  0  0  0  0  0  0
  142.8480   80.1880  223.4590 C   0  0  0  0  0  0  0  0  0  0  0  0
  142.0350   79.3600  224.2060 C   0  0  0  0  0  0  0  0  0  0  0  0
  140.8780   78.9520  223.6440 N   0  0  0  0  0  0  0  0  0  0  0  0
  140.0950   71.9180  222.8270 C   0  0  0  0  0  0  0  0  0  0  0  0
  139.5630   70.6660  222.6390 C   0  0  0  0  0  0  0  0  0  0  0  0
  139.5400   69.7680  223.7110 C   0  0  0  0  0  0  0  0  0  0  0  0
  140.0520   70.1490  224.9450 C   0  0  0  0  0  0  0  0  0  0  0  0
  140.0440   69.2850  226.0260 C   0  0  0  0  0  0  0  0  0  0  0  0
  140.5700   69.7120  227.2490 C   0  0  0  0  0  0  0  0  0  0  0  0
  140.5260   68.4590  228.7000 Br  0  0  0  0  0  0  0  0  0  0  0  0
  141.0980   70.9770  227.4050 C   0  0  0  0  0  0  0  0  0  0  0  0
  141.0830   71.8030  226.3000 C   0  0  0  0  0  0  0  0  0  0  0  0
  140.5780   71.4130  225.0980 C   0  0  0  0  0  0  0  0  0  0  0  0
  140.5800   72.2430  224.0440 N   0  0  0  0  0  0  0  0  0  0  0  0
  139.0310   74.3300  222.8270 H   0  0  0  0  0  0  0  0  0  0  0  0
  140.1642   74.7660  220.0286 H   0  0  0  0  0  0  0  0  0  0  0  0
  138.4927   75.2948  220.5207 H   0  0  0  0  0  0  0  0  0  0  0  0
  137.5431   76.0761  222.2578 H   0  0  0  0  0  0  0  0  0  0  0  0
  138.3247   76.6240  223.7306 H   0  0  0  0  0  0  0  0  0  0  0  0
  136.5342   78.2433  221.7860 H   0  0  0  0  0  0  0  0  0  0  0  0
  136.3379   78.1612  223.5035 H   0  0  0  0  0  0  0  0  0  0  0  0
  137.7151   80.2397  222.5323 H   0  0  0  0  0  0  0  0  0  0  0  0
  138.4930   79.4297  223.8689 H   0  0  0  0  0  0  0  0  0  0  0  0
  139.0667   79.1740  220.8585 H   0  0  0  0  0  0  0  0  0  0  0  0
  141.0255   80.4725  220.6106 H   0  0  0  0  0  0  0  0  0  0  0  0
  143.2025   81.2649  221.6158 H   0  0  0  0  0  0  0  0  0  0  0  0
  143.7947   80.5321  223.9011 H   0  0  0  0  0  0  0  0  0  0  0  0
  142.3193   79.0447  225.2208 H   0  0  0  0  0  0  0  0  0  0  0  0
  139.1602   70.3732  221.6582 H   0  0  0  0  0  0  0  0  0  0  0  0
  139.1171   68.7614  223.5772 H   0  0  0  0  0  0  0  0  0  0  0  0
  139.6278   68.2719  225.9240 H   0  0  0  0  0  0  0  0  0  0  0  0
  141.5124   71.3120  228.3673 H   0  0  0  0  0  0  0  0  0  0  0  0
  141.4960   72.8181  226.3944 H   0  0  0  0  0  0  0  0  0  0  0  0
  1  2  2  0
  2  3  1  0
  3  4  1  0
  4  5  1  0
  5  6  2  0
  5  7  1  0
  7  8  1  0
  8  9  1  0
  9 10  1  0
 10 11  1  0
 11 12  1  0
 12 13  2  0
 13 14  1  0
 14 15  2  0
 15 16  1  0
 16 17  2  0
  2 18  1  0
 18 19  2  0
 19 20  1  0
 20 21  2  0
 21 22  1  0
 22 23  2  0
 23 24  1  0
 23 25  1  0
 25 26  2  0
 26 27  1  0
 27 28  2  0
 11  7  1  0
 17 12  1  0
 28 18  1  0
 27 21  1  0
  3 29  1  0
  4 30  1  0
  4 31  1  0
  8 32  1  0
  8 33  1  0
  9 34  1  0
  9 35  1  0
 10 36  1  0
 10 37  1  0
 11 38  1  6
 13 39  1  0
 14 40  1  0
 15 41  1  0
 16 42  1  0
 19 43  1  0
 20 44  1  0
 22 45  1  0
 25 46  1  0
 26 47  1  0
M  END
>  <smiles>  (73) 
O=C(NCC(=O)N1CCCC1c1ccccn1)c1ccc2cc(Br)ccc2n1

>  <score_type>  (73) 
oracle

>  <origin>  (73) 
autodockgpu

>  <m_score__min__energy>  (73) 
-8.7200000000000006

>  <m_primary>  (73) 
energy

>  <rmsd>  (73) 
3.0924890042356106

>  <m_score__min__rmsd>  (73) 
3.0924890042356106

>  <meeko>  (73) 
{"free_energy": -8.51, "intermolecular_energy": -10.0, "internal_energy": -1.35, "cluster_size": 11, "cluster_id": 2, "rank_in_cluster": 1}

>  <energy>  (73) 
-8.2

>  <cluster_rmsd>  (73) 
0.13

>  <cluster>  (73) 
3

$$$$

     RDKit          3D

 47 50  0  0  0  0  0  0  0  0999 V2000
  139.7960   72.4720  220.5470 O   0  0  0  0  0  0  0  0  0  0  0  0
  139.7550   72.8780  221.7580 C   0  0  0  0  0  0  0  0  0  0  0  0
  139.6280   74.2600  222.0620 N   0  0  0  0  0  0  0  0  0  0  0  0
  139.5430   75.2500  221.0240 C   0  0  0  0  0  0  0  0  0  0  0  0
  140.0380   76.5770  221.4580 C   0  0  0  0  0  0  0  0  0  0  0  0
  139.9500   76.9580  222.6590 O   0  0  0  0  0  0  0  0  0  0  0  0
  140.6290   77.4520  220.5100 N   0  0  0  0  0  0  0  0  0  0  0  0
  140.0550   77.6200  219.1650 C   0  0  0  0  0  0  0  0  0  0  0  0
  141.2240   78.1740  218.3390 C   0  0  0  0  0  0  0  0  0  0  0  0
  141.8400   79.1080  219.3570 C   0  0  0  0  0  0  0  0  0  0  0  0
  141.7890   78.2830  220.6230 C   0  0  1  0  0  0  0  0  0  0  0  0
  141.6750   79.2250  221.7860 C   0  0  0  0  0  0  0  0  0  0  0  0
  142.7050   79.4240  222.6770 C   0  0  0  0  0  0  0  0  0  0  0  0
  142.4960   80.3220  223.7230 C   0  0  0  0  0  0  0  0  0  0  0  0
  141.2720   80.9590  223.8060 C   0  0  0  0  0  0  0  0  0  0  0  0
  140.2500   80.7470  222.9030 C   0  0  0  0  0  0  0  0  0  0  0  0
  140.4790   79.8730  221.9000 N   0  0  0  0  0  0  0  0  0  0  0  0
  139.8400   71.9050  222.8450 C   0  0  0  0  0  0  0  0  0  0  0  0
  139.4180   70.6090  222.6680 C   0  0  0  0  0  0  0  0  0  0  0  0
  139.5170   69.7110  223.7340 C   0  0  0  0  0  0  0  0  0  0  0  0
  140.0360   70.1340  224.9520 C   0  0  0  0  0  0  0  0  0  0  0  0
  140.1460   69.2700  226.0270 C   0  0  0  0  0  0  0  0  0  0  0  0
  140.6750   69.7400  227.2330 C   0  0  0  0  0  0  0  0  0  0  0  0
  140.7970   68.4840  228.6770 Br  0  0  0  0  0  0  0  0  0  0  0  0
  141.0890   71.0470  227.3780 C   0  0  0  0  0  0  0  0  0  0  0  0
  140.9590   71.8720  226.2790 C   0  0  0  0  0  0  0  0  0  0  0  0
  140.4480   71.4400  225.0930 C   0  0  0  0  0  0  0  0  0  0  0  0
  140.3360   72.2700  224.0450 N   0  0  0  0  0  0  0  0  0  0  0  0
  139.6020   74.5190  223.0930 H   0  0  0  0  0  0  0  0  0  0  0  0
  140.1441   74.9134  220.1665 H   0  0  0  0  0  0  0  0  0  0  0  0
  138.4816   75.3620  220.7577 H   0  0  0  0  0  0  0  0  0  0  0  0
  139.7114   76.6560  218.7616 H   0  0  0  0  0  0  0  0  0  0  0  0
  139.1751   78.2800  219.1557 H   0  0  0  0  0  0  0  0  0  0  0  0
  141.9231   77.3805  218.0364 H   0  0  0  0  0  0  0  0  0  0  0  0
  140.9382   78.6465  217.3876 H   0  0  0  0  0  0  0  0  0  0  0  0
  142.8760   79.3624  219.0887 H   0  0  0  0  0  0  0  0  0  0  0  0
  141.3207   80.0742  219.4395 H   0  0  0  0  0  0  0  0  0  0  0  0
  142.6839   77.6609  220.7715 H   0  0  0  0  0  0  0  0  0  0  0  0
  143.6616   78.8921  222.5675 H   0  0  0  0  0  0  0  0  0  0  0  0
  143.2853   80.5186  224.4635 H   0  0  0  0  0  0  0  0  0  0  0  0
  141.1047   81.6680  224.6302 H   0  0  0  0  0  0  0  0  0  0  0  0
  139.2867   81.2697  222.9969 H   0  0  0  0  0  0  0  0  0  0  0  0
  139.0080   70.2832  221.7006 H   0  0  0  0  0  0  0  0  0  0  0  0
  139.1844   68.6699  223.6093 H   0  0  0  0  0  0  0  0  0  0  0  0
  139.8204   68.2234  225.9338 H   0  0  0  0  0  0  0  0  0  0  0  0
  141.5045   71.4160  228.3273 H   0  0  0  0  0  0  0  0  0  0  0  0
  141.2810   72.9203  226.3647 H   0  0  0  0  0  0  0  0  0  0  0  0
  1  2  2  0
  2  3  1  0
  3  4  1  0
  4  5  1  0
  5  6  2  0
  5  7  1  0
  7  8  1  0
  8  9  1  0
  9 10  1  0
 10 11  1  0
 11 12  1  0
 12 13  2  0
 13 14  1  0
 14 15  2  0
 15 16  1  0
 16 17  2  0
  2 18  1  0
 18 19  2  0
 19 20  1  0
 20 21  2  0
 21 22  1  0
 22 23  2  0
 23 24  1  0
 23 25  1  0
 25 26  2  0
 26 27  1  0
 27 28  2  0
 11  7  1  0
 17 12  1  0
 28 18  1  0
 27 21  1  0
  3 29  1  0
  4 30  1  0
  4 31  1  0
  8 32  1  0
  8 33  1  0
  9 34  1  0
  9 35  1  0
 10 36  1  0
 10 37  1  0
 11 38  1  1
 13 39  1  0
 14 40  1  0
 15 41  1  0
 16 42  1  0
 19 43  1  0
 20 44  1  0
 22 45  1  0
 25 46  1  0
 26 47  1  0
M  END
>  <smiles>  (74) 
O=C(NCC(=O)N1CCCC1c1ccccn1)c1ccc2cc(Br)ccc2n1

>  <score_type>  (74) 
oracle

>  <origin>  (74) 
autodockgpu

>  <m_score__min__energy>  (74) 
-8.7200000000000006

>  <m_primary>  (74) 
energy

>  <rmsd>  (74) 
2.3951243419911856

>  <m_score__min__rmsd>  (74) 
2.3951243419911856

>  <meeko>  (74) 
{"free_energy": -8.48, "intermolecular_energy": -9.98, "internal_energy": -1.73, "cluster_size": 11, "cluster_id": 2, "rank_in_cluster": 4}

>  <energy>  (74) 
-8.13

>  <cluster_rmsd>  (74) 
0.18

>  <cluster>  (74) 
3

$$$$

     RDKit          3D

 47 50  0  0  0  0  0  0  0  0999 V2000
  139.9520   72.4750  220.5510 O   0  0  0  0  0  0  0  0  0  0  0  0
  139.8710   72.8840  221.7580 C   0  0  0  0  0  0  0  0  0  0  0  0
  139.7300   74.2650  222.0550 N   0  0  0  0  0  0  0  0  0  0  0  0
  139.6730   75.2530  221.0130 C   0  0  0  0  0  0  0  0  0  0  0  0
  140.6840   76.3210  221.1820 C   0  0  0  0  0  0  0  0  0  0  0  0
  140.8230   76.9380  222.2760 O   0  0  0  0  0  0  0  0  0  0  0  0
  141.5270   76.6710  220.0940 N   0  0  0  0  0  0  0  0  0  0  0  0
  141.8370   78.0770  219.7910 C   0  0  0  0  0  0  0  0  0  0  0  0
  142.2810   78.0410  218.3220 C   0  0  0  0  0  0  0  0  0  0  0  0
  143.0730   76.7540  218.3220 C   0  0  0  0  0  0  0  0  0  0  0  0
  142.1960   75.8360  219.1440 C   0  0  1  0  0  0  0  0  0  0  0  0
  143.0820   74.8340  219.8250 C   0  0  0  0  0  0  0  0  0  0  0  0
  142.6500   73.5690  220.1510 C   0  0  0  0  0  0  0  0  0  0  0  0
  143.5530   72.7150  220.7810 C   0  0  0  0  0  0  0  0  0  0  0  0
  144.8270   73.1840  221.0420 C   0  0  0  0  0  0  0  0  0  0  0  0
  145.2430   74.4570  220.7080 C   0  0  0  0  0  0  0  0  0  0  0  0
  144.3490   75.2630  220.0980 N   0  0  0  0  0  0  0  0  0  0  0  0
  139.9260   71.9130  222.8490 C   0  0  0  0  0  0  0  0  0  0  0  0
  139.5100   70.6170  222.6640 C   0  0  0  0  0  0  0  0  0  0  0  0
  139.5790   69.7210  223.7350 C   0  0  0  0  0  0  0  0  0  0  0  0
  140.0640   70.1480  224.9660 C   0  0  0  0  0  0  0  0  0  0  0  0
  140.1440   69.2860  226.0460 C   0  0  0  0  0  0  0  0  0  0  0  0
  140.6380   69.7600  227.2650 C   0  0  0  0  0  0  0  0  0  0  0  0
  140.7210   68.5080  228.7150 Br  0  0  0  0  0  0  0  0  0  0  0  0
  141.0480   71.0680  227.4190 C   0  0  0  0  0  0  0  0  0  0  0  0
  140.9480   71.8890  226.3140 C   0  0  0  0  0  0  0  0  0  0  0  0
  140.4710   71.4540  225.1150 C   0  0  0  0  0  0  0  0  0  0  0  0
  140.3880   72.2820  224.0620 N   0  0  0  0  0  0  0  0  0  0  0  0
  139.6700   74.5270  223.0840 H   0  0  0  0  0  0  0  0  0  0  0  0
  139.8446   74.7558  220.0469 H   0  0  0  0  0  0  0  0  0  0  0  0
  138.6805   75.7252  221.0571 H   0  0  0  0  0  0  0  0  0  0  0  0
  140.9471   78.7112  219.9168 H   0  0  0  0  0  0  0  0  0  0  0  0
  142.6028   78.4990  220.4585 H   0  0  0  0  0  0  0  0  0  0  0  0
  141.4221   77.9924  217.6365 H   0  0  0  0  0  0  0  0  0  0  0  0
  142.8361   78.9280  217.9827 H   0  0  0  0  0  0  0  0  0  0  0  0
  143.2064   76.3683  217.3005 H   0  0  0  0  0  0  0  0  0  0  0  0
  144.0920   76.8639  218.7214 H   0  0  0  0  0  0  0  0  0  0  0  0
  141.4580   75.2867  218.5409 H   0  0  0  0  0  0  0  0  0  0  0  0
  141.6249   73.2424  219.9217 H   0  0  0  0  0  0  0  0  0  0  0  0
  143.2595   71.6932  221.0636 H   0  0  0  0  0  0  0  0  0  0  0  0
  145.5421   72.5117  221.5387 H   0  0  0  0  0  0  0  0  0  0  0  0
  146.2638   74.8012  220.9304 H   0  0  0  0  0  0  0  0  0  0  0  0
  139.1277   70.2885  221.6863 H   0  0  0  0  0  0  0  0  0  0  0  0
  139.2500   68.6796  223.6039 H   0  0  0  0  0  0  0  0  0  0  0  0
  139.8222   68.2389  225.9462 H   0  0  0  0  0  0  0  0  0  0  0  0
  141.4368   71.4397  228.3785 H   0  0  0  0  0  0  0  0  0  0  0  0
  141.2667   72.9378  226.4057 H   0  0  0  0  0  0  0  0  0  0  0  0
  1  2  2  0
  2  3  1  0
  3  4  1  0
  4  5  1  0
  5  6  2  0
  5  7  1  0
  7  8  1  0
  8  9  1  0
  9 10  1  0
 10 11  1  0
 11 12  1  0
 12 13  2  0
 13 14  1  0
 14 15  2  0
 15 16  1  0
 16 17  2  0
  2 18  1  0
 18 19  2  0
 19 20  1  0
 20 21  2  0
 21 22  1  0
 22 23  2  0
 23 24  1  0
 23 25  1  0
 25 26  2  0
 26 27  1  0
 27 28  2  0
 11  7  1  0
 17 12  1  0
 28 18  1  0
 27 21  1  0
  3 29  1  0
  4 30  1  0
  4 31  1  0
  8 32  1  0
  8 33  1  0
  9 34  1  0
  9 35  1  0
 10 36  1  0
 10 37  1  0
 11 38  1  6
 13 39  1  0
 14 40  1  0
 15 41  1  0
 16 42  1  0
 19 43  1  0
 20 44  1  0
 22 45  1  0
 25 46  1  0
 26 47  1  0
M  END
>  <smiles>  (75) 
O=C(NCC(=O)N1CCCC1c1ccccn1)c1ccc2cc(Br)ccc2n1

>  <score_type>  (75) 
oracle

>  <origin>  (75) 
autodockgpu

>  <m_score__min__energy>  (75) 
-8.7200000000000006

>  <m_primary>  (75) 
energy

>  <rmsd>  (75) 
4.096522094297124

>  <m_score__min__rmsd>  (75) 
4.096522094297124

>  <meeko>  (75) 
{"free_energy": -8.08, "intermolecular_energy": -9.57, "internal_energy": -2.01, "cluster_size": 10, "cluster_id": 3, "rank_in_cluster": 7}

>  <energy>  (75) 
-8.12

>  <cluster_rmsd>  (75) 
0.23

>  <cluster>  (75) 
3

$$$$

     RDKit          3D

 47 50  0  0  0  0  0  0  0  0999 V2000
  140.0270   74.1100  221.9290 O   0  0  0  0  0  0  0  0  0  0  0  0
  140.3920   72.9010  221.7380 C   0  0  0  0  0  0  0  0  0  0  0  0
  140.9160   72.4840  220.4850 N   0  0  0  0  0  0  0  0  0  0  0  0
  141.0550   73.4020  219.3880 C   0  0  0  0  0  0  0  0  0  0  0  0
  142.3590   73.2760  218.6990 C   0  0  0  0  0  0  0  0  0  0  0  0
  142.4410   73.2020  217.4400 O   0  0  0  0  0  0  0  0  0  0  0  0
  143.5560   73.2340  219.4610 N   0  0  0  0  0  0  0  0  0  0  0  0
  143.7580   74.1260  220.6130 C   0  0  0  0  0  0  0  0  0  0  0  0
  145.2830   74.1480  220.7910 C   0  0  0  0  0  0  0  0  0  0  0  0
  145.5990   72.6980  220.5000 C   0  0  0  0  0  0  0  0  0  0  0  0
  144.7170   72.4100  219.3060 C   0  0  1  0  0  0  0  0  0  0  0  0
  144.3600   70.9530  219.3320 C   0  0  0  0  0  0  0  0  0  0  0  0
  145.2780   69.9630  219.0670 C   0  0  0  0  0  0  0  0  0  0  0  0
  144.8440   68.6400  219.1190 C   0  0  0  0  0  0  0  0  0  0  0  0
  143.5200   68.3970  219.4340 C   0  0  0  0  0  0  0  0  0  0  0  0
  142.6120   69.4020  219.6970 C   0  0  0  0  0  0  0  0  0  0  0  0
  143.0590   70.6740  219.6400 N   0  0  0  0  0  0  0  0  0  0  0  0
  140.2680   71.9330  222.8260 C   0  0  0  0  0  0  0  0  0  0  0  0
  139.7100   70.6960  222.6130 C   0  0  0  0  0  0  0  0  0  0  0  0
  139.6100   69.8010  223.6820 C   0  0  0  0  0  0  0  0  0  0  0  0
  140.0740   70.1690  224.9390 C   0  0  0  0  0  0  0  0  0  0  0  0
  139.9890   69.3070  226.0180 C   0  0  0  0  0  0  0  0  0  0  0  0
  140.4680   69.7200  227.2650 C   0  0  0  0  0  0  0  0  0  0  0  0
  140.3180   68.4700  228.7120 Br  0  0  0  0  0  0  0  0  0  0  0  0
  141.0240   70.9690  227.4470 C   0  0  0  0  0  0  0  0  0  0  0  0
  141.0860   71.7940  226.3420 C   0  0  0  0  0  0  0  0  0  0  0  0
  140.6270   71.4170  225.1170 C   0  0  0  0  0  0  0  0  0  0  0  0
  140.7040   72.2460  224.0650 N   0  0  0  0  0  0  0  0  0  0  0  0
  141.1980   71.4610  220.4040 H   0  0  0  0  0  0  0  0  0  0  0  0
  140.2527   73.2060  218.6614 H   0  0  0  0  0  0  0  0  0  0  0  0
  140.9930   74.4210  219.7977 H   0  0  0  0  0  0  0  0  0  0  0  0
  143.3729   75.1344  220.4010 H   0  0  0  0  0  0  0  0  0  0  0  0
  143.2277   73.7857  221.5147 H   0  0  0  0  0  0  0  0  0  0  0  0
  145.7687   74.8244  220.0723 H   0  0  0  0  0  0  0  0  0  0  0  0
  145.6314   74.5122  221.7688 H   0  0  0  0  0  0  0  0  0  0  0  0
  146.6622   72.5640  220.2516 H   0  0  0  0  0  0  0  0  0  0  0  0
  145.4183   72.0277  221.3533 H   0  0  0  0  0  0  0  0  0  0  0  0
  145.2059   72.6257  218.3445 H   0  0  0  0  0  0  0  0  0  0  0  0
  146.3219   70.2083  218.8218 H   0  0  0  0  0  0  0  0  0  0  0  0
  145.5368   67.8104  218.9147 H   0  0  0  0  0  0  0  0  0  0  0  0
  143.1743   67.3536  219.4770 H   0  0  0  0  0  0  0  0  0  0  0  0
  141.5643   69.1752  219.9436 H   0  0  0  0  0  0  0  0  0  0  0  0
  139.3465   70.4134  221.6140 H   0  0  0  0  0  0  0  0  0  0  0  0
  139.1647   68.8070  223.5284 H   0  0  0  0  0  0  0  0  0  0  0  0
  139.5488   68.3063  225.8959 H   0  0  0  0  0  0  0  0  0  0  0  0
  141.4010   71.2931  228.4283 H   0  0  0  0  0  0  0  0  0  0  0  0
  141.5240   72.7966  226.4558 H   0  0  0  0  0  0  0  0  0  0  0  0
  1  2  2  0
  2  3  1  0
  3  4  1  0
  4  5  1  0
  5  6  2  0
  5  7  1  0
  7  8  1  0
  8  9  1  0
  9 10  1  0
 10 11  1  0
 11 12  1  0
 12 13  2  0
 13 14  1  0
 14 15  2  0
 15 16  1  0
 16 17  2  0
  2 18  1  0
 18 19  2  0
 19 20  1  0
 20 21  2  0
 21 22  1  0
 22 23  2  0
 23 24  1  0
 23 25  1  0
 25 26  2  0
 26 27  1  0
 27 28  2  0
 11  7  1  0
 17 12  1  0
 28 18  1  0
 27 21  1  0
  3 29  1  0
  4 30  1  0
  4 31  1  0
  8 32  1  0
  8 33  1  0
  9 34  1  0
  9 35  1  0
 10 36  1  0
 10 37  1  0
 11 38  1  6
 13 39  1  0
 14 40  1  0
 15 41  1  0
 16 42  1  0
 19 43  1  0
 20 44  1  0
 22 45  1  0
 25 46  1  0
 26 47  1  0
M  END
>  <smiles>  (76) 
O=C(NCC(=O)N1CCCC1c1ccccn1)c1ccc2cc(Br)ccc2n1

>  <score_type>  (76) 
oracle

>  <origin>  (76) 
autodockgpu

>  <m_score__min__energy>  (76) 
-8.7200000000000006

>  <m_primary>  (76) 
energy

>  <rmsd>  (76) 
6.398139178361805

>  <m_score__min__rmsd>  (76) 
6.398139178361805

>  <meeko>  (76) 
{"free_energy": -7.34, "intermolecular_energy": -8.83, "internal_energy": -2.29, "cluster_size": 1, "cluster_id": 6, "rank_in_cluster": 1}

>  <energy>  (76) 
-8.08

>  <cluster_rmsd>  (76) 
0.52

>  <cluster>  (76) 
3

$$$$

     RDKit          3D

 47 50  0  0  0  0  0  0  0  0999 V2000
  133.9940   69.2240  226.4480 O   0  0  0  0  0  0  0  0  0  0  0  0
  134.3630   70.3530  225.9790 C   0  0  0  0  0  0  0  0  0  0  0  0
  135.4190   70.4430  225.0340 N   0  0  0  0  0  0  0  0  0  0  0  0
  136.1110   69.2710  224.5700 C   0  0  0  0  0  0  0  0  0  0  0  0
  137.5560   69.2960  224.8940 C   0  0  0  0  0  0  0  0  0  0  0  0
  138.0720   68.4680  225.6960 O   0  0  0  0  0  0  0  0  0  0  0  0
  138.3950   70.2720  224.2930 N   0  0  0  0  0  0  0  0  0  0  0  0
  137.8410   71.3240  223.4270 C   0  0  0  0  0  0  0  0  0  0  0  0
  139.0500   71.7850  222.6010 C   0  0  0  0  0  0  0  0  0  0  0  0
  140.1240   71.7390  223.6640 C   0  0  0  0  0  0  0  0  0  0  0  0
  139.8130   70.4430  224.3790 C   0  0  1  0  0  0  0  0  0  0  0  0
  140.2630   70.5790  225.8040 C   0  0  0  0  0  0  0  0  0  0  0  0
  140.5460   69.4900  226.5960 C   0  0  0  0  0  0  0  0  0  0  0  0
  140.9570   69.7270  227.9060 C   0  0  0  0  0  0  0  0  0  0  0  0
  141.0580   71.0370  228.3350 C   0  0  0  0  0  0  0  0  0  0  0  0
  140.7690   72.1180  227.5270 C   0  0  0  0  0  0  0  0  0  0  0  0
  140.3740   71.8610  226.2630 N   0  0  0  0  0  0  0  0  0  0  0  0
  133.6870   71.5710  226.4240 C   0  0  0  0  0  0  0  0  0  0  0  0
  132.5360   71.5080  227.1710 C   0  0  0  0  0  0  0  0  0  0  0  0
  131.9220   72.6960  227.5750 C   0  0  0  0  0  0  0  0  0  0  0  0
  132.4780   73.9190  227.2200 C   0  0  0  0  0  0  0  0  0  0  0  0
  131.8940   75.1140  227.6030 C   0  0  0  0  0  0  0  0  0  0  0  0
  132.4890   76.3210  227.2230 C   0  0  0  0  0  0  0  0  0  0  0  0
  131.6230   77.9350  227.7920 Br  0  0  0  0  0  0  0  0  0  0  0  0
  133.6460   76.3500  226.4730 C   0  0  0  0  0  0  0  0  0  0  0  0
  134.1900   75.1340  226.1130 C   0  0  0  0  0  0  0  0  0  0  0  0
  133.6320   73.9450  226.4700 C   0  0  0  0  0  0  0  0  0  0  0  0
  134.1900   72.7810  226.1020 N   0  0  0  0  0  0  0  0  0  0  0  0
  135.6690   71.4180  224.6920 H   0  0  0  0  0  0  0  0  0  0  0  0
  135.6596   68.3857  225.0417 H   0  0  0  0  0  0  0  0  0  0  0  0
  136.0161   69.2404  223.4745 H   0  0  0  0  0  0  0  0  0  0  0  0
  137.0511   70.9213  222.7760 H   0  0  0  0  0  0  0  0  0  0  0  0
  137.3735   72.1424  223.9941 H   0  0  0  0  0  0  0  0  0  0  0  0
  139.2657   71.0948  221.7721 H   0  0  0  0  0  0  0  0  0  0  0  0
  138.9291   72.7594  222.1051 H   0  0  0  0  0  0  0  0  0  0  0  0
  141.1281   71.7156  223.2153 H   0  0  0  0  0  0  0  0  0  0  0  0
  140.1273   72.6177  224.3257 H   0  0  0  0  0  0  0  0  0  0  0  0
  140.3234   69.5726  223.9408 H   0  0  0  0  0  0  0  0  0  0  0  0
  140.4508   68.4653  226.2074 H   0  0  0  0  0  0  0  0  0  0  0  0
  141.1951   68.8925  228.5819 H   0  0  0  0  0  0  0  0  0  0  0  0
  141.3838   71.2269  229.3683 H   0  0  0  0  0  0  0  0  0  0  0  0
  140.8574   73.1493  227.8993 H   0  0  0  0  0  0  0  0  0  0  0  0
  132.1035   70.5351  227.4474 H   0  0  0  0  0  0  0  0  0  0  0  0
  130.9996   72.6633  228.1734 H   0  0  0  0  0  0  0  0  0  0  0  0
  130.9705   75.1142  228.2007 H   0  0  0  0  0  0  0  0  0  0  0  0
  134.1141   77.2998  226.1752 H   0  0  0  0  0  0  0  0  0  0  0  0
  135.1120   75.1253  225.5132 H   0  0  0  0  0  0  0  0  0  0  0  0
  1  2  2  0
  2  3  1  0
  3  4  1  0
  4  5  1  0
  5  6  2  0
  5  7  1  0
  7  8  1  0
  8  9  1  0
  9 10  1  0
 10 11  1  0
 11 12  1  0
 12 13  2  0
 13 14  1  0
 14 15  2  0
 15 16  1  0
 16 17  2  0
  2 18  1  0
 18 19  2  0
 19 20  1  0
 20 21  2  0
 21 22  1  0
 22 23  2  0
 23 24  1  0
 23 25  1  0
 25 26  2  0
 26 27  1  0
 27 28  2  0
 11  7  1  0
 17 12  1  0
 28 18  1  0
 27 21  1  0
  3 29  1  0
  4 30  1  0
  4 31  1  0
  8 32  1  0
  8 33  1  0
  9 34  1  0
  9 35  1  0
 10 36  1  0
 10 37  1  0
 11 38  1  6
 13 39  1  0
 14 40  1  0
 15 41  1  0
 16 42  1  0
 19 43  1  0
 20 44  1  0
 22 45  1  0
 25 46  1  0
 26 47  1  0
M  END
>  <smiles>  (77) 
O=C(NCC(=O)N1CCCC1c1ccccn1)c1ccc2cc(Br)ccc2n1

>  <score_type>  (77) 
oracle

>  <origin>  (77) 
autodockgpu

>  <m_score__min__energy>  (77) 
-8.7200000000000006

>  <m_primary>  (77) 
energy

>  <rmsd>  (77) 
8.763657251433454

>  <m_score__min__rmsd>  (77) 
8.763657251433454

>  <meeko>  (77) 
{"free_energy": -8.72, "intermolecular_energy": -10.21, "internal_energy": -1.58, "cluster_size": 9, "cluster_id": 1, "rank_in_cluster": 1}

>  <energy>  (77) 
-8.08

>  <cluster_rmsd>  (77) 
0.52

>  <cluster>  (77) 
3

$$$$

     RDKit          3D

 47 50  0  0  0  0  0  0  0  0999 V2000
  139.7770   72.5290  220.5110 O   0  0  0  0  0  0  0  0  0  0  0  0
  139.7730   72.9110  221.7300 C   0  0  0  0  0  0  0  0  0  0  0  0
  139.6820   74.2890  222.0640 N   0  0  0  0  0  0  0  0  0  0  0  0
  139.5930   75.3020  221.0480 C   0  0  0  0  0  0  0  0  0  0  0  0
  140.5540   76.4080  221.2580 C   0  0  0  0  0  0  0  0  0  0  0  0
  140.6440   77.0090  222.3650 O   0  0  0  0  0  0  0  0  0  0  0  0
  141.4030   76.8130  220.1940 N   0  0  0  0  0  0  0  0  0  0  0  0
  141.7370   78.2310  219.9830 C   0  0  0  0  0  0  0  0  0  0  0  0
  142.1810   78.2820  218.5140 C   0  0  0  0  0  0  0  0  0  0  0  0
  142.9520   76.9840  218.4310 C   0  0  0  0  0  0  0  0  0  0  0  0
  142.0590   76.0300  219.1920 C   0  0  1  0  0  0  0  0  0  0  0  0
  142.9280   74.9710  219.8070 C   0  0  0  0  0  0  0  0  0  0  0  0
  144.2500   75.1900  220.1180 C   0  0  0  0  0  0  0  0  0  0  0  0
  144.9670   74.1400  220.6870 C   0  0  0  0  0  0  0  0  0  0  0  0
  144.3130   72.9420  220.9070 C   0  0  0  0  0  0  0  0  0  0  0  0
  142.9860   72.7400  220.5880 C   0  0  0  0  0  0  0  0  0  0  0  0
  142.3140   73.7740  220.0390 N   0  0  0  0  0  0  0  0  0  0  0  0
  139.8640   71.9150  222.7960 C   0  0  0  0  0  0  0  0  0  0  0  0
  139.4690   70.6160  222.5840 C   0  0  0  0  0  0  0  0  0  0  0  0
  139.5720   69.6960  223.6310 C   0  0  0  0  0  0  0  0  0  0  0  0
  140.0690   70.1000  224.8640 C   0  0  0  0  0  0  0  0  0  0  0  0
  140.1830   69.2140  225.9200 C   0  0  0  0  0  0  0  0  0  0  0  0
  140.6880   69.6660  227.1440 C   0  0  0  0  0  0  0  0  0  0  0  0
  140.8180   68.3800  228.5600 Br  0  0  0  0  0  0  0  0  0  0  0  0
  141.0760   70.9770  227.3230 C   0  0  0  0  0  0  0  0  0  0  0  0
  140.9430   71.8240  226.2420 C   0  0  0  0  0  0  0  0  0  0  0  0
  140.4540   71.4100  225.0400 C   0  0  0  0  0  0  0  0  0  0  0  0
  140.3390   72.2620  224.0100 N   0  0  0  0  0  0  0  0  0  0  0  0
  139.6860   74.5280  223.1000 H   0  0  0  0  0  0  0  0  0  0  0  0
  139.7969   74.8394  220.0711 H   0  0  0  0  0  0  0  0  0  0  0  0
  138.5803   75.7290  221.0926 H   0  0  0  0  0  0  0  0  0  0  0  0
  140.8579   78.8707  220.1501 H   0  0  0  0  0  0  0  0  0  0  0  0
  142.5092   78.5962  220.6761 H   0  0  0  0  0  0  0  0  0  0  0  0
  141.3217   78.2916  217.8274 H   0  0  0  0  0  0  0  0  0  0  0  0
  142.7508   79.1796  218.2318 H   0  0  0  0  0  0  0  0  0  0  0  0
  143.0800   76.6627  217.3868 H   0  0  0  0  0  0  0  0  0  0  0  0
  143.9723   77.0509  218.8366 H   0  0  0  0  0  0  0  0  0  0  0  0
  141.3124   75.5333  218.5549 H   0  0  0  0  0  0  0  0  0  0  0  0
  144.7255   76.1627  219.9237 H   0  0  0  0  0  0  0  0  0  0  0  0
  146.0271   74.2610  220.9546 H   0  0  0  0  0  0  0  0  0  0  0  0
  144.8767   72.1115  221.3571 H   0  0  0  0  0  0  0  0  0  0  0  0
  142.4945   71.7736  220.7739 H   0  0  0  0  0  0  0  0  0  0  0  0
  139.0774   70.3048  221.6043 H   0  0  0  0  0  0  0  0  0  0  0  0
  139.2597   68.6523  223.4789 H   0  0  0  0  0  0  0  0  0  0  0  0
  139.8794   68.1637  225.7986 H   0  0  0  0  0  0  0  0  0  0  0  0
  141.4740   71.3319  228.2851 H   0  0  0  0  0  0  0  0  0  0  0  0
  141.2440   72.8759  226.3554 H   0  0  0  0  0  0  0  0  0  0  0  0
  1  2  2  0
  2  3  1  0
  3  4  1  0
  4  5  1  0
  5  6  2  0
  5  7  1  0
  7  8  1  0
  8  9  1  0
  9 10  1  0
 10 11  1  0
 11 12  1  0
 12 13  2  0
 13 14  1  0
 14 15  2  0
 15 16  1  0
 16 17  2  0
  2 18  1  0
 18 19  2  0
 19 20  1  0
 20 21  2  0
 21 22  1  0
 22 23  2  0
 23 24  1  0
 23 25  1  0
 25 26  2  0
 26 27  1  0
 27 28  2  0
 11  7  1  0
 17 12  1  0
 28 18  1  0
 27 21  1  0
  3 29  1  0
  4 30  1  0
  4 31  1  0
  8 32  1  0
  8 33  1  0
  9 34  1  0
  9 35  1  0
 10 36  1  0
 10 37  1  0
 11 38  1  6
 13 39  1  0
 14 40  1  0
 15 41  1  0
 16 42  1  0
 19 43  1  0
 20 44  1  0
 22 45  1  0
 25 46  1  0
 26 47  1  0
M  END
>  <smiles>  (78) 
O=C(NCC(=O)N1CCCC1c1ccccn1)c1ccc2cc(Br)ccc2n1

>  <score_type>  (78) 
oracle

>  <origin>  (78) 
autodockgpu

>  <m_score__min__energy>  (78) 
-8.7200000000000006

>  <m_primary>  (78) 
energy

>  <rmsd>  (78) 
3.9102933518656444

>  <m_score__min__rmsd>  (78) 
3.9102933518656444

>  <meeko>  (78) 
{"free_energy": -8.05, "intermolecular_energy": -9.54, "internal_energy": -2.08, "cluster_size": 10, "cluster_id": 3, "rank_in_cluster": 9}

>  <energy>  (78) 
-8.06

>  <cluster_rmsd>  (78) 
0.34

>  <cluster>  (78) 
3

$$$$

     RDKit          3D

 47 50  0  0  0  0  0  0  0  0999 V2000
  135.0950   68.4630  224.9000 O   0  0  0  0  0  0  0  0  0  0  0  0
  135.5430   69.6580  224.9520 C   0  0  0  0  0  0  0  0  0  0  0  0
  136.8290   69.9800  224.4450 N   0  0  0  0  0  0  0  0  0  0  0  0
  137.6750   68.9780  223.8560 C   0  0  0  0  0  0  0  0  0  0  0  0
  138.8090   68.6030  224.7310 C   0  0  0  0  0  0  0  0  0  0  0  0
  139.1420   67.3970  224.9070 O   0  0  0  0  0  0  0  0  0  0  0  0
  139.5500   69.6150  225.3960 N   0  0  0  0  0  0  0  0  0  0  0  0
  140.5690   69.2780  226.4020 C   0  0  0  0  0  0  0  0  0  0  0  0
  140.7170   70.5720  227.2140 C   0  0  0  0  0  0  0  0  0  0  0  0
  140.6180   71.5900  226.1000 C   0  0  0  0  0  0  0  0  0  0  0  0
  139.4890   71.0390  225.2600 C   0  0  1  0  0  0  0  0  0  0  0  0
  139.7170   71.4630  223.8390 C   0  0  0  0  0  0  0  0  0  0  0  0
  140.9730   71.5250  223.2800 C   0  0  0  0  0  0  0  0  0  0  0  0
  141.0740   71.9310  221.9510 C   0  0  0  0  0  0  0  0  0  0  0  0
  139.9130   72.2480  221.2710 C   0  0  0  0  0  0  0  0  0  0  0  0
  138.6610   72.1800  221.8480 C   0  0  0  0  0  0  0  0  0  0  0  0
  138.5910   71.7840  223.1360 N   0  0  0  0  0  0  0  0  0  0  0  0
  134.7160   70.7090  225.5430 C   0  0  0  0  0  0  0  0  0  0  0  0
  133.6550   70.3990  226.3590 C   0  0  0  0  0  0  0  0  0  0  0  0
  132.8910   71.4350  226.9040 C   0  0  0  0  0  0  0  0  0  0  0  0
  133.2090   72.7560  226.6160 C   0  0  0  0  0  0  0  0  0  0  0  0
  132.4720   73.8040  227.1380 C   0  0  0  0  0  0  0  0  0  0  0  0
  132.8290   75.1190  226.8210 C   0  0  0  0  0  0  0  0  0  0  0  0
  131.7620   76.5180  227.5830 Br  0  0  0  0  0  0  0  0  0  0  0  0
  133.9010   75.3970  225.9990 C   0  0  0  0  0  0  0  0  0  0  0  0
  134.6050   74.3190  225.5010 C   0  0  0  0  0  0  0  0  0  0  0  0
  134.2790   73.0300  225.7940 C   0  0  0  0  0  0  0  0  0  0  0  0
  134.9870   72.0070  225.2920 N   0  0  0  0  0  0  0  0  0  0  0  0
  137.1310   70.9970  224.5250 H   0  0  0  0  0  0  0  0  0  0  0  0
  137.0715   68.0800  223.6574 H   0  0  0  0  0  0  0  0  0  0  0  0
  138.0941   69.3987  222.9301 H   0  0  0  0  0  0  0  0  0  0  0  0
  140.2304   68.4496  227.0416 H   0  0  0  0  0  0  0  0  0  0  0  0
  141.5167   68.9435  225.9547 H   0  0  0  0  0  0  0  0  0  0  0  0
  139.9060   70.6890  227.9479 H   0  0  0  0  0  0  0  0  0  0  0  0
  141.6311   70.6366  227.8225 H   0  0  0  0  0  0  0  0  0  0  0  0
  140.3722   72.5877  226.4927 H   0  0  0  0  0  0  0  0  0  0  0  0
  141.5564   71.7256  225.5424 H   0  0  0  0  0  0  0  0  0  0  0  0
  138.4992   71.4041  225.5714 H   0  0  0  0  0  0  0  0  0  0  0  0
  141.8679   71.2626  223.8633 H   0  0  0  0  0  0  0  0  0  0  0  0
  142.0536   71.9976  221.4551 H   0  0  0  0  0  0  0  0  0  0  0  0
  139.9905   72.5692  220.2218 H   0  0  0  0  0  0  0  0  0  0  0  0
  137.7553   72.4386  221.2798 H   0  0  0  0  0  0  0  0  0  0  0  0
  133.4100   69.3497  226.5804 H   0  0  0  0  0  0  0  0  0  0  0  0
  132.0389   71.2043  227.5603 H   0  0  0  0  0  0  0  0  0  0  0  0
  131.6133   73.6052  227.7961 H   0  0  0  0  0  0  0  0  0  0  0  0
  134.1824   76.4312  225.7513 H   0  0  0  0  0  0  0  0  0  0  0  0
  135.4640   74.5091  224.8408 H   0  0  0  0  0  0  0  0  0  0  0  0
  1  2  2  0
  2  3  1  0
  3  4  1  0
  4  5  1  0
  5  6  2  0
  5  7  1  0
  7  8  1  0
  8  9  1  0
  9 10  1  0
 10 11  1  0
 11 12  1  0
 12 13  2  0
 13 14  1  0
 14 15  2  0
 15 16  1  0
 16 17  2  0
  2 18  1  0
 18 19  2  0
 19 20  1  0
 20 21  2  0
 21 22  1  0
 22 23  2  0
 23 24  1  0
 23 25  1  0
 25 26  2  0
 26 27  1  0
 27 28  2  0
 11  7  1  0
 17 12  1  0
 28 18  1  0
 27 21  1  0
  3 29  1  0
  4 30  1  0
  4 31  1  0
  8 32  1  0
  8 33  1  0
  9 34  1  0
  9 35  1  0
 10 36  1  0
 10 37  1  0
 11 38  1  1
 13 39  1  0
 14 40  1  0
 15 41  1  0
 16 42  1  0
 19 43  1  0
 20 44  1  0
 22 45  1  0
 25 46  1  0
 26 47  1  0
M  END
>  <smiles>  (79) 
O=C(NCC(=O)N1CCCC1c1ccccn1)c1ccc2cc(Br)ccc2n1

>  <score_type>  (79) 
oracle

>  <origin>  (79) 
autodockgpu

>  <m_score__min__energy>  (79) 
-8.7200000000000006

>  <m_primary>  (79) 
energy

>  <rmsd>  (79) 
8.210127704386437

>  <m_score__min__rmsd>  (79) 
8.210127704386437

>  <meeko>  (79) 
{"free_energy": -7.53, "intermolecular_energy": -9.02, "internal_energy": -2.44, "cluster_size": 4, "cluster_id": 5, "rank_in_cluster": 3}

>  <energy>  (79) 
-8.05

>  <cluster_rmsd>  (79) 
0.13

>  <cluster>  (79) 
3

$$$$

     RDKit          3D

 47 50  0  0  0  0  0  0  0  0999 V2000
  140.9300   75.1170  218.7370 O   0  0  0  0  0  0  0  0  0  0  0  0
  141.0290   75.0390  220.0080 C   0  0  0  0  0  0  0  0  0  0  0  0
  141.8050   75.9770  220.7390 N   0  0  0  0  0  0  0  0  0  0  0  0
  142.5070   77.0440  220.0810 C   0  0  0  0  0  0  0  0  0  0  0  0
  141.8400   78.3560  220.2500 C   0  0  0  0  0  0  0  0  0  0  0  0
  141.2970   78.9550  219.2790 O   0  0  0  0  0  0  0  0  0  0  0  0
  141.8040   78.9670  221.5310 N   0  0  0  0  0  0  0  0  0  0  0  0
  142.2050   80.3700  221.7170 C   0  0  0  0  0  0  0  0  0  0  0  0
  142.5300   80.4570  223.2150 C   0  0  0  0  0  0  0  0  0  0  0  0
  141.4290   79.5820  223.7710 C   0  0  0  0  0  0  0  0  0  0  0  0
  141.4150   78.4260  222.7970 C   0  0  1  0  0  0  0  0  0  0  0  0
  140.0190   77.8750  222.7510 C   0  0  0  0  0  0  0  0  0  0  0  0
  138.9060   78.6830  222.7820 C   0  0  0  0  0  0  0  0  0  0  0  0
  137.6550   78.0700  222.7320 C   0  0  0  0  0  0  0  0  0  0  0  0
  137.6030   76.6900  222.6550 C   0  0  0  0  0  0  0  0  0  0  0  0
  138.7310   75.8960  222.6250 C   0  0  0  0  0  0  0  0  0  0  0  0
  139.9300   76.5150  222.6740 N   0  0  0  0  0  0  0  0  0  0  0  0
  140.3330   73.9680  220.7180 C   0  0  0  0  0  0  0  0  0  0  0  0
  139.2390   73.3470  220.1640 C   0  0  0  0  0  0  0  0  0  0  0  0
  138.6020   72.3280  220.8780 C   0  0  0  0  0  0  0  0  0  0  0  0
  139.0780   71.9570  222.1300 C   0  0  0  0  0  0  0  0  0  0  0  0
  138.4700   70.9530  222.8620 C   0  0  0  0  0  0  0  0  0  0  0  0
  138.9830   70.6120  224.1180 C   0  0  0  0  0  0  0  0  0  0  0  0
  138.0880   69.2110  225.0730 Br  0  0  0  0  0  0  0  0  0  0  0  0
  140.0830   71.2550  224.6460 C   0  0  0  0  0  0  0  0  0  0  0  0
  140.6550   72.2510  223.8790 C   0  0  0  0  0  0  0  0  0  0  0  0
  140.1760   72.6010  222.6540 C   0  0  0  0  0  0  0  0  0  0  0  0
  140.7570   73.5750  221.9370 N   0  0  0  0  0  0  0  0  0  0  0  0
  141.8390   75.8450  221.7940 H   0  0  0  0  0  0  0  0  0  0  0  0
  143.5221   77.1086  220.4999 H   0  0  0  0  0  0  0  0  0  0  0  0
  142.5251   76.8163  219.0050 H   0  0  0  0  0  0  0  0  0  0  0  0
  143.0896   80.6096  221.1086 H   0  0  0  0  0  0  0  0  0  0  0  0
  141.4260   81.0819  221.4066 H   0  0  0  0  0  0  0  0  0  0  0  0
  143.5274   80.0519  223.4410 H   0  0  0  0  0  0  0  0  0  0  0  0
  142.5635   81.4774  223.6244 H   0  0  0  0  0  0  0  0  0  0  0  0
  141.6664   79.2419  224.7898 H   0  0  0  0  0  0  0  0  0  0  0  0
  140.4602   80.0954  223.8599 H   0  0  0  0  0  0  0  0  0  0  0  0
  142.0964   77.6108  223.0820 H   0  0  0  0  0  0  0  0  0  0  0  0
  139.0002   79.7772  222.8442 H   0  0  0  0  0  0  0  0  0  0  0  0
  136.7325   78.6687  222.7532 H   0  0  0  0  0  0  0  0  0  0  0  0
  136.6173   76.2033  222.6159 H   0  0  0  0  0  0  0  0  0  0  0  0
  138.6563   74.8003  222.5635 H   0  0  0  0  0  0  0  0  0  0  0  0
  138.8699   73.6478  219.1724 H   0  0  0  0  0  0  0  0  0  0  0  0
  137.7252   71.8204  220.4496 H   0  0  0  0  0  0  0  0  0  0  0  0
  137.5911   70.4275  222.4601 H   0  0  0  0  0  0  0  0  0  0  0  0
  140.4865   70.9866  225.6335 H   0  0  0  0  0  0  0  0  0  0  0  0
  141.5331   72.7829  224.2741 H   0  0  0  0  0  0  0  0  0  0  0  0
  1  2  2  0
  2  3  1  0
  3  4  1  0
  4  5  1  0
  5  6  2  0
  5  7  1  0
  7  8  1  0
  8  9  1  0
  9 10  1  0
 10 11  1  0
 11 12  1  0
 12 13  2  0
 13 14  1  0
 14 15  2  0
 15 16  1  0
 16 17  2  0
  2 18  1  0
 18 19  2  0
 19 20  1  0
 20 21  2  0
 21 22  1  0
 22 23  2  0
 23 24  1  0
 23 25  1  0
 25 26  2  0
 26 27  1  0
 27 28  2  0
 11  7  1  0
 17 12  1  0
 28 18  1  0
 27 21  1  0
  3 29  1  0
  4 30  1  0
  4 31  1  0
  8 32  1  0
  8 33  1  0
  9 34  1  0
  9 35  1  0
 10 36  1  0
 10 37  1  0
 11 38  1  1
 13 39  1  0
 14 40  1  0
 15 41  1  0
 16 42  1  0
 19 43  1  0
 20 44  1  0
 22 45  1  0
 25 46  1  0
 26 47  1  0
M  END
>  <smiles>  (80) 
O=C(NCC(=O)N1CCCC1c1ccccn1)c1ccc2cc(Br)ccc2n1

>  <score_type>  (80) 
oracle

>  <origin>  (80) 
autodockgpu

>  <m_score__min__energy>  (80) 
-8.7200000000000006

>  <m_primary>  (80) 
energy

>  <rmsd>  (80) 
5.1900125361536675

>  <m_score__min__rmsd>  (80) 
5.1900125361536675

>  <meeko>  (80) 
{"free_energy": -6.54, "intermolecular_energy": -8.03, "internal_energy": -2.89, "cluster_size": 1, "cluster_id": 10, "rank_in_cluster": 1}

>  <energy>  (80) 
-8.02

>  <cluster_rmsd>  (80) 
0.46

>  <cluster>  (80) 
3

$$$$

     RDKit          3D

 47 50  0  0  0  0  0  0  0  0999 V2000
  140.0460   72.4810  220.5730 O   0  0  0  0  0  0  0  0  0  0  0  0
  139.8900   72.8590  221.7830 C   0  0  0  0  0  0  0  0  0  0  0  0
  139.6780   74.2270  222.1010 N   0  0  0  0  0  0  0  0  0  0  0  0
  139.6330   75.2350  221.0780 C   0  0  0  0  0  0  0  0  0  0  0  0
  140.7800   76.1690  221.1460 C   0  0  0  0  0  0  0  0  0  0  0  0
  141.1000   76.7520  222.2200 O   0  0  0  0  0  0  0  0  0  0  0  0
  141.5480   76.4250  219.9800 N   0  0  0  0  0  0  0  0  0  0  0  0
  141.8310   77.8000  219.5400 C   0  0  0  0  0  0  0  0  0  0  0  0
  142.1800   77.6390  218.0530 C   0  0  0  0  0  0  0  0  0  0  0  0
  142.9770   76.3550  218.1110 C   0  0  0  0  0  0  0  0  0  0  0  0
  142.1590   75.5110  219.0630 C   0  0  1  0  0  0  0  0  0  0  0  0
  143.0920   74.5700  219.7670 C   0  0  0  0  0  0  0  0  0  0  0  0
  144.3380   74.9560  220.2050 C   0  0  0  0  0  0  0  0  0  0  0  0
  145.1260   74.0040  220.8490 C   0  0  0  0  0  0  0  0  0  0  0  0
  144.6130   72.7300  221.0130 C   0  0  0  0  0  0  0  0  0  0  0  0
  143.3600   72.3610  220.5670 C   0  0  0  0  0  0  0  0  0  0  0  0
  142.6180   73.3020  219.9470 N   0  0  0  0  0  0  0  0  0  0  0  0
  139.9290   71.8660  222.8560 C   0  0  0  0  0  0  0  0  0  0  0  0
  139.4820   70.5840  222.6490 C   0  0  0  0  0  0  0  0  0  0  0  0
  139.5380   69.6660  223.7020 C   0  0  0  0  0  0  0  0  0  0  0  0
  140.0410   70.0580  224.9370 C   0  0  0  0  0  0  0  0  0  0  0  0
  140.1080   69.1740  226.0000 C   0  0  0  0  0  0  0  0  0  0  0  0
  140.6210   69.6130  227.2250 C   0  0  0  0  0  0  0  0  0  0  0  0
  140.6850   68.3320  228.6500 Br  0  0  0  0  0  0  0  0  0  0  0  0
  141.0620   70.9080  227.4000 C   0  0  0  0  0  0  0  0  0  0  0  0
  140.9740   71.7530  226.3120 C   0  0  0  0  0  0  0  0  0  0  0  0
  140.4790   71.3520  225.1080 C   0  0  0  0  0  0  0  0  0  0  0  0
  140.4080   72.2010  224.0720 N   0  0  0  0  0  0  0  0  0  0  0  0
  139.5570   74.4620  223.1310 H   0  0  0  0  0  0  0  0  0  0  0  0
  139.6398   74.7401  220.0956 H   0  0  0  0  0  0  0  0  0  0  0  0
  138.7159   75.8230  221.2307 H   0  0  0  0  0  0  0  0  0  0  0  0
  140.9479   78.4431  219.6687 H   0  0  0  0  0  0  0  0  0  0  0  0
  142.6359   78.2767  220.1187 H   0  0  0  0  0  0  0  0  0  0  0  0
  141.2790   77.5331  217.4309 H   0  0  0  0  0  0  0  0  0  0  0  0
  142.7080   78.4935  217.6047 H   0  0  0  0  0  0  0  0  0  0  0  0
  143.0460   75.8837  217.1194 H   0  0  0  0  0  0  0  0  0  0  0  0
  144.0192   76.4975  218.4328 H   0  0  0  0  0  0  0  0  0  0  0  0
  141.3859   74.9129  218.5584 H   0  0  0  0  0  0  0  0  0  0  0  0
  144.7005   75.9832  220.0517 H   0  0  0  0  0  0  0  0  0  0  0  0
  146.1305   74.2592  221.2176 H   0  0  0  0  0  0  0  0  0  0  0  0
  145.2319   71.9765  221.5221 H   0  0  0  0  0  0  0  0  0  0  0  0
  142.9808   71.3386  220.7115 H   0  0  0  0  0  0  0  0  0  0  0  0
  139.0853   70.2835  221.6680 H   0  0  0  0  0  0  0  0  0  0  0  0
  139.1845   68.6350  223.5533 H   0  0  0  0  0  0  0  0  0  0  0  0
  139.7613   68.1367  225.8826 H   0  0  0  0  0  0  0  0  0  0  0  0
  141.4658   71.2522  228.3636 H   0  0  0  0  0  0  0  0  0  0  0  0
  141.3175   72.7922  226.4217 H   0  0  0  0  0  0  0  0  0  0  0  0
  1  2  2  0
  2  3  1  0
  3  4  1  0
  4  5  1  0
  5  6  2  0
  5  7  1  0
  7  8  1  0
  8  9  1  0
  9 10  1  0
 10 11  1  0
 11 12  1  0
 12 13  2  0
 13 14  1  0
 14 15  2  0
 15 16  1  0
 16 17  2  0
  2 18  1  0
 18 19  2  0
 19 20  1  0
 20 21  2  0
 21 22  1  0
 22 23  2  0
 23 24  1  0
 23 25  1  0
 25 26  2  0
 26 27  1  0
 27 28  2  0
 11  7  1  0
 17 12  1  0
 28 18  1  0
 27 21  1  0
  3 29  1  0
  4 30  1  0
  4 31  1  0
  8 32  1  0
  8 33  1  0
  9 34  1  0
  9 35  1  0
 10 36  1  0
 10 37  1  0
 11 38  1  6
 13 39  1  0
 14 40  1  0
 15 41  1  0
 16 42  1  0
 19 43  1  0
 20 44  1  0
 22 45  1  0
 25 46  1  0
 26 47  1  0
M  END
>  <smiles>  (81) 
O=C(NCC(=O)N1CCCC1c1ccccn1)c1ccc2cc(Br)ccc2n1

>  <score_type>  (81) 
oracle

>  <origin>  (81) 
autodockgpu

>  <m_score__min__energy>  (81) 
-8.7200000000000006

>  <m_primary>  (81) 
energy

>  <rmsd>  (81) 
3.981868205865318

>  <m_score__min__rmsd>  (81) 
3.981868205865318

>  <meeko>  (81) 
{"free_energy": -8.06, "intermolecular_energy": -9.55, "internal_energy": -2.01, "cluster_size": 10, "cluster_id": 3, "rank_in_cluster": 8}

>  <energy>  (81) 
-7.74

>  <cluster_rmsd>  (81) 
0.0

>  <cluster>  (81) 
4

$$$$

     RDKit          3D

 47 50  0  0  0  0  0  0  0  0999 V2000
  134.1400   69.2450  226.4710 O   0  0  0  0  0  0  0  0  0  0  0  0
  134.4530   70.3740  225.9630 C   0  0  0  0  0  0  0  0  0  0  0  0
  135.4630   70.4760  224.9700 N   0  0  0  0  0  0  0  0  0  0  0  0
  136.1710   69.3170  224.5010 C   0  0  0  0  0  0  0  0  0  0  0  0
  137.6030   69.3310  224.8770 C   0  0  0  0  0  0  0  0  0  0  0  0
  138.0770   68.5180  225.7200 O   0  0  0  0  0  0  0  0  0  0  0  0
  138.4780   70.2790  224.2830 N   0  0  0  0  0  0  0  0  0  0  0  0
  137.9670   71.3370  223.3970 C   0  0  0  0  0  0  0  0  0  0  0  0
  139.2020   71.7590  222.5900 C   0  0  0  0  0  0  0  0  0  0  0  0
  140.2550   71.6960  223.6730 C   0  0  0  0  0  0  0  0  0  0  0  0
  139.8980   70.4150  224.3930 C   0  0  1  0  0  0  0  0  0  0  0  0
  140.3250   70.5530  225.8250 C   0  0  0  0  0  0  0  0  0  0  0  0
  140.5860   69.4650  226.6260 C   0  0  0  0  0  0  0  0  0  0  0  0
  140.9770   69.7030  227.9420 C   0  0  0  0  0  0  0  0  0  0  0  0
  141.0820   71.0150  228.3680 C   0  0  0  0  0  0  0  0  0  0  0  0
  140.8160   72.0940  227.5510 C   0  0  0  0  0  0  0  0  0  0  0  0
  140.4390   71.8350  226.2810 N   0  0  0  0  0  0  0  0  0  0  0  0
  133.7580   71.5790  226.4130 C   0  0  0  0  0  0  0  0  0  0  0  0
  132.6110   71.4960  227.1640 C   0  0  0  0  0  0  0  0  0  0  0  0
  131.9790   72.6740  227.5730 C   0  0  0  0  0  0  0  0  0  0  0  0
  132.5130   73.9060  227.2170 C   0  0  0  0  0  0  0  0  0  0  0  0
  131.9100   75.0900  227.6050 C   0  0  0  0  0  0  0  0  0  0  0  0
  132.4830   76.3080  227.2240 C   0  0  0  0  0  0  0  0  0  0  0  0
  131.5930   77.9060  227.8000 Br  0  0  0  0  0  0  0  0  0  0  0  0
  133.6360   76.3580  226.4690 C   0  0  0  0  0  0  0  0  0  0  0  0
  134.2000   75.1520  226.1050 C   0  0  0  0  0  0  0  0  0  0  0  0
  133.6630   73.9520  226.4630 C   0  0  0  0  0  0  0  0  0  0  0  0
  134.2390   72.7990  226.0910 N   0  0  0  0  0  0  0  0  0  0  0  0
  135.6660   71.4510  224.5980 H   0  0  0  0  0  0  0  0  0  0  0  0
  135.7027   68.4201  224.9325 H   0  0  0  0  0  0  0  0  0  0  0  0
  136.1160   69.3162  223.4024 H   0  0  0  0  0  0  0  0  0  0  0  0
  137.1791   70.9484  222.7350 H   0  0  0  0  0  0  0  0  0  0  0  0
  137.5103   72.1724  223.9479 H   0  0  0  0  0  0  0  0  0  0  0  0
  139.4151   71.0556  221.7715 H   0  0  0  0  0  0  0  0  0  0  0  0
  139.1151   72.7315  222.0833 H   0  0  0  0  0  0  0  0  0  0  0  0
  141.2662   71.6433  223.2433 H   0  0  0  0  0  0  0  0  0  0  0  0
  140.2688   72.5805  224.3269 H   0  0  0  0  0  0  0  0  0  0  0  0
  140.3938   69.5282  223.9714 H   0  0  0  0  0  0  0  0  0  0  0  0
  140.4890   68.4397  226.2396 H   0  0  0  0  0  0  0  0  0  0  0  0
  141.1966   68.8690  228.6248 H   0  0  0  0  0  0  0  0  0  0  0  0
  141.3919   71.2065  229.4059 H   0  0  0  0  0  0  0  0  0  0  0  0
  140.9076   73.1261  227.9202 H   0  0  0  0  0  0  0  0  0  0  0  0
  132.1952   70.5157  227.4400 H   0  0  0  0  0  0  0  0  0  0  0  0
  131.0602   72.6254  228.1759 H   0  0  0  0  0  0  0  0  0  0  0  0
  130.9894   75.0733  228.2069 H   0  0  0  0  0  0  0  0  0  0  0  0
  134.0861   77.3162  226.1702 H   0  0  0  0  0  0  0  0  0  0  0  0
  135.1198   75.1599  225.5018 H   0  0  0  0  0  0  0  0  0  0  0  0
  1  2  2  0
  2  3  1  0
  3  4  1  0
  4  5  1  0
  5  6  2  0
  5  7  1  0
  7  8  1  0
  8  9  1  0
  9 10  1  0
 10 11  1  0
 11 12  1  0
 12 13  2  0
 13 14  1  0
 14 15  2  0
 15 16  1  0
 16 17  2  0
  2 18  1  0
 18 19  2  0
 19 20  1  0
 20 21  2  0
 21 22  1  0
 22 23  2  0
 23 24  1  0
 23 25  1  0
 25 26  2  0
 26 27  1  0
 27 28  2  0
 11  7  1  0
 17 12  1  0
 28 18  1  0
 27 21  1  0
  3 29  1  0
  4 30  1  0
  4 31  1  0
  8 32  1  0
  8 33  1  0
  9 34  1  0
  9 35  1  0
 10 36  1  0
 10 37  1  0
 11 38  1  6
 13 39  1  0
 14 40  1  0
 15 41  1  0
 16 42  1  0
 19 43  1  0
 20 44  1  0
 22 45  1  0
 25 46  1  0
 26 47  1  0
M  END
>  <smiles>  (82) 
O=C(NCC(=O)N1CCCC1c1ccccn1)c1ccc2cc(Br)ccc2n1

>  <score_type>  (82) 
oracle

>  <origin>  (82) 
autodockgpu

>  <m_score__min__energy>  (82) 
-8.7200000000000006

>  <m_primary>  (82) 
energy

>  <rmsd>  (82) 
8.751480716720854

>  <m_score__min__rmsd>  (82) 
8.751480716720854

>  <meeko>  (82) 
{"free_energy": -8.69, "intermolecular_energy": -10.18, "internal_energy": -1.58, "cluster_size": 9, "cluster_id": 1, "rank_in_cluster": 2}

>  <energy>  (82) 
-7.68

>  <cluster_rmsd>  (82) 
1.27

>  <cluster>  (82) 
4

$$$$

     RDKit          3D

 47 50  0  0  0  0  0  0  0  0999 V2000
  135.9870   72.1260  221.4030 O   0  0  0  0  0  0  0  0  0  0  0  0
  136.9420   72.4950  222.1670 C   0  0  0  0  0  0  0  0  0  0  0  0
  137.5030   73.7950  222.0600 N   0  0  0  0  0  0  0  0  0  0  0  0
  137.0220   74.7410  221.0920 C   0  0  0  0  0  0  0  0  0  0  0  0
  138.1110   75.5370  220.4800 C   0  0  0  0  0  0  0  0  0  0  0  0
  138.2360   75.6390  219.2270 O   0  0  0  0  0  0  0  0  0  0  0  0
  139.0450   76.2070  221.3130 N   0  0  0  0  0  0  0  0  0  0  0  0
  138.6030   77.0140  222.4600 C   0  0  0  0  0  0  0  0  0  0  0  0
  139.7940   77.9450  222.7280 C   0  0  0  0  0  0  0  0  0  0  0  0
  140.9350   76.9840  222.4800 C   0  0  0  0  0  0  0  0  0  0  0  0
  140.4740   76.2510  221.2410 C   0  0  1  0  0  0  0  0  0  0  0  0
  141.0660   74.8720  221.2710 C   0  0  0  0  0  0  0  0  0  0  0  0
  142.2320   74.5550  220.6120 C   0  0  0  0  0  0  0  0  0  0  0  0
  142.6960   73.2440  220.7050 C   0  0  0  0  0  0  0  0  0  0  0  0
  141.9630   72.3400  221.4500 C   0  0  0  0  0  0  0  0  0  0  0  0
  140.7950   72.6750  222.1040 C   0  0  0  0  0  0  0  0  0  0  0  0
  140.3680   73.9510  221.9990 N   0  0  0  0  0  0  0  0  0  0  0  0
  137.4630   71.5640  223.1660 C   0  0  0  0  0  0  0  0  0  0  0  0
  136.7290   70.4730  223.5670 C   0  0  0  0  0  0  0  0  0  0  0  0
  137.2660   69.6080  224.5250 C   0  0  0  0  0  0  0  0  0  0  0  0
  138.5250   69.8580  225.0570 C   0  0  0  0  0  0  0  0  0  0  0  0
  139.0830   69.0210  226.0070 C   0  0  0  0  0  0  0  0  0  0  0  0
  140.3540   69.3120  226.5150 C   0  0  0  0  0  0  0  0  0  0  0  0
  141.0630   68.1070  227.8280 Br  0  0  0  0  0  0  0  0  0  0  0  0
  141.0650   70.4150  226.0910 C   0  0  0  0  0  0  0  0  0  0  0  0
  140.4670   71.2200  225.1430 C   0  0  0  0  0  0  0  0  0  0  0  0
  139.2310   70.9600  224.6320 C   0  0  0  0  0  0  0  0  0  0  0  0
  138.6810   71.7660  223.7110 N   0  0  0  0  0  0  0  0  0  0  0  0
  138.2960   74.0270  222.7300 H   0  0  0  0  0  0  0  0  0  0  0  0
  136.4963   74.1934  220.2959 H   0  0  0  0  0  0  0  0  0  0  0  0
  136.3531   75.4403  221.6150 H   0  0  0  0  0  0  0  0  0  0  0  0
  137.7015   77.5922  222.2091 H   0  0  0  0  0  0  0  0  0  0  0  0
  138.3338   76.4026  223.3339 H   0  0  0  0  0  0  0  0  0  0  0  0
  139.8150   78.7937  222.0285 H   0  0  0  0  0  0  0  0  0  0  0  0
  139.7963   78.4232  223.7186 H   0  0  0  0  0  0  0  0  0  0  0  0
  141.8768   77.5222  222.2974 H   0  0  0  0  0  0  0  0  0  0  0  0
  141.1457   76.3207  223.3318 H   0  0  0  0  0  0  0  0  0  0  0  0
  140.7879   76.7388  220.3064 H   0  0  0  0  0  0  0  0  0  0  0  0
  142.7798   75.3115  220.0309 H   0  0  0  0  0  0  0  0  0  0  0  0
  143.6226   72.9366  220.1980 H   0  0  0  0  0  0  0  0  0  0  0  0
  142.3276   71.3049  221.5252 H   0  0  0  0  0  0  0  0  0  0  0  0
  140.2337   71.9309  222.6883 H   0  0  0  0  0  0  0  0  0  0  0  0
  135.7331   70.2833  223.1401 H   0  0  0  0  0  0  0  0  0  0  0  0
  136.6923   68.7302  224.8573 H   0  0  0  0  0  0  0  0  0  0  0  0
  138.5331   68.1359  226.3593 H   0  0  0  0  0  0  0  0  0  0  0  0
  142.0642   70.6429  226.4906 H   0  0  0  0  0  0  0  0  0  0  0  0
  141.0100   72.1073  224.7855 H   0  0  0  0  0  0  0  0  0  0  0  0
  1  2  2  0
  2  3  1  0
  3  4  1  0
  4  5  1  0
  5  6  2  0
  5  7  1  0
  7  8  1  0
  8  9  1  0
  9 10  1  0
 10 11  1  0
 11 12  1  0
 12 13  2  0
 13 14  1  0
 14 15  2  0
 15 16  1  0
 16 17  2  0
  2 18  1  0
 18 19  2  0
 19 20  1  0
 20 21  2  0
 21 22  1  0
 22 23  2  0
 23 24  1  0
 23 25  1  0
 25 26  2  0
 26 27  1  0
 27 28  2  0
 11  7  1  0
 17 12  1  0
 28 18  1  0
 27 21  1  0
  3 29  1  0
  4 30  1  0
  4 31  1  0
  8 32  1  0
  8 33  1  0
  9 34  1  0
  9 35  1  0
 10 36  1  0
 10 37  1  0
 11 38  1  6
 13 39  1  0
 14 40  1  0
 15 41  1  0
 16 42  1  0
 19 43  1  0
 20 44  1  0
 22 45  1  0
 25 46  1  0
 26 47  1  0
M  END
>  <smiles>  (83) 
O=C(NCC(=O)N1CCCC1c1ccccn1)c1ccc2cc(Br)ccc2n1

>  <score_type>  (83) 
oracle

>  <origin>  (83) 
autodockgpu

>  <m_score__min__energy>  (83) 
-8.7200000000000006

>  <m_primary>  (83) 
energy

>  <rmsd>  (83) 
4.193756104101092

>  <m_score__min__rmsd>  (83) 
4.193756104101092

>  <meeko>  (83) 
{"free_energy": -6.91, "intermolecular_energy": -8.4, "internal_energy": -2.79, "cluster_size": 3, "cluster_id": 7, "rank_in_cluster": 3}

>  <energy>  (83) 
-7.62

>  <cluster_rmsd>  (83) 
0.94

>  <cluster>  (83) 
4

$$$$

     RDKit          3D

 47 50  0  0  0  0  0  0  0  0999 V2000
  135.0750   68.4780  224.8710 O   0  0  0  0  0  0  0  0  0  0  0  0
  135.5350   69.6640  224.9880 C   0  0  0  0  0  0  0  0  0  0  0  0
  136.8460   69.9860  224.5480 N   0  0  0  0  0  0  0  0  0  0  0  0
  137.7030   68.9950  223.9570 C   0  0  0  0  0  0  0  0  0  0  0  0
  138.8180   68.6000  224.8470 C   0  0  0  0  0  0  0  0  0  0  0  0
  139.0960   67.3870  225.0650 O   0  0  0  0  0  0  0  0  0  0  0  0
  139.6030   69.6000  225.4780 N   0  0  0  0  0  0  0  0  0  0  0  0
  140.6620   69.2470  226.4360 C   0  0  0  0  0  0  0  0  0  0  0  0
  140.8660   70.5370  227.2430 C   0  0  0  0  0  0  0  0  0  0  0  0
  140.7290   71.5590  226.1360 C   0  0  0  0  0  0  0  0  0  0  0  0
  139.5550   71.0250  225.3480 C   0  0  1  0  0  0  0  0  0  0  0  0
  139.7230   71.4500  223.9190 C   0  0  0  0  0  0  0  0  0  0  0  0
  140.9530   71.5010  223.3040 C   0  0  0  0  0  0  0  0  0  0  0  0
  140.9990   71.9090  221.9720 C   0  0  0  0  0  0  0  0  0  0  0  0
  139.8110   72.2360  221.3450 C   0  0  0  0  0  0  0  0  0  0  0  0
  138.5850   72.1790  221.9780 C   0  0  0  0  0  0  0  0  0  0  0  0
  138.5690   71.7810  223.2670 N   0  0  0  0  0  0  0  0  0  0  0  0
  134.6980   70.7020  225.5850 C   0  0  0  0  0  0  0  0  0  0  0  0
  133.6440   70.3780  226.4040 C   0  0  0  0  0  0  0  0  0  0  0  0
  132.8680   71.4030  226.9530 C   0  0  0  0  0  0  0  0  0  0  0  0
  133.1700   72.7290  226.6690 C   0  0  0  0  0  0  0  0  0  0  0  0
  132.4220   73.7670  227.1960 C   0  0  0  0  0  0  0  0  0  0  0  0
  132.7630   75.0860  226.8820 C   0  0  0  0  0  0  0  0  0  0  0  0
  131.6810   76.4700  227.6510 Br  0  0  0  0  0  0  0  0  0  0  0  0
  133.8280   75.3790  226.0570 C   0  0  0  0  0  0  0  0  0  0  0  0
  134.5440   74.3110  225.5540 C   0  0  0  0  0  0  0  0  0  0  0  0
  134.2340   73.0180  225.8440 C   0  0  0  0  0  0  0  0  0  0  0  0
  134.9520   72.0040  225.3360 N   0  0  0  0  0  0  0  0  0  0  0  0
  137.1570   70.9940  224.6810 H   0  0  0  0  0  0  0  0  0  0  0  0
  137.1027   68.1023  223.7275 H   0  0  0  0  0  0  0  0  0  0  0  0
  138.1421   69.4343  223.0491 H   0  0  0  0  0  0  0  0  0  0  0  0
  140.3413   68.4221  227.0892 H   0  0  0  0  0  0  0  0  0  0  0  0
  141.5834   68.9006  225.9450 H   0  0  0  0  0  0  0  0  0  0  0  0
  140.0920   70.6635  228.0143 H   0  0  0  0  0  0  0  0  0  0  0  0
  141.8083   70.5876  227.8083 H   0  0  0  0  0  0  0  0  0  0  0  0
  140.5150   72.5590  226.5413 H   0  0  0  0  0  0  0  0  0  0  0  0
  141.6424   71.6832  225.5358 H   0  0  0  0  0  0  0  0  0  0  0  0
  138.5855   71.4021  225.7057 H   0  0  0  0  0  0  0  0  0  0  0  0
  141.8705   71.2285  223.8462 H   0  0  0  0  0  0  0  0  0  0  0  0
  141.9562   71.9693  221.4334 H   0  0  0  0  0  0  0  0  0  0  0  0
  139.8439   72.5564  220.2932 H   0  0  0  0  0  0  0  0  0  0  0  0
  137.6573   72.4477  221.4516 H   0  0  0  0  0  0  0  0  0  0  0  0
  133.4135   69.3254  226.6251 H   0  0  0  0  0  0  0  0  0  0  0  0
  132.0192   71.1599  227.6091 H   0  0  0  0  0  0  0  0  0  0  0  0
  131.5673   73.5564  227.8556 H   0  0  0  0  0  0  0  0  0  0  0  0
  134.0953   76.4172  225.8105 H   0  0  0  0  0  0  0  0  0  0  0  0
  135.3992   74.5133  224.8924 H   0  0  0  0  0  0  0  0  0  0  0  0
  1  2  2  0
  2  3  1  0
  3  4  1  0
  4  5  1  0
  5  6  2  0
  5  7  1  0
  7  8  1  0
  8  9  1  0
  9 10  1  0
 10 11  1  0
 11 12  1  0
 12 13  2  0
 13 14  1  0
 14 15  2  0
 15 16  1  0
 16 17  2  0
  2 18  1  0
 18 19  2  0
 19 20  1  0
 20 21  2  0
 21 22  1  0
 22 23  2  0
 23 24  1  0
 23 25  1  0
 25 26  2  0
 26 27  1  0
 27 28  2  0
 11  7  1  0
 17 12  1  0
 28 18  1  0
 27 21  1  0
  3 29  1  0
  4 30  1  0
  4 31  1  0
  8 32  1  0
  8 33  1  0
  9 34  1  0
  9 35  1  0
 10 36  1  0
 10 37  1  0
 11 38  1  1
 13 39  1  0
 14 40  1  0
 15 41  1  0
 16 42  1  0
 19 43  1  0
 20 44  1  0
 22 45  1  0
 25 46  1  0
 26 47  1  0
M  END
>  <smiles>  (84) 
O=C(NCC(=O)N1CCCC1c1ccccn1)c1ccc2cc(Br)ccc2n1

>  <score_type>  (84) 
oracle

>  <origin>  (84) 
autodockgpu

>  <m_score__min__energy>  (84) 
-8.7200000000000006

>  <m_primary>  (84) 
energy

>  <rmsd>  (84) 
8.245677643488293

>  <m_score__min__rmsd>  (84) 
8.245677643488293

>  <meeko>  (84) 
{"free_energy": -7.62, "intermolecular_energy": -9.11, "internal_energy": -2.38, "cluster_size": 4, "cluster_id": 5, "rank_in_cluster": 1}

>  <energy>  (84) 
-7.62

>  <cluster_rmsd>  (84) 
0.0

>  <cluster>  (84) 
5

$$$$

     RDKit          3D

 47 50  0  0  0  0  0  0  0  0999 V2000
  141.1930   81.5290  218.1820 O   0  0  0  0  0  0  0  0  0  0  0  0
  141.2760   80.8480  219.2600 C   0  0  0  0  0  0  0  0  0  0  0  0
  140.9090   81.4130  220.5100 N   0  0  0  0  0  0  0  0  0  0  0  0
  140.4350   82.7650  220.6120 C   0  0  0  0  0  0  0  0  0  0  0  0
  139.3100   82.9060  221.5640 C   0  0  0  0  0  0  0  0  0  0  0  0
  138.9130   84.0380  221.9610 O   0  0  0  0  0  0  0  0  0  0  0  0
  138.6520   81.7460  222.0520 N   0  0  0  0  0  0  0  0  0  0  0  0
  137.5520   81.1210  221.3010 C   0  0  0  0  0  0  0  0  0  0  0  0
  136.8100   80.2990  222.3640 C   0  0  0  0  0  0  0  0  0  0  0  0
  137.9870   79.7790  223.1580 C   0  0  0  0  0  0  0  0  0  0  0  0
  138.8760   80.9970  223.2510 C   0  0  1  0  0  0  0  0  0  0  0  0
  140.2990   80.5280  223.3440 C   0  0  0  0  0  0  0  0  0  0  0  0
  140.6350   79.1940  223.3770 C   0  0  0  0  0  0  0  0  0  0  0  0
  141.9870   78.8650  223.4640 C   0  0  0  0  0  0  0  0  0  0  0  0
  142.9100   79.8930  223.5120 C   0  0  0  0  0  0  0  0  0  0  0  0
  142.5540   81.2260  223.4780 C   0  0  0  0  0  0  0  0  0  0  0  0
  141.2390   81.5170  223.3930 N   0  0  0  0  0  0  0  0  0  0  0  0
  141.7540   79.4680  219.2030 C   0  0  0  0  0  0  0  0  0  0  0  0
  142.5760   79.0460  218.1860 C   0  0  0  0  0  0  0  0  0  0  0  0
  143.0100   77.7180  218.1690 C   0  0  0  0  0  0  0  0  0  0  0  0
  142.6090   76.8450  219.1740 C   0  0  0  0  0  0  0  0  0  0  0  0
  143.0210   75.5240  219.1860 C   0  0  0  0  0  0  0  0  0  0  0  0
  142.5920   74.6820  220.2170 C   0  0  0  0  0  0  0  0  0  0  0  0
  143.2050   72.8650  220.1670 Br  0  0  0  0  0  0  0  0  0  0  0  0
  141.7670   75.1370  221.2240 C   0  0  0  0  0  0  0  0  0  0  0  0
  141.3820   76.4610  221.1690 C   0  0  0  0  0  0  0  0  0  0  0  0
  141.7850   77.3020  220.1770 C   0  0  0  0  0  0  0  0  0  0  0  0
  141.3910   78.5850  220.1550 N   0  0  0  0  0  0  0  0  0  0  0  0
  141.0070   80.7830  221.3620 H   0  0  0  0  0  0  0  0  0  0  0  0
  141.2641   83.4040  220.9500 H   0  0  0  0  0  0  0  0  0  0  0  0
  140.0692   83.0645  219.6188 H   0  0  0  0  0  0  0  0  0  0  0  0
  136.8918   81.8843  220.8634 H   0  0  0  0  0  0  0  0  0  0  0  0
  137.9041   80.5096  220.4570 H   0  0  0  0  0  0  0  0  0  0  0  0
  136.1482   80.9273  222.9782 H   0  0  0  0  0  0  0  0  0  0  0  0
  136.1388   79.5235  221.9665 H   0  0  0  0  0  0  0  0  0  0  0  0
  137.6745   79.4368  224.1556 H   0  0  0  0  0  0  0  0  0  0  0  0
  138.4786   78.9090  222.6982 H   0  0  0  0  0  0  0  0  0  0  0  0
  138.6628   81.6223  224.1305 H   0  0  0  0  0  0  0  0  0  0  0  0
  139.8619   78.4125  223.3361 H   0  0  0  0  0  0  0  0  0  0  0  0
  142.3110   77.8142  223.4937 H   0  0  0  0  0  0  0  0  0  0  0  0
  143.9775   79.6367  223.5804 H   0  0  0  0  0  0  0  0  0  0  0  0
  143.3132   82.0209  223.5186 H   0  0  0  0  0  0  0  0  0  0  0  0
  142.8883   79.7445  217.3957 H   0  0  0  0  0  0  0  0  0  0  0  0
  143.6679   77.3638  217.3617 H   0  0  0  0  0  0  0  0  0  0  0  0
  143.6792   75.1401  218.3927 H   0  0  0  0  0  0  0  0  0  0  0  0
  141.4308   74.4741  222.0349 H   0  0  0  0  0  0  0  0  0  0  0  0
  140.7232   76.8526  221.9581 H   0  0  0  0  0  0  0  0  0  0  0  0
  1  2  2  0
  2  3  1  0
  3  4  1  0
  4  5  1  0
  5  6  2  0
  5  7  1  0
  7  8  1  0
  8  9  1  0
  9 10  1  0
 10 11  1  0
 11 12  1  0
 12 13  2  0
 13 14  1  0
 14 15  2  0
 15 16  1  0
 16 17  2  0
  2 18  1  0
 18 19  2  0
 19 20  1  0
 20 21  2  0
 21 22  1  0
 22 23  2  0
 23 24  1  0
 23 25  1  0
 25 26  2  0
 26 27  1  0
 27 28  2  0
 11  7  1  0
 17 12  1  0
 28 18  1  0
 27 21  1  0
  3 29  1  0
  4 30  1  0
  4 31  1  0
  8 32  1  0
  8 33  1  0
  9 34  1  0
  9 35  1  0
 10 36  1  0
 10 37  1  0
 11 38  1  1
 13 39  1  0
 14 40  1  0
 15 41  1  0
 16 42  1  0
 19 43  1  0
 20 44  1  0
 22 45  1  0
 25 46  1  0
 26 47  1  0
M  END
>  <smiles>  (85) 
O=C(NCC(=O)N1CCCC1c1ccccn1)c1ccc2cc(Br)ccc2n1

>  <score_type>  (85) 
oracle

>  <origin>  (85) 
autodockgpu

>  <m_score__min__energy>  (85) 
-8.7200000000000006

>  <m_primary>  (85) 
energy

>  <rmsd>  (85) 
8.331831436655214

>  <m_score__min__rmsd>  (85) 
8.331831436655214

>  <meeko>  (85) 
{"free_energy": -6.05, "intermolecular_energy": -7.54, "internal_energy": -3.18, "cluster_size": 1, "cluster_id": 12, "rank_in_cluster": 1}

>  <energy>  (85) 
-7.57

>  <cluster_rmsd>  (85) 
0.05

>  <cluster>  (85) 
5

$$$$

     RDKit          3D

 47 50  0  0  0  0  0  0  0  0999 V2000
  136.8590   71.1520  221.1140 O   0  0  0  0  0  0  0  0  0  0  0  0
  137.5650   71.7060  222.0230 C   0  0  0  0  0  0  0  0  0  0  0  0
  137.8890   73.0870  221.9580 N   0  0  0  0  0  0  0  0  0  0  0  0
  137.4380   73.9120  220.8710 C   0  0  0  0  0  0  0  0  0  0  0  0
  137.4150   75.3510  221.2180 C   0  0  0  0  0  0  0  0  0  0  0  0
  136.3450   76.0230  221.1990 O   0  0  0  0  0  0  0  0  0  0  0  0
  138.6210   76.0060  221.5820 N   0  0  0  0  0  0  0  0  0  0  0  0
  138.6660   76.9480  222.7120 C   0  0  0  0  0  0  0  0  0  0  0  0
  139.9190   77.7890  222.4310 C   0  0  0  0  0  0  0  0  0  0  0  0
  140.8420   76.7120  221.9070 C   0  0  0  0  0  0  0  0  0  0  0  0
  139.9270   75.9160  221.0040 C   0  0  1  0  0  0  0  0  0  0  0  0
  140.4180   74.4980  220.9800 C   0  0  0  0  0  0  0  0  0  0  0  0
  140.7350   73.8470  219.8100 C   0  0  0  0  0  0  0  0  0  0  0  0
  141.1820   72.5300  219.8990 C   0  0  0  0  0  0  0  0  0  0  0  0
  141.2830   71.9540  221.1520 C   0  0  0  0  0  0  0  0  0  0  0  0
  140.9610   72.6230  222.3150 C   0  0  0  0  0  0  0  0  0  0  0  0
  140.5300   73.8970  222.2010 N   0  0  0  0  0  0  0  0  0  0  0  0
  138.0450   70.9040  223.1460 C   0  0  0  0  0  0  0  0  0  0  0  0
  137.5920   69.6220  223.3450 C   0  0  0  0  0  0  0  0  0  0  0  0
  138.0780   68.8900  224.4320 C   0  0  0  0  0  0  0  0  0  0  0  0
  139.0060   69.4620  225.2940 C   0  0  0  0  0  0  0  0  0  0  0  0
  139.5050   68.7640  226.3800 C   0  0  0  0  0  0  0  0  0  0  0  0
  140.4380   69.3800  227.2210 C   0  0  0  0  0  0  0  0  0  0  0  0
  141.0860   68.3510  228.7030 Br  0  0  0  0  0  0  0  0  0  0  0  0
  140.8730   70.6690  226.9940 C   0  0  0  0  0  0  0  0  0  0  0  0
  140.3460   71.3250  225.8990 C   0  0  0  0  0  0  0  0  0  0  0  0
  139.4370   70.7490  225.0650 C   0  0  0  0  0  0  0  0  0  0  0  0
  138.9460   71.4170  224.0100 N   0  0  0  0  0  0  0  0  0  0  0  0
  138.4810   73.4740  222.7520 H   0  0  0  0  0  0  0  0  0  0  0  0
  138.1137   73.7670  220.0152 H   0  0  0  0  0  0  0  0  0  0  0  0
  136.4075   73.6114  220.6308 H   0  0  0  0  0  0  0  0  0  0  0  0
  137.7656   77.5796  222.7329 H   0  0  0  0  0  0  0  0  0  0  0  0
  138.7004   76.4428  223.6885 H   0  0  0  0  0  0  0  0  0  0  0  0
  139.7286   78.5667  221.6767 H   0  0  0  0  0  0  0  0  0  0  0  0
  140.3043   78.3513  223.2943 H   0  0  0  0  0  0  0  0  0  0  0  0
  141.6804   77.1458  221.3423 H   0  0  0  0  0  0  0  0  0  0  0  0
  141.3120   76.1105  222.6991 H   0  0  0  0  0  0  0  0  0  0  0  0
  139.9063   76.2893  219.9695 H   0  0  0  0  0  0  0  0  0  0  0  0
  140.6388   74.3496  218.8363 H   0  0  0  0  0  0  0  0  0  0  0  0
  141.4479   71.9627  218.9948 H   0  0  0  0  0  0  0  0  0  0  0  0
  141.6362   70.9148  221.2249 H   0  0  0  0  0  0  0  0  0  0  0  0
  141.0521   72.1367  223.2975 H   0  0  0  0  0  0  0  0  0  0  0  0
  136.8567   69.1778  222.6580 H   0  0  0  0  0  0  0  0  0  0  0  0
  137.7263   67.8622  224.6050 H   0  0  0  0  0  0  0  0  0  0  0  0
  139.1713   67.7351  226.5799 H   0  0  0  0  0  0  0  0  0  0  0  0
  141.6068   71.1528  227.6555 H   0  0  0  0  0  0  0  0  0  0  0  0
  140.6739   72.3544  225.6923 H   0  0  0  0  0  0  0  0  0  0  0  0
  1  2  2  0
  2  3  1  0
  3  4  1  0
  4  5  1  0
  5  6  2  0
  5  7  1  0
  7  8  1  0
  8  9  1  0
  9 10  1  0
 10 11  1  0
 11 12  1  0
 12 13  2  0
 13 14  1  0
 14 15  2  0
 15 16  1  0
 16 17  2  0
  2 18  1  0
 18 19  2  0
 19 20  1  0
 20 21  2  0
 21 22  1  0
 22 23  2  0
 23 24  1  0
 23 25  1  0
 25 26  2  0
 26 27  1  0
 27 28  2  0
 11  7  1  0
 17 12  1  0
 28 18  1  0
 27 21  1  0
  3 29  1  0
  4 30  1  0
  4 31  1  0
  8 32  1  0
  8 33  1  0
  9 34  1  0
  9 35  1  0
 10 36  1  0
 10 37  1  0
 11 38  1  6
 13 39  1  0
 14 40  1  0
 15 41  1  0
 16 42  1  0
 19 43  1  0
 20 44  1  0
 22 45  1  0
 25 46  1  0
 26 47  1  0
M  END
>  <smiles>  (86) 
O=C(NCC(=O)N1CCCC1c1ccccn1)c1ccc2cc(Br)ccc2n1

>  <score_type>  (86) 
oracle

>  <origin>  (86) 
autodockgpu

>  <m_score__min__energy>  (86) 
-8.7200000000000006

>  <m_primary>  (86) 
energy

>  <rmsd>  (86) 
4.137052419253985

>  <m_score__min__rmsd>  (86) 
4.137052419253985

>  <meeko>  (86) 
{"free_energy": -6.98, "intermolecular_energy": -8.47, "internal_energy": -2.81, "cluster_size": 3, "cluster_id": 7, "rank_in_cluster": 2}

>  <energy>  (86) 
-7.53

>  <cluster_rmsd>  (86) 
0.1

>  <cluster>  (86) 
5

$$$$

     RDKit          3D

 47 50  0  0  0  0  0  0  0  0999 V2000
  138.1980   75.7080  222.6850 O   0  0  0  0  0  0  0  0  0  0  0  0
  139.2990   76.0710  222.1480 C   0  0  0  0  0  0  0  0  0  0  0  0
  139.6050   77.4450  221.9630 N   0  0  0  0  0  0  0  0  0  0  0  0
  138.6920   78.4780  222.3710 C   0  0  0  0  0  0  0  0  0  0  0  0
  139.2800   79.8330  222.2690 C   0  0  0  0  0  0  0  0  0  0  0  0
  138.5920   80.8310  221.9140 O   0  0  0  0  0  0  0  0  0  0  0  0
  140.6520   80.0290  222.5760 N   0  0  0  0  0  0  0  0  0  0  0  0
  141.2190   79.5770  223.8570 C   0  0  0  0  0  0  0  0  0  0  0  0
  142.4940   80.4200  224.0050 C   0  0  0  0  0  0  0  0  0  0  0  0
  142.9730   80.4200  222.5700 C   0  0  0  0  0  0  0  0  0  0  0  0
  141.6890   80.6410  221.8030 C   0  0  1  0  0  0  0  0  0  0  0  0
  141.8310   79.9840  220.4610 C   0  0  0  0  0  0  0  0  0  0  0  0
  141.9660   80.7050  219.2970 C   0  0  0  0  0  0  0  0  0  0  0  0
  142.0920   79.9970  218.1030 C   0  0  0  0  0  0  0  0  0  0  0  0
  142.0750   78.6150  218.1550 C   0  0  0  0  0  0  0  0  0  0  0  0
  141.9390   77.9090  219.3330 C   0  0  0  0  0  0  0  0  0  0  0  0
  141.8190   78.6190  220.4740 N   0  0  0  0  0  0  0  0  0  0  0  0
  140.2570   75.0540  221.7180 C   0  0  0  0  0  0  0  0  0  0  0  0
  139.9780   73.7160  221.8590 C   0  0  0  0  0  0  0  0  0  0  0  0
  140.9230   72.7760  221.4350 C   0  0  0  0  0  0  0  0  0  0  0  0
  142.1230   73.2030  220.8800 C   0  0  0  0  0  0  0  0  0  0  0  0
  143.0790   72.2980  220.4510 C   0  0  0  0  0  0  0  0  0  0  0  0
  144.2730   72.7730  219.8990 C   0  0  0  0  0  0  0  0  0  0  0  0
  145.5480   71.4600  219.3260 Br  0  0  0  0  0  0  0  0  0  0  0  0
  144.5220   74.1230  219.7710 C   0  0  0  0  0  0  0  0  0  0  0  0
  143.5400   74.9860  220.2130 C   0  0  0  0  0  0  0  0  0  0  0  0
  142.3690   74.5510  220.7550 C   0  0  0  0  0  0  0  0  0  0  0  0
  141.4360   75.4200  221.1750 N   0  0  0  0  0  0  0  0  0  0  0  0
  140.5410   77.6670  221.5090 H   0  0  0  0  0  0  0  0  0  0  0  0
  137.7996   78.4324  221.7296 H   0  0  0  0  0  0  0  0  0  0  0  0
  138.4426   78.3027  223.4279 H   0  0  0  0  0  0  0  0  0  0  0  0
  140.5217   79.7708  224.6853 H   0  0  0  0  0  0  0  0  0  0  0  0
  141.4169   78.4952  223.8788 H   0  0  0  0  0  0  0  0  0  0  0  0
  142.2727   81.4366  224.3621 H   0  0  0  0  0  0  0  0  0  0  0  0
  143.2207   80.0385  224.7373 H   0  0  0  0  0  0  0  0  0  0  0  0
  143.6904   81.2341  222.3893 H   0  0  0  0  0  0  0  0  0  0  0  0
  143.5056   79.5013  222.2829 H   0  0  0  0  0  0  0  0  0  0  0  0
  141.4586   81.7044  221.6417 H   0  0  0  0  0  0  0  0  0  0  0  0
  141.9742   81.8049  219.3083 H   0  0  0  0  0  0  0  0  0  0  0  0
  142.2021   80.5240  217.1438 H   0  0  0  0  0  0  0  0  0  0  0  0
  142.1744   78.0530  217.2146 H   0  0  0  0  0  0  0  0  0  0  0  0
  141.9288   76.8091  219.3414 H   0  0  0  0  0  0  0  0  0  0  0  0
  139.0246   73.3886  222.2992 H   0  0  0  0  0  0  0  0  0  0  0  0
  140.7165   71.7007  221.5408 H   0  0  0  0  0  0  0  0  0  0  0  0
  142.9012   71.2164  220.5434 H   0  0  0  0  0  0  0  0  0  0  0  0
  145.4612   74.4955  219.3361 H   0  0  0  0  0  0  0  0  0  0  0  0
  143.7101   76.0691  220.1239 H   0  0  0  0  0  0  0  0  0  0  0  0
  1  2  2  0
  2  3  1  0
  3  4  1  0
  4  5  1  0
  5  6  2  0
  5  7  1  0
  7  8  1  0
  8  9  1  0
  9 10  1  0
 10 11  1  0
 11 12  1  0
 12 13  2  0
 13 14  1  0
 14 15  2  0
 15 16  1  0
 16 17  2  0
  2 18  1  0
 18 19  2  0
 19 20  1  0
 20 21  2  0
 21 22  1  0
 22 23  2  0
 23 24  1  0
 23 25  1  0
 25 26  2  0
 26 27  1  0
 27 28  2  0
 11  7  1  0
 17 12  1  0
 28 18  1  0
 27 21  1  0
  3 29  1  0
  4 30  1  0
  4 31  1  0
  8 32  1  0
  8 33  1  0
  9 34  1  0
  9 35  1  0
 10 36  1  0
 10 37  1  0
 11 38  1  6
 13 39  1  0
 14 40  1  0
 15 41  1  0
 16 42  1  0
 19 43  1  0
 20 44  1  0
 22 45  1  0
 25 46  1  0
 26 47  1  0
M  END
>  <smiles>  (87) 
O=C(NCC(=O)N1CCCC1c1ccccn1)c1ccc2cc(Br)ccc2n1

>  <score_type>  (87) 
oracle

>  <origin>  (87) 
autodockgpu

>  <m_score__min__energy>  (87) 
-8.7200000000000006

>  <m_primary>  (87) 
energy

>  <rmsd>  (87) 
6.110181487862881

>  <m_score__min__rmsd>  (87) 
6.110181487862881

>  <meeko>  (87) 
{"free_energy": -6.43, "intermolecular_energy": -7.93, "internal_energy": -3.03, "cluster_size": 2, "cluster_id": 11, "rank_in_cluster": 1}

>  <energy>  (87) 
-7.52

>  <cluster_rmsd>  (87) 
0.11

>  <cluster>  (87) 
5

$$$$

     RDKit          3D

 47 50  0  0  0  0  0  0  0  0999 V2000
  139.8650   72.4150  220.5590 O   0  0  0  0  0  0  0  0  0  0  0  0
  139.7850   72.8220  221.7670 C   0  0  0  0  0  0  0  0  0  0  0  0
  139.6450   74.2030  222.0660 N   0  0  0  0  0  0  0  0  0  0  0  0
  139.5880   75.1930  221.0260 C   0  0  0  0  0  0  0  0  0  0  0  0
  140.4490   76.3650  221.3050 C   0  0  0  0  0  0  0  0  0  0  0  0
  140.4300   76.9520  222.4230 O   0  0  0  0  0  0  0  0  0  0  0  0
  141.3230   76.8520  220.2970 N   0  0  0  0  0  0  0  0  0  0  0  0
  141.6510   78.2830  220.1990 C   0  0  0  0  0  0  0  0  0  0  0  0
  142.1340   78.4440  218.7510 C   0  0  0  0  0  0  0  0  0  0  0  0
  142.9170   77.1600  218.5940 C   0  0  0  0  0  0  0  0  0  0  0  0
  142.0120   76.1480  219.2580 C   0  0  1  0  0  0  0  0  0  0  0  0
  142.8710   75.0520  219.8170 C   0  0  0  0  0  0  0  0  0  0  0  0
  144.2070   75.2300  220.0930 C   0  0  0  0  0  0  0  0  0  0  0  0
  144.9150   74.1470  220.6110 C   0  0  0  0  0  0  0  0  0  0  0  0
  144.2380   72.9600  220.8190 C   0  0  0  0  0  0  0  0  0  0  0  0
  142.8970   72.7990  220.5370 C   0  0  0  0  0  0  0  0  0  0  0  0
  142.2350   73.8640  220.0360 N   0  0  0  0  0  0  0  0  0  0  0  0
  139.8400   71.8490  222.8560 C   0  0  0  0  0  0  0  0  0  0  0  0
  139.3800   70.5660  222.6830 C   0  0  0  0  0  0  0  0  0  0  0  0
  139.4510   69.6680  223.7510 C   0  0  0  0  0  0  0  0  0  0  0  0
  139.9810   70.0790  224.9680 C   0  0  0  0  0  0  0  0  0  0  0  0
  140.0640   69.2150  226.0460 C   0  0  0  0  0  0  0  0  0  0  0  0
  140.6050   69.6720  227.2520 C   0  0  0  0  0  0  0  0  0  0  0  0
  140.6890   68.4170  228.6990 Br  0  0  0  0  0  0  0  0  0  0  0  0
  141.0590   70.9670  227.3940 C   0  0  0  0  0  0  0  0  0  0  0  0
  140.9540   71.7920  226.2920 C   0  0  0  0  0  0  0  0  0  0  0  0
  140.4320   71.3720  225.1070 C   0  0  0  0  0  0  0  0  0  0  0  0
  140.3460   72.2030  224.0570 N   0  0  0  0  0  0  0  0  0  0  0  0
  139.5870   74.4620  223.0960 H   0  0  0  0  0  0  0  0  0  0  0  0
  139.9161   74.7318  220.0828 H   0  0  0  0  0  0  0  0  0  0  0  0
  138.5496   75.5507  220.9643 H   0  0  0  0  0  0  0  0  0  0  0  0
  140.7626   78.9034  220.3880 H   0  0  0  0  0  0  0  0  0  0  0  0
  142.4013   78.6012  220.9378 H   0  0  0  0  0  0  0  0  0  0  0  0
  141.2935   78.4992  218.0436 H   0  0  0  0  0  0  0  0  0  0  0  0
  142.7044   79.3631  218.5513 H   0  0  0  0  0  0  0  0  0  0  0  0
  143.0754   76.9171  217.5329 H   0  0  0  0  0  0  0  0  0  0  0  0
  143.9256   77.2028  219.0310 H   0  0  0  0  0  0  0  0  0  0  0  0
  141.2869   75.6952  218.5657 H   0  0  0  0  0  0  0  0  0  0  0  0
  144.7005   76.1960  219.9107 H   0  0  0  0  0  0  0  0  0  0  0  0
  145.9855   74.2347  220.8483 H   0  0  0  0  0  0  0  0  0  0  0  0
  144.7942   72.1039  221.2284 H   0  0  0  0  0  0  0  0  0  0  0  0
  142.3870   71.8405  220.7134 H   0  0  0  0  0  0  0  0  0  0  0  0
  138.9613   70.2499  221.7162 H   0  0  0  0  0  0  0  0  0  0  0  0
  139.0878   68.6369  223.6286 H   0  0  0  0  0  0  0  0  0  0  0  0
  139.7077   68.1783  225.9551 H   0  0  0  0  0  0  0  0  0  0  0  0
  141.4854   71.3260  228.3423 H   0  0  0  0  0  0  0  0  0  0  0  0
  141.3064   72.8307  226.3749 H   0  0  0  0  0  0  0  0  0  0  0  0
  1  2  2  0
  2  3  1  0
  3  4  1  0
  4  5  1  0
  5  6  2  0
  5  7  1  0
  7  8  1  0
  8  9  1  0
  9 10  1  0
 10 11  1  0
 11 12  1  0
 12 13  2  0
 13 14  1  0
 14 15  2  0
 15 16  1  0
 16 17  2  0
  2 18  1  0
 18 19  2  0
 19 20  1  0
 20 21  2  0
 21 22  1  0
 22 23  2  0
 23 24  1  0
 23 25  1  0
 25 26  2  0
 26 27  1  0
 27 28  2  0
 11  7  1  0
 17 12  1  0
 28 18  1  0
 27 21  1  0
  3 29  1  0
  4 30  1  0
  4 31  1  0
  8 32  1  0
  8 33  1  0
  9 34  1  0
  9 35  1  0
 10 36  1  0
 10 37  1  0
 11 38  1  6
 13 39  1  0
 14 40  1  0
 15 41  1  0
 16 42  1  0
 19 43  1  0
 20 44  1  0
 22 45  1  0
 25 46  1  0
 26 47  1  0
M  END
>  <smiles>  (88) 
O=C(NCC(=O)N1CCCC1c1ccccn1)c1ccc2cc(Br)ccc2n1

>  <score_type>  (88) 
oracle

>  <origin>  (88) 
autodockgpu

>  <m_score__min__energy>  (88) 
-8.7200000000000006

>  <m_primary>  (88) 
energy

>  <rmsd>  (88) 
3.8826689116875617

>  <m_score__min__rmsd>  (88) 
3.8826689116875617

>  <meeko>  (88) 
{"free_energy": -8.22, "intermolecular_energy": -9.71, "internal_energy": -2.01, "cluster_size": 10, "cluster_id": 3, "rank_in_cluster": 2}

>  <energy>  (88) 
-7.34

>  <cluster_rmsd>  (88) 
0.0

>  <cluster>  (88) 
6

$$$$

     RDKit          3D

 47 50  0  0  0  0  0  0  0  0999 V2000
  139.8440   72.4390  220.5450 O   0  0  0  0  0  0  0  0  0  0  0  0
  139.7910   72.8410  221.7560 C   0  0  0  0  0  0  0  0  0  0  0  0
  139.6620   74.2220  222.0630 N   0  0  0  0  0  0  0  0  0  0  0  0
  139.5850   75.2160  221.0280 C   0  0  0  0  0  0  0  0  0  0  0  0
  140.5820   76.2980  221.2000 C   0  0  0  0  0  0  0  0  0  0  0  0
  140.7160   76.9090  222.2980 O   0  0  0  0  0  0  0  0  0  0  0  0
  141.4140   76.6670  220.1110 N   0  0  0  0  0  0  0  0  0  0  0  0
  141.7680   78.0740  219.8650 C   0  0  0  0  0  0  0  0  0  0  0  0
  142.1820   78.0890  218.3870 C   0  0  0  0  0  0  0  0  0  0  0  0
  142.9270   76.7760  218.3120 C   0  0  0  0  0  0  0  0  0  0  0  0
  142.0350   75.8530  219.1100 C   0  0  1  0  0  0  0  0  0  0  0  0
  142.8970   74.7910  219.7270 C   0  0  0  0  0  0  0  0  0  0  0  0
  144.2010   75.0240  220.1010 C   0  0  0  0  0  0  0  0  0  0  0  0
  144.9150   73.9680  220.6650 C   0  0  0  0  0  0  0  0  0  0  0  0
  144.2760   72.7520  220.8180 C   0  0  0  0  0  0  0  0  0  0  0  0
  142.9670   72.5360  220.4360 C   0  0  0  0  0  0  0  0  0  0  0  0
  142.2990   73.5750  219.8930 N   0  0  0  0  0  0  0  0  0  0  0  0
  139.8660   71.8650  222.8410 C   0  0  0  0  0  0  0  0  0  0  0  0
  139.4470   70.5700  222.6560 C   0  0  0  0  0  0  0  0  0  0  0  0
  139.5350   69.6680  223.7210 C   0  0  0  0  0  0  0  0  0  0  0  0
  140.0440   70.0870  224.9440 C   0  0  0  0  0  0  0  0  0  0  0  0
  140.1440   69.2200  226.0170 C   0  0  0  0  0  0  0  0  0  0  0  0
  140.6610   69.6860  227.2300 C   0  0  0  0  0  0  0  0  0  0  0  0
  140.7710   68.4250  228.6710 Br  0  0  0  0  0  0  0  0  0  0  0  0
  141.0750   70.9930  227.3830 C   0  0  0  0  0  0  0  0  0  0  0  0
  140.9540   71.8210  226.2850 C   0  0  0  0  0  0  0  0  0  0  0  0
  140.4540   71.3930  225.0930 C   0  0  0  0  0  0  0  0  0  0  0  0
  140.3520   72.2260  224.0470 N   0  0  0  0  0  0  0  0  0  0  0  0
  139.6260   74.4780  223.0950 H   0  0  0  0  0  0  0  0  0  0  0  0
  139.7590   74.7280  220.0576 H   0  0  0  0  0  0  0  0  0  0  0  0
  138.5859   75.6732  221.0797 H   0  0  0  0  0  0  0  0  0  0  0  0
  140.9038   78.7323  220.0375 H   0  0  0  0  0  0  0  0  0  0  0  0
  142.5609   78.4386  220.5347 H   0  0  0  0  0  0  0  0  0  0  0  0
  141.3088   78.1021  217.7182 H   0  0  0  0  0  0  0  0  0  0  0  0
  142.7624   78.9703  218.0765 H   0  0  0  0  0  0  0  0  0  0  0  0
  143.0259   76.4330  217.2715 H   0  0  0  0  0  0  0  0  0  0  0  0
  143.9570   76.8318  218.6940 H   0  0  0  0  0  0  0  0  0  0  0  0
  141.2668   75.3576  218.4981 H   0  0  0  0  0  0  0  0  0  0  0  0
  144.6646   76.0114  219.9594 H   0  0  0  0  0  0  0  0  0  0  0  0
  145.9606   74.0991  220.9804 H   0  0  0  0  0  0  0  0  0  0  0  0
  144.8364   71.9176  221.2649 H   0  0  0  0  0  0  0  0  0  0  0  0
  142.4873   71.5551  220.5691 H   0  0  0  0  0  0  0  0  0  0  0  0
  139.0477   70.2469  221.6833 H   0  0  0  0  0  0  0  0  0  0  0  0
  139.2016   68.6279  223.5906 H   0  0  0  0  0  0  0  0  0  0  0  0
  139.8199   68.1736  225.9172 H   0  0  0  0  0  0  0  0  0  0  0  0
  141.4831   71.3589  228.3367 H   0  0  0  0  0  0  0  0  0  0  0  0
  141.2746   72.8692  226.3768 H   0  0  0  0  0  0  0  0  0  0  0  0
  1  2  2  0
  2  3  1  0
  3  4  1  0
  4  5  1  0
  5  6  2  0
  5  7  1  0
  7  8  1  0
  8  9  1  0
  9 10  1  0
 10 11  1  0
 11 12  1  0
 12 13  2  0
 13 14  1  0
 14 15  2  0
 15 16  1  0
 16 17  2  0
  2 18  1  0
 18 19  2  0
 19 20  1  0
 20 21  2  0
 21 22  1  0
 22 23  2  0
 23 24  1  0
 23 25  1  0
 25 26  2  0
 26 27  1  0
 27 28  2  0
 11  7  1  0
 17 12  1  0
 28 18  1  0
 27 21  1  0
  3 29  1  0
  4 30  1  0
  4 31  1  0
  8 32  1  0
  8 33  1  0
  9 34  1  0
  9 35  1  0
 10 36  1  0
 10 37  1  0
 11 38  1  6
 13 39  1  0
 14 40  1  0
 15 41  1  0
 16 42  1  0
 19 43  1  0
 20 44  1  0
 22 45  1  0
 25 46  1  0
 26 47  1  0
M  END
>  <smiles>  (89) 
O=C(NCC(=O)N1CCCC1c1ccccn1)c1ccc2cc(Br)ccc2n1

>  <score_type>  (89) 
oracle

>  <origin>  (89) 
autodockgpu

>  <m_score__min__energy>  (89) 
-8.7200000000000006

>  <m_primary>  (89) 
energy

>  <rmsd>  (89) 
3.9415412332417024

>  <m_score__min__rmsd>  (89) 
3.9415412332417024

>  <meeko>  (89) 
{"free_energy": -8.13, "intermolecular_energy": -9.62, "internal_energy": -2.06, "cluster_size": 10, "cluster_id": 3, "rank_in_cluster": 4}

>  <energy>  (89) 
-7.01

>  <cluster_rmsd>  (89) 
0.0

>  <cluster>  (89) 
7

$$$$

     RDKit          3D

 47 50  0  0  0  0  0  0  0  0999 V2000
  136.0950   71.4380  221.4230 O   0  0  0  0  0  0  0  0  0  0  0  0
  136.9890   71.9240  222.1950 C   0  0  0  0  0  0  0  0  0  0  0  0
  137.4530   73.2560  222.0290 N   0  0  0  0  0  0  0  0  0  0  0  0
  136.9380   74.1060  220.9910 C   0  0  0  0  0  0  0  0  0  0  0  0
  137.9800   74.9660  220.3870 C   0  0  0  0  0  0  0  0  0  0  0  0
  138.1130   75.0700  219.1350 O   0  0  0  0  0  0  0  0  0  0  0  0
  138.8610   75.6980  221.2260 N   0  0  0  0  0  0  0  0  0  0  0  0
  138.3520   76.5160  222.3370 C   0  0  0  0  0  0  0  0  0  0  0  0
  139.4930   77.5050  222.6120 C   0  0  0  0  0  0  0  0  0  0  0  0
  140.6810   76.5880  222.4230 C   0  0  0  0  0  0  0  0  0  0  0  0
  140.2880   75.8020  221.1920 C   0  0  1  0  0  0  0  0  0  0  0  0
  140.9370   74.4520  221.2770 C   0  0  0  0  0  0  0  0  0  0  0  0
  142.1010   74.1490  220.6090 C   0  0  0  0  0  0  0  0  0  0  0  0
  142.6210   72.8650  220.7560 C   0  0  0  0  0  0  0  0  0  0  0  0
  141.9420   71.9700  221.5630 C   0  0  0  0  0  0  0  0  0  0  0  0
  140.7760   72.2920  222.2260 C   0  0  0  0  0  0  0  0  0  0  0  0
  140.2940   73.5420  222.0660 N   0  0  0  0  0  0  0  0  0  0  0  0
  137.5410   71.0950  223.2640 C   0  0  0  0  0  0  0  0  0  0  0  0
  136.9880   69.8760  223.5710 C   0  0  0  0  0  0  0  0  0  0  0  0
  137.5480   69.1150  224.6020 C   0  0  0  0  0  0  0  0  0  0  0  0
  138.6490   69.5960  225.2990 C   0  0  0  0  0  0  0  0  0  0  0  0
  139.2260   68.8680  226.3250 C   0  0  0  0  0  0  0  0  0  0  0  0
  140.3340   69.3920  226.9990 C   0  0  0  0  0  0  0  0  0  0  0  0
  141.0790   68.3250  228.4070 Br  0  0  0  0  0  0  0  0  0  0  0  0
  140.8660   70.6200  226.6660 C   0  0  0  0  0  0  0  0  0  0  0  0
  140.2560   71.3100  225.6380 C   0  0  0  0  0  0  0  0  0  0  0  0
  139.1770   70.8230  224.9650 C   0  0  0  0  0  0  0  0  0  0  0  0
  138.6100   71.5210  223.9700 N   0  0  0  0  0  0  0  0  0  0  0  0
  138.1990   73.5880  222.7110 H   0  0  0  0  0  0  0  0  0  0  0  0
  136.5027   73.4744  220.2027 H   0  0  0  0  0  0  0  0  0  0  0  0
  136.1849   74.7664  221.4457 H   0  0  0  0  0  0  0  0  0  0  0  0
  137.4342   77.0472  222.0448 H   0  0  0  0  0  0  0  0  0  0  0  0
  138.0844   75.9171  223.2200 H   0  0  0  0  0  0  0  0  0  0  0  0
  139.4979   78.3347  221.8898 H   0  0  0  0  0  0  0  0  0  0  0  0
  139.4458   78.0095  223.5884 H   0  0  0  0  0  0  0  0  0  0  0  0
  141.6038   77.1616  222.2517 H   0  0  0  0  0  0  0  0  0  0  0  0
  140.8949   75.9576  223.2987 H   0  0  0  0  0  0  0  0  0  0  0  0
  140.6079   76.2774  220.2530 H   0  0  0  0  0  0  0  0  0  0  0  0
  142.6049   74.8967  219.9790 H   0  0  0  0  0  0  0  0  0  0  0  0
  143.5484   72.5702  220.2431 H   0  0  0  0  0  0  0  0  0  0  0  0
  142.3504   70.9555  221.6814 H   0  0  0  0  0  0  0  0  0  0  0  0
  140.2588   71.5576  222.8610 H   0  0  0  0  0  0  0  0  0  0  0  0
  136.1162   69.5032  223.0134 H   0  0  0  0  0  0  0  0  0  0  0  0
  137.1170   68.1366  224.8607 H   0  0  0  0  0  0  0  0  0  0  0  0
  138.8171   67.8867  226.6077 H   0  0  0  0  0  0  0  0  0  0  0  0
  141.7377   71.0313  227.1961 H   0  0  0  0  0  0  0  0  0  0  0  0
  140.6576   72.2929  225.3508 H   0  0  0  0  0  0  0  0  0  0  0  0
  1  2  2  0
  2  3  1  0
  3  4  1  0
  4  5  1  0
  5  6  2  0
  5  7  1  0
  7  8  1  0
  8  9  1  0
  9 10  1  0
 10 11  1  0
 11 12  1  0
 12 13  2  0
 13 14  1  0
 14 15  2  0
 15 16  1  0
 16 17  2  0
  2 18  1  0
 18 19  2  0
 19 20  1  0
 20 21  2  0
 21 22  1  0
 22 23  2  0
 23 24  1  0
 23 25  1  0
 25 26  2  0
 26 27  1  0
 27 28  2  0
 11  7  1  0
 17 12  1  0
 28 18  1  0
 27 21  1  0
  3 29  1  0
  4 30  1  0
  4 31  1  0
  8 32  1  0
  8 33  1  0
  9 34  1  0
  9 35  1  0
 10 36  1  0
 10 37  1  0
 11 38  1  6
 13 39  1  0
 14 40  1  0
 15 41  1  0
 16 42  1  0
 19 43  1  0
 20 44  1  0
 22 45  1  0
 25 46  1  0
 26 47  1  0
M  END
>  <smiles>  (90) 
O=C(NCC(=O)N1CCCC1c1ccccn1)c1ccc2cc(Br)ccc2n1

>  <score_type>  (90) 
oracle

>  <origin>  (90) 
autodockgpu

>  <m_score__min__energy>  (90) 
-8.7200000000000006

>  <m_primary>  (90) 
energy

>  <rmsd>  (90) 
4.200620977490088

>  <m_score__min__rmsd>  (90) 
4.200620977490088

>  <meeko>  (90) 
{"free_energy": -7.01, "intermolecular_energy": -8.5, "internal_energy": -2.93, "cluster_size": 3, "cluster_id": 7, "rank_in_cluster": 1}

>  <energy>  (90) 
-6.98

>  <cluster_rmsd>  (90) 
0.86

>  <cluster>  (90) 
7

$$$$

     RDKit          3D

 47 50  0  0  0  0  0  0  0  0999 V2000
  133.1270   69.4860  226.4680 O   0  0  0  0  0  0  0  0  0  0  0  0
  133.7960   70.5540  226.2610 C   0  0  0  0  0  0  0  0  0  0  0  0
  135.0980   70.5030  225.6940 N   0  0  0  0  0  0  0  0  0  0  0  0
  135.7090   69.2540  225.3330 C   0  0  0  0  0  0  0  0  0  0  0  0
  136.3140   69.2830  223.9810 C   0  0  0  0  0  0  0  0  0  0  0  0
  135.8600   68.5810  223.0350 O   0  0  0  0  0  0  0  0  0  0  0  0
  137.4340   70.1180  223.7300 N   0  0  0  0  0  0  0  0  0  0  0  0
  137.2640   71.5230  223.3280 C   0  0  0  0  0  0  0  0  0  0  0  0
  138.6020   71.8740  222.6640 C   0  0  0  0  0  0  0  0  0  0  0  0
  139.5500   71.1390  223.5850 C   0  0  0  0  0  0  0  0  0  0  0  0
  138.8340   69.8250  223.8010 C   0  0  1  0  0  0  0  0  0  0  0  0
  139.2160   69.3050  225.1560 C   0  0  0  0  0  0  0  0  0  0  0  0
  139.6130   70.1340  226.1790 C   0  0  0  0  0  0  0  0  0  0  0  0
  139.9460   69.5480  227.3990 C   0  0  0  0  0  0  0  0  0  0  0  0
  139.8580   68.1730  227.5130 C   0  0  0  0  0  0  0  0  0  0  0  0
  139.4580   67.3570  226.4750 C   0  0  0  0  0  0  0  0  0  0  0  0
  139.1410   67.9490  225.3040 N   0  0  0  0  0  0  0  0  0  0  0  0
  133.2130   71.8470  226.6150 C   0  0  0  0  0  0  0  0  0  0  0  0
  132.0050   71.9230  227.2640 C   0  0  0  0  0  0  0  0  0  0  0  0
  131.4830   73.1800  227.5830 C   0  0  0  0  0  0  0  0  0  0  0  0
  132.1870   74.3290  227.2430 C   0  0  0  0  0  0  0  0  0  0  0  0
  131.6970   75.5880  227.5440 C   0  0  0  0  0  0  0  0  0  0  0  0
  132.4390   76.7170  227.1820 C   0  0  0  0  0  0  0  0  0  0  0  0
  131.6980   78.4270  227.6340 Br  0  0  0  0  0  0  0  0  0  0  0  0
  133.6500   76.6060  226.5320 C   0  0  0  0  0  0  0  0  0  0  0  0
  134.0970   75.3300  226.2520 C   0  0  0  0  0  0  0  0  0  0  0  0
  133.3940   74.2150  226.5930 C   0  0  0  0  0  0  0  0  0  0  0  0
  133.8590   72.9900  226.3040 N   0  0  0  0  0  0  0  0  0  0  0  0
  135.5910   71.4340  225.5540 H   0  0  0  0  0  0  0  0  0  0  0  0
  136.4960   69.0225  226.0658 H   0  0  0  0  0  0  0  0  0  0  0  0
  134.9200   68.4876  225.3275 H   0  0  0  0  0  0  0  0  0  0  0  0
  136.4325   71.6297  222.6159 H   0  0  0  0  0  0  0  0  0  0  0  0
  137.0212   72.1828  224.1740 H   0  0  0  0  0  0  0  0  0  0  0  0
  138.6583   71.4952  221.6328 H   0  0  0  0  0  0  0  0  0  0  0  0
  138.7993   72.9510  222.5580 H   0  0  0  0  0  0  0  0  0  0  0  0
  140.5295   70.9855  223.1086 H   0  0  0  0  0  0  0  0  0  0  0  0
  139.7676   71.6808  224.5172 H   0  0  0  0  0  0  0  0  0  0  0  0
  139.0962   69.0608  223.0545 H   0  0  0  0  0  0  0  0  0  0  0  0
  139.6660   71.2238  226.0390 H   0  0  0  0  0  0  0  0  0  0  0  0
  140.2708   70.1644  228.2502 H   0  0  0  0  0  0  0  0  0  0  0  0
  140.1189   67.7084  228.4753 H   0  0  0  0  0  0  0  0  0  0  0  0
  139.3996   66.2653  226.5970 H   0  0  0  0  0  0  0  0  0  0  0  0
  131.4559   71.0075  227.5291 H   0  0  0  0  0  0  0  0  0  0  0  0
  130.5166   73.2595  228.1023 H   0  0  0  0  0  0  0  0  0  0  0  0
  130.7335   75.6995  228.0628 H   0  0  0  0  0  0  0  0  0  0  0  0
  134.2338   77.4943  226.2492 H   0  0  0  0  0  0  0  0  0  0  0  0
  135.0593   75.2095  225.7328 H   0  0  0  0  0  0  0  0  0  0  0  0
  1  2  2  0
  2  3  1  0
  3  4  1  0
  4  5  1  0
  5  6  2  0
  5  7  1  0
  7  8  1  0
  8  9  1  0
  9 10  1  0
 10 11  1  0
 11 12  1  0
 12 13  2  0
 13 14  1  0
 14 15  2  0
 15 16  1  0
 16 17  2  0
  2 18  1  0
 18 19  2  0
 19 20  1  0
 20 21  2  0
 21 22  1  0
 22 23  2  0
 23 24  1  0
 23 25  1  0
 25 26  2  0
 26 27  1  0
 27 28  2  0
 11  7  1  0
 17 12  1  0
 28 18  1  0
 27 21  1  0
  3 29  1  0
  4 30  1  0
  4 31  1  0
  8 32  1  0
  8 33  1  0
  9 34  1  0
  9 35  1  0
 10 36  1  0
 10 37  1  0
 11 38  1  6
 13 39  1  0
 14 40  1  0
 15 41  1  0
 16 42  1  0
 19 43  1  0
 20 44  1  0
 22 45  1  0
 25 46  1  0
 26 47  1  0
M  END
>  <smiles>  (91) 
O=C(NCC(=O)N1CCCC1c1ccccn1)c1ccc2cc(Br)ccc2n1

>  <score_type>  (91) 
oracle

>  <origin>  (91) 
autodockgpu

>  <m_score__min__energy>  (91) 
-8.7200000000000006

>  <m_primary>  (91) 
energy

>  <rmsd>  (91) 
9.286138941312426

>  <m_score__min__rmsd>  (91) 
9.286138941312426

>  <meeko>  (91) 
{"free_energy": -8.08, "intermolecular_energy": -9.57, "internal_energy": -1.75, "cluster_size": 9, "cluster_id": 1, "rank_in_cluster": 6}

>  <energy>  (91) 
-6.91

>  <cluster_rmsd>  (91) 
0.52

>  <cluster>  (91) 
7

$$$$

     RDKit          3D

 47 50  0  0  0  0  0  0  0  0999 V2000
  140.0890   72.4710  220.5460 O   0  0  0  0  0  0  0  0  0  0  0  0
  139.9270   72.8690  221.7490 C   0  0  0  0  0  0  0  0  0  0  0  0
  139.7230   74.2430  222.0440 N   0  0  0  0  0  0  0  0  0  0  0  0
  139.6930   75.2360  221.0050 C   0  0  0  0  0  0  0  0  0  0  0  0
  140.6440   76.3440  221.2460 C   0  0  0  0  0  0  0  0  0  0  0  0
  140.7310   76.9130  222.3700 O   0  0  0  0  0  0  0  0  0  0  0  0
  141.4860   76.7900  220.1930 N   0  0  0  0  0  0  0  0  0  0  0  0
  141.7920   78.2180  220.0140 C   0  0  0  0  0  0  0  0  0  0  0  0
  142.2370   78.3120  218.5480 C   0  0  0  0  0  0  0  0  0  0  0  0
  143.0330   77.0300  218.4360 C   0  0  0  0  0  0  0  0  0  0  0  0
  142.1580   76.0430  219.1730 C   0  0  1  0  0  0  0  0  0  0  0  0
  143.0450   74.9870  219.7650 C   0  0  0  0  0  0  0  0  0  0  0  0
  144.3630   75.2240  220.0830 C   0  0  0  0  0  0  0  0  0  0  0  0
  145.1000   74.1750  220.6290 C   0  0  0  0  0  0  0  0  0  0  0  0
  144.4690   72.9600  220.8200 C   0  0  0  0  0  0  0  0  0  0  0  0
  143.1460   72.7400  220.4940 C   0  0  0  0  0  0  0  0  0  0  0  0
  142.4550   73.7730  219.9680 N   0  0  0  0  0  0  0  0  0  0  0  0
  139.9520   71.8940  222.8370 C   0  0  0  0  0  0  0  0  0  0  0  0
  139.4610   70.6230  222.6600 C   0  0  0  0  0  0  0  0  0  0  0  0
  139.5040   69.7210  223.7270 C   0  0  0  0  0  0  0  0  0  0  0  0
  140.0390   70.1170  224.9470 C   0  0  0  0  0  0  0  0  0  0  0  0
  140.0960   69.2490  226.0230 C   0  0  0  0  0  0  0  0  0  0  0  0
  140.6430   69.6910  227.2330 C   0  0  0  0  0  0  0  0  0  0  0  0
  140.6880   68.4320  228.6780 Br  0  0  0  0  0  0  0  0  0  0  0  0
  141.1270   70.9740  227.3790 C   0  0  0  0  0  0  0  0  0  0  0  0
  141.0480   71.8030  226.2780 C   0  0  0  0  0  0  0  0  0  0  0  0
  140.5210   71.3980  225.0900 C   0  0  0  0  0  0  0  0  0  0  0  0
  140.4610   72.2320  224.0400 N   0  0  0  0  0  0  0  0  0  0  0  0
  139.5980   74.4960  223.0690 H   0  0  0  0  0  0  0  0  0  0  0  0
  139.9491   74.7539  220.0500 H   0  0  0  0  0  0  0  0  0  0  0  0
  138.6806   75.6656  220.9853 H   0  0  0  0  0  0  0  0  0  0  0  0
  140.9001   78.8361  220.1939 H   0  0  0  0  0  0  0  0  0  0  0  0
  142.5562   78.5822  220.7164 H   0  0  0  0  0  0  0  0  0  0  0  0
  141.3787   78.3217  217.8601 H   0  0  0  0  0  0  0  0  0  0  0  0
  142.7902   79.2266  218.2881 H   0  0  0  0  0  0  0  0  0  0  0  0
  143.1680   76.7354  217.3848 H   0  0  0  0  0  0  0  0  0  0  0  0
  144.0515   77.1066  218.8443 H   0  0  0  0  0  0  0  0  0  0  0  0
  141.4219   75.5479  218.5227 H   0  0  0  0  0  0  0  0  0  0  0  0
  144.8199   76.2098  219.9116 H   0  0  0  0  0  0  0  0  0  0  0  0
  146.1572   74.3103  220.9011 H   0  0  0  0  0  0  0  0  0  0  0  0
  145.0479   72.1303  221.2517 H   0  0  0  0  0  0  0  0  0  0  0  0
  142.6730   71.7603  220.6567 H   0  0  0  0  0  0  0  0  0  0  0  0
  139.0393   70.3190  221.6906 H   0  0  0  0  0  0  0  0  0  0  0  0
  139.1151   68.6997  223.6013 H   0  0  0  0  0  0  0  0  0  0  0  0
  139.7150   68.2214  225.9283 H   0  0  0  0  0  0  0  0  0  0  0  0
  141.5568   71.3213  228.3302 H   0  0  0  0  0  0  0  0  0  0  0  0
  141.4262   72.8324  226.3641 H   0  0  0  0  0  0  0  0  0  0  0  0
  1  2  2  0
  2  3  1  0
  3  4  1  0
  4  5  1  0
  5  6  2  0
  5  7  1  0
  7  8  1  0
  8  9  1  0
  9 10  1  0
 10 11  1  0
 11 12  1  0
 12 13  2  0
 13 14  1  0
 14 15  2  0
 15 16  1  0
 16 17  2  0
  2 18  1  0
 18 19  2  0
 19 20  1  0
 20 21  2  0
 21 22  1  0
 22 23  2  0
 23 24  1  0
 23 25  1  0
 25 26  2  0
 26 27  1  0
 27 28  2  0
 11  7  1  0
 17 12  1  0
 28 18  1  0
 27 21  1  0
  3 29  1  0
  4 30  1  0
  4 31  1  0
  8 32  1  0
  8 33  1  0
  9 34  1  0
  9 35  1  0
 10 36  1  0
 10 37  1  0
 11 38  1  6
 13 39  1  0
 14 40  1  0
 15 41  1  0
 16 42  1  0
 19 43  1  0
 20 44  1  0
 22 45  1  0
 25 46  1  0
 26 47  1  0
M  END
>  <smiles>  (92) 
O=C(NCC(=O)N1CCCC1c1ccccn1)c1ccc2cc(Br)ccc2n1

>  <score_type>  (92) 
oracle

>  <origin>  (92) 
autodockgpu

>  <m_score__min__energy>  (92) 
-8.7200000000000006

>  <m_primary>  (92) 
energy

>  <rmsd>  (92) 
3.934910958891298

>  <m_score__min__rmsd>  (92) 
3.934910958891298

>  <meeko>  (92) 
{"free_energy": -8.22, "intermolecular_energy": -9.71, "internal_energy": -1.98, "cluster_size": 10, "cluster_id": 3, "rank_in_cluster": 1}

>  <energy>  (92) 
-6.83

>  <cluster_rmsd>  (92) 
0.0

>  <cluster>  (92) 
8

$$$$

     RDKit          3D

 47 50  0  0  0  0  0  0  0  0999 V2000
  139.1720   72.7370  220.3640 O   0  0  0  0  0  0  0  0  0  0  0  0
  139.9460   72.9010  221.3660 C   0  0  0  0  0  0  0  0  0  0  0  0
  140.8530   73.9930  221.4190 N   0  0  0  0  0  0  0  0  0  0  0  0
  140.9350   74.9510  220.3510 C   0  0  0  0  0  0  0  0  0  0  0  0
  141.0240   76.3450  220.8410 C   0  0  0  0  0  0  0  0  0  0  0  0
  142.0390   77.0640  220.6170 O   0  0  0  0  0  0  0  0  0  0  0  0
  139.9490   76.9010  221.5820 N   0  0  0  0  0  0  0  0  0  0  0  0
  139.0240   76.0450  222.3420 C   0  0  0  0  0  0  0  0  0  0  0  0
  137.7790   76.9260  222.5200 C   0  0  0  0  0  0  0  0  0  0  0  0
  138.4410   78.2630  222.7710 C   0  0  0  0  0  0  0  0  0  0  0  0
  139.5550   78.2670  221.7480 C   0  0  1  0  0  0  0  0  0  0  0  0
  140.6800   79.0990  222.2900 C   0  0  0  0  0  0  0  0  0  0  0  0
  141.2190   80.1550  221.5920 C   0  0  0  0  0  0  0  0  0  0  0  0
  142.2620   80.8640  222.1870 C   0  0  0  0  0  0  0  0  0  0  0  0
  142.6940   80.4680  223.4390 C   0  0  0  0  0  0  0  0  0  0  0  0
  142.1410   79.4060  224.1250 C   0  0  0  0  0  0  0  0  0  0  0  0
  141.1320   78.7370  223.5260 N   0  0  0  0  0  0  0  0  0  0  0  0
  139.8970   71.9490  222.4750 C   0  0  0  0  0  0  0  0  0  0  0  0
  139.2930   70.7240  222.3290 C   0  0  0  0  0  0  0  0  0  0  0  0
  139.2680   69.8440  223.4150 C   0  0  0  0  0  0  0  0  0  0  0  0
  139.8500   70.2150  224.6200 C   0  0  0  0  0  0  0  0  0  0  0  0
  139.8420   69.3680  225.7150 C   0  0  0  0  0  0  0  0  0  0  0  0
  140.4400   69.7840  226.9090 C   0  0  0  0  0  0  0  0  0  0  0  0
  140.3900   68.5550  228.3800 Br  0  0  0  0  0  0  0  0  0  0  0  0
  141.0390   71.0200  227.0230 C   0  0  0  0  0  0  0  0  0  0  0  0
  141.0210   71.8310  225.9060 C   0  0  0  0  0  0  0  0  0  0  0  0
  140.4460   71.4510  224.7310 C   0  0  0  0  0  0  0  0  0  0  0  0
  140.4480   72.2660  223.6650 N   0  0  0  0  0  0  0  0  0  0  0  0
  141.4650   74.0610  222.2860 H   0  0  0  0  0  0  0  0  0  0  0  0
  141.8292   74.7316  219.7491 H   0  0  0  0  0  0  0  0  0  0  0  0
  140.0138   74.8656  219.7560 H   0  0  0  0  0  0  0  0  0  0  0  0
  138.7815   75.1319  221.7786 H   0  0  0  0  0  0  0  0  0  0  0  0
  139.4462   75.7040  223.2988 H   0  0  0  0  0  0  0  0  0  0  0  0
  137.1565   76.9419  221.6132 H   0  0  0  0  0  0  0  0  0  0  0  0
  137.0852   76.5961  223.3073 H   0  0  0  0  0  0  0  0  0  0  0  0
  137.7399   79.0932  222.6000 H   0  0  0  0  0  0  0  0  0  0  0  0
  138.7918   78.3940  223.8053 H   0  0  0  0  0  0  0  0  0  0  0  0
  139.2517   78.6902  220.7790 H   0  0  0  0  0  0  0  0  0  0  0  0
  140.8396   80.4310  220.5971 H   0  0  0  0  0  0  0  0  0  0  0  0
  142.7292   81.7169  221.6730 H   0  0  0  0  0  0  0  0  0  0  0  0
  143.5169   81.0254  223.9104 H   0  0  0  0  0  0  0  0  0  0  0  0
  142.5076   79.1156  225.1207 H   0  0  0  0  0  0  0  0  0  0  0  0
  138.8350   70.4392  221.3703 H   0  0  0  0  0  0  0  0  0  0  0  0
  138.7881   68.8593  223.3151 H   0  0  0  0  0  0  0  0  0  0  0  0
  139.3697   68.3769  225.6467 H   0  0  0  0  0  0  0  0  0  0  0  0
  141.5103   71.3457  227.9620 H   0  0  0  0  0  0  0  0  0  0  0  0
  141.4899   72.8242  225.9672 H   0  0  0  0  0  0  0  0  0  0  0  0
  1  2  2  0
  2  3  1  0
  3  4  1  0
  4  5  1  0
  5  6  2  0
  5  7  1  0
  7  8  1  0
  8  9  1  0
  9 10  1  0
 10 11  1  0
 11 12  1  0
 12 13  2  0
 13 14  1  0
 14 15  2  0
 15 16  1  0
 16 17  2  0
  2 18  1  0
 18 19  2  0
 19 20  1  0
 20 21  2  0
 21 22  1  0
 22 23  2  0
 23 24  1  0
 23 25  1  0
 25 26  2  0
 26 27  1  0
 27 28  2  0
 11  7  1  0
 17 12  1  0
 28 18  1  0
 27 21  1  0
  3 29  1  0
  4 30  1  0
  4 31  1  0
  8 32  1  0
  8 33  1  0
  9 34  1  0
  9 35  1  0
 10 36  1  0
 10 37  1  0
 11 38  1  6
 13 39  1  0
 14 40  1  0
 15 41  1  0
 16 42  1  0
 19 43  1  0
 20 44  1  0
 22 45  1  0
 25 46  1  0
 26 47  1  0
M  END
>  <smiles>  (93) 
O=C(NCC(=O)N1CCCC1c1ccccn1)c1ccc2cc(Br)ccc2n1

>  <score_type>  (93) 
oracle

>  <origin>  (93) 
autodockgpu

>  <m_score__min__energy>  (93) 
-8.7200000000000006

>  <m_primary>  (93) 
energy

>  <rmsd>  (93) 
2.9833064556564066

>  <m_score__min__rmsd>  (93) 
2.9833064556564066

>  <meeko>  (93) 
{"free_energy": -7.99, "intermolecular_energy": -9.48, "internal_energy": -1.68, "cluster_size": 11, "cluster_id": 2, "rank_in_cluster": 11}

>  <energy>  (93) 
-6.69

>  <cluster_rmsd>  (93) 
0.0

>  <cluster>  (93) 
9

$$$$

     RDKit          3D

 47 50  0  0  0  0  0  0  0  0999 V2000
  133.1740   69.4250  226.4250 O   0  0  0  0  0  0  0  0  0  0  0  0
  133.8160   70.5160  226.2550 C   0  0  0  0  0  0  0  0  0  0  0  0
  135.1290   70.5150  225.7140 N   0  0  0  0  0  0  0  0  0  0  0  0
  135.7850   69.2930  225.3400 C   0  0  0  0  0  0  0  0  0  0  0  0
  136.2340   69.2940  223.9290 C   0  0  0  0  0  0  0  0  0  0  0  0
  135.6330   68.6280  223.0390 O   0  0  0  0  0  0  0  0  0  0  0  0
  137.3700   70.0590  223.5530 N   0  0  0  0  0  0  0  0  0  0  0  0
  137.2310   71.4400  223.0640 C   0  0  0  0  0  0  0  0  0  0  0  0
  138.5380   71.6850  222.2970 C   0  0  0  0  0  0  0  0  0  0  0  0
  139.5110   70.9720  223.2100 C   0  0  0  0  0  0  0  0  0  0  0  0
  138.7580   69.7090  223.5600 C   0  0  1  0  0  0  0  0  0  0  0  0
  139.2030   69.2650  224.9230 C   0  0  0  0  0  0  0  0  0  0  0  0
  139.5930   70.1540  225.8970 C   0  0  0  0  0  0  0  0  0  0  0  0
  139.9880   69.6370  227.1300 C   0  0  0  0  0  0  0  0  0  0  0  0
  139.9650   68.2660  227.3040 C   0  0  0  0  0  0  0  0  0  0  0  0
  139.5710   67.3890  226.3140 C   0  0  0  0  0  0  0  0  0  0  0  0
  139.1930   67.9150  225.1300 N   0  0  0  0  0  0  0  0  0  0  0  0
  133.1870   71.7830  226.6230 C   0  0  0  0  0  0  0  0  0  0  0  0
  131.9430   71.8130  227.2040 C   0  0  0  0  0  0  0  0  0  0  0  0
  131.3780   73.0470  227.5400 C   0  0  0  0  0  0  0  0  0  0  0  0
  132.0760   74.2210  227.2840 C   0  0  0  0  0  0  0  0  0  0  0  0
  131.5450   75.4580  227.6030 C   0  0  0  0  0  0  0  0  0  0  0  0
  132.2830   76.6130  227.3270 C   0  0  0  0  0  0  0  0  0  0  0  0
  131.4820   78.2910  227.7990 Br  0  0  0  0  0  0  0  0  0  0  0  0
  133.5300   76.5500  226.7430 C   0  0  0  0  0  0  0  0  0  0  0  0
  134.0180   75.2940  226.4410 C   0  0  0  0  0  0  0  0  0  0  0  0
  133.3200   74.1530  226.6990 C   0  0  0  0  0  0  0  0  0  0  0  0
  133.8260   72.9490  226.3920 N   0  0  0  0  0  0  0  0  0  0  0  0
  135.5980   71.4640  225.6030 H   0  0  0  0  0  0  0  0  0  0  0  0
  136.6623   69.1519  225.9883 H   0  0  0  0  0  0  0  0  0  0  0  0
  135.0574   68.4763  225.4565 H   0  0  0  0  0  0  0  0  0  0  0  0
  136.3610   71.5349  222.3977 H   0  0  0  0  0  0  0  0  0  0  0  0
  137.0686   72.1659  223.8744 H   0  0  0  0  0  0  0  0  0  0  0  0
  138.5138   71.2348  221.2936 H   0  0  0  0  0  0  0  0  0  0  0  0
  138.7720   72.7422  222.1029 H   0  0  0  0  0  0  0  0  0  0  0  0
  140.4521   70.7431  222.6884 H   0  0  0  0  0  0  0  0  0  0  0  0
  139.8074   71.5655  224.0874 H   0  0  0  0  0  0  0  0  0  0  0  0
  138.9418   68.8852  222.8546 H   0  0  0  0  0  0  0  0  0  0  0  0
  139.5933   71.2379  225.7093 H   0  0  0  0  0  0  0  0  0  0  0  0
  140.3099   70.3034  227.9439 H   0  0  0  0  0  0  0  0  0  0  0  0
  140.2749   67.8551  228.2762 H   0  0  0  0  0  0  0  0  0  0  0  0
  139.5653   66.3022  226.4835 H   0  0  0  0  0  0  0  0  0  0  0  0
  131.3981   70.8783  227.4024 H   0  0  0  0  0  0  0  0  0  0  0  0
  130.3826   73.0884  228.0062 H   0  0  0  0  0  0  0  0  0  0  0  0
  130.5515   75.5322  228.0694 H   0  0  0  0  0  0  0  0  0  0  0  0
  134.1102   77.4593  226.5272 H   0  0  0  0  0  0  0  0  0  0  0  0
  135.0102   75.2115  225.9733 H   0  0  0  0  0  0  0  0  0  0  0  0
  1  2  2  0
  2  3  1  0
  3  4  1  0
  4  5  1  0
  5  6  2  0
  5  7  1  0
  7  8  1  0
  8  9  1  0
  9 10  1  0
 10 11  1  0
 11 12  1  0
 12 13  2  0
 13 14  1  0
 14 15  2  0
 15 16  1  0
 16 17  2  0
  2 18  1  0
 18 19  2  0
 19 20  1  0
 20 21  2  0
 21 22  1  0
 22 23  2  0
 23 24  1  0
 23 25  1  0
 25 26  2  0
 26 27  1  0
 27 28  2  0
 11  7  1  0
 17 12  1  0
 28 18  1  0
 27 21  1  0
  3 29  1  0
  4 30  1  0
  4 31  1  0
  8 32  1  0
  8 33  1  0
  9 34  1  0
  9 35  1  0
 10 36  1  0
 10 37  1  0
 11 38  1  6
 13 39  1  0
 14 40  1  0
 15 41  1  0
 16 42  1  0
 19 43  1  0
 20 44  1  0
 22 45  1  0
 25 46  1  0
 26 47  1  0
M  END
>  <smiles>  (94) 
O=C(NCC(=O)N1CCCC1c1ccccn1)c1ccc2cc(Br)ccc2n1

>  <score_type>  (94) 
oracle

>  <origin>  (94) 
autodockgpu

>  <m_score__min__energy>  (94) 
-8.7200000000000006

>  <m_primary>  (94) 
energy

>  <rmsd>  (94) 
9.232442767836954

>  <m_score__min__rmsd>  (94) 
9.232442767836954

>  <meeko>  (94) 
{"free_energy": -7.96, "intermolecular_energy": -9.46, "internal_energy": -1.73, "cluster_size": 9, "cluster_id": 1, "rank_in_cluster": 7}

>  <energy>  (94) 
-6.68

>  <cluster_rmsd>  (94) 
0.06

>  <cluster>  (94) 
9

$$$$

     RDKit          3D

 47 50  0  0  0  0  0  0  0  0999 V2000
  135.1330   68.4900  224.9160 O   0  0  0  0  0  0  0  0  0  0  0  0
  135.5710   69.6880  224.9830 C   0  0  0  0  0  0  0  0  0  0  0  0
  136.8610   70.0240  224.4920 N   0  0  0  0  0  0  0  0  0  0  0  0
  137.7200   69.0340  223.9030 C   0  0  0  0  0  0  0  0  0  0  0  0
  138.8220   68.6260  224.8040 C   0  0  0  0  0  0  0  0  0  0  0  0
  139.0920   67.4110  225.0160 O   0  0  0  0  0  0  0  0  0  0  0  0
  139.6030   69.6180  225.4540 N   0  0  0  0  0  0  0  0  0  0  0  0
  140.6490   69.2530  226.4220 C   0  0  0  0  0  0  0  0  0  0  0  0
  140.8480   70.5350  227.2420 C   0  0  0  0  0  0  0  0  0  0  0  0
  140.7290   71.5670  226.1420 C   0  0  0  0  0  0  0  0  0  0  0  0
  139.5620   71.0440  225.3350 C   0  0  1  0  0  0  0  0  0  0  0  0
  139.7500   71.4800  223.9110 C   0  0  0  0  0  0  0  0  0  0  0  0
  140.9880   71.5280  223.3110 C   0  0  0  0  0  0  0  0  0  0  0  0
  141.0520   71.9460  221.9840 C   0  0  0  0  0  0  0  0  0  0  0  0
  139.8740   72.2880  221.3460 C   0  0  0  0  0  0  0  0  0  0  0  0
  138.6410   72.2340  221.9630 C   0  0  0  0  0  0  0  0  0  0  0  0
  138.6070   71.8250  223.2490 N   0  0  0  0  0  0  0  0  0  0  0  0
  134.7310   70.7270  225.5740 C   0  0  0  0  0  0  0  0  0  0  0  0
  133.6610   70.4020  226.3720 C   0  0  0  0  0  0  0  0  0  0  0  0
  132.8830   71.4280  226.9180 C   0  0  0  0  0  0  0  0  0  0  0  0
  133.1970   72.7540  226.6490 C   0  0  0  0  0  0  0  0  0  0  0  0
  132.4470   73.7920  227.1730 C   0  0  0  0  0  0  0  0  0  0  0  0
  132.8000   75.1120  226.8750 C   0  0  0  0  0  0  0  0  0  0  0  0
  131.7140   76.4970  227.6380 Br  0  0  0  0  0  0  0  0  0  0  0  0
  133.8810   75.4050  226.0700 C   0  0  0  0  0  0  0  0  0  0  0  0
  134.5990   74.3370  225.5710 C   0  0  0  0  0  0  0  0  0  0  0  0
  134.2760   73.0430  225.8450 C   0  0  0  0  0  0  0  0  0  0  0  0
  134.9970   72.0300  225.3410 N   0  0  0  0  0  0  0  0  0  0  0  0
  137.1540   71.0430  224.5840 H   0  0  0  0  0  0  0  0  0  0  0  0
  137.1182   68.1463  223.6584 H   0  0  0  0  0  0  0  0  0  0  0  0
  138.1724   69.4784  223.0042 H   0  0  0  0  0  0  0  0  0  0  0  0
  140.3172   68.4239  227.0643 H   0  0  0  0  0  0  0  0  0  0  0  0
  141.5750   68.9072  225.9394 H   0  0  0  0  0  0  0  0  0  0  0  0
  140.0650   70.6582  228.0047 H   0  0  0  0  0  0  0  0  0  0  0  0
  141.7834   70.5769  227.8194 H   0  0  0  0  0  0  0  0  0  0  0  0
  140.5141   72.5644  226.5530 H   0  0  0  0  0  0  0  0  0  0  0  0
  141.6502   71.6926  225.5541 H   0  0  0  0  0  0  0  0  0  0  0  0
  138.5896   71.4220  225.6837 H   0  0  0  0  0  0  0  0  0  0  0  0
  141.8973   71.2454  223.8618 H   0  0  0  0  0  0  0  0  0  0  0  0
  142.0157   72.0026  221.4567 H   0  0  0  0  0  0  0  0  0  0  0  0
  139.9220   72.6185  220.2979 H   0  0  0  0  0  0  0  0  0  0  0  0
  137.7215   72.5134  221.4278 H   0  0  0  0  0  0  0  0  0  0  0  0
  133.4194   69.3490  226.5787 H   0  0  0  0  0  0  0  0  0  0  0  0
  132.0233   71.1851  227.5598 H   0  0  0  0  0  0  0  0  0  0  0  0
  131.5812   73.5809  227.8179 H   0  0  0  0  0  0  0  0  0  0  0  0
  134.1585   76.4434  225.8361 H   0  0  0  0  0  0  0  0  0  0  0  0
  135.4669   74.5394  224.9262 H   0  0  0  0  0  0  0  0  0  0  0  0
  1  2  2  0
  2  3  1  0
  3  4  1  0
  4  5  1  0
  5  6  2  0
  5  7  1  0
  7  8  1  0
  8  9  1  0
  9 10  1  0
 10 11  1  0
 11 12  1  0
 12 13  2  0
 13 14  1  0
 14 15  2  0
 15 16  1  0
 16 17  2  0
  2 18  1  0
 18 19  2  0
 19 20  1  0
 20 21  2  0
 21 22  1  0
 22 23  2  0
 23 24  1  0
 23 25  1  0
 25 26  2  0
 26 27  1  0
 27 28  2  0
 11  7  1  0
 17 12  1  0
 28 18  1  0
 27 21  1  0
  3 29  1  0
  4 30  1  0
  4 31  1  0
  8 32  1  0
  8 33  1  0
  9 34  1  0
  9 35  1  0
 10 36  1  0
 10 37  1  0
 11 38  1  1
 13 39  1  0
 14 40  1  0
 15 41  1  0
 16 42  1  0
 19 43  1  0
 20 44  1  0
 22 45  1  0
 25 46  1  0
 26 47  1  0
M  END
>  <smiles>  (95) 
O=C(NCC(=O)N1CCCC1c1ccccn1)c1ccc2cc(Br)ccc2n1

>  <score_type>  (95) 
oracle

>  <origin>  (95) 
autodockgpu

>  <m_score__min__energy>  (95) 
-8.7200000000000006

>  <m_primary>  (95) 
energy

>  <rmsd>  (95) 
8.219545904120993

>  <m_score__min__rmsd>  (95) 
8.219545904120993

>  <meeko>  (95) 
{"free_energy": -7.57, "intermolecular_energy": -9.06, "internal_energy": -2.42, "cluster_size": 4, "cluster_id": 5, "rank_in_cluster": 2}

>  <energy>  (95) 
-6.67

>  <cluster_rmsd>  (95) 
0.1

>  <cluster>  (95) 
9

$$$$

     RDKit          3D

 47 50  0  0  0  0  0  0  0  0999 V2000
  139.9370   72.4530  220.5640 O   0  0  0  0  0  0  0  0  0  0  0  0
  139.8220   72.8590  221.7700 C   0  0  0  0  0  0  0  0  0  0  0  0
  139.6580   74.2390  222.0650 N   0  0  0  0  0  0  0  0  0  0  0  0
  139.6170   75.2280  221.0230 C   0  0  0  0  0  0  0  0  0  0  0  0
  140.5140   76.3760  221.2890 C   0  0  0  0  0  0  0  0  0  0  0  0
  140.5350   76.9560  222.4110 O   0  0  0  0  0  0  0  0  0  0  0  0
  141.3770   76.8460  220.2650 N   0  0  0  0  0  0  0  0  0  0  0  0
  141.7310   78.2700  220.1600 C   0  0  0  0  0  0  0  0  0  0  0  0
  142.1900   78.4220  218.7030 C   0  0  0  0  0  0  0  0  0  0  0  0
  142.9450   77.1230  218.5320 C   0  0  0  0  0  0  0  0  0  0  0  0
  142.0330   76.1290  219.2140 C   0  0  1  0  0  0  0  0  0  0  0  0
  142.8810   75.0170  219.7570 C   0  0  0  0  0  0  0  0  0  0  0  0
  142.4240   73.7230  219.8620 C   0  0  0  0  0  0  0  0  0  0  0  0
  143.2940   72.7650  220.3790 C   0  0  0  0  0  0  0  0  0  0  0  0
  144.5630   73.1660  220.7560 C   0  0  0  0  0  0  0  0  0  0  0  0
  145.0050   74.4680  220.6430 C   0  0  0  0  0  0  0  0  0  0  0  0
  144.1420   75.3760  220.1390 N   0  0  0  0  0  0  0  0  0  0  0  0
  139.8600   71.8870  222.8610 C   0  0  0  0  0  0  0  0  0  0  0  0
  139.4130   70.6010  222.6780 C   0  0  0  0  0  0  0  0  0  0  0  0
  139.4660   69.7040  223.7480 C   0  0  0  0  0  0  0  0  0  0  0  0
  139.9670   70.1190  224.9760 C   0  0  0  0  0  0  0  0  0  0  0  0
  140.0330   69.2550  226.0550 C   0  0  0  0  0  0  0  0  0  0  0  0
  140.5440   69.7170  227.2730 C   0  0  0  0  0  0  0  0  0  0  0  0
  140.6050   68.4630  228.7220 Br  0  0  0  0  0  0  0  0  0  0  0  0
  140.9850   71.0150  227.4240 C   0  0  0  0  0  0  0  0  0  0  0  0
  140.8990   71.8390  226.3200 C   0  0  0  0  0  0  0  0  0  0  0  0
  140.4060   71.4150  225.1240 C   0  0  0  0  0  0  0  0  0  0  0  0
  140.3360   72.2450  224.0720 N   0  0  0  0  0  0  0  0  0  0  0  0
  139.5700   74.4970  223.0930 H   0  0  0  0  0  0  0  0  0  0  0  0
  139.9210   74.7556  220.0773 H   0  0  0  0  0  0  0  0  0  0  0  0
  138.5885   75.6148  220.9723 H   0  0  0  0  0  0  0  0  0  0  0  0
  140.8585   78.9077  220.3654 H   0  0  0  0  0  0  0  0  0  0  0  0
  142.5013   78.5732  220.8844 H   0  0  0  0  0  0  0  0  0  0  0  0
  141.3377   78.4935  218.0113 H   0  0  0  0  0  0  0  0  0  0  0  0
  142.7741   79.3300  218.4923 H   0  0  0  0  0  0  0  0  0  0  0  0
  143.0784   76.8767  217.4683 H   0  0  0  0  0  0  0  0  0  0  0  0
  143.9624   77.1463  218.9496 H   0  0  0  0  0  0  0  0  0  0  0  0
  141.2862   75.6903  218.5359 H   0  0  0  0  0  0  0  0  0  0  0  0
  141.4048   73.4537  219.5479 H   0  0  0  0  0  0  0  0  0  0  0  0
  142.9795   71.7162  220.4846 H   0  0  0  0  0  0  0  0  0  0  0  0
  145.2516   72.4119  221.1648 H   0  0  0  0  0  0  0  0  0  0  0  0
  146.0210   74.7553  220.9515 H   0  0  0  0  0  0  0  0  0  0  0  0
  139.0186   70.2816  221.7021 H   0  0  0  0  0  0  0  0  0  0  0  0
  139.1116   68.6707  223.6185 H   0  0  0  0  0  0  0  0  0  0  0  0
  139.6872   68.2154  225.9562 H   0  0  0  0  0  0  0  0  0  0  0  0
  141.3873   71.3774  228.3815 H   0  0  0  0  0  0  0  0  0  0  0  0
  141.2426   72.8801  226.4102 H   0  0  0  0  0  0  0  0  0  0  0  0
  1  2  2  0
  2  3  1  0
  3  4  1  0
  4  5  1  0
  5  6  2  0
  5  7  1  0
  7  8  1  0
  8  9  1  0
  9 10  1  0
 10 11  1  0
 11 12  1  0
 12 13  2  0
 13 14  1  0
 14 15  2  0
 15 16  1  0
 16 17  2  0
  2 18  1  0
 18 19  2  0
 19 20  1  0
 20 21  2  0
 21 22  1  0
 22 23  2  0
 23 24  1  0
 23 25  1  0
 25 26  2  0
 26 27  1  0
 27 28  2  0
 11  7  1  0
 17 12  1  0
 28 18  1  0
 27 21  1  0
  3 29  1  0
  4 30  1  0
  4 31  1  0
  8 32  1  0
  8 33  1  0
  9 34  1  0
  9 35  1  0
 10 36  1  0
 10 37  1  0
 11 38  1  6
 13 39  1  0
 14 40  1  0
 15 41  1  0
 16 42  1  0
 19 43  1  0
 20 44  1  0
 22 45  1  0
 25 46  1  0
 26 47  1  0
M  END
>  <smiles>  (96) 
O=C(NCC(=O)N1CCCC1c1ccccn1)c1ccc2cc(Br)ccc2n1

>  <score_type>  (96) 
oracle

>  <origin>  (96) 
autodockgpu

>  <m_score__min__energy>  (96) 
-8.7200000000000006

>  <m_primary>  (96) 
energy

>  <rmsd>  (96) 
4.043960175271185

>  <m_score__min__rmsd>  (96) 
4.043960175271185

>  <meeko>  (96) 
{"free_energy": -8.08, "intermolecular_energy": -9.57, "internal_energy": -1.97, "cluster_size": 10, "cluster_id": 3, "rank_in_cluster": 6}

>  <energy>  (96) 
-6.63

>  <cluster_rmsd>  (96) 
0.11

>  <cluster>  (96) 
9

$$$$

     RDKit          3D

 47 50  0  0  0  0  0  0  0  0999 V2000
  133.6270   70.1530  226.6120 O   0  0  0  0  0  0  0  0  0  0  0  0
  133.9030   71.2980  226.1170 C   0  0  0  0  0  0  0  0  0  0  0  0
  134.8610   71.4340  225.0770 N   0  0  0  0  0  0  0  0  0  0  0  0
  135.5540   70.2940  224.5430 C   0  0  0  0  0  0  0  0  0  0  0  0
  136.7950   70.6640  223.8250 C   0  0  0  0  0  0  0  0  0  0  0  0
  137.1950   71.8610  223.7640 O   0  0  0  0  0  0  0  0  0  0  0  0
  137.5640   69.6580  223.1840 N   0  0  0  0  0  0  0  0  0  0  0  0
  137.9240   69.7640  221.7610 C   0  0  0  0  0  0  0  0  0  0  0  0
  138.2450   68.3170  221.3600 C   0  0  0  0  0  0  0  0  0  0  0  0
  138.9640   67.8560  222.6090 C   0  0  0  0  0  0  0  0  0  0  0  0
  138.1070   68.4420  223.7080 C   0  0  1  0  0  0  0  0  0  0  0  0
  138.9890   68.7030  224.8940 C   0  0  0  0  0  0  0  0  0  0  0  0
  139.5530   69.9350  225.1370 C   0  0  0  0  0  0  0  0  0  0  0  0
  140.3560   70.0720  226.2670 C   0  0  0  0  0  0  0  0  0  0  0  0
  140.5410   68.9680  227.0790 C   0  0  0  0  0  0  0  0  0  0  0  0
  139.9670   67.7390  226.8190 C   0  0  0  0  0  0  0  0  0  0  0  0
  139.1940   67.6340  225.7180 N   0  0  0  0  0  0  0  0  0  0  0  0
  133.2220   72.4850  226.6310 C   0  0  0  0  0  0  0  0  0  0  0  0
  132.0050   72.3850  227.2590 C   0  0  0  0  0  0  0  0  0  0  0  0
  131.3880   73.5460  227.7350 C   0  0  0  0  0  0  0  0  0  0  0  0
  132.0080   74.7780  227.5690 C   0  0  0  0  0  0  0  0  0  0  0  0
  131.4240   75.9460  228.0270 C   0  0  0  0  0  0  0  0  0  0  0  0
  132.0840   77.1640  227.8370 C   0  0  0  0  0  0  0  0  0  0  0  0
  131.2140   78.7380  228.5010 Br  0  0  0  0  0  0  0  0  0  0  0  0
  133.3070   77.2300  227.2020 C   0  0  0  0  0  0  0  0  0  0  0  0
  133.8490   76.0400  226.7610 C   0  0  0  0  0  0  0  0  0  0  0  0
  133.2280   74.8410  226.9330 C   0  0  0  0  0  0  0  0  0  0  0  0
  133.7850   73.7030  226.4910 N   0  0  0  0  0  0  0  0  0  0  0  0
  135.0370   72.4190  224.7180 H   0  0  0  0  0  0  0  0  0  0  0  0
  135.8150   69.6205  225.3726 H   0  0  0  0  0  0  0  0  0  0  0  0
  134.8840   69.8072  223.8190 H   0  0  0  0  0  0  0  0  0  0  0  0
  137.0827   70.1573  221.1715 H   0  0  0  0  0  0  0  0  0  0  0  0
  138.7631   70.4526  221.5829 H   0  0  0  0  0  0  0  0  0  0  0  0
  137.3321   67.7321  221.1742 H   0  0  0  0  0  0  0  0  0  0  0  0
  138.8180   68.2093  220.4272 H   0  0  0  0  0  0  0  0  0  0  0  0
  138.9937   66.7581  222.6694 H   0  0  0  0  0  0  0  0  0  0  0  0
  140.0163   68.1731  222.6542 H   0  0  0  0  0  0  0  0  0  0  0  0
  137.2929   67.7741  224.0261 H   0  0  0  0  0  0  0  0  0  0  0  0
  139.3753   70.7840  224.4606 H   0  0  0  0  0  0  0  0  0  0  0  0
  140.8312   71.0345  226.5075 H   0  0  0  0  0  0  0  0  0  0  0  0
  141.1740   69.0735  227.9724 H   0  0  0  0  0  0  0  0  0  0  0  0
  140.1336   66.8787  227.4840 H   0  0  0  0  0  0  0  0  0  0  0  0
  131.5220   71.4049  227.3859 H   0  0  0  0  0  0  0  0  0  0  0  0
  130.4129   73.4839  228.2403 H   0  0  0  0  0  0  0  0  0  0  0  0
  130.4493   75.9165  228.5360 H   0  0  0  0  0  0  0  0  0  0  0  0
  133.8267   78.1881  227.0539 H   0  0  0  0  0  0  0  0  0  0  0  0
  134.8227   76.0612  226.2496 H   0  0  0  0  0  0  0  0  0  0  0  0
  1  2  2  0
  2  3  1  0
  3  4  1  0
  4  5  1  0
  5  6  2  0
  5  7  1  0
  7  8  1  0
  8  9  1  0
  9 10  1  0
 10 11  1  0
 11 12  1  0
 12 13  2  0
 13 14  1  0
 14 15  2  0
 15 16  1  0
 16 17  2  0
  2 18  1  0
 18 19  2  0
 19 20  1  0
 20 21  2  0
 21 22  1  0
 22 23  2  0
 23 24  1  0
 23 25  1  0
 25 26  2  0
 26 27  1  0
 27 28  2  0
 11  7  1  0
 17 12  1  0
 28 18  1  0
 27 21  1  0
  3 29  1  0
  4 30  1  0
  4 31  1  0
  8 32  1  0
  8 33  1  0
  9 34  1  0
  9 35  1  0
 10 36  1  0
 10 37  1  0
 11 38  1  1
 13 39  1  0
 14 40  1  0
 15 41  1  0
 16 42  1  0
 19 43  1  0
 20 44  1  0
 22 45  1  0
 25 46  1  0
 26 47  1  0
M  END
>  <smiles>  (97) 
O=C(NCC(=O)N1CCCC1c1ccccn1)c1ccc2cc(Br)ccc2n1

>  <score_type>  (97) 
oracle

>  <origin>  (97) 
autodockgpu

>  <m_score__min__energy>  (97) 
-8.7200000000000006

>  <m_primary>  (97) 
energy

>  <rmsd>  (97) 
9.479006951702617

>  <m_score__min__rmsd>  (97) 
9.479006951702617

>  <meeko>  (97) 
{"free_energy": -7.91, "intermolecular_energy": -9.4, "internal_energy": -1.75, "cluster_size": 9, "cluster_id": 1, "rank_in_cluster": 8}

>  <energy>  (97) 
-6.54

>  <cluster_rmsd>  (97) 
0.0

>  <cluster>  (97) 
10

$$$$

     RDKit          3D

 47 50  0  0  0  0  0  0  0  0999 V2000
  140.0510   72.6660  220.6800 O   0  0  0  0  0  0  0  0  0  0  0  0
  139.8530   72.9970  221.8980 C   0  0  0  0  0  0  0  0  0  0  0  0
  139.5880   74.3460  222.2570 N   0  0  0  0  0  0  0  0  0  0  0  0
  139.5320   75.3860  221.2670 C   0  0  0  0  0  0  0  0  0  0  0  0
  140.3760   76.5520  221.6170 C   0  0  0  0  0  0  0  0  0  0  0  0
  140.7330   76.7810  222.8060 O   0  0  0  0  0  0  0  0  0  0  0  0
  140.8000   77.4450  220.5970 N   0  0  0  0  0  0  0  0  0  0  0  0
  140.1040   77.5090  219.3020 C   0  0  0  0  0  0  0  0  0  0  0  0
  141.1430   78.1410  218.3650 C   0  0  0  0  0  0  0  0  0  0  0  0
  141.7480   79.1640  219.3000 C   0  0  0  0  0  0  0  0  0  0  0  0
  141.8800   78.3840  220.5880 C   0  0  1  0  0  0  0  0  0  0  0  0
  141.7720   79.3520  221.7300 C   0  0  0  0  0  0  0  0  0  0  0  0
  140.6130   80.0380  222.0090 C   0  0  0  0  0  0  0  0  0  0  0  0
  140.6190   80.9130  223.0930 C   0  0  0  0  0  0  0  0  0  0  0  0
  141.7840   81.0430  223.8250 C   0  0  0  0  0  0  0  0  0  0  0  0
  142.9390   80.3470  223.5310 C   0  0  0  0  0  0  0  0  0  0  0  0
  142.9060   79.5050  222.4760 N   0  0  0  0  0  0  0  0  0  0  0  0
  139.9020   71.9700  222.9380 C   0  0  0  0  0  0  0  0  0  0  0  0
  139.4510   70.6960  222.6940 C   0  0  0  0  0  0  0  0  0  0  0  0
  139.5150   69.7440  223.7160 C   0  0  0  0  0  0  0  0  0  0  0  0
  140.0310   70.0950  224.9580 C   0  0  0  0  0  0  0  0  0  0  0  0
  140.1070   69.1780  225.9910 C   0  0  0  0  0  0  0  0  0  0  0  0
  140.6330   69.5760  227.2240 C   0  0  0  0  0  0  0  0  0  0  0  0
  140.7090   68.2490  228.6070 Br  0  0  0  0  0  0  0  0  0  0  0  0
  141.0780   70.8640  227.4370 C   0  0  0  0  0  0  0  0  0  0  0  0
  140.9800   71.7430  226.3780 C   0  0  0  0  0  0  0  0  0  0  0  0
  140.4730   71.3820  225.1670 C   0  0  0  0  0  0  0  0  0  0  0  0
  140.3930   72.2650  224.1600 N   0  0  0  0  0  0  0  0  0  0  0  0
  139.4350   74.5410  223.2910 H   0  0  0  0  0  0  0  0  0  0  0  0
  139.8776   74.9767  220.3062 H   0  0  0  0  0  0  0  0  0  0  0  0
  138.4903   75.7344  221.2085 H   0  0  0  0  0  0  0  0  0  0  0  0
  139.8239   76.5029  218.9564 H   0  0  0  0  0  0  0  0  0  0  0  0
  139.1660   78.0816  219.3486 H   0  0  0  0  0  0  0  0  0  0  0  0
  141.8880   77.4062  218.0260 H   0  0  0  0  0  0  0  0  0  0  0  0
  140.7356   78.5510  217.4291 H   0  0  0  0  0  0  0  0  0  0  0  0
  142.7294   79.5038  218.9376 H   0  0  0  0  0  0  0  0  0  0  0  0
  141.1472   80.0801  219.3992 H   0  0  0  0  0  0  0  0  0  0  0  0
  142.8397   77.8539  220.6772 H   0  0  0  0  0  0  0  0  0  0  0  0
  139.7102   79.9002  221.3958 H   0  0  0  0  0  0  0  0  0  0  0  0
  139.7188   81.4862  223.3597 H   0  0  0  0  0  0  0  0  0  0  0  0
  141.7911   81.7331  224.6816 H   0  0  0  0  0  0  0  0  0  0  0  0
  143.8510   80.4733  224.1328 H   0  0  0  0  0  0  0  0  0  0  0  0
  139.0448   70.4281  221.7075 H   0  0  0  0  0  0  0  0  0  0  0  0
  139.1576   68.7191  223.5375 H   0  0  0  0  0  0  0  0  0  0  0  0
  139.7570   68.1456  225.8439 H   0  0  0  0  0  0  0  0  0  0  0  0
  141.4922   71.1762  228.4070 H   0  0  0  0  0  0  0  0  0  0  0  0
  141.3256   72.7779  226.5178 H   0  0  0  0  0  0  0  0  0  0  0  0
  1  2  2  0
  2  3  1  0
  3  4  1  0
  4  5  1  0
  5  6  2  0
  5  7  1  0
  7  8  1  0
  8  9  1  0
  9 10  1  0
 10 11  1  0
 11 12  1  0
 12 13  2  0
 13 14  1  0
 14 15  2  0
 15 16  1  0
 16 17  2  0
  2 18  1  0
 18 19  2  0
 19 20  1  0
 20 21  2  0
 21 22  1  0
 22 23  2  0
 23 24  1  0
 23 25  1  0
 25 26  2  0
 26 27  1  0
 27 28  2  0
 11  7  1  0
 17 12  1  0
 28 18  1  0
 27 21  1  0
  3 29  1  0
  4 30  1  0
  4 31  1  0
  8 32  1  0
  8 33  1  0
  9 34  1  0
  9 35  1  0
 10 36  1  0
 10 37  1  0
 11 38  1  6
 13 39  1  0
 14 40  1  0
 15 41  1  0
 16 42  1  0
 19 43  1  0
 20 44  1  0
 22 45  1  0
 25 46  1  0
 26 47  1  0
M  END
>  <smiles>  (98) 
O=C(NCC(=O)N1CCCC1c1ccccn1)c1ccc2cc(Br)ccc2n1

>  <score_type>  (98) 
oracle

>  <origin>  (98) 
autodockgpu

>  <m_score__min__energy>  (98) 
-8.7200000000000006

>  <m_primary>  (98) 
energy

>  <rmsd>  (98) 
2.2313848416572255

>  <m_score__min__rmsd>  (98) 
2.2313848416572255

>  <meeko>  (98) 
{"free_energy": -8.39, "intermolecular_energy": -9.88, "internal_energy": -1.56, "cluster_size": 11, "cluster_id": 2, "rank_in_cluster": 7}

>  <energy>  (98) 
-6.43

>  <cluster_rmsd>  (98) 
0.0

>  <cluster>  (98) 
11

$$$$

     RDKit          3D

 47 50  0  0  0  0  0  0  0  0999 V2000
  140.7250   72.7400  220.8100 O   0  0  0  0  0  0  0  0  0  0  0  0
  140.0310   72.9440  221.8630 C   0  0  0  0  0  0  0  0  0  0  0  0
  139.2520   74.1220  222.0100 N   0  0  0  0  0  0  0  0  0  0  0  0
  139.2130   75.1270  220.9840 C   0  0  0  0  0  0  0  0  0  0  0  0
  139.7640   76.4250  221.4350 C   0  0  0  0  0  0  0  0  0  0  0  0
  140.9980   76.6850  221.3600 O   0  0  0  0  0  0  0  0  0  0  0  0
  138.8940   77.4120  221.9690 N   0  0  0  0  0  0  0  0  0  0  0  0
  137.7060   77.0370  222.7520 C   0  0  0  0  0  0  0  0  0  0  0  0
  136.8090   78.2800  222.6650 C   0  0  0  0  0  0  0  0  0  0  0  0
  137.8560   79.3650  222.7740 C   0  0  0  0  0  0  0  0  0  0  0  0
  138.9580   78.8390  221.8810 C   0  0  1  0  0  0  0  0  0  0  0  0
  140.2650   79.3600  222.4020 C   0  0  0  0  0  0  0  0  0  0  0  0
  140.9450   80.3890  221.7910 C   0  0  0  0  0  0  0  0  0  0  0  0
  142.1520   80.7980  222.3560 C   0  0  0  0  0  0  0  0  0  0  0  0
  142.5960   80.1510  223.4940 C   0  0  0  0  0  0  0  0  0  0  0  0
  141.9000   79.1210  224.0940 C   0  0  0  0  0  0  0  0  0  0  0  0
  140.7350   78.7450  223.5260 N   0  0  0  0  0  0  0  0  0  0  0  0
  140.0420   71.9480  222.9330 C   0  0  0  0  0  0  0  0  0  0  0  0
  139.5620   70.6780  222.7210 C   0  0  0  0  0  0  0  0  0  0  0  0
  139.5910   69.7560  223.7710 C   0  0  0  0  0  0  0  0  0  0  0  0
  140.1000   70.1310  225.0090 C   0  0  0  0  0  0  0  0  0  0  0  0
  140.1420   69.2430  226.0690 C   0  0  0  0  0  0  0  0  0  0  0  0
  140.6630   69.6640  227.2970 C   0  0  0  0  0  0  0  0  0  0  0  0
  140.6890   68.3780  228.7190 Br  0  0  0  0  0  0  0  0  0  0  0  0
  141.1370   70.9470  227.4770 C   0  0  0  0  0  0  0  0  0  0  0  0
  141.0740   71.7970  226.3910 C   0  0  0  0  0  0  0  0  0  0  0  0
  140.5720   71.4120  225.1850 C   0  0  0  0  0  0  0  0  0  0  0  0
  140.5260   72.2660  224.1510 N   0  0  0  0  0  0  0  0  0  0  0  0
  138.7030   74.2180  222.9160 H   0  0  0  0  0  0  0  0  0  0  0  0
  139.8011   74.7748  220.1237 H   0  0  0  0  0  0  0  0  0  0  0  0
  138.1583   75.2884  220.7167 H   0  0  0  0  0  0  0  0  0  0  0  0
  137.2066   76.1608  222.3127 H   0  0  0  0  0  0  0  0  0  0  0  0
  137.9479   76.7562  223.7877 H   0  0  0  0  0  0  0  0  0  0  0  0
  136.2691   78.3280  221.7078 H   0  0  0  0  0  0  0  0  0  0  0  0
  136.0096   78.3291  223.4190 H   0  0  0  0  0  0  0  0  0  0  0  0
  137.4715   80.3282  222.4073 H   0  0  0  0  0  0  0  0  0  0  0  0
  138.1812   79.5618  223.8063 H   0  0  0  0  0  0  0  0  0  0  0  0
  138.8552   79.1560  220.8327 H   0  0  0  0  0  0  0  0  0  0  0  0
  140.5488   80.8730  220.8861 H   0  0  0  0  0  0  0  0  0  0  0  0
  142.7363   81.6150  221.9076 H   0  0  0  0  0  0  0  0  0  0  0  0
  143.5480   80.4718  223.9422 H   0  0  0  0  0  0  0  0  0  0  0  0
  142.2801   78.6260  224.9998 H   0  0  0  0  0  0  0  0  0  0  0  0
  139.1603   70.3909  221.7380 H   0  0  0  0  0  0  0  0  0  0  0  0
  139.2115   68.7349  223.6179 H   0  0  0  0  0  0  0  0  0  0  0  0
  139.7691   68.2153  225.9473 H   0  0  0  0  0  0  0  0  0  0  0  0
  141.5468   71.2779  228.4427 H   0  0  0  0  0  0  0  0  0  0  0  0
  141.4442   72.8266  226.5044 H   0  0  0  0  0  0  0  0  0  0  0  0
  1  2  2  0
  2  3  1  0
  3  4  1  0
  4  5  1  0
  5  6  2  0
  5  7  1  0
  7  8  1  0
  8  9  1  0
  9 10  1  0
 10 11  1  0
 11 12  1  0
 12 13  2  0
 13 14  1  0
 14 15  2  0
 15 16  1  0
 16 17  2  0
  2 18  1  0
 18 19  2  0
 19 20  1  0
 20 21  2  0
 21 22  1  0
 22 23  2  0
 23 24  1  0
 23 25  1  0
 25 26  2  0
 26 27  1  0
 27 28  2  0
 11  7  1  0
 17 12  1  0
 28 18  1  0
 27 21  1  0
  3 29  1  0
  4 30  1  0
  4 31  1  0
  8 32  1  0
  8 33  1  0
  9 34  1  0
  9 35  1  0
 10 36  1  0
 10 37  1  0
 11 38  1  6
 13 39  1  0
 14 40  1  0
 15 41  1  0
 16 42  1  0
 19 43  1  0
 20 44  1  0
 22 45  1  0
 25 46  1  0
 26 47  1  0
M  END
>  <smiles>  (99) 
O=C(NCC(=O)N1CCCC1c1ccccn1)c1ccc2cc(Br)ccc2n1

>  <score_type>  (99) 
oracle

>  <origin>  (99) 
autodockgpu

>  <m_score__min__energy>  (99) 
-8.7200000000000006

>  <m_primary>  (99) 
energy

>  <rmsd>  (99) 
3.1089496800049945

>  <m_score__min__rmsd>  (99) 
3.1089496800049945

>  <meeko>  (99) 
{"free_energy": -8.5, "intermolecular_energy": -10.0, "internal_energy": -1.32, "cluster_size": 11, "cluster_id": 2, "rank_in_cluster": 2}

>  <energy>  (99) 
-6.35

>  <cluster_rmsd>  (99) 
0.62

>  <cluster>  (99) 
11

$$$$

     RDKit          3D

 47 50  0  0  0  0  0  0  0  0999 V2000
  140.3910   72.4920  220.5500 O   0  0  0  0  0  0  0  0  0  0  0  0
  140.0650   72.8910  221.7190 C   0  0  0  0  0  0  0  0  0  0  0  0
  139.7470   74.2530  221.9640 N   0  0  0  0  0  0  0  0  0  0  0  0
  139.7810   75.2320  220.9120 C   0  0  0  0  0  0  0  0  0  0  0  0
  140.1320   76.5840  221.4010 C   0  0  0  0  0  0  0  0  0  0  0  0
  141.3060   77.0420  221.3060 O   0  0  0  0  0  0  0  0  0  0  0  0
  139.1320   77.3990  221.9960 N   0  0  0  0  0  0  0  0  0  0  0  0
  138.0010   76.8060  222.7260 C   0  0  0  0  0  0  0  0  0  0  0  0
  136.9440   77.9200  222.7210 C   0  0  0  0  0  0  0  0  0  0  0  0
  137.8350   79.1230  222.9350 C   0  0  0  0  0  0  0  0  0  0  0  0
  139.0040   78.8240  222.0230 C   0  0  1  0  0  0  0  0  0  0  0  0
  140.2250   79.4720  222.6060 C   0  0  0  0  0  0  0  0  0  0  0  0
  140.6710   80.7080  222.1980 C   0  0  0  0  0  0  0  0  0  0  0  0
  141.8160   81.2210  222.8050 C   0  0  0  0  0  0  0  0  0  0  0  0
  142.4370   80.4620  223.7800 C   0  0  0  0  0  0  0  0  0  0  0  0
  141.9760   79.2240  224.1770 C   0  0  0  0  0  0  0  0  0  0  0  0
  140.8650   78.7510  223.5730 N   0  0  0  0  0  0  0  0  0  0  0  0
  140.0190   71.9290  222.8180 C   0  0  0  0  0  0  0  0  0  0  0  0
  139.4780   70.6790  222.6420 C   0  0  0  0  0  0  0  0  0  0  0  0
  139.4540   69.7900  223.7210 C   0  0  0  0  0  0  0  0  0  0  0  0
  139.9730   70.1780  224.9500 C   0  0  0  0  0  0  0  0  0  0  0  0
  139.9630   69.3220  226.0380 C   0  0  0  0  0  0  0  0  0  0  0  0
  140.4970   69.7560  227.2560 C   0  0  0  0  0  0  0  0  0  0  0  0
  140.4490   68.5140  228.7170 Br  0  0  0  0  0  0  0  0  0  0  0  0
  141.0330   71.0180  227.4000 C   0  0  0  0  0  0  0  0  0  0  0  0
  141.0190   71.8360  226.2880 C   0  0  0  0  0  0  0  0  0  0  0  0
  140.5070   71.4390  225.0910 C   0  0  0  0  0  0  0  0  0  0  0  0
  140.5100   72.2610  224.0310 N   0  0  0  0  0  0  0  0  0  0  0  0
  139.4870   74.5070  222.9630 H   0  0  0  0  0  0  0  0  0  0  0  0
  140.5287   74.9222  220.1670 H   0  0  0  0  0  0  0  0  0  0  0  0
  138.7721   75.2876  220.4771 H   0  0  0  0  0  0  0  0  0  0  0  0
  137.6282   75.9085  222.2107 H   0  0  0  0  0  0  0  0  0  0  0  0
  138.2718   76.4783  223.7405 H   0  0  0  0  0  0  0  0  0  0  0  0
  136.4098   77.9725  221.7608 H   0  0  0  0  0  0  0  0  0  0  0  0
  136.1391   77.8003  223.4611 H   0  0  0  0  0  0  0  0  0  0  0  0
  137.3268   80.0528  222.6396 H   0  0  0  0  0  0  0  0  0  0  0  0
  138.1235   79.2764  223.9853 H   0  0  0  0  0  0  0  0  0  0  0  0
  138.8670   79.2085  221.0015 H   0  0  0  0  0  0  0  0  0  0  0  0
  140.1407   81.2734  221.4175 H   0  0  0  0  0  0  0  0  0  0  0  0
  142.2154   82.2043  222.5159 H   0  0  0  0  0  0  0  0  0  0  0  0
  143.3406   80.8642  224.2614 H   0  0  0  0  0  0  0  0  0  0  0  0
  142.4936   78.6445  224.9556 H   0  0  0  0  0  0  0  0  0  0  0  0
  139.0690   70.3812  221.6652 H   0  0  0  0  0  0  0  0  0  0  0  0
  139.0248   68.7848  223.5970 H   0  0  0  0  0  0  0  0  0  0  0  0
  139.5395   68.3110  225.9457 H   0  0  0  0  0  0  0  0  0  0  0  0
  141.4531   71.3580  228.3581 H   0  0  0  0  0  0  0  0  0  0  0  0
  141.4385   72.8493  226.3728 H   0  0  0  0  0  0  0  0  0  0  0  0
  1  2  2  0
  2  3  1  0
  3  4  1  0
  4  5  1  0
  5  6  2  0
  5  7  1  0
  7  8  1  0
  8  9  1  0
  9 10  1  0
 10 11  1  0
 11 12  1  0
 12 13  2  0
 13 14  1  0
 14 15  2  0
 15 16  1  0
 16 17  2  0
  2 18  1  0
 18 19  2  0
 19 20  1  0
 20 21  2  0
 21 22  1  0
 22 23  2  0
 23 24  1  0
 23 25  1  0
 25 26  2  0
 26 27  1  0
 27 28  2  0
 11  7  1  0
 17 12  1  0
 28 18  1  0
 27 21  1  0
  3 29  1  0
  4 30  1  0
  4 31  1  0
  8 32  1  0
  8 33  1  0
  9 34  1  0
  9 35  1  0
 10 36  1  0
 10 37  1  0
 11 38  1  6
 13 39  1  0
 14 40  1  0
 15 41  1  0
 16 42  1  0
 19 43  1  0
 20 44  1  0
 22 45  1  0
 25 46  1  0
 26 47  1  0
M  END
>  <smiles>  (100) 
O=C(NCC(=O)N1CCCC1c1ccccn1)c1ccc2cc(Br)ccc2n1

>  <score_type>  (100) 
oracle

>  <origin>  (100) 
autodockgpu

>  <m_score__min__energy>  (100) 
-8.7200000000000006

>  <m_primary>  (100) 
energy

>  <rmsd>  (100) 
3.1494421144085343

>  <m_score__min__rmsd>  (100) 
3.1494421144085343

>  <meeko>  (100) 
{"free_energy": -8.45, "intermolecular_energy": -9.94, "internal_energy": -1.4, "cluster_size": 11, "cluster_id": 2, "rank_in_cluster": 6}

>  <energy>  (100) 
-6.05

>  <cluster_rmsd>  (100) 
0.0

>  <cluster>  (100) 
12

$$$$
