
     RDKit          3D

 42 44  0  0  0  0  0  0  0  0999 V2000
  138.1420   75.6460  222.7160 O   0  0  0  0  0  0  0  0  0  0  0  0
  139.1870   75.9580  222.0850 C   0  0  0  0  0  0  0  0  0  0  0  0
  139.3540   77.3410  221.7410 N   0  0  0  0  0  0  0  0  0  0  0  0
  138.3530   78.3170  222.1170 C   0  0  0  0  0  0  0  0  0  0  0  0
  138.8100   79.7050  221.8660 C   0  0  0  0  0  0  0  0  0  0  0  0
  138.1040   80.5130  221.1780 O   0  0  0  0  0  0  0  0  0  0  0  0
  140.0610   80.0910  222.4240 N   0  0  0  0  0  0  0  0  0  0  0  0
  140.3960   80.3320  223.8280 C   0  0  0  0  0  0  0  0  0  0  0  0
  141.5680   81.2560  223.8350 C   0  0  0  0  0  0  0  0  0  0  0  0
  141.7980   81.5900  222.3810 C   0  0  0  0  0  0  0  0  0  0  0  0
  141.2970   80.3320  221.7020 C   0  0  1  0  0  0  0  0  0  0  0  0
  142.2030   79.1510  221.9910 C   0  0  0  0  0  0  0  0  0  0  0  0
  141.9090   78.0630  221.1750 O   0  0  0  0  0  0  0  0  0  0  0  0
  140.2040   75.0110  221.6950 C   0  0  0  0  0  0  0  0  0  0  0  0
  140.0140   73.6560  221.9350 C   0  0  0  0  0  0  0  0  0  0  0  0
  140.9590   72.7110  221.5810 C   0  0  0  0  0  0  0  0  0  0  0  0
  142.1140   73.2000  220.9680 C   0  0  0  0  0  0  0  0  0  0  0  0
  143.1260   72.3180  220.5750 C   0  0  0  0  0  0  0  0  0  0  0  0
  144.2720   72.8100  219.9650 C   0  0  0  0  0  0  0  0  0  0  0  0
  145.5700   71.7560  219.4520 Cl  0  0  0  0  0  0  0  0  0  0  0  0
  144.4430   74.1770  219.7320 C   0  0  0  0  0  0  0  0  0  0  0  0
  143.4280   75.0190  220.1330 C   0  0  0  0  0  0  0  0  0  0  0  0
  142.2950   74.5420  220.7340 C   0  0  0  0  0  0  0  0  0  0  0  0
  141.3550   75.4260  221.0930 N   0  0  0  0  0  0  0  0  0  0  0  0
  140.2320   77.6030  221.2110 H   0  0  0  0  0  0  0  0  0  0  0  0
  137.4396   78.1325  221.5324 H   0  0  0  0  0  0  0  0  0  0  0  0
  138.1629   78.2112  223.1953 H   0  0  0  0  0  0  0  0  0  0  0  0
  139.5442   80.7957  224.3471 H   0  0  0  0  0  0  0  0  0  0  0  0
  140.6302   79.3907  224.3468 H   0  0  0  0  0  0  0  0  0  0  0  0
  141.3422   82.1653  224.4113 H   0  0  0  0  0  0  0  0  0  0  0  0
  142.4537   80.8029  224.3042 H   0  0  0  0  0  0  0  0  0  0  0  0
  141.2164   82.4717  222.0739 H   0  0  0  0  0  0  0  0  0  0  0  0
  142.8395   81.8475  222.1382 H   0  0  0  0  0  0  0  0  0  0  0  0
  141.2232   80.4420  220.6100 H   0  0  0  0  0  0  0  0  0  0  0  0
  143.2469   79.4527  221.8199 H   0  0  0  0  0  0  0  0  0  0  0  0
  142.0459   78.8470  223.0364 H   0  0  0  0  0  0  0  0  0  0  0  0
  142.3630   77.2630  221.5510 H   0  0  0  0  0  0  0  0  0  0  0  0
  139.0843   73.3252  222.4210 H   0  0  0  0  0  0  0  0  0  0  0  0
  140.8097   71.6379  221.7710 H   0  0  0  0  0  0  0  0  0  0  0  0
  143.0142   71.2376  220.7488 H   0  0  0  0  0  0  0  0  0  0  0  0
  145.3511   74.5657  219.2480 H   0  0  0  0  0  0  0  0  0  0  0  0
  143.5314   76.1013  219.9657 H   0  0  0  0  0  0  0  0  0  0  0  0
  1  2  2  0
  2  3  1  0
  3  4  1  0
  4  5  1  0
  5  6  2  0
  5  7  1  0
  7  8  1  0
  8  9  1  0
  9 10  1  0
 10 11  1  0
 11 12  1  0
 12 13  1  0
  2 14  1  0
 14 15  2  0
 15 16  1  0
 16 17  2  0
 17 18  1  0
 18 19  2  0
 19 20  1  0
 19 21  1  0
 21 22  2  0
 22 23  1  0
 23 24  2  0
 11  7  1  0
 24 14  1  0
 23 17  1  0
  3 25  1  0
  4 26  1  0
  4 27  1  0
  8 28  1  0
  8 29  1  0
  9 30  1  0
  9 31  1  0
 10 32  1  0
 10 33  1  0
 11 34  1  6
 12 35  1  0
 12 36  1  0
 13 37  1  0
 15 38  1  0
 16 39  1  0
 18 40  1  0
 21 41  1  0
 22 42  1  0
M  END
>  <smiles>  (1) 
O=C(NCC(=O)N1CCC[C@H]1CO)c1ccc2cc(Cl)ccc2n1

>  <score_type>  (1) 
oracle

>  <origin>  (1) 
autodockgpu

>  <m_score__min__energy>  (1) 
-7.4800000000000004

>  <m_primary>  (1) 
energy

>  <rmsd>  (1) 
6.591741043332808

>  <m_score__min__rmsd>  (1) 
6.591741043332808

>  <meeko>  (1) 
{"free_energy": -5.02, "intermolecular_energy": -6.81, "internal_energy": -2.87, "cluster_size": 1, "cluster_id": 8, "rank_in_cluster": 1}

>  <energy>  (1) 
-7.48

>  <cluster_rmsd>  (1) 
0.0

>  <cluster>  (1) 
1

$$$$

     RDKit          3D

 42 44  0  0  0  0  0  0  0  0999 V2000
  139.4310   69.8510  221.9320 O   0  0  0  0  0  0  0  0  0  0  0  0
  139.3830   70.9560  222.5340 C   0  0  0  0  0  0  0  0  0  0  0  0
  138.6780   70.9900  223.7830 N   0  0  0  0  0  0  0  0  0  0  0  0
  138.0590   69.7920  224.3090 C   0  0  0  0  0  0  0  0  0  0  0  0
  139.0580   68.8560  224.8800 C   0  0  0  0  0  0  0  0  0  0  0  0
  139.1750   67.6700  224.4290 O   0  0  0  0  0  0  0  0  0  0  0  0
  139.8700   69.3380  225.9440 N   0  0  0  0  0  0  0  0  0  0  0  0
  140.9550   68.6500  226.6440 C   0  0  0  0  0  0  0  0  0  0  0  0
  141.0640   69.2840  227.9910 C   0  0  0  0  0  0  0  0  0  0  0  0
  139.9300   70.2790  228.0360 C   0  0  0  0  0  0  0  0  0  0  0  0
  139.7940   70.6450  226.5720 C   0  0  1  0  0  0  0  0  0  0  0  0
  140.9970   71.4280  226.0850 C   0  0  0  0  0  0  0  0  0  0  0  0
  140.8280   71.8740  224.7780 O   0  0  0  0  0  0  0  0  0  0  0  0
  139.9890   72.1690  222.0380 C   0  0  0  0  0  0  0  0  0  0  0  0
  141.0770   72.0950  221.1770 C   0  0  0  0  0  0  0  0  0  0  0  0
  141.6920   73.2280  220.6760 C   0  0  0  0  0  0  0  0  0  0  0  0
  141.1540   74.4480  221.0880 C   0  0  0  0  0  0  0  0  0  0  0  0
  141.7100   75.6490  220.6320 C   0  0  0  0  0  0  0  0  0  0  0  0
  141.1710   76.8590  221.0440 C   0  0  0  0  0  0  0  0  0  0  0  0
  141.8240   78.3910  220.5080 Cl  0  0  0  0  0  0  0  0  0  0  0  0
  140.0760   76.9120  221.9110 C   0  0  0  0  0  0  0  0  0  0  0  0
  139.5530   75.7120  222.3410 C   0  0  0  0  0  0  0  0  0  0  0  0
  140.0780   74.5140  221.9400 C   0  0  0  0  0  0  0  0  0  0  0  0
  139.5110   73.3930  222.4030 N   0  0  0  0  0  0  0  0  0  0  0  0
  138.6390   71.9190  224.2890 H   0  0  0  0  0  0  0  0  0  0  0  0
  137.3474   70.0769  225.0980 H   0  0  0  0  0  0  0  0  0  0  0  0
  137.5490   69.2804  223.4795 H   0  0  0  0  0  0  0  0  0  0  0  0
  140.7221   67.5798  226.7461 H   0  0  0  0  0  0  0  0  0  0  0  0
  141.9009   68.7338  226.0887 H   0  0  0  0  0  0  0  0  0  0  0  0
  140.9517   68.5310  228.7849 H   0  0  0  0  0  0  0  0  0  0  0  0
  142.0430   69.7596  228.1504 H   0  0  0  0  0  0  0  0  0  0  0  0
  139.0080   69.8208  228.4233 H   0  0  0  0  0  0  0  0  0  0  0  0
  140.1118   71.1378  228.6989 H   0  0  0  0  0  0  0  0  0  0  0  0
  138.8952   71.2454  226.3680 H   0  0  0  0  0  0  0  0  0  0  0  0
  141.1454   72.2979  226.7418 H   0  0  0  0  0  0  0  0  0  0  0  0
  141.8716   70.7613  226.1086 H   0  0  0  0  0  0  0  0  0  0  0  0
  140.0900   72.5400  224.7720 H   0  0  0  0  0  0  0  0  0  0  0  0
  141.4605   71.1062  220.8852 H   0  0  0  0  0  0  0  0  0  0  0  0
  142.5532   73.1709  219.9940 H   0  0  0  0  0  0  0  0  0  0  0  0
  142.5720   75.6333  219.9488 H   0  0  0  0  0  0  0  0  0  0  0  0
  139.6493   77.8722  222.2366 H   0  0  0  0  0  0  0  0  0  0  0  0
  138.6910   75.7174  223.0244 H   0  0  0  0  0  0  0  0  0  0  0  0
  1  2  2  0
  2  3  1  0
  3  4  1  0
  4  5  1  0
  5  6  2  0
  5  7  1  0
  7  8  1  0
  8  9  1  0
  9 10  1  0
 10 11  1  0
 11 12  1  0
 12 13  1  0
  2 14  1  0
 14 15  2  0
 15 16  1  0
 16 17  2  0
 17 18  1  0
 18 19  2  0
 19 20  1  0
 19 21  1  0
 21 22  2  0
 22 23  1  0
 23 24  2  0
 11  7  1  0
 24 14  1  0
 23 17  1  0
  3 25  1  0
  4 26  1  0
  4 27  1  0
  8 28  1  0
  8 29  1  0
  9 30  1  0
  9 31  1  0
 10 32  1  0
 10 33  1  0
 11 34  1  1
 12 35  1  0
 12 36  1  0
 13 37  1  0
 15 38  1  0
 16 39  1  0
 18 40  1  0
 21 41  1  0
 22 42  1  0
M  END
>  <smiles>  (2) 
O=C(NCC(=O)N1CCC[C@H]1CO)c1ccc2cc(Cl)ccc2n1

>  <score_type>  (2) 
oracle

>  <origin>  (2) 
autodockgpu

>  <m_score__min__energy>  (2) 
-7.4800000000000004

>  <m_primary>  (2) 
energy

>  <rmsd>  (2) 
8.216799896235262

>  <m_score__min__rmsd>  (2) 
8.216799896235262

>  <meeko>  (2) 
{"free_energy": -6.28, "intermolecular_energy": -8.07, "internal_energy": -2.12, "cluster_size": 16, "cluster_id": 2, "rank_in_cluster": 9}

>  <energy>  (2) 
-7.41

>  <cluster_rmsd>  (2) 
0.19

>  <cluster>  (2) 
1

$$$$

     RDKit          3D

 42 44  0  0  0  0  0  0  0  0999 V2000
  140.9000   73.8200  220.8260 O   0  0  0  0  0  0  0  0  0  0  0  0
  140.1660   73.7730  221.8500 C   0  0  0  0  0  0  0  0  0  0  0  0
  139.5810   75.0070  222.2920 N   0  0  0  0  0  0  0  0  0  0  0  0
  139.8360   76.2390  221.5760 C   0  0  0  0  0  0  0  0  0  0  0  0
  139.4270   77.4300  222.3580 C   0  0  0  0  0  0  0  0  0  0  0  0
  138.2540   77.5200  222.8480 O   0  0  0  0  0  0  0  0  0  0  0  0
  140.3950   78.4570  222.5370 N   0  0  0  0  0  0  0  0  0  0  0  0
  141.4000   78.9360  221.5880 C   0  0  0  0  0  0  0  0  0  0  0  0
  142.5010   79.5360  222.3980 C   0  0  0  0  0  0  0  0  0  0  0  0
  142.1040   79.2770  223.8310 C   0  0  0  0  0  0  0  0  0  0  0  0
  140.5920   79.2670  223.7260 C   0  0  1  0  0  0  0  0  0  0  0  0
  140.0530   80.6470  223.4030 C   0  0  0  0  0  0  0  0  0  0  0  0
  138.7430   80.5930  222.9380 O   0  0  0  0  0  0  0  0  0  0  0  0
  139.8910   72.5630  222.5870 C   0  0  0  0  0  0  0  0  0  0  0  0
  138.9190   71.6820  222.1310 C   0  0  0  0  0  0  0  0  0  0  0  0
  138.6190   70.5110  222.8020 C   0  0  0  0  0  0  0  0  0  0  0  0
  139.3530   70.2680  223.9650 C   0  0  0  0  0  0  0  0  0  0  0  0
  139.1190   69.1080  224.7110 C   0  0  0  0  0  0  0  0  0  0  0  0
  139.8510   68.8710  225.8660 C   0  0  0  0  0  0  0  0  0  0  0  0
  139.6030   67.4380  226.8390 Cl  0  0  0  0  0  0  0  0  0  0  0  0
  140.8260   69.7690  226.3080 C   0  0  0  0  0  0  0  0  0  0  0  0
  141.0300   70.9020  225.5500 C   0  0  0  0  0  0  0  0  0  0  0  0
  140.3130   71.1440  224.4110 C   0  0  0  0  0  0  0  0  0  0  0  0
  140.5730   72.2680  223.7310 N   0  0  0  0  0  0  0  0  0  0  0  0
  138.9640   74.9660  223.1510 H   0  0  0  0  0  0  0  0  0  0  0  0
  140.9124   76.3082  221.3602 H   0  0  0  0  0  0  0  0  0  0  0  0
  139.2448   76.2218  220.6485 H   0  0  0  0  0  0  0  0  0  0  0  0
  141.7841   78.0984  220.9872 H   0  0  0  0  0  0  0  0  0  0  0  0
  140.9704   79.6741  220.8947 H   0  0  0  0  0  0  0  0  0  0  0  0
  143.4612   79.0514  222.1674 H   0  0  0  0  0  0  0  0  0  0  0  0
  142.6359   80.6076  222.1896 H   0  0  0  0  0  0  0  0  0  0  0  0
  142.4889   78.3098  224.1865 H   0  0  0  0  0  0  0  0  0  0  0  0
  142.4999   80.0123  224.5470 H   0  0  0  0  0  0  0  0  0  0  0  0
  140.1056   78.9223  224.6504 H   0  0  0  0  0  0  0  0  0  0  0  0
  140.0827   81.2632  224.3137 H   0  0  0  0  0  0  0  0  0  0  0  0
  140.6798   81.0827  222.6110 H   0  0  0  0  0  0  0  0  0  0  0  0
  138.4260   79.6540  223.0140 H   0  0  0  0  0  0  0  0  0  0  0  0
  138.3713   71.9232  221.2081 H   0  0  0  0  0  0  0  0  0  0  0  0
  137.8489   69.8131  222.4417 H   0  0  0  0  0  0  0  0  0  0  0  0
  138.3569   68.3857  224.3831 H   0  0  0  0  0  0  0  0  0  0  0  0
  141.4066   69.5796  227.2229 H   0  0  0  0  0  0  0  0  0  0  0  0
  141.7895   71.6307  225.8697 H   0  0  0  0  0  0  0  0  0  0  0  0
  1  2  2  0
  2  3  1  0
  3  4  1  0
  4  5  1  0
  5  6  2  0
  5  7  1  0
  7  8  1  0
  8  9  1  0
  9 10  1  0
 10 11  1  0
 11 12  1  0
 12 13  1  0
  2 14  1  0
 14 15  2  0
 15 16  1  0
 16 17  2  0
 17 18  1  0
 18 19  2  0
 19 20  1  0
 19 21  1  0
 21 22  2  0
 22 23  1  0
 23 24  2  0
 11  7  1  0
 24 14  1  0
 23 17  1  0
  3 25  1  0
  4 26  1  0
  4 27  1  0
  8 28  1  0
  8 29  1  0
  9 30  1  0
  9 31  1  0
 10 32  1  0
 10 33  1  0
 11 34  1  1
 12 35  1  0
 12 36  1  0
 13 37  1  0
 15 38  1  0
 16 39  1  0
 18 40  1  0
 21 41  1  0
 22 42  1  0
M  END
>  <smiles>  (3) 
O=C(NCC(=O)N1CCC[C@H]1CO)c1ccc2cc(Cl)ccc2n1

>  <score_type>  (3) 
oracle

>  <origin>  (3) 
autodockgpu

>  <m_score__min__energy>  (3) 
-7.4800000000000004

>  <m_primary>  (3) 
energy

>  <rmsd>  (3) 
3.9267078916314353

>  <m_score__min__rmsd>  (3) 
3.9267078916314353

>  <meeko>  (3) 
{"free_energy": -6.44, "intermolecular_energy": -8.23, "internal_energy": -1.77, "cluster_size": 16, "cluster_id": 3, "rank_in_cluster": 5}

>  <energy>  (3) 
-7.2

>  <cluster_rmsd>  (3) 
0.97

>  <cluster>  (3) 
1

$$$$

     RDKit          3D

 42 44  0  0  0  0  0  0  0  0999 V2000
  140.4460   70.8420  221.8020 O   0  0  0  0  0  0  0  0  0  0  0  0
  140.5130   71.9790  222.3400 C   0  0  0  0  0  0  0  0  0  0  0  0
  140.2740   72.0490  223.7530 N   0  0  0  0  0  0  0  0  0  0  0  0
  139.9730   70.8500  224.5070 C   0  0  0  0  0  0  0  0  0  0  0  0
  140.4060   70.9610  225.9210 C   0  0  0  0  0  0  0  0  0  0  0  0
  140.8720   72.0550  226.3780 O   0  0  0  0  0  0  0  0  0  0  0  0
  140.2780   69.8010  226.7350 N   0  0  0  0  0  0  0  0  0  0  0  0
  139.6860   69.6860  228.0680 C   0  0  0  0  0  0  0  0  0  0  0  0
  140.3120   68.4930  228.7120 C   0  0  0  0  0  0  0  0  0  0  0  0
  141.3430   68.0200  227.7150 C   0  0  0  0  0  0  0  0  0  0  0  0
  140.7160   68.4560  226.4070 C   0  0  1  0  0  0  0  0  0  0  0  0
  139.4650   67.6570  226.1010 C   0  0  0  0  0  0  0  0  0  0  0  0
  139.1760   67.6500  224.7390 O   0  0  0  0  0  0  0  0  0  0  0  0
  140.8110   73.1940  221.6180 C   0  0  0  0  0  0  0  0  0  0  0  0
  141.2840   73.1230  220.3140 C   0  0  0  0  0  0  0  0  0  0  0  0
  141.5840   74.2580  219.5830 C   0  0  0  0  0  0  0  0  0  0  0  0
  141.3830   75.4760  220.2340 C   0  0  0  0  0  0  0  0  0  0  0  0
  141.6590   76.6780  219.5730 C   0  0  0  0  0  0  0  0  0  0  0  0
  141.4570   77.8860  220.2240 C   0  0  0  0  0  0  0  0  0  0  0  0
  141.7850   79.4200  219.4490 Cl  0  0  0  0  0  0  0  0  0  0  0  0
  140.9800   77.9350  221.5370 C   0  0  0  0  0  0  0  0  0  0  0  0
  140.7190   76.7340  222.1590 C   0  0  0  0  0  0  0  0  0  0  0  0
  140.9150   75.5380  221.5240 C   0  0  0  0  0  0  0  0  0  0  0  0
  140.6360   74.4150  222.1990 N   0  0  0  0  0  0  0  0  0  0  0  0
  140.3310   73.0050  224.2040 H   0  0  0  0  0  0  0  0  0  0  0  0
  138.8871   70.6768  224.4805 H   0  0  0  0  0  0  0  0  0  0  0  0
  140.5201   70.0132  224.0483 H   0  0  0  0  0  0  0  0  0  0  0  0
  139.8986   70.5904  228.6569 H   0  0  0  0  0  0  0  0  0  0  0  0
  138.5931   69.5765  228.0083 H   0  0  0  0  0  0  0  0  0  0  0  0
  140.7900   68.7709  229.6629 H   0  0  0  0  0  0  0  0  0  0  0  0
  139.5745   67.7129  228.9518 H   0  0  0  0  0  0  0  0  0  0  0  0
  142.3146   68.5092  227.8782 H   0  0  0  0  0  0  0  0  0  0  0  0
  141.5626   66.9436  227.7716 H   0  0  0  0  0  0  0  0  0  0  0  0
  141.4017   68.3490  225.5535 H   0  0  0  0  0  0  0  0  0  0  0  0
  139.6129   66.6207  226.4389 H   0  0  0  0  0  0  0  0  0  0  0  0
  138.6214   68.1279  226.6270 H   0  0  0  0  0  0  0  0  0  0  0  0
  139.9580   68.0300  224.2560 H   0  0  0  0  0  0  0  0  0  0  0  0
  141.4240   72.1358  219.8494 H   0  0  0  0  0  0  0  0  0  0  0  0
  141.9587   74.2040  218.5502 H   0  0  0  0  0  0  0  0  0  0  0  0
  142.0353   76.6650  218.5394 H   0  0  0  0  0  0  0  0  0  0  0  0
  140.8196   78.8934  222.0525 H   0  0  0  0  0  0  0  0  0  0  0  0
  140.3433   76.7365  223.1929 H   0  0  0  0  0  0  0  0  0  0  0  0
  1  2  2  0
  2  3  1  0
  3  4  1  0
  4  5  1  0
  5  6  2  0
  5  7  1  0
  7  8  1  0
  8  9  1  0
  9 10  1  0
 10 11  1  0
 11 12  1  0
 12 13  1  0
  2 14  1  0
 14 15  2  0
 15 16  1  0
 16 17  2  0
 17 18  1  0
 18 19  2  0
 19 20  1  0
 19 21  1  0
 21 22  2  0
 22 23  1  0
 23 24  2  0
 11  7  1  0
 24 14  1  0
 23 17  1  0
  3 25  1  0
  4 26  1  0
  4 27  1  0
  8 28  1  0
  8 29  1  0
  9 30  1  0
  9 31  1  0
 10 32  1  0
 10 33  1  0
 11 34  1  6
 12 35  1  0
 12 36  1  0
 13 37  1  0
 15 38  1  0
 16 39  1  0
 18 40  1  0
 21 41  1  0
 22 42  1  0
M  END
>  <smiles>  (4) 
O=C(NCC(=O)N1CCC[C@H]1CO)c1ccc2cc(Cl)ccc2n1

>  <score_type>  (4) 
oracle

>  <origin>  (4) 
autodockgpu

>  <m_score__min__energy>  (4) 
-7.4800000000000004

>  <m_primary>  (4) 
energy

>  <rmsd>  (4) 
9.000120399949036

>  <m_score__min__rmsd>  (4) 
9.000120399949036

>  <meeko>  (4) 
{"free_energy": -6.86, "intermolecular_energy": -8.65, "internal_energy": -1.57, "cluster_size": 16, "cluster_id": 2, "rank_in_cluster": 3}

>  <energy>  (4) 
-7.03

>  <cluster_rmsd>  (4) 
0.59

>  <cluster>  (4) 
1

$$$$

     RDKit          3D

 42 44  0  0  0  0  0  0  0  0999 V2000
  139.9660   72.3680  220.6800 O   0  0  0  0  0  0  0  0  0  0  0  0
  139.8390   72.6920  221.8910 C   0  0  0  0  0  0  0  0  0  0  0  0
  139.6320   74.0830  222.1760 N   0  0  0  0  0  0  0  0  0  0  0  0
  139.5730   75.0520  221.1030 C   0  0  0  0  0  0  0  0  0  0  0  0
  140.8590   75.7710  220.9340 C   0  0  0  0  0  0  0  0  0  0  0  0
  141.1140   76.8230  221.6050 O   0  0  0  0  0  0  0  0  0  0  0  0
  141.7870   75.2360  219.9970 N   0  0  0  0  0  0  0  0  0  0  0  0
  141.6000   74.1270  219.0610 C   0  0  0  0  0  0  0  0  0  0  0  0
  142.9580   73.5810  218.7680 C   0  0  0  0  0  0  0  0  0  0  0  0
  143.8860   74.3720  219.6580 C   0  0  0  0  0  0  0  0  0  0  0  0
  143.1470   75.6900  219.7660 C   0  0  1  0  0  0  0  0  0  0  0  0
  143.1370   76.4270  218.4410 C   0  0  0  0  0  0  0  0  0  0  0  0
  143.9950   75.8380  217.5170 O   0  0  0  0  0  0  0  0  0  0  0  0
  139.8930   71.7520  222.9840 C   0  0  0  0  0  0  0  0  0  0  0  0
  139.4080   70.4620  222.8100 C   0  0  0  0  0  0  0  0  0  0  0  0
  139.4360   69.5260  223.8280 C   0  0  0  0  0  0  0  0  0  0  0  0
  139.9810   69.9560  225.0390 C   0  0  0  0  0  0  0  0  0  0  0  0
  140.0520   69.0780  226.1260 C   0  0  0  0  0  0  0  0  0  0  0  0
  140.5950   69.5100  227.3280 C   0  0  0  0  0  0  0  0  0  0  0  0
  140.7100   68.4580  228.7210 Cl  0  0  0  0  0  0  0  0  0  0  0  0
  141.0770   70.8130  227.4830 C   0  0  0  0  0  0  0  0  0  0  0  0
  140.9920   71.6520  226.3930 C   0  0  0  0  0  0  0  0  0  0  0  0
  140.4580   71.2340  225.2040 C   0  0  0  0  0  0  0  0  0  0  0  0
  140.4120   72.1110  224.1930 N   0  0  0  0  0  0  0  0  0  0  0  0
  139.5250   74.3540  223.1940 H   0  0  0  0  0  0  0  0  0  0  0  0
  139.3320   74.5297  220.1654 H   0  0  0  0  0  0  0  0  0  0  0  0
  138.7997   75.7925  221.3554 H   0  0  0  0  0  0  0  0  0  0  0  0
  140.9685   73.3494  219.5155 H   0  0  0  0  0  0  0  0  0  0  0  0
  141.1019   74.4653  218.1404 H   0  0  0  0  0  0  0  0  0  0  0  0
  143.0065   72.5093  219.0111 H   0  0  0  0  0  0  0  0  0  0  0  0
  143.2231   73.6703  217.7042 H   0  0  0  0  0  0  0  0  0  0  0  0
  144.0031   73.8948  220.6422 H   0  0  0  0  0  0  0  0  0  0  0  0
  144.9115   74.4624  219.2705 H   0  0  0  0  0  0  0  0  0  0  0  0
  143.5845   76.3593  220.5214 H   0  0  0  0  0  0  0  0  0  0  0  0
  142.1147   76.4165  218.0351 H   0  0  0  0  0  0  0  0  0  0  0  0
  143.4802   77.4568  218.6192 H   0  0  0  0  0  0  0  0  0  0  0  0
  144.8290   76.3780  217.4810 H   0  0  0  0  0  0  0  0  0  0  0  0
  138.9893   70.1764  221.8337 H   0  0  0  0  0  0  0  0  0  0  0  0
  139.0519   68.5043  223.6915 H   0  0  0  0  0  0  0  0  0  0  0  0
  139.6784   68.0480  226.0282 H   0  0  0  0  0  0  0  0  0  0  0  0
  141.5066   71.1547  228.4362 H   0  0  0  0  0  0  0  0  0  0  0  0
  141.3628   72.6839  226.4807 H   0  0  0  0  0  0  0  0  0  0  0  0
  1  2  2  0
  2  3  1  0
  3  4  1  0
  4  5  1  0
  5  6  2  0
  5  7  1  0
  7  8  1  0
  8  9  1  0
  9 10  1  0
 10 11  1  0
 11 12  1  0
 12 13  1  0
  2 14  1  0
 14 15  2  0
 15 16  1  0
 16 17  2  0
 17 18  1  0
 18 19  2  0
 19 20  1  0
 19 21  1  0
 21 22  2  0
 22 23  1  0
 23 24  2  0
 11  7  1  0
 24 14  1  0
 23 17  1  0
  3 25  1  0
  4 26  1  0
  4 27  1  0
  8 28  1  0
  8 29  1  0
  9 30  1  0
  9 31  1  0
 10 32  1  0
 10 33  1  0
 11 34  1  1
 12 35  1  0
 12 36  1  0
 13 37  1  0
 15 38  1  0
 16 39  1  0
 18 40  1  0
 21 41  1  0
 22 42  1  0
M  END
>  <smiles>  (5) 
O=C(NCC(=O)N1CCC[C@H]1CO)c1ccc2cc(Cl)ccc2n1

>  <score_type>  (5) 
oracle

>  <origin>  (5) 
autodockgpu

>  <m_score__min__energy>  (5) 
-7.4800000000000004

>  <m_primary>  (5) 
energy

>  <rmsd>  (5) 
2.397217605834018

>  <m_score__min__rmsd>  (5) 
2.397217605834018

>  <meeko>  (5) 
{"free_energy": -6.42, "intermolecular_energy": -8.2, "internal_energy": -1.21, "cluster_size": 12, "cluster_id": 1, "rank_in_cluster": 6}

>  <energy>  (5) 
-6.75

>  <cluster_rmsd>  (5) 
1.02

>  <cluster>  (5) 
1

$$$$

     RDKit          3D

 42 44  0  0  0  0  0  0  0  0999 V2000
  141.0510   73.9170  220.9360 O   0  0  0  0  0  0  0  0  0  0  0  0
  140.2470   73.8580  221.9050 C   0  0  0  0  0  0  0  0  0  0  0  0
  139.6100   75.0820  222.3000 N   0  0  0  0  0  0  0  0  0  0  0  0
  139.8920   76.3160  221.5990 C   0  0  0  0  0  0  0  0  0  0  0  0
  139.4500   77.5040  222.3680 C   0  0  0  0  0  0  0  0  0  0  0  0
  138.2750   77.5670  222.8580 O   0  0  0  0  0  0  0  0  0  0  0  0
  140.3880   78.5610  222.5340 N   0  0  0  0  0  0  0  0  0  0  0  0
  141.3520   79.0830  221.5650 C   0  0  0  0  0  0  0  0  0  0  0  0
  142.4540   79.7100  222.3540 C   0  0  0  0  0  0  0  0  0  0  0  0
  142.1030   79.4210  223.7930 C   0  0  0  0  0  0  0  0  0  0  0  0
  140.5910   79.3640  223.7270 C   0  0  1  0  0  0  0  0  0  0  0  0
  139.9990   80.7280  223.4350 C   0  0  0  0  0  0  0  0  0  0  0  0
  138.6640   80.6400  223.0500 O   0  0  0  0  0  0  0  0  0  0  0  0
  139.9430   72.6450  222.6250 C   0  0  0  0  0  0  0  0  0  0  0  0
  138.8730   71.8540  222.2250 C   0  0  0  0  0  0  0  0  0  0  0  0
  138.5420   70.6840  222.8830 C   0  0  0  0  0  0  0  0  0  0  0  0
  139.3470   70.3460  223.9720 C   0  0  0  0  0  0  0  0  0  0  0  0
  139.0880   69.1790  224.7000 C   0  0  0  0  0  0  0  0  0  0  0  0
  139.8920   68.8480  225.7810 C   0  0  0  0  0  0  0  0  0  0  0  0
  139.6160   67.4020  226.7270 Cl  0  0  0  0  0  0  0  0  0  0  0  0
  140.9640   69.6560  226.1670 C   0  0  0  0  0  0  0  0  0  0  0  0
  141.1910   70.7990  225.4300 C   0  0  0  0  0  0  0  0  0  0  0  0
  140.4040   71.1330  224.3630 C   0  0  0  0  0  0  0  0  0  0  0  0
  140.6910   72.2600  223.6980 N   0  0  0  0  0  0  0  0  0  0  0  0
  138.9340   75.0310  223.1130 H   0  0  0  0  0  0  0  0  0  0  0  0
  140.9761   76.3872  221.4271 H   0  0  0  0  0  0  0  0  0  0  0  0
  139.3390   76.3012  220.6482 H   0  0  0  0  0  0  0  0  0  0  0  0
  141.7473   78.2651  220.9447 H   0  0  0  0  0  0  0  0  0  0  0  0
  140.8809   79.8142  220.8916 H   0  0  0  0  0  0  0  0  0  0  0  0
  143.4233   79.2603  222.0927 H   0  0  0  0  0  0  0  0  0  0  0  0
  142.5484   80.7879  222.1557 H   0  0  0  0  0  0  0  0  0  0  0  0
  142.5275   78.4623  224.1258 H   0  0  0  0  0  0  0  0  0  0  0  0
  142.4940   80.1598  224.5080 H   0  0  0  0  0  0  0  0  0  0  0  0
  140.1412   78.9940  224.6601 H   0  0  0  0  0  0  0  0  0  0  0  0
  140.0682   81.3477  224.3412 H   0  0  0  0  0  0  0  0  0  0  0  0
  140.5655   81.1764  222.6055 H   0  0  0  0  0  0  0  0  0  0  0  0
  138.3950   79.6840  223.0850 H   0  0  0  0  0  0  0  0  0  0  0  0
  138.2715   72.1680  221.3592 H   0  0  0  0  0  0  0  0  0  0  0  0
  137.6951   70.0571  222.5672 H   0  0  0  0  0  0  0  0  0  0  0  0
  138.2494   68.5262  224.4159 H   0  0  0  0  0  0  0  0  0  0  0  0
  141.6010   69.3913  227.0238 H   0  0  0  0  0  0  0  0  0  0  0  0
  142.0263   71.4588  225.7074 H   0  0  0  0  0  0  0  0  0  0  0  0
  1  2  2  0
  2  3  1  0
  3  4  1  0
  4  5  1  0
  5  6  2  0
  5  7  1  0
  7  8  1  0
  8  9  1  0
  9 10  1  0
 10 11  1  0
 11 12  1  0
 12 13  1  0
  2 14  1  0
 14 15  2  0
 15 16  1  0
 16 17  2  0
 17 18  1  0
 18 19  2  0
 19 20  1  0
 19 21  1  0
 21 22  2  0
 22 23  1  0
 23 24  2  0
 11  7  1  0
 24 14  1  0
 23 17  1  0
  3 25  1  0
  4 26  1  0
  4 27  1  0
  8 28  1  0
  8 29  1  0
  9 30  1  0
  9 31  1  0
 10 32  1  0
 10 33  1  0
 11 34  1  1
 12 35  1  0
 12 36  1  0
 13 37  1  0
 15 38  1  0
 16 39  1  0
 18 40  1  0
 21 41  1  0
 22 42  1  0
M  END
>  <smiles>  (6) 
O=C(NCC(=O)N1CCC[C@H]1CO)c1ccc2cc(Cl)ccc2n1

>  <score_type>  (6) 
oracle

>  <origin>  (6) 
autodockgpu

>  <m_score__min__energy>  (6) 
-7.4800000000000004

>  <m_primary>  (6) 
energy

>  <rmsd>  (6) 
3.9964324241191886

>  <m_score__min__rmsd>  (6) 
3.9964324241191886

>  <meeko>  (6) 
{"free_energy": -6.46, "intermolecular_energy": -8.25, "internal_energy": -1.78, "cluster_size": 1, "cluster_id": 4, "rank_in_cluster": 1}

>  <energy>  (6) 
-6.42

>  <cluster_rmsd>  (6) 
1.77

>  <cluster>  (6) 
1

$$$$

     RDKit          3D

 42 44  0  0  0  0  0  0  0  0999 V2000
  137.6200   70.9200  220.8920 O   0  0  0  0  0  0  0  0  0  0  0  0
  137.9340   71.4140  222.0080 C   0  0  0  0  0  0  0  0  0  0  0  0
  137.8010   72.8350  222.1550 N   0  0  0  0  0  0  0  0  0  0  0  0
  137.3230   73.6450  221.0540 C   0  0  0  0  0  0  0  0  0  0  0  0
  137.7130   75.0680  221.2030 C   0  0  0  0  0  0  0  0  0  0  0  0
  136.8320   75.9880  221.2310 O   0  0  0  0  0  0  0  0  0  0  0  0
  139.1020   75.3560  221.3120 N   0  0  0  0  0  0  0  0  0  0  0  0
  139.7680   76.2980  222.2120 C   0  0  0  0  0  0  0  0  0  0  0  0
  141.0570   76.6740  221.5580 C   0  0  0  0  0  0  0  0  0  0  0  0
  141.0220   75.9780  220.2190 C   0  0  0  0  0  0  0  0  0  0  0  0
  140.1760   74.7620  220.5360 C   0  0  1  0  0  0  0  0  0  0  0  0
  140.9040   73.8100  221.4650 C   0  0  0  0  0  0  0  0  0  0  0  0
  140.1540   73.5240  222.6020 O   0  0  0  0  0  0  0  0  0  0  0  0
  138.4140   70.6350  223.1250 C   0  0  0  0  0  0  0  0  0  0  0  0
  138.1340   69.2760  223.1900 C   0  0  0  0  0  0  0  0  0  0  0  0
  138.5710   68.4890  224.2400 C   0  0  0  0  0  0  0  0  0  0  0  0
  139.3090   69.1430  225.2290 C   0  0  0  0  0  0  0  0  0  0  0  0
  139.7930   68.4280  226.3300 C   0  0  0  0  0  0  0  0  0  0  0  0
  140.5270   69.0820  227.3090 C   0  0  0  0  0  0  0  0  0  0  0  0
  141.1570   68.2400  228.7070 Cl  0  0  0  0  0  0  0  0  0  0  0  0
  140.7970   70.4500  227.2250 C   0  0  0  0  0  0  0  0  0  0  0  0
  140.3050   71.1250  226.1280 C   0  0  0  0  0  0  0  0  0  0  0  0
  139.5820   70.4880  225.1580 C   0  0  0  0  0  0  0  0  0  0  0  0
  139.1400   71.2150  224.1230 N   0  0  0  0  0  0  0  0  0  0  0  0
  138.0640   73.2490  223.0930 H   0  0  0  0  0  0  0  0  0  0  0  0
  137.7473   73.2565  220.1165 H   0  0  0  0  0  0  0  0  0  0  0  0
  136.2243   73.5923  221.0444 H   0  0  0  0  0  0  0  0  0  0  0  0
  139.1420   77.1906  222.3581 H   0  0  0  0  0  0  0  0  0  0  0  0
  139.9412   75.8475  223.2004 H   0  0  0  0  0  0  0  0  0  0  0  0
  141.1226   77.7642  221.4273 H   0  0  0  0  0  0  0  0  0  0  0  0
  141.9306   76.3799  222.1582 H   0  0  0  0  0  0  0  0  0  0  0  0
  140.5496   76.6076  219.4506 H   0  0  0  0  0  0  0  0  0  0  0  0
  142.0150   75.7405  219.8096 H   0  0  0  0  0  0  0  0  0  0  0  0
  139.8887   74.2007  219.6346 H   0  0  0  0  0  0  0  0  0  0  0  0
  141.1066   72.8723  220.9268 H   0  0  0  0  0  0  0  0  0  0  0  0
  141.8397   74.2921  221.7845 H   0  0  0  0  0  0  0  0  0  0  0  0
  140.0570   72.5370  222.6680 H   0  0  0  0  0  0  0  0  0  0  0  0
  137.5477   68.8123  222.3830 H   0  0  0  0  0  0  0  0  0  0  0  0
  138.3505   67.4126  224.2930 H   0  0  0  0  0  0  0  0  0  0  0  0
  139.5921   67.3502  226.4192 H   0  0  0  0  0  0  0  0  0  0  0  0
  141.3784   70.9676  228.0023 H   0  0  0  0  0  0  0  0  0  0  0  0
  140.4991   72.2034  226.0308 H   0  0  0  0  0  0  0  0  0  0  0  0
  1  2  2  0
  2  3  1  0
  3  4  1  0
  4  5  1  0
  5  6  2  0
  5  7  1  0
  7  8  1  0
  8  9  1  0
  9 10  1  0
 10 11  1  0
 11 12  1  0
 12 13  1  0
  2 14  1  0
 14 15  2  0
 15 16  1  0
 16 17  2  0
 17 18  1  0
 18 19  2  0
 19 20  1  0
 19 21  1  0
 21 22  2  0
 22 23  1  0
 23 24  2  0
 11  7  1  0
 24 14  1  0
 23 17  1  0
  3 25  1  0
  4 26  1  0
  4 27  1  0
  8 28  1  0
  8 29  1  0
  9 30  1  0
  9 31  1  0
 10 32  1  0
 10 33  1  0
 11 34  1  6
 12 35  1  0
 12 36  1  0
 13 37  1  0
 15 38  1  0
 16 39  1  0
 18 40  1  0
 21 41  1  0
 22 42  1  0
M  END
>  <smiles>  (7) 
O=C(NCC(=O)N1CCC[C@H]1CO)c1ccc2cc(Cl)ccc2n1

>  <score_type>  (7) 
oracle

>  <origin>  (7) 
autodockgpu

>  <m_score__min__energy>  (7) 
-7.4800000000000004

>  <m_primary>  (7) 
energy

>  <rmsd>  (7) 
2.2617305029372248

>  <m_score__min__rmsd>  (7) 
2.2617305029372248

>  <meeko>  (7) 
{"free_energy": -5.82, "intermolecular_energy": -7.61, "internal_energy": -2.64, "cluster_size": 16, "cluster_id": 3, "rank_in_cluster": 12}

>  <energy>  (7) 
-6.16

>  <cluster_rmsd>  (7) 
1.91

>  <cluster>  (7) 
1

$$$$

     RDKit          3D

 42 44  0  0  0  0  0  0  0  0999 V2000
  141.2040   72.8850  221.0680 O   0  0  0  0  0  0  0  0  0  0  0  0
  140.3750   72.9610  222.0140 C   0  0  0  0  0  0  0  0  0  0  0  0
  139.4920   74.0920  222.0180 N   0  0  0  0  0  0  0  0  0  0  0  0
  139.5680   75.0880  220.9710 C   0  0  0  0  0  0  0  0  0  0  0  0
  140.5470   76.1550  221.2900 C   0  0  0  0  0  0  0  0  0  0  0  0
  140.5310   76.7410  222.4220 O   0  0  0  0  0  0  0  0  0  0  0  0
  141.4970   76.4910  220.2860 N   0  0  0  0  0  0  0  0  0  0  0  0
  142.1950   77.7610  220.0800 C   0  0  0  0  0  0  0  0  0  0  0  0
  142.5740   77.8110  218.6370 C   0  0  0  0  0  0  0  0  0  0  0  0
  141.9680   76.5640  218.0410 C   0  0  0  0  0  0  0  0  0  0  0  0
  141.9870   75.6240  219.2290 C   0  0  1  0  0  0  0  0  0  0  0  0
  143.4040   75.2410  219.6060 C   0  0  0  0  0  0  0  0  0  0  0  0
  143.4520   74.5790  220.8300 O   0  0  0  0  0  0  0  0  0  0  0  0
  140.2720   71.9860  223.0730 C   0  0  0  0  0  0  0  0  0  0  0  0
  139.6880   70.7520  222.8210 C   0  0  0  0  0  0  0  0  0  0  0  0
  139.5670   69.7860  223.8040 C   0  0  0  0  0  0  0  0  0  0  0  0
  140.0650   70.1270  225.0620 C   0  0  0  0  0  0  0  0  0  0  0  0
  139.9860   69.2140  226.1190 C   0  0  0  0  0  0  0  0  0  0  0  0
  140.4840   69.5580  227.3670 C   0  0  0  0  0  0  0  0  0  0  0  0
  140.4130   68.4570  228.7250 Cl  0  0  0  0  0  0  0  0  0  0  0  0
  141.0680   70.8050  227.6000 C   0  0  0  0  0  0  0  0  0  0  0  0
  141.1290   71.6820  226.5380 C   0  0  0  0  0  0  0  0  0  0  0  0
  140.6420   71.3510  225.3040 C   0  0  0  0  0  0  0  0  0  0  0  0
  140.7400   72.2600  224.3250 N   0  0  0  0  0  0  0  0  0  0  0  0
  138.7950   74.1550  222.8130 H   0  0  0  0  0  0  0  0  0  0  0  0
  139.8707   74.5966  220.0346 H   0  0  0  0  0  0  0  0  0  0  0  0
  138.5766   75.5545  220.8729 H   0  0  0  0  0  0  0  0  0  0  0  0
  141.5318   78.6030  220.3275 H   0  0  0  0  0  0  0  0  0  0  0  0
  143.0825   77.8349  220.7257 H   0  0  0  0  0  0  0  0  0  0  0  0
  142.1607   78.7108  218.1579 H   0  0  0  0  0  0  0  0  0  0  0  0
  143.6637   77.8552  218.4931 H   0  0  0  0  0  0  0  0  0  0  0  0
  140.9421   76.7448  217.6875 H   0  0  0  0  0  0  0  0  0  0  0  0
  142.5018   76.1829  217.1579 H   0  0  0  0  0  0  0  0  0  0  0  0
  141.4247   74.6968  219.0440 H   0  0  0  0  0  0  0  0  0  0  0  0
  143.8135   74.5804  218.8275 H   0  0  0  0  0  0  0  0  0  0  0  0
  143.9963   76.1639  219.6927 H   0  0  0  0  0  0  0  0  0  0  0  0
  142.5380   74.5860  221.2200 H   0  0  0  0  0  0  0  0  0  0  0  0
  139.3106   70.5361  221.8106 H   0  0  0  0  0  0  0  0  0  0  0  0
  139.1056   68.8073  223.6056 H   0  0  0  0  0  0  0  0  0  0  0  0
  139.5300   68.2256  225.9608 H   0  0  0  0  0  0  0  0  0  0  0  0
  141.4630   71.0763  228.5901 H   0  0  0  0  0  0  0  0  0  0  0  0
  141.5811   72.6736  226.6873 H   0  0  0  0  0  0  0  0  0  0  0  0
  1  2  2  0
  2  3  1  0
  3  4  1  0
  4  5  1  0
  5  6  2  0
  5  7  1  0
  7  8  1  0
  8  9  1  0
  9 10  1  0
 10 11  1  0
 11 12  1  0
 12 13  1  0
  2 14  1  0
 14 15  2  0
 15 16  1  0
 16 17  2  0
 17 18  1  0
 18 19  2  0
 19 20  1  0
 19 21  1  0
 21 22  2  0
 22 23  1  0
 23 24  2  0
 11  7  1  0
 24 14  1  0
 23 17  1  0
  3 25  1  0
  4 26  1  0
  4 27  1  0
  8 28  1  0
  8 29  1  0
  9 30  1  0
  9 31  1  0
 10 32  1  0
 10 33  1  0
 11 34  1  6
 12 35  1  0
 12 36  1  0
 13 37  1  0
 15 38  1  0
 16 39  1  0
 18 40  1  0
 21 41  1  0
 22 42  1  0
M  END
>  <smiles>  (8) 
O=C(NCC(=O)N1CCC[C@H]1CO)c1ccc2cc(Cl)ccc2n1

>  <score_type>  (8) 
oracle

>  <origin>  (8) 
autodockgpu

>  <m_score__min__energy>  (8) 
-7.4800000000000004

>  <m_primary>  (8) 
energy

>  <rmsd>  (8) 
2.3376959529774144

>  <m_score__min__rmsd>  (8) 
2.3376959529774144

>  <meeko>  (8) 
{"free_energy": -6.25, "intermolecular_energy": -8.04, "internal_energy": -1.92, "cluster_size": 16, "cluster_id": 3, "rank_in_cluster": 10}

>  <energy>  (8) 
-5.8

>  <cluster_rmsd>  (8) 
1.48

>  <cluster>  (8) 
1

$$$$

     RDKit          3D

 42 44  0  0  0  0  0  0  0  0999 V2000
  137.3000   71.0770  221.0990 O   0  0  0  0  0  0  0  0  0  0  0  0
  137.8160   71.5690  222.1380 C   0  0  0  0  0  0  0  0  0  0  0  0
  137.9040   73.0000  222.2080 N   0  0  0  0  0  0  0  0  0  0  0  0
  137.4120   73.8200  221.1210 C   0  0  0  0  0  0  0  0  0  0  0  0
  138.4520   74.0600  220.0920 C   0  0  0  0  0  0  0  0  0  0  0  0
  138.2120   73.8500  218.8580 O   0  0  0  0  0  0  0  0  0  0  0  0
  139.7170   74.5310  220.5400 N   0  0  0  0  0  0  0  0  0  0  0  0
  140.0150   75.7170  221.3440 C   0  0  0  0  0  0  0  0  0  0  0  0
  141.4250   76.0980  221.0370 C   0  0  0  0  0  0  0  0  0  0  0  0
  141.8540   75.1330  219.9580 C   0  0  0  0  0  0  0  0  0  0  0  0
  141.0100   73.9190  220.2900 C   0  0  1  0  0  0  0  0  0  0  0  0
  141.4470   73.2830  221.5950 C   0  0  0  0  0  0  0  0  0  0  0  0
  140.4340   73.3140  222.5480 O   0  0  0  0  0  0  0  0  0  0  0  0
  138.3170   70.7810  223.2390 C   0  0  0  0  0  0  0  0  0  0  0  0
  137.9990   69.4320  223.3220 C   0  0  0  0  0  0  0  0  0  0  0  0
  138.4540   68.6360  224.3580 C   0  0  0  0  0  0  0  0  0  0  0  0
  139.2500   69.2710  225.3120 C   0  0  0  0  0  0  0  0  0  0  0  0
  139.7560   68.5460  226.3970 C   0  0  0  0  0  0  0  0  0  0  0  0
  140.5480   69.1810  227.3430 C   0  0  0  0  0  0  0  0  0  0  0  0
  141.2080   68.3260  228.7190 Cl  0  0  0  0  0  0  0  0  0  0  0  0
  140.8560   70.5400  227.2400 C   0  0  0  0  0  0  0  0  0  0  0  0
  140.3410   71.2250  226.1610 C   0  0  0  0  0  0  0  0  0  0  0  0
  139.5600   70.6060  225.2240 C   0  0  0  0  0  0  0  0  0  0  0  0
  139.1000   71.3430  224.2040 N   0  0  0  0  0  0  0  0  0  0  0  0
  138.3370   73.4130  223.0810 H   0  0  0  0  0  0  0  0  0  0  0  0
  136.5577   73.3111  220.6507 H   0  0  0  0  0  0  0  0  0  0  0  0
  137.1148   74.7938  221.5374 H   0  0  0  0  0  0  0  0  0  0  0  0
  139.3334   76.5378  221.0764 H   0  0  0  0  0  0  0  0  0  0  0  0
  139.8845   75.5117  222.4167 H   0  0  0  0  0  0  0  0  0  0  0  0
  141.4767   77.1349  220.6736 H   0  0  0  0  0  0  0  0  0  0  0  0
  142.0735   76.0470  221.9241 H   0  0  0  0  0  0  0  0  0  0  0  0
  141.6228   75.5218  218.9553 H   0  0  0  0  0  0  0  0  0  0  0  0
  142.9360   74.9359  219.9351 H   0  0  0  0  0  0  0  0  0  0  0  0
  141.0534   73.1470  219.5076 H   0  0  0  0  0  0  0  0  0  0  0  0
  141.7258   72.2360  221.4053 H   0  0  0  0  0  0  0  0  0  0  0  0
  142.3020   73.8546  221.9852 H   0  0  0  0  0  0  0  0  0  0  0  0
  140.1620   72.3770  222.7410 H   0  0  0  0  0  0  0  0  0  0  0  0
  137.3670   68.9832  222.5415 H   0  0  0  0  0  0  0  0  0  0  0  0
  138.2034   67.5671  224.4256 H   0  0  0  0  0  0  0  0  0  0  0  0
  139.5263   67.4751  226.4996 H   0  0  0  0  0  0  0  0  0  0  0  0
  141.4843   71.0428  227.9900 H   0  0  0  0  0  0  0  0  0  0  0  0
  140.5635   72.2966  226.0503 H   0  0  0  0  0  0  0  0  0  0  0  0
  1  2  2  0
  2  3  1  0
  3  4  1  0
  4  5  1  0
  5  6  2  0
  5  7  1  0
  7  8  1  0
  8  9  1  0
  9 10  1  0
 10 11  1  0
 11 12  1  0
 12 13  1  0
  2 14  1  0
 14 15  2  0
 15 16  1  0
 16 17  2  0
 17 18  1  0
 18 19  2  0
 19 20  1  0
 19 21  1  0
 21 22  2  0
 22 23  1  0
 23 24  2  0
 11  7  1  0
 24 14  1  0
 23 17  1  0
  3 25  1  0
  4 26  1  0
  4 27  1  0
  8 28  1  0
  8 29  1  0
  9 30  1  0
  9 31  1  0
 10 32  1  0
 10 33  1  0
 11 34  1  6
 12 35  1  0
 12 36  1  0
 13 37  1  0
 15 38  1  0
 16 39  1  0
 18 40  1  0
 21 41  1  0
 22 42  1  0
M  END
>  <smiles>  (9) 
O=C(NCC(=O)N1CCC[C@H]1CO)c1ccc2cc(Cl)ccc2n1

>  <score_type>  (9) 
oracle

>  <origin>  (9) 
autodockgpu

>  <m_score__min__energy>  (9) 
-7.4800000000000004

>  <m_primary>  (9) 
energy

>  <rmsd>  (9) 
2.1996665012885868

>  <m_score__min__rmsd>  (9) 
2.1996665012885868

>  <meeko>  (9) 
{"free_energy": -5.51, "intermolecular_energy": -7.3, "internal_energy": -2.8, "cluster_size": 16, "cluster_id": 3, "rank_in_cluster": 16}

>  <energy>  (9) 
-5.77

>  <cluster_rmsd>  (9) 
1.42

>  <cluster>  (9) 
1

$$$$

     RDKit          3D

 42 44  0  0  0  0  0  0  0  0999 V2000
  138.8750   72.0700  220.8550 O   0  0  0  0  0  0  0  0  0  0  0  0
  139.1810   72.4060  222.0300 C   0  0  0  0  0  0  0  0  0  0  0  0
  139.2820   73.8120  222.3030 N   0  0  0  0  0  0  0  0  0  0  0  0
  139.0380   74.7820  221.2570 C   0  0  0  0  0  0  0  0  0  0  0  0
  139.1110   76.1740  221.7630 C   0  0  0  0  0  0  0  0  0  0  0  0
  138.3800   76.5560  222.7350 O   0  0  0  0  0  0  0  0  0  0  0  0
  140.0260   77.0540  221.1220 N   0  0  0  0  0  0  0  0  0  0  0  0
  139.8080   77.8950  219.9450 C   0  0  0  0  0  0  0  0  0  0  0  0
  141.1490   78.1290  219.3330 C   0  0  0  0  0  0  0  0  0  0  0  0
  142.0980   77.3010  220.1650 C   0  0  0  0  0  0  0  0  0  0  0  0
  141.4020   77.3110  221.5110 C   0  0  1  0  0  0  0  0  0  0  0  0
  141.4230   78.6940  222.1330 C   0  0  0  0  0  0  0  0  0  0  0  0
  140.5450   78.7890  223.2080 O   0  0  0  0  0  0  0  0  0  0  0  0
  139.4310   71.4650  223.0960 C   0  0  0  0  0  0  0  0  0  0  0  0
  139.0900   70.1290  222.9310 C   0  0  0  0  0  0  0  0  0  0  0  0
  139.3090   69.1900  223.9230 C   0  0  0  0  0  0  0  0  0  0  0  0
  139.8930   69.6670  225.0980 C   0  0  0  0  0  0  0  0  0  0  0  0
  140.1530   68.7910  226.1570 C   0  0  0  0  0  0  0  0  0  0  0  0
  140.7350   69.2700  227.3220 C   0  0  0  0  0  0  0  0  0  0  0  0
  141.0830   68.2210  228.6790 Cl  0  0  0  0  0  0  0  0  0  0  0  0
  141.0710   70.6180  227.4680 C   0  0  0  0  0  0  0  0  0  0  0  0
  140.8010   71.4550  226.4060 C   0  0  0  0  0  0  0  0  0  0  0  0
  140.2280   70.9910  225.2540 C   0  0  0  0  0  0  0  0  0  0  0  0
  139.9990   71.8690  224.2690 N   0  0  0  0  0  0  0  0  0  0  0  0
  139.5390   74.0930  223.2910 H   0  0  0  0  0  0  0  0  0  0  0  0
  139.7929   74.6509  220.4678 H   0  0  0  0  0  0  0  0  0  0  0  0
  138.0228   74.6144  220.8680 H   0  0  0  0  0  0  0  0  0  0  0  0
  139.1485   77.3824  219.2293 H   0  0  0  0  0  0  0  0  0  0  0  0
  139.3266   78.8450  220.2203 H   0  0  0  0  0  0  0  0  0  0  0  0
  141.1606   77.7964  218.2846 H   0  0  0  0  0  0  0  0  0  0  0  0
  141.4231   79.1943  219.3244 H   0  0  0  0  0  0  0  0  0  0  0  0
  142.1936   76.2792  219.7690 H   0  0  0  0  0  0  0  0  0  0  0  0
  143.1283   77.6857  220.1886 H   0  0  0  0  0  0  0  0  0  0  0  0
  141.8572   76.6113  222.2274 H   0  0  0  0  0  0  0  0  0  0  0  0
  142.4423   78.9109  222.4852 H   0  0  0  0  0  0  0  0  0  0  0  0
  141.1073   79.4185  221.3679 H   0  0  0  0  0  0  0  0  0  0  0  0
  139.8380   78.1010  223.0930 H   0  0  0  0  0  0  0  0  0  0  0  0
  138.6323   69.8079  221.9837 H   0  0  0  0  0  0  0  0  0  0  0  0
  139.0393   68.1314  223.7938 H   0  0  0  0  0  0  0  0  0  0  0  0
  139.8967   67.7251  226.0665 H   0  0  0  0  0  0  0  0  0  0  0  0
  141.5321   70.9963  228.3923 H   0  0  0  0  0  0  0  0  0  0  0  0
  141.0528   72.5227  226.4873 H   0  0  0  0  0  0  0  0  0  0  0  0
  1  2  2  0
  2  3  1  0
  3  4  1  0
  4  5  1  0
  5  6  2  0
  5  7  1  0
  7  8  1  0
  8  9  1  0
  9 10  1  0
 10 11  1  0
 11 12  1  0
 12 13  1  0
  2 14  1  0
 14 15  2  0
 15 16  1  0
 16 17  2  0
 17 18  1  0
 18 19  2  0
 19 20  1  0
 19 21  1  0
 21 22  2  0
 22 23  1  0
 23 24  2  0
 11  7  1  0
 24 14  1  0
 23 17  1  0
  3 25  1  0
  4 26  1  0
  4 27  1  0
  8 28  1  0
  8 29  1  0
  9 30  1  0
  9 31  1  0
 10 32  1  0
 10 33  1  0
 11 34  1  1
 12 35  1  0
 12 36  1  0
 13 37  1  0
 15 38  1  0
 16 39  1  0
 18 40  1  0
 21 41  1  0
 22 42  1  0
M  END
>  <smiles>  (10) 
O=C(NCC(=O)N1CCC[C@H]1CO)c1ccc2cc(Cl)ccc2n1

>  <score_type>  (10) 
oracle

>  <origin>  (10) 
autodockgpu

>  <m_score__min__energy>  (10) 
-7.4800000000000004

>  <m_primary>  (10) 
energy

>  <rmsd>  (10) 
1.8573200923297974

>  <m_score__min__rmsd>  (10) 
1.8573200923297974

>  <meeko>  (10) 
{"free_energy": -5.86, "intermolecular_energy": -7.65, "internal_energy": -2.02, "cluster_size": 16, "cluster_id": 3, "rank_in_cluster": 11}

>  <energy>  (10) 
-5.7

>  <cluster_rmsd>  (10) 
1.44

>  <cluster>  (10) 
1

$$$$

     RDKit          3D

 42 44  0  0  0  0  0  0  0  0999 V2000
  137.5670   71.6720  223.1810 O   0  0  0  0  0  0  0  0  0  0  0  0
  138.8120   71.4940  223.1070 C   0  0  0  0  0  0  0  0  0  0  0  0
  139.3640   70.4140  223.8740 N   0  0  0  0  0  0  0  0  0  0  0  0
  138.5070   69.5790  224.6890 C   0  0  0  0  0  0  0  0  0  0  0  0
  139.2600   68.4770  225.3370 C   0  0  0  0  0  0  0  0  0  0  0  0
  139.2330   67.2970  224.8580 O   0  0  0  0  0  0  0  0  0  0  0  0
  140.0060   68.7960  226.5050 N   0  0  0  0  0  0  0  0  0  0  0  0
  141.0740   68.0250  227.1420 C   0  0  0  0  0  0  0  0  0  0  0  0
  141.1000   68.4340  228.5770 C   0  0  0  0  0  0  0  0  0  0  0  0
  139.9380   69.3860  228.7220 C   0  0  0  0  0  0  0  0  0  0  0  0
  139.8640   69.9820  227.3310 C   0  0  1  0  0  0  0  0  0  0  0  0
  141.0670   70.8570  227.0410 C   0  0  0  0  0  0  0  0  0  0  0  0
  141.2900   70.9910  225.6740 O   0  0  0  0  0  0  0  0  0  0  0  0
  139.6950   72.3070  222.3050 C   0  0  0  0  0  0  0  0  0  0  0  0
  140.6420   71.7010  221.4900 C   0  0  0  0  0  0  0  0  0  0  0  0
  141.5100   72.4380  220.7050 C   0  0  0  0  0  0  0  0  0  0  0  0
  141.3770   73.8250  220.7820 C   0  0  0  0  0  0  0  0  0  0  0  0
  142.2120   74.6530  220.0230 C   0  0  0  0  0  0  0  0  0  0  0  0
  142.0740   76.0310  220.1020 C   0  0  0  0  0  0  0  0  0  0  0  0
  143.0900   77.1150  219.1770 Cl  0  0  0  0  0  0  0  0  0  0  0  0
  141.1150   76.6210  220.9280 C   0  0  0  0  0  0  0  0  0  0  0  0
  140.3090   75.7780  221.6630 C   0  0  0  0  0  0  0  0  0  0  0  0
  140.4380   74.4180  221.5910 C   0  0  0  0  0  0  0  0  0  0  0  0
  139.6150   73.6690  222.3360 N   0  0  0  0  0  0  0  0  0  0  0  0
  140.4110   70.2650  223.8110 H   0  0  0  0  0  0  0  0  0  0  0  0
  138.0440   70.2002  225.4698 H   0  0  0  0  0  0  0  0  0  0  0  0
  137.7452   69.1313  224.0338 H   0  0  0  0  0  0  0  0  0  0  0  0
  140.8660   66.9481  227.0583 H   0  0  0  0  0  0  0  0  0  0  0  0
  142.0432   68.2164  226.6581 H   0  0  0  0  0  0  0  0  0  0  0  0
  140.9703   67.5601  229.2324 H   0  0  0  0  0  0  0  0  0  0  0  0
  142.0565   68.8965  228.8619 H   0  0  0  0  0  0  0  0  0  0  0  0
  139.0113   68.8531  228.9811 H   0  0  0  0  0  0  0  0  0  0  0  0
  140.0629   70.1291  229.5234 H   0  0  0  0  0  0  0  0  0  0  0  0
  138.9601   70.5902  227.1791 H   0  0  0  0  0  0  0  0  0  0  0  0
  140.8950   71.8538  227.4733 H   0  0  0  0  0  0  0  0  0  0  0  0
  141.9524   70.3805  227.4872 H   0  0  0  0  0  0  0  0  0  0  0  0
  140.5050   71.4530  225.2760 H   0  0  0  0  0  0  0  0  0  0  0  0
  140.7036   70.6029  221.4681 H   0  0  0  0  0  0  0  0  0  0  0  0
  142.2604   71.9594  220.0586 H   0  0  0  0  0  0  0  0  0  0  0  0
  142.9758   74.2121  219.3655 H   0  0  0  0  0  0  0  0  0  0  0  0
  141.0071   77.7140  220.9897 H   0  0  0  0  0  0  0  0  0  0  0  0
  139.5430   76.2097  222.3239 H   0  0  0  0  0  0  0  0  0  0  0  0
  1  2  2  0
  2  3  1  0
  3  4  1  0
  4  5  1  0
  5  6  2  0
  5  7  1  0
  7  8  1  0
  8  9  1  0
  9 10  1  0
 10 11  1  0
 11 12  1  0
 12 13  1  0
  2 14  1  0
 14 15  2  0
 15 16  1  0
 16 17  2  0
 17 18  1  0
 18 19  2  0
 19 20  1  0
 19 21  1  0
 21 22  2  0
 22 23  1  0
 23 24  2  0
 11  7  1  0
 24 14  1  0
 23 17  1  0
  3 25  1  0
  4 26  1  0
  4 27  1  0
  8 28  1  0
  8 29  1  0
  9 30  1  0
  9 31  1  0
 10 32  1  0
 10 33  1  0
 11 34  1  1
 12 35  1  0
 12 36  1  0
 13 37  1  0
 15 38  1  0
 16 39  1  0
 18 40  1  0
 21 41  1  0
 22 42  1  0
M  END
>  <smiles>  (11) 
O=C(NCC(=O)N1CCC[C@H]1CO)c1ccc2cc(Cl)ccc2n1

>  <score_type>  (11) 
oracle

>  <origin>  (11) 
autodockgpu

>  <m_score__min__energy>  (11) 
-7.4800000000000004

>  <m_primary>  (11) 
energy

>  <rmsd>  (11) 
8.686446820686559

>  <m_score__min__rmsd>  (11) 
8.686446820686559

>  <meeko>  (11) 
{"free_energy": -6.32, "intermolecular_energy": -8.11, "internal_energy": -1.72, "cluster_size": 16, "cluster_id": 2, "rank_in_cluster": 8}

>  <energy>  (11) 
-5.54

>  <cluster_rmsd>  (11) 
1.97

>  <cluster>  (11) 
1

$$$$

     RDKit          3D

 42 44  0  0  0  0  0  0  0  0999 V2000
  140.5390   70.8490  221.8130 O   0  0  0  0  0  0  0  0  0  0  0  0
  140.5760   71.9880  222.3490 C   0  0  0  0  0  0  0  0  0  0  0  0
  140.2950   72.0570  223.7550 N   0  0  0  0  0  0  0  0  0  0  0  0
  139.9870   70.8560  224.5020 C   0  0  0  0  0  0  0  0  0  0  0  0
  140.3270   70.9950  225.9390 C   0  0  0  0  0  0  0  0  0  0  0  0
  140.6800   72.1200  226.4220 O   0  0  0  0  0  0  0  0  0  0  0  0
  140.2420   69.8260  226.7460 N   0  0  0  0  0  0  0  0  0  0  0  0
  139.6580   69.6810  228.0800 C   0  0  0  0  0  0  0  0  0  0  0  0
  140.3270   68.5070  228.7140 C   0  0  0  0  0  0  0  0  0  0  0  0
  141.3700   68.0770  227.7110 C   0  0  0  0  0  0  0  0  0  0  0  0
  140.7250   68.5000  226.4070 C   0  0  1  0  0  0  0  0  0  0  0  0
  139.5010   67.6600  226.0990 C   0  0  0  0  0  0  0  0  0  0  0  0
  139.1530   67.7280  224.7540 O   0  0  0  0  0  0  0  0  0  0  0  0
  140.8790   73.2050  221.6340 C   0  0  0  0  0  0  0  0  0  0  0  0
  141.4120   73.1370  220.3530 C   0  0  0  0  0  0  0  0  0  0  0  0
  141.7200   74.2740  219.6280 C   0  0  0  0  0  0  0  0  0  0  0  0
  141.4620   75.4910  220.2610 C   0  0  0  0  0  0  0  0  0  0  0  0
  141.7420   76.6960  219.6060 C   0  0  0  0  0  0  0  0  0  0  0  0
  141.4830   77.9030  220.2390 C   0  0  0  0  0  0  0  0  0  0  0  0
  141.8110   79.4390  219.4690 Cl  0  0  0  0  0  0  0  0  0  0  0  0
  140.9460   77.9480  221.5280 C   0  0  0  0  0  0  0  0  0  0  0  0
  140.6840   76.7450  222.1460 C   0  0  0  0  0  0  0  0  0  0  0  0
  140.9350   75.5500  221.5290 C   0  0  0  0  0  0  0  0  0  0  0  0
  140.6510   74.4250  222.1980 N   0  0  0  0  0  0  0  0  0  0  0  0
  140.3270   73.0150  224.2050 H   0  0  0  0  0  0  0  0  0  0  0  0
  138.9111   70.6462  224.4100 H   0  0  0  0  0  0  0  0  0  0  0  0
  140.5887   70.0336  224.0877 H   0  0  0  0  0  0  0  0  0  0  0  0
  139.8403   70.5883  228.6746 H   0  0  0  0  0  0  0  0  0  0  0  0
  138.5695   69.5334  228.0222 H   0  0  0  0  0  0  0  0  0  0  0  0
  140.7983   68.7953  229.6652 H   0  0  0  0  0  0  0  0  0  0  0  0
  139.6180   67.7001  228.9511 H   0  0  0  0  0  0  0  0  0  0  0  0
  142.3247   68.5982  227.8751 H   0  0  0  0  0  0  0  0  0  0  0  0
  141.6261   67.0083  227.7595 H   0  0  0  0  0  0  0  0  0  0  0  0
  141.4113   68.4228  225.5509 H   0  0  0  0  0  0  0  0  0  0  0  0
  139.7133   66.6126  226.3593 H   0  0  0  0  0  0  0  0  0  0  0  0
  138.6600   68.0516  226.6900 H   0  0  0  0  0  0  0  0  0  0  0  0
  139.9070   67.3600  224.2210 H   0  0  0  0  0  0  0  0  0  0  0  0
  141.5944   72.1504  219.9021 H   0  0  0  0  0  0  0  0  0  0  0  0
  142.1427   74.2223  218.6138 H   0  0  0  0  0  0  0  0  0  0  0  0
  142.1666   76.6859  218.5913 H   0  0  0  0  0  0  0  0  0  0  0  0
  140.7407   78.9054  222.0292 H   0  0  0  0  0  0  0  0  0  0  0  0
  140.2621   76.7452  223.1619 H   0  0  0  0  0  0  0  0  0  0  0  0
  1  2  2  0
  2  3  1  0
  3  4  1  0
  4  5  1  0
  5  6  2  0
  5  7  1  0
  7  8  1  0
  8  9  1  0
  9 10  1  0
 10 11  1  0
 11 12  1  0
 12 13  1  0
  2 14  1  0
 14 15  2  0
 15 16  1  0
 16 17  2  0
 17 18  1  0
 18 19  2  0
 19 20  1  0
 19 21  1  0
 21 22  2  0
 22 23  1  0
 23 24  2  0
 11  7  1  0
 24 14  1  0
 23 17  1  0
  3 25  1  0
  4 26  1  0
  4 27  1  0
  8 28  1  0
  8 29  1  0
  9 30  1  0
  9 31  1  0
 10 32  1  0
 10 33  1  0
 11 34  1  6
 12 35  1  0
 12 36  1  0
 13 37  1  0
 15 38  1  0
 16 39  1  0
 18 40  1  0
 21 41  1  0
 22 42  1  0
M  END
>  <smiles>  (12) 
O=C(NCC(=O)N1CCC[C@H]1CO)c1ccc2cc(Cl)ccc2n1

>  <score_type>  (12) 
oracle

>  <origin>  (12) 
autodockgpu

>  <m_score__min__energy>  (12) 
-7.4800000000000004

>  <m_primary>  (12) 
energy

>  <rmsd>  (12) 
8.999350280820904

>  <m_score__min__rmsd>  (12) 
8.999350280820904

>  <meeko>  (12) 
{"free_energy": -6.87, "intermolecular_energy": -8.66, "internal_energy": -1.58, "cluster_size": 16, "cluster_id": 2, "rank_in_cluster": 2}

>  <energy>  (12) 
-5.53

>  <cluster_rmsd>  (12) 
1.85

>  <cluster>  (12) 
1

$$$$

     RDKit          3D

 42 44  0  0  0  0  0  0  0  0999 V2000
  139.8350   73.9280  222.3190 O   0  0  0  0  0  0  0  0  0  0  0  0
  140.1980   72.7290  222.1830 C   0  0  0  0  0  0  0  0  0  0  0  0
  140.6830   72.3360  220.8910 N   0  0  0  0  0  0  0  0  0  0  0  0
  140.7450   73.2940  219.8070 C   0  0  0  0  0  0  0  0  0  0  0  0
  141.8520   74.2640  219.9870 C   0  0  0  0  0  0  0  0  0  0  0  0
  141.6160   75.5100  220.1110 O   0  0  0  0  0  0  0  0  0  0  0  0
  143.1770   73.7460  220.0150 N   0  0  0  0  0  0  0  0  0  0  0  0
  143.6380   72.4540  220.5250 C   0  0  0  0  0  0  0  0  0  0  0  0
  145.0760   72.6250  220.8850 C   0  0  0  0  0  0  0  0  0  0  0  0
  145.3560   74.0890  220.6450 C   0  0  0  0  0  0  0  0  0  0  0  0
  144.3780   74.4030  219.5320 C   0  0  1  0  0  0  0  0  0  0  0  0
  144.7640   73.7040  218.2440 C   0  0  0  0  0  0  0  0  0  0  0  0
  146.1040   73.3280  218.2430 O   0  0  0  0  0  0  0  0  0  0  0  0
  140.1490   71.7500  223.2420 C   0  0  0  0  0  0  0  0  0  0  0  0
  139.6060   70.4950  222.9960 C   0  0  0  0  0  0  0  0  0  0  0  0
  139.5360   69.5230  223.9780 C   0  0  0  0  0  0  0  0  0  0  0  0
  140.0430   69.8800  225.2290 C   0  0  0  0  0  0  0  0  0  0  0  0
  140.0160   68.9620  226.2850 C   0  0  0  0  0  0  0  0  0  0  0  0
  140.5220   69.3220  227.5260 C   0  0  0  0  0  0  0  0  0  0  0  0
  140.5140   68.2170  228.8820 Cl  0  0  0  0  0  0  0  0  0  0  0  0
  141.0640   70.5900  227.7520 C   0  0  0  0  0  0  0  0  0  0  0  0
  141.0750   71.4700  226.6910 C   0  0  0  0  0  0  0  0  0  0  0  0
  140.5790   71.1240  225.4650 C   0  0  0  0  0  0  0  0  0  0  0  0
  140.6280   72.0370  224.4860 N   0  0  0  0  0  0  0  0  0  0  0  0
  140.9890   71.3290  220.7780 H   0  0  0  0  0  0  0  0  0  0  0  0
  140.8976   72.7520  218.8621 H   0  0  0  0  0  0  0  0  0  0  0  0
  139.7992   73.8555  219.7947 H   0  0  0  0  0  0  0  0  0  0  0  0
  143.0561   72.1673  221.4133 H   0  0  0  0  0  0  0  0  0  0  0  0
  143.5094   71.6622  219.7723 H   0  0  0  0  0  0  0  0  0  0  0  0
  145.2459   72.3648  221.9402 H   0  0  0  0  0  0  0  0  0  0  0  0
  145.7349   71.9715  220.2944 H   0  0  0  0  0  0  0  0  0  0  0  0
  145.1501   74.6903  221.5428 H   0  0  0  0  0  0  0  0  0  0  0  0
  146.4045   74.3112  220.3976 H   0  0  0  0  0  0  0  0  0  0  0  0
  144.3077   75.4806  219.3228 H   0  0  0  0  0  0  0  0  0  0  0  0
  144.1415   72.8048  218.1262 H   0  0  0  0  0  0  0  0  0  0  0  0
  144.6046   74.4060  217.4123 H   0  0  0  0  0  0  0  0  0  0  0  0
  146.6550   74.1490  218.1500 H   0  0  0  0  0  0  0  0  0  0  0  0
  139.2205   70.2676  221.9912 H   0  0  0  0  0  0  0  0  0  0  0  0
  139.1068   68.5288  223.7848 H   0  0  0  0  0  0  0  0  0  0  0  0
  139.5947   67.9575  226.1317 H   0  0  0  0  0  0  0  0  0  0  0  0
  141.4653   70.8742  228.7360 H   0  0  0  0  0  0  0  0  0  0  0  0
  141.4938   72.4770  226.8346 H   0  0  0  0  0  0  0  0  0  0  0  0
  1  2  2  0
  2  3  1  0
  3  4  1  0
  4  5  1  0
  5  6  2  0
  5  7  1  0
  7  8  1  0
  8  9  1  0
  9 10  1  0
 10 11  1  0
 11 12  1  0
 12 13  1  0
  2 14  1  0
 14 15  2  0
 15 16  1  0
 16 17  2  0
 17 18  1  0
 18 19  2  0
 19 20  1  0
 19 21  1  0
 21 22  2  0
 22 23  1  0
 23 24  2  0
 11  7  1  0
 24 14  1  0
 23 17  1  0
  3 25  1  0
  4 26  1  0
  4 27  1  0
  8 28  1  0
  8 29  1  0
  9 30  1  0
  9 31  1  0
 10 32  1  0
 10 33  1  0
 11 34  1  6
 12 35  1  0
 12 36  1  0
 13 37  1  0
 15 38  1  0
 16 39  1  0
 18 40  1  0
 21 41  1  0
 22 42  1  0
M  END
>  <smiles>  (13) 
O=C(NCC(=O)N1CCC[C@H]1CO)c1ccc2cc(Cl)ccc2n1

>  <score_type>  (13) 
oracle

>  <origin>  (13) 
autodockgpu

>  <m_score__min__energy>  (13) 
-7.4800000000000004

>  <m_primary>  (13) 
energy

>  <rmsd>  (13) 
3.692202735925628

>  <m_score__min__rmsd>  (13) 
3.692202735925628

>  <meeko>  (13) 
{"free_energy": -7.41, "intermolecular_energy": -9.2, "internal_energy": -0.99, "cluster_size": 12, "cluster_id": 1, "rank_in_cluster": 2}

>  <energy>  (13) 
-6.99

>  <cluster_rmsd>  (13) 
0.0

>  <cluster>  (13) 
2

$$$$

     RDKit          3D

 42 44  0  0  0  0  0  0  0  0999 V2000
  140.4030   72.8210  220.8180 O   0  0  0  0  0  0  0  0  0  0  0  0
  140.0320   73.0140  222.0070 C   0  0  0  0  0  0  0  0  0  0  0  0
  139.5730   74.3320  222.3420 N   0  0  0  0  0  0  0  0  0  0  0  0
  139.5440   75.3770  221.3400 C   0  0  0  0  0  0  0  0  0  0  0  0
  138.9800   76.6400  221.8720 C   0  0  0  0  0  0  0  0  0  0  0  0
  137.7530   76.7180  222.2080 O   0  0  0  0  0  0  0  0  0  0  0  0
  139.8620   77.7500  221.9910 N   0  0  0  0  0  0  0  0  0  0  0  0
  140.8490   78.2360  221.0270 C   0  0  0  0  0  0  0  0  0  0  0  0
  141.8820   78.9770  221.8090 C   0  0  0  0  0  0  0  0  0  0  0  0
  141.4730   78.7920  223.2510 C   0  0  0  0  0  0  0  0  0  0  0  0
  139.9690   78.6570  223.1200 C   0  0  1  0  0  0  0  0  0  0  0  0
  139.3340   79.9640  222.6860 C   0  0  0  0  0  0  0  0  0  0  0  0
  137.9880   79.8030  222.3690 O   0  0  0  0  0  0  0  0  0  0  0  0
  140.0480   71.9960  223.0300 C   0  0  0  0  0  0  0  0  0  0  0  0
  139.5560   70.7280  222.7490 C   0  0  0  0  0  0  0  0  0  0  0  0
  139.5490   69.7200  223.6950 C   0  0  0  0  0  0  0  0  0  0  0  0
  140.0660   70.0540  224.9480 C   0  0  0  0  0  0  0  0  0  0  0  0
  140.1000   69.0980  225.9700 C   0  0  0  0  0  0  0  0  0  0  0  0
  140.6160   69.4360  227.2130 C   0  0  0  0  0  0  0  0  0  0  0  0
  140.6850   68.2830  228.5280 Cl  0  0  0  0  0  0  0  0  0  0  0  0
  141.1060   70.7170  227.4750 C   0  0  0  0  0  0  0  0  0  0  0  0
  141.0570   71.6350  226.4480 C   0  0  0  0  0  0  0  0  0  0  0  0
  140.5510   71.3110  225.2190 C   0  0  0  0  0  0  0  0  0  0  0  0
  140.5400   72.2600  224.2740 N   0  0  0  0  0  0  0  0  0  0  0  0
  139.2620   74.4930  223.3410 H   0  0  0  0  0  0  0  0  0  0  0  0
  140.5707   75.5649  220.9929 H   0  0  0  0  0  0  0  0  0  0  0  0
  138.9008   75.0386  220.5143 H   0  0  0  0  0  0  0  0  0  0  0  0
  141.3097   77.3897  220.4965 H   0  0  0  0  0  0  0  0  0  0  0  0
  140.3802   78.8865  220.2739 H   0  0  0  0  0  0  0  0  0  0  0  0
  142.8815   78.5534  221.6314 H   0  0  0  0  0  0  0  0  0  0  0  0
  141.9394   80.0380  221.5243 H   0  0  0  0  0  0  0  0  0  0  0  0
  141.9222   77.8859  223.6836 H   0  0  0  0  0  0  0  0  0  0  0  0
  141.7952   79.6053  223.9178 H   0  0  0  0  0  0  0  0  0  0  0  0
  139.4888   78.3435  224.0587 H   0  0  0  0  0  0  0  0  0  0  0  0
  139.4224   80.6925  223.5054 H   0  0  0  0  0  0  0  0  0  0  0  0
  139.8581   80.3172  221.7857 H   0  0  0  0  0  0  0  0  0  0  0  0
  137.8090   78.8310  222.2670 H   0  0  0  0  0  0  0  0  0  0  0  0
  139.1602   70.5196  221.7440 H   0  0  0  0  0  0  0  0  0  0  0  0
  139.1595   68.7153  223.4738 H   0  0  0  0  0  0  0  0  0  0  0  0
  139.7190   68.0822  225.7883 H   0  0  0  0  0  0  0  0  0  0  0  0
  141.5146   70.9828  228.4611 H   0  0  0  0  0  0  0  0  0  0  0  0
  141.4343   72.6537  226.6210 H   0  0  0  0  0  0  0  0  0  0  0  0
  1  2  2  0
  2  3  1  0
  3  4  1  0
  4  5  1  0
  5  6  2  0
  5  7  1  0
  7  8  1  0
  8  9  1  0
  9 10  1  0
 10 11  1  0
 11 12  1  0
 12 13  1  0
  2 14  1  0
 14 15  2  0
 15 16  1  0
 16 17  2  0
 17 18  1  0
 18 19  2  0
 19 20  1  0
 19 21  1  0
 21 22  2  0
 22 23  1  0
 23 24  2  0
 11  7  1  0
 24 14  1  0
 23 17  1  0
  3 25  1  0
  4 26  1  0
  4 27  1  0
  8 28  1  0
  8 29  1  0
  9 30  1  0
  9 31  1  0
 10 32  1  0
 10 33  1  0
 11 34  1  1
 12 35  1  0
 12 36  1  0
 13 37  1  0
 15 38  1  0
 16 39  1  0
 18 40  1  0
 21 41  1  0
 22 42  1  0
M  END
>  <smiles>  (14) 
O=C(NCC(=O)N1CCC[C@H]1CO)c1ccc2cc(Cl)ccc2n1

>  <score_type>  (14) 
oracle

>  <origin>  (14) 
autodockgpu

>  <m_score__min__energy>  (14) 
-7.4800000000000004

>  <m_primary>  (14) 
energy

>  <rmsd>  (14) 
3.161013285839213

>  <m_score__min__rmsd>  (14) 
3.161013285839213

>  <meeko>  (14) 
{"free_energy": -6.45, "intermolecular_energy": -8.24, "internal_energy": -1.8, "cluster_size": 16, "cluster_id": 3, "rank_in_cluster": 4}

>  <energy>  (14) 
-6.87

>  <cluster_rmsd>  (14) 
0.92

>  <cluster>  (14) 
2

$$$$

     RDKit          3D

 42 44  0  0  0  0  0  0  0  0999 V2000
  139.3610   69.3440  222.3300 O   0  0  0  0  0  0  0  0  0  0  0  0
  139.4160   70.5490  222.6950 C   0  0  0  0  0  0  0  0  0  0  0  0
  138.7600   70.8900  223.9250 N   0  0  0  0  0  0  0  0  0  0  0  0
  138.0730   69.8750  224.6970 C   0  0  0  0  0  0  0  0  0  0  0  0
  139.0180   69.0230  225.4580 C   0  0  0  0  0  0  0  0  0  0  0  0
  139.0160   67.7570  225.3170 O   0  0  0  0  0  0  0  0  0  0  0  0
  139.9170   69.6770  226.3450 N   0  0  0  0  0  0  0  0  0  0  0  0
  140.9630   69.0860  227.1800 C   0  0  0  0  0  0  0  0  0  0  0  0
  141.1890   70.0300  228.3140 C   0  0  0  0  0  0  0  0  0  0  0  0
  140.1540   71.1120  228.1200 C   0  0  0  0  0  0  0  0  0  0  0  0
  139.9900   71.1020  226.6140 C   0  0  1  0  0  0  0  0  0  0  0  0
  141.2370   71.6100  225.9190 C   0  0  0  0  0  0  0  0  0  0  0  0
  141.0100   71.8610  224.5690 O   0  0  0  0  0  0  0  0  0  0  0  0
  140.0920   71.5840  221.9510 C   0  0  0  0  0  0  0  0  0  0  0  0
  140.9090   71.2440  220.8800 C   0  0  0  0  0  0  0  0  0  0  0  0
  141.5780   72.1990  220.1370 C   0  0  0  0  0  0  0  0  0  0  0  0
  141.3830   73.5250  220.5290 C   0  0  0  0  0  0  0  0  0  0  0  0
  142.0190   74.5610  219.8360 C   0  0  0  0  0  0  0  0  0  0  0  0
  141.8210   75.8770  220.2280 C   0  0  0  0  0  0  0  0  0  0  0  0
  142.5890   77.2130  219.4010 Cl  0  0  0  0  0  0  0  0  0  0  0  0
  140.9940   76.1990  221.3080 C   0  0  0  0  0  0  0  0  0  0  0  0
  140.3840   75.1550  221.9690 C   0  0  0  0  0  0  0  0  0  0  0  0
  140.5730   73.8550  221.5890 C   0  0  0  0  0  0  0  0  0  0  0  0
  139.9430   72.8980  222.2830 N   0  0  0  0  0  0  0  0  0  0  0  0
  138.8070   71.9020  224.2310 H   0  0  0  0  0  0  0  0  0  0  0  0
  137.3903   70.3682  225.4046 H   0  0  0  0  0  0  0  0  0  0  0  0
  137.5217   69.2301  223.9969 H   0  0  0  0  0  0  0  0  0  0  0  0
  140.6366   68.1070  227.5607 H   0  0  0  0  0  0  0  0  0  0  0  0
  141.8875   68.9288  226.6050 H   0  0  0  0  0  0  0  0  0  0  0  0
  141.0428   69.5210  229.2781 H   0  0  0  0  0  0  0  0  0  0  0  0
  142.2137   70.4299  228.3264 H   0  0  0  0  0  0  0  0  0  0  0  0
  139.2112   70.8629  228.6291 H   0  0  0  0  0  0  0  0  0  0  0  0
  140.4420   72.0894  228.5346 H   0  0  0  0  0  0  0  0  0  0  0  0
  139.1426   71.7172  226.2771 H   0  0  0  0  0  0  0  0  0  0  0  0
  141.5609   72.5422  226.4050 H   0  0  0  0  0  0  0  0  0  0  0  0
  142.0124   70.8336  225.9969 H   0  0  0  0  0  0  0  0  0  0  0  0
  140.3110   72.5640  224.4990 H   0  0  0  0  0  0  0  0  0  0  0  0
  141.0272   70.1829  220.6151 H   0  0  0  0  0  0  0  0  0  0  0  0
  142.2246   71.9305  219.2886 H   0  0  0  0  0  0  0  0  0  0  0  0
  142.6743   74.3325  218.9826 H   0  0  0  0  0  0  0  0  0  0  0  0
  140.8366   77.2428  221.6175 H   0  0  0  0  0  0  0  0  0  0  0  0
  139.7279   75.3730  222.8246 H   0  0  0  0  0  0  0  0  0  0  0  0
  1  2  2  0
  2  3  1  0
  3  4  1  0
  4  5  1  0
  5  6  2  0
  5  7  1  0
  7  8  1  0
  8  9  1  0
  9 10  1  0
 10 11  1  0
 11 12  1  0
 12 13  1  0
  2 14  1  0
 14 15  2  0
 15 16  1  0
 16 17  2  0
 17 18  1  0
 18 19  2  0
 19 20  1  0
 19 21  1  0
 21 22  2  0
 22 23  1  0
 23 24  2  0
 11  7  1  0
 24 14  1  0
 23 17  1  0
  3 25  1  0
  4 26  1  0
  4 27  1  0
  8 28  1  0
  8 29  1  0
  9 30  1  0
  9 31  1  0
 10 32  1  0
 10 33  1  0
 11 34  1  1
 12 35  1  0
 12 36  1  0
 13 37  1  0
 15 38  1  0
 16 39  1  0
 18 40  1  0
 21 41  1  0
 22 42  1  0
M  END
>  <smiles>  (15) 
O=C(NCC(=O)N1CCC[C@H]1CO)c1ccc2cc(Cl)ccc2n1

>  <score_type>  (15) 
oracle

>  <origin>  (15) 
autodockgpu

>  <m_score__min__energy>  (15) 
-7.4800000000000004

>  <m_primary>  (15) 
energy

>  <rmsd>  (15) 
8.097227757078933

>  <m_score__min__rmsd>  (15) 
8.097227757078933

>  <meeko>  (15) 
{"free_energy": -5.82, "intermolecular_energy": -7.61, "internal_energy": -2.45, "cluster_size": 16, "cluster_id": 2, "rank_in_cluster": 15}

>  <energy>  (15) 
-6.86

>  <cluster_rmsd>  (15) 
0.94

>  <cluster>  (15) 
2

$$$$

     RDKit          3D

 42 44  0  0  0  0  0  0  0  0999 V2000
  141.4210   72.7670  220.5530 O   0  0  0  0  0  0  0  0  0  0  0  0
  141.8210   73.8970  220.9440 C   0  0  0  0  0  0  0  0  0  0  0  0
  143.2330   74.1460  220.8820 N   0  0  0  0  0  0  0  0  0  0  0  0
  144.1370   73.1300  220.3860 C   0  0  0  0  0  0  0  0  0  0  0  0
  144.5000   73.3560  218.9660 C   0  0  0  0  0  0  0  0  0  0  0  0
  145.5650   72.8570  218.4750 O   0  0  0  0  0  0  0  0  0  0  0  0
  143.6120   74.1450  218.1830 N   0  0  0  0  0  0  0  0  0  0  0  0
  142.3840   73.7320  217.5040 C   0  0  0  0  0  0  0  0  0  0  0  0
  142.1700   74.6940  216.3830 C   0  0  0  0  0  0  0  0  0  0  0  0
  143.3840   75.5910  216.4150 C   0  0  0  0  0  0  0  0  0  0  0  0
  143.7390   75.5610  217.8880 C   0  0  1  0  0  0  0  0  0  0  0  0
  142.6920   76.2720  218.7220 C   0  0  0  0  0  0  0  0  0  0  0  0
  143.2280   76.7780  219.9020 O   0  0  0  0  0  0  0  0  0  0  0  0
  140.9470   74.9310  221.4440 C   0  0  0  0  0  0  0  0  0  0  0  0
  139.5750   74.7180  221.4790 C   0  0  0  0  0  0  0  0  0  0  0  0
  138.6980   75.6780  221.9480 C   0  0  0  0  0  0  0  0  0  0  0  0
  139.2740   76.8730  222.3820 C   0  0  0  0  0  0  0  0  0  0  0  0
  138.4650   77.9040  222.8740 C   0  0  0  0  0  0  0  0  0  0  0  0
  139.0430   79.0890  223.3060 C   0  0  0  0  0  0  0  0  0  0  0  0
  138.0820   80.4120  223.9290 Cl  0  0  0  0  0  0  0  0  0  0  0  0
  140.4260   79.2830  223.2610 C   0  0  0  0  0  0  0  0  0  0  0  0
  141.1940   78.2490  222.7710 C   0  0  0  0  0  0  0  0  0  0  0  0
  140.6330   77.0770  222.3440 C   0  0  0  0  0  0  0  0  0  0  0  0
  141.4490   76.1210  221.8820 N   0  0  0  0  0  0  0  0  0  0  0  0
  143.5690   75.0950  221.2100 H   0  0  0  0  0  0  0  0  0  0  0  0
  145.0539   73.1430  220.9935 H   0  0  0  0  0  0  0  0  0  0  0  0
  143.6275   72.1577  220.4563 H   0  0  0  0  0  0  0  0  0  0  0  0
  142.4931   72.7103  217.1113 H   0  0  0  0  0  0  0  0  0  0  0  0
  141.5290   73.7341  218.1961 H   0  0  0  0  0  0  0  0  0  0  0  0
  142.1049   74.1625  215.4221 H   0  0  0  0  0  0  0  0  0  0  0  0
  141.2315   75.2577  216.4900 H   0  0  0  0  0  0  0  0  0  0  0  0
  144.1990   75.1872  215.7964 H   0  0  0  0  0  0  0  0  0  0  0  0
  143.2079   76.6006  216.0153 H   0  0  0  0  0  0  0  0  0  0  0  0
  144.7123   76.0285  218.0981 H   0  0  0  0  0  0  0  0  0  0  0  0
  142.2739   77.1034  218.1355 H   0  0  0  0  0  0  0  0  0  0  0  0
  141.9118   75.5428  218.9858 H   0  0  0  0  0  0  0  0  0  0  0  0
  142.6570   76.4750  220.6570 H   0  0  0  0  0  0  0  0  0  0  0  0
  139.1746   73.7573  221.1231 H   0  0  0  0  0  0  0  0  0  0  0  0
  137.6113   75.5102  221.9774 H   0  0  0  0  0  0  0  0  0  0  0  0
  137.3735   77.7750  222.9180 H   0  0  0  0  0  0  0  0  0  0  0  0
  140.8833   80.2232  223.6029 H   0  0  0  0  0  0  0  0  0  0  0  0
  142.2863   78.3693  222.7220 H   0  0  0  0  0  0  0  0  0  0  0  0
  1  2  2  0
  2  3  1  0
  3  4  1  0
  4  5  1  0
  5  6  2  0
  5  7  1  0
  7  8  1  0
  8  9  1  0
  9 10  1  0
 10 11  1  0
 11 12  1  0
 12 13  1  0
  2 14  1  0
 14 15  2  0
 15 16  1  0
 16 17  2  0
 17 18  1  0
 18 19  2  0
 19 20  1  0
 19 21  1  0
 21 22  2  0
 22 23  1  0
 23 24  2  0
 11  7  1  0
 24 14  1  0
 23 17  1  0
  3 25  1  0
  4 26  1  0
  4 27  1  0
  8 28  1  0
  8 29  1  0
  9 30  1  0
  9 31  1  0
 10 32  1  0
 10 33  1  0
 11 34  1  6
 12 35  1  0
 12 36  1  0
 13 37  1  0
 15 38  1  0
 16 39  1  0
 18 40  1  0
 21 41  1  0
 22 42  1  0
M  END
>  <smiles>  (16) 
O=C(NCC(=O)N1CCC[C@H]1CO)c1ccc2cc(Cl)ccc2n1

>  <score_type>  (16) 
oracle

>  <origin>  (16) 
autodockgpu

>  <m_score__min__energy>  (16) 
-7.4800000000000004

>  <m_primary>  (16) 
energy

>  <rmsd>  (16) 
6.422648852658619

>  <m_score__min__rmsd>  (16) 
6.422648852658619

>  <meeko>  (16) 
{"free_energy": -4.85, "intermolecular_energy": -6.64, "internal_energy": -3.14, "cluster_size": 1, "cluster_id": 9, "rank_in_cluster": 1}

>  <energy>  (16) 
-6.72

>  <cluster_rmsd>  (16) 
1.47

>  <cluster>  (16) 
2

$$$$

     RDKit          3D

 42 44  0  0  0  0  0  0  0  0999 V2000
  140.4250   72.3110  220.7810 O   0  0  0  0  0  0  0  0  0  0  0  0
  139.9240   72.5230  221.9170 C   0  0  0  0  0  0  0  0  0  0  0  0
  139.2790   73.7880  222.1210 N   0  0  0  0  0  0  0  0  0  0  0  0
  139.2190   74.7630  221.0520 C   0  0  0  0  0  0  0  0  0  0  0  0
  140.4740   75.5440  220.9420 C   0  0  0  0  0  0  0  0  0  0  0  0
  140.6630   76.5830  221.6570 O   0  0  0  0  0  0  0  0  0  0  0  0
  141.4490   75.0860  220.0130 N   0  0  0  0  0  0  0  0  0  0  0  0
  141.2940   74.8330  218.5800 C   0  0  0  0  0  0  0  0  0  0  0  0
  142.3430   73.8400  218.2050 C   0  0  0  0  0  0  0  0  0  0  0  0
  143.0140   73.4850  219.5100 C   0  0  0  0  0  0  0  0  0  0  0  0
  142.8370   74.7680  220.2970 C   0  0  1  0  0  0  0  0  0  0  0  0
  143.6670   75.8930  219.7110 C   0  0  0  0  0  0  0  0  0  0  0  0
  143.0940   77.1380  219.9540 O   0  0  0  0  0  0  0  0  0  0  0  0
  139.9660   71.5740  223.0040 C   0  0  0  0  0  0  0  0  0  0  0  0
  139.4850   70.2850  222.8150 C   0  0  0  0  0  0  0  0  0  0  0  0
  139.5040   69.3410  223.8250 C   0  0  0  0  0  0  0  0  0  0  0  0
  140.0340   69.7630  225.0460 C   0  0  0  0  0  0  0  0  0  0  0  0
  140.0940   68.8770  226.1270 C   0  0  0  0  0  0  0  0  0  0  0  0
  140.6240   69.3010  227.3380 C   0  0  0  0  0  0  0  0  0  0  0  0
  140.7240   68.2380  228.7240 Cl  0  0  0  0  0  0  0  0  0  0  0  0
  141.1020   70.6020  227.5080 C   0  0  0  0  0  0  0  0  0  0  0  0
  141.0280   71.4500  226.4240 C   0  0  0  0  0  0  0  0  0  0  0  0
  140.5080   71.0400  225.2260 C   0  0  0  0  0  0  0  0  0  0  0  0
  140.4720   71.9250  224.2210 N   0  0  0  0  0  0  0  0  0  0  0  0
  138.8580   73.9650  223.0760 H   0  0  0  0  0  0  0  0  0  0  0  0
  139.0431   74.2377  220.1017 H   0  0  0  0  0  0  0  0  0  0  0  0
  138.4013   75.4636  221.2765 H   0  0  0  0  0  0  0  0  0  0  0  0
  140.2938   74.4246  218.3730 H   0  0  0  0  0  0  0  0  0  0  0  0
  141.4019   75.7614  217.9999 H   0  0  0  0  0  0  0  0  0  0  0  0
  141.8886   72.9491  217.7469 H   0  0  0  0  0  0  0  0  0  0  0  0
  143.0525   74.2411  217.4663 H   0  0  0  0  0  0  0  0  0  0  0  0
  142.5131   72.6386  220.0026 H   0  0  0  0  0  0  0  0  0  0  0  0
  144.0606   73.1635  219.4042 H   0  0  0  0  0  0  0  0  0  0  0  0
  143.1171   74.6579  221.3550 H   0  0  0  0  0  0  0  0  0  0  0  0
  144.6698   75.8682  220.1624 H   0  0  0  0  0  0  0  0  0  0  0  0
  143.7203   75.7475  218.6220 H   0  0  0  0  0  0  0  0  0  0  0  0
  142.6130   77.0920  220.8220 H   0  0  0  0  0  0  0  0  0  0  0  0
  139.0766   70.0067  221.8323 H   0  0  0  0  0  0  0  0  0  0  0  0
  139.1246   68.3194  223.6757 H   0  0  0  0  0  0  0  0  0  0  0  0
  139.7223   67.8475  226.0177 H   0  0  0  0  0  0  0  0  0  0  0  0
  141.5208   70.9366  228.4685 H   0  0  0  0  0  0  0  0  0  0  0  0
  141.3959   72.4818  226.5240 H   0  0  0  0  0  0  0  0  0  0  0  0
  1  2  2  0
  2  3  1  0
  3  4  1  0
  4  5  1  0
  5  6  2  0
  5  7  1  0
  7  8  1  0
  8  9  1  0
  9 10  1  0
 10 11  1  0
 11 12  1  0
 12 13  1  0
  2 14  1  0
 14 15  2  0
 15 16  1  0
 16 17  2  0
 17 18  1  0
 18 19  2  0
 19 20  1  0
 19 21  1  0
 21 22  2  0
 22 23  1  0
 23 24  2  0
 11  7  1  0
 24 14  1  0
 23 17  1  0
  3 25  1  0
  4 26  1  0
  4 27  1  0
  8 28  1  0
  8 29  1  0
  9 30  1  0
  9 31  1  0
 10 32  1  0
 10 33  1  0
 11 34  1  1
 12 35  1  0
 12 36  1  0
 13 37  1  0
 15 38  1  0
 16 39  1  0
 18 40  1  0
 21 41  1  0
 22 42  1  0
M  END
>  <smiles>  (17) 
O=C(NCC(=O)N1CCC[C@H]1CO)c1ccc2cc(Cl)ccc2n1

>  <score_type>  (17) 
oracle

>  <origin>  (17) 
autodockgpu

>  <m_score__min__energy>  (17) 
-7.4800000000000004

>  <m_primary>  (17) 
energy

>  <rmsd>  (17) 
2.2344908828443315

>  <m_score__min__rmsd>  (17) 
2.2344908828443315

>  <meeko>  (17) 
{"free_energy": -6.16, "intermolecular_energy": -7.95, "internal_energy": -2.04, "cluster_size": 12, "cluster_id": 1, "rank_in_cluster": 7}

>  <energy>  (17) 
-6.71

>  <cluster_rmsd>  (17) 
1.49

>  <cluster>  (17) 
2

$$$$

     RDKit          3D

 42 44  0  0  0  0  0  0  0  0999 V2000
  137.4250   70.9500  220.7320 O   0  0  0  0  0  0  0  0  0  0  0  0
  137.8010   71.4920  221.8060 C   0  0  0  0  0  0  0  0  0  0  0  0
  137.7340   72.9240  221.8730 N   0  0  0  0  0  0  0  0  0  0  0  0
  137.2510   73.6910  220.7440 C   0  0  0  0  0  0  0  0  0  0  0  0
  137.6300   75.1210  220.8430 C   0  0  0  0  0  0  0  0  0  0  0  0
  136.8000   76.0400  220.5410 O   0  0  0  0  0  0  0  0  0  0  0  0
  138.9490   75.4180  221.2860 N   0  0  0  0  0  0  0  0  0  0  0  0
  139.3630   76.2200  222.4380 C   0  0  0  0  0  0  0  0  0  0  0  0
  140.7360   76.7220  222.1360 C   0  0  0  0  0  0  0  0  0  0  0  0
  141.0160   76.2460  220.7310 C   0  0  0  0  0  0  0  0  0  0  0  0
  140.1900   74.9770  220.6750 C   0  0  1  0  0  0  0  0  0  0  0  0
  140.7610   73.9060  221.5840 C   0  0  0  0  0  0  0  0  0  0  0  0
  139.9500   73.6840  222.6930 O   0  0  0  0  0  0  0  0  0  0  0  0
  138.2880   70.7580  222.9490 C   0  0  0  0  0  0  0  0  0  0  0  0
  137.9690   69.4140  223.0930 C   0  0  0  0  0  0  0  0  0  0  0  0
  138.4110   68.6680  224.1710 C   0  0  0  0  0  0  0  0  0  0  0  0
  139.1950   69.3480  225.1040 C   0  0  0  0  0  0  0  0  0  0  0  0
  139.6880   68.6760  226.2280 C   0  0  0  0  0  0  0  0  0  0  0  0
  140.4690   69.3560  227.1520 C   0  0  0  0  0  0  0  0  0  0  0  0
  141.1120   68.5690  228.5750 Cl  0  0  0  0  0  0  0  0  0  0  0  0
  140.7790   70.7090  226.9880 C   0  0  0  0  0  0  0  0  0  0  0  0
  140.2770   71.3410  225.8710 C   0  0  0  0  0  0  0  0  0  0  0  0
  139.5070   70.6780  224.9550 C   0  0  0  0  0  0  0  0  0  0  0  0
  139.0590   71.3650  223.8960 N   0  0  0  0  0  0  0  0  0  0  0  0
  138.0500   73.3780  222.7760 H   0  0  0  0  0  0  0  0  0  0  0  0
  137.6791   73.2729  219.8210 H   0  0  0  0  0  0  0  0  0  0  0  0
  136.1527   73.6297  220.7356 H   0  0  0  0  0  0  0  0  0  0  0  0
  138.6728   77.0646  222.5804 H   0  0  0  0  0  0  0  0  0  0  0  0
  139.3529   75.6228  223.3617 H   0  0  0  0  0  0  0  0  0  0  0  0
  140.7677   77.8203  222.1873 H   0  0  0  0  0  0  0  0  0  0  0  0
  141.4817   76.3553  222.8567 H   0  0  0  0  0  0  0  0  0  0  0  0
  140.6788   76.9789  219.9832 H   0  0  0  0  0  0  0  0  0  0  0  0
  142.0835   76.0978  220.5108 H   0  0  0  0  0  0  0  0  0  0  0  0
  140.1257   74.5592  219.6595 H   0  0  0  0  0  0  0  0  0  0  0  0
  140.8523   72.9684  221.0161 H   0  0  0  0  0  0  0  0  0  0  0  0
  141.7433   74.2486  221.9415 H   0  0  0  0  0  0  0  0  0  0  0  0
  139.9180   72.7050  222.8610 H   0  0  0  0  0  0  0  0  0  0  0  0
  137.3464   68.9282  222.3272 H   0  0  0  0  0  0  0  0  0  0  0  0
  138.1597   67.6033  224.2858 H   0  0  0  0  0  0  0  0  0  0  0  0
  139.4571   67.6112  226.3789 H   0  0  0  0  0  0  0  0  0  0  0  0
  141.3983   71.2473  227.7206 H   0  0  0  0  0  0  0  0  0  0  0  0
  140.5012   72.4061  225.7118 H   0  0  0  0  0  0  0  0  0  0  0  0
  1  2  2  0
  2  3  1  0
  3  4  1  0
  4  5  1  0
  5  6  2  0
  5  7  1  0
  7  8  1  0
  8  9  1  0
  9 10  1  0
 10 11  1  0
 11 12  1  0
 12 13  1  0
  2 14  1  0
 14 15  2  0
 15 16  1  0
 16 17  2  0
 17 18  1  0
 18 19  2  0
 19 20  1  0
 19 21  1  0
 21 22  2  0
 22 23  1  0
 23 24  2  0
 11  7  1  0
 24 14  1  0
 23 17  1  0
  3 25  1  0
  4 26  1  0
  4 27  1  0
  8 28  1  0
  8 29  1  0
  9 30  1  0
  9 31  1  0
 10 32  1  0
 10 33  1  0
 11 34  1  6
 12 35  1  0
 12 36  1  0
 13 37  1  0
 15 38  1  0
 16 39  1  0
 18 40  1  0
 21 41  1  0
 22 42  1  0
M  END
>  <smiles>  (18) 
O=C(NCC(=O)N1CCC[C@H]1CO)c1ccc2cc(Cl)ccc2n1

>  <score_type>  (18) 
oracle

>  <origin>  (18) 
autodockgpu

>  <m_score__min__energy>  (18) 
-7.4800000000000004

>  <m_primary>  (18) 
energy

>  <rmsd>  (18) 
2.407036332207731

>  <m_score__min__rmsd>  (18) 
2.407036332207731

>  <meeko>  (18) 
{"free_energy": -5.79, "intermolecular_energy": -7.58, "internal_energy": -2.54, "cluster_size": 16, "cluster_id": 3, "rank_in_cluster": 13}

>  <energy>  (18) 
-6.7

>  <cluster_rmsd>  (18) 
1.08

>  <cluster>  (18) 
2

$$$$

     RDKit          3D

 42 44  0  0  0  0  0  0  0  0999 V2000
  139.9990   71.8680  224.7990 O   0  0  0  0  0  0  0  0  0  0  0  0
  139.8730   71.4680  223.6110 C   0  0  0  0  0  0  0  0  0  0  0  0
  139.0370   70.3220  223.3930 N   0  0  0  0  0  0  0  0  0  0  0  0
  138.3760   69.6720  224.5050 C   0  0  0  0  0  0  0  0  0  0  0  0
  139.1590   68.5240  225.0210 C   0  0  0  0  0  0  0  0  0  0  0  0
  139.1990   67.4200  224.3850 O   0  0  0  0  0  0  0  0  0  0  0  0
  139.8580   68.7080  226.2470 N   0  0  0  0  0  0  0  0  0  0  0  0
  140.7710   67.7860  226.9220 C   0  0  0  0  0  0  0  0  0  0  0  0
  140.7500   68.1470  228.3700 C   0  0  0  0  0  0  0  0  0  0  0  0
  139.7120   69.2390  228.4750 C   0  0  0  0  0  0  0  0  0  0  0  0
  139.8120   69.8780  227.1050 C   0  0  1  0  0  0  0  0  0  0  0  0
  141.1350   70.5970  226.9270 C   0  0  0  0  0  0  0  0  0  0  0  0
  141.0560   71.9300  227.3180 O   0  0  0  0  0  0  0  0  0  0  0  0
  140.5180   72.0910  222.4800 C   0  0  0  0  0  0  0  0  0  0  0  0
  141.0620   71.3030  221.4750 C   0  0  0  0  0  0  0  0  0  0  0  0
  141.6900   71.8530  220.3720 C   0  0  0  0  0  0  0  0  0  0  0  0
  141.7430   73.2480  220.3320 C   0  0  0  0  0  0  0  0  0  0  0  0
  142.3590   73.8950  219.2550 C   0  0  0  0  0  0  0  0  0  0  0  0
  142.4090   75.2810  219.2200 C   0  0  0  0  0  0  0  0  0  0  0  0
  143.1660   76.1440  217.9000 Cl  0  0  0  0  0  0  0  0  0  0  0  0
  141.8560   76.0560  220.2420 C   0  0  0  0  0  0  0  0  0  0  0  0
  141.2570   75.3880  221.2880 C   0  0  0  0  0  0  0  0  0  0  0  0
  141.2030   74.0220  221.3310 C   0  0  0  0  0  0  0  0  0  0  0  0
  140.6030   73.4490  222.3830 N   0  0  0  0  0  0  0  0  0  0  0  0
  138.9320   69.9860  222.3940 H   0  0  0  0  0  0  0  0  0  0  0  0
  138.2418   70.4035  225.3155 H   0  0  0  0  0  0  0  0  0  0  0  0
  137.4074   69.2908  224.1494 H   0  0  0  0  0  0  0  0  0  0  0  0
  140.4324   66.7485  226.7848 H   0  0  0  0  0  0  0  0  0  0  0  0
  141.7878   67.8623  226.5094 H   0  0  0  0  0  0  0  0  0  0  0  0
  140.4641   67.2792  228.9825 H   0  0  0  0  0  0  0  0  0  0  0  0
  141.7360   68.4722  228.7333 H   0  0  0  0  0  0  0  0  0  0  0  0
  138.7087   68.8248  228.6537 H   0  0  0  0  0  0  0  0  0  0  0  0
  139.8754   69.9364  229.3099 H   0  0  0  0  0  0  0  0  0  0  0  0
  139.0060   70.6025  226.9167 H   0  0  0  0  0  0  0  0  0  0  0  0
  141.8993   70.0921  227.5361 H   0  0  0  0  0  0  0  0  0  0  0  0
  141.3980   70.5692  225.8593 H   0  0  0  0  0  0  0  0  0  0  0  0
  140.5470   72.4260  226.6230 H   0  0  0  0  0  0  0  0  0  0  0  0
  140.9916   70.2084  221.5582 H   0  0  0  0  0  0  0  0  0  0  0  0
  142.1214   71.2296  219.5749 H   0  0  0  0  0  0  0  0  0  0  0  0
  142.8024   73.3063  218.4384 H   0  0  0  0  0  0  0  0  0  0  0  0
  141.8970   77.1549  220.2131 H   0  0  0  0  0  0  0  0  0  0  0  0
  140.8110   75.9682  222.1092 H   0  0  0  0  0  0  0  0  0  0  0  0
  1  2  2  0
  2  3  1  0
  3  4  1  0
  4  5  1  0
  5  6  2  0
  5  7  1  0
  7  8  1  0
  8  9  1  0
  9 10  1  0
 10 11  1  0
 11 12  1  0
 12 13  1  0
  2 14  1  0
 14 15  2  0
 15 16  1  0
 16 17  2  0
 17 18  1  0
 18 19  2  0
 19 20  1  0
 19 21  1  0
 21 22  2  0
 22 23  1  0
 23 24  2  0
 11  7  1  0
 24 14  1  0
 23 17  1  0
  3 25  1  0
  4 26  1  0
  4 27  1  0
  8 28  1  0
  8 29  1  0
  9 30  1  0
  9 31  1  0
 10 32  1  0
 10 33  1  0
 11 34  1  6
 12 35  1  0
 12 36  1  0
 13 37  1  0
 15 38  1  0
 16 39  1  0
 18 40  1  0
 21 41  1  0
 22 42  1  0
M  END
>  <smiles>  (19) 
O=C(NCC(=O)N1CCC[C@H]1CO)c1ccc2cc(Cl)ccc2n1

>  <score_type>  (19) 
oracle

>  <origin>  (19) 
autodockgpu

>  <m_score__min__energy>  (19) 
-7.4800000000000004

>  <m_primary>  (19) 
energy

>  <rmsd>  (19) 
8.67013705636699

>  <m_score__min__rmsd>  (19) 
8.67013705636699

>  <meeko>  (19) 
{"free_energy": -6.24, "intermolecular_energy": -8.03, "internal_energy": -1.66, "cluster_size": 16, "cluster_id": 2, "rank_in_cluster": 11}

>  <energy>  (19) 
-6.34

>  <cluster_rmsd>  (19) 
1.61

>  <cluster>  (19) 
2

$$$$

     RDKit          3D

 42 44  0  0  0  0  0  0  0  0999 V2000
  140.0910   72.6790  219.8390 O   0  0  0  0  0  0  0  0  0  0  0  0
  140.5670   72.8710  220.9900 C   0  0  0  0  0  0  0  0  0  0  0  0
  141.4170   74.0140  221.1620 N   0  0  0  0  0  0  0  0  0  0  0  0
  141.7000   74.8940  220.0470 C   0  0  0  0  0  0  0  0  0  0  0  0
  143.0190   74.6060  219.4340 C   0  0  0  0  0  0  0  0  0  0  0  0
  143.6260   75.4890  218.7440 O   0  0  0  0  0  0  0  0  0  0  0  0
  143.5700   73.3120  219.6490 N   0  0  0  0  0  0  0  0  0  0  0  0
  143.4300   72.1140  218.8210 C   0  0  0  0  0  0  0  0  0  0  0  0
  143.6460   70.9440  219.7220 C   0  0  0  0  0  0  0  0  0  0  0  0
  143.8100   71.5480  221.0960 C   0  0  0  0  0  0  0  0  0  0  0  0
  144.4080   72.8990  220.7600 C   0  0  1  0  0  0  0  0  0  0  0  0
  145.8140   72.7590  220.2120 C   0  0  0  0  0  0  0  0  0  0  0  0
  145.9530   73.3930  218.9810 O   0  0  0  0  0  0  0  0  0  0  0  0
  140.3060   72.0150  222.1220 C   0  0  0  0  0  0  0  0  0  0  0  0
  139.5550   70.8590  221.9540 C   0  0  0  0  0  0  0  0  0  0  0  0
  139.2780   70.0070  223.0080 C   0  0  0  0  0  0  0  0  0  0  0  0
  139.7970   70.3800  224.2490 C   0  0  0  0  0  0  0  0  0  0  0  0
  139.5680   69.5800  225.3740 C   0  0  0  0  0  0  0  0  0  0  0  0
  140.0890   69.9540  226.6050 C   0  0  0  0  0  0  0  0  0  0  0  0
  139.8350   68.9950  228.0450 Cl  0  0  0  0  0  0  0  0  0  0  0  0
  140.8420   71.1220  226.7520 C   0  0  0  0  0  0  0  0  0  0  0  0
  141.0480   71.8880  225.6250 C   0  0  0  0  0  0  0  0  0  0  0  0
  140.5400   71.5250  224.4070 C   0  0  0  0  0  0  0  0  0  0  0  0
  140.7860   72.3240  223.3610 N   0  0  0  0  0  0  0  0  0  0  0  0
  141.8170   74.1760  222.1290 H   0  0  0  0  0  0  0  0  0  0  0  0
  140.9179   74.7641  219.2845 H   0  0  0  0  0  0  0  0  0  0  0  0
  141.7189   75.9268  220.4251 H   0  0  0  0  0  0  0  0  0  0  0  0
  142.4228   72.0728  218.3806 H   0  0  0  0  0  0  0  0  0  0  0  0
  144.1556   72.1167  217.9942 H   0  0  0  0  0  0  0  0  0  0  0  0
  142.7786   70.2681  219.6957 H   0  0  0  0  0  0  0  0  0  0  0  0
  144.5172   70.3424  219.4236 H   0  0  0  0  0  0  0  0  0  0  0  0
  142.8418   71.6527  221.6075 H   0  0  0  0  0  0  0  0  0  0  0  0
  144.4216   70.9440  221.7824 H   0  0  0  0  0  0  0  0  0  0  0  0
  144.4505   73.5711  221.6297 H   0  0  0  0  0  0  0  0  0  0  0  0
  146.5208   73.2075  220.9256 H   0  0  0  0  0  0  0  0  0  0  0  0
  146.0216   71.6880  220.0711 H   0  0  0  0  0  0  0  0  0  0  0  0
  145.4210   74.2310  219.0030 H   0  0  0  0  0  0  0  0  0  0  0  0
  139.1691   70.6137  220.9535 H   0  0  0  0  0  0  0  0  0  0  0  0
  138.6843   69.0904  222.8761 H   0  0  0  0  0  0  0  0  0  0  0  0
  138.9765   68.6570  225.2830 H   0  0  0  0  0  0  0  0  0  0  0  0
  141.2538   71.4181  227.7281 H   0  0  0  0  0  0  0  0  0  0  0  0
  141.6355   72.8144  225.7064 H   0  0  0  0  0  0  0  0  0  0  0  0
  1  2  2  0
  2  3  1  0
  3  4  1  0
  4  5  1  0
  5  6  2  0
  5  7  1  0
  7  8  1  0
  8  9  1  0
  9 10  1  0
 10 11  1  0
 11 12  1  0
 12 13  1  0
  2 14  1  0
 14 15  2  0
 15 16  1  0
 16 17  2  0
 17 18  1  0
 18 19  2  0
 19 20  1  0
 19 21  1  0
 21 22  2  0
 22 23  1  0
 23 24  2  0
 11  7  1  0
 24 14  1  0
 23 17  1  0
  3 25  1  0
  4 26  1  0
  4 27  1  0
  8 28  1  0
  8 29  1  0
  9 30  1  0
  9 31  1  0
 10 32  1  0
 10 33  1  0
 11 34  1  1
 12 35  1  0
 12 36  1  0
 13 37  1  0
 15 38  1  0
 16 39  1  0
 18 40  1  0
 21 41  1  0
 22 42  1  0
M  END
>  <smiles>  (20) 
O=C(NCC(=O)N1CCC[C@H]1CO)c1ccc2cc(Cl)ccc2n1

>  <score_type>  (20) 
oracle

>  <origin>  (20) 
autodockgpu

>  <m_score__min__energy>  (20) 
-7.4800000000000004

>  <m_primary>  (20) 
energy

>  <rmsd>  (20) 
4.128226719236195

>  <m_score__min__rmsd>  (20) 
4.128226719236195

>  <meeko>  (20) 
{"free_energy": -5.77, "intermolecular_energy": -7.56, "internal_energy": -2.53, "cluster_size": 12, "cluster_id": 1, "rank_in_cluster": 9}

>  <energy>  (20) 
-6.32

>  <cluster_rmsd>  (20) 
1.7

>  <cluster>  (20) 
2

$$$$

     RDKit          3D

 42 44  0  0  0  0  0  0  0  0999 V2000
  133.9360   69.4850  226.5990 O   0  0  0  0  0  0  0  0  0  0  0  0
  134.2170   70.6500  226.2100 C   0  0  0  0  0  0  0  0  0  0  0  0
  135.3510   70.7940  225.3440 N   0  0  0  0  0  0  0  0  0  0  0  0
  136.1230   69.6360  224.9460 C   0  0  0  0  0  0  0  0  0  0  0  0
  137.4620   70.0120  224.4300 C   0  0  0  0  0  0  0  0  0  0  0  0
  137.5840   70.8470  223.4760 O   0  0  0  0  0  0  0  0  0  0  0  0
  138.5920   69.4030  225.0440 N   0  0  0  0  0  0  0  0  0  0  0  0
  139.1920   68.1000  224.7570 C   0  0  0  0  0  0  0  0  0  0  0  0
  139.9070   67.6770  225.9970 C   0  0  0  0  0  0  0  0  0  0  0  0
  139.5900   68.7550  227.0060 C   0  0  0  0  0  0  0  0  0  0  0  0
  139.4080   69.9610  226.1070 C   0  0  1  0  0  0  0  0  0  0  0  0
  140.7190   70.3790  225.4710 C   0  0  0  0  0  0  0  0  0  0  0  0
  140.5260   71.2990  224.4460 O   0  0  0  0  0  0  0  0  0  0  0  0
  133.4690   71.8260  226.5880 C   0  0  0  0  0  0  0  0  0  0  0  0
  132.2260   71.6890  227.1920 C   0  0  0  0  0  0  0  0  0  0  0  0
  131.4720   72.7850  227.5710 C   0  0  0  0  0  0  0  0  0  0  0  0
  132.0350   74.0350  227.3090 C   0  0  0  0  0  0  0  0  0  0  0  0
  131.3460   75.2010  227.6570 C   0  0  0  0  0  0  0  0  0  0  0  0
  131.9110   76.4420  227.3960 C   0  0  0  0  0  0  0  0  0  0  0  0
  131.0950   77.9330  227.8090 Cl  0  0  0  0  0  0  0  0  0  0  0  0
  133.1630   76.5580  226.7870 C   0  0  0  0  0  0  0  0  0  0  0  0
  133.8150   75.3890  226.4560 C   0  0  0  0  0  0  0  0  0  0  0  0
  133.2660   74.1630  226.7110 C   0  0  0  0  0  0  0  0  0  0  0  0
  133.9650   73.0760  226.3590 N   0  0  0  0  0  0  0  0  0  0  0  0
  135.5860   71.7730  225.0170 H   0  0  0  0  0  0  0  0  0  0  0  0
  136.2504   68.9773  225.8177 H   0  0  0  0  0  0  0  0  0  0  0  0
  135.5783   69.1256  224.1381 H   0  0  0  0  0  0  0  0  0  0  0  0
  138.4097   67.3698  224.5022 H   0  0  0  0  0  0  0  0  0  0  0  0
  139.8820   68.1607  223.9025 H   0  0  0  0  0  0  0  0  0  0  0  0
  139.5386   66.7002  226.3436 H   0  0  0  0  0  0  0  0  0  0  0  0
  140.9890   67.5616  225.8359 H   0  0  0  0  0  0  0  0  0  0  0  0
  138.6698   68.5262  227.5636 H   0  0  0  0  0  0  0  0  0  0  0  0
  140.3584   68.8845  227.7824 H   0  0  0  0  0  0  0  0  0  0  0  0
  139.0015   70.8307  226.6440 H   0  0  0  0  0  0  0  0  0  0  0  0
  141.3594   70.8334  226.2413 H   0  0  0  0  0  0  0  0  0  0  0  0
  141.1915   69.4832  225.0417 H   0  0  0  0  0  0  0  0  0  0  0  0
  139.5580   71.3090  224.2190 H   0  0  0  0  0  0  0  0  0  0  0  0
  131.8294   70.6793  227.3744 H   0  0  0  0  0  0  0  0  0  0  0  0
  130.4877   72.6779  228.0502 H   0  0  0  0  0  0  0  0  0  0  0  0
  130.3583   75.1351  228.1366 H   0  0  0  0  0  0  0  0  0  0  0  0
  133.6102   77.5415  226.5801 H   0  0  0  0  0  0  0  0  0  0  0  0
  134.8024   75.4442  225.9743 H   0  0  0  0  0  0  0  0  0  0  0  0
  1  2  2  0
  2  3  1  0
  3  4  1  0
  4  5  1  0
  5  6  2  0
  5  7  1  0
  7  8  1  0
  8  9  1  0
  9 10  1  0
 10 11  1  0
 11 12  1  0
 12 13  1  0
  2 14  1  0
 14 15  2  0
 15 16  1  0
 16 17  2  0
 17 18  1  0
 18 19  2  0
 19 20  1  0
 19 21  1  0
 21 22  2  0
 22 23  1  0
 23 24  2  0
 11  7  1  0
 24 14  1  0
 23 17  1  0
  3 25  1  0
  4 26  1  0
  4 27  1  0
  8 28  1  0
  8 29  1  0
  9 30  1  0
  9 31  1  0
 10 32  1  0
 10 33  1  0
 11 34  1  1
 12 35  1  0
 12 36  1  0
 13 37  1  0
 15 38  1  0
 16 39  1  0
 18 40  1  0
 21 41  1  0
 22 42  1  0
M  END
>  <smiles>  (21) 
O=C(NCC(=O)N1CCC[C@H]1CO)c1ccc2cc(Cl)ccc2n1

>  <score_type>  (21) 
oracle

>  <origin>  (21) 
autodockgpu

>  <m_score__min__energy>  (21) 
-7.4800000000000004

>  <m_primary>  (21) 
energy

>  <rmsd>  (21) 
9.0849162011334

>  <m_score__min__rmsd>  (21) 
9.0849162011334

>  <meeko>  (21) 
{"free_energy": -5.96, "intermolecular_energy": -7.75, "internal_energy": -2.07, "cluster_size": 1, "cluster_id": 5, "rank_in_cluster": 1}

>  <energy>  (21) 
-6.28

>  <cluster_rmsd>  (21) 
1.47

>  <cluster>  (21) 
2

$$$$

     RDKit          3D

 42 44  0  0  0  0  0  0  0  0999 V2000
  139.3500   72.2570  220.6030 O   0  0  0  0  0  0  0  0  0  0  0  0
  140.0140   72.4430  221.6580 C   0  0  0  0  0  0  0  0  0  0  0  0
  140.8620   73.6000  221.7010 N   0  0  0  0  0  0  0  0  0  0  0  0
  140.9340   74.5000  220.5700 C   0  0  0  0  0  0  0  0  0  0  0  0
  141.7640   73.9470  219.4730 C   0  0  0  0  0  0  0  0  0  0  0  0
  141.2970   73.8340  218.2930 O   0  0  0  0  0  0  0  0  0  0  0  0
  143.0930   73.5530  219.7940 N   0  0  0  0  0  0  0  0  0  0  0  0
  143.5360   72.3990  220.5760 C   0  0  0  0  0  0  0  0  0  0  0  0
  144.8810   72.7450  221.1240 C   0  0  0  0  0  0  0  0  0  0  0  0
  145.1110   74.1740  220.6930 C   0  0  0  0  0  0  0  0  0  0  0  0
  144.3170   74.2290  219.4040 C   0  0  1  0  0  0  0  0  0  0  0  0
  144.9560   73.3760  218.3260 C   0  0  0  0  0  0  0  0  0  0  0  0
  146.3230   73.2190  218.5340 O   0  0  0  0  0  0  0  0  0  0  0  0
  139.9660   71.5660  222.8030 C   0  0  0  0  0  0  0  0  0  0  0  0
  139.3210   70.3390  222.7070 C   0  0  0  0  0  0  0  0  0  0  0  0
  139.2480   69.4650  223.7760 C   0  0  0  0  0  0  0  0  0  0  0  0
  139.8600   69.8900  224.9560 C   0  0  0  0  0  0  0  0  0  0  0  0
  139.8370   69.0720  226.0910 C   0  0  0  0  0  0  0  0  0  0  0  0
  140.4480   69.4990  227.2620 C   0  0  0  0  0  0  0  0  0  0  0  0
  140.4520   68.5200  228.7120 Cl  0  0  0  0  0  0  0  0  0  0  0  0
  141.0920   70.7360  227.3380 C   0  0  0  0  0  0  0  0  0  0  0  0
  141.0960   71.5180  226.2030 C   0  0  0  0  0  0  0  0  0  0  0  0
  140.4960   71.1050  225.0450 C   0  0  0  0  0  0  0  0  0  0  0  0
  140.5450   71.9230  223.9850 N   0  0  0  0  0  0  0  0  0  0  0  0
  141.4190   73.7550  222.5880 H   0  0  0  0  0  0  0  0  0  0  0  0
  139.9165   74.6767  220.1912 H   0  0  0  0  0  0  0  0  0  0  0  0
  141.3999   75.4367  220.9099 H   0  0  0  0  0  0  0  0  0  0  0  0
  142.8305   72.2037  221.3971 H   0  0  0  0  0  0  0  0  0  0  0  0
  143.5825   71.4930  219.9540 H   0  0  0  0  0  0  0  0  0  0  0  0
  144.8859   72.6646  222.2210 H   0  0  0  0  0  0  0  0  0  0  0  0
  145.6672   72.0674  220.7596 H   0  0  0  0  0  0  0  0  0  0  0  0
  144.7219   74.8859  221.4359 H   0  0  0  0  0  0  0  0  0  0  0  0
  146.1712   74.4445  220.5799 H   0  0  0  0  0  0  0  0  0  0  0  0
  144.2186   75.2519  219.0116 H   0  0  0  0  0  0  0  0  0  0  0  0
  144.4794   72.3846  218.3273 H   0  0  0  0  0  0  0  0  0  0  0  0
  144.8130   73.8821  217.3599 H   0  0  0  0  0  0  0  0  0  0  0  0
  146.7220   74.1200  218.6600 H   0  0  0  0  0  0  0  0  0  0  0  0
  138.8546   70.0545  221.7523 H   0  0  0  0  0  0  0  0  0  0  0  0
  138.7382   68.4932  223.7008 H   0  0  0  0  0  0  0  0  0  0  0  0
  139.3361   68.0933  226.0554 H   0  0  0  0  0  0  0  0  0  0  0  0
  141.5765   71.0726  228.2664 H   0  0  0  0  0  0  0  0  0  0  0  0
  141.5940   72.4985  226.2290 H   0  0  0  0  0  0  0  0  0  0  0  0
  1  2  2  0
  2  3  1  0
  3  4  1  0
  4  5  1  0
  5  6  2  0
  5  7  1  0
  7  8  1  0
  8  9  1  0
  9 10  1  0
 10 11  1  0
 11 12  1  0
 12 13  1  0
  2 14  1  0
 14 15  2  0
 15 16  1  0
 16 17  2  0
 17 18  1  0
 18 19  2  0
 19 20  1  0
 19 21  1  0
 21 22  2  0
 22 23  1  0
 23 24  2  0
 11  7  1  0
 24 14  1  0
 23 17  1  0
  3 25  1  0
  4 26  1  0
  4 27  1  0
  8 28  1  0
  8 29  1  0
  9 30  1  0
  9 31  1  0
 10 32  1  0
 10 33  1  0
 11 34  1  6
 12 35  1  0
 12 36  1  0
 13 37  1  0
 15 38  1  0
 16 39  1  0
 18 40  1  0
 21 41  1  0
 22 42  1  0
M  END
>  <smiles>  (22) 
O=C(NCC(=O)N1CCC[C@H]1CO)c1ccc2cc(Cl)ccc2n1

>  <score_type>  (22) 
oracle

>  <origin>  (22) 
autodockgpu

>  <m_score__min__energy>  (22) 
-7.4800000000000004

>  <m_primary>  (22) 
energy

>  <rmsd>  (22) 
3.6636706192971435

>  <m_score__min__rmsd>  (22) 
3.6636706192971435

>  <meeko>  (22) 
{"free_energy": -6.75, "intermolecular_energy": -8.54, "internal_energy": -1.46, "cluster_size": 12, "cluster_id": 1, "rank_in_cluster": 5}

>  <energy>  (22) 
-6.25

>  <cluster_rmsd>  (22) 
1.53

>  <cluster>  (22) 
2

$$$$

     RDKit          3D

 42 44  0  0  0  0  0  0  0  0999 V2000
  137.6740   71.5020  221.0760 O   0  0  0  0  0  0  0  0  0  0  0  0
  138.2470   71.9130  222.1200 C   0  0  0  0  0  0  0  0  0  0  0  0
  138.5380   73.3160  222.1960 N   0  0  0  0  0  0  0  0  0  0  0  0
  138.1770   74.2010  221.1090 C   0  0  0  0  0  0  0  0  0  0  0  0
  139.2130   75.2340  220.8670 C   0  0  0  0  0  0  0  0  0  0  0  0
  138.9310   76.4740  220.9410 O   0  0  0  0  0  0  0  0  0  0  0  0
  140.5240   74.7810  220.5520 N   0  0  0  0  0  0  0  0  0  0  0  0
  141.7860   75.5160  220.6340 C   0  0  0  0  0  0  0  0  0  0  0  0
  142.7230   74.8680  219.6700 C   0  0  0  0  0  0  0  0  0  0  0  0
  141.8920   73.8100  218.9850 C   0  0  0  0  0  0  0  0  0  0  0  0
  140.8960   73.4610  220.0720 C   0  0  1  0  0  0  0  0  0  0  0  0
  141.5690   72.7540  221.2310 C   0  0  0  0  0  0  0  0  0  0  0  0
  141.0530   73.1650  222.4560 O   0  0  0  0  0  0  0  0  0  0  0  0
  138.6220   71.0580  223.2210 C   0  0  0  0  0  0  0  0  0  0  0  0
  138.1270   69.7610  223.2870 C   0  0  0  0  0  0  0  0  0  0  0  0
  138.4560   68.9050  224.3230 C   0  0  0  0  0  0  0  0  0  0  0  0
  139.3130   69.4230  225.2950 C   0  0  0  0  0  0  0  0  0  0  0  0
  139.7010   68.6300  226.3810 C   0  0  0  0  0  0  0  0  0  0  0  0
  140.5550   69.1490  227.3440 C   0  0  0  0  0  0  0  0  0  0  0  0
  141.0740   68.2050  228.7230 Cl  0  0  0  0  0  0  0  0  0  0  0  0
  141.0410   70.4550  227.2590 C   0  0  0  0  0  0  0  0  0  0  0  0
  140.6390   71.2100  226.1780 C   0  0  0  0  0  0  0  0  0  0  0  0
  139.7980   70.7060  225.2230 C   0  0  0  0  0  0  0  0  0  0  0  0
  139.4550   71.5040  224.2030 N   0  0  0  0  0  0  0  0  0  0  0  0
  139.0200   73.6600  223.0740 H   0  0  0  0  0  0  0  0  0  0  0  0
  138.0489   73.6051  220.1933 H   0  0  0  0  0  0  0  0  0  0  0  0
  137.2433   74.7136  221.3837 H   0  0  0  0  0  0  0  0  0  0  0  0
  141.6294   76.5698  220.3603 H   0  0  0  0  0  0  0  0  0  0  0  0
  142.1916   75.4930  221.6562 H   0  0  0  0  0  0  0  0  0  0  0  0
  143.0975   75.6008  218.9400 H   0  0  0  0  0  0  0  0  0  0  0  0
  143.6083   74.4458  220.1680 H   0  0  0  0  0  0  0  0  0  0  0  0
  141.3892   74.2093  218.0918 H   0  0  0  0  0  0  0  0  0  0  0  0
  142.4727   72.9520  218.6152 H   0  0  0  0  0  0  0  0  0  0  0  0
  140.0832   72.8148  219.7089 H   0  0  0  0  0  0  0  0  0  0  0  0
  141.4146   71.6700  221.1251 H   0  0  0  0  0  0  0  0  0  0  0  0
  142.6399   73.0044  221.2094 H   0  0  0  0  0  0  0  0  0  0  0  0
  140.6360   72.3770  222.8950 H   0  0  0  0  0  0  0  0  0  0  0  0
  137.4544   69.4048  222.4928 H   0  0  0  0  0  0  0  0  0  0  0  0
  138.0656   67.8780  224.3772 H   0  0  0  0  0  0  0  0  0  0  0  0
  139.3301   67.5983  226.4710 H   0  0  0  0  0  0  0  0  0  0  0  0
  141.7173   70.8649  228.0236 H   0  0  0  0  0  0  0  0  0  0  0  0
  141.0032   72.2434  226.0804 H   0  0  0  0  0  0  0  0  0  0  0  0
  1  2  2  0
  2  3  1  0
  3  4  1  0
  4  5  1  0
  5  6  2  0
  5  7  1  0
  7  8  1  0
  8  9  1  0
  9 10  1  0
 10 11  1  0
 11 12  1  0
 12 13  1  0
  2 14  1  0
 14 15  2  0
 15 16  1  0
 16 17  2  0
 17 18  1  0
 18 19  2  0
 19 20  1  0
 19 21  1  0
 21 22  2  0
 22 23  1  0
 23 24  2  0
 11  7  1  0
 24 14  1  0
 23 17  1  0
  3 25  1  0
  4 26  1  0
  4 27  1  0
  8 28  1  0
  8 29  1  0
  9 30  1  0
  9 31  1  0
 10 32  1  0
 10 33  1  0
 11 34  1  6
 12 35  1  0
 12 36  1  0
 13 37  1  0
 15 38  1  0
 16 39  1  0
 18 40  1  0
 21 41  1  0
 22 42  1  0
M  END
>  <smiles>  (23) 
O=C(NCC(=O)N1CCC[C@H]1CO)c1ccc2cc(Cl)ccc2n1

>  <score_type>  (23) 
oracle

>  <origin>  (23) 
autodockgpu

>  <m_score__min__energy>  (23) 
-7.4800000000000004

>  <m_primary>  (23) 
energy

>  <rmsd>  (23) 
2.318906790047685

>  <m_score__min__rmsd>  (23) 
2.318906790047685

>  <meeko>  (23) 
{"free_energy": -5.53, "intermolecular_energy": -7.32, "internal_energy": -2.83, "cluster_size": 12, "cluster_id": 1, "rank_in_cluster": 12}

>  <energy>  (23) 
-6.24

>  <cluster_rmsd>  (23) 
1.77

>  <cluster>  (23) 
2

$$$$

     RDKit          3D

 42 44  0  0  0  0  0  0  0  0999 V2000
  140.2760   70.4900  222.1430 O   0  0  0  0  0  0  0  0  0  0  0  0
  140.4110   71.6870  222.5120 C   0  0  0  0  0  0  0  0  0  0  0  0
  140.0520   71.9960  223.8670 N   0  0  0  0  0  0  0  0  0  0  0  0
  139.5620   70.9600  224.7520 C   0  0  0  0  0  0  0  0  0  0  0  0
  140.2040   71.0220  226.0870 C   0  0  0  0  0  0  0  0  0  0  0  0
  140.7400   72.0990  226.5070 O   0  0  0  0  0  0  0  0  0  0  0  0
  140.1950   69.8340  226.8710 N   0  0  0  0  0  0  0  0  0  0  0  0
  139.6330   69.6290  228.2070 C   0  0  0  0  0  0  0  0  0  0  0  0
  140.3760   68.4840  228.8110 C   0  0  0  0  0  0  0  0  0  0  0  0
  141.4330   68.1350  227.7910 C   0  0  0  0  0  0  0  0  0  0  0  0
  140.7510   68.5450  226.5010 C   0  0  1  0  0  0  0  0  0  0  0  0
  139.5750   67.6410  226.1870 C   0  0  0  0  0  0  0  0  0  0  0  0
  139.2170   67.7080  224.8440 O   0  0  0  0  0  0  0  0  0  0  0  0
  140.8960   72.7440  221.6570 C   0  0  0  0  0  0  0  0  0  0  0  0
  141.5890   72.4280  220.4950 C   0  0  0  0  0  0  0  0  0  0  0  0
  142.0740   73.4040  219.6450 C   0  0  0  0  0  0  0  0  0  0  0  0
  141.8260   74.7240  220.0240 C   0  0  0  0  0  0  0  0  0  0  0  0
  142.2790   75.7800  219.2250 C   0  0  0  0  0  0  0  0  0  0  0  0
  142.0280   77.0910  219.6060 C   0  0  0  0  0  0  0  0  0  0  0  0
  142.5700   78.4500  218.6480 Cl  0  0  0  0  0  0  0  0  0  0  0  0
  141.3290   77.3870  220.7790 C   0  0  0  0  0  0  0  0  0  0  0  0
  140.8980   76.3240  221.5430 C   0  0  0  0  0  0  0  0  0  0  0  0
  141.1400   75.0290  221.1750 C   0  0  0  0  0  0  0  0  0  0  0  0
  140.6860   74.0540  221.9730 N   0  0  0  0  0  0  0  0  0  0  0  0
  140.1660   73.0020  224.1770 H   0  0  0  0  0  0  0  0  0  0  0  0
  138.4756   71.0816  224.8742 H   0  0  0  0  0  0  0  0  0  0  0  0
  139.8047   69.9858  224.3026 H   0  0  0  0  0  0  0  0  0  0  0  0
  139.7676   70.5336  228.8183 H   0  0  0  0  0  0  0  0  0  0  0  0
  138.5544   69.4192  228.1558 H   0  0  0  0  0  0  0  0  0  0  0  0
  140.8388   68.7808  229.7638 H   0  0  0  0  0  0  0  0  0  0  0  0
  139.7175   67.6324  229.0373 H   0  0  0  0  0  0  0  0  0  0  0  0
  142.3572   68.7079  227.9572 H   0  0  0  0  0  0  0  0  0  0  0  0
  141.7520   67.0826  227.8161 H   0  0  0  0  0  0  0  0  0  0  0  0
  141.4319   68.5247  225.6373 H   0  0  0  0  0  0  0  0  0  0  0  0
  139.8477   66.6038  226.4317 H   0  0  0  0  0  0  0  0  0  0  0  0
  138.7161   67.9756  226.7873 H   0  0  0  0  0  0  0  0  0  0  0  0
  139.8820   67.1870  224.3210 H   0  0  0  0  0  0  0  0  0  0  0  0
  141.7566   71.3702  220.2442 H   0  0  0  0  0  0  0  0  0  0  0  0
  142.6227   73.1552  218.7247 H   0  0  0  0  0  0  0  0  0  0  0  0
  142.8325   75.5716  218.2975 H   0  0  0  0  0  0  0  0  0  0  0  0
  141.1307   78.4262  221.0804 H   0  0  0  0  0  0  0  0  0  0  0  0
  140.3449   76.5222  222.4730 H   0  0  0  0  0  0  0  0  0  0  0  0
  1  2  2  0
  2  3  1  0
  3  4  1  0
  4  5  1  0
  5  6  2  0
  5  7  1  0
  7  8  1  0
  8  9  1  0
  9 10  1  0
 10 11  1  0
 11 12  1  0
 12 13  1  0
  2 14  1  0
 14 15  2  0
 15 16  1  0
 16 17  2  0
 17 18  1  0
 18 19  2  0
 19 20  1  0
 19 21  1  0
 21 22  2  0
 22 23  1  0
 23 24  2  0
 11  7  1  0
 24 14  1  0
 23 17  1  0
  3 25  1  0
  4 26  1  0
  4 27  1  0
  8 28  1  0
  8 29  1  0
  9 30  1  0
  9 31  1  0
 10 32  1  0
 10 33  1  0
 11 34  1  6
 12 35  1  0
 12 36  1  0
 13 37  1  0
 15 38  1  0
 16 39  1  0
 18 40  1  0
 21 41  1  0
 22 42  1  0
M  END
>  <smiles>  (24) 
O=C(NCC(=O)N1CCC[C@H]1CO)c1ccc2cc(Cl)ccc2n1

>  <score_type>  (24) 
oracle

>  <origin>  (24) 
autodockgpu

>  <m_score__min__energy>  (24) 
-7.4800000000000004

>  <m_primary>  (24) 
energy

>  <rmsd>  (24) 
8.955099657870102

>  <m_score__min__rmsd>  (24) 
8.955099657870102

>  <meeko>  (24) 
{"free_energy": -6.7, "intermolecular_energy": -8.49, "internal_energy": -1.46, "cluster_size": 16, "cluster_id": 2, "rank_in_cluster": 6}

>  <energy>  (24) 
-6.14

>  <cluster_rmsd>  (24) 
1.18

>  <cluster>  (24) 
2

$$$$

     RDKit          3D

 42 44  0  0  0  0  0  0  0  0999 V2000
  139.3510   72.1270  220.8130 O   0  0  0  0  0  0  0  0  0  0  0  0
  139.4790   72.4580  222.0220 C   0  0  0  0  0  0  0  0  0  0  0  0
  139.4470   73.8610  222.3230 N   0  0  0  0  0  0  0  0  0  0  0  0
  139.2720   74.8340  221.2660 C   0  0  0  0  0  0  0  0  0  0  0  0
  139.6810   76.1950  221.6920 C   0  0  0  0  0  0  0  0  0  0  0  0
  139.1600   76.7440  222.7160 O   0  0  0  0  0  0  0  0  0  0  0  0
  140.6730   76.8520  220.9120 N   0  0  0  0  0  0  0  0  0  0  0  0
  141.4150   78.0740  221.2230 C   0  0  0  0  0  0  0  0  0  0  0  0
  141.8420   78.6590  219.9180 C   0  0  0  0  0  0  0  0  0  0  0  0
  141.2200   77.7610  218.8770 C   0  0  0  0  0  0  0  0  0  0  0  0
  141.1720   76.4380  219.6120 C   0  0  1  0  0  0  0  0  0  0  0  0
  142.5640   75.8830  219.8410 C   0  0  0  0  0  0  0  0  0  0  0  0
  142.5910   74.9750  220.8950 O   0  0  0  0  0  0  0  0  0  0  0  0
  139.6550   71.5140  223.1000 C   0  0  0  0  0  0  0  0  0  0  0  0
  139.2880   70.1860  222.9210 C   0  0  0  0  0  0  0  0  0  0  0  0
  139.4360   69.2450  223.9240 C   0  0  0  0  0  0  0  0  0  0  0  0
  139.9770   69.7100  225.1240 C   0  0  0  0  0  0  0  0  0  0  0  0
  140.1640   68.8300  226.1950 C   0  0  0  0  0  0  0  0  0  0  0  0
  140.7030   69.2970  227.3860 C   0  0  0  0  0  0  0  0  0  0  0  0
  140.9600   68.2440  228.7590 Cl  0  0  0  0  0  0  0  0  0  0  0  0
  141.0660   70.6370  227.5450 C   0  0  0  0  0  0  0  0  0  0  0  0
  140.8680   71.4770  226.4710 C   0  0  0  0  0  0  0  0  0  0  0  0
  140.3380   71.0250  225.2930 C   0  0  0  0  0  0  0  0  0  0  0  0
  140.1780   71.9060  224.2970 N   0  0  0  0  0  0  0  0  0  0  0  0
  139.5540   74.1380  223.3390 H   0  0  0  0  0  0  0  0  0  0  0  0
  139.8826   74.5336  220.4018 H   0  0  0  0  0  0  0  0  0  0  0  0
  138.2037   74.8655  221.0058 H   0  0  0  0  0  0  0  0  0  0  0  0
  140.7698   78.7824  221.7632 H   0  0  0  0  0  0  0  0  0  0  0  0
  142.2830   77.8583  221.8634 H   0  0  0  0  0  0  0  0  0  0  0  0
  141.4707   79.6892  219.8141 H   0  0  0  0  0  0  0  0  0  0  0  0
  142.9366   78.7124  219.8228 H   0  0  0  0  0  0  0  0  0  0  0  0
  140.2122   78.1041  218.6003 H   0  0  0  0  0  0  0  0  0  0  0  0
  141.7716   77.7267  217.9259 H   0  0  0  0  0  0  0  0  0  0  0  0
  140.5892   75.6763  219.0733 H   0  0  0  0  0  0  0  0  0  0  0  0
  142.9001   75.3753  218.9249 H   0  0  0  0  0  0  0  0  0  0  0  0
  143.2291   76.7216  220.0948 H   0  0  0  0  0  0  0  0  0  0  0  0
  142.5650   75.4880  221.7460 H   0  0  0  0  0  0  0  0  0  0  0  0
  138.8675   69.8738  221.9536 H   0  0  0  0  0  0  0  0  0  0  0  0
  139.1449   68.1934  223.7844 H   0  0  0  0  0  0  0  0  0  0  0  0
  139.8847   67.7709  226.0938 H   0  0  0  0  0  0  0  0  0  0  0  0
  141.4925   71.0062  228.4893 H   0  0  0  0  0  0  0  0  0  0  0  0
  141.1430   72.5381  226.5627 H   0  0  0  0  0  0  0  0  0  0  0  0
  1  2  2  0
  2  3  1  0
  3  4  1  0
  4  5  1  0
  5  6  2  0
  5  7  1  0
  7  8  1  0
  8  9  1  0
  9 10  1  0
 10 11  1  0
 11 12  1  0
 12 13  1  0
  2 14  1  0
 14 15  2  0
 15 16  1  0
 16 17  2  0
 17 18  1  0
 18 19  2  0
 19 20  1  0
 19 21  1  0
 21 22  2  0
 22 23  1  0
 23 24  2  0
 11  7  1  0
 24 14  1  0
 23 17  1  0
  3 25  1  0
  4 26  1  0
  4 27  1  0
  8 28  1  0
  8 29  1  0
  9 30  1  0
  9 31  1  0
 10 32  1  0
 10 33  1  0
 11 34  1  6
 12 35  1  0
 12 36  1  0
 13 37  1  0
 15 38  1  0
 16 39  1  0
 18 40  1  0
 21 41  1  0
 22 42  1  0
M  END
>  <smiles>  (25) 
O=C(NCC(=O)N1CCC[C@H]1CO)c1ccc2cc(Cl)ccc2n1

>  <score_type>  (25) 
oracle

>  <origin>  (25) 
autodockgpu

>  <m_score__min__energy>  (25) 
-7.4800000000000004

>  <m_primary>  (25) 
energy

>  <rmsd>  (25) 
2.232717536149972

>  <m_score__min__rmsd>  (25) 
2.232717536149972

>  <meeko>  (25) 
{"free_energy": -6.52, "intermolecular_energy": -8.31, "internal_energy": -1.47, "cluster_size": 16, "cluster_id": 3, "rank_in_cluster": 3}

>  <energy>  (25) 
-5.97

>  <cluster_rmsd>  (25) 
1.66

>  <cluster>  (25) 
2

$$$$

     RDKit          3D

 42 44  0  0  0  0  0  0  0  0999 V2000
  140.1910   74.1400  222.2490 O   0  0  0  0  0  0  0  0  0  0  0  0
  140.2150   72.8960  222.0490 C   0  0  0  0  0  0  0  0  0  0  0  0
  140.3110   72.4560  220.6870 N   0  0  0  0  0  0  0  0  0  0  0  0
  140.3780   73.4170  219.6070 C   0  0  0  0  0  0  0  0  0  0  0  0
  141.7110   74.0620  219.5210 C   0  0  0  0  0  0  0  0  0  0  0  0
  141.8190   75.3270  219.4110 O   0  0  0  0  0  0  0  0  0  0  0  0
  142.8510   73.2130  219.5670 N   0  0  0  0  0  0  0  0  0  0  0  0
  142.9070   71.7560  219.4470 C   0  0  0  0  0  0  0  0  0  0  0  0
  144.1530   71.3170  220.1410 C   0  0  0  0  0  0  0  0  0  0  0  0
  144.7250   72.5820  220.7320 C   0  0  0  0  0  0  0  0  0  0  0  0
  144.2320   73.6230  219.7470 C   0  0  1  0  0  0  0  0  0  0  0  0
  144.9070   73.4680  218.3980 C   0  0  0  0  0  0  0  0  0  0  0  0
  146.2680   73.2100  218.5290 O   0  0  0  0  0  0  0  0  0  0  0  0
  140.1490   71.9110  223.1020 C   0  0  0  0  0  0  0  0  0  0  0  0
  139.5640   70.6760  222.8560 C   0  0  0  0  0  0  0  0  0  0  0  0
  139.4760   69.7000  223.8320 C   0  0  0  0  0  0  0  0  0  0  0  0
  140.0110   70.0320  225.0780 C   0  0  0  0  0  0  0  0  0  0  0  0
  139.9690   69.1080  226.1270 C   0  0  0  0  0  0  0  0  0  0  0  0
  140.5030   69.4420  227.3640 C   0  0  0  0  0  0  0  0  0  0  0  0
  140.4780   68.3280  228.7120 Cl  0  0  0  0  0  0  0  0  0  0  0  0
  141.0880   70.6910  227.5910 C   0  0  0  0  0  0  0  0  0  0  0  0
  141.1130   71.5780  226.5360 C   0  0  0  0  0  0  0  0  0  0  0  0
  140.5890   71.2560  225.3140 C   0  0  0  0  0  0  0  0  0  0  0  0
  140.6530   72.1740  224.3410 N   0  0  0  0  0  0  0  0  0  0  0  0
  140.3310   71.4100  220.5190 H   0  0  0  0  0  0  0  0  0  0  0  0
  140.1713   72.9003  218.6582 H   0  0  0  0  0  0  0  0  0  0  0  0
  139.6322   74.2015  219.8026 H   0  0  0  0  0  0  0  0  0  0  0  0
  142.0265   71.3020  219.9251 H   0  0  0  0  0  0  0  0  0  0  0  0
  142.9110   71.4454  218.3918 H   0  0  0  0  0  0  0  0  0  0  0  0
  143.9209   70.5890  220.9323 H   0  0  0  0  0  0  0  0  0  0  0  0
  144.8577   70.8196  219.4584 H   0  0  0  0  0  0  0  0  0  0  0  0
  144.3325   72.7670  221.7428 H   0  0  0  0  0  0  0  0  0  0  0  0
  145.8176   72.5649  220.8583 H   0  0  0  0  0  0  0  0  0  0  0  0
  144.4056   74.6516  220.0961 H   0  0  0  0  0  0  0  0  0  0  0  0
  144.4365   72.6331  217.8580 H   0  0  0  0  0  0  0  0  0  0  0  0
  144.7890   74.4119  217.8456 H   0  0  0  0  0  0  0  0  0  0  0  0
  146.7380   74.0790  218.6400 H   0  0  0  0  0  0  0  0  0  0  0  0
  139.1584   70.4676  221.8550 H   0  0  0  0  0  0  0  0  0  0  0  0
  139.0125   68.7214  223.6382 H   0  0  0  0  0  0  0  0  0  0  0  0
  139.5137   68.1187  225.9722 H   0  0  0  0  0  0  0  0  0  0  0  0
  141.5111   70.9553  228.5714 H   0  0  0  0  0  0  0  0  0  0  0  0
  141.5659   72.5700  226.6804 H   0  0  0  0  0  0  0  0  0  0  0  0
  1  2  2  0
  2  3  1  0
  3  4  1  0
  4  5  1  0
  5  6  2  0
  5  7  1  0
  7  8  1  0
  8  9  1  0
  9 10  1  0
 10 11  1  0
 11 12  1  0
 12 13  1  0
  2 14  1  0
 14 15  2  0
 15 16  1  0
 16 17  2  0
 17 18  1  0
 18 19  2  0
 19 20  1  0
 19 21  1  0
 21 22  2  0
 22 23  1  0
 23 24  2  0
 11  7  1  0
 24 14  1  0
 23 17  1  0
  3 25  1  0
  4 26  1  0
  4 27  1  0
  8 28  1  0
  8 29  1  0
  9 30  1  0
  9 31  1  0
 10 32  1  0
 10 33  1  0
 11 34  1  1
 12 35  1  0
 12 36  1  0
 13 37  1  0
 15 38  1  0
 16 39  1  0
 18 40  1  0
 21 41  1  0
 22 42  1  0
M  END
>  <smiles>  (26) 
O=C(NCC(=O)N1CCC[C@H]1CO)c1ccc2cc(Cl)ccc2n1

>  <score_type>  (26) 
oracle

>  <origin>  (26) 
autodockgpu

>  <m_score__min__energy>  (26) 
-7.4800000000000004

>  <m_primary>  (26) 
energy

>  <rmsd>  (26) 
3.7284537580614643

>  <m_score__min__rmsd>  (26) 
3.7284537580614643

>  <meeko>  (26) 
{"free_energy": -7.03, "intermolecular_energy": -8.82, "internal_energy": -1.13, "cluster_size": 12, "cluster_id": 1, "rank_in_cluster": 4}

>  <energy>  (26) 
-5.88

>  <cluster_rmsd>  (26) 
1.49

>  <cluster>  (26) 
2

$$$$

     RDKit          3D

 42 44  0  0  0  0  0  0  0  0999 V2000
  139.9500   69.7970  222.7190 O   0  0  0  0  0  0  0  0  0  0  0  0
  139.6090   70.9780  222.9950 C   0  0  0  0  0  0  0  0  0  0  0  0
  138.5830   71.1460  223.9840 N   0  0  0  0  0  0  0  0  0  0  0  0
  137.9830   69.9950  224.6240 C   0  0  0  0  0  0  0  0  0  0  0  0
  139.0000   68.9980  225.0370 C   0  0  0  0  0  0  0  0  0  0  0  0
  139.1250   67.8930  224.4140 O   0  0  0  0  0  0  0  0  0  0  0  0
  139.8230   69.3270  226.1500 N   0  0  0  0  0  0  0  0  0  0  0  0
  140.6380   68.4360  226.9760 C   0  0  0  0  0  0  0  0  0  0  0  0
  140.7980   69.1070  228.3000 C   0  0  0  0  0  0  0  0  0  0  0  0
  139.9550   70.3550  228.1980 C   0  0  0  0  0  0  0  0  0  0  0  0
  140.0330   70.6490  226.7140 C   0  0  1  0  0  0  0  0  0  0  0  0
  141.4300   71.0740  226.3080 C   0  0  0  0  0  0  0  0  0  0  0  0
  141.6980   70.7640  224.9790 O   0  0  0  0  0  0  0  0  0  0  0  0
  140.1850   72.1480  222.3770 C   0  0  0  0  0  0  0  0  0  0  0  0
  141.3390   72.0260  221.6120 C   0  0  0  0  0  0  0  0  0  0  0  0
  141.9290   73.1170  221.0010 C   0  0  0  0  0  0  0  0  0  0  0  0
  141.2960   74.3460  221.1980 C   0  0  0  0  0  0  0  0  0  0  0  0
  141.8210   75.5060  220.6180 C   0  0  0  0  0  0  0  0  0  0  0  0
  141.1870   76.7240  220.8170 C   0  0  0  0  0  0  0  0  0  0  0  0
  141.7960   78.2070  220.1170 Cl  0  0  0  0  0  0  0  0  0  0  0  0
  140.0270   76.8250  221.5890 C   0  0  0  0  0  0  0  0  0  0  0  0
  139.5370   75.6640  222.1470 C   0  0  0  0  0  0  0  0  0  0  0  0
  140.1550   74.4580  221.9560 C   0  0  0  0  0  0  0  0  0  0  0  0
  139.6150   73.3760  222.5320 N   0  0  0  0  0  0  0  0  0  0  0  0
  138.2960   72.1390  224.2160 H   0  0  0  0  0  0  0  0  0  0  0  0
  137.4320   70.3307  225.5149 H   0  0  0  0  0  0  0  0  0  0  0  0
  137.3100   69.5144  223.8986 H   0  0  0  0  0  0  0  0  0  0  0  0
  140.1330   67.4668  227.1006 H   0  0  0  0  0  0  0  0  0  0  0  0
  141.6150   68.2454  226.5079 H   0  0  0  0  0  0  0  0  0  0  0  0
  140.4349   68.4582  229.1107 H   0  0  0  0  0  0  0  0  0  0  0  0
  141.8501   69.3315  228.5297 H   0  0  0  0  0  0  0  0  0  0  0  0
  138.9191   70.1678  228.5170 H   0  0  0  0  0  0  0  0  0  0  0  0
  140.2966   71.1816  228.8384 H   0  0  0  0  0  0  0  0  0  0  0  0
  139.3355   71.4408  226.4031 H   0  0  0  0  0  0  0  0  0  0  0  0
  141.5259   72.1610  226.4465 H   0  0  0  0  0  0  0  0  0  0  0  0
  142.1495   70.5304  226.9379 H   0  0  0  0  0  0  0  0  0  0  0  0
  140.9510   70.2060  224.6350 H   0  0  0  0  0  0  0  0  0  0  0  0
  141.7960   71.0330  221.4891 H   0  0  0  0  0  0  0  0  0  0  0  0
  142.8426   73.0225  220.3958 H   0  0  0  0  0  0  0  0  0  0  0  0
  142.7336   75.4525  220.0061 H   0  0  0  0  0  0  0  0  0  0  0  0
  139.5254   77.7914  221.7451 H   0  0  0  0  0  0  0  0  0  0  0  0
  138.6258   75.7078  222.7617 H   0  0  0  0  0  0  0  0  0  0  0  0
  1  2  2  0
  2  3  1  0
  3  4  1  0
  4  5  1  0
  5  6  2  0
  5  7  1  0
  7  8  1  0
  8  9  1  0
  9 10  1  0
 10 11  1  0
 11 12  1  0
 12 13  1  0
  2 14  1  0
 14 15  2  0
 15 16  1  0
 16 17  2  0
 17 18  1  0
 18 19  2  0
 19 20  1  0
 19 21  1  0
 21 22  2  0
 22 23  1  0
 23 24  2  0
 11  7  1  0
 24 14  1  0
 23 17  1  0
  3 25  1  0
  4 26  1  0
  4 27  1  0
  8 28  1  0
  8 29  1  0
  9 30  1  0
  9 31  1  0
 10 32  1  0
 10 33  1  0
 11 34  1  6
 12 35  1  0
 12 36  1  0
 13 37  1  0
 15 38  1  0
 16 39  1  0
 18 40  1  0
 21 41  1  0
 22 42  1  0
M  END
>  <smiles>  (27) 
O=C(NCC(=O)N1CCC[C@H]1CO)c1ccc2cc(Cl)ccc2n1

>  <score_type>  (27) 
oracle

>  <origin>  (27) 
autodockgpu

>  <m_score__min__energy>  (27) 
-7.4800000000000004

>  <m_primary>  (27) 
energy

>  <rmsd>  (27) 
8.30702942021219

>  <m_score__min__rmsd>  (27) 
8.30702942021219

>  <meeko>  (27) 
{"free_energy": -6.34, "intermolecular_energy": -8.13, "internal_energy": -2.14, "cluster_size": 16, "cluster_id": 2, "rank_in_cluster": 7}

>  <energy>  (27) 
-5.82

>  <cluster_rmsd>  (27) 
1.52

>  <cluster>  (27) 
2

$$$$

     RDKit          3D

 42 44  0  0  0  0  0  0  0  0999 V2000
  139.5800   69.5950  222.3340 O   0  0  0  0  0  0  0  0  0  0  0  0
  139.4380   70.7550  222.8050 C   0  0  0  0  0  0  0  0  0  0  0  0
  138.6320   70.8860  223.9850 N   0  0  0  0  0  0  0  0  0  0  0  0
  138.0200   69.7220  224.5900 C   0  0  0  0  0  0  0  0  0  0  0  0
  139.0320   68.7440  225.0570 C   0  0  0  0  0  0  0  0  0  0  0  0
  139.1600   67.6120  224.4870 O   0  0  0  0  0  0  0  0  0  0  0  0
  139.8470   69.1250  226.1600 N   0  0  0  0  0  0  0  0  0  0  0  0
  140.9820   68.4090  226.7430 C   0  0  0  0  0  0  0  0  0  0  0  0
  141.0940   68.8660  228.1590 C   0  0  0  0  0  0  0  0  0  0  0  0
  139.9130   69.7850  228.3560 C   0  0  0  0  0  0  0  0  0  0  0  0
  139.7220   70.3320  226.9560 C   0  0  1  0  0  0  0  0  0  0  0  0
  140.8730   71.2350  226.5550 C   0  0  0  0  0  0  0  0  0  0  0  0
  140.6170   71.8940  225.3570 O   0  0  0  0  0  0  0  0  0  0  0  0
  140.0330   71.9360  222.2270 C   0  0  0  0  0  0  0  0  0  0  0  0
  141.1100   71.8130  221.3590 C   0  0  0  0  0  0  0  0  0  0  0  0
  141.7140   72.9140  220.7810 C   0  0  0  0  0  0  0  0  0  0  0  0
  141.1760   74.1560  221.1220 C   0  0  0  0  0  0  0  0  0  0  0  0
  141.7220   75.3280  220.5860 C   0  0  0  0  0  0  0  0  0  0  0  0
  141.1820   76.5600  220.9280 C   0  0  0  0  0  0  0  0  0  0  0  0
  141.8220   78.0570  220.2890 Cl  0  0  0  0  0  0  0  0  0  0  0  0
  140.0980   76.6630  221.8030 C   0  0  0  0  0  0  0  0  0  0  0  0
  139.5850   75.4900  222.3140 C   0  0  0  0  0  0  0  0  0  0  0  0
  140.1100   74.2710  221.9820 C   0  0  0  0  0  0  0  0  0  0  0  0
  139.5530   73.1790  222.5210 N   0  0  0  0  0  0  0  0  0  0  0  0
  138.5130   71.8610  224.3800 H   0  0  0  0  0  0  0  0  0  0  0  0
  137.4146   70.0451  225.4497 H   0  0  0  0  0  0  0  0  0  0  0  0
  137.3972   69.2301  223.8283 H   0  0  0  0  0  0  0  0  0  0  0  0
  140.8048   67.3240  226.7075 H   0  0  0  0  0  0  0  0  0  0  0  0
  141.9082   68.6140  226.1861 H   0  0  0  0  0  0  0  0  0  0  0  0
  141.0400   68.0108  228.8487 H   0  0  0  0  0  0  0  0  0  0  0  0
  142.0518   69.3677  228.3613 H   0  0  0  0  0  0  0  0  0  0  0  0
  139.0252   69.2318  228.6962 H   0  0  0  0  0  0  0  0  0  0  0  0
  140.0681   70.5579  229.1232 H   0  0  0  0  0  0  0  0  0  0  0  0
  138.7896   70.9057  226.8493 H   0  0  0  0  0  0  0  0  0  0  0  0
  141.0319   71.9826  227.3461 H   0  0  0  0  0  0  0  0  0  0  0  0
  141.7676   70.6097  226.4179 H   0  0  0  0  0  0  0  0  0  0  0  0
  140.7720   71.2540  224.6130 H   0  0  0  0  0  0  0  0  0  0  0  0
  141.4940   70.8093  221.1243 H   0  0  0  0  0  0  0  0  0  0  0  0
  142.5673   72.8171  220.0937 H   0  0  0  0  0  0  0  0  0  0  0  0
  142.5766   75.2728  219.8957 H   0  0  0  0  0  0  0  0  0  0  0  0
  139.6712   77.6402  222.0732 H   0  0  0  0  0  0  0  0  0  0  0  0
  138.7316   75.5352  223.0065 H   0  0  0  0  0  0  0  0  0  0  0  0
  1  2  2  0
  2  3  1  0
  3  4  1  0
  4  5  1  0
  5  6  2  0
  5  7  1  0
  7  8  1  0
  8  9  1  0
  9 10  1  0
 10 11  1  0
 11 12  1  0
 12 13  1  0
  2 14  1  0
 14 15  2  0
 15 16  1  0
 16 17  2  0
 17 18  1  0
 18 19  2  0
 19 20  1  0
 19 21  1  0
 21 22  2  0
 22 23  1  0
 23 24  2  0
 11  7  1  0
 24 14  1  0
 23 17  1  0
  3 25  1  0
  4 26  1  0
  4 27  1  0
  8 28  1  0
  8 29  1  0
  9 30  1  0
  9 31  1  0
 10 32  1  0
 10 33  1  0
 11 34  1  1
 12 35  1  0
 12 36  1  0
 13 37  1  0
 15 38  1  0
 16 39  1  0
 18 40  1  0
 21 41  1  0
 22 42  1  0
M  END
>  <smiles>  (28) 
O=C(NCC(=O)N1CCC[C@H]1CO)c1ccc2cc(Cl)ccc2n1

>  <score_type>  (28) 
oracle

>  <origin>  (28) 
autodockgpu

>  <m_score__min__energy>  (28) 
-7.4800000000000004

>  <m_primary>  (28) 
energy

>  <rmsd>  (28) 
8.361082648721425

>  <m_score__min__rmsd>  (28) 
8.361082648721425

>  <meeko>  (28) 
{"free_energy": -6.25, "intermolecular_energy": -8.04, "internal_energy": -2.07, "cluster_size": 16, "cluster_id": 2, "rank_in_cluster": 10}

>  <energy>  (28) 
-5.81

>  <cluster_rmsd>  (28) 
1.22

>  <cluster>  (28) 
2

$$$$

     RDKit          3D

 42 44  0  0  0  0  0  0  0  0999 V2000
  139.5470   72.0780  220.6750 O   0  0  0  0  0  0  0  0  0  0  0  0
  139.5980   72.4280  221.8850 C   0  0  0  0  0  0  0  0  0  0  0  0
  139.5360   73.8350  222.1600 N   0  0  0  0  0  0  0  0  0  0  0  0
  139.4180   74.7910  221.0790 C   0  0  0  0  0  0  0  0  0  0  0  0
  140.2540   75.9940  221.3100 C   0  0  0  0  0  0  0  0  0  0  0  0
  141.4740   76.0240  220.9430 O   0  0  0  0  0  0  0  0  0  0  0  0
  139.6370   77.1040  221.9520 N   0  0  0  0  0  0  0  0  0  0  0  0
  138.4700   77.1120  222.8340 C   0  0  0  0  0  0  0  0  0  0  0  0
  137.8770   78.4800  222.7460 C   0  0  0  0  0  0  0  0  0  0  0  0
  138.7090   79.1880  221.7040 C   0  0  0  0  0  0  0  0  0  0  0  0
  140.0460   78.4950  221.8660 C   0  0  1  0  0  0  0  0  0  0  0  0
  140.6890   78.8380  223.1960 C   0  0  0  0  0  0  0  0  0  0  0  0
  141.7800   78.0190  223.4680 O   0  0  0  0  0  0  0  0  0  0  0  0
  139.7160   71.5020  222.9860 C   0  0  0  0  0  0  0  0  0  0  0  0
  139.2750   70.1940  222.8370 C   0  0  0  0  0  0  0  0  0  0  0  0
  139.3650   69.2710  223.8630 C   0  0  0  0  0  0  0  0  0  0  0  0
  139.9260   69.7330  225.0550 C   0  0  0  0  0  0  0  0  0  0  0  0
  140.0580   68.8710  226.1480 C   0  0  0  0  0  0  0  0  0  0  0  0
  140.6170   69.3360  227.3310 C   0  0  0  0  0  0  0  0  0  0  0  0
  140.8080   68.3040  228.7300 Cl  0  0  0  0  0  0  0  0  0  0  0  0
  141.0550   70.6560  227.4590 C   0  0  0  0  0  0  0  0  0  0  0  0
  140.9090   71.4800  226.3640 C   0  0  0  0  0  0  0  0  0  0  0  0
  140.3600   71.0300  225.1950 C   0  0  0  0  0  0  0  0  0  0  0  0
  140.2540   71.8940  224.1760 N   0  0  0  0  0  0  0  0  0  0  0  0
  139.5790   74.1290  223.1770 H   0  0  0  0  0  0  0  0  0  0  0  0
  139.7379   74.3102  220.1428 H   0  0  0  0  0  0  0  0  0  0  0  0
  138.3675   75.1122  221.0215 H   0  0  0  0  0  0  0  0  0  0  0  0
  137.7390   76.3596  222.5029 H   0  0  0  0  0  0  0  0  0  0  0  0
  138.7534   76.8687  223.8686 H   0  0  0  0  0  0  0  0  0  0  0  0
  136.8239   78.4276  222.4325 H   0  0  0  0  0  0  0  0  0  0  0  0
  137.8867   79.0025  223.7139 H   0  0  0  0  0  0  0  0  0  0  0  0
  138.2993   79.0403  220.6939 H   0  0  0  0  0  0  0  0  0  0  0  0
  138.7510   80.2801  221.8287 H   0  0  0  0  0  0  0  0  0  0  0  0
  140.7573   78.7583  221.0693 H   0  0  0  0  0  0  0  0  0  0  0  0
  141.0271   79.8844  223.1689 H   0  0  0  0  0  0  0  0  0  0  0  0
  139.9406   78.6852  223.9875 H   0  0  0  0  0  0  0  0  0  0  0  0
  141.8760   77.3720  222.7190 H   0  0  0  0  0  0  0  0  0  0  0  0
  138.8415   69.8828  221.8751 H   0  0  0  0  0  0  0  0  0  0  0  0
  139.0154   68.2345  223.7468 H   0  0  0  0  0  0  0  0  0  0  0  0
  139.7199   67.8271  226.0709 H   0  0  0  0  0  0  0  0  0  0  0  0
  141.4987   71.0232  228.3962 H   0  0  0  0  0  0  0  0  0  0  0  0
  141.2424   72.5260  226.4319 H   0  0  0  0  0  0  0  0  0  0  0  0
  1  2  2  0
  2  3  1  0
  3  4  1  0
  4  5  1  0
  5  6  2  0
  5  7  1  0
  7  8  1  0
  8  9  1  0
  9 10  1  0
 10 11  1  0
 11 12  1  0
 12 13  1  0
  2 14  1  0
 14 15  2  0
 15 16  1  0
 16 17  2  0
 17 18  1  0
 18 19  2  0
 19 20  1  0
 19 21  1  0
 21 22  2  0
 22 23  1  0
 23 24  2  0
 11  7  1  0
 24 14  1  0
 23 17  1  0
  3 25  1  0
  4 26  1  0
  4 27  1  0
  8 28  1  0
  8 29  1  0
  9 30  1  0
  9 31  1  0
 10 32  1  0
 10 33  1  0
 11 34  1  6
 12 35  1  0
 12 36  1  0
 13 37  1  0
 15 38  1  0
 16 39  1  0
 18 40  1  0
 21 41  1  0
 22 42  1  0
M  END
>  <smiles>  (29) 
O=C(NCC(=O)N1CCC[C@H]1CO)c1ccc2cc(Cl)ccc2n1

>  <score_type>  (29) 
oracle

>  <origin>  (29) 
autodockgpu

>  <m_score__min__energy>  (29) 
-7.4800000000000004

>  <m_primary>  (29) 
energy

>  <rmsd>  (29) 
2.837406304458444

>  <m_score__min__rmsd>  (29) 
2.837406304458444

>  <meeko>  (29) 
{"free_energy": -6.52, "intermolecular_energy": -8.31, "internal_energy": -1.8, "cluster_size": 16, "cluster_id": 3, "rank_in_cluster": 2}

>  <energy>  (29) 
-6.82

>  <cluster_rmsd>  (29) 
0.0

>  <cluster>  (29) 
3

$$$$

     RDKit          3D

 42 44  0  0  0  0  0  0  0  0999 V2000
  138.8620   72.0560  220.8770 O   0  0  0  0  0  0  0  0  0  0  0  0
  139.1720   72.3940  222.0510 C   0  0  0  0  0  0  0  0  0  0  0  0
  139.2810   73.7990  222.3180 N   0  0  0  0  0  0  0  0  0  0  0  0
  139.0390   74.7680  221.2700 C   0  0  0  0  0  0  0  0  0  0  0  0
  139.0670   76.1590  221.7820 C   0  0  0  0  0  0  0  0  0  0  0  0
  138.0580   76.6560  222.3820 O   0  0  0  0  0  0  0  0  0  0  0  0
  140.2600   76.9060  221.5770 N   0  0  0  0  0  0  0  0  0  0  0  0
  141.0650   77.6250  222.5650 C   0  0  0  0  0  0  0  0  0  0  0  0
  141.8010   78.6910  221.8220 C   0  0  0  0  0  0  0  0  0  0  0  0
  141.2890   78.5890  220.4060 C   0  0  0  0  0  0  0  0  0  0  0  0
  140.9470   77.1160  220.3160 C   0  0  1  0  0  0  0  0  0  0  0  0
  142.1950   76.2560  220.3550 C   0  0  0  0  0  0  0  0  0  0  0  0
  143.2160   76.7920  219.5770 O   0  0  0  0  0  0  0  0  0  0  0  0
  139.4200   71.4550  223.1190 C   0  0  0  0  0  0  0  0  0  0  0  0
  139.0660   70.1210  222.9620 C   0  0  0  0  0  0  0  0  0  0  0  0
  139.2820   69.1850  223.9560 C   0  0  0  0  0  0  0  0  0  0  0  0
  139.8780   69.6610  225.1250 C   0  0  0  0  0  0  0  0  0  0  0  0
  140.1360   68.7870  226.1870 C   0  0  0  0  0  0  0  0  0  0  0  0
  140.7290   69.2650  227.3460 C   0  0  0  0  0  0  0  0  0  0  0  0
  141.0750   68.2190  228.7050 Cl  0  0  0  0  0  0  0  0  0  0  0  0
  141.0780   70.6110  227.4840 C   0  0  0  0  0  0  0  0  0  0  0  0
  140.8090   71.4450  226.4210 C   0  0  0  0  0  0  0  0  0  0  0  0
  140.2260   70.9820  225.2740 C   0  0  0  0  0  0  0  0  0  0  0  0
  139.9980   71.8580  224.2860 N   0  0  0  0  0  0  0  0  0  0  0  0
  139.5400   74.0820  223.3050 H   0  0  0  0  0  0  0  0  0  0  0  0
  139.8153   74.6579  220.4985 H   0  0  0  0  0  0  0  0  0  0  0  0
  138.0374   74.5783  220.8568 H   0  0  0  0  0  0  0  0  0  0  0  0
  140.4146   78.0752  223.3293 H   0  0  0  0  0  0  0  0  0  0  0  0
  141.7619   76.9462  223.0784 H   0  0  0  0  0  0  0  0  0  0  0  0
  141.5802   79.6823  222.2446 H   0  0  0  0  0  0  0  0  0  0  0  0
  142.8921   78.5645  221.8818 H   0  0  0  0  0  0  0  0  0  0  0  0
  140.3998   79.2183  220.2536 H   0  0  0  0  0  0  0  0  0  0  0  0
  142.0044   78.9315  219.6439 H   0  0  0  0  0  0  0  0  0  0  0  0
  140.3937   76.8656  219.3988 H   0  0  0  0  0  0  0  0  0  0  0  0
  142.5428   76.1801  221.3958 H   0  0  0  0  0  0  0  0  0  0  0  0
  141.9405   75.2654  219.9501 H   0  0  0  0  0  0  0  0  0  0  0  0
  143.7560   77.3990  220.1500 H   0  0  0  0  0  0  0  0  0  0  0  0
  138.6000   69.7999  222.0187 H   0  0  0  0  0  0  0  0  0  0  0  0
  139.0011   68.1286  223.8331 H   0  0  0  0  0  0  0  0  0  0  0  0
  139.8691   67.7232  226.1027 H   0  0  0  0  0  0  0  0  0  0  0  0
  141.5483   70.9892  228.4037 H   0  0  0  0  0  0  0  0  0  0  0  0
  141.0699   72.5109  226.4969 H   0  0  0  0  0  0  0  0  0  0  0  0
  1  2  2  0
  2  3  1  0
  3  4  1  0
  4  5  1  0
  5  6  2  0
  5  7  1  0
  7  8  1  0
  8  9  1  0
  9 10  1  0
 10 11  1  0
 11 12  1  0
 12 13  1  0
  2 14  1  0
 14 15  2  0
 15 16  1  0
 16 17  2  0
 17 18  1  0
 18 19  2  0
 19 20  1  0
 19 21  1  0
 21 22  2  0
 22 23  1  0
 23 24  2  0
 11  7  1  0
 24 14  1  0
 23 17  1  0
  3 25  1  0
  4 26  1  0
  4 27  1  0
  8 28  1  0
  8 29  1  0
  9 30  1  0
  9 31  1  0
 10 32  1  0
 10 33  1  0
 11 34  1  6
 12 35  1  0
 12 36  1  0
 13 37  1  0
 15 38  1  0
 16 39  1  0
 18 40  1  0
 21 41  1  0
 22 42  1  0
M  END
>  <smiles>  (30) 
O=C(NCC(=O)N1CCC[C@H]1CO)c1ccc2cc(Cl)ccc2n1

>  <score_type>  (30) 
oracle

>  <origin>  (30) 
autodockgpu

>  <m_score__min__energy>  (30) 
-7.4800000000000004

>  <m_primary>  (30) 
energy

>  <rmsd>  (30) 
2.5856476495008813

>  <m_score__min__rmsd>  (30) 
2.5856476495008813

>  <meeko>  (30) 
{"free_energy": -6.82, "intermolecular_energy": -8.61, "internal_energy": -1.21, "cluster_size": 16, "cluster_id": 3, "rank_in_cluster": 1}

>  <energy>  (30) 
-6.52

>  <cluster_rmsd>  (30) 
1.51

>  <cluster>  (30) 
3

$$$$

     RDKit          3D

 42 44  0  0  0  0  0  0  0  0999 V2000
  141.0590   71.1240  221.4810 O   0  0  0  0  0  0  0  0  0  0  0  0
  140.8140   72.2050  222.0790 C   0  0  0  0  0  0  0  0  0  0  0  0
  140.2140   72.1110  223.3790 N   0  0  0  0  0  0  0  0  0  0  0  0
  139.9140   70.8180  223.9580 C   0  0  0  0  0  0  0  0  0  0  0  0
  140.0650   70.8220  225.4330 C   0  0  0  0  0  0  0  0  0  0  0  0
  140.0310   71.9130  226.0910 O   0  0  0  0  0  0  0  0  0  0  0  0
  140.2460   69.5650  226.0740 N   0  0  0  0  0  0  0  0  0  0  0  0
  141.4610   68.7540  226.1600 C   0  0  0  0  0  0  0  0  0  0  0  0
  141.0190   67.3430  226.3680 C   0  0  0  0  0  0  0  0  0  0  0  0
  139.5120   67.4020  226.2930 C   0  0  0  0  0  0  0  0  0  0  0  0
  139.2420   68.8050  226.7960 C   0  0  1  0  0  0  0  0  0  0  0  0
  139.5760   68.9370  228.2690 C   0  0  0  0  0  0  0  0  0  0  0  0
  139.5210   70.2610  228.6930 O   0  0  0  0  0  0  0  0  0  0  0  0
  141.1000   73.5100  221.5320 C   0  0  0  0  0  0  0  0  0  0  0  0
  141.8220   73.6190  220.3500 C   0  0  0  0  0  0  0  0  0  0  0  0
  142.1210   74.8460  219.7870 C   0  0  0  0  0  0  0  0  0  0  0  0
  141.6560   75.9660  220.4780 C   0  0  0  0  0  0  0  0  0  0  0  0
  141.9110   77.2510  219.9840 C   0  0  0  0  0  0  0  0  0  0  0  0
  141.4450   78.3610  220.6750 C   0  0  0  0  0  0  0  0  0  0  0  0
  141.7330   79.9900  220.1060 Cl  0  0  0  0  0  0  0  0  0  0  0  0
  140.7210   78.2290  221.8620 C   0  0  0  0  0  0  0  0  0  0  0  0
  140.4880   76.9500  222.3210 C   0  0  0  0  0  0  0  0  0  0  0  0
  140.9430   75.8500  221.6470 C   0  0  0  0  0  0  0  0  0  0  0  0
  140.6740   74.6430  222.1600 N   0  0  0  0  0  0  0  0  0  0  0  0
  140.0100   73.0200  223.8820 H   0  0  0  0  0  0  0  0  0  0  0  0
  138.8773   70.5486  223.7078 H   0  0  0  0  0  0  0  0  0  0  0  0
  140.6253   70.0874  223.5454 H   0  0  0  0  0  0  0  0  0  0  0  0
  142.0393   68.8370  225.2280 H   0  0  0  0  0  0  0  0  0  0  0  0
  142.1063   69.0928  226.9839 H   0  0  0  0  0  0  0  0  0  0  0  0
  141.4219   66.6895  225.5802 H   0  0  0  0  0  0  0  0  0  0  0  0
  141.3737   66.9310  227.3243 H   0  0  0  0  0  0  0  0  0  0  0  0
  139.1551   67.2690  225.2611 H   0  0  0  0  0  0  0  0  0  0  0  0
  139.0022   66.6133  226.8657 H   0  0  0  0  0  0  0  0  0  0  0  0
  138.1936   69.1085  226.6594 H   0  0  0  0  0  0  0  0  0  0  0  0
  138.8548   68.3457  228.8523 H   0  0  0  0  0  0  0  0  0  0  0  0
  140.6018   68.5705  228.4219 H   0  0  0  0  0  0  0  0  0  0  0  0
  139.8250   70.8390  227.9440 H   0  0  0  0  0  0  0  0  0  0  0  0
  142.1657   72.7028  219.8476 H   0  0  0  0  0  0  0  0  0  0  0  0
  142.6913   74.9342  218.8505 H   0  0  0  0  0  0  0  0  0  0  0  0
  142.4790   77.3806  219.0509 H   0  0  0  0  0  0  0  0  0  0  0  0
  140.3518   79.1095  222.4083 H   0  0  0  0  0  0  0  0  0  0  0  0
  139.9215   76.8104  223.2535 H   0  0  0  0  0  0  0  0  0  0  0  0
  1  2  2  0
  2  3  1  0
  3  4  1  0
  4  5  1  0
  5  6  2  0
  5  7  1  0
  7  8  1  0
  8  9  1  0
  9 10  1  0
 10 11  1  0
 11 12  1  0
 12 13  1  0
  2 14  1  0
 14 15  2  0
 15 16  1  0
 16 17  2  0
 17 18  1  0
 18 19  2  0
 19 20  1  0
 19 21  1  0
 21 22  2  0
 22 23  1  0
 23 24  2  0
 11  7  1  0
 24 14  1  0
 23 17  1  0
  3 25  1  0
  4 26  1  0
  4 27  1  0
  8 28  1  0
  8 29  1  0
  9 30  1  0
  9 31  1  0
 10 32  1  0
 10 33  1  0
 11 34  1  1
 12 35  1  0
 12 36  1  0
 13 37  1  0
 15 38  1  0
 16 39  1  0
 18 40  1  0
 21 41  1  0
 22 42  1  0
M  END
>  <smiles>  (31) 
O=C(NCC(=O)N1CCC[C@H]1CO)c1ccc2cc(Cl)ccc2n1

>  <score_type>  (31) 
oracle

>  <origin>  (31) 
autodockgpu

>  <m_score__min__energy>  (31) 
-7.4800000000000004

>  <m_primary>  (31) 
energy

>  <rmsd>  (31) 
8.828527541472205

>  <m_score__min__rmsd>  (31) 
8.828527541472205

>  <meeko>  (31) 
{"free_energy": -5.81, "intermolecular_energy": -7.6, "internal_energy": -2.22, "cluster_size": 16, "cluster_id": 2, "rank_in_cluster": 16}

>  <energy>  (31) 
-6.52

>  <cluster_rmsd>  (31) 
0.91

>  <cluster>  (31) 
3

$$$$

     RDKit          3D

 42 44  0  0  0  0  0  0  0  0999 V2000
  137.3750   71.3530  221.1340 O   0  0  0  0  0  0  0  0  0  0  0  0
  137.9750   71.7850  222.1540 C   0  0  0  0  0  0  0  0  0  0  0  0
  138.2160   73.1990  222.2200 N   0  0  0  0  0  0  0  0  0  0  0  0
  137.7780   74.0690  221.1500 C   0  0  0  0  0  0  0  0  0  0  0  0
  138.7150   75.1980  220.9340 C   0  0  0  0  0  0  0  0  0  0  0  0
  138.3120   76.4050  221.0090 O   0  0  0  0  0  0  0  0  0  0  0  0
  140.0690   74.8760  220.6440 N   0  0  0  0  0  0  0  0  0  0  0  0
  141.2460   75.7430  220.7090 C   0  0  0  0  0  0  0  0  0  0  0  0
  142.2560   75.1650  219.7750 C   0  0  0  0  0  0  0  0  0  0  0  0
  141.5480   74.0030  219.1210 C   0  0  0  0  0  0  0  0  0  0  0  0
  140.5830   73.5880  220.2130 C   0  0  1  0  0  0  0  0  0  0  0  0
  141.3150   72.9960  221.4010 C   0  0  0  0  0  0  0  0  0  0  0  0
  140.7230   73.3600  222.6060 O   0  0  0  0  0  0  0  0  0  0  0  0
  138.4260   70.9460  223.2380 C   0  0  0  0  0  0  0  0  0  0  0  0
  138.0610   69.6060  223.2710 C   0  0  0  0  0  0  0  0  0  0  0  0
  138.4670   68.7620  224.2880 C   0  0  0  0  0  0  0  0  0  0  0  0
  139.2640   69.3380  225.2790 C   0  0  0  0  0  0  0  0  0  0  0  0
  139.7230   68.5610  226.3490 C   0  0  0  0  0  0  0  0  0  0  0  0
  140.5160   69.1390  227.3310 C   0  0  0  0  0  0  0  0  0  0  0  0
  141.1180   68.2180  228.6910 Cl  0  0  0  0  0  0  0  0  0  0  0  0
  140.8720   70.4890  227.2790 C   0  0  0  0  0  0  0  0  0  0  0  0
  140.4030   71.2250  226.2120 C   0  0  0  0  0  0  0  0  0  0  0  0
  139.6210   70.6640  225.2400 C   0  0  0  0  0  0  0  0  0  0  0  0
  139.2070   71.4490  224.2370 N   0  0  0  0  0  0  0  0  0  0  0  0
  138.7200   73.5610  223.0770 H   0  0  0  0  0  0  0  0  0  0  0  0
  137.7079   73.4829  220.2218 H   0  0  0  0  0  0  0  0  0  0  0  0
  136.8002   74.4875  221.4307 H   0  0  0  0  0  0  0  0  0  0  0  0
  140.9822   76.7644  220.3974 H   0  0  0  0  0  0  0  0  0  0  0  0
  141.6409   75.7981  221.7342 H   0  0  0  0  0  0  0  0  0  0  0  0
  142.5595   75.9081  219.0228 H   0  0  0  0  0  0  0  0  0  0  0  0
  143.1752   74.8552  220.2938 H   0  0  0  0  0  0  0  0  0  0  0  0
  141.0153   74.3169  218.2112 H   0  0  0  0  0  0  0  0  0  0  0  0
  142.2192   73.1991  218.7847 H   0  0  0  0  0  0  0  0  0  0  0  0
  139.8468   72.8475  219.8671 H   0  0  0  0  0  0  0  0  0  0  0  0
  141.3039   71.8994  221.3157 H   0  0  0  0  0  0  0  0  0  0  0  0
  142.3449   73.3825  221.3954 H   0  0  0  0  0  0  0  0  0  0  0  0
  140.2380   72.5700  222.9640 H   0  0  0  0  0  0  0  0  0  0  0  0
  137.4303   69.2046  222.4641 H   0  0  0  0  0  0  0  0  0  0  0  0
  138.1794   67.7006  224.3147 H   0  0  0  0  0  0  0  0  0  0  0  0
  139.4562   67.4957  226.4116 H   0  0  0  0  0  0  0  0  0  0  0  0
  141.5007   70.9458  228.0575 H   0  0  0  0  0  0  0  0  0  0  0  0
  140.6644   72.2911  226.1404 H   0  0  0  0  0  0  0  0  0  0  0  0
  1  2  2  0
  2  3  1  0
  3  4  1  0
  4  5  1  0
  5  6  2  0
  5  7  1  0
  7  8  1  0
  8  9  1  0
  9 10  1  0
 10 11  1  0
 11 12  1  0
 12 13  1  0
  2 14  1  0
 14 15  2  0
 15 16  1  0
 16 17  2  0
 17 18  1  0
 18 19  2  0
 19 20  1  0
 19 21  1  0
 21 22  2  0
 22 23  1  0
 23 24  2  0
 11  7  1  0
 24 14  1  0
 23 17  1  0
  3 25  1  0
  4 26  1  0
  4 27  1  0
  8 28  1  0
  8 29  1  0
  9 30  1  0
  9 31  1  0
 10 32  1  0
 10 33  1  0
 11 34  1  6
 12 35  1  0
 12 36  1  0
 13 37  1  0
 15 38  1  0
 16 39  1  0
 18 40  1  0
 21 41  1  0
 22 42  1  0
M  END
>  <smiles>  (32) 
O=C(NCC(=O)N1CCC[C@H]1CO)c1ccc2cc(Cl)ccc2n1

>  <score_type>  (32) 
oracle

>  <origin>  (32) 
autodockgpu

>  <m_score__min__energy>  (32) 
-7.4800000000000004

>  <m_primary>  (32) 
energy

>  <rmsd>  (32) 
2.2195147401706516

>  <m_score__min__rmsd>  (32) 
2.2195147401706516

>  <meeko>  (32) 
{"free_energy": -5.54, "intermolecular_energy": -7.33, "internal_energy": -2.85, "cluster_size": 12, "cluster_id": 1, "rank_in_cluster": 11}

>  <energy>  (32) 
-6.45

>  <cluster_rmsd>  (32) 
1.52

>  <cluster>  (32) 
3

$$$$

     RDKit          3D

 42 44  0  0  0  0  0  0  0  0999 V2000
  140.0950   72.7380  220.7510 O   0  0  0  0  0  0  0  0  0  0  0  0
  139.8830   72.9610  221.9730 C   0  0  0  0  0  0  0  0  0  0  0  0
  139.5740   74.3130  222.3450 N   0  0  0  0  0  0  0  0  0  0  0  0
  139.5140   75.3550  221.3430 C   0  0  0  0  0  0  0  0  0  0  0  0
  138.9840   76.6250  221.8960 C   0  0  0  0  0  0  0  0  0  0  0  0
  137.8380   76.6690  222.4510 O   0  0  0  0  0  0  0  0  0  0  0  0
  139.8050   77.7810  221.7790 N   0  0  0  0  0  0  0  0  0  0  0  0
  140.1120   78.5630  220.5810 C   0  0  0  0  0  0  0  0  0  0  0  0
  141.4170   79.2420  220.8360 C   0  0  0  0  0  0  0  0  0  0  0  0
  141.8600   78.7210  222.1820 C   0  0  0  0  0  0  0  0  0  0  0  0
  140.5280   78.4450  222.8500 C   0  0  1  0  0  0  0  0  0  0  0  0
  139.7810   79.7310  223.1430 C   0  0  0  0  0  0  0  0  0  0  0  0
  138.4580   79.4890  223.5000 O   0  0  0  0  0  0  0  0  0  0  0  0
  139.9350   71.9460  222.9970 C   0  0  0  0  0  0  0  0  0  0  0  0
  139.4890   70.6600  222.7180 C   0  0  0  0  0  0  0  0  0  0  0  0
  139.5180   69.6540  223.6660 C   0  0  0  0  0  0  0  0  0  0  0  0
  140.0220   70.0080  224.9190 C   0  0  0  0  0  0  0  0  0  0  0  0
  140.0900   69.0560  225.9420 C   0  0  0  0  0  0  0  0  0  0  0  0
  140.5930   69.4130  227.1850 C   0  0  0  0  0  0  0  0  0  0  0  0
  140.7020   68.2660  228.5010 Cl  0  0  0  0  0  0  0  0  0  0  0  0
  141.0370   70.7120  227.4450 C   0  0  0  0  0  0  0  0  0  0  0  0
  140.9550   71.6260  226.4160 C   0  0  0  0  0  0  0  0  0  0  0  0
  140.4610   71.2820  225.1880 C   0  0  0  0  0  0  0  0  0  0  0  0
  140.4160   72.2290  224.2410 N   0  0  0  0  0  0  0  0  0  0  0  0
  139.3950   74.4990  223.3720 H   0  0  0  0  0  0  0  0  0  0  0  0
  140.5273   75.5324  220.9534 H   0  0  0  0  0  0  0  0  0  0  0  0
  138.8347   75.0213  220.5448 H   0  0  0  0  0  0  0  0  0  0  0  0
  140.1935   77.9009  219.7064 H   0  0  0  0  0  0  0  0  0  0  0  0
  139.3185   79.2956  220.3720 H   0  0  0  0  0  0  0  0  0  0  0  0
  142.1494   78.9806  220.0581 H   0  0  0  0  0  0  0  0  0  0  0  0
  141.3270   80.3382  220.8217 H   0  0  0  0  0  0  0  0  0  0  0  0
  142.4573   77.8028  222.0811 H   0  0  0  0  0  0  0  0  0  0  0  0
  142.5080   79.4126  222.7404 H   0  0  0  0  0  0  0  0  0  0  0  0
  140.6351   77.8940  223.7960 H   0  0  0  0  0  0  0  0  0  0  0  0
  140.2832   80.2542  223.9701 H   0  0  0  0  0  0  0  0  0  0  0  0
  139.7826   80.3437  222.2294 H   0  0  0  0  0  0  0  0  0  0  0  0
  138.2400   78.5490  223.2620 H   0  0  0  0  0  0  0  0  0  0  0  0
  139.1014   70.4357  221.7133 H   0  0  0  0  0  0  0  0  0  0  0  0
  139.1651   68.6356  223.4462 H   0  0  0  0  0  0  0  0  0  0  0  0
  139.7456   68.0270  225.7614 H   0  0  0  0  0  0  0  0  0  0  0  0
  141.4358   70.9940  228.4306 H   0  0  0  0  0  0  0  0  0  0  0  0
  141.2955   72.6579  226.5871 H   0  0  0  0  0  0  0  0  0  0  0  0
  1  2  2  0
  2  3  1  0
  3  4  1  0
  4  5  1  0
  5  6  2  0
  5  7  1  0
  7  8  1  0
  8  9  1  0
  9 10  1  0
 10 11  1  0
 11 12  1  0
 12 13  1  0
  2 14  1  0
 14 15  2  0
 15 16  1  0
 16 17  2  0
 17 18  1  0
 18 19  2  0
 19 20  1  0
 19 21  1  0
 21 22  2  0
 22 23  1  0
 23 24  2  0
 11  7  1  0
 24 14  1  0
 23 17  1  0
  3 25  1  0
  4 26  1  0
  4 27  1  0
  8 28  1  0
  8 29  1  0
  9 30  1  0
  9 31  1  0
 10 32  1  0
 10 33  1  0
 11 34  1  1
 12 35  1  0
 12 36  1  0
 13 37  1  0
 15 38  1  0
 16 39  1  0
 18 40  1  0
 21 41  1  0
 22 42  1  0
M  END
>  <smiles>  (33) 
O=C(NCC(=O)N1CCC[C@H]1CO)c1ccc2cc(Cl)ccc2n1

>  <score_type>  (33) 
oracle

>  <origin>  (33) 
autodockgpu

>  <m_score__min__energy>  (33) 
-7.4800000000000004

>  <m_primary>  (33) 
energy

>  <rmsd>  (33) 
2.819138712072917

>  <m_score__min__rmsd>  (33) 
2.819138712072917

>  <meeko>  (33) 
{"free_energy": -6.29, "intermolecular_energy": -8.08, "internal_energy": -1.87, "cluster_size": 16, "cluster_id": 3, "rank_in_cluster": 8}

>  <energy>  (33) 
-6.44

>  <cluster_rmsd>  (33) 
1.99

>  <cluster>  (33) 
3

$$$$

     RDKit          3D

 42 44  0  0  0  0  0  0  0  0999 V2000
  141.0020   71.1100  221.6970 O   0  0  0  0  0  0  0  0  0  0  0  0
  140.7660   72.2600  222.1540 C   0  0  0  0  0  0  0  0  0  0  0  0
  140.1760   72.3360  223.4610 N   0  0  0  0  0  0  0  0  0  0  0  0
  139.8760   71.1290  224.2020 C   0  0  0  0  0  0  0  0  0  0  0  0
  140.4250   71.1730  225.5790 C   0  0  0  0  0  0  0  0  0  0  0  0
  140.9670   72.2330  226.0330 O   0  0  0  0  0  0  0  0  0  0  0  0
  140.3190   69.9900  226.3620 N   0  0  0  0  0  0  0  0  0  0  0  0
  140.1900   69.8670  227.8140 C   0  0  0  0  0  0  0  0  0  0  0  0
  140.7120   68.5170  228.1770 C   0  0  0  0  0  0  0  0  0  0  0  0
  141.2250   67.9450  226.8780 C   0  0  0  0  0  0  0  0  0  0  0  0
  140.3150   68.6220  225.8730 C   0  0  1  0  0  0  0  0  0  0  0  0
  138.8880   68.1240  225.9970 C   0  0  0  0  0  0  0  0  0  0  0  0
  138.8300   66.8720  226.6020 O   0  0  0  0  0  0  0  0  0  0  0  0
  141.0520   73.4830  221.4430 C   0  0  0  0  0  0  0  0  0  0  0  0
  141.6640   73.4290  220.1970 C   0  0  0  0  0  0  0  0  0  0  0  0
  141.9590   74.5720  219.4770 C   0  0  0  0  0  0  0  0  0  0  0  0
  141.6060   75.7820  220.0780 C   0  0  0  0  0  0  0  0  0  0  0  0
  141.8650   76.9910  219.4240 C   0  0  0  0  0  0  0  0  0  0  0  0
  141.5110   78.1910  220.0260 C   0  0  0  0  0  0  0  0  0  0  0  0
  141.8100   79.7330  219.2560 Cl  0  0  0  0  0  0  0  0  0  0  0  0
  140.8960   78.2230  221.2800 C   0  0  0  0  0  0  0  0  0  0  0  0
  140.6550   77.0140  221.8970 C   0  0  0  0  0  0  0  0  0  0  0  0
  141.0010   75.8270  221.3110 C   0  0  0  0  0  0  0  0  0  0  0  0
  140.7320   74.6960  221.9760 N   0  0  0  0  0  0  0  0  0  0  0  0
  139.9790   73.3020  223.8440 H   0  0  0  0  0  0  0  0  0  0  0  0
  138.7841   71.0088  224.2584 H   0  0  0  0  0  0  0  0  0  0  0  0
  140.3422   70.2824  223.6767 H   0  0  0  0  0  0  0  0  0  0  0  0
  140.7798   70.6489  228.3148 H   0  0  0  0  0  0  0  0  0  0  0  0
  139.1430   69.9850  228.1300 H   0  0  0  0  0  0  0  0  0  0  0  0
  141.5255   68.6002  228.9128 H   0  0  0  0  0  0  0  0  0  0  0  0
  139.9409   67.8815  228.6369 H   0  0  0  0  0  0  0  0  0  0  0  0
  142.2790   68.2111  226.7096 H   0  0  0  0  0  0  0  0  0  0  0  0
  141.2068   66.8461  226.8323 H   0  0  0  0  0  0  0  0  0  0  0  0
  140.6394   68.4621  224.8342 H   0  0  0  0  0  0  0  0  0  0  0  0
  138.3122   68.8394  226.6025 H   0  0  0  0  0  0  0  0  0  0  0  0
  138.4668   68.0353  224.9847 H   0  0  0  0  0  0  0  0  0  0  0  0
  139.1440   66.9680  227.5400 H   0  0  0  0  0  0  0  0  0  0  0  0
  141.9215   72.4482  219.7707 H   0  0  0  0  0  0  0  0  0  0  0  0
  142.4428   74.5306  218.4900 H   0  0  0  0  0  0  0  0  0  0  0  0
  142.3478   76.9911  218.4356 H   0  0  0  0  0  0  0  0  0  0  0  0
  140.6154   79.1743  221.7557 H   0  0  0  0  0  0  0  0  0  0  0  0
  140.1723   77.0033  222.8854 H   0  0  0  0  0  0  0  0  0  0  0  0
  1  2  2  0
  2  3  1  0
  3  4  1  0
  4  5  1  0
  5  6  2  0
  5  7  1  0
  7  8  1  0
  8  9  1  0
  9 10  1  0
 10 11  1  0
 11 12  1  0
 12 13  1  0
  2 14  1  0
 14 15  2  0
 15 16  1  0
 16 17  2  0
 17 18  1  0
 18 19  2  0
 19 20  1  0
 19 21  1  0
 21 22  2  0
 22 23  1  0
 23 24  2  0
 11  7  1  0
 24 14  1  0
 23 17  1  0
  3 25  1  0
  4 26  1  0
  4 27  1  0
  8 28  1  0
  8 29  1  0
  9 30  1  0
  9 31  1  0
 10 32  1  0
 10 33  1  0
 11 34  1  6
 12 35  1  0
 12 36  1  0
 13 37  1  0
 15 38  1  0
 16 39  1  0
 18 40  1  0
 21 41  1  0
 22 42  1  0
M  END
>  <smiles>  (34) 
O=C(NCC(=O)N1CCC[C@H]1CO)c1ccc2cc(Cl)ccc2n1

>  <score_type>  (34) 
oracle

>  <origin>  (34) 
autodockgpu

>  <m_score__min__energy>  (34) 
-7.4800000000000004

>  <m_primary>  (34) 
energy

>  <rmsd>  (34) 
8.93528151392395

>  <m_score__min__rmsd>  (34) 
8.93528151392395

>  <meeko>  (34) 
{"free_energy": -6.99, "intermolecular_energy": -8.78, "internal_energy": -1.3, "cluster_size": 16, "cluster_id": 2, "rank_in_cluster": 1}

>  <energy>  (34) 
-6.34

>  <cluster_rmsd>  (34) 
1.2

>  <cluster>  (34) 
3

$$$$

     RDKit          3D

 42 44  0  0  0  0  0  0  0  0999 V2000
  142.0340   80.0880  218.2090 O   0  0  0  0  0  0  0  0  0  0  0  0
  141.7640   79.0370  218.8500 C   0  0  0  0  0  0  0  0  0  0  0  0
  140.7390   79.1280  219.8510 N   0  0  0  0  0  0  0  0  0  0  0  0
  140.0590   80.3820  220.0930 C   0  0  0  0  0  0  0  0  0  0  0  0
  140.8960   81.3260  220.8720 C   0  0  0  0  0  0  0  0  0  0  0  0
  141.0650   82.5270  220.4810 O   0  0  0  0  0  0  0  0  0  0  0  0
  141.4960   80.8350  222.0650 N   0  0  0  0  0  0  0  0  0  0  0  0
  141.4450   81.4040  223.4120 C   0  0  0  0  0  0  0  0  0  0  0  0
  142.6570   80.9130  224.1300 C   0  0  0  0  0  0  0  0  0  0  0  0
  143.4250   80.1320  223.0910 C   0  0  0  0  0  0  0  0  0  0  0  0
  142.3040   79.6360  222.2010 C   0  0  1  0  0  0  0  0  0  0  0  0
  141.4420   78.6140  222.9160 C   0  0  0  0  0  0  0  0  0  0  0  0
  141.2710   77.4610  222.1560 O   0  0  0  0  0  0  0  0  0  0  0  0
  142.4230   77.7710  218.6340 C   0  0  0  0  0  0  0  0  0  0  0  0
  142.9380   77.4670  217.3800 C   0  0  0  0  0  0  0  0  0  0  0  0
  143.5770   76.2670  217.1230 C   0  0  0  0  0  0  0  0  0  0  0  0
  143.6720   75.3830  218.1990 C   0  0  0  0  0  0  0  0  0  0  0  0
  144.3020   74.1440  218.0350 C   0  0  0  0  0  0  0  0  0  0  0  0
  144.3950   73.2690  219.1080 C   0  0  0  0  0  0  0  0  0  0  0  0
  145.1710   71.7080  218.9610 Cl  0  0  0  0  0  0  0  0  0  0  0  0
  143.8710   73.5950  220.3610 C   0  0  0  0  0  0  0  0  0  0  0  0
  143.2560   74.8220  220.4890 C   0  0  0  0  0  0  0  0  0  0  0  0
  143.1610   75.6910  219.4370 C   0  0  0  0  0  0  0  0  0  0  0  0
  142.5480   76.8640  219.6440 N   0  0  0  0  0  0  0  0  0  0  0  0
  140.5130   78.2440  220.3880 H   0  0  0  0  0  0  0  0  0  0  0  0
  139.8096   80.8432  219.1260 H   0  0  0  0  0  0  0  0  0  0  0  0
  139.1520   80.1695  220.6780 H   0  0  0  0  0  0  0  0  0  0  0  0
  141.4540   82.5027  223.3602 H   0  0  0  0  0  0  0  0  0  0  0  0
  140.5255   81.1021  223.9349 H   0  0  0  0  0  0  0  0  0  0  0  0
  143.2561   81.7569  224.5027 H   0  0  0  0  0  0  0  0  0  0  0  0
  142.4024   80.3011  225.0079 H   0  0  0  0  0  0  0  0  0  0  0  0
  144.1229   80.7772  222.5372 H   0  0  0  0  0  0  0  0  0  0  0  0
  144.0572   79.3329  223.5055 H   0  0  0  0  0  0  0  0  0  0  0  0
  142.6740   79.1756  221.2730 H   0  0  0  0  0  0  0  0  0  0  0  0
  141.9236   78.3451  223.8677 H   0  0  0  0  0  0  0  0  0  0  0  0
  140.4517   79.0612  223.0870 H   0  0  0  0  0  0  0  0  0  0  0  0
  142.1450   77.2290  221.7440 H   0  0  0  0  0  0  0  0  0  0  0  0
  142.8347   78.2017  216.5679 H   0  0  0  0  0  0  0  0  0  0  0  0
  143.9854   76.0243  216.1309 H   0  0  0  0  0  0  0  0  0  0  0  0
  144.7225   73.8645  217.0577 H   0  0  0  0  0  0  0  0  0  0  0  0
  143.9460   72.9009  221.2110 H   0  0  0  0  0  0  0  0  0  0  0  0
  142.8308   75.1096  221.4619 H   0  0  0  0  0  0  0  0  0  0  0  0
  1  2  2  0
  2  3  1  0
  3  4  1  0
  4  5  1  0
  5  6  2  0
  5  7  1  0
  7  8  1  0
  8  9  1  0
  9 10  1  0
 10 11  1  0
 11 12  1  0
 12 13  1  0
  2 14  1  0
 14 15  2  0
 15 16  1  0
 16 17  2  0
 17 18  1  0
 18 19  2  0
 19 20  1  0
 19 21  1  0
 21 22  2  0
 22 23  1  0
 23 24  2  0
 11  7  1  0
 24 14  1  0
 23 17  1  0
  3 25  1  0
  4 26  1  0
  4 27  1  0
  8 28  1  0
  8 29  1  0
  9 30  1  0
  9 31  1  0
 10 32  1  0
 10 33  1  0
 11 34  1  6
 12 35  1  0
 12 36  1  0
 13 37  1  0
 15 38  1  0
 16 39  1  0
 18 40  1  0
 21 41  1  0
 22 42  1  0
M  END
>  <smiles>  (35) 
O=C(NCC(=O)N1CCC[C@H]1CO)c1ccc2cc(Cl)ccc2n1

>  <score_type>  (35) 
oracle

>  <origin>  (35) 
autodockgpu

>  <m_score__min__energy>  (35) 
-7.4800000000000004

>  <m_primary>  (35) 
energy

>  <rmsd>  (35) 
8.562419907879395

>  <m_score__min__rmsd>  (35) 
8.562419907879395

>  <meeko>  (35) 
{"free_energy": -5.35, "intermolecular_energy": -7.14, "internal_energy": -2.86, "cluster_size": 1, "cluster_id": 7, "rank_in_cluster": 1}

>  <energy>  (35) 
-6.32

>  <cluster_rmsd>  (35) 
1.9

>  <cluster>  (35) 
3

$$$$

     RDKit          3D

 42 44  0  0  0  0  0  0  0  0999 V2000
  137.2320   71.4490  223.7810 O   0  0  0  0  0  0  0  0  0  0  0  0
  138.4020   71.3140  223.3320 C   0  0  0  0  0  0  0  0  0  0  0  0
  139.0730   70.0780  223.6190 N   0  0  0  0  0  0  0  0  0  0  0  0
  138.4130   69.0470  224.3920 C   0  0  0  0  0  0  0  0  0  0  0  0
  139.3710   68.2790  225.2240 C   0  0  0  0  0  0  0  0  0  0  0  0
  139.5510   67.0320  225.0320 O   0  0  0  0  0  0  0  0  0  0  0  0
  140.0740   68.9910  226.2350 N   0  0  0  0  0  0  0  0  0  0  0  0
  141.0770   68.4880  227.1740 C   0  0  0  0  0  0  0  0  0  0  0  0
  141.0520   69.3990  228.3560 C   0  0  0  0  0  0  0  0  0  0  0  0
  139.9250   70.3620  228.0700 C   0  0  0  0  0  0  0  0  0  0  0  0
  139.9420   70.4010  226.5550 C   0  0  1  0  0  0  0  0  0  0  0  0
  141.1940   71.0810  226.0350 C   0  0  0  0  0  0  0  0  0  0  0  0
  141.4070   70.8090  224.6870 O   0  0  0  0  0  0  0  0  0  0  0  0
  139.0880   72.3210  222.5590 C   0  0  0  0  0  0  0  0  0  0  0  0
  138.4030   73.4540  222.1390 C   0  0  0  0  0  0  0  0  0  0  0  0
  139.0170   74.4460  221.3960 C   0  0  0  0  0  0  0  0  0  0  0  0
  140.3640   74.2400  221.0940 C   0  0  0  0  0  0  0  0  0  0  0  0
  141.0680   75.1900  220.3460 C   0  0  0  0  0  0  0  0  0  0  0  0
  142.4080   74.9800  220.0500 C   0  0  0  0  0  0  0  0  0  0  0  0
  143.3390   76.1320  219.1200 Cl  0  0  0  0  0  0  0  0  0  0  0  0
  143.0780   73.8330  220.4820 C   0  0  0  0  0  0  0  0  0  0  0  0
  142.3550   72.9170  221.2160 C   0  0  0  0  0  0  0  0  0  0  0  0
  141.0350   73.1160  221.5130 C   0  0  0  0  0  0  0  0  0  0  0  0
  140.4040   72.1780  222.2310 N   0  0  0  0  0  0  0  0  0  0  0  0
  140.0550   69.9650  223.2410 H   0  0  0  0  0  0  0  0  0  0  0  0
  137.6686   69.5183  225.0506 H   0  0  0  0  0  0  0  0  0  0  0  0
  137.9358   68.3479  223.6895 H   0  0  0  0  0  0  0  0  0  0  0  0
  140.8279   67.4615  227.4810 H   0  0  0  0  0  0  0  0  0  0  0  0
  142.0753   68.4655  226.7125 H   0  0  0  0  0  0  0  0  0  0  0  0
  140.8548   68.8331  229.2784 H   0  0  0  0  0  0  0  0  0  0  0  0
  142.0125   69.9135  228.5069 H   0  0  0  0  0  0  0  0  0  0  0  0
  138.9655   69.9832  228.4520 H   0  0  0  0  0  0  0  0  0  0  0  0
  140.0429   71.3464  228.5465 H   0  0  0  0  0  0  0  0  0  0  0  0
  139.0723   70.9281  226.1357 H   0  0  0  0  0  0  0  0  0  0  0  0
  141.0899   72.1681  226.1669 H   0  0  0  0  0  0  0  0  0  0  0  0
  142.0538   70.6949  226.6021 H   0  0  0  0  0  0  0  0  0  0  0  0
  140.9890   71.5370  224.1550 H   0  0  0  0  0  0  0  0  0  0  0  0
  137.3415   73.5656  222.4050 H   0  0  0  0  0  0  0  0  0  0  0  0
  138.4759   75.3439  221.0629 H   0  0  0  0  0  0  0  0  0  0  0  0
  140.5613   76.1005  219.9935 H   0  0  0  0  0  0  0  0  0  0  0  0
  144.1396   73.6673  220.2461 H   0  0  0  0  0  0  0  0  0  0  0  0
  142.8525   72.0028  221.5718 H   0  0  0  0  0  0  0  0  0  0  0  0
  1  2  2  0
  2  3  1  0
  3  4  1  0
  4  5  1  0
  5  6  2  0
  5  7  1  0
  7  8  1  0
  8  9  1  0
  9 10  1  0
 10 11  1  0
 11 12  1  0
 12 13  1  0
  2 14  1  0
 14 15  2  0
 15 16  1  0
 16 17  2  0
 17 18  1  0
 18 19  2  0
 19 20  1  0
 19 21  1  0
 21 22  2  0
 22 23  1  0
 23 24  2  0
 11  7  1  0
 24 14  1  0
 23 17  1  0
  3 25  1  0
  4 26  1  0
  4 27  1  0
  8 28  1  0
  8 29  1  0
  9 30  1  0
  9 31  1  0
 10 32  1  0
 10 33  1  0
 11 34  1  6
 12 35  1  0
 12 36  1  0
 13 37  1  0
 15 38  1  0
 16 39  1  0
 18 40  1  0
 21 41  1  0
 22 42  1  0
M  END
>  <smiles>  (36) 
O=C(NCC(=O)N1CCC[C@H]1CO)c1ccc2cc(Cl)ccc2n1

>  <score_type>  (36) 
oracle

>  <origin>  (36) 
autodockgpu

>  <m_score__min__energy>  (36) 
-7.4800000000000004

>  <m_primary>  (36) 
energy

>  <rmsd>  (36) 
8.387334651155697

>  <m_score__min__rmsd>  (36) 
8.387334651155697

>  <meeko>  (36) 
{"free_energy": -5.46, "intermolecular_energy": -7.25, "internal_energy": -2.91, "cluster_size": 1, "cluster_id": 6, "rank_in_cluster": 1}

>  <energy>  (36) 
-6.29

>  <cluster_rmsd>  (36) 
1.37

>  <cluster>  (36) 
3

$$$$

     RDKit          3D

 42 44  0  0  0  0  0  0  0  0999 V2000
  141.2760   71.2760  221.3170 O   0  0  0  0  0  0  0  0  0  0  0  0
  140.7170   72.2290  221.9240 C   0  0  0  0  0  0  0  0  0  0  0  0
  139.7780   71.8850  222.9530 N   0  0  0  0  0  0  0  0  0  0  0  0
  139.5030   70.4990  223.2640 C   0  0  0  0  0  0  0  0  0  0  0  0
  138.9250   70.3380  224.6200 C   0  0  0  0  0  0  0  0  0  0  0  0
  137.6640   70.3230  224.7960 O   0  0  0  0  0  0  0  0  0  0  0  0
  139.8360   70.2030  225.7050 N   0  0  0  0  0  0  0  0  0  0  0  0
  140.7440   69.0940  225.9990 C   0  0  0  0  0  0  0  0  0  0  0  0
  141.0050   69.1330  227.4680 C   0  0  0  0  0  0  0  0  0  0  0  0
  140.1250   70.2470  227.9810 C   0  0  0  0  0  0  0  0  0  0  0  0
  140.0620   71.1600  226.7740 C   0  0  1  0  0  0  0  0  0  0  0  0
  141.4070   71.8040  226.4980 C   0  0  0  0  0  0  0  0  0  0  0  0
  141.7770   72.6790  227.5150 O   0  0  0  0  0  0  0  0  0  0  0  0
  140.9690   73.6210  221.6390 C   0  0  0  0  0  0  0  0  0  0  0  0
  141.9500   73.9720  220.7210 C   0  0  0  0  0  0  0  0  0  0  0  0
  142.2280   75.2920  220.4160 C   0  0  0  0  0  0  0  0  0  0  0  0
  141.4640   76.2480  221.0860 C   0  0  0  0  0  0  0  0  0  0  0  0
  141.6740   77.6100  220.8420 C   0  0  0  0  0  0  0  0  0  0  0  0
  140.9110   78.5570  221.5110 C   0  0  0  0  0  0  0  0  0  0  0  0
  141.1290   80.2730  221.2460 Cl  0  0  0  0  0  0  0  0  0  0  0  0
  139.9280   78.1830  222.4310 C   0  0  0  0  0  0  0  0  0  0  0  0
  139.7470   76.8340  222.6490 C   0  0  0  0  0  0  0  0  0  0  0  0
  140.4950   75.8940  221.9940 C   0  0  0  0  0  0  0  0  0  0  0  0
  140.2560   74.6040  222.2620 N   0  0  0  0  0  0  0  0  0  0  0  0
  139.3100   72.6860  223.4630 H   0  0  0  0  0  0  0  0  0  0  0  0
  138.7904   70.1039  222.5250 H   0  0  0  0  0  0  0  0  0  0  0  0
  140.4549   69.9485  223.2329 H   0  0  0  0  0  0  0  0  0  0  0  0
  140.2767   68.1375  225.7220 H   0  0  0  0  0  0  0  0  0  0  0  0
  141.6796   69.1858  225.4278 H   0  0  0  0  0  0  0  0  0  0  0  0
  140.7326   68.1757  227.9365 H   0  0  0  0  0  0  0  0  0  0  0  0
  142.0674   69.3003  227.6989 H   0  0  0  0  0  0  0  0  0  0  0  0
  139.1269   69.8762  228.2572 H   0  0  0  0  0  0  0  0  0  0  0  0
  140.5018   70.7333  228.8928 H   0  0  0  0  0  0  0  0  0  0  0  0
  139.3199   71.9636  226.8903 H   0  0  0  0  0  0  0  0  0  0  0  0
  142.1689   71.0153  226.4116 H   0  0  0  0  0  0  0  0  0  0  0  0
  141.3268   72.3786  225.5635 H   0  0  0  0  0  0  0  0  0  0  0  0
  141.0670   73.3670  227.6050 H   0  0  0  0  0  0  0  0  0  0  0  0
  142.5229   73.1767  220.2217 H   0  0  0  0  0  0  0  0  0  0  0  0
  143.0047   75.5713  219.6889 H   0  0  0  0  0  0  0  0  0  0  0  0
  142.4418   77.9292  220.1218 H   0  0  0  0  0  0  0  0  0  0  0  0
  139.3232   78.9345  222.9597 H   0  0  0  0  0  0  0  0  0  0  0  0
  138.9820   76.5049  223.3676 H   0  0  0  0  0  0  0  0  0  0  0  0
  1  2  2  0
  2  3  1  0
  3  4  1  0
  4  5  1  0
  5  6  2  0
  5  7  1  0
  7  8  1  0
  8  9  1  0
  9 10  1  0
 10 11  1  0
 11 12  1  0
 12 13  1  0
  2 14  1  0
 14 15  2  0
 15 16  1  0
 16 17  2  0
 17 18  1  0
 18 19  2  0
 19 20  1  0
 19 21  1  0
 21 22  2  0
 22 23  1  0
 23 24  2  0
 11  7  1  0
 24 14  1  0
 23 17  1  0
  3 25  1  0
  4 26  1  0
  4 27  1  0
  8 28  1  0
  8 29  1  0
  9 30  1  0
  9 31  1  0
 10 32  1  0
 10 33  1  0
 11 34  1  1
 12 35  1  0
 12 36  1  0
 13 37  1  0
 15 38  1  0
 16 39  1  0
 18 40  1  0
 21 41  1  0
 22 42  1  0
M  END
>  <smiles>  (37) 
O=C(NCC(=O)N1CCC[C@H]1CO)c1ccc2cc(Cl)ccc2n1

>  <score_type>  (37) 
oracle

>  <origin>  (37) 
autodockgpu

>  <m_score__min__energy>  (37) 
-7.4800000000000004

>  <m_primary>  (37) 
energy

>  <rmsd>  (37) 
8.429825447071138

>  <m_score__min__rmsd>  (37) 
8.429825447071138

>  <meeko>  (37) 
{"free_energy": -6.71, "intermolecular_energy": -8.5, "internal_energy": -1.3, "cluster_size": 16, "cluster_id": 2, "rank_in_cluster": 5}

>  <energy>  (37) 
-6.29

>  <cluster_rmsd>  (37) 
1.25

>  <cluster>  (37) 
3

$$$$

     RDKit          3D

 42 44  0  0  0  0  0  0  0  0999 V2000
  139.9530   72.6810  220.0910 O   0  0  0  0  0  0  0  0  0  0  0  0
  140.4680   72.8510  221.2280 C   0  0  0  0  0  0  0  0  0  0  0  0
  141.3430   73.9770  221.3880 N   0  0  0  0  0  0  0  0  0  0  0  0
  141.6060   74.8660  220.2760 C   0  0  0  0  0  0  0  0  0  0  0  0
  142.8830   74.5410  219.5970 C   0  0  0  0  0  0  0  0  0  0  0  0
  143.6360   75.4630  219.1430 O   0  0  0  0  0  0  0  0  0  0  0  0
  143.2260   73.1650  219.4760 N   0  0  0  0  0  0  0  0  0  0  0  0
  142.6360   72.1530  218.5990 C   0  0  0  0  0  0  0  0  0  0  0  0
  142.8850   70.8310  219.2450 C   0  0  0  0  0  0  0  0  0  0  0  0
  143.5480   71.1680  220.5590 C   0  0  0  0  0  0  0  0  0  0  0  0
  144.2600   72.4600  220.2120 C   0  0  1  0  0  0  0  0  0  0  0  0
  145.3970   72.2190  219.2380 C   0  0  0  0  0  0  0  0  0  0  0  0
  146.0080   73.4090  218.8550 O   0  0  0  0  0  0  0  0  0  0  0  0
  140.2270   71.9840  222.3570 C   0  0  0  0  0  0  0  0  0  0  0  0
  139.4670   70.8330  222.1940 C   0  0  0  0  0  0  0  0  0  0  0  0
  139.2080   69.9720  223.2440 C   0  0  0  0  0  0  0  0  0  0  0  0
  139.7560   70.3300  224.4780 C   0  0  0  0  0  0  0  0  0  0  0  0
  139.5470   69.5200  225.5990 C   0  0  0  0  0  0  0  0  0  0  0  0
  140.0940   69.8800  226.8230 C   0  0  0  0  0  0  0  0  0  0  0  0
  139.8660   68.9070  228.2580 Cl  0  0  0  0  0  0  0  0  0  0  0  0
  140.8550   71.0430  226.9660 C   0  0  0  0  0  0  0  0  0  0  0  0
  141.0410   71.8190  225.8420 C   0  0  0  0  0  0  0  0  0  0  0  0
  140.5060   71.4710  224.6320 C   0  0  0  0  0  0  0  0  0  0  0  0
  140.7340   72.2790  223.5880 N   0  0  0  0  0  0  0  0  0  0  0  0
  141.7740   74.1190  222.3440 H   0  0  0  0  0  0  0  0  0  0  0  0
  140.7848   74.7787  219.5493 H   0  0  0  0  0  0  0  0  0  0  0  0
  141.6809   75.8904  220.6696 H   0  0  0  0  0  0  0  0  0  0  0  0
  141.5549   72.3261  218.4934 H   0  0  0  0  0  0  0  0  0  0  0  0
  143.0795   72.1927  217.5932 H   0  0  0  0  0  0  0  0  0  0  0  0
  141.9384   70.2967  219.4135 H   0  0  0  0  0  0  0  0  0  0  0  0
  143.5067   70.1723  218.6209 H   0  0  0  0  0  0  0  0  0  0  0  0
  142.8061   71.3192  221.3569 H   0  0  0  0  0  0  0  0  0  0  0  0
  144.2106   70.3788  220.9438 H   0  0  0  0  0  0  0  0  0  0  0  0
  144.6753   72.9654  221.0964 H   0  0  0  0  0  0  0  0  0  0  0  0
  146.1462   71.5720  219.7178 H   0  0  0  0  0  0  0  0  0  0  0  0
  144.9820   71.7417  218.3380 H   0  0  0  0  0  0  0  0  0  0  0  0
  145.3550   74.1470  218.9830 H   0  0  0  0  0  0  0  0  0  0  0  0
  139.0589   70.5995  221.1995 H   0  0  0  0  0  0  0  0  0  0  0  0
  138.6066   69.0599  223.1155 H   0  0  0  0  0  0  0  0  0  0  0  0
  138.9506   68.5999  225.5109 H   0  0  0  0  0  0  0  0  0  0  0  0
  141.2881   71.3278  227.9362 H   0  0  0  0  0  0  0  0  0  0  0  0
  141.6348   72.7417  225.9200 H   0  0  0  0  0  0  0  0  0  0  0  0
  1  2  2  0
  2  3  1  0
  3  4  1  0
  4  5  1  0
  5  6  2  0
  5  7  1  0
  7  8  1  0
  8  9  1  0
  9 10  1  0
 10 11  1  0
 11 12  1  0
 12 13  1  0
  2 14  1  0
 14 15  2  0
 15 16  1  0
 16 17  2  0
 17 18  1  0
 18 19  2  0
 19 20  1  0
 19 21  1  0
 21 22  2  0
 22 23  1  0
 23 24  2  0
 11  7  1  0
 24 14  1  0
 23 17  1  0
  3 25  1  0
  4 26  1  0
  4 27  1  0
  8 28  1  0
  8 29  1  0
  9 30  1  0
  9 31  1  0
 10 32  1  0
 10 33  1  0
 11 34  1  1
 12 35  1  0
 12 36  1  0
 13 37  1  0
 15 38  1  0
 16 39  1  0
 18 40  1  0
 21 41  1  0
 22 42  1  0
M  END
>  <smiles>  (38) 
O=C(NCC(=O)N1CCC[C@H]1CO)c1ccc2cc(Cl)ccc2n1

>  <score_type>  (38) 
oracle

>  <origin>  (38) 
autodockgpu

>  <m_score__min__energy>  (38) 
-7.4800000000000004

>  <m_primary>  (38) 
energy

>  <rmsd>  (38) 
3.9835637457016793

>  <m_score__min__rmsd>  (38) 
3.9835637457016793

>  <meeko>  (38) 
{"free_energy": -5.7, "intermolecular_energy": -7.49, "internal_energy": -2.53, "cluster_size": 12, "cluster_id": 1, "rank_in_cluster": 10}

>  <energy>  (38) 
-6.25

>  <cluster_rmsd>  (38) 
1.52

>  <cluster>  (38) 
3

$$$$

     RDKit          3D

 42 44  0  0  0  0  0  0  0  0999 V2000
  137.1040   71.3920  221.2670 O   0  0  0  0  0  0  0  0  0  0  0  0
  137.7680   71.8300  222.2450 C   0  0  0  0  0  0  0  0  0  0  0  0
  138.0700   73.2330  222.2540 N   0  0  0  0  0  0  0  0  0  0  0  0
  137.6190   74.0880  221.1760 C   0  0  0  0  0  0  0  0  0  0  0  0
  138.5920   74.1290  220.0570 C   0  0  0  0  0  0  0  0  0  0  0  0
  138.1970   74.2500  218.8520 O   0  0  0  0  0  0  0  0  0  0  0  0
  139.9720   74.0290  220.3870 N   0  0  0  0  0  0  0  0  0  0  0  0
  140.8850   75.0890  220.8160 C   0  0  0  0  0  0  0  0  0  0  0  0
  142.2620   74.6380  220.4560 C   0  0  0  0  0  0  0  0  0  0  0  0
  142.0560   73.3340  219.7240 C   0  0  0  0  0  0  0  0  0  0  0  0
  140.7840   72.8250  220.3700 C   0  0  1  0  0  0  0  0  0  0  0  0
  141.0170   72.4410  221.8180 C   0  0  0  0  0  0  0  0  0  0  0  0
  140.4820   73.3810  222.6940 O   0  0  0  0  0  0  0  0  0  0  0  0
  138.2330   71.0050  223.3350 C   0  0  0  0  0  0  0  0  0  0  0  0
  137.7540   69.7090  223.4730 C   0  0  0  0  0  0  0  0  0  0  0  0
  138.1680   68.8810  224.5000 C   0  0  0  0  0  0  0  0  0  0  0  0
  139.0950   69.4280  225.3900 C   0  0  0  0  0  0  0  0  0  0  0  0
  139.5720   68.6650  226.4610 C   0  0  0  0  0  0  0  0  0  0  0  0
  140.4950   69.2130  227.3420 C   0  0  0  0  0  0  0  0  0  0  0  0
  141.1260   68.3080  228.6990 Cl  0  0  0  0  0  0  0  0  0  0  0  0
  140.9640   70.5200  227.1860 C   0  0  0  0  0  0  0  0  0  0  0  0
  140.4730   71.2440  226.1210 C   0  0  0  0  0  0  0  0  0  0  0  0
  139.5650   70.7120  225.2470 C   0  0  0  0  0  0  0  0  0  0  0  0
  139.1380   71.4810  224.2380 N   0  0  0  0  0  0  0  0  0  0  0  0
  138.6280   73.6000  223.0750 H   0  0  0  0  0  0  0  0  0  0  0  0
  136.6587   73.7070  220.7982 H   0  0  0  0  0  0  0  0  0  0  0  0
  137.5130   75.1086  221.5725 H   0  0  0  0  0  0  0  0  0  0  0  0
  140.6457   76.0289  220.2971 H   0  0  0  0  0  0  0  0  0  0  0  0
  140.7981   75.2738  221.8969 H   0  0  0  0  0  0  0  0  0  0  0  0
  142.7544   75.3753  219.8049 H   0  0  0  0  0  0  0  0  0  0  0  0
  142.9078   74.5233  221.3391 H   0  0  0  0  0  0  0  0  0  0  0  0
  141.9218   73.4958  218.6443 H   0  0  0  0  0  0  0  0  0  0  0  0
  142.9057   72.6392  219.7963 H   0  0  0  0  0  0  0  0  0  0  0  0
  140.3669   71.9494  219.8511 H   0  0  0  0  0  0  0  0  0  0  0  0
  140.5436   71.4665  222.0086 H   0  0  0  0  0  0  0  0  0  0  0  0
  142.1026   72.3930  221.9888 H   0  0  0  0  0  0  0  0  0  0  0  0
  139.9540   72.8970  223.3830 H   0  0  0  0  0  0  0  0  0  0  0  0
  137.0233   69.3297  222.7435 H   0  0  0  0  0  0  0  0  0  0  0  0
  137.7902   67.8537  224.6095 H   0  0  0  0  0  0  0  0  0  0  0  0
  139.2170   67.6339  226.6049 H   0  0  0  0  0  0  0  0  0  0  0  0
  141.6950   70.9532  227.8845 H   0  0  0  0  0  0  0  0  0  0  0  0
  140.8204   72.2767  225.9698 H   0  0  0  0  0  0  0  0  0  0  0  0
  1  2  2  0
  2  3  1  0
  3  4  1  0
  4  5  1  0
  5  6  2  0
  5  7  1  0
  7  8  1  0
  8  9  1  0
  9 10  1  0
 10 11  1  0
 11 12  1  0
 12 13  1  0
  2 14  1  0
 14 15  2  0
 15 16  1  0
 16 17  2  0
 17 18  1  0
 18 19  2  0
 19 20  1  0
 19 21  1  0
 21 22  2  0
 22 23  1  0
 23 24  2  0
 11  7  1  0
 24 14  1  0
 23 17  1  0
  3 25  1  0
  4 26  1  0
  4 27  1  0
  8 28  1  0
  8 29  1  0
  9 30  1  0
  9 31  1  0
 10 32  1  0
 10 33  1  0
 11 34  1  6
 12 35  1  0
 12 36  1  0
 13 37  1  0
 15 38  1  0
 16 39  1  0
 18 40  1  0
 21 41  1  0
 22 42  1  0
M  END
>  <smiles>  (39) 
O=C(NCC(=O)N1CCC[C@H]1CO)c1ccc2cc(Cl)ccc2n1

>  <score_type>  (39) 
oracle

>  <origin>  (39) 
autodockgpu

>  <m_score__min__energy>  (39) 
-7.4800000000000004

>  <m_primary>  (39) 
energy

>  <rmsd>  (39) 
2.574271822236109

>  <m_score__min__rmsd>  (39) 
2.574271822236109

>  <meeko>  (39) 
{"free_energy": -5.71, "intermolecular_energy": -7.5, "internal_energy": -2.6, "cluster_size": 16, "cluster_id": 3, "rank_in_cluster": 14}

>  <energy>  (39) 
-5.86

>  <cluster_rmsd>  (39) 
1.15

>  <cluster>  (39) 
3

$$$$

     RDKit          3D

 42 44  0  0  0  0  0  0  0  0999 V2000
  138.8230   73.2920  221.3480 O   0  0  0  0  0  0  0  0  0  0  0  0
  139.8490   72.7730  221.8630 C   0  0  0  0  0  0  0  0  0  0  0  0
  141.1180   73.1380  221.3010 N   0  0  0  0  0  0  0  0  0  0  0  0
  141.1910   74.0650  220.1920 C   0  0  0  0  0  0  0  0  0  0  0  0
  142.0160   75.2540  220.5160 C   0  0  0  0  0  0  0  0  0  0  0  0
  143.2700   75.2610  220.2900 O   0  0  0  0  0  0  0  0  0  0  0  0
  141.3510   76.3760  221.0840 N   0  0  0  0  0  0  0  0  0  0  0  0
  141.2650   77.7420  220.5680 C   0  0  0  0  0  0  0  0  0  0  0  0
  141.0190   78.6290  221.7430 C   0  0  0  0  0  0  0  0  0  0  0  0
  141.0730   77.7040  222.9350 C   0  0  0  0  0  0  0  0  0  0  0  0
  140.5970   76.4010  222.3250 C   0  0  1  0  0  0  0  0  0  0  0  0
  139.1330   76.4750  221.9400 C   0  0  0  0  0  0  0  0  0  0  0  0
  138.3480   75.6400  222.7300 O   0  0  0  0  0  0  0  0  0  0  0  0
  139.8120   71.8460  222.9690 C   0  0  0  0  0  0  0  0  0  0  0  0
  139.1150   70.6510  222.8440 C   0  0  0  0  0  0  0  0  0  0  0  0
  139.0500   69.7320  223.8750 C   0  0  0  0  0  0  0  0  0  0  0  0
  139.7260   70.0770  225.0470 C   0  0  0  0  0  0  0  0  0  0  0  0
  139.7160   69.2090  226.1440 C   0  0  0  0  0  0  0  0  0  0  0  0
  140.3900   69.5570  227.3060 C   0  0  0  0  0  0  0  0  0  0  0  0
  140.4130   68.5120  228.7080 Cl  0  0  0  0  0  0  0  0  0  0  0  0
  141.0860   70.7640  227.4100 C   0  0  0  0  0  0  0  0  0  0  0  0
  141.0750   71.5970  226.3120 C   0  0  0  0  0  0  0  0  0  0  0  0
  140.4130   71.2620  225.1630 C   0  0  0  0  0  0  0  0  0  0  0  0
  140.4520   72.1260  224.1400 N   0  0  0  0  0  0  0  0  0  0  0  0
  141.9800   72.7020  221.7350 H   0  0  0  0  0  0  0  0  0  0  0  0
  141.6344   73.5500  219.3270 H   0  0  0  0  0  0  0  0  0  0  0  0
  140.1704   74.4097  219.9692 H   0  0  0  0  0  0  0  0  0  0  0  0
  142.2072   78.0205  220.0733 H   0  0  0  0  0  0  0  0  0  0  0  0
  140.4582   77.8349  219.8260 H   0  0  0  0  0  0  0  0  0  0  0  0
  141.7978   79.4024  221.8158 H   0  0  0  0  0  0  0  0  0  0  0  0
  140.0591   79.1613  221.6707 H   0  0  0  0  0  0  0  0  0  0  0  0
  142.0964   77.6139  223.3282 H   0  0  0  0  0  0  0  0  0  0  0  0
  140.4755   78.0428  223.7942 H   0  0  0  0  0  0  0  0  0  0  0  0
  140.7245   75.5445  223.0033 H   0  0  0  0  0  0  0  0  0  0  0  0
  138.7847   77.5113  222.0618 H   0  0  0  0  0  0  0  0  0  0  0  0
  139.0373   76.1461  220.8947 H   0  0  0  0  0  0  0  0  0  0  0  0
  138.8640   74.8090  222.9080 H   0  0  0  0  0  0  0  0  0  0  0  0
  138.6000   70.4294  221.8976 H   0  0  0  0  0  0  0  0  0  0  0  0
  138.4985   68.7853  223.7777 H   0  0  0  0  0  0  0  0  0  0  0  0
  139.1752   68.2529  226.0856 H   0  0  0  0  0  0  0  0  0  0  0  0
  141.6212   71.0384  228.3310 H   0  0  0  0  0  0  0  0  0  0  0  0
  141.6123   72.5556  226.3610 H   0  0  0  0  0  0  0  0  0  0  0  0
  1  2  2  0
  2  3  1  0
  3  4  1  0
  4  5  1  0
  5  6  2  0
  5  7  1  0
  7  8  1  0
  8  9  1  0
  9 10  1  0
 10 11  1  0
 11 12  1  0
 12 13  1  0
  2 14  1  0
 14 15  2  0
 15 16  1  0
 16 17  2  0
 17 18  1  0
 18 19  2  0
 19 20  1  0
 19 21  1  0
 21 22  2  0
 22 23  1  0
 23 24  2  0
 11  7  1  0
 24 14  1  0
 23 17  1  0
  3 25  1  0
  4 26  1  0
  4 27  1  0
  8 28  1  0
  8 29  1  0
  9 30  1  0
  9 31  1  0
 10 32  1  0
 10 33  1  0
 11 34  1  1
 12 35  1  0
 12 36  1  0
 13 37  1  0
 15 38  1  0
 16 39  1  0
 18 40  1  0
 21 41  1  0
 22 42  1  0
M  END
>  <smiles>  (40) 
O=C(NCC(=O)N1CCC[C@H]1CO)c1ccc2cc(Cl)ccc2n1

>  <score_type>  (40) 
oracle

>  <origin>  (40) 
autodockgpu

>  <m_score__min__energy>  (40) 
-7.4800000000000004

>  <m_primary>  (40) 
energy

>  <rmsd>  (40) 
3.0109317814675483

>  <m_score__min__rmsd>  (40) 
3.0109317814675483

>  <meeko>  (40) 
{"free_energy": -6.34, "intermolecular_energy": -8.13, "internal_energy": -1.91, "cluster_size": 16, "cluster_id": 3, "rank_in_cluster": 6}

>  <energy>  (40) 
-5.82

>  <cluster_rmsd>  (40) 
1.4

>  <cluster>  (40) 
3

$$$$

     RDKit          3D

 42 44  0  0  0  0  0  0  0  0999 V2000
  141.3690   71.5230  221.1760 O   0  0  0  0  0  0  0  0  0  0  0  0
  140.8330   72.4550  221.8330 C   0  0  0  0  0  0  0  0  0  0  0  0
  139.9650   72.0780  222.9120 N   0  0  0  0  0  0  0  0  0  0  0  0
  139.7330   70.6810  223.2150 C   0  0  0  0  0  0  0  0  0  0  0  0
  139.0310   70.5030  224.5090 C   0  0  0  0  0  0  0  0  0  0  0  0
  137.7610   70.5810  224.5800 O   0  0  0  0  0  0  0  0  0  0  0  0
  139.8320   70.2430  225.6550 N   0  0  0  0  0  0  0  0  0  0  0  0
  140.6250   69.0530  225.9610 C   0  0  0  0  0  0  0  0  0  0  0  0
  140.7620   69.0000  227.4460 C   0  0  0  0  0  0  0  0  0  0  0  0
  139.9270   70.1540  227.9460 C   0  0  0  0  0  0  0  0  0  0  0  0
  140.0370   71.1260  226.7900 C   0  0  1  0  0  0  0  0  0  0  0  0
  141.4440   71.6740  226.6620 C   0  0  0  0  0  0  0  0  0  0  0  0
  141.6720   72.7230  227.5470 O   0  0  0  0  0  0  0  0  0  0  0  0
  141.0430   73.8560  221.5590 C   0  0  0  0  0  0  0  0  0  0  0  0
  141.9680   74.2400  220.5970 C   0  0  0  0  0  0  0  0  0  0  0  0
  142.2050   75.5690  220.2990 C   0  0  0  0  0  0  0  0  0  0  0  0
  141.4580   76.5010  221.0230 C   0  0  0  0  0  0  0  0  0  0  0  0
  141.6300   77.8700  220.7900 C   0  0  0  0  0  0  0  0  0  0  0  0
  140.8840   78.7910  221.5120 C   0  0  0  0  0  0  0  0  0  0  0  0
  141.0560   80.5140  221.2640 Cl  0  0  0  0  0  0  0  0  0  0  0  0
  139.9580   78.3840  222.4750 C   0  0  0  0  0  0  0  0  0  0  0  0
  139.8140   77.0290  222.6800 C   0  0  0  0  0  0  0  0  0  0  0  0
  140.5440   76.1140  221.9730 C   0  0  0  0  0  0  0  0  0  0  0  0
  140.3450   74.8150  222.2320 N   0  0  0  0  0  0  0  0  0  0  0  0
  139.5150   72.8610  223.4640 H   0  0  0  0  0  0  0  0  0  0  0  0
  139.1198   70.2410  222.4147 H   0  0  0  0  0  0  0  0  0  0  0  0
  140.7106   70.1818  223.2870 H   0  0  0  0  0  0  0  0  0  0  0  0
  140.1123   68.1512  225.5950 H   0  0  0  0  0  0  0  0  0  0  0  0
  141.6102   69.0977  225.4738 H   0  0  0  0  0  0  0  0  0  0  0  0
  140.3799   68.0457  227.8376 H   0  0  0  0  0  0  0  0  0  0  0  0
  141.8103   69.0714  227.7714 H   0  0  0  0  0  0  0  0  0  0  0  0
  138.8838   69.8506  228.1186 H   0  0  0  0  0  0  0  0  0  0  0  0
  140.2590   70.5641  228.9112 H   0  0  0  0  0  0  0  0  0  0  0  0
  139.3501   71.9795  226.8885 H   0  0  0  0  0  0  0  0  0  0  0  0
  142.1611   70.8672  226.8738 H   0  0  0  0  0  0  0  0  0  0  0  0
  141.5704   72.0564  225.6384 H   0  0  0  0  0  0  0  0  0  0  0  0
  140.8480   73.2760  227.5900 H   0  0  0  0  0  0  0  0  0  0  0  0
  142.5288   73.4636  220.0560 H   0  0  0  0  0  0  0  0  0  0  0  0
  142.9378   75.8741  219.5375 H   0  0  0  0  0  0  0  0  0  0  0  0
  142.3540   78.2150  220.0372 H   0  0  0  0  0  0  0  0  0  0  0  0
  139.3677   79.1153  223.0466 H   0  0  0  0  0  0  0  0  0  0  0  0
  139.0934   76.6743  223.4316 H   0  0  0  0  0  0  0  0  0  0  0  0
  1  2  2  0
  2  3  1  0
  3  4  1  0
  4  5  1  0
  5  6  2  0
  5  7  1  0
  7  8  1  0
  8  9  1  0
  9 10  1  0
 10 11  1  0
 11 12  1  0
 12 13  1  0
  2 14  1  0
 14 15  2  0
 15 16  1  0
 16 17  2  0
 17 18  1  0
 18 19  2  0
 19 20  1  0
 19 21  1  0
 21 22  2  0
 22 23  1  0
 23 24  2  0
 11  7  1  0
 24 14  1  0
 23 17  1  0
  3 25  1  0
  4 26  1  0
  4 27  1  0
  8 28  1  0
  8 29  1  0
  9 30  1  0
  9 31  1  0
 10 32  1  0
 10 33  1  0
 11 34  1  1
 12 35  1  0
 12 36  1  0
 13 37  1  0
 15 38  1  0
 16 39  1  0
 18 40  1  0
 21 41  1  0
 22 42  1  0
M  END
>  <smiles>  (41) 
O=C(NCC(=O)N1CCC[C@H]1CO)c1ccc2cc(Cl)ccc2n1

>  <score_type>  (41) 
oracle

>  <origin>  (41) 
autodockgpu

>  <m_score__min__energy>  (41) 
-7.4800000000000004

>  <m_primary>  (41) 
energy

>  <rmsd>  (41) 
8.510291038630683

>  <m_score__min__rmsd>  (41) 
8.510291038630683

>  <meeko>  (41) 
{"free_energy": -6.72, "intermolecular_energy": -8.51, "internal_energy": -1.27, "cluster_size": 16, "cluster_id": 2, "rank_in_cluster": 4}

>  <energy>  (41) 
-5.79

>  <cluster_rmsd>  (41) 
1.44

>  <cluster>  (41) 
3

$$$$

     RDKit          3D

 42 44  0  0  0  0  0  0  0  0999 V2000
  140.4090   72.2950  220.0320 O   0  0  0  0  0  0  0  0  0  0  0  0
  140.7170   72.6310  221.2070 C   0  0  0  0  0  0  0  0  0  0  0  0
  141.4470   73.8570  221.3660 N   0  0  0  0  0  0  0  0  0  0  0  0
  141.8010   74.6560  220.2120 C   0  0  0  0  0  0  0  0  0  0  0  0
  143.2390   74.5320  219.8720 C   0  0  0  0  0  0  0  0  0  0  0  0
  144.0220   75.5330  219.9680 O   0  0  0  0  0  0  0  0  0  0  0  0
  143.7000   73.2580  219.4390 N   0  0  0  0  0  0  0  0  0  0  0  0
  143.6000   72.6570  218.1090 C   0  0  0  0  0  0  0  0  0  0  0  0
  143.6560   71.1780  218.3030 C   0  0  0  0  0  0  0  0  0  0  0  0
  143.6890   70.9920  219.8010 C   0  0  0  0  0  0  0  0  0  0  0  0
  144.3840   72.2620  220.2450 C   0  0  1  0  0  0  0  0  0  0  0  0
  145.8360   72.2780  219.8090 C   0  0  0  0  0  0  0  0  0  0  0  0
  146.1260   73.3850  219.0180 O   0  0  0  0  0  0  0  0  0  0  0  0
  140.3800   71.8580  222.3780 C   0  0  0  0  0  0  0  0  0  0  0  0
  139.5450   70.7540  222.2600 C   0  0  0  0  0  0  0  0  0  0  0  0
  139.1930   69.9830  223.3530 C   0  0  0  0  0  0  0  0  0  0  0  0
  139.7260   70.3820  224.5800 C   0  0  0  0  0  0  0  0  0  0  0  0
  139.4250   69.6630  225.7420 C   0  0  0  0  0  0  0  0  0  0  0  0
  139.9590   70.0630  226.9590 C   0  0  0  0  0  0  0  0  0  0  0  0
  139.6180   69.2030  228.4440 Cl  0  0  0  0  0  0  0  0  0  0  0  0
  140.7970   71.1770  227.0560 C   0  0  0  0  0  0  0  0  0  0  0  0
  141.0720   71.8630  225.8930 C   0  0  0  0  0  0  0  0  0  0  0  0
  140.5510   71.4760  224.6890 C   0  0  0  0  0  0  0  0  0  0  0  0
  140.8680   72.1970  223.6060 N   0  0  0  0  0  0  0  0  0  0  0  0
  141.7040   74.1380  222.3530 H   0  0  0  0  0  0  0  0  0  0  0  0
  141.2023   74.3224  219.3516 H   0  0  0  0  0  0  0  0  0  0  0  0
  141.5978   75.7100  220.4526 H   0  0  0  0  0  0  0  0  0  0  0  0
  142.6493   72.9417  217.6346 H   0  0  0  0  0  0  0  0  0  0  0  0
  144.4150   73.0022  217.4558 H   0  0  0  0  0  0  0  0  0  0  0  0
  142.7667   70.6956  217.8712 H   0  0  0  0  0  0  0  0  0  0  0  0
  144.5268   70.7246  217.8068 H   0  0  0  0  0  0  0  0  0  0  0  0
  142.6744   70.9211  220.2200 H   0  0  0  0  0  0  0  0  0  0  0  0
  144.1885   70.0682  220.1284 H   0  0  0  0  0  0  0  0  0  0  0  0
  144.3573   72.3988  221.3361 H   0  0  0  0  0  0  0  0  0  0  0  0
  146.4760   72.3020  220.7033 H   0  0  0  0  0  0  0  0  0  0  0  0
  146.0237   71.3731  219.2125 H   0  0  0  0  0  0  0  0  0  0  0  0
  145.6070   74.1580  219.3660 H   0  0  0  0  0  0  0  0  0  0  0  0
  139.1523   70.4852  221.2683 H   0  0  0  0  0  0  0  0  0  0  0  0
  138.5327   69.1080  223.2610 H   0  0  0  0  0  0  0  0  0  0  0  0
  138.7669   68.7831  225.6911 H   0  0  0  0  0  0  0  0  0  0  0  0
  141.2197   71.4933  228.0210 H   0  0  0  0  0  0  0  0  0  0  0  0
  141.7279   72.7451  225.9340 H   0  0  0  0  0  0  0  0  0  0  0  0
  1  2  2  0
  2  3  1  0
  3  4  1  0
  4  5  1  0
  5  6  2  0
  5  7  1  0
  7  8  1  0
  8  9  1  0
  9 10  1  0
 10 11  1  0
 11 12  1  0
 12 13  1  0
  2 14  1  0
 14 15  2  0
 15 16  1  0
 16 17  2  0
 17 18  1  0
 18 19  2  0
 19 20  1  0
 19 21  1  0
 21 22  2  0
 22 23  1  0
 23 24  2  0
 11  7  1  0
 24 14  1  0
 23 17  1  0
  3 25  1  0
  4 26  1  0
  4 27  1  0
  8 28  1  0
  8 29  1  0
  9 30  1  0
  9 31  1  0
 10 32  1  0
 10 33  1  0
 11 34  1  1
 12 35  1  0
 12 36  1  0
 13 37  1  0
 15 38  1  0
 16 39  1  0
 18 40  1  0
 21 41  1  0
 22 42  1  0
M  END
>  <smiles>  (42) 
O=C(NCC(=O)N1CCC[C@H]1CO)c1ccc2cc(Cl)ccc2n1

>  <score_type>  (42) 
oracle

>  <origin>  (42) 
autodockgpu

>  <m_score__min__energy>  (42) 
-7.4800000000000004

>  <m_primary>  (42) 
energy

>  <rmsd>  (42) 
4.067322734438296

>  <m_score__min__rmsd>  (42) 
4.067322734438296

>  <meeko>  (42) 
{"free_energy": -5.8, "intermolecular_energy": -7.59, "internal_energy": -2.32, "cluster_size": 12, "cluster_id": 1, "rank_in_cluster": 8}

>  <energy>  (42) 
-5.71

>  <cluster_rmsd>  (42) 
1.63

>  <cluster>  (42) 
3

$$$$

     RDKit          3D

 42 44  0  0  0  0  0  0  0  0999 V2000
  141.0910   71.1740  221.5630 O   0  0  0  0  0  0  0  0  0  0  0  0
  140.8280   72.2850  222.0970 C   0  0  0  0  0  0  0  0  0  0  0  0
  140.1930   72.2570  223.3840 N   0  0  0  0  0  0  0  0  0  0  0  0
  139.8810   70.9960  224.0220 C   0  0  0  0  0  0  0  0  0  0  0  0
  140.2790   70.9830  225.4500 C   0  0  0  0  0  0  0  0  0  0  0  0
  140.5950   72.0610  226.0500 O   0  0  0  0  0  0  0  0  0  0  0  0
  140.2920   69.7240  226.1130 N   0  0  0  0  0  0  0  0  0  0  0  0
  141.3810   68.7510  226.1980 C   0  0  0  0  0  0  0  0  0  0  0  0
  140.7480   67.4210  226.4400 C   0  0  0  0  0  0  0  0  0  0  0  0
  139.2640   67.6900  226.3830 C   0  0  0  0  0  0  0  0  0  0  0  0
  139.2020   69.1260  226.8630 C   0  0  1  0  0  0  0  0  0  0  0  0
  139.5750   69.2360  228.3280 C   0  0  0  0  0  0  0  0  0  0  0  0
  139.7780   70.5580  228.7110 O   0  0  0  0  0  0  0  0  0  0  0  0
  141.1250   73.5600  221.4890 C   0  0  0  0  0  0  0  0  0  0  0  0
  141.8650   73.6080  220.3140 C   0  0  0  0  0  0  0  0  0  0  0  0
  142.1760   74.8050  219.6940 C   0  0  0  0  0  0  0  0  0  0  0  0
  141.7020   75.9590  220.3210 C   0  0  0  0  0  0  0  0  0  0  0  0
  141.9680   77.2170  219.7670 C   0  0  0  0  0  0  0  0  0  0  0  0
  141.4940   78.3610  220.3940 C   0  0  0  0  0  0  0  0  0  0  0  0
  141.7950   79.9590  219.7480 Cl  0  0  0  0  0  0  0  0  0  0  0  0
  140.7520   78.2900  221.5750 C   0  0  0  0  0  0  0  0  0  0  0  0
  140.5090   77.0370  222.0950 C   0  0  0  0  0  0  0  0  0  0  0  0
  140.9720   75.9040  221.4840 C   0  0  0  0  0  0  0  0  0  0  0  0
  140.6920   74.7240  222.0520 N   0  0  0  0  0  0  0  0  0  0  0  0
  139.9730   73.1910  223.8320 H   0  0  0  0  0  0  0  0  0  0  0  0
  138.7970   70.8221  223.9538 H   0  0  0  0  0  0  0  0  0  0  0  0
  140.4440   70.2050  223.5050 H   0  0  0  0  0  0  0  0  0  0  0  0
  141.9496   68.7348  225.2565 H   0  0  0  0  0  0  0  0  0  0  0  0
  142.0812   69.0095  227.0060 H   0  0  0  0  0  0  0  0  0  0  0  0
  141.0428   66.7030  225.6605 H   0  0  0  0  0  0  0  0  0  0  0  0
  141.0557   66.9809  227.4000 H   0  0  0  0  0  0  0  0  0  0  0  0
  138.8762   67.5911  225.3584 H   0  0  0  0  0  0  0  0  0  0  0  0
  138.6570   66.9907  226.9767 H   0  0  0  0  0  0  0  0  0  0  0  0
  138.2044   69.5713  226.7349 H   0  0  0  0  0  0  0  0  0  0  0  0
  138.7628   68.8099  228.9353 H   0  0  0  0  0  0  0  0  0  0  0  0
  140.5150   68.6864  228.4840 H   0  0  0  0  0  0  0  0  0  0  0  0
  140.0510   71.0740  227.9070 H   0  0  0  0  0  0  0  0  0  0  0  0
  142.2137   72.6669  219.8637 H   0  0  0  0  0  0  0  0  0  0  0  0
  142.7612   74.8452  218.7635 H   0  0  0  0  0  0  0  0  0  0  0  0
  142.5509   77.2985  218.8377 H   0  0  0  0  0  0  0  0  0  0  0  0
  140.3766   79.1976  222.0703 H   0  0  0  0  0  0  0  0  0  0  0  0
  139.9282   76.9457  223.0247 H   0  0  0  0  0  0  0  0  0  0  0  0
  1  2  2  0
  2  3  1  0
  3  4  1  0
  4  5  1  0
  5  6  2  0
  5  7  1  0
  7  8  1  0
  8  9  1  0
  9 10  1  0
 10 11  1  0
 11 12  1  0
 12 13  1  0
  2 14  1  0
 14 15  2  0
 15 16  1  0
 16 17  2  0
 17 18  1  0
 18 19  2  0
 19 20  1  0
 19 21  1  0
 21 22  2  0
 22 23  1  0
 23 24  2  0
 11  7  1  0
 24 14  1  0
 23 17  1  0
  3 25  1  0
  4 26  1  0
  4 27  1  0
  8 28  1  0
  8 29  1  0
  9 30  1  0
  9 31  1  0
 10 32  1  0
 10 33  1  0
 11 34  1  1
 12 35  1  0
 12 36  1  0
 13 37  1  0
 15 38  1  0
 16 39  1  0
 18 40  1  0
 21 41  1  0
 22 42  1  0
M  END
>  <smiles>  (43) 
O=C(NCC(=O)N1CCC[C@H]1CO)c1ccc2cc(Cl)ccc2n1

>  <score_type>  (43) 
oracle

>  <origin>  (43) 
autodockgpu

>  <m_score__min__energy>  (43) 
-7.4800000000000004

>  <m_primary>  (43) 
energy

>  <rmsd>  (43) 
8.83147395390473

>  <m_score__min__rmsd>  (43) 
8.83147395390473

>  <meeko>  (43) 
{"free_energy": -6.14, "intermolecular_energy": -7.93, "internal_energy": -2.14, "cluster_size": 16, "cluster_id": 2, "rank_in_cluster": 12}

>  <energy>  (43) 
-5.67

>  <cluster_rmsd>  (43) 
1.57

>  <cluster>  (43) 
3

$$$$

     RDKit          3D

 42 44  0  0  0  0  0  0  0  0999 V2000
  139.7780   70.0960  222.4100 O   0  0  0  0  0  0  0  0  0  0  0  0
  139.4220   71.2740  222.6800 C   0  0  0  0  0  0  0  0  0  0  0  0
  138.3420   71.4320  223.6120 N   0  0  0  0  0  0  0  0  0  0  0  0
  137.7070   70.2730  224.2040 C   0  0  0  0  0  0  0  0  0  0  0  0
  138.7000   69.2870  224.6960 C   0  0  0  0  0  0  0  0  0  0  0  0
  138.8110   68.1420  224.1480 O   0  0  0  0  0  0  0  0  0  0  0  0
  139.5140   69.6740  225.7960 N   0  0  0  0  0  0  0  0  0  0  0  0
  139.2420   69.5250  227.2270 C   0  0  0  0  0  0  0  0  0  0  0  0
  140.0430   70.5740  227.9250 C   0  0  0  0  0  0  0  0  0  0  0  0
  140.6860   71.3660  226.8120 C   0  0  0  0  0  0  0  0  0  0  0  0
  140.8160   70.3120  225.7310 C   0  0  1  0  0  0  0  0  0  0  0  0
  141.8340   69.2550  226.1120 C   0  0  0  0  0  0  0  0  0  0  0  0
  141.2880   67.9760  226.0740 O   0  0  0  0  0  0  0  0  0  0  0  0
  140.0330   72.4500  222.1090 C   0  0  0  0  0  0  0  0  0  0  0  0
  141.1670   72.3230  221.3170 C   0  0  0  0  0  0  0  0  0  0  0  0
  141.7890   73.4200  220.7480 C   0  0  0  0  0  0  0  0  0  0  0  0
  141.2090   74.6600  221.0190 C   0  0  0  0  0  0  0  0  0  0  0  0
  141.7680   75.8270  220.4870 C   0  0  0  0  0  0  0  0  0  0  0  0
  141.1870   77.0570  220.7580 C   0  0  0  0  0  0  0  0  0  0  0  0
  141.8420   78.5490  220.1210 Cl  0  0  0  0  0  0  0  0  0  0  0  0
  140.0460   77.1630  221.5580 C   0  0  0  0  0  0  0  0  0  0  0  0
  139.5210   75.9950  222.0670 C   0  0  0  0  0  0  0  0  0  0  0  0
  140.0870   74.7780  221.8040 C   0  0  0  0  0  0  0  0  0  0  0  0
  139.5150   73.6900  222.3370 N   0  0  0  0  0  0  0  0  0  0  0  0
  138.0440   72.4220  223.8400 H   0  0  0  0  0  0  0  0  0  0  0  0
  137.0842   70.6019  225.0489 H   0  0  0  0  0  0  0  0  0  0  0  0
  137.0988   69.7850  223.4282 H   0  0  0  0  0  0  0  0  0  0  0  0
  138.1701   69.6704  227.4267 H   0  0  0  0  0  0  0  0  0  0  0  0
  139.5129   68.5189  227.5796 H   0  0  0  0  0  0  0  0  0  0  0  0
  139.3921   71.2184  228.5342 H   0  0  0  0  0  0  0  0  0  0  0  0
  140.7853   70.1430  228.6129 H   0  0  0  0  0  0  0  0  0  0  0  0
  140.0439   72.1981  226.4874 H   0  0  0  0  0  0  0  0  0  0  0  0
  141.6369   71.8433  227.0912 H   0  0  0  0  0  0  0  0  0  0  0  0
  141.1152   70.7359  224.7611 H   0  0  0  0  0  0  0  0  0  0  0  0
  142.6780   69.3031  225.4082 H   0  0  0  0  0  0  0  0  0  0  0  0
  142.1664   69.4550  227.1413 H   0  0  0  0  0  0  0  0  0  0  0  0
  140.6310   67.9420  225.3290 H   0  0  0  0  0  0  0  0  0  0  0  0
  141.5828   71.3207  221.1369 H   0  0  0  0  0  0  0  0  0  0  0  0
  142.6866   73.3208  220.1199 H   0  0  0  0  0  0  0  0  0  0  0  0
  142.6665   75.7692  219.8551 H   0  0  0  0  0  0  0  0  0  0  0  0
  139.5859   78.1388  221.7726 H   0  0  0  0  0  0  0  0  0  0  0  0
  138.6235   76.0427  222.7012 H   0  0  0  0  0  0  0  0  0  0  0  0
  1  2  2  0
  2  3  1  0
  3  4  1  0
  4  5  1  0
  5  6  2  0
  5  7  1  0
  7  8  1  0
  8  9  1  0
  9 10  1  0
 10 11  1  0
 11 12  1  0
 12 13  1  0
  2 14  1  0
 14 15  2  0
 15 16  1  0
 16 17  2  0
 17 18  1  0
 18 19  2  0
 19 20  1  0
 19 21  1  0
 21 22  2  0
 22 23  1  0
 23 24  2  0
 11  7  1  0
 24 14  1  0
 23 17  1  0
  3 25  1  0
  4 26  1  0
  4 27  1  0
  8 28  1  0
  8 29  1  0
  9 30  1  0
  9 31  1  0
 10 32  1  0
 10 33  1  0
 11 34  1  6
 12 35  1  0
 12 36  1  0
 13 37  1  0
 15 38  1  0
 16 39  1  0
 18 40  1  0
 21 41  1  0
 22 42  1  0
M  END
>  <smiles>  (44) 
O=C(NCC(=O)N1CCC[C@H]1CO)c1ccc2cc(Cl)ccc2n1

>  <score_type>  (44) 
oracle

>  <origin>  (44) 
autodockgpu

>  <m_score__min__energy>  (44) 
-7.4800000000000004

>  <m_primary>  (44) 
energy

>  <rmsd>  (44) 
7.924291403298148

>  <m_score__min__rmsd>  (44) 
7.924291403298148

>  <meeko>  (44) 
{"free_energy": -5.97, "intermolecular_energy": -7.76, "internal_energy": -2.09, "cluster_size": 16, "cluster_id": 2, "rank_in_cluster": 13}

>  <energy>  (44) 
-5.51

>  <cluster_rmsd>  (44) 
1.53

>  <cluster>  (44) 
3

$$$$

     RDKit          3D

 42 44  0  0  0  0  0  0  0  0999 V2000
  139.7080   74.0270  222.3290 O   0  0  0  0  0  0  0  0  0  0  0  0
  140.1330   72.8500  222.1830 C   0  0  0  0  0  0  0  0  0  0  0  0
  140.6760   72.5060  220.8990 N   0  0  0  0  0  0  0  0  0  0  0  0
  140.7240   73.4870  219.8360 C   0  0  0  0  0  0  0  0  0  0  0  0
  141.9010   74.3810  219.9580 C   0  0  0  0  0  0  0  0  0  0  0  0
  141.7660   75.6480  219.9260 O   0  0  0  0  0  0  0  0  0  0  0  0
  143.1740   73.7660  220.1130 N   0  0  0  0  0  0  0  0  0  0  0  0
  143.5100   72.5350  220.8280 C   0  0  0  0  0  0  0  0  0  0  0  0
  144.9490   72.6410  221.2100 C   0  0  0  0  0  0  0  0  0  0  0  0
  145.3600   74.0230  220.7610 C   0  0  0  0  0  0  0  0  0  0  0  0
  144.4380   74.2400  219.5790 C   0  0  1  0  0  0  0  0  0  0  0  0
  144.7920   73.3210  218.4260 C   0  0  0  0  0  0  0  0  0  0  0  0
  146.1700   73.1950  218.2710 O   0  0  0  0  0  0  0  0  0  0  0  0
  140.1000   71.8480  223.2210 C   0  0  0  0  0  0  0  0  0  0  0  0
  139.5590   70.5970  222.9560 C   0  0  0  0  0  0  0  0  0  0  0  0
  139.5040   69.6050  223.9180 C   0  0  0  0  0  0  0  0  0  0  0  0
  140.0250   69.9380  225.1700 C   0  0  0  0  0  0  0  0  0  0  0  0
  140.0120   68.9980  226.2070 C   0  0  0  0  0  0  0  0  0  0  0  0
  140.5330   69.3330  227.4490 C   0  0  0  0  0  0  0  0  0  0  0  0
  140.5450   68.2000  228.7820 Cl  0  0  0  0  0  0  0  0  0  0  0  0
  141.0730   70.5980  227.6950 C   0  0  0  0  0  0  0  0  0  0  0  0
  141.0690   71.5000  226.6530 C   0  0  0  0  0  0  0  0  0  0  0  0
  140.5590   71.1780  225.4250 C   0  0  0  0  0  0  0  0  0  0  0  0
  140.5930   72.1120  224.4650 N   0  0  0  0  0  0  0  0  0  0  0  0
  141.0330   71.5170  220.7770 H   0  0  0  0  0  0  0  0  0  0  0  0
  140.7751   72.9623  218.8705 H   0  0  0  0  0  0  0  0  0  0  0  0
  139.8179   74.1069  219.9044 H   0  0  0  0  0  0  0  0  0  0  0  0
  142.8850   72.4364  221.7278 H   0  0  0  0  0  0  0  0  0  0  0  0
  143.3313   71.6504  220.1991 H   0  0  0  0  0  0  0  0  0  0  0  0
  145.0712   72.5335  222.2979 H   0  0  0  0  0  0  0  0  0  0  0  0
  145.5626   71.8525  220.7497 H   0  0  0  0  0  0  0  0  0  0  0  0
  145.1863   74.7703  221.5492 H   0  0  0  0  0  0  0  0  0  0  0  0
  146.4292   74.1182  220.5206 H   0  0  0  0  0  0  0  0  0  0  0  0
  144.4654   75.2745  219.2061 H   0  0  0  0  0  0  0  0  0  0  0  0
  144.3627   72.3266  218.6182 H   0  0  0  0  0  0  0  0  0  0  0  0
  144.3819   73.7563  217.5028 H   0  0  0  0  0  0  0  0  0  0  0  0
  146.5790   74.0900  218.4070 H   0  0  0  0  0  0  0  0  0  0  0  0
  139.1625   70.3888  221.9513 H   0  0  0  0  0  0  0  0  0  0  0  0
  139.0757   68.6135  223.7095 H   0  0  0  0  0  0  0  0  0  0  0  0
  139.5899   67.9963  226.0380 H   0  0  0  0  0  0  0  0  0  0  0  0
  141.4845   70.8631  228.6801 H   0  0  0  0  0  0  0  0  0  0  0  0
  141.4867   72.5050  226.8128 H   0  0  0  0  0  0  0  0  0  0  0  0
  1  2  2  0
  2  3  1  0
  3  4  1  0
  4  5  1  0
  5  6  2  0
  5  7  1  0
  7  8  1  0
  8  9  1  0
  9 10  1  0
 10 11  1  0
 11 12  1  0
 12 13  1  0
  2 14  1  0
 14 15  2  0
 15 16  1  0
 16 17  2  0
 17 18  1  0
 18 19  2  0
 19 20  1  0
 19 21  1  0
 21 22  2  0
 22 23  1  0
 23 24  2  0
 11  7  1  0
 24 14  1  0
 23 17  1  0
  3 25  1  0
  4 26  1  0
  4 27  1  0
  8 28  1  0
  8 29  1  0
  9 30  1  0
  9 31  1  0
 10 32  1  0
 10 33  1  0
 11 34  1  6
 12 35  1  0
 12 36  1  0
 13 37  1  0
 15 38  1  0
 16 39  1  0
 18 40  1  0
 21 41  1  0
 22 42  1  0
M  END
>  <smiles>  (45) 
O=C(NCC(=O)N1CCC[C@H]1CO)c1ccc2cc(Cl)ccc2n1

>  <score_type>  (45) 
oracle

>  <origin>  (45) 
autodockgpu

>  <m_score__min__energy>  (45) 
-7.4800000000000004

>  <m_primary>  (45) 
energy

>  <rmsd>  (45) 
3.732802835820365

>  <m_score__min__rmsd>  (45) 
3.732802835820365

>  <meeko>  (45) 
{"free_energy": -7.48, "intermolecular_energy": -9.27, "internal_energy": -1.0, "cluster_size": 12, "cluster_id": 1, "rank_in_cluster": 1}

>  <energy>  (45) 
-6.46

>  <cluster_rmsd>  (45) 
0.0

>  <cluster>  (45) 
4

$$$$

     RDKit          3D

 42 44  0  0  0  0  0  0  0  0999 V2000
  137.4730   71.2220  221.0800 O   0  0  0  0  0  0  0  0  0  0  0  0
  138.0150   71.6670  222.1270 C   0  0  0  0  0  0  0  0  0  0  0  0
  138.1960   73.0880  222.2150 N   0  0  0  0  0  0  0  0  0  0  0  0
  137.7650   73.9520  221.1360 C   0  0  0  0  0  0  0  0  0  0  0  0
  137.9140   75.3860  221.4810 C   0  0  0  0  0  0  0  0  0  0  0  0
  136.8980   76.0970  221.7740 O   0  0  0  0  0  0  0  0  0  0  0  0
  139.2300   75.9270  221.4710 N   0  0  0  0  0  0  0  0  0  0  0  0
  139.7900   76.9760  222.3230 C   0  0  0  0  0  0  0  0  0  0  0  0
  140.9220   77.5840  221.5640 C   0  0  0  0  0  0  0  0  0  0  0  0
  140.8950   76.8930  220.2220 C   0  0  0  0  0  0  0  0  0  0  0  0
  140.3210   75.5410  220.5930 C   0  0  1  0  0  0  0  0  0  0  0  0
  141.2930   74.7420  221.4380 C   0  0  0  0  0  0  0  0  0  0  0  0
  140.6320   73.9170  222.3440 O   0  0  0  0  0  0  0  0  0  0  0  0
  138.4550   70.8350  223.2210 C   0  0  0  0  0  0  0  0  0  0  0  0
  138.1200   69.4870  223.2420 C   0  0  0  0  0  0  0  0  0  0  0  0
  138.5170   68.6500  224.2680 C   0  0  0  0  0  0  0  0  0  0  0  0
  139.2750   69.2410  225.2800 C   0  0  0  0  0  0  0  0  0  0  0  0
  139.7230   68.4720  226.3600 C   0  0  0  0  0  0  0  0  0  0  0  0
  140.4770   69.0640  227.3630 C   0  0  0  0  0  0  0  0  0  0  0  0
  141.0640   68.1530  228.7370 Cl  0  0  0  0  0  0  0  0  0  0  0  0
  140.8040   70.4220  227.3240 C   0  0  0  0  0  0  0  0  0  0  0  0
  140.3470   71.1500  226.2470 C   0  0  0  0  0  0  0  0  0  0  0  0
  139.6040   70.5750  225.2540 C   0  0  0  0  0  0  0  0  0  0  0  0
  139.1980   71.3520  224.2410 N   0  0  0  0  0  0  0  0  0  0  0  0
  138.6510   73.4610  223.0960 H   0  0  0  0  0  0  0  0  0  0  0  0
  138.3716   73.7362  220.2441 H   0  0  0  0  0  0  0  0  0  0  0  0
  136.6990   73.7562  220.9484 H   0  0  0  0  0  0  0  0  0  0  0  0
  139.0260   77.7373  222.5393 H   0  0  0  0  0  0  0  0  0  0  0  0
  140.1326   76.5651  223.2841 H   0  0  0  0  0  0  0  0  0  0  0  0
  140.7730   78.6675  221.4460 H   0  0  0  0  0  0  0  0  0  0  0  0
  141.8856   77.4574  222.0792 H   0  0  0  0  0  0  0  0  0  0  0  0
  140.2465   77.4235  219.5093 H   0  0  0  0  0  0  0  0  0  0  0  0
  141.8735   76.8440  219.7218 H   0  0  0  0  0  0  0  0  0  0  0  0
  140.0625   74.9349  219.7122 H   0  0  0  0  0  0  0  0  0  0  0  0
  141.9125   74.1195  220.7757 H   0  0  0  0  0  0  0  0  0  0  0  0
  141.9127   75.4496  222.0084 H   0  0  0  0  0  0  0  0  0  0  0  0
  139.7670   74.3460  222.5780 H   0  0  0  0  0  0  0  0  0  0  0  0
  137.5208   69.0732  222.4175 H   0  0  0  0  0  0  0  0  0  0  0  0
  138.2515   67.5827  224.2858 H   0  0  0  0  0  0  0  0  0  0  0  0
  139.4780   67.4010  226.4136 H   0  0  0  0  0  0  0  0  0  0  0  0
  141.4014   70.8904  228.1200 H   0  0  0  0  0  0  0  0  0  0  0  0
  140.5863   72.2218  226.1847 H   0  0  0  0  0  0  0  0  0  0  0  0
  1  2  2  0
  2  3  1  0
  3  4  1  0
  4  5  1  0
  5  6  2  0
  5  7  1  0
  7  8  1  0
  8  9  1  0
  9 10  1  0
 10 11  1  0
 11 12  1  0
 12 13  1  0
  2 14  1  0
 14 15  2  0
 15 16  1  0
 16 17  2  0
 17 18  1  0
 18 19  2  0
 19 20  1  0
 19 21  1  0
 21 22  2  0
 22 23  1  0
 23 24  2  0
 11  7  1  0
 24 14  1  0
 23 17  1  0
  3 25  1  0
  4 26  1  0
  4 27  1  0
  8 28  1  0
  8 29  1  0
  9 30  1  0
  9 31  1  0
 10 32  1  0
 10 33  1  0
 11 34  1  6
 12 35  1  0
 12 36  1  0
 13 37  1  0
 15 38  1  0
 16 39  1  0
 18 40  1  0
 21 41  1  0
 22 42  1  0
M  END
>  <smiles>  (46) 
O=C(NCC(=O)N1CCC[C@H]1CO)c1ccc2cc(Cl)ccc2n1

>  <score_type>  (46) 
oracle

>  <origin>  (46) 
autodockgpu

>  <m_score__min__energy>  (46) 
-7.4800000000000004

>  <m_primary>  (46) 
energy

>  <rmsd>  (46) 
2.2488799627948115

>  <m_score__min__rmsd>  (46) 
2.2488799627948115

>  <meeko>  (46) 
{"free_energy": -6.29, "intermolecular_energy": -8.08, "internal_energy": -1.97, "cluster_size": 16, "cluster_id": 3, "rank_in_cluster": 9}

>  <energy>  (46) 
-5.96

>  <cluster_rmsd>  (46) 
0.0

>  <cluster>  (46) 
5

$$$$

     RDKit          3D

 42 44  0  0  0  0  0  0  0  0999 V2000
  137.4010   70.9320  220.9690 O   0  0  0  0  0  0  0  0  0  0  0  0
  137.7530   71.4480  222.0630 C   0  0  0  0  0  0  0  0  0  0  0  0
  137.6130   72.8710  222.1890 N   0  0  0  0  0  0  0  0  0  0  0  0
  137.0860   73.6570  221.0940 C   0  0  0  0  0  0  0  0  0  0  0  0
  138.0910   73.8580  220.0220 C   0  0  0  0  0  0  0  0  0  0  0  0
  137.8030   73.6230  218.8030 O   0  0  0  0  0  0  0  0  0  0  0  0
  139.3770   74.3230  220.4130 N   0  0  0  0  0  0  0  0  0  0  0  0
  139.7580   75.6500  220.8980 C   0  0  0  0  0  0  0  0  0  0  0  0
  141.2100   75.8160  220.5930 C   0  0  0  0  0  0  0  0  0  0  0  0
  141.5840   74.5670  219.8330 C   0  0  0  0  0  0  0  0  0  0  0  0
  140.6130   73.5600  220.4140 C   0  0  1  0  0  0  0  0  0  0  0  0
  140.9320   73.2590  221.8650 C   0  0  0  0  0  0  0  0  0  0  0  0
  139.9420   73.7330  222.7210 O   0  0  0  0  0  0  0  0  0  0  0  0
  138.2820   70.6940  223.1740 C   0  0  0  0  0  0  0  0  0  0  0  0
  138.0380   69.3290  223.2610 C   0  0  0  0  0  0  0  0  0  0  0  0
  138.5230   68.5640  224.3060 C   0  0  0  0  0  0  0  0  0  0  0  0
  139.2700   69.2470  225.2670 C   0  0  0  0  0  0  0  0  0  0  0  0
  139.8020   68.5560  226.3620 C   0  0  0  0  0  0  0  0  0  0  0  0
  140.5450   69.2380  227.3150 C   0  0  0  0  0  0  0  0  0  0  0  0
  141.2340   68.4280  228.7040 Cl  0  0  0  0  0  0  0  0  0  0  0  0
  140.7790   70.6120  227.2090 C   0  0  0  0  0  0  0  0  0  0  0  0
  140.2410   71.2620  226.1200 C   0  0  0  0  0  0  0  0  0  0  0  0
  139.5070   70.5970  225.1760 C   0  0  0  0  0  0  0  0  0  0  0  0
  139.0200   71.3020  224.1470 N   0  0  0  0  0  0  0  0  0  0  0  0
  137.9090   73.3030  223.1090 H   0  0  0  0  0  0  0  0  0  0  0  0
  136.2140   73.1370  220.6707 H   0  0  0  0  0  0  0  0  0  0  0  0
  136.8064   74.6452  221.4881 H   0  0  0  0  0  0  0  0  0  0  0  0
  139.1712   76.4250  220.3832 H   0  0  0  0  0  0  0  0  0  0  0  0
  139.5659   75.7479  221.9767 H   0  0  0  0  0  0  0  0  0  0  0  0
  141.3774   76.7110  219.9758 H   0  0  0  0  0  0  0  0  0  0  0  0
  141.8150   75.9483  221.5021 H   0  0  0  0  0  0  0  0  0  0  0  0
  141.4321   74.6941  218.7510 H   0  0  0  0  0  0  0  0  0  0  0  0
  142.6414   74.2804  219.9323 H   0  0  0  0  0  0  0  0  0  0  0  0
  140.6125   72.6076  219.8636 H   0  0  0  0  0  0  0  0  0  0  0  0
  141.0206   72.1699  221.9916 H   0  0  0  0  0  0  0  0  0  0  0  0
  141.8751   73.7647  222.1198 H   0  0  0  0  0  0  0  0  0  0  0  0
  139.5750   72.9600  223.2270 H   0  0  0  0  0  0  0  0  0  0  0  0
  137.4413   68.8424  222.4754 H   0  0  0  0  0  0  0  0  0  0  0  0
  138.3317   67.4830  224.3756 H   0  0  0  0  0  0  0  0  0  0  0  0
  139.6314   67.4744  226.4668 H   0  0  0  0  0  0  0  0  0  0  0  0
  141.3687   71.1522  227.9643 H   0  0  0  0  0  0  0  0  0  0  0  0
  140.4058   72.3436  226.0064 H   0  0  0  0  0  0  0  0  0  0  0  0
  1  2  2  0
  2  3  1  0
  3  4  1  0
  4  5  1  0
  5  6  2  0
  5  7  1  0
  7  8  1  0
  8  9  1  0
  9 10  1  0
 10 11  1  0
 11 12  1  0
 12 13  1  0
  2 14  1  0
 14 15  2  0
 15 16  1  0
 16 17  2  0
 17 18  1  0
 18 19  2  0
 19 20  1  0
 19 21  1  0
 21 22  2  0
 22 23  1  0
 23 24  2  0
 11  7  1  0
 24 14  1  0
 23 17  1  0
  3 25  1  0
  4 26  1  0
  4 27  1  0
  8 28  1  0
  8 29  1  0
  9 30  1  0
  9 31  1  0
 10 32  1  0
 10 33  1  0
 11 34  1  6
 12 35  1  0
 12 36  1  0
 13 37  1  0
 15 38  1  0
 16 39  1  0
 18 40  1  0
 21 41  1  0
 22 42  1  0
M  END
>  <smiles>  (47) 
O=C(NCC(=O)N1CCC[C@H]1CO)c1ccc2cc(Cl)ccc2n1

>  <score_type>  (47) 
oracle

>  <origin>  (47) 
autodockgpu

>  <m_score__min__energy>  (47) 
-7.4800000000000004

>  <m_primary>  (47) 
energy

>  <rmsd>  (47) 
2.2130890887200274

>  <m_score__min__rmsd>  (47) 
2.2130890887200274

>  <meeko>  (47) 
{"free_energy": -5.67, "intermolecular_energy": -7.46, "internal_energy": -2.76, "cluster_size": 16, "cluster_id": 3, "rank_in_cluster": 15}

>  <energy>  (47) 
-5.46

>  <cluster_rmsd>  (47) 
0.0

>  <cluster>  (47) 
6

$$$$

     RDKit          3D

 42 44  0  0  0  0  0  0  0  0999 V2000
  139.8740   70.0460  222.1420 O   0  0  0  0  0  0  0  0  0  0  0  0
  139.5460   71.1850  222.5700 C   0  0  0  0  0  0  0  0  0  0  0  0
  138.5220   71.2340  223.5750 N   0  0  0  0  0  0  0  0  0  0  0  0
  137.9110   70.0150  224.0610 C   0  0  0  0  0  0  0  0  0  0  0  0
  138.8900   69.1400  224.7490 C   0  0  0  0  0  0  0  0  0  0  0  0
  138.8230   67.8720  224.6410 O   0  0  0  0  0  0  0  0  0  0  0  0
  139.8980   69.7740  225.5280 N   0  0  0  0  0  0  0  0  0  0  0  0
  139.8910   71.1180  226.1070 C   0  0  0  0  0  0  0  0  0  0  0  0
  141.3190   71.5160  226.2800 C   0  0  0  0  0  0  0  0  0  0  0  0
  142.1070   70.3760  225.6800 C   0  0  0  0  0  0  0  0  0  0  0  0
  141.1740   69.2070  225.9240 C   0  0  1  0  0  0  0  0  0  0  0  0
  141.0650   68.8870  227.4020 C   0  0  0  0  0  0  0  0  0  0  0  0
  139.9470   68.1060  227.6790 O   0  0  0  0  0  0  0  0  0  0  0  0
  140.1350   72.4180  222.1070 C   0  0  0  0  0  0  0  0  0  0  0  0
  141.3000   72.3860  221.3530 C   0  0  0  0  0  0  0  0  0  0  0  0
  141.9030   73.5410  220.8880 C   0  0  0  0  0  0  0  0  0  0  0  0
  141.2680   74.7390  221.2220 C   0  0  0  0  0  0  0  0  0  0  0  0
  141.8050   75.9590  220.7960 C   0  0  0  0  0  0  0  0  0  0  0  0
  141.1700   77.1470  221.1300 C   0  0  0  0  0  0  0  0  0  0  0  0
  141.7930   78.7010  220.6250 Cl  0  0  0  0  0  0  0  0  0  0  0  0
  139.9970   77.1570  221.8900 C   0  0  0  0  0  0  0  0  0  0  0  0
  139.4960   75.9390  222.2940 C   0  0  0  0  0  0  0  0  0  0  0  0
  140.1150   74.7630  221.9690 C   0  0  0  0  0  0  0  0  0  0  0  0
  139.5630   73.6210  222.4010 N   0  0  0  0  0  0  0  0  0  0  0  0
  138.2470   72.1910  223.9340 H   0  0  0  0  0  0  0  0  0  0  0  0
  137.1099   70.2765  224.7680 H   0  0  0  0  0  0  0  0  0  0  0  0
  137.5132   69.4653  223.1952 H   0  0  0  0  0  0  0  0  0  0  0  0
  139.3808   71.8198  225.4308 H   0  0  0  0  0  0  0  0  0  0  0  0
  139.3562   71.1328  227.0681 H   0  0  0  0  0  0  0  0  0  0  0  0
  141.5277   72.4553  225.7470 H   0  0  0  0  0  0  0  0  0  0  0  0
  141.5781   71.6931  227.3343 H   0  0  0  0  0  0  0  0  0  0  0  0
  142.2849   70.5314  224.6057 H   0  0  0  0  0  0  0  0  0  0  0  0
  143.1111   70.2476  226.1105 H   0  0  0  0  0  0  0  0  0  0  0  0
  141.4964   68.2929  225.4040 H   0  0  0  0  0  0  0  0  0  0  0  0
  141.9673   68.3418  227.7161 H   0  0  0  0  0  0  0  0  0  0  0  0
  140.9655   69.8348  227.9514 H   0  0  0  0  0  0  0  0  0  0  0  0
  139.5080   67.8780  226.8180 H   0  0  0  0  0  0  0  0  0  0  0  0
  141.7573   71.4135  221.1183 H   0  0  0  0  0  0  0  0  0  0  0  0
  142.8268   73.5171  220.2913 H   0  0  0  0  0  0  0  0  0  0  0  0
  142.7280   75.9764  220.1979 H   0  0  0  0  0  0  0  0  0  0  0  0
  139.4944   78.0990  222.1547 H   0  0  0  0  0  0  0  0  0  0  0  0
  138.5742   75.9112  222.8936 H   0  0  0  0  0  0  0  0  0  0  0  0
  1  2  2  0
  2  3  1  0
  3  4  1  0
  4  5  1  0
  5  6  2  0
  5  7  1  0
  7  8  1  0
  8  9  1  0
  9 10  1  0
 10 11  1  0
 11 12  1  0
 12 13  1  0
  2 14  1  0
 14 15  2  0
 15 16  1  0
 16 17  2  0
 17 18  1  0
 18 19  2  0
 19 20  1  0
 19 21  1  0
 21 22  2  0
 22 23  1  0
 23 24  2  0
 11  7  1  0
 24 14  1  0
 23 17  1  0
  3 25  1  0
  4 26  1  0
  4 27  1  0
  8 28  1  0
  8 29  1  0
  9 30  1  0
  9 31  1  0
 10 32  1  0
 10 33  1  0
 11 34  1  6
 12 35  1  0
 12 36  1  0
 13 37  1  0
 15 38  1  0
 16 39  1  0
 18 40  1  0
 21 41  1  0
 22 42  1  0
M  END
>  <smiles>  (48) 
O=C(NCC(=O)N1CCC[C@H]1CO)c1ccc2cc(Cl)ccc2n1

>  <score_type>  (48) 
oracle

>  <origin>  (48) 
autodockgpu

>  <m_score__min__energy>  (48) 
-7.4800000000000004

>  <m_primary>  (48) 
energy

>  <rmsd>  (48) 
7.642869126647032

>  <m_score__min__rmsd>  (48) 
7.642869126647032

>  <meeko>  (48) 
{"free_energy": -5.88, "intermolecular_energy": -7.67, "internal_energy": -2.26, "cluster_size": 16, "cluster_id": 2, "rank_in_cluster": 14}

>  <energy>  (48) 
-5.35

>  <cluster_rmsd>  (48) 
0.0

>  <cluster>  (48) 
7

$$$$

     RDKit          3D

 42 44  0  0  0  0  0  0  0  0999 V2000
  140.7360   73.6970  220.5850 O   0  0  0  0  0  0  0  0  0  0  0  0
  140.1510   73.6400  221.7000 C   0  0  0  0  0  0  0  0  0  0  0  0
  139.6930   74.8780  222.2610 N   0  0  0  0  0  0  0  0  0  0  0  0
  139.9030   76.1260  221.5580 C   0  0  0  0  0  0  0  0  0  0  0  0
  139.4750   77.2950  222.3630 C   0  0  0  0  0  0  0  0  0  0  0  0
  138.4130   77.2530  223.0650 O   0  0  0  0  0  0  0  0  0  0  0  0
  140.2970   78.4560  222.3160 N   0  0  0  0  0  0  0  0  0  0  0  0
  140.8190   79.1550  221.1420 C   0  0  0  0  0  0  0  0  0  0  0  0
  142.0480   79.8770  221.5850 C   0  0  0  0  0  0  0  0  0  0  0  0
  142.2330   79.4630  223.0250 C   0  0  0  0  0  0  0  0  0  0  0  0
  140.8010   79.2090  223.4500 C   0  0  1  0  0  0  0  0  0  0  0  0
  140.0050   80.4980  223.5020 C   0  0  0  0  0  0  0  0  0  0  0  0
  138.6600   80.2620  223.7710 O   0  0  0  0  0  0  0  0  0  0  0  0
  139.9250   72.4140  222.4270 C   0  0  0  0  0  0  0  0  0  0  0  0
  139.2440   71.3660  221.8200 C   0  0  0  0  0  0  0  0  0  0  0  0
  139.0030   70.1730  222.4760 C   0  0  0  0  0  0  0  0  0  0  0  0
  139.4830   70.0860  223.7830 C   0  0  0  0  0  0  0  0  0  0  0  0
  139.2860   68.9170  224.5260 C   0  0  0  0  0  0  0  0  0  0  0  0
  139.7670   68.8350  225.8260 C   0  0  0  0  0  0  0  0  0  0  0  0
  139.5500   67.3990  226.8020 Cl  0  0  0  0  0  0  0  0  0  0  0  0
  140.4490   69.9000  226.4180 C   0  0  0  0  0  0  0  0  0  0  0  0
  140.6250   71.0370  225.6600 C   0  0  0  0  0  0  0  0  0  0  0  0
  140.1550   71.1260  224.3780 C   0  0  0  0  0  0  0  0  0  0  0  0
  140.3690   72.2660  223.7080 N   0  0  0  0  0  0  0  0  0  0  0  0
  139.2010   74.8290  223.1970 H   0  0  0  0  0  0  0  0  0  0  0  0
  140.9735   76.2272  221.3259 H   0  0  0  0  0  0  0  0  0  0  0  0
  139.2974   76.1052  220.6400 H   0  0  0  0  0  0  0  0  0  0  0  0
  141.0679   78.4330  220.3503 H   0  0  0  0  0  0  0  0  0  0  0  0
  140.0744   79.8542  220.7339 H   0  0  0  0  0  0  0  0  0  0  0  0
  142.9154   79.5754  220.9795 H   0  0  0  0  0  0  0  0  0  0  0  0
  141.9554   80.9673  221.4725 H   0  0  0  0  0  0  0  0  0  0  0  0
  142.8443   78.5521  223.1063 H   0  0  0  0  0  0  0  0  0  0  0  0
  142.7600   80.2057  223.6420 H   0  0  0  0  0  0  0  0  0  0  0  0
  140.7311   78.7292  224.4374 H   0  0  0  0  0  0  0  0  0  0  0  0
  140.4191   81.1411  224.2925 H   0  0  0  0  0  0  0  0  0  0  0  0
  140.0776   80.9857  222.5187 H   0  0  0  0  0  0  0  0  0  0  0  0
  138.4800   79.2960  223.6250 H   0  0  0  0  0  0  0  0  0  0  0  0
  138.8861   71.4891  220.7872 H   0  0  0  0  0  0  0  0  0  0  0  0
  138.4650   69.3422  221.9961 H   0  0  0  0  0  0  0  0  0  0  0  0
  138.7513   68.0648  224.0813 H   0  0  0  0  0  0  0  0  0  0  0  0
  140.8303   69.8339  227.4477 H   0  0  0  0  0  0  0  0  0  0  0  0
  141.1569   71.8952  226.0966 H   0  0  0  0  0  0  0  0  0  0  0  0
  1  2  2  0
  2  3  1  0
  3  4  1  0
  4  5  1  0
  5  6  2  0
  5  7  1  0
  7  8  1  0
  8  9  1  0
  9 10  1  0
 10 11  1  0
 11 12  1  0
 12 13  1  0
  2 14  1  0
 14 15  2  0
 15 16  1  0
 16 17  2  0
 17 18  1  0
 18 19  2  0
 19 20  1  0
 19 21  1  0
 21 22  2  0
 22 23  1  0
 23 24  2  0
 11  7  1  0
 24 14  1  0
 23 17  1  0
  3 25  1  0
  4 26  1  0
  4 27  1  0
  8 28  1  0
  8 29  1  0
  9 30  1  0
  9 31  1  0
 10 32  1  0
 10 33  1  0
 11 34  1  1
 12 35  1  0
 12 36  1  0
 13 37  1  0
 15 38  1  0
 16 39  1  0
 18 40  1  0
 21 41  1  0
 22 42  1  0
M  END
>  <smiles>  (49) 
O=C(NCC(=O)N1CCC[C@H]1CO)c1ccc2cc(Cl)ccc2n1

>  <score_type>  (49) 
oracle

>  <origin>  (49) 
autodockgpu

>  <m_score__min__energy>  (49) 
-7.4800000000000004

>  <m_primary>  (49) 
energy

>  <rmsd>  (49) 
3.663188173318982

>  <m_score__min__rmsd>  (49) 
3.663188173318982

>  <meeko>  (49) 
{"free_energy": -6.32, "intermolecular_energy": -8.11, "internal_energy": -1.89, "cluster_size": 16, "cluster_id": 3, "rank_in_cluster": 7}

>  <energy>  (49) 
-5.02

>  <cluster_rmsd>  (49) 
0.0

>  <cluster>  (49) 
8

$$$$

     RDKit          3D

 42 44  0  0  0  0  0  0  0  0999 V2000
  140.2190   74.1190  222.0780 O   0  0  0  0  0  0  0  0  0  0  0  0
  140.2580   72.8700  221.9210 C   0  0  0  0  0  0  0  0  0  0  0  0
  140.4180   72.3850  220.5790 N   0  0  0  0  0  0  0  0  0  0  0  0
  140.5290   73.3110  219.4720 C   0  0  0  0  0  0  0  0  0  0  0  0
  141.6640   72.9740  218.5790 C   0  0  0  0  0  0  0  0  0  0  0  0
  141.4730   72.7280  217.3440 O   0  0  0  0  0  0  0  0  0  0  0  0
  142.9630   72.9400  219.1590 N   0  0  0  0  0  0  0  0  0  0  0  0
  143.5170   71.9590  220.0930 C   0  0  0  0  0  0  0  0  0  0  0  0
  144.6080   72.6510  220.8410 C   0  0  0  0  0  0  0  0  0  0  0  0
  144.5610   74.0770  220.3490 C   0  0  0  0  0  0  0  0  0  0  0  0
  144.0380   73.8910  218.9400 C   0  0  1  0  0  0  0  0  0  0  0  0
  145.0570   73.1950  218.0600 C   0  0  0  0  0  0  0  0  0  0  0  0
  146.3220   73.1920  218.6390 O   0  0  0  0  0  0  0  0  0  0  0  0
  140.1500   71.9190  223.0020 C   0  0  0  0  0  0  0  0  0  0  0  0
  139.4920   70.7130  222.7970 C   0  0  0  0  0  0  0  0  0  0  0  0
  139.3620   69.7720  223.8010 C   0  0  0  0  0  0  0  0  0  0  0  0
  139.9300   70.1070  225.0310 C   0  0  0  0  0  0  0  0  0  0  0  0
  139.8490   69.2160  226.1070 C   0  0  0  0  0  0  0  0  0  0  0  0
  140.4170   69.5530  227.3270 C   0  0  0  0  0  0  0  0  0  0  0  0
  140.3460   68.4800  228.7070 Cl  0  0  0  0  0  0  0  0  0  0  0  0
  141.0750   70.7720  227.5120 C   0  0  0  0  0  0  0  0  0  0  0  0
  141.1360   71.6270  226.4330 C   0  0  0  0  0  0  0  0  0  0  0  0
  140.5800   71.3020  225.2270 C   0  0  0  0  0  0  0  0  0  0  0  0
  140.6840   72.1880  224.2270 N   0  0  0  0  0  0  0  0  0  0  0  0
  140.4510   71.3350  220.4480 H   0  0  0  0  0  0  0  0  0  0  0  0
  139.5969   73.2809  218.8887 H   0  0  0  0  0  0  0  0  0  0  0  0
  140.7072   74.3149  219.8847 H   0  0  0  0  0  0  0  0  0  0  0  0
  142.7378   71.6159  220.7895 H   0  0  0  0  0  0  0  0  0  0  0  0
  143.8996   71.0760  219.5602 H   0  0  0  0  0  0  0  0  0  0  0  0
  144.4240   72.6077  221.9246 H   0  0  0  0  0  0  0  0  0  0  0  0
  145.5898   72.1840  220.6740 H   0  0  0  0  0  0  0  0  0  0  0  0
  143.8764   74.6890  220.9546 H   0  0  0  0  0  0  0  0  0  0  0  0
  145.5253   74.6034  220.4045 H   0  0  0  0  0  0  0  0  0  0  0  0
  143.7716   74.8437  218.4589 H   0  0  0  0  0  0  0  0  0  0  0  0
  144.7368   72.1551  217.8981 H   0  0  0  0  0  0  0  0  0  0  0  0
  145.1176   73.7423  217.1077 H   0  0  0  0  0  0  0  0  0  0  0  0
  146.6760   74.1200  218.6150 H   0  0  0  0  0  0  0  0  0  0  0  0
  139.0620   70.5007  221.8070 H   0  0  0  0  0  0  0  0  0  0  0  0
  138.8419   68.8162  223.6402 H   0  0  0  0  0  0  0  0  0  0  0  0
  139.3361   68.2505  225.9857 H   0  0  0  0  0  0  0  0  0  0  0  0
  141.5258   71.0381  228.4794 H   0  0  0  0  0  0  0  0  0  0  0  0
  141.6450   72.5957  226.5449 H   0  0  0  0  0  0  0  0  0  0  0  0
  1  2  2  0
  2  3  1  0
  3  4  1  0
  4  5  1  0
  5  6  2  0
  5  7  1  0
  7  8  1  0
  8  9  1  0
  9 10  1  0
 10 11  1  0
 11 12  1  0
 12 13  1  0
  2 14  1  0
 14 15  2  0
 15 16  1  0
 16 17  2  0
 17 18  1  0
 18 19  2  0
 19 20  1  0
 19 21  1  0
 21 22  2  0
 22 23  1  0
 23 24  2  0
 11  7  1  0
 24 14  1  0
 23 17  1  0
  3 25  1  0
  4 26  1  0
  4 27  1  0
  8 28  1  0
  8 29  1  0
  9 30  1  0
  9 31  1  0
 10 32  1  0
 10 33  1  0
 11 34  1  6
 12 35  1  0
 12 36  1  0
 13 37  1  0
 15 38  1  0
 16 39  1  0
 18 40  1  0
 21 41  1  0
 22 42  1  0
M  END
>  <smiles>  (50) 
O=C(NCC(=O)N1CCC[C@H]1CO)c1ccc2cc(Cl)ccc2n1

>  <score_type>  (50) 
oracle

>  <origin>  (50) 
autodockgpu

>  <m_score__min__energy>  (50) 
-7.4800000000000004

>  <m_primary>  (50) 
energy

>  <rmsd>  (50) 
3.715495678239088

>  <m_score__min__rmsd>  (50) 
3.715495678239088

>  <meeko>  (50) 
{"free_energy": -7.2, "intermolecular_energy": -8.99, "internal_energy": -1.06, "cluster_size": 12, "cluster_id": 1, "rank_in_cluster": 3}

>  <energy>  (50) 
-4.85

>  <cluster_rmsd>  (50) 
0.0

>  <cluster>  (50) 
9

$$$$
