
     RDKit          3D

 44 47  0  0  0  0  0  0  0  0999 V2000
  142.6380   75.4460  219.5920 O   0  0  0  0  0  0  0  0  0  0  0  0
  141.7640   75.2340  220.4700 C   0  0  0  0  0  0  0  0  0  0  0  0
  141.2460   76.3450  221.1050 C   0  0  0  0  0  0  0  0  0  0  0  0
  141.6850   77.6070  220.7740 C   0  0  0  0  0  0  0  0  0  0  0  0
  141.1350   78.6880  221.4410 C   0  0  0  0  0  0  0  0  0  0  0  0
  140.1790   78.4290  222.3980 C   0  0  0  0  0  0  0  0  0  0  0  0
  139.4510   79.7640  223.2730 Cl  0  0  0  0  0  0  0  0  0  0  0  0
  139.7480   77.1610  222.7210 C   0  0  0  0  0  0  0  0  0  0  0  0
  140.3010   76.1130  222.0530 C   0  0  0  0  0  0  0  0  0  0  0  0
  139.9250   74.8840  222.3250 N   0  0  0  0  0  0  0  0  0  0  0  0
  140.4180   73.7610  221.7130 C   0  0  0  0  0  0  0  0  0  0  0  0
  139.8270   72.5320  222.1360 C   0  0  0  0  0  0  0  0  0  0  0  0
  140.3310   71.4110  222.5480 C   0  0  0  0  0  0  0  0  0  0  0  0
  140.1980   70.9840  223.9630 C   0  0  0  0  0  0  0  0  0  0  0  0
  141.0060   71.5220  224.9390 C   0  0  0  0  0  0  0  0  0  0  0  0
  140.8760   71.1140  226.2690 C   0  0  0  0  0  0  0  0  0  0  0  0
  139.9280   70.1660  226.6100 C   0  0  0  0  0  0  0  0  0  0  0  0
  139.1360   69.6510  225.6030 C   0  0  0  0  0  0  0  0  0  0  0  0
  139.2980   70.0730  224.3350 N   0  0  0  0  0  0  0  0  0  0  0  0
  141.3450   73.9690  220.7820 N   0  0  0  0  0  0  0  0  0  0  0  0
  142.0210   72.9350  220.0330 C   0  0  0  0  0  0  0  0  0  0  0  0
  143.4730   73.0370  219.9790 C   0  0  0  0  0  0  0  0  0  0  0  0
  144.1770   72.9570  221.1990 C   0  0  0  0  0  0  0  0  0  0  0  0
  145.5480   73.0180  221.2660 C   0  0  0  0  0  0  0  0  0  0  0  0
  146.3260   73.1640  220.1390 C   0  0  0  0  0  0  0  0  0  0  0  0
  145.6620   73.2450  218.9370 C   0  0  0  0  0  0  0  0  0  0  0  0
  146.4130   73.3920  217.7790 O   0  0  0  0  0  0  0  0  0  0  0  0
  144.2650   73.1810  218.8730 C   0  0  0  0  0  0  0  0  0  0  0  0
  142.4527   77.7526  219.9998 H   0  0  0  0  0  0  0  0  0  0  0  0
  141.4502   79.7173  221.2148 H   0  0  0  0  0  0  0  0  0  0  0  0
  138.9817   77.0013  223.4938 H   0  0  0  0  0  0  0  0  0  0  0  0
  138.7274   72.5375  222.1065 H   0  0  0  0  0  0  0  0  0  0  0  0
  140.8665   70.7652  221.8365 H   0  0  0  0  0  0  0  0  0  0  0  0
  141.7587   72.2778  224.6702 H   0  0  0  0  0  0  0  0  0  0  0  0
  141.5265   71.5460  227.0438 H   0  0  0  0  0  0  0  0  0  0  0  0
  139.8088   69.8327  227.6515 H   0  0  0  0  0  0  0  0  0  0  0  0
  138.3719   68.8951  225.8371 H   0  0  0  0  0  0  0  0  0  0  0  0
  141.7675   71.9670  220.4898 H   0  0  0  0  0  0  0  0  0  0  0  0
  141.6753   73.0442  218.9945 H   0  0  0  0  0  0  0  0  0  0  0  0
  143.6064   72.8414  222.1323 H   0  0  0  0  0  0  0  0  0  0  0  0
  146.0384   72.9482  222.2482 H   0  0  0  0  0  0  0  0  0  0  0  0
  147.4234   73.2134  220.1971 H   0  0  0  0  0  0  0  0  0  0  0  0
  146.6340   74.2490  217.3300 H   0  0  0  0  0  0  0  0  0  0  0  0
  143.7816   73.2497  217.8873 H   0  0  0  0  0  0  0  0  0  0  0  0
  1  2  2  0
  2  3  1  0
  3  4  2  0
  4  5  1  0
  5  6  2  0
  6  7  1  0
  6  8  1  0
  8  9  2  0
  9 10  1  0
 10 11  2  0
 11 12  1  0
 12 13  2  0
 13 14  1  0
 14 15  2  0
 15 16  1  0
 16 17  2  0
 17 18  1  0
 18 19  2  0
 11 20  1  0
 20 21  1  0
 21 22  1  0
 22 23  2  0
 23 24  1  0
 24 25  2  0
 25 26  1  0
 26 27  1  0
 26 28  2  0
 20  2  1  0
 28 22  1  0
  9  3  1  0
 19 14  1  0
  4 29  1  0
  5 30  1  0
  8 31  1  0
 12 32  1  0
 13 33  1  0
 15 34  1  0
 16 35  1  0
 17 36  1  0
 18 37  1  0
 21 38  1  0
 21 39  1  0
 23 40  1  0
 24 41  1  0
 25 42  1  0
 27 43  1  0
 28 44  1  0
M  END
>  <smiles>  (1) 
O=c1c2ccc(Cl)cc2nc(/C=C/c2ccccn2)n1Cc1cccc(O)c1

>  <score_type>  (1) 
oracle

>  <origin>  (1) 
autodockgpu

>  <m_score__min__energy>  (1) 
-8.2200000000000006

>  <m_primary>  (1) 
energy

>  <rmsd>  (1) 
7.703428746724186

>  <m_score__min__rmsd>  (1) 
7.703428746724186

>  <meeko>  (1) 
{"free_energy": -8.22, "intermolecular_energy": -10.01, "internal_energy": -0.77, "cluster_size": 18, "cluster_id": 1, "rank_in_cluster": 1}

>  <energy>  (1) 
-8.22

>  <cluster_rmsd>  (1) 
0.0

>  <cluster>  (1) 
1

$$$$

     RDKit          3D

 44 47  0  0  0  0  0  0  0  0999 V2000
  139.6680   74.8800  221.2230 O   0  0  0  0  0  0  0  0  0  0  0  0
  140.5900   75.5890  220.7440 C   0  0  0  0  0  0  0  0  0  0  0  0
  141.8250   74.9860  220.6110 C   0  0  0  0  0  0  0  0  0  0  0  0
  142.0080   73.6760  220.9930 C   0  0  0  0  0  0  0  0  0  0  0  0
  143.2650   73.1190  220.8400 C   0  0  0  0  0  0  0  0  0  0  0  0
  144.2580   73.9160  220.3130 C   0  0  0  0  0  0  0  0  0  0  0  0
  145.8700   73.2580  220.0990 Cl  0  0  0  0  0  0  0  0  0  0  0  0
  144.0620   75.2270  219.9350 C   0  0  0  0  0  0  0  0  0  0  0  0
  142.8190   75.7540  220.0930 C   0  0  0  0  0  0  0  0  0  0  0  0
  142.5810   76.9990  219.7480 N   0  0  0  0  0  0  0  0  0  0  0  0
  141.3690   77.6260  219.8670 C   0  0  0  0  0  0  0  0  0  0  0  0
  141.3310   78.9700  219.3840 C   0  0  0  0  0  0  0  0  0  0  0  0
  141.7800   80.0880  219.8620 C   0  0  0  0  0  0  0  0  0  0  0  0
  141.9710   80.2770  221.3210 C   0  0  0  0  0  0  0  0  0  0  0  0
  141.7290   81.4980  221.9100 C   0  0  0  0  0  0  0  0  0  0  0  0
  141.9100   81.6700  223.2840 C   0  0  0  0  0  0  0  0  0  0  0  0
  142.3350   80.6080  224.0620 C   0  0  0  0  0  0  0  0  0  0  0  0
  142.5660   79.3990  223.4340 C   0  0  0  0  0  0  0  0  0  0  0  0
  142.3780   79.2790  222.1070 N   0  0  0  0  0  0  0  0  0  0  0  0
  140.3830   76.8900  220.3730 N   0  0  0  0  0  0  0  0  0  0  0  0
  139.0350   77.3520  220.6130 C   0  0  0  0  0  0  0  0  0  0  0  0
  138.9040   78.4660  221.5440 C   0  0  0  0  0  0  0  0  0  0  0  0
  139.3510   78.2650  222.8670 C   0  0  0  0  0  0  0  0  0  0  0  0
  139.2960   79.2510  223.8210 C   0  0  0  0  0  0  0  0  0  0  0  0
  138.7990   80.5060  223.5460 C   0  0  0  0  0  0  0  0  0  0  0  0
  138.3560   80.7260  222.2620 C   0  0  0  0  0  0  0  0  0  0  0  0
  137.8480   81.9780  221.9460 O   0  0  0  0  0  0  0  0  0  0  0  0
  138.4140   79.7180  221.2910 C   0  0  0  0  0  0  0  0  0  0  0  0
  141.1767   73.0878  221.4089 H   0  0  0  0  0  0  0  0  0  0  0  0
  143.4648   72.0766  221.1288 H   0  0  0  0  0  0  0  0  0  0  0  0
  144.8846   75.8272  219.5190 H   0  0  0  0  0  0  0  0  0  0  0  0
  140.8200   79.0771  218.4158 H   0  0  0  0  0  0  0  0  0  0  0  0
  142.0237   80.9109  219.1739 H   0  0  0  0  0  0  0  0  0  0  0  0
  141.3907   82.3440  221.2937 H   0  0  0  0  0  0  0  0  0  0  0  0
  141.7149   82.6486  223.7470 H   0  0  0  0  0  0  0  0  0  0  0  0
  142.4843   80.7223  225.1458 H   0  0  0  0  0  0  0  0  0  0  0  0
  142.9045   78.5322  224.0206 H   0  0  0  0  0  0  0  0  0  0  0  0
  138.6088   77.6658  219.6487 H   0  0  0  0  0  0  0  0  0  0  0  0
  138.5078   76.5074  221.0807 H   0  0  0  0  0  0  0  0  0  0  0  0
  139.7587   77.2818  223.1446 H   0  0  0  0  0  0  0  0  0  0  0  0
  139.6599   79.0321  224.8357 H   0  0  0  0  0  0  0  0  0  0  0  0
  138.7583   81.2924  224.3140 H   0  0  0  0  0  0  0  0  0  0  0  0
  138.3440   82.7160  221.5050 H   0  0  0  0  0  0  0  0  0  0  0  0
  138.0487   79.9436  220.2783 H   0  0  0  0  0  0  0  0  0  0  0  0
  1  2  2  0
  2  3  1  0
  3  4  2  0
  4  5  1  0
  5  6  2  0
  6  7  1  0
  6  8  1  0
  8  9  2  0
  9 10  1  0
 10 11  2  0
 11 12  1  0
 12 13  2  0
 13 14  1  0
 14 15  2  0
 15 16  1  0
 16 17  2  0
 17 18  1  0
 18 19  2  0
 11 20  1  0
 20 21  1  0
 21 22  1  0
 22 23  2  0
 23 24  1  0
 24 25  2  0
 25 26  1  0
 26 27  1  0
 26 28  2  0
 20  2  1  0
 28 22  1  0
  9  3  1  0
 19 14  1  0
  4 29  1  0
  5 30  1  0
  8 31  1  0
 12 32  1  0
 13 33  1  0
 15 34  1  0
 16 35  1  0
 17 36  1  0
 18 37  1  0
 21 38  1  0
 21 39  1  0
 23 40  1  0
 24 41  1  0
 25 42  1  0
 27 43  1  0
 28 44  1  0
M  END
>  <smiles>  (2) 
O=c1c2ccc(Cl)cc2nc(/C=C/c2ccccn2)n1Cc1cccc(O)c1

>  <score_type>  (2) 
oracle

>  <origin>  (2) 
autodockgpu

>  <m_score__min__energy>  (2) 
-8.2200000000000006

>  <m_primary>  (2) 
energy

>  <rmsd>  (2) 
4.042925173384116

>  <m_score__min__rmsd>  (2) 
4.042925173384116

>  <meeko>  (2) 
{"free_energy": -6.24, "intermolecular_energy": -8.03, "internal_energy": -2.06, "cluster_size": 10, "cluster_id": 9, "rank_in_cluster": 9}

>  <energy>  (2) 
-8.04

>  <cluster_rmsd>  (2) 
0.33

>  <cluster>  (2) 
1

$$$$

     RDKit          3D

 44 47  0  0  0  0  0  0  0  0999 V2000
  139.6630   75.0160  221.1580 O   0  0  0  0  0  0  0  0  0  0  0  0
  140.6030   75.7100  220.6950 C   0  0  0  0  0  0  0  0  0  0  0  0
  141.8310   75.0900  220.5820 C   0  0  0  0  0  0  0  0  0  0  0  0
  141.9880   73.7780  220.9680 C   0  0  0  0  0  0  0  0  0  0  0  0
  143.2390   73.2020  220.8360 C   0  0  0  0  0  0  0  0  0  0  0  0
  144.2520   73.9840  220.3260 C   0  0  0  0  0  0  0  0  0  0  0  0
  145.8580   73.3020  220.1390 Cl  0  0  0  0  0  0  0  0  0  0  0  0
  144.0820   75.2970  219.9440 C   0  0  0  0  0  0  0  0  0  0  0  0
  142.8450   75.8420  220.0810 C   0  0  0  0  0  0  0  0  0  0  0  0
  142.6310   77.0910  219.7320 N   0  0  0  0  0  0  0  0  0  0  0  0
  141.4260   77.7360  219.8300 C   0  0  0  0  0  0  0  0  0  0  0  0
  141.4160   79.0800  219.3460 C   0  0  0  0  0  0  0  0  0  0  0  0
  141.7790   80.2060  219.8750 C   0  0  0  0  0  0  0  0  0  0  0  0
  141.9870   80.3350  221.3390 C   0  0  0  0  0  0  0  0  0  0  0  0
  141.7880   81.5410  221.9740 C   0  0  0  0  0  0  0  0  0  0  0  0
  141.9860   81.6560  223.3510 C   0  0  0  0  0  0  0  0  0  0  0  0
  142.3820   80.5530  224.0860 C   0  0  0  0  0  0  0  0  0  0  0  0
  142.5700   79.3610  223.4130 C   0  0  0  0  0  0  0  0  0  0  0  0
  142.3690   79.2970  222.0840 N   0  0  0  0  0  0  0  0  0  0  0  0
  140.4210   77.0140  220.3200 N   0  0  0  0  0  0  0  0  0  0  0  0
  139.0770   77.4970  220.5370 C   0  0  0  0  0  0  0  0  0  0  0  0
  138.9390   78.5730  221.5090 C   0  0  0  0  0  0  0  0  0  0  0  0
  139.3390   78.3080  222.8360 C   0  0  0  0  0  0  0  0  0  0  0  0
  139.2750   79.2550  223.8290 C   0  0  0  0  0  0  0  0  0  0  0  0
  138.8130   80.5300  223.5920 C   0  0  0  0  0  0  0  0  0  0  0  0
  138.4170   80.8140  222.3040 C   0  0  0  0  0  0  0  0  0  0  0  0
  137.9460   82.0890  222.0260 O   0  0  0  0  0  0  0  0  0  0  0  0
  138.4840   79.8460  221.2940 C   0  0  0  0  0  0  0  0  0  0  0  0
  141.1413   73.2028  221.3707 H   0  0  0  0  0  0  0  0  0  0  0  0
  143.4184   72.1567  221.1279 H   0  0  0  0  0  0  0  0  0  0  0  0
  144.9202   75.8846  219.5414 H   0  0  0  0  0  0  0  0  0  0  0  0
  141.0230   79.1785  218.3233 H   0  0  0  0  0  0  0  0  0  0  0  0
  141.9357   81.0815  219.2277 H   0  0  0  0  0  0  0  0  0  0  0  0
  141.4710   82.4191  221.3923 H   0  0  0  0  0  0  0  0  0  0  0  0
  141.8273   82.6228  223.8512 H   0  0  0  0  0  0  0  0  0  0  0  0
  142.5422   80.6227  225.1720 H   0  0  0  0  0  0  0  0  0  0  0  0
  142.8845   78.4628  223.9646 H   0  0  0  0  0  0  0  0  0  0  0  0
  138.6895   77.8606  219.5739 H   0  0  0  0  0  0  0  0  0  0  0  0
  138.5172   76.6459  220.9522 H   0  0  0  0  0  0  0  0  0  0  0  0
  139.7164   77.3051  223.0847 H   0  0  0  0  0  0  0  0  0  0  0  0
  139.6028   78.9865  224.8441 H   0  0  0  0  0  0  0  0  0  0  0  0
  138.7627   81.2840  224.3913 H   0  0  0  0  0  0  0  0  0  0  0  0
  136.9930   82.3590  221.9620 H   0  0  0  0  0  0  0  0  0  0  0  0
  138.1557   80.1215  220.2809 H   0  0  0  0  0  0  0  0  0  0  0  0
  1  2  2  0
  2  3  1  0
  3  4  2  0
  4  5  1  0
  5  6  2  0
  6  7  1  0
  6  8  1  0
  8  9  2  0
  9 10  1  0
 10 11  2  0
 11 12  1  0
 12 13  2  0
 13 14  1  0
 14 15  2  0
 15 16  1  0
 16 17  2  0
 17 18  1  0
 18 19  2  0
 11 20  1  0
 20 21  1  0
 21 22  1  0
 22 23  2  0
 23 24  1  0
 24 25  2  0
 25 26  1  0
 26 27  1  0
 26 28  2  0
 20  2  1  0
 28 22  1  0
  9  3  1  0
 19 14  1  0
  4 29  1  0
  5 30  1  0
  8 31  1  0
 12 32  1  0
 13 33  1  0
 15 34  1  0
 16 35  1  0
 17 36  1  0
 18 37  1  0
 21 38  1  0
 21 39  1  0
 23 40  1  0
 24 41  1  0
 25 42  1  0
 27 43  1  0
 28 44  1  0
M  END
>  <smiles>  (3) 
O=c1c2ccc(Cl)cc2nc(/C=C/c2ccccn2)n1Cc1cccc(O)c1

>  <score_type>  (3) 
oracle

>  <origin>  (3) 
autodockgpu

>  <m_score__min__energy>  (3) 
-8.2200000000000006

>  <m_primary>  (3) 
energy

>  <rmsd>  (3) 
3.9817690242465846

>  <m_score__min__rmsd>  (3) 
3.9817690242465846

>  <meeko>  (3) 
{"free_energy": -6.24, "intermolecular_energy": -8.03, "internal_energy": -2.09, "cluster_size": 10, "cluster_id": 9, "rank_in_cluster": 8}

>  <energy>  (3) 
-8.03

>  <cluster_rmsd>  (3) 
0.62

>  <cluster>  (3) 
1

$$$$

     RDKit          3D

 44 47  0  0  0  0  0  0  0  0999 V2000
  136.5020   76.6000  222.2750 O   0  0  0  0  0  0  0  0  0  0  0  0
  137.6440   76.0770  222.2340 C   0  0  0  0  0  0  0  0  0  0  0  0
  138.7170   76.9240  222.4290 C   0  0  0  0  0  0  0  0  0  0  0  0
  138.5150   78.2670  222.6520 C   0  0  0  0  0  0  0  0  0  0  0  0
  139.6240   79.0740  222.8410 C   0  0  0  0  0  0  0  0  0  0  0  0
  140.8640   78.4770  222.7910 C   0  0  0  0  0  0  0  0  0  0  0  0
  142.3020   79.4550  223.0230 Cl  0  0  0  0  0  0  0  0  0  0  0  0
  141.0540   77.1310  222.5660 C   0  0  0  0  0  0  0  0  0  0  0  0
  139.9510   76.3570  222.3840 C   0  0  0  0  0  0  0  0  0  0  0  0
  140.0770   75.0670  222.1650 N   0  0  0  0  0  0  0  0  0  0  0  0
  139.0350   74.2000  221.9690 C   0  0  0  0  0  0  0  0  0  0  0  0
  139.4080   72.8320  221.7960 C   0  0  0  0  0  0  0  0  0  0  0  0
  140.3140   72.0920  222.3530 C   0  0  0  0  0  0  0  0  0  0  0  0
  140.0690   71.4330  223.6600 C   0  0  0  0  0  0  0  0  0  0  0  0
  139.1170   70.4450  223.7830 C   0  0  0  0  0  0  0  0  0  0  0  0
  138.8920   69.8300  225.0160 C   0  0  0  0  0  0  0  0  0  0  0  0
  139.6290   70.2110  226.1220 C   0  0  0  0  0  0  0  0  0  0  0  0
  140.5740   71.2040  225.9590 C   0  0  0  0  0  0  0  0  0  0  0  0
  140.7570   71.7700  224.7510 N   0  0  0  0  0  0  0  0  0  0  0  0
  137.8190   74.7380  222.0080 N   0  0  0  0  0  0  0  0  0  0  0  0
  136.5820   74.0210  221.8000 C   0  0  0  0  0  0  0  0  0  0  0  0
  135.9170   73.5410  223.0040 C   0  0  0  0  0  0  0  0  0  0  0  0
  135.8250   72.1450  223.1850 C   0  0  0  0  0  0  0  0  0  0  0  0
  135.2400   71.5820  224.2920 C   0  0  0  0  0  0  0  0  0  0  0  0
  134.7010   72.3480  225.3020 C   0  0  0  0  0  0  0  0  0  0  0  0
  134.7780   73.7140  225.1480 C   0  0  0  0  0  0  0  0  0  0  0  0
  134.2470   74.5200  226.1450 O   0  0  0  0  0  0  0  0  0  0  0  0
  135.3770   74.2850  224.0170 C   0  0  0  0  0  0  0  0  0  0  0  0
  137.4992   78.6881  222.6793 H   0  0  0  0  0  0  0  0  0  0  0  0
  139.5184   80.1534  223.0246 H   0  0  0  0  0  0  0  0  0  0  0  0
  142.0643   76.6971  222.5346 H   0  0  0  0  0  0  0  0  0  0  0  0
  138.8079   72.3026  221.0413 H   0  0  0  0  0  0  0  0  0  0  0  0
  141.2811   71.9498  221.8486 H   0  0  0  0  0  0  0  0  0  0  0  0
  138.5304   70.1387  222.9043 H   0  0  0  0  0  0  0  0  0  0  0  0
  138.1290   69.0430  225.1075 H   0  0  0  0  0  0  0  0  0  0  0  0
  139.4673   69.7375  227.1016 H   0  0  0  0  0  0  0  0  0  0  0  0
  141.1783   71.5333  226.8171 H   0  0  0  0  0  0  0  0  0  0  0  0
  135.8866   74.6928  221.2755 H   0  0  0  0  0  0  0  0  0  0  0  0
  136.8512   73.1206  221.2284 H   0  0  0  0  0  0  0  0  0  0  0  0
  136.2376   71.4825  222.4098 H   0  0  0  0  0  0  0  0  0  0  0  0
  135.2005   70.4858  224.3750 H   0  0  0  0  0  0  0  0  0  0  0  0
  134.2329   71.8916  226.1866 H   0  0  0  0  0  0  0  0  0  0  0  0
  133.6550   75.3040  226.0090 H   0  0  0  0  0  0  0  0  0  0  0  0
  135.4147   75.3817  223.9403 H   0  0  0  0  0  0  0  0  0  0  0  0
  1  2  2  0
  2  3  1  0
  3  4  2  0
  4  5  1  0
  5  6  2  0
  6  7  1  0
  6  8  1  0
  8  9  2  0
  9 10  1  0
 10 11  2  0
 11 12  1  0
 12 13  2  0
 13 14  1  0
 14 15  2  0
 15 16  1  0
 16 17  2  0
 17 18  1  0
 18 19  2  0
 11 20  1  0
 20 21  1  0
 21 22  1  0
 22 23  2  0
 23 24  1  0
 24 25  2  0
 25 26  1  0
 26 27  1  0
 26 28  2  0
 20  2  1  0
 28 22  1  0
  9  3  1  0
 19 14  1  0
  4 29  1  0
  5 30  1  0
  8 31  1  0
 12 32  1  0
 13 33  1  0
 15 34  1  0
 16 35  1  0
 17 36  1  0
 18 37  1  0
 21 38  1  0
 21 39  1  0
 23 40  1  0
 24 41  1  0
 25 42  1  0
 27 43  1  0
 28 44  1  0
M  END
>  <smiles>  (4) 
O=c1c2ccc(Cl)cc2nc(/C=C/c2ccccn2)n1Cc1cccc(O)c1

>  <score_type>  (4) 
oracle

>  <origin>  (4) 
autodockgpu

>  <m_score__min__energy>  (4) 
-8.2200000000000006

>  <m_primary>  (4) 
energy

>  <rmsd>  (4) 
8.08258663768534

>  <m_score__min__rmsd>  (4) 
8.08258663768534

>  <meeko>  (4) 
{"free_energy": -6.86, "intermolecular_energy": -8.65, "internal_energy": -1.41, "cluster_size": 5, "cluster_id": 5, "rank_in_cluster": 3}

>  <energy>  (4) 
-8.0

>  <cluster_rmsd>  (4) 
1.25

>  <cluster>  (4) 
1

$$$$

     RDKit          3D

 44 47  0  0  0  0  0  0  0  0999 V2000
  142.1120   75.5730  218.7510 O   0  0  0  0  0  0  0  0  0  0  0  0
  141.6020   75.4300  219.8910 C   0  0  0  0  0  0  0  0  0  0  0  0
  141.4960   76.5670  220.6670 C   0  0  0  0  0  0  0  0  0  0  0  0
  141.9360   77.7810  220.1900 C   0  0  0  0  0  0  0  0  0  0  0  0
  141.8090   78.8910  221.0060 C   0  0  0  0  0  0  0  0  0  0  0  0
  141.2470   78.7080  222.2510 C   0  0  0  0  0  0  0  0  0  0  0  0
  141.0630   80.0820  223.3260 Cl  0  0  0  0  0  0  0  0  0  0  0  0
  140.8100   77.4870  222.7170 C   0  0  0  0  0  0  0  0  0  0  0  0
  140.9450   76.4100  221.8980 C   0  0  0  0  0  0  0  0  0  0  0  0
  140.5450   75.2230  222.2970 N   0  0  0  0  0  0  0  0  0  0  0  0
  140.6350   74.0760  221.5520 C   0  0  0  0  0  0  0  0  0  0  0  0
  140.0920   72.9080  222.1710 C   0  0  0  0  0  0  0  0  0  0  0  0
  140.6210   71.7840  222.5390 C   0  0  0  0  0  0  0  0  0  0  0  0
  140.2820   71.1680  223.8460 C   0  0  0  0  0  0  0  0  0  0  0  0
  141.0070   71.4730  224.9770 C   0  0  0  0  0  0  0  0  0  0  0  0
  140.6830   70.8890  226.2030 C   0  0  0  0  0  0  0  0  0  0  0  0
  139.6270   70.0010  226.2870 C   0  0  0  0  0  0  0  0  0  0  0  0
  138.9230   69.7220  225.1310 C   0  0  0  0  0  0  0  0  0  0  0  0
  139.2720   70.3070  223.9710 N   0  0  0  0  0  0  0  0  0  0  0  0
  141.1730   74.2110  220.3430 N   0  0  0  0  0  0  0  0  0  0  0  0
  141.3920   73.1360  219.4040 C   0  0  0  0  0  0  0  0  0  0  0  0
  142.7190   72.5340  219.4280 C   0  0  0  0  0  0  0  0  0  0  0  0
  142.8060   71.1620  219.7490 C   0  0  0  0  0  0  0  0  0  0  0  0
  144.0010   70.4860  219.7790 C   0  0  0  0  0  0  0  0  0  0  0  0
  145.1970   71.1070  219.4970 C   0  0  0  0  0  0  0  0  0  0  0  0
  145.1390   72.4450  219.1810 C   0  0  0  0  0  0  0  0  0  0  0  0
  146.3240   73.1060  218.8900 O   0  0  0  0  0  0  0  0  0  0  0  0
  143.9180   73.1310  219.1510 C   0  0  0  0  0  0  0  0  0  0  0  0
  142.3772   77.8663  219.1860 H   0  0  0  0  0  0  0  0  0  0  0  0
  142.1446   79.8842  220.6729 H   0  0  0  0  0  0  0  0  0  0  0  0
  140.3665   77.3869  223.7186 H   0  0  0  0  0  0  0  0  0  0  0  0
  139.0133   72.9767  222.3751 H   0  0  0  0  0  0  0  0  0  0  0  0
  141.3336   71.2776  221.8713 H   0  0  0  0  0  0  0  0  0  0  0  0
  141.8464   72.1811  224.9137 H   0  0  0  0  0  0  0  0  0  0  0  0
  141.2677   71.1354  227.1016 H   0  0  0  0  0  0  0  0  0  0  0  0
  139.3556   69.5312  227.2439 H   0  0  0  0  0  0  0  0  0  0  0  0
  138.0761   69.0206  225.1594 H   0  0  0  0  0  0  0  0  0  0  0  0
  140.6585   72.3450  219.6193 H   0  0  0  0  0  0  0  0  0  0  0  0
  141.2854   73.5849  218.4055 H   0  0  0  0  0  0  0  0  0  0  0  0
  141.8817   70.6138  219.9839 H   0  0  0  0  0  0  0  0  0  0  0  0
  144.0027   69.4165  220.0360 H   0  0  0  0  0  0  0  0  0  0  0  0
  146.1514   70.5607  219.5230 H   0  0  0  0  0  0  0  0  0  0  0  0
  146.4090   74.0460  218.5840 H   0  0  0  0  0  0  0  0  0  0  0  0
  143.9238   74.2002  218.8925 H   0  0  0  0  0  0  0  0  0  0  0  0
  1  2  2  0
  2  3  1  0
  3  4  2  0
  4  5  1  0
  5  6  2  0
  6  7  1  0
  6  8  1  0
  8  9  2  0
  9 10  1  0
 10 11  2  0
 11 12  1  0
 12 13  2  0
 13 14  1  0
 14 15  2  0
 15 16  1  0
 16 17  2  0
 17 18  1  0
 18 19  2  0
 11 20  1  0
 20 21  1  0
 21 22  1  0
 22 23  2  0
 23 24  1  0
 24 25  2  0
 25 26  1  0
 26 27  1  0
 26 28  2  0
 20  2  1  0
 28 22  1  0
  9  3  1  0
 19 14  1  0
  4 29  1  0
  5 30  1  0
  8 31  1  0
 12 32  1  0
 13 33  1  0
 15 34  1  0
 16 35  1  0
 17 36  1  0
 18 37  1  0
 21 38  1  0
 21 39  1  0
 23 40  1  0
 24 41  1  0
 25 42  1  0
 27 43  1  0
 28 44  1  0
M  END
>  <smiles>  (5) 
O=c1c2ccc(Cl)cc2nc(/C=C/c2ccccn2)n1Cc1cccc(O)c1

>  <score_type>  (5) 
oracle

>  <origin>  (5) 
autodockgpu

>  <m_score__min__energy>  (5) 
-8.2200000000000006

>  <m_primary>  (5) 
energy

>  <rmsd>  (5) 
8.165191317812566

>  <m_score__min__rmsd>  (5) 
8.165191317812566

>  <meeko>  (5) 
{"free_energy": -7.78, "intermolecular_energy": -9.57, "internal_energy": -1.01, "cluster_size": 18, "cluster_id": 1, "rank_in_cluster": 14}

>  <energy>  (5) 
-7.94

>  <cluster_rmsd>  (5) 
1.07

>  <cluster>  (5) 
1

$$$$

     RDKit          3D

 44 47  0  0  0  0  0  0  0  0999 V2000
  136.9230   70.5420  221.6980 O   0  0  0  0  0  0  0  0  0  0  0  0
  137.0110   70.0950  222.8700 C   0  0  0  0  0  0  0  0  0  0  0  0
  135.9420   70.3450  223.7070 C   0  0  0  0  0  0  0  0  0  0  0  0
  134.8510   71.0510  223.2550 C   0  0  0  0  0  0  0  0  0  0  0  0
  133.8060   71.2760  224.1340 C   0  0  0  0  0  0  0  0  0  0  0  0
  133.9270   70.7760  225.4120 C   0  0  0  0  0  0  0  0  0  0  0  0
  132.6310   71.0340  226.5660 Cl  0  0  0  0  0  0  0  0  0  0  0  0
  135.0250   70.0710  225.8530 C   0  0  0  0  0  0  0  0  0  0  0  0
  136.0400   69.8610  224.9730 C   0  0  0  0  0  0  0  0  0  0  0  0
  137.1100   69.1950  225.3450 N   0  0  0  0  0  0  0  0  0  0  0  0
  138.1860   68.9290  224.5390 C   0  0  0  0  0  0  0  0  0  0  0  0
  139.2180   68.1470  225.1430 C   0  0  0  0  0  0  0  0  0  0  0  0
  139.9590   68.3290  226.1900 C   0  0  0  0  0  0  0  0  0  0  0  0
  140.3590   69.6920  226.6200 C   0  0  0  0  0  0  0  0  0  0  0  0
  140.1400   70.1160  227.9120 C   0  0  0  0  0  0  0  0  0  0  0  0
  140.5180   71.4000  228.3090 C   0  0  0  0  0  0  0  0  0  0  0  0
  141.1190   72.2540  227.4020 C   0  0  0  0  0  0  0  0  0  0  0  0
  141.3220   71.7920  226.1160 C   0  0  0  0  0  0  0  0  0  0  0  0
  140.9400   70.5470  225.7770 N   0  0  0  0  0  0  0  0  0  0  0  0
  138.1090   69.3960  223.2960 N   0  0  0  0  0  0  0  0  0  0  0  0
  139.1340   69.2600  222.2880 C   0  0  0  0  0  0  0  0  0  0  0  0
  139.7780   70.4980  221.8680 C   0  0  0  0  0  0  0  0  0  0  0  0
  140.7350   70.4160  220.8350 C   0  0  0  0  0  0  0  0  0  0  0  0
  141.3870   71.5200  220.3430 C   0  0  0  0  0  0  0  0  0  0  0  0
  141.1470   72.7860  220.8310 C   0  0  0  0  0  0  0  0  0  0  0  0
  140.2160   72.8920  221.8400 C   0  0  0  0  0  0  0  0  0  0  0  0
  139.9470   74.1520  222.3560 O   0  0  0  0  0  0  0  0  0  0  0  0
  139.5530   71.7630  222.3380 C   0  0  0  0  0  0  0  0  0  0  0  0
  134.8104   71.4268  222.2220 H   0  0  0  0  0  0  0  0  0  0  0  0
  132.9106   71.8343  223.8233 H   0  0  0  0  0  0  0  0  0  0  0  0
  135.0790   69.6902  226.8836 H   0  0  0  0  0  0  0  0  0  0  0  0
  139.4240   67.2044  224.6148 H   0  0  0  0  0  0  0  0  0  0  0  0
  140.2976   67.4581  226.7704 H   0  0  0  0  0  0  0  0  0  0  0  0
  139.6640   69.4383  228.6360 H   0  0  0  0  0  0  0  0  0  0  0  0
  140.3381   71.7322  229.3421 H   0  0  0  0  0  0  0  0  0  0  0  0
  141.4256   73.2689  227.6954 H   0  0  0  0  0  0  0  0  0  0  0  0
  141.7970   72.4433  225.3675 H   0  0  0  0  0  0  0  0  0  0  0  0
  139.9126   68.5927  222.6861 H   0  0  0  0  0  0  0  0  0  0  0  0
  138.6247   68.8698  221.3945 H   0  0  0  0  0  0  0  0  0  0  0  0
  140.9680   69.4298  220.4071 H   0  0  0  0  0  0  0  0  0  0  0  0
  142.1225   71.3897  219.5355 H   0  0  0  0  0  0  0  0  0  0  0  0
  141.6725   73.6673  220.4346 H   0  0  0  0  0  0  0  0  0  0  0  0
  139.2080   74.3820  222.9780 H   0  0  0  0  0  0  0  0  0  0  0  0
  138.8174   71.8999  223.1443 H   0  0  0  0  0  0  0  0  0  0  0  0
  1  2  2  0
  2  3  1  0
  3  4  2  0
  4  5  1  0
  5  6  2  0
  6  7  1  0
  6  8  1  0
  8  9  2  0
  9 10  1  0
 10 11  2  0
 11 12  1  0
 12 13  2  0
 13 14  1  0
 14 15  2  0
 15 16  1  0
 16 17  2  0
 17 18  1  0
 18 19  2  0
 11 20  1  0
 20 21  1  0
 21 22  1  0
 22 23  2  0
 23 24  1  0
 24 25  2  0
 25 26  1  0
 26 27  1  0
 26 28  2  0
 20  2  1  0
 28 22  1  0
  9  3  1  0
 19 14  1  0
  4 29  1  0
  5 30  1  0
  8 31  1  0
 12 32  1  0
 13 33  1  0
 15 34  1  0
 16 35  1  0
 17 36  1  0
 18 37  1  0
 21 38  1  0
 21 39  1  0
 23 40  1  0
 24 41  1  0
 25 42  1  0
 27 43  1  0
 28 44  1  0
M  END
>  <smiles>  (6) 
O=c1c2ccc(Cl)cc2nc(/C=C/c2ccccn2)n1Cc1cccc(O)c1

>  <score_type>  (6) 
oracle

>  <origin>  (6) 
autodockgpu

>  <m_score__min__energy>  (6) 
-8.2200000000000006

>  <m_primary>  (6) 
energy

>  <rmsd>  (6) 
10.009758748604575

>  <m_score__min__rmsd>  (6) 
10.009758748604575

>  <meeko>  (6) 
{"free_energy": -7.16, "intermolecular_energy": -8.95, "internal_energy": -1.34, "cluster_size": 2, "cluster_id": 3, "rank_in_cluster": 1}

>  <energy>  (6) 
-7.92

>  <cluster_rmsd>  (6) 
1.07

>  <cluster>  (6) 
1

$$$$

     RDKit          3D

 44 47  0  0  0  0  0  0  0  0999 V2000
  139.8270   74.4460  221.8110 O   0  0  0  0  0  0  0  0  0  0  0  0
  140.6010   75.2250  221.1970 C   0  0  0  0  0  0  0  0  0  0  0  0
  141.8460   74.7260  220.8720 C   0  0  0  0  0  0  0  0  0  0  0  0
  142.1960   73.4400  221.2170 C   0  0  0  0  0  0  0  0  0  0  0  0
  143.4570   72.9890  220.8690 C   0  0  0  0  0  0  0  0  0  0  0  0
  144.2850   73.8610  220.1970 C   0  0  0  0  0  0  0  0  0  0  0  0
  145.8950   73.3380  219.7330 Cl  0  0  0  0  0  0  0  0  0  0  0  0
  143.9240   75.1470  219.8580 C   0  0  0  0  0  0  0  0  0  0  0  0
  142.6800   75.5700  220.2090 C   0  0  0  0  0  0  0  0  0  0  0  0
  142.2870   76.7870  219.9100 N   0  0  0  0  0  0  0  0  0  0  0  0
  141.0590   77.3120  220.2160 C   0  0  0  0  0  0  0  0  0  0  0  0
  140.8340   78.6430  219.7500 C   0  0  0  0  0  0  0  0  0  0  0  0
  141.4920   79.7490  219.9020 C   0  0  0  0  0  0  0  0  0  0  0  0
  141.8510   80.2490  221.2520 C   0  0  0  0  0  0  0  0  0  0  0  0
  141.4530   81.5000  221.6680 C   0  0  0  0  0  0  0  0  0  0  0  0
  141.7950   81.9650  222.9400 C   0  0  0  0  0  0  0  0  0  0  0  0
  142.5380   81.1660  223.7890 C   0  0  0  0  0  0  0  0  0  0  0  0
  142.9180   79.9180  223.3360 C   0  0  0  0  0  0  0  0  0  0  0  0
  142.5660   79.5110  222.1020 N   0  0  0  0  0  0  0  0  0  0  0  0
  140.2290   76.5010  220.8670 N   0  0  0  0  0  0  0  0  0  0  0  0
  138.9020   76.8510  221.3150 C   0  0  0  0  0  0  0  0  0  0  0  0
  138.8040   78.0560  222.1290 C   0  0  0  0  0  0  0  0  0  0  0  0
  139.8070   78.2700  223.0970 C   0  0  0  0  0  0  0  0  0  0  0  0
  139.8280   79.3820  223.9030 C   0  0  0  0  0  0  0  0  0  0  0  0
  138.8660   80.3630  223.8170 C   0  0  0  0  0  0  0  0  0  0  0  0
  137.8760   80.1770  222.8790 C   0  0  0  0  0  0  0  0  0  0  0  0
  136.8890   81.1450  222.7620 O   0  0  0  0  0  0  0  0  0  0  0  0
  137.8580   79.0420  222.0590 C   0  0  0  0  0  0  0  0  0  0  0  0
  141.4919   72.7883  221.7550 H   0  0  0  0  0  0  0  0  0  0  0  0
  143.7867   71.9700  221.1201 H   0  0  0  0  0  0  0  0  0  0  0  0
  144.6190   75.8095  219.3213 H   0  0  0  0  0  0  0  0  0  0  0  0
  139.9232   78.7505  219.1427 H   0  0  0  0  0  0  0  0  0  0  0  0
  141.7896   80.3272  219.0147 H   0  0  0  0  0  0  0  0  0  0  0  0
  140.8618   82.1374  220.9940 H   0  0  0  0  0  0  0  0  0  0  0  0
  141.4736   82.9653  223.2657 H   0  0  0  0  0  0  0  0  0  0  0  0
  142.8179   81.5136  224.7944 H   0  0  0  0  0  0  0  0  0  0  0  0
  143.5095   79.2552  223.9847 H   0  0  0  0  0  0  0  0  0  0  0  0
  138.2719   76.9931  220.4247 H   0  0  0  0  0  0  0  0  0  0  0  0
  138.5787   76.0246  221.9650 H   0  0  0  0  0  0  0  0  0  0  0  0
  140.6021   77.5184  223.2108 H   0  0  0  0  0  0  0  0  0  0  0  0
  140.6378   79.4920  224.6393 H   0  0  0  0  0  0  0  0  0  0  0  0
  138.8874   81.2512  224.4656 H   0  0  0  0  0  0  0  0  0  0  0  0
  136.6400   81.6280  221.9320 H   0  0  0  0  0  0  0  0  0  0  0  0
  137.0457   78.9383  221.3246 H   0  0  0  0  0  0  0  0  0  0  0  0
  1  2  2  0
  2  3  1  0
  3  4  2  0
  4  5  1  0
  5  6  2  0
  6  7  1  0
  6  8  1  0
  8  9  2  0
  9 10  1  0
 10 11  2  0
 11 12  1  0
 12 13  2  0
 13 14  1  0
 14 15  2  0
 15 16  1  0
 16 17  2  0
 17 18  1  0
 18 19  2  0
 11 20  1  0
 20 21  1  0
 21 22  1  0
 22 23  2  0
 23 24  1  0
 24 25  2  0
 25 26  1  0
 26 27  1  0
 26 28  2  0
 20  2  1  0
 28 22  1  0
  9  3  1  0
 19 14  1  0
  4 29  1  0
  5 30  1  0
  8 31  1  0
 12 32  1  0
 13 33  1  0
 15 34  1  0
 16 35  1  0
 17 36  1  0
 18 37  1  0
 21 38  1  0
 21 39  1  0
 23 40  1  0
 24 41  1  0
 25 42  1  0
 27 43  1  0
 28 44  1  0
M  END
>  <smiles>  (7) 
O=c1c2ccc(Cl)cc2nc(/C=C/c2ccccn2)n1Cc1cccc(O)c1

>  <score_type>  (7) 
oracle

>  <origin>  (7) 
autodockgpu

>  <m_score__min__energy>  (7) 
-8.2200000000000006

>  <m_primary>  (7) 
energy

>  <rmsd>  (7) 
4.394373519875545

>  <m_score__min__rmsd>  (7) 
4.394373519875545

>  <meeko>  (7) 
{"free_energy": -6.67, "intermolecular_energy": -8.46, "internal_energy": -1.79, "cluster_size": 10, "cluster_id": 9, "rank_in_cluster": 1}

>  <energy>  (7) 
-7.91

>  <cluster_rmsd>  (7) 
1.12

>  <cluster>  (7) 
1

$$$$

     RDKit          3D

 44 47  0  0  0  0  0  0  0  0999 V2000
  141.1330   75.2530  221.9550 O   0  0  0  0  0  0  0  0  0  0  0  0
  141.4670   76.1940  221.1910 C   0  0  0  0  0  0  0  0  0  0  0  0
  141.4130   77.4670  221.7210 C   0  0  0  0  0  0  0  0  0  0  0  0
  141.0100   77.6660  223.0220 C   0  0  0  0  0  0  0  0  0  0  0  0
  140.9730   78.9610  223.5060 C   0  0  0  0  0  0  0  0  0  0  0  0
  141.3430   79.9750  222.6490 C   0  0  0  0  0  0  0  0  0  0  0  0
  141.3130   81.6360  223.2130 Cl  0  0  0  0  0  0  0  0  0  0  0  0
  141.7450   79.7630  221.3480 C   0  0  0  0  0  0  0  0  0  0  0  0
  141.7740   78.4820  220.8930 C   0  0  0  0  0  0  0  0  0  0  0  0
  142.1490   78.2280  219.6600 N   0  0  0  0  0  0  0  0  0  0  0  0
  142.2140   76.9770  219.1040 C   0  0  0  0  0  0  0  0  0  0  0  0
  142.6950   76.9350  217.7590 C   0  0  0  0  0  0  0  0  0  0  0  0
  142.9060   75.9610  216.9320 C   0  0  0  0  0  0  0  0  0  0  0  0
  144.0990   75.9470  216.0500 C   0  0  0  0  0  0  0  0  0  0  0  0
  144.1390   76.7170  214.9090 C   0  0  0  0  0  0  0  0  0  0  0  0
  145.2650   76.6990  214.0830 C   0  0  0  0  0  0  0  0  0  0  0  0
  146.3490   75.9040  214.4110 C   0  0  0  0  0  0  0  0  0  0  0  0
  146.2700   75.1470  215.5630 C   0  0  0  0  0  0  0  0  0  0  0  0
  145.1650   75.1950  216.3290 N   0  0  0  0  0  0  0  0  0  0  0  0
  141.8630   75.9700  219.8990 N   0  0  0  0  0  0  0  0  0  0  0  0
  141.8270   74.5780  219.5160 C   0  0  0  0  0  0  0  0  0  0  0  0
  143.0850   73.8530  219.6420 C   0  0  0  0  0  0  0  0  0  0  0  0
  143.1750   72.8750  220.6540 C   0  0  0  0  0  0  0  0  0  0  0  0
  144.3030   72.1160  220.8490 C   0  0  0  0  0  0  0  0  0  0  0  0
  145.4250   72.2630  220.0650 C   0  0  0  0  0  0  0  0  0  0  0  0
  145.3620   73.2120  219.0700 C   0  0  0  0  0  0  0  0  0  0  0  0
  146.4740   73.3890  218.2580 O   0  0  0  0  0  0  0  0  0  0  0  0
  144.2100   73.9840  218.8740 C   0  0  0  0  0  0  0  0  0  0  0  0
  140.7247   76.8168  223.6604 H   0  0  0  0  0  0  0  0  0  0  0  0
  140.6593   79.1742  224.5385 H   0  0  0  0  0  0  0  0  0  0  0  0
  142.0331   80.6029  220.6987 H   0  0  0  0  0  0  0  0  0  0  0  0
  142.9330   77.9256  217.3442 H   0  0  0  0  0  0  0  0  0  0  0  0
  142.1879   75.1292  216.8826 H   0  0  0  0  0  0  0  0  0  0  0  0
  143.2787   77.3502  214.6465 H   0  0  0  0  0  0  0  0  0  0  0  0
  145.2901   77.3161  213.1727 H   0  0  0  0  0  0  0  0  0  0  0  0
  147.2454   75.8760  213.7741 H   0  0  0  0  0  0  0  0  0  0  0  0
  147.1126   74.5031  215.8552 H   0  0  0  0  0  0  0  0  0  0  0  0
  141.0817   74.0732  220.1482 H   0  0  0  0  0  0  0  0  0  0  0  0
  141.5832   74.5694  218.4434 H   0  0  0  0  0  0  0  0  0  0  0  0
  142.3087   72.7139  221.3124 H   0  0  0  0  0  0  0  0  0  0  0  0
  144.3101   71.3683  221.6558 H   0  0  0  0  0  0  0  0  0  0  0  0
  146.3262   71.6530  220.2256 H   0  0  0  0  0  0  0  0  0  0  0  0
  146.6100   74.1250  217.6060 H   0  0  0  0  0  0  0  0  0  0  0  0
  144.2095   74.7299  218.0655 H   0  0  0  0  0  0  0  0  0  0  0  0
  1  2  2  0
  2  3  1  0
  3  4  2  0
  4  5  1  0
  5  6  2  0
  6  7  1  0
  6  8  1  0
  8  9  2  0
  9 10  1  0
 10 11  2  0
 11 12  1  0
 12 13  2  0
 13 14  1  0
 14 15  2  0
 15 16  1  0
 16 17  2  0
 17 18  1  0
 18 19  2  0
 11 20  1  0
 20 21  1  0
 21 22  1  0
 22 23  2  0
 23 24  1  0
 24 25  2  0
 25 26  1  0
 26 27  1  0
 26 28  2  0
 20  2  1  0
 28 22  1  0
  9  3  1  0
 19 14  1  0
  4 29  1  0
  5 30  1  0
  8 31  1  0
 12 32  1  0
 13 33  1  0
 15 34  1  0
 16 35  1  0
 17 36  1  0
 18 37  1  0
 21 38  1  0
 21 39  1  0
 23 40  1  0
 24 41  1  0
 25 42  1  0
 27 43  1  0
 28 44  1  0
M  END
>  <smiles>  (8) 
O=c1c2ccc(Cl)cc2nc(/C=C/c2ccccn2)n1Cc1cccc(O)c1

>  <score_type>  (8) 
oracle

>  <origin>  (8) 
autodockgpu

>  <m_score__min__energy>  (8) 
-8.2200000000000006

>  <m_primary>  (8) 
energy

>  <rmsd>  (8) 
7.738012047639273

>  <m_score__min__rmsd>  (8) 
7.738012047639273

>  <meeko>  (8) 
{"free_energy": -6.73, "intermolecular_energy": -8.52, "internal_energy": -1.63, "cluster_size": 2, "cluster_id": 7, "rank_in_cluster": 1}

>  <energy>  (8) 
-7.91

>  <cluster_rmsd>  (8) 
1.17

>  <cluster>  (8) 
1

$$$$

     RDKit          3D

 44 47  0  0  0  0  0  0  0  0999 V2000
  139.8270   74.4950  221.8140 O   0  0  0  0  0  0  0  0  0  0  0  0
  140.5960   75.2640  221.1840 C   0  0  0  0  0  0  0  0  0  0  0  0
  141.8400   74.7610  220.8580 C   0  0  0  0  0  0  0  0  0  0  0  0
  142.1920   73.4810  221.2190 C   0  0  0  0  0  0  0  0  0  0  0  0
  143.4510   73.0240  220.8690 C   0  0  0  0  0  0  0  0  0  0  0  0
  144.2750   73.8860  220.1790 C   0  0  0  0  0  0  0  0  0  0  0  0
  145.8810   73.3580  219.7130 Cl  0  0  0  0  0  0  0  0  0  0  0  0
  143.9100   75.1670  219.8240 C   0  0  0  0  0  0  0  0  0  0  0  0
  142.6690   75.5950  220.1770 C   0  0  0  0  0  0  0  0  0  0  0  0
  142.2740   76.8080  219.8630 N   0  0  0  0  0  0  0  0  0  0  0  0
  141.0480   77.3360  220.1700 C   0  0  0  0  0  0  0  0  0  0  0  0
  140.8190   78.6610  219.6850 C   0  0  0  0  0  0  0  0  0  0  0  0
  141.4490   79.7800  219.8590 C   0  0  0  0  0  0  0  0  0  0  0  0
  141.8410   80.2380  221.2150 C   0  0  0  0  0  0  0  0  0  0  0  0
  141.4550   81.4770  221.6770 C   0  0  0  0  0  0  0  0  0  0  0  0
  141.8270   81.9020  222.9540 C   0  0  0  0  0  0  0  0  0  0  0  0
  142.5870   81.0760  223.7620 C   0  0  0  0  0  0  0  0  0  0  0  0
  142.9540   79.8420  223.2630 C   0  0  0  0  0  0  0  0  0  0  0  0
  142.5730   79.4740  222.0250 N   0  0  0  0  0  0  0  0  0  0  0  0
  140.2220   76.5350  220.8370 N   0  0  0  0  0  0  0  0  0  0  0  0
  138.8970   76.8910  221.2890 C   0  0  0  0  0  0  0  0  0  0  0  0
  138.8120   78.0770  222.1320 C   0  0  0  0  0  0  0  0  0  0  0  0
  139.8370   78.2770  223.0800 C   0  0  0  0  0  0  0  0  0  0  0  0
  139.8710   79.3710  223.9100 C   0  0  0  0  0  0  0  0  0  0  0  0
  138.9010   80.3470  223.8700 C   0  0  0  0  0  0  0  0  0  0  0  0
  137.8900   80.1750  222.9520 C   0  0  0  0  0  0  0  0  0  0  0  0
  136.8940   81.1390  222.8810 O   0  0  0  0  0  0  0  0  0  0  0  0
  137.8590   79.0580  222.1070 C   0  0  0  0  0  0  0  0  0  0  0  0
  141.4914   72.8375  221.7713 H   0  0  0  0  0  0  0  0  0  0  0  0
  143.7818   72.0086  221.1325 H   0  0  0  0  0  0  0  0  0  0  0  0
  144.6008   75.8219  219.2727 H   0  0  0  0  0  0  0  0  0  0  0  0
  139.9344   78.7478  219.0369 H   0  0  0  0  0  0  0  0  0  0  0  0
  141.6976   80.4014  218.9860 H   0  0  0  0  0  0  0  0  0  0  0  0
  140.8502   82.1354  221.0362 H   0  0  0  0  0  0  0  0  0  0  0  0
  141.5159   82.8927  223.3169 H   0  0  0  0  0  0  0  0  0  0  0  0
  142.8898   81.3924  224.7711 H   0  0  0  0  0  0  0  0  0  0  0  0
  143.5584   79.1586  223.8776 H   0  0  0  0  0  0  0  0  0  0  0  0
  138.2721   77.0631  220.4003 H   0  0  0  0  0  0  0  0  0  0  0  0
  138.5603   76.0531  221.9171 H   0  0  0  0  0  0  0  0  0  0  0  0
  140.6395   77.5287  223.1576 H   0  0  0  0  0  0  0  0  0  0  0  0
  140.6982   79.4702  224.6283 H   0  0  0  0  0  0  0  0  0  0  0  0
  138.9323   81.2203  224.5380 H   0  0  0  0  0  0  0  0  0  0  0  0
  135.9760   81.0050  222.5280 H   0  0  0  0  0  0  0  0  0  0  0  0
  137.0298   78.9655  221.3901 H   0  0  0  0  0  0  0  0  0  0  0  0
  1  2  2  0
  2  3  1  0
  3  4  2  0
  4  5  1  0
  5  6  2  0
  6  7  1  0
  6  8  1  0
  8  9  2  0
  9 10  1  0
 10 11  2  0
 11 12  1  0
 12 13  2  0
 13 14  1  0
 14 15  2  0
 15 16  1  0
 16 17  2  0
 17 18  1  0
 18 19  2  0
 11 20  1  0
 20 21  1  0
 21 22  1  0
 22 23  2  0
 23 24  1  0
 24 25  2  0
 25 26  1  0
 26 27  1  0
 26 28  2  0
 20  2  1  0
 28 22  1  0
  9  3  1  0
 19 14  1  0
  4 29  1  0
  5 30  1  0
  8 31  1  0
 12 32  1  0
 13 33  1  0
 15 34  1  0
 16 35  1  0
 17 36  1  0
 18 37  1  0
 21 38  1  0
 21 39  1  0
 23 40  1  0
 24 41  1  0
 25 42  1  0
 27 43  1  0
 28 44  1  0
M  END
>  <smiles>  (9) 
O=c1c2ccc(Cl)cc2nc(/C=C/c2ccccn2)n1Cc1cccc(O)c1

>  <score_type>  (9) 
oracle

>  <origin>  (9) 
autodockgpu

>  <m_score__min__energy>  (9) 
-8.2200000000000006

>  <m_primary>  (9) 
energy

>  <rmsd>  (9) 
4.389373031539574

>  <m_score__min__rmsd>  (9) 
4.389373031539574

>  <meeko>  (9) 
{"free_energy": -6.65, "intermolecular_energy": -8.44, "internal_energy": -1.81, "cluster_size": 10, "cluster_id": 9, "rank_in_cluster": 2}

>  <energy>  (9) 
-7.88

>  <cluster_rmsd>  (9) 
1.04

>  <cluster>  (9) 
1

$$$$

     RDKit          3D

 44 47  0  0  0  0  0  0  0  0999 V2000
  142.1290   75.2670  218.7950 O   0  0  0  0  0  0  0  0  0  0  0  0
  141.6060   75.1450  219.9320 C   0  0  0  0  0  0  0  0  0  0  0  0
  141.5010   76.2940  220.6890 C   0  0  0  0  0  0  0  0  0  0  0  0
  141.9550   77.4970  220.2000 C   0  0  0  0  0  0  0  0  0  0  0  0
  141.8270   78.6200  220.9990 C   0  0  0  0  0  0  0  0  0  0  0  0
  141.2510   78.4590  222.2400 C   0  0  0  0  0  0  0  0  0  0  0  0
  141.0660   79.8500  223.2930 Cl  0  0  0  0  0  0  0  0  0  0  0  0
  140.8000   77.2480  222.7190 C   0  0  0  0  0  0  0  0  0  0  0  0
  140.9350   76.1580  221.9170 C   0  0  0  0  0  0  0  0  0  0  0  0
  140.5220   74.9810  222.3280 N   0  0  0  0  0  0  0  0  0  0  0  0
  140.6110   73.8220  221.6020 C   0  0  0  0  0  0  0  0  0  0  0  0
  140.0530   72.6680  222.2310 C   0  0  0  0  0  0  0  0  0  0  0  0
  140.5710   71.5480  222.6270 C   0  0  0  0  0  0  0  0  0  0  0  0
  140.3320   71.0340  223.9990 C   0  0  0  0  0  0  0  0  0  0  0  0
  141.0510   71.5220  225.0680 C   0  0  0  0  0  0  0  0  0  0  0  0
  140.8210   71.0340  226.3560 C   0  0  0  0  0  0  0  0  0  0  0  0
  139.8650   70.0560  226.5630 C   0  0  0  0  0  0  0  0  0  0  0  0
  139.1650   69.5940  225.4660 C   0  0  0  0  0  0  0  0  0  0  0  0
  139.4200   70.0920  224.2430 N   0  0  0  0  0  0  0  0  0  0  0  0
  141.1630   73.9350  220.3970 N   0  0  0  0  0  0  0  0  0  0  0  0
  141.3840   72.8450  219.4750 C   0  0  0  0  0  0  0  0  0  0  0  0
  142.7370   72.3040  219.4460 C   0  0  0  0  0  0  0  0  0  0  0  0
  142.8960   70.9330  219.7380 C   0  0  0  0  0  0  0  0  0  0  0  0
  144.1210   70.3120  219.7170 C   0  0  0  0  0  0  0  0  0  0  0  0
  145.2780   70.9920  219.4100 C   0  0  0  0  0  0  0  0  0  0  0  0
  145.1490   72.3320  219.1210 C   0  0  0  0  0  0  0  0  0  0  0  0
  146.2930   73.0510  218.8060 O   0  0  0  0  0  0  0  0  0  0  0  0
  143.8980   72.9610  219.1430 C   0  0  0  0  0  0  0  0  0  0  0  0
  142.4080   77.5647  219.1999 H   0  0  0  0  0  0  0  0  0  0  0  0
  142.1729   79.6060  220.6552 H   0  0  0  0  0  0  0  0  0  0  0  0
  140.3457   77.1658  223.7174 H   0  0  0  0  0  0  0  0  0  0  0  0
  138.9713   72.7446  222.4157 H   0  0  0  0  0  0  0  0  0  0  0  0
  141.1987   70.9681  221.9344 H   0  0  0  0  0  0  0  0  0  0  0  0
  141.8108   72.3007  224.9060 H   0  0  0  0  0  0  0  0  0  0  0  0
  141.3995   71.4269  227.2051 H   0  0  0  0  0  0  0  0  0  0  0  0
  139.6685   69.6588  227.5698 H   0  0  0  0  0  0  0  0  0  0  0  0
  138.3970   68.8168  225.5928 H   0  0  0  0  0  0  0  0  0  0  0  0
  140.6996   72.0282  219.7476 H   0  0  0  0  0  0  0  0  0  0  0  0
  141.2067   73.2609  218.4722 H   0  0  0  0  0  0  0  0  0  0  0  0
  142.0056   70.3391  219.9920 H   0  0  0  0  0  0  0  0  0  0  0  0
  144.1793   69.2391  219.9525 H   0  0  0  0  0  0  0  0  0  0  0  0
  146.2566   70.4899  219.3963 H   0  0  0  0  0  0  0  0  0  0  0  0
  146.3340   74.0190  218.5930 H   0  0  0  0  0  0  0  0  0  0  0  0
  143.8465   74.0338  218.9055 H   0  0  0  0  0  0  0  0  0  0  0  0
  1  2  2  0
  2  3  1  0
  3  4  2  0
  4  5  1  0
  5  6  2  0
  6  7  1  0
  6  8  1  0
  8  9  2  0
  9 10  1  0
 10 11  2  0
 11 12  1  0
 12 13  2  0
 13 14  1  0
 14 15  2  0
 15 16  1  0
 16 17  2  0
 17 18  1  0
 18 19  2  0
 11 20  1  0
 20 21  1  0
 21 22  1  0
 22 23  2  0
 23 24  1  0
 24 25  2  0
 25 26  1  0
 26 27  1  0
 26 28  2  0
 20  2  1  0
 28 22  1  0
  9  3  1  0
 19 14  1  0
  4 29  1  0
  5 30  1  0
  8 31  1  0
 12 32  1  0
 13 33  1  0
 15 34  1  0
 16 35  1  0
 17 36  1  0
 18 37  1  0
 21 38  1  0
 21 39  1  0
 23 40  1  0
 24 41  1  0
 25 42  1  0
 27 43  1  0
 28 44  1  0
M  END
>  <smiles>  (10) 
O=c1c2ccc(Cl)cc2nc(/C=C/c2ccccn2)n1Cc1cccc(O)c1

>  <score_type>  (10) 
oracle

>  <origin>  (10) 
autodockgpu

>  <m_score__min__energy>  (10) 
-8.2200000000000006

>  <m_primary>  (10) 
energy

>  <rmsd>  (10) 
8.291244277534538

>  <m_score__min__rmsd>  (10) 
8.291244277534538

>  <meeko>  (10) 
{"free_energy": -7.92, "intermolecular_energy": -9.71, "internal_energy": -0.97, "cluster_size": 18, "cluster_id": 1, "rank_in_cluster": 6}

>  <energy>  (10) 
-7.87

>  <cluster_rmsd>  (10) 
0.67

>  <cluster>  (10) 
1

$$$$

     RDKit          3D

 44 47  0  0  0  0  0  0  0  0999 V2000
  139.8400   74.5230  221.7610 O   0  0  0  0  0  0  0  0  0  0  0  0
  140.6210   75.2940  221.1480 C   0  0  0  0  0  0  0  0  0  0  0  0
  141.8690   74.7900  220.8400 C   0  0  0  0  0  0  0  0  0  0  0  0
  142.2130   73.5060  221.2000 C   0  0  0  0  0  0  0  0  0  0  0  0
  143.4760   73.0490  220.8690 C   0  0  0  0  0  0  0  0  0  0  0  0
  144.3130   73.9120  220.1970 C   0  0  0  0  0  0  0  0  0  0  0  0
  145.9260   73.3820  219.7550 Cl  0  0  0  0  0  0  0  0  0  0  0  0
  143.9580   75.1960  219.8420 C   0  0  0  0  0  0  0  0  0  0  0  0
  142.7120   75.6250  220.1770 C   0  0  0  0  0  0  0  0  0  0  0  0
  142.3250   76.8400  219.8620 N   0  0  0  0  0  0  0  0  0  0  0  0
  141.0950   77.3700  220.1510 C   0  0  0  0  0  0  0  0  0  0  0  0
  140.8770   78.6970  219.6700 C   0  0  0  0  0  0  0  0  0  0  0  0
  141.4940   79.8180  219.8760 C   0  0  0  0  0  0  0  0  0  0  0  0
  141.8560   80.2550  221.2470 C   0  0  0  0  0  0  0  0  0  0  0  0
  141.4670   81.4890  221.7180 C   0  0  0  0  0  0  0  0  0  0  0  0
  141.8110   81.8940  223.0090 C   0  0  0  0  0  0  0  0  0  0  0  0
  142.5450   81.0520  223.8240 C   0  0  0  0  0  0  0  0  0  0  0  0
  142.9150   79.8220  223.3160 C   0  0  0  0  0  0  0  0  0  0  0  0
  142.5620   79.4740  222.0650 N   0  0  0  0  0  0  0  0  0  0  0  0
  140.2570   76.5670  220.8010 N   0  0  0  0  0  0  0  0  0  0  0  0
  138.9250   76.9240  221.2330 C   0  0  0  0  0  0  0  0  0  0  0  0
  138.8280   78.1100  222.0750 C   0  0  0  0  0  0  0  0  0  0  0  0
  139.7970   78.2700  223.0880 C   0  0  0  0  0  0  0  0  0  0  0  0
  139.8160   79.3590  223.9250 C   0  0  0  0  0  0  0  0  0  0  0  0
  138.8850   80.3700  223.8270 C   0  0  0  0  0  0  0  0  0  0  0  0
  137.9290   80.2360  222.8460 C   0  0  0  0  0  0  0  0  0  0  0  0
  136.9740   81.2350  222.7170 O   0  0  0  0  0  0  0  0  0  0  0  0
  137.9130   79.1240  221.9950 C   0  0  0  0  0  0  0  0  0  0  0  0
  141.5020   72.8607  221.7367 H   0  0  0  0  0  0  0  0  0  0  0  0
  143.8005   72.0317  221.1333 H   0  0  0  0  0  0  0  0  0  0  0  0
  144.6595   75.8517  219.3055 H   0  0  0  0  0  0  0  0  0  0  0  0
  140.0160   78.7849  218.9911 H   0  0  0  0  0  0  0  0  0  0  0  0
  141.7540   80.4569  219.0191 H   0  0  0  0  0  0  0  0  0  0  0  0
  140.8812   82.1602  221.0727 H   0  0  0  0  0  0  0  0  0  0  0  0
  141.4984   82.8821  223.3776 H   0  0  0  0  0  0  0  0  0  0  0  0
  142.8253   81.3522  224.8445 H   0  0  0  0  0  0  0  0  0  0  0  0
  143.4994   79.1256  223.9353 H   0  0  0  0  0  0  0  0  0  0  0  0
  138.3138   77.0967  220.3349 H   0  0  0  0  0  0  0  0  0  0  0  0
  138.5782   76.0862  221.8557 H   0  0  0  0  0  0  0  0  0  0  0  0
  140.5662   77.4935  223.2122 H   0  0  0  0  0  0  0  0  0  0  0  0
  140.5975   79.4259  224.6962 H   0  0  0  0  0  0  0  0  0  0  0  0
  138.9048   81.2406  224.4991 H   0  0  0  0  0  0  0  0  0  0  0  0
  136.4040   81.3980  221.9220 H   0  0  0  0  0  0  0  0  0  0  0  0
  137.1283   79.0629  221.2265 H   0  0  0  0  0  0  0  0  0  0  0  0
  1  2  2  0
  2  3  1  0
  3  4  2  0
  4  5  1  0
  5  6  2  0
  6  7  1  0
  6  8  1  0
  8  9  2  0
  9 10  1  0
 10 11  2  0
 11 12  1  0
 12 13  2  0
 13 14  1  0
 14 15  2  0
 15 16  1  0
 16 17  2  0
 17 18  1  0
 18 19  2  0
 11 20  1  0
 20 21  1  0
 21 22  1  0
 22 23  2  0
 23 24  1  0
 24 25  2  0
 25 26  1  0
 26 27  1  0
 26 28  2  0
 20  2  1  0
 28 22  1  0
  9  3  1  0
 19 14  1  0
  4 29  1  0
  5 30  1  0
  8 31  1  0
 12 32  1  0
 13 33  1  0
 15 34  1  0
 16 35  1  0
 17 36  1  0
 18 37  1  0
 21 38  1  0
 21 39  1  0
 23 40  1  0
 24 41  1  0
 25 42  1  0
 27 43  1  0
 28 44  1  0
M  END
>  <smiles>  (11) 
O=c1c2ccc(Cl)cc2nc(/C=C/c2ccccn2)n1Cc1cccc(O)c1

>  <score_type>  (11) 
oracle

>  <origin>  (11) 
autodockgpu

>  <m_score__min__energy>  (11) 
-8.2200000000000006

>  <m_primary>  (11) 
energy

>  <rmsd>  (11) 
4.356941863432119

>  <m_score__min__rmsd>  (11) 
4.356941863432119

>  <meeko>  (11) 
{"free_energy": -6.61, "intermolecular_energy": -8.4, "internal_energy": -1.84, "cluster_size": 10, "cluster_id": 9, "rank_in_cluster": 5}

>  <energy>  (11) 
-7.86

>  <cluster_rmsd>  (11) 
0.91

>  <cluster>  (11) 
1

$$$$

     RDKit          3D

 44 47  0  0  0  0  0  0  0  0999 V2000
  140.6190   74.5580  221.9750 O   0  0  0  0  0  0  0  0  0  0  0  0
  141.4510   74.9500  221.1180 C   0  0  0  0  0  0  0  0  0  0  0  0
  142.3960   74.0310  220.7100 C   0  0  0  0  0  0  0  0  0  0  0  0
  142.4050   72.7580  221.2340 C   0  0  0  0  0  0  0  0  0  0  0  0
  143.3740   71.8750  220.7920 C   0  0  0  0  0  0  0  0  0  0  0  0
  144.2730   72.3290  219.8530 C   0  0  0  0  0  0  0  0  0  0  0  0
  145.5230   71.2490  219.2610 Cl  0  0  0  0  0  0  0  0  0  0  0  0
  144.2550   73.6060  219.3360 C   0  0  0  0  0  0  0  0  0  0  0  0
  143.2940   74.4580  219.7840 C   0  0  0  0  0  0  0  0  0  0  0  0
  143.2340   75.6870  219.3230 N   0  0  0  0  0  0  0  0  0  0  0  0
  142.3090   76.6220  219.7060 C   0  0  0  0  0  0  0  0  0  0  0  0
  142.4060   77.8810  219.0370 C   0  0  0  0  0  0  0  0  0  0  0  0
  141.5200   78.6670  218.5120 C   0  0  0  0  0  0  0  0  0  0  0  0
  141.0150   79.8540  219.2450 C   0  0  0  0  0  0  0  0  0  0  0  0
  139.6660   80.0280  219.4600 C   0  0  0  0  0  0  0  0  0  0  0  0
  139.1980   81.1470  220.1500 C   0  0  0  0  0  0  0  0  0  0  0  0
  140.0930   82.0890  220.6250 C   0  0  0  0  0  0  0  0  0  0  0  0
  141.4380   81.8790  220.3910 C   0  0  0  0  0  0  0  0  0  0  0  0
  141.8440   80.7850  219.7200 N   0  0  0  0  0  0  0  0  0  0  0  0
  141.4220   76.2230  220.6130 N   0  0  0  0  0  0  0  0  0  0  0  0
  140.3800   77.0460  221.1810 C   0  0  0  0  0  0  0  0  0  0  0  0
  140.8300   78.1370  222.0360 C   0  0  0  0  0  0  0  0  0  0  0  0
  139.8920   78.6890  222.9340 C   0  0  0  0  0  0  0  0  0  0  0  0
  140.2110   79.7050  223.8020 C   0  0  0  0  0  0  0  0  0  0  0  0
  141.4740   80.2520  223.8510 C   0  0  0  0  0  0  0  0  0  0  0  0
  142.4070   79.7300  222.9840 C   0  0  0  0  0  0  0  0  0  0  0  0
  143.6910   80.2560  223.0040 O   0  0  0  0  0  0  0  0  0  0  0  0
  142.0770   78.6950  222.1000 C   0  0  0  0  0  0  0  0  0  0  0  0
  141.6614   72.4510  221.9842 H   0  0  0  0  0  0  0  0  0  0  0  0
  143.4245   70.8459  221.1773 H   0  0  0  0  0  0  0  0  0  0  0  0
  144.9933   73.9259  218.5859 H   0  0  0  0  0  0  0  0  0  0  0  0
  143.4362   78.2569  218.9508 H   0  0  0  0  0  0  0  0  0  0  0  0
  141.1352   78.4504  217.5045 H   0  0  0  0  0  0  0  0  0  0  0  0
  138.9523   79.2796  219.0852 H   0  0  0  0  0  0  0  0  0  0  0  0
  138.1188   81.2800  220.3160 H   0  0  0  0  0  0  0  0  0  0  0  0
  139.7444   82.9774  221.1719 H   0  0  0  0  0  0  0  0  0  0  0  0
  142.1786   82.6070  220.7536 H   0  0  0  0  0  0  0  0  0  0  0  0
  139.8045   77.4825  220.3514 H   0  0  0  0  0  0  0  0  0  0  0  0
  139.7930   76.3797  221.8302 H   0  0  0  0  0  0  0  0  0  0  0  0
  138.8666   78.2908  222.9393 H   0  0  0  0  0  0  0  0  0  0  0  0
  139.4347   80.0931  224.4778 H   0  0  0  0  0  0  0  0  0  0  0  0
  141.7246   81.0652  224.5480 H   0  0  0  0  0  0  0  0  0  0  0  0
  144.4020   80.0880  222.3320 H   0  0  0  0  0  0  0  0  0  0  0  0
  142.8574   78.3130  221.4255 H   0  0  0  0  0  0  0  0  0  0  0  0
  1  2  2  0
  2  3  1  0
  3  4  2  0
  4  5  1  0
  5  6  2  0
  6  7  1  0
  6  8  1  0
  8  9  2  0
  9 10  1  0
 10 11  2  0
 11 12  1  0
 12 13  2  0
 13 14  1  0
 14 15  2  0
 15 16  1  0
 16 17  2  0
 17 18  1  0
 18 19  2  0
 11 20  1  0
 20 21  1  0
 21 22  1  0
 22 23  2  0
 23 24  1  0
 24 25  2  0
 25 26  1  0
 26 27  1  0
 26 28  2  0
 20  2  1  0
 28 22  1  0
  9  3  1  0
 19 14  1  0
  4 29  1  0
  5 30  1  0
  8 31  1  0
 12 32  1  0
 13 33  1  0
 15 34  1  0
 16 35  1  0
 17 36  1  0
 18 37  1  0
 21 38  1  0
 21 39  1  0
 23 40  1  0
 24 41  1  0
 25 42  1  0
 27 43  1  0
 28 44  1  0
M  END
>  <smiles>  (12) 
O=c1c2ccc(Cl)cc2nc(/C=C/c2ccccn2)n1Cc1cccc(O)c1

>  <score_type>  (12) 
oracle

>  <origin>  (12) 
autodockgpu

>  <m_score__min__energy>  (12) 
-8.2200000000000006

>  <m_primary>  (12) 
energy

>  <rmsd>  (12) 
4.378054963017938

>  <m_score__min__rmsd>  (12) 
4.378054963017938

>  <meeko>  (12) 
{"free_energy": -6.61, "intermolecular_energy": -8.4, "internal_energy": -1.7, "cluster_size": 7, "cluster_id": 6, "rank_in_cluster": 5}

>  <energy>  (12) 
-7.85

>  <cluster_rmsd>  (12) 
1.13

>  <cluster>  (12) 
1

$$$$

     RDKit          3D

 44 47  0  0  0  0  0  0  0  0999 V2000
  136.5260   76.4120  222.2820 O   0  0  0  0  0  0  0  0  0  0  0  0
  137.6790   75.9130  222.2340 C   0  0  0  0  0  0  0  0  0  0  0  0
  138.7350   76.7820  222.4190 C   0  0  0  0  0  0  0  0  0  0  0  0
  138.5070   78.1210  222.6410 C   0  0  0  0  0  0  0  0  0  0  0  0
  139.6000   78.9510  222.8200 C   0  0  0  0  0  0  0  0  0  0  0  0
  140.8530   78.3800  222.7630 C   0  0  0  0  0  0  0  0  0  0  0  0
  142.2720   79.3880  222.9820 Cl  0  0  0  0  0  0  0  0  0  0  0  0
  141.0680   77.0370  222.5400 C   0  0  0  0  0  0  0  0  0  0  0  0
  139.9800   76.2400  222.3670 C   0  0  0  0  0  0  0  0  0  0  0  0
  140.1320   74.9530  222.1500 N   0  0  0  0  0  0  0  0  0  0  0  0
  139.1070   74.0640  221.9640 C   0  0  0  0  0  0  0  0  0  0  0  0
  139.5070   72.7040  221.7910 C   0  0  0  0  0  0  0  0  0  0  0  0
  139.1320   71.6000  222.3560 C   0  0  0  0  0  0  0  0  0  0  0  0
  139.5770   71.2500  223.7280 C   0  0  0  0  0  0  0  0  0  0  0  0
  138.9210   70.2810  224.4550 C   0  0  0  0  0  0  0  0  0  0  0  0
  139.3450   69.9560  225.7450 C   0  0  0  0  0  0  0  0  0  0  0  0
  140.4310   70.6100  226.2990 C   0  0  0  0  0  0  0  0  0  0  0  0
  141.0620   71.5740  225.5390 C   0  0  0  0  0  0  0  0  0  0  0  0
  140.6190   71.8550  224.3000 N   0  0  0  0  0  0  0  0  0  0  0  0
  137.8800   74.5770  222.0100 N   0  0  0  0  0  0  0  0  0  0  0  0
  136.6570   73.8340  221.8120 C   0  0  0  0  0  0  0  0  0  0  0  0
  135.9700   73.4080  223.0250 C   0  0  0  0  0  0  0  0  0  0  0  0
  135.8310   72.0210  223.2410 C   0  0  0  0  0  0  0  0  0  0  0  0
  135.2220   71.5060  224.3590 C   0  0  0  0  0  0  0  0  0  0  0  0
  134.7050   72.3160  225.3460 C   0  0  0  0  0  0  0  0  0  0  0  0
  134.8300   73.6740  225.1580 C   0  0  0  0  0  0  0  0  0  0  0  0
  134.3220   74.5220  226.1320 O   0  0  0  0  0  0  0  0  0  0  0  0
  135.4520   74.1950  224.0160 C   0  0  0  0  0  0  0  0  0  0  0  0
  137.4829   78.5211  222.6753 H   0  0  0  0  0  0  0  0  0  0  0  0
  139.4731   80.0285  223.0014 H   0  0  0  0  0  0  0  0  0  0  0  0
  142.0866   76.6234  222.5032 H   0  0  0  0  0  0  0  0  0  0  0  0
  140.2871   72.5667  221.0277 H   0  0  0  0  0  0  0  0  0  0  0  0
  138.4723   70.9101  221.8093 H   0  0  0  0  0  0  0  0  0  0  0  0
  138.0574   69.7598  224.0163 H   0  0  0  0  0  0  0  0  0  0  0  0
  138.8165   69.1813  226.3198 H   0  0  0  0  0  0  0  0  0  0  0  0
  140.7807   70.3692  227.3137 H   0  0  0  0  0  0  0  0  0  0  0  0
  141.9291   72.1138  225.9472 H   0  0  0  0  0  0  0  0  0  0  0  0
  135.9658   74.4685  221.2378 H   0  0  0  0  0  0  0  0  0  0  0  0
  136.9500   72.9089  221.2941 H   0  0  0  0  0  0  0  0  0  0  0  0
  136.2253   71.3256  222.4854 H   0  0  0  0  0  0  0  0  0  0  0  0
  135.1448   70.4143  224.4696 H   0  0  0  0  0  0  0  0  0  0  0  0
  134.2170   71.8988  226.2392 H   0  0  0  0  0  0  0  0  0  0  0  0
  134.1670   75.4970  226.0340 H   0  0  0  0  0  0  0  0  0  0  0  0
  135.5272   75.2875  223.9117 H   0  0  0  0  0  0  0  0  0  0  0  0
  1  2  2  0
  2  3  1  0
  3  4  2  0
  4  5  1  0
  5  6  2  0
  6  7  1  0
  6  8  1  0
  8  9  2  0
  9 10  1  0
 10 11  2  0
 11 12  1  0
 12 13  2  0
 13 14  1  0
 14 15  2  0
 15 16  1  0
 16 17  2  0
 17 18  1  0
 18 19  2  0
 11 20  1  0
 20 21  1  0
 21 22  1  0
 22 23  2  0
 23 24  1  0
 24 25  2  0
 25 26  1  0
 26 27  1  0
 26 28  2  0
 20  2  1  0
 28 22  1  0
  9  3  1  0
 19 14  1  0
  4 29  1  0
  5 30  1  0
  8 31  1  0
 12 32  1  0
 13 33  1  0
 15 34  1  0
 16 35  1  0
 17 36  1  0
 18 37  1  0
 21 38  1  0
 21 39  1  0
 23 40  1  0
 24 41  1  0
 25 42  1  0
 27 43  1  0
 28 44  1  0
M  END
>  <smiles>  (13) 
O=c1c2ccc(Cl)cc2nc(/C=C/c2ccccn2)n1Cc1cccc(O)c1

>  <score_type>  (13) 
oracle

>  <origin>  (13) 
autodockgpu

>  <m_score__min__energy>  (13) 
-8.2200000000000006

>  <m_primary>  (13) 
energy

>  <rmsd>  (13) 
8.114195207913719

>  <m_score__min__rmsd>  (13) 
8.114195207913719

>  <meeko>  (13) 
{"free_energy": -6.9, "intermolecular_energy": -8.69, "internal_energy": -1.42, "cluster_size": 5, "cluster_id": 5, "rank_in_cluster": 2}

>  <energy>  (13) 
-7.8

>  <cluster_rmsd>  (13) 
1.01

>  <cluster>  (13) 
1

$$$$

     RDKit          3D

 44 47  0  0  0  0  0  0  0  0999 V2000
  140.6350   74.5670  221.9720 O   0  0  0  0  0  0  0  0  0  0  0  0
  141.4600   74.9510  221.1040 C   0  0  0  0  0  0  0  0  0  0  0  0
  142.4020   74.0280  220.6970 C   0  0  0  0  0  0  0  0  0  0  0  0
  142.4150   72.7600  221.2330 C   0  0  0  0  0  0  0  0  0  0  0  0
  143.3810   71.8730  220.7930 C   0  0  0  0  0  0  0  0  0  0  0  0
  144.2720   72.3180  219.8420 C   0  0  0  0  0  0  0  0  0  0  0  0
  145.5170   71.2330  219.2500 Cl  0  0  0  0  0  0  0  0  0  0  0  0
  144.2500   73.5910  219.3130 C   0  0  0  0  0  0  0  0  0  0  0  0
  143.2920   74.4460  219.7600 C   0  0  0  0  0  0  0  0  0  0  0  0
  143.2280   75.6710  219.2880 N   0  0  0  0  0  0  0  0  0  0  0  0
  142.3060   76.6100  219.6690 C   0  0  0  0  0  0  0  0  0  0  0  0
  142.3970   77.8620  218.9870 C   0  0  0  0  0  0  0  0  0  0  0  0
  141.5050   78.6530  218.4800 C   0  0  0  0  0  0  0  0  0  0  0  0
  141.0330   79.8510  219.2180 C   0  0  0  0  0  0  0  0  0  0  0  0
  141.8980   80.8830  219.5100 C   0  0  0  0  0  0  0  0  0  0  0  0
  141.4470   82.0070  220.2060 C   0  0  0  0  0  0  0  0  0  0  0  0
  140.1250   82.0890  220.6030 C   0  0  0  0  0  0  0  0  0  0  0  0
  139.2900   81.0340  220.2910 C   0  0  0  0  0  0  0  0  0  0  0  0
  139.7670   79.9700  219.6200 N   0  0  0  0  0  0  0  0  0  0  0  0
  141.4270   76.2190  220.5870 N   0  0  0  0  0  0  0  0  0  0  0  0
  140.3890   77.0480  221.1550 C   0  0  0  0  0  0  0  0  0  0  0  0
  140.8440   78.1350  222.0130 C   0  0  0  0  0  0  0  0  0  0  0  0
  139.9130   78.6830  222.9200 C   0  0  0  0  0  0  0  0  0  0  0  0
  140.2380   79.6940  223.7910 C   0  0  0  0  0  0  0  0  0  0  0  0
  141.5010   80.2400  223.8340 C   0  0  0  0  0  0  0  0  0  0  0  0
  142.4280   79.7220  222.9590 C   0  0  0  0  0  0  0  0  0  0  0  0
  143.7130   80.2470  222.9740 O   0  0  0  0  0  0  0  0  0  0  0  0
  142.0930   78.6910  222.0730 C   0  0  0  0  0  0  0  0  0  0  0  0
  141.6766   72.4601  221.9912 H   0  0  0  0  0  0  0  0  0  0  0  0
  143.4355   70.8482  221.1889 H   0  0  0  0  0  0  0  0  0  0  0  0
  144.9828   73.9044  218.5549 H   0  0  0  0  0  0  0  0  0  0  0  0
  143.4282   78.2264  218.8690 H   0  0  0  0  0  0  0  0  0  0  0  0
  141.0903   78.4329  217.4852 H   0  0  0  0  0  0  0  0  0  0  0  0
  142.9496   80.8214  219.1932 H   0  0  0  0  0  0  0  0  0  0  0  0
  142.1431   82.8265  220.4381 H   0  0  0  0  0  0  0  0  0  0  0  0
  139.7502   82.9667  221.1500 H   0  0  0  0  0  0  0  0  0  0  0  0
  138.2324   81.0638  220.5919 H   0  0  0  0  0  0  0  0  0  0  0  0
  139.8177   77.4895  220.3251 H   0  0  0  0  0  0  0  0  0  0  0  0
  139.7970   76.3842  221.8022 H   0  0  0  0  0  0  0  0  0  0  0  0
  138.8874   78.2854  222.9301 H   0  0  0  0  0  0  0  0  0  0  0  0
  139.4665   80.0787  224.4742 H   0  0  0  0  0  0  0  0  0  0  0  0
  141.7564   81.0500  224.5330 H   0  0  0  0  0  0  0  0  0  0  0  0
  144.4450   80.0170  222.3450 H   0  0  0  0  0  0  0  0  0  0  0  0
  142.8698   78.3102  221.3936 H   0  0  0  0  0  0  0  0  0  0  0  0
  1  2  2  0
  2  3  1  0
  3  4  2  0
  4  5  1  0
  5  6  2  0
  6  7  1  0
  6  8  1  0
  8  9  2  0
  9 10  1  0
 10 11  2  0
 11 12  1  0
 12 13  2  0
 13 14  1  0
 14 15  2  0
 15 16  1  0
 16 17  2  0
 17 18  1  0
 18 19  2  0
 11 20  1  0
 20 21  1  0
 21 22  1  0
 22 23  2  0
 23 24  1  0
 24 25  2  0
 25 26  1  0
 26 27  1  0
 26 28  2  0
 20  2  1  0
 28 22  1  0
  9  3  1  0
 19 14  1  0
  4 29  1  0
  5 30  1  0
  8 31  1  0
 12 32  1  0
 13 33  1  0
 15 34  1  0
 16 35  1  0
 17 36  1  0
 18 37  1  0
 21 38  1  0
 21 39  1  0
 23 40  1  0
 24 41  1  0
 25 42  1  0
 27 43  1  0
 28 44  1  0
M  END
>  <smiles>  (14) 
O=c1c2ccc(Cl)cc2nc(/C=C/c2ccccn2)n1Cc1cccc(O)c1

>  <score_type>  (14) 
oracle

>  <origin>  (14) 
autodockgpu

>  <m_score__min__energy>  (14) 
-8.2200000000000006

>  <m_primary>  (14) 
energy

>  <rmsd>  (14) 
4.382835253141388

>  <m_score__min__rmsd>  (14) 
4.382835253141388

>  <meeko>  (14) 
{"free_energy": -6.71, "intermolecular_energy": -8.5, "internal_energy": -1.71, "cluster_size": 7, "cluster_id": 6, "rank_in_cluster": 4}

>  <energy>  (14) 
-7.78

>  <cluster_rmsd>  (14) 
1.05

>  <cluster>  (14) 
1

$$$$

     RDKit          3D

 44 47  0  0  0  0  0  0  0  0999 V2000
  140.5640   74.5490  222.1260 O   0  0  0  0  0  0  0  0  0  0  0  0
  141.3520   74.9790  221.2460 C   0  0  0  0  0  0  0  0  0  0  0  0
  142.2760   74.0800  220.7540 C   0  0  0  0  0  0  0  0  0  0  0  0
  142.3100   72.7860  221.2230 C   0  0  0  0  0  0  0  0  0  0  0  0
  143.2560   71.9240  220.6970 C   0  0  0  0  0  0  0  0  0  0  0  0
  144.1080   72.4190  219.7340 C   0  0  0  0  0  0  0  0  0  0  0  0
  145.3270   71.3680  219.0360 Cl  0  0  0  0  0  0  0  0  0  0  0  0
  144.0640   73.7170  219.2730 C   0  0  0  0  0  0  0  0  0  0  0  0
  143.1270   74.5470  219.8030 C   0  0  0  0  0  0  0  0  0  0  0  0
  143.0440   75.7950  219.3980 N   0  0  0  0  0  0  0  0  0  0  0  0
  142.1390   76.7110  219.8650 C   0  0  0  0  0  0  0  0  0  0  0  0
  142.2030   77.9970  219.2450 C   0  0  0  0  0  0  0  0  0  0  0  0
  141.2950   78.7840  218.7620 C   0  0  0  0  0  0  0  0  0  0  0  0
  140.8930   80.0220  219.4760 C   0  0  0  0  0  0  0  0  0  0  0  0
  141.8200   80.9960  219.7720 C   0  0  0  0  0  0  0  0  0  0  0  0
  141.4350   82.1580  220.4450 C   0  0  0  0  0  0  0  0  0  0  0  0
  140.1150   82.3350  220.8160 C   0  0  0  0  0  0  0  0  0  0  0  0
  139.2150   81.3360  220.5000 C   0  0  0  0  0  0  0  0  0  0  0  0
  139.6310   80.2320  219.8510 N   0  0  0  0  0  0  0  0  0  0  0  0
  141.2980   76.2720  220.7980 N   0  0  0  0  0  0  0  0  0  0  0  0
  140.2860   77.0690  221.4500 C   0  0  0  0  0  0  0  0  0  0  0  0
  140.7710   78.2180  222.2030 C   0  0  0  0  0  0  0  0  0  0  0  0
  139.8410   78.9090  223.0080 C   0  0  0  0  0  0  0  0  0  0  0  0
  140.1920   79.9910  223.7770 C   0  0  0  0  0  0  0  0  0  0  0  0
  141.4810   80.4740  223.8110 C   0  0  0  0  0  0  0  0  0  0  0  0
  142.4070   79.8170  223.0340 C   0  0  0  0  0  0  0  0  0  0  0  0
  143.7180   80.2740  223.0430 O   0  0  0  0  0  0  0  0  0  0  0  0
  142.0450   78.7130  222.2510 C   0  0  0  0  0  0  0  0  0  0  0  0
  141.6040   72.4465  221.9952 H   0  0  0  0  0  0  0  0  0  0  0  0
  143.3254   70.8798  221.0359 H   0  0  0  0  0  0  0  0  0  0  0  0
  144.7642   74.0698  218.5014 H   0  0  0  0  0  0  0  0  0  0  0  0
  143.2243   78.3970  219.1616 H   0  0  0  0  0  0  0  0  0  0  0  0
  140.8132   78.5308  217.8061 H   0  0  0  0  0  0  0  0  0  0  0  0
  142.8706   80.8583  219.4766 H   0  0  0  0  0  0  0  0  0  0  0  0
  142.1813   82.9313  220.6795 H   0  0  0  0  0  0  0  0  0  0  0  0
  139.7916   83.2429  221.3462 H   0  0  0  0  0  0  0  0  0  0  0  0
  138.1563   81.4425  220.7791 H   0  0  0  0  0  0  0  0  0  0  0  0
  139.5974   77.4390  220.6761 H   0  0  0  0  0  0  0  0  0  0  0  0
  139.8136   76.4054  222.1892 H   0  0  0  0  0  0  0  0  0  0  0  0
  138.7952   78.5681  223.0200 H   0  0  0  0  0  0  0  0  0  0  0  0
  139.4203   80.4868  224.3841 H   0  0  0  0  0  0  0  0  0  0  0  0
  141.7566   81.3416  224.4285 H   0  0  0  0  0  0  0  0  0  0  0  0
  144.4010   80.1030  222.3430 H   0  0  0  0  0  0  0  0  0  0  0  0
  142.8217   78.2214  221.6467 H   0  0  0  0  0  0  0  0  0  0  0  0
  1  2  2  0
  2  3  1  0
  3  4  2  0
  4  5  1  0
  5  6  2  0
  6  7  1  0
  6  8  1  0
  8  9  2  0
  9 10  1  0
 10 11  2  0
 11 12  1  0
 12 13  2  0
 13 14  1  0
 14 15  2  0
 15 16  1  0
 16 17  2  0
 17 18  1  0
 18 19  2  0
 11 20  1  0
 20 21  1  0
 21 22  1  0
 22 23  2  0
 23 24  1  0
 24 25  2  0
 25 26  1  0
 26 27  1  0
 26 28  2  0
 20  2  1  0
 28 22  1  0
  9  3  1  0
 19 14  1  0
  4 29  1  0
  5 30  1  0
  8 31  1  0
 12 32  1  0
 13 33  1  0
 15 34  1  0
 16 35  1  0
 17 36  1  0
 18 37  1  0
 21 38  1  0
 21 39  1  0
 23 40  1  0
 24 41  1  0
 25 42  1  0
 27 43  1  0
 28 44  1  0
M  END
>  <smiles>  (15) 
O=c1c2ccc(Cl)cc2nc(/C=C/c2ccccn2)n1Cc1cccc(O)c1

>  <score_type>  (15) 
oracle

>  <origin>  (15) 
autodockgpu

>  <m_score__min__energy>  (15) 
-8.2200000000000006

>  <m_primary>  (15) 
energy

>  <rmsd>  (15) 
4.286629340909308

>  <m_score__min__rmsd>  (15) 
4.286629340909308

>  <meeko>  (15) 
{"free_energy": -6.74, "intermolecular_energy": -8.53, "internal_energy": -1.65, "cluster_size": 7, "cluster_id": 6, "rank_in_cluster": 1}

>  <energy>  (15) 
-7.69

>  <cluster_rmsd>  (15) 
1.54

>  <cluster>  (15) 
1

$$$$

     RDKit          3D

 44 47  0  0  0  0  0  0  0  0999 V2000
  142.6660   76.1080  219.1750 O   0  0  0  0  0  0  0  0  0  0  0  0
  141.9260   75.8450  220.1570 C   0  0  0  0  0  0  0  0  0  0  0  0
  141.4720   76.9220  220.8930 C   0  0  0  0  0  0  0  0  0  0  0  0
  141.8300   78.2050  220.5470 C   0  0  0  0  0  0  0  0  0  0  0  0
  141.3500   79.2490  221.3170 C   0  0  0  0  0  0  0  0  0  0  0  0
  140.5410   78.9350  222.3870 C   0  0  0  0  0  0  0  0  0  0  0  0
  139.9070   80.2220  223.3970 Cl  0  0  0  0  0  0  0  0  0  0  0  0
  140.1910   77.6460  222.7240 C   0  0  0  0  0  0  0  0  0  0  0  0
  140.6730   76.6350  221.9540 C   0  0  0  0  0  0  0  0  0  0  0  0
  140.3690   75.3880  222.2340 N   0  0  0  0  0  0  0  0  0  0  0  0
  140.8010   74.2980  221.5240 C   0  0  0  0  0  0  0  0  0  0  0  0
  140.3050   73.0400  221.9830 C   0  0  0  0  0  0  0  0  0  0  0  0
  140.8900   71.9830  222.4520 C   0  0  0  0  0  0  0  0  0  0  0  0
  140.5030   71.4100  223.7650 C   0  0  0  0  0  0  0  0  0  0  0  0
  139.5500   70.4200  223.8470 C   0  0  0  0  0  0  0  0  0  0  0  0
  139.1900   69.8850  225.0860 C   0  0  0  0  0  0  0  0  0  0  0  0
  139.7950   70.3490  226.2400 C   0  0  0  0  0  0  0  0  0  0  0  0
  140.7470   71.3420  226.1160 C   0  0  0  0  0  0  0  0  0  0  0  0
  141.0620   71.8290  224.9010 N   0  0  0  0  0  0  0  0  0  0  0  0
  141.5850   74.5590  220.4820 N   0  0  0  0  0  0  0  0  0  0  0  0
  142.1780   73.5680  219.6150 C   0  0  0  0  0  0  0  0  0  0  0  0
  143.5690   73.2330  219.8920 C   0  0  0  0  0  0  0  0  0  0  0  0
  144.2620   74.0430  220.8150 C   0  0  0  0  0  0  0  0  0  0  0  0
  145.5680   73.8070  221.1680 C   0  0  0  0  0  0  0  0  0  0  0  0
  146.2880   72.7580  220.6400 C   0  0  0  0  0  0  0  0  0  0  0  0
  145.6330   71.9530  219.7370 C   0  0  0  0  0  0  0  0  0  0  0  0
  146.3250   70.8850  219.1840 O   0  0  0  0  0  0  0  0  0  0  0  0
  144.3010   72.1970  219.3790 C   0  0  0  0  0  0  0  0  0  0  0  0
  142.4808   78.3953  219.6808 H   0  0  0  0  0  0  0  0  0  0  0  0
  141.6052   80.2931  221.0833 H   0  0  0  0  0  0  0  0  0  0  0  0
  139.5423   77.4415  223.5885 H   0  0  0  0  0  0  0  0  0  0  0  0
  139.2100   72.9505  221.9275 H   0  0  0  0  0  0  0  0  0  0  0  0
  141.6874   71.5021  221.8665 H   0  0  0  0  0  0  0  0  0  0  0  0
  139.0688   70.0477  222.9306 H   0  0  0  0  0  0  0  0  0  0  0  0
  138.4262   69.0955  225.1439 H   0  0  0  0  0  0  0  0  0  0  0  0
  139.5265   69.9402  227.2253 H   0  0  0  0  0  0  0  0  0  0  0  0
  141.2490   71.7359  227.0120 H   0  0  0  0  0  0  0  0  0  0  0  0
  141.5851   72.6456  219.7019 H   0  0  0  0  0  0  0  0  0  0  0  0
  142.1724   74.0107  218.6080 H   0  0  0  0  0  0  0  0  0  0  0  0
  143.7367   74.8960  221.2694 H   0  0  0  0  0  0  0  0  0  0  0  0
  146.0536   74.4756  221.8940 H   0  0  0  0  0  0  0  0  0  0  0  0
  147.3340   72.5733  220.9260 H   0  0  0  0  0  0  0  0  0  0  0  0
  145.9260   70.1240  218.6870 H   0  0  0  0  0  0  0  0  0  0  0  0
  143.8214   71.5250  218.6521 H   0  0  0  0  0  0  0  0  0  0  0  0
  1  2  2  0
  2  3  1  0
  3  4  2  0
  4  5  1  0
  5  6  2  0
  6  7  1  0
  6  8  1  0
  8  9  2  0
  9 10  1  0
 10 11  2  0
 11 12  1  0
 12 13  2  0
 13 14  1  0
 14 15  2  0
 15 16  1  0
 16 17  2  0
 17 18  1  0
 18 19  2  0
 11 20  1  0
 20 21  1  0
 21 22  1  0
 22 23  2  0
 23 24  1  0
 24 25  2  0
 25 26  1  0
 26 27  1  0
 26 28  2  0
 20  2  1  0
 28 22  1  0
  9  3  1  0
 19 14  1  0
  4 29  1  0
  5 30  1  0
  8 31  1  0
 12 32  1  0
 13 33  1  0
 15 34  1  0
 16 35  1  0
 17 36  1  0
 18 37  1  0
 21 38  1  0
 21 39  1  0
 23 40  1  0
 24 41  1  0
 25 42  1  0
 27 43  1  0
 28 44  1  0
M  END
>  <smiles>  (16) 
O=c1c2ccc(Cl)cc2nc(/C=C/c2ccccn2)n1Cc1cccc(O)c1

>  <score_type>  (16) 
oracle

>  <origin>  (16) 
autodockgpu

>  <m_score__min__energy>  (16) 
-8.2200000000000006

>  <m_primary>  (16) 
energy

>  <rmsd>  (16) 
7.736412977247497

>  <m_score__min__rmsd>  (16) 
7.736412977247497

>  <meeko>  (16) 
{"free_energy": -7.58, "intermolecular_energy": -9.37, "internal_energy": -0.95, "cluster_size": 18, "cluster_id": 1, "rank_in_cluster": 17}

>  <energy>  (16) 
-7.64

>  <cluster_rmsd>  (16) 
0.88

>  <cluster>  (16) 
1

$$$$

     RDKit          3D

 44 47  0  0  0  0  0  0  0  0999 V2000
  140.4180   74.7220  222.1420 O   0  0  0  0  0  0  0  0  0  0  0  0
  141.2380   75.1600  221.2950 C   0  0  0  0  0  0  0  0  0  0  0  0
  142.1510   74.2540  220.7940 C   0  0  0  0  0  0  0  0  0  0  0  0
  142.1410   72.9450  221.2200 C   0  0  0  0  0  0  0  0  0  0  0  0
  143.0770   72.0760  220.6880 C   0  0  0  0  0  0  0  0  0  0  0  0
  143.9640   72.5800  219.7620 C   0  0  0  0  0  0  0  0  0  0  0  0
  145.1720   71.5200  219.0580 Cl  0  0  0  0  0  0  0  0  0  0  0  0
  143.9640   73.8930  219.3440 C   0  0  0  0  0  0  0  0  0  0  0  0
  143.0350   74.7300  219.8800 C   0  0  0  0  0  0  0  0  0  0  0  0
  142.9940   75.9910  219.5150 N   0  0  0  0  0  0  0  0  0  0  0  0
  142.1020   76.9150  219.9910 C   0  0  0  0  0  0  0  0  0  0  0  0
  142.2130   78.2180  219.4170 C   0  0  0  0  0  0  0  0  0  0  0  0
  141.3530   79.0050  218.8510 C   0  0  0  0  0  0  0  0  0  0  0  0
  141.7000   80.4090  218.5170 C   0  0  0  0  0  0  0  0  0  0  0  0
  142.5930   80.6920  217.5080 C   0  0  0  0  0  0  0  0  0  0  0  0
  142.9150   82.0150  217.2000 C   0  0  0  0  0  0  0  0  0  0  0  0
  142.3340   83.0510  217.9090 C   0  0  0  0  0  0  0  0  0  0  0  0
  141.4420   82.7260  218.9130 C   0  0  0  0  0  0  0  0  0  0  0  0
  141.1620   81.4360  219.1760 N   0  0  0  0  0  0  0  0  0  0  0  0
  141.2280   76.4680  220.8890 N   0  0  0  0  0  0  0  0  0  0  0  0
  140.2210   77.2690  221.5440 C   0  0  0  0  0  0  0  0  0  0  0  0
  140.6970   78.4900  222.1820 C   0  0  0  0  0  0  0  0  0  0  0  0
  141.4740   78.3530  223.3510 C   0  0  0  0  0  0  0  0  0  0  0  0
  141.9940   79.4330  224.0220 C   0  0  0  0  0  0  0  0  0  0  0  0
  141.7890   80.7250  223.5930 C   0  0  0  0  0  0  0  0  0  0  0  0
  141.0340   80.8850  222.4530 C   0  0  0  0  0  0  0  0  0  0  0  0
  140.8060   82.1730  221.9890 O   0  0  0  0  0  0  0  0  0  0  0  0
  140.5060   79.7810  221.7720 C   0  0  0  0  0  0  0  0  0  0  0  0
  141.4081   72.5990  221.9638 H   0  0  0  0  0  0  0  0  0  0  0  0
  143.1118   71.0199  220.9936 H   0  0  0  0  0  0  0  0  0  0  0  0
  144.6913   74.2526  218.6012 H   0  0  0  0  0  0  0  0  0  0  0  0
  143.2293   78.6362  219.4648 H   0  0  0  0  0  0  0  0  0  0  0  0
  140.3480   78.6258  218.6139 H   0  0  0  0  0  0  0  0  0  0  0  0
  143.0556   79.8706  216.9411 H   0  0  0  0  0  0  0  0  0  0  0  0
  143.6306   82.2336  216.3937 H   0  0  0  0  0  0  0  0  0  0  0  0
  142.5744   84.0999  217.6809 H   0  0  0  0  0  0  0  0  0  0  0  0
  140.9599   83.5229  219.4983 H   0  0  0  0  0  0  0  0  0  0  0  0
  139.4720   77.5523  220.7898 H   0  0  0  0  0  0  0  0  0  0  0  0
  139.8236   76.6430  222.3565 H   0  0  0  0  0  0  0  0  0  0  0  0
  141.6711   77.3432  223.7402 H   0  0  0  0  0  0  0  0  0  0  0  0
  142.5919   79.2604  224.9290 H   0  0  0  0  0  0  0  0  0  0  0  0
  142.2076   81.5864  224.1341 H   0  0  0  0  0  0  0  0  0  0  0  0
  140.6780   82.4380  221.0420 H   0  0  0  0  0  0  0  0  0  0  0  0
  139.9099   79.9604  220.8651 H   0  0  0  0  0  0  0  0  0  0  0  0
  1  2  2  0
  2  3  1  0
  3  4  2  0
  4  5  1  0
  5  6  2  0
  6  7  1  0
  6  8  1  0
  8  9  2  0
  9 10  1  0
 10 11  2  0
 11 12  1  0
 12 13  2  0
 13 14  1  0
 14 15  2  0
 15 16  1  0
 16 17  2  0
 17 18  1  0
 18 19  2  0
 11 20  1  0
 20 21  1  0
 21 22  1  0
 22 23  2  0
 23 24  1  0
 24 25  2  0
 25 26  1  0
 26 27  1  0
 26 28  2  0
 20  2  1  0
 28 22  1  0
  9  3  1  0
 19 14  1  0
  4 29  1  0
  5 30  1  0
  8 31  1  0
 12 32  1  0
 13 33  1  0
 15 34  1  0
 16 35  1  0
 17 36  1  0
 18 37  1  0
 21 38  1  0
 21 39  1  0
 23 40  1  0
 24 41  1  0
 25 42  1  0
 27 43  1  0
 28 44  1  0
M  END
>  <smiles>  (17) 
O=c1c2ccc(Cl)cc2nc(/C=C/c2ccccn2)n1Cc1cccc(O)c1

>  <score_type>  (17) 
oracle

>  <origin>  (17) 
autodockgpu

>  <m_score__min__energy>  (17) 
-8.2200000000000006

>  <m_primary>  (17) 
energy

>  <rmsd>  (17) 
4.335046515231267

>  <m_score__min__rmsd>  (17) 
4.335046515231267

>  <meeko>  (17) 
{"free_energy": -6.58, "intermolecular_energy": -8.37, "internal_energy": -1.8, "cluster_size": 7, "cluster_id": 6, "rank_in_cluster": 7}

>  <energy>  (17) 
-7.58

>  <cluster_rmsd>  (17) 
1.3

>  <cluster>  (17) 
1

$$$$

     RDKit          3D

 44 47  0  0  0  0  0  0  0  0999 V2000
  136.8290   70.6000  221.7470 O   0  0  0  0  0  0  0  0  0  0  0  0
  136.9400   70.1370  222.9100 C   0  0  0  0  0  0  0  0  0  0  0  0
  135.9050   70.4050  223.7830 C   0  0  0  0  0  0  0  0  0  0  0  0
  134.8190   71.1450  223.3720 C   0  0  0  0  0  0  0  0  0  0  0  0
  133.8080   71.3860  224.2850 C   0  0  0  0  0  0  0  0  0  0  0  0
  133.9540   70.8670  225.5530 C   0  0  0  0  0  0  0  0  0  0  0  0
  132.7010   71.1450  226.7490 Cl  0  0  0  0  0  0  0  0  0  0  0  0
  135.0460   70.1280  225.9530 C   0  0  0  0  0  0  0  0  0  0  0  0
  136.0280   69.9030  225.0390 C   0  0  0  0  0  0  0  0  0  0  0  0
  137.0910   69.2050  225.3700 N   0  0  0  0  0  0  0  0  0  0  0  0
  138.1340   68.9210  224.5290 C   0  0  0  0  0  0  0  0  0  0  0  0
  139.1620   68.1040  225.0930 C   0  0  0  0  0  0  0  0  0  0  0  0
  140.2310   68.3810  225.7710 C   0  0  0  0  0  0  0  0  0  0  0  0
  140.3900   69.6900  226.4520 C   0  0  0  0  0  0  0  0  0  0  0  0
  139.8570   69.9010  227.7040 C   0  0  0  0  0  0  0  0  0  0  0  0
  140.0100   71.1350  228.3390 C   0  0  0  0  0  0  0  0  0  0  0  0
  140.7030   72.1540  227.7100 C   0  0  0  0  0  0  0  0  0  0  0  0
  141.2230   71.9030  226.4560 C   0  0  0  0  0  0  0  0  0  0  0  0
  141.0510   70.6980  225.8810 N   0  0  0  0  0  0  0  0  0  0  0  0
  138.0320   69.4050  223.2950 N   0  0  0  0  0  0  0  0  0  0  0  0
  139.0220   69.2540  222.2540 C   0  0  0  0  0  0  0  0  0  0  0  0
  139.7010   70.4760  221.8430 C   0  0  0  0  0  0  0  0  0  0  0  0
  140.6670   70.3720  220.8210 C   0  0  0  0  0  0  0  0  0  0  0  0
  141.3520   71.4610  220.3390 C   0  0  0  0  0  0  0  0  0  0  0  0
  141.1370   72.7310  220.8270 C   0  0  0  0  0  0  0  0  0  0  0  0
  140.1990   72.8590  221.8250 C   0  0  0  0  0  0  0  0  0  0  0  0
  139.9540   74.1230  222.3420 O   0  0  0  0  0  0  0  0  0  0  0  0
  139.5030   71.7460  222.3140 C   0  0  0  0  0  0  0  0  0  0  0  0
  134.7570   71.5342  222.3450 H   0  0  0  0  0  0  0  0  0  0  0  0
  132.9188   71.9714  224.0084 H   0  0  0  0  0  0  0  0  0  0  0  0
  135.1211   69.7333  226.9770 H   0  0  0  0  0  0  0  0  0  0  0  0
  139.0173   67.0279  224.9169 H   0  0  0  0  0  0  0  0  0  0  0  0
  141.0344   67.6331  225.8430 H   0  0  0  0  0  0  0  0  0  0  0  0
  139.3071   69.0920  228.2072 H   0  0  0  0  0  0  0  0  0  0  0  0
  139.5800   71.2969  229.3384 H   0  0  0  0  0  0  0  0  0  0  0  0
  140.8354   73.1330  228.1937 H   0  0  0  0  0  0  0  0  0  0  0  0
  141.7793   72.6897  225.9253 H   0  0  0  0  0  0  0  0  0  0  0  0
  139.7853   68.5484  222.6138 H   0  0  0  0  0  0  0  0  0  0  0  0
  138.4726   68.9047  221.3674 H   0  0  0  0  0  0  0  0  0  0  0  0
  140.8802   69.3812  220.3934 H   0  0  0  0  0  0  0  0  0  0  0  0
  142.0938   71.3144  219.5401 H   0  0  0  0  0  0  0  0  0  0  0  0
  141.6881   73.5999  220.4379 H   0  0  0  0  0  0  0  0  0  0  0  0
  139.2090   74.3730  222.9470 H   0  0  0  0  0  0  0  0  0  0  0  0
  138.7632   71.8996  223.1134 H   0  0  0  0  0  0  0  0  0  0  0  0
  1  2  2  0
  2  3  1  0
  3  4  2  0
  4  5  1  0
  5  6  2  0
  6  7  1  0
  6  8  1  0
  8  9  2  0
  9 10  1  0
 10 11  2  0
 11 12  1  0
 12 13  2  0
 13 14  1  0
 14 15  2  0
 15 16  1  0
 16 17  2  0
 17 18  1  0
 18 19  2  0
 11 20  1  0
 20 21  1  0
 21 22  1  0
 22 23  2  0
 23 24  1  0
 24 25  2  0
 25 26  1  0
 26 27  1  0
 26 28  2  0
 20  2  1  0
 28 22  1  0
  9  3  1  0
 19 14  1  0
  4 29  1  0
  5 30  1  0
  8 31  1  0
 12 32  1  0
 13 33  1  0
 15 34  1  0
 16 35  1  0
 17 36  1  0
 18 37  1  0
 21 38  1  0
 21 39  1  0
 23 40  1  0
 24 41  1  0
 25 42  1  0
 27 43  1  0
 28 44  1  0
M  END
>  <smiles>  (18) 
O=c1c2ccc(Cl)cc2nc(/C=C/c2ccccn2)n1Cc1cccc(O)c1

>  <score_type>  (18) 
oracle

>  <origin>  (18) 
autodockgpu

>  <m_score__min__energy>  (18) 
-8.2200000000000006

>  <m_primary>  (18) 
energy

>  <rmsd>  (18) 
10.040739396608261

>  <m_score__min__rmsd>  (18) 
10.040739396608261

>  <meeko>  (18) 
{"free_energy": -6.95, "intermolecular_energy": -8.74, "internal_energy": -1.36, "cluster_size": 2, "cluster_id": 3, "rank_in_cluster": 2}

>  <energy>  (18) 
-7.51

>  <cluster_rmsd>  (18) 
1.46

>  <cluster>  (18) 
1

$$$$

     RDKit          3D

 44 47  0  0  0  0  0  0  0  0999 V2000
  139.8670   74.3950  221.8180 O   0  0  0  0  0  0  0  0  0  0  0  0
  140.6310   75.1890  221.2140 C   0  0  0  0  0  0  0  0  0  0  0  0
  141.8800   74.7070  220.8780 C   0  0  0  0  0  0  0  0  0  0  0  0
  142.2430   73.4190  221.2030 C   0  0  0  0  0  0  0  0  0  0  0  0
  143.5060   72.9840  220.8440 C   0  0  0  0  0  0  0  0  0  0  0  0
  144.3250   73.8730  220.1830 C   0  0  0  0  0  0  0  0  0  0  0  0
  145.9380   73.3720  219.7080 Cl  0  0  0  0  0  0  0  0  0  0  0  0
  143.9510   75.1600  219.8640 C   0  0  0  0  0  0  0  0  0  0  0  0
  142.7050   75.5670  220.2250 C   0  0  0  0  0  0  0  0  0  0  0  0
  142.3010   76.7850  219.9450 N   0  0  0  0  0  0  0  0  0  0  0  0
  141.0690   77.2940  220.2630 C   0  0  0  0  0  0  0  0  0  0  0  0
  140.8310   78.6300  219.8170 C   0  0  0  0  0  0  0  0  0  0  0  0
  141.5000   79.7320  219.9490 C   0  0  0  0  0  0  0  0  0  0  0  0
  141.8500   80.2620  221.2900 C   0  0  0  0  0  0  0  0  0  0  0  0
  141.4240   81.5100  221.6870 C   0  0  0  0  0  0  0  0  0  0  0  0
  141.7570   82.0020  222.9510 C   0  0  0  0  0  0  0  0  0  0  0  0
  142.5200   81.2340  223.8120 C   0  0  0  0  0  0  0  0  0  0  0  0
  142.9280   79.9880  223.3770 C   0  0  0  0  0  0  0  0  0  0  0  0
  142.5830   79.5540  222.1500 N   0  0  0  0  0  0  0  0  0  0  0  0
  140.2480   76.4660  220.9030 N   0  0  0  0  0  0  0  0  0  0  0  0
  138.9190   76.7980  221.3600 C   0  0  0  0  0  0  0  0  0  0  0  0
  138.8060   78.0140  222.1560 C   0  0  0  0  0  0  0  0  0  0  0  0
  139.8150   78.2640  223.1090 C   0  0  0  0  0  0  0  0  0  0  0  0
  139.8230   79.3880  223.8980 C   0  0  0  0  0  0  0  0  0  0  0  0
  138.8410   80.3490  223.8070 C   0  0  0  0  0  0  0  0  0  0  0  0
  137.8450   80.1280  222.8830 C   0  0  0  0  0  0  0  0  0  0  0  0
  136.8380   81.0750  222.7620 O   0  0  0  0  0  0  0  0  0  0  0  0
  137.8410   78.9800  222.0810 C   0  0  0  0  0  0  0  0  0  0  0  0
  141.5467   72.7534  221.7343 H   0  0  0  0  0  0  0  0  0  0  0  0
  143.8446   71.9639  221.0781 H   0  0  0  0  0  0  0  0  0  0  0  0
  144.6381   75.8363  219.3344 H   0  0  0  0  0  0  0  0  0  0  0  0
  139.8957   78.7463  219.2498 H   0  0  0  0  0  0  0  0  0  0  0  0
  141.8140   80.2843  219.0510 H   0  0  0  0  0  0  0  0  0  0  0  0
  140.8176   82.1233  221.0042 H   0  0  0  0  0  0  0  0  0  0  0  0
  141.4128   82.9995  223.2616 H   0  0  0  0  0  0  0  0  0  0  0  0
  142.7932   81.6037  224.8113 H   0  0  0  0  0  0  0  0  0  0  0  0
  143.5360   79.3491  224.0344 H   0  0  0  0  0  0  0  0  0  0  0  0
  138.2769   76.9137  220.4744 H   0  0  0  0  0  0  0  0  0  0  0  0
  138.6189   75.9761  222.0267 H   0  0  0  0  0  0  0  0  0  0  0  0
  140.6267   77.5307  223.2248 H   0  0  0  0  0  0  0  0  0  0  0  0
  140.6379   79.5247  224.6241 H   0  0  0  0  0  0  0  0  0  0  0  0
  138.8519   81.2480  224.4408 H   0  0  0  0  0  0  0  0  0  0  0  0
  136.6000   81.7640  223.4350 H   0  0  0  0  0  0  0  0  0  0  0  0
  137.0234   78.8492  221.3568 H   0  0  0  0  0  0  0  0  0  0  0  0
  1  2  2  0
  2  3  1  0
  3  4  2  0
  4  5  1  0
  5  6  2  0
  6  7  1  0
  6  8  1  0
  8  9  2  0
  9 10  1  0
 10 11  2  0
 11 12  1  0
 12 13  2  0
 13 14  1  0
 14 15  2  0
 15 16  1  0
 16 17  2  0
 17 18  1  0
 18 19  2  0
 11 20  1  0
 20 21  1  0
 21 22  1  0
 22 23  2  0
 23 24  1  0
 24 25  2  0
 25 26  1  0
 26 27  1  0
 26 28  2  0
 20  2  1  0
 28 22  1  0
  9  3  1  0
 19 14  1  0
  4 29  1  0
  5 30  1  0
  8 31  1  0
 12 32  1  0
 13 33  1  0
 15 34  1  0
 16 35  1  0
 17 36  1  0
 18 37  1  0
 21 38  1  0
 21 39  1  0
 23 40  1  0
 24 41  1  0
 25 42  1  0
 27 43  1  0
 28 44  1  0
M  END
>  <smiles>  (19) 
O=c1c2ccc(Cl)cc2nc(/C=C/c2ccccn2)n1Cc1cccc(O)c1

>  <score_type>  (19) 
oracle

>  <origin>  (19) 
autodockgpu

>  <m_score__min__energy>  (19) 
-8.2200000000000006

>  <m_primary>  (19) 
energy

>  <rmsd>  (19) 
4.416107044311062

>  <m_score__min__rmsd>  (19) 
4.416107044311062

>  <meeko>  (19) 
{"free_energy": -6.65, "intermolecular_energy": -8.44, "internal_energy": -1.77, "cluster_size": 10, "cluster_id": 9, "rank_in_cluster": 3}

>  <energy>  (19) 
-7.31

>  <cluster_rmsd>  (19) 
0.0

>  <cluster>  (19) 
2

$$$$

     RDKit          3D

 44 47  0  0  0  0  0  0  0  0999 V2000
  135.6140   72.7510  222.4900 O   0  0  0  0  0  0  0  0  0  0  0  0
  136.7150   72.2110  222.7680 C   0  0  0  0  0  0  0  0  0  0  0  0
  137.8510   72.8750  222.3490 C   0  0  0  0  0  0  0  0  0  0  0  0
  137.7510   74.0640  221.6620 C   0  0  0  0  0  0  0  0  0  0  0  0
  138.9190   74.6900  221.2630 C   0  0  0  0  0  0  0  0  0  0  0  0
  140.1120   74.0790  221.5790 C   0  0  0  0  0  0  0  0  0  0  0  0
  141.6220   74.8300  221.0950 Cl  0  0  0  0  0  0  0  0  0  0  0  0
  140.1990   72.8870  222.2670 C   0  0  0  0  0  0  0  0  0  0  0  0
  139.0390   72.2900  222.6500 C   0  0  0  0  0  0  0  0  0  0  0  0
  139.0680   71.1530  223.3070 N   0  0  0  0  0  0  0  0  0  0  0  0
  137.9610   70.4690  223.7380 C   0  0  0  0  0  0  0  0  0  0  0  0
  138.2340   69.2770  224.4750 C   0  0  0  0  0  0  0  0  0  0  0  0
  139.1710   68.9550  225.3100 C   0  0  0  0  0  0  0  0  0  0  0  0
  139.7880   69.9700  226.2000 C   0  0  0  0  0  0  0  0  0  0  0  0
  140.6890   70.8860  225.7050 C   0  0  0  0  0  0  0  0  0  0  0  0
  141.2660   71.8380  226.5480 C   0  0  0  0  0  0  0  0  0  0  0  0
  140.9310   71.8660  227.8890 C   0  0  0  0  0  0  0  0  0  0  0  0
  140.0230   70.9310  228.3480 C   0  0  0  0  0  0  0  0  0  0  0  0
  139.4920   70.0310  227.4990 N   0  0  0  0  0  0  0  0  0  0  0  0
  136.7880   71.0270  223.4510 N   0  0  0  0  0  0  0  0  0  0  0  0
  135.4970   70.4690  223.7800 C   0  0  0  0  0  0  0  0  0  0  0  0
  134.9120   70.9230  225.0360 C   0  0  0  0  0  0  0  0  0  0  0  0
  134.8330   69.9910  226.0920 C   0  0  0  0  0  0  0  0  0  0  0  0
  134.3220   70.3150  227.3250 C   0  0  0  0  0  0  0  0  0  0  0  0
  133.8500   71.5770  227.6100 C   0  0  0  0  0  0  0  0  0  0  0  0
  133.9160   72.5040  226.5950 C   0  0  0  0  0  0  0  0  0  0  0  0
  133.4510   73.7880  226.8450 O   0  0  0  0  0  0  0  0  0  0  0  0
  134.4390   72.1700  225.3390 C   0  0  0  0  0  0  0  0  0  0  0  0
  136.7688   74.5047  221.4363 H   0  0  0  0  0  0  0  0  0  0  0  0
  138.8953   75.6422  220.7128 H   0  0  0  0  0  0  0  0  0  0  0  0
  141.1745   72.4342  222.4983 H   0  0  0  0  0  0  0  0  0  0  0  0
  137.5044   68.4728  224.2991 H   0  0  0  0  0  0  0  0  0  0  0  0
  139.5152   67.9114  225.3601 H   0  0  0  0  0  0  0  0  0  0  0  0
  140.9561   70.8677  224.6381 H   0  0  0  0  0  0  0  0  0  0  0  0
  141.9866   72.5651  226.1454 H   0  0  0  0  0  0  0  0  0  0  0  0
  141.3732   72.6090  228.5690 H   0  0  0  0  0  0  0  0  0  0  0  0
  139.7334   70.9220  229.4092 H   0  0  0  0  0  0  0  0  0  0  0  0
  134.8002   70.7290  222.9695 H   0  0  0  0  0  0  0  0  0  0  0  0
  135.6600   69.3877  223.8994 H   0  0  0  0  0  0  0  0  0  0  0  0
  135.1943   68.9661  225.9215 H   0  0  0  0  0  0  0  0  0  0  0  0
  134.2888   69.5434  228.1083 H   0  0  0  0  0  0  0  0  0  0  0  0
  133.4409   71.8312  228.5990 H   0  0  0  0  0  0  0  0  0  0  0  0
  132.9940   74.0930  227.6710 H   0  0  0  0  0  0  0  0  0  0  0  0
  134.4707   72.9465  224.5606 H   0  0  0  0  0  0  0  0  0  0  0  0
  1  2  2  0
  2  3  1  0
  3  4  2  0
  4  5  1  0
  5  6  2  0
  6  7  1  0
  6  8  1  0
  8  9  2  0
  9 10  1  0
 10 11  2  0
 11 12  1  0
 12 13  2  0
 13 14  1  0
 14 15  2  0
 15 16  1  0
 16 17  2  0
 17 18  1  0
 18 19  2  0
 11 20  1  0
 20 21  1  0
 21 22  1  0
 22 23  2  0
 23 24  1  0
 24 25  2  0
 25 26  1  0
 26 27  1  0
 26 28  2  0
 20  2  1  0
 28 22  1  0
  9  3  1  0
 19 14  1  0
  4 29  1  0
  5 30  1  0
  8 31  1  0
 12 32  1  0
 13 33  1  0
 15 34  1  0
 16 35  1  0
 17 36  1  0
 18 37  1  0
 21 38  1  0
 21 39  1  0
 23 40  1  0
 24 41  1  0
 25 42  1  0
 27 43  1  0
 28 44  1  0
M  END
>  <smiles>  (20) 
O=c1c2ccc(Cl)cc2nc(/C=C/c2ccccn2)n1Cc1cccc(O)c1

>  <score_type>  (20) 
oracle

>  <origin>  (20) 
autodockgpu

>  <m_score__min__energy>  (20) 
-8.2200000000000006

>  <m_primary>  (20) 
energy

>  <rmsd>  (20) 
9.948074004393584

>  <m_score__min__rmsd>  (20) 
9.948074004393584

>  <meeko>  (20) 
{"free_energy": -7.1, "intermolecular_energy": -8.89, "internal_energy": -1.37, "cluster_size": 4, "cluster_id": 4, "rank_in_cluster": 1}

>  <energy>  (20) 
-7.16

>  <cluster_rmsd>  (20) 
0.0

>  <cluster>  (20) 
3

$$$$

     RDKit          3D

 44 47  0  0  0  0  0  0  0  0999 V2000
  140.4870   74.8040  222.1170 O   0  0  0  0  0  0  0  0  0  0  0  0
  141.2950   75.2260  221.2510 C   0  0  0  0  0  0  0  0  0  0  0  0
  142.2050   74.3110  220.7610 C   0  0  0  0  0  0  0  0  0  0  0  0
  142.2060   73.0120  221.2160 C   0  0  0  0  0  0  0  0  0  0  0  0
  143.1390   72.1350  220.6920 C   0  0  0  0  0  0  0  0  0  0  0  0
  144.0130   72.6220  219.7450 C   0  0  0  0  0  0  0  0  0  0  0  0
  145.2170   71.5510  219.0510 Cl  0  0  0  0  0  0  0  0  0  0  0  0
  144.0030   73.9250  219.2980 C   0  0  0  0  0  0  0  0  0  0  0  0
  143.0770   74.7700  219.8250 C   0  0  0  0  0  0  0  0  0  0  0  0
  143.0270   76.0230  219.4320 N   0  0  0  0  0  0  0  0  0  0  0  0
  142.1360   76.9540  219.8980 C   0  0  0  0  0  0  0  0  0  0  0  0
  142.2360   78.2440  219.2930 C   0  0  0  0  0  0  0  0  0  0  0  0
  141.3480   79.0730  218.8410 C   0  0  0  0  0  0  0  0  0  0  0  0
  141.7070   80.4710  218.4980 C   0  0  0  0  0  0  0  0  0  0  0  0
  142.6090   80.7400  217.4930 C   0  0  0  0  0  0  0  0  0  0  0  0
  142.9430   82.0580  217.1760 C   0  0  0  0  0  0  0  0  0  0  0  0
  142.3640   83.1030  217.8730 C   0  0  0  0  0  0  0  0  0  0  0  0
  141.4630   82.7930  218.8730 C   0  0  0  0  0  0  0  0  0  0  0  0
  141.1720   81.5080  219.1450 N   0  0  0  0  0  0  0  0  0  0  0  0
  141.2750   76.5240  220.8160 N   0  0  0  0  0  0  0  0  0  0  0  0
  140.2720   77.3360  221.4650 C   0  0  0  0  0  0  0  0  0  0  0  0
  140.7640   78.5260  222.1470 C   0  0  0  0  0  0  0  0  0  0  0  0
  141.4890   78.3390  223.3420 C   0  0  0  0  0  0  0  0  0  0  0  0
  142.0180   79.3860  224.0560 C   0  0  0  0  0  0  0  0  0  0  0  0
  141.8740   80.6930  223.6470 C   0  0  0  0  0  0  0  0  0  0  0  0
  141.1700   80.9020  222.4830 C   0  0  0  0  0  0  0  0  0  0  0  0
  141.0040   82.2060  222.0390 O   0  0  0  0  0  0  0  0  0  0  0  0
  140.6320   79.8310  221.7580 C   0  0  0  0  0  0  0  0  0  0  0  0
  141.4839   72.6798  221.9764 H   0  0  0  0  0  0  0  0  0  0  0  0
  143.1814   71.0859  221.0200 H   0  0  0  0  0  0  0  0  0  0  0  0
  144.7207   74.2707  218.5395 H   0  0  0  0  0  0  0  0  0  0  0  0
  143.2700   78.6050  219.1905 H   0  0  0  0  0  0  0  0  0  0  0  0
  140.3099   78.7340  218.7094 H   0  0  0  0  0  0  0  0  0  0  0  0
  143.0696   79.9107  216.9361 H   0  0  0  0  0  0  0  0  0  0  0  0
  143.6657   82.2651  216.3730 H   0  0  0  0  0  0  0  0  0  0  0  0
  142.6133   84.1483  217.6383 H   0  0  0  0  0  0  0  0  0  0  0  0
  140.9825   83.5983  219.4480 H   0  0  0  0  0  0  0  0  0  0  0  0
  139.5519   77.6594  220.6989 H   0  0  0  0  0  0  0  0  0  0  0  0
  139.8350   76.7009  222.2497 H   0  0  0  0  0  0  0  0  0  0  0  0
  141.6364   77.3153  223.7166 H   0  0  0  0  0  0  0  0  0  0  0  0
  142.5731   79.1744  224.9818 H   0  0  0  0  0  0  0  0  0  0  0  0
  142.3003   81.5283  224.2219 H   0  0  0  0  0  0  0  0  0  0  0  0
  140.8710   82.4900  221.0970 H   0  0  0  0  0  0  0  0  0  0  0  0
  140.0778   80.0493  220.8332 H   0  0  0  0  0  0  0  0  0  0  0  0
  1  2  2  0
  2  3  1  0
  3  4  2  0
  4  5  1  0
  5  6  2  0
  6  7  1  0
  6  8  1  0
  8  9  2  0
  9 10  1  0
 10 11  2  0
 11 12  1  0
 12 13  2  0
 13 14  1  0
 14 15  2  0
 15 16  1  0
 16 17  2  0
 17 18  1  0
 18 19  2  0
 11 20  1  0
 20 21  1  0
 21 22  1  0
 22 23  2  0
 23 24  1  0
 24 25  2  0
 25 26  1  0
 26 27  1  0
 26 28  2  0
 20  2  1  0
 28 22  1  0
  9  3  1  0
 19 14  1  0
  4 29  1  0
  5 30  1  0
  8 31  1  0
 12 32  1  0
 13 33  1  0
 15 34  1  0
 16 35  1  0
 17 36  1  0
 18 37  1  0
 21 38  1  0
 21 39  1  0
 23 40  1  0
 24 41  1  0
 25 42  1  0
 27 43  1  0
 28 44  1  0
M  END
>  <smiles>  (21) 
O=c1c2ccc(Cl)cc2nc(/C=C/c2ccccn2)n1Cc1cccc(O)c1

>  <score_type>  (21) 
oracle

>  <origin>  (21) 
autodockgpu

>  <m_score__min__energy>  (21) 
-8.2200000000000006

>  <m_primary>  (21) 
energy

>  <rmsd>  (21) 
4.3323866156305435

>  <m_score__min__rmsd>  (21) 
4.3323866156305435

>  <meeko>  (21) 
{"free_energy": -6.59, "intermolecular_energy": -8.38, "internal_energy": -1.77, "cluster_size": 7, "cluster_id": 6, "rank_in_cluster": 6}

>  <energy>  (21) 
-6.95

>  <cluster_rmsd>  (21) 
0.23

>  <cluster>  (21) 
3

$$$$

     RDKit          3D

 44 47  0  0  0  0  0  0  0  0999 V2000
  142.1220   75.2040  218.8230 O   0  0  0  0  0  0  0  0  0  0  0  0
  141.5770   75.0900  219.9500 C   0  0  0  0  0  0  0  0  0  0  0  0
  141.4680   76.2430  220.7020 C   0  0  0  0  0  0  0  0  0  0  0  0
  141.9430   77.4400  220.2180 C   0  0  0  0  0  0  0  0  0  0  0  0
  141.8110   78.5660  221.0110 C   0  0  0  0  0  0  0  0  0  0  0  0
  141.2100   78.4150  222.2410 C   0  0  0  0  0  0  0  0  0  0  0  0
  141.0190   79.8110  223.2860 Cl  0  0  0  0  0  0  0  0  0  0  0  0
  140.7390   77.2100  222.7160 C   0  0  0  0  0  0  0  0  0  0  0  0
  140.8790   76.1160  221.9200 C   0  0  0  0  0  0  0  0  0  0  0  0
  140.4460   74.9440  222.3260 N   0  0  0  0  0  0  0  0  0  0  0  0
  140.5380   73.7830  221.6050 C   0  0  0  0  0  0  0  0  0  0  0  0
  139.9570   72.6350  222.2270 C   0  0  0  0  0  0  0  0  0  0  0  0
  140.4590   71.5170  222.6480 C   0  0  0  0  0  0  0  0  0  0  0  0
  140.3010   71.0890  224.0600 C   0  0  0  0  0  0  0  0  0  0  0  0
  140.7510   71.8830  225.0910 C   0  0  0  0  0  0  0  0  0  0  0  0
  140.5990   71.4730  226.4180 C   0  0  0  0  0  0  0  0  0  0  0  0
  139.9920   70.2640  226.7010 C   0  0  0  0  0  0  0  0  0  0  0  0
  139.5530   69.4960  225.6400 C   0  0  0  0  0  0  0  0  0  0  0  0
  139.7210   69.9300  224.3770 N   0  0  0  0  0  0  0  0  0  0  0  0
  141.1130   73.8870  220.4100 N   0  0  0  0  0  0  0  0  0  0  0  0
  141.3410   72.7920  219.4960 C   0  0  0  0  0  0  0  0  0  0  0  0
  142.7020   72.2710  219.4560 C   0  0  0  0  0  0  0  0  0  0  0  0
  142.8850   70.9040  219.7510 C   0  0  0  0  0  0  0  0  0  0  0  0
  144.1190   70.3020  219.7220 C   0  0  0  0  0  0  0  0  0  0  0  0
  145.2630   70.9990  219.4020 C   0  0  0  0  0  0  0  0  0  0  0  0
  145.1100   72.3350  219.1100 C   0  0  0  0  0  0  0  0  0  0  0  0
  146.2400   73.0700  218.7820 O   0  0  0  0  0  0  0  0  0  0  0  0
  143.8500   72.9450  219.1410 C   0  0  0  0  0  0  0  0  0  0  0  0
  142.4154   77.5003  219.2264 H   0  0  0  0  0  0  0  0  0  0  0  0
  142.1733   79.5474  220.6711 H   0  0  0  0  0  0  0  0  0  0  0  0
  140.2655   77.1355  223.7061 H   0  0  0  0  0  0  0  0  0  0  0  0
  138.8705   72.7164  222.3780 H   0  0  0  0  0  0  0  0  0  0  0  0
  141.0116   70.8744  221.9468 H   0  0  0  0  0  0  0  0  0  0  0  0
  141.2333   72.8463  224.8685 H   0  0  0  0  0  0  0  0  0  0  0  0
  140.9620   72.1118  227.2366 H   0  0  0  0  0  0  0  0  0  0  0  0
  139.8625   69.9238  227.7390 H   0  0  0  0  0  0  0  0  0  0  0  0
  139.0653   68.5281  225.8276 H   0  0  0  0  0  0  0  0  0  0  0  0
  140.6724   71.9674  219.7840 H   0  0  0  0  0  0  0  0  0  0  0  0
  141.1465   73.1962  218.4916 H   0  0  0  0  0  0  0  0  0  0  0  0
  142.0061   70.2971  220.0143 H   0  0  0  0  0  0  0  0  0  0  0  0
  144.1960   69.2312  219.9615 H   0  0  0  0  0  0  0  0  0  0  0  0
  146.2492   70.5123  219.3809 H   0  0  0  0  0  0  0  0  0  0  0  0
  146.2700   74.0460  218.6010 H   0  0  0  0  0  0  0  0  0  0  0  0
  143.7800   74.0162  218.9009 H   0  0  0  0  0  0  0  0  0  0  0  0
  1  2  2  0
  2  3  1  0
  3  4  2  0
  4  5  1  0
  5  6  2  0
  6  7  1  0
  6  8  1  0
  8  9  2  0
  9 10  1  0
 10 11  2  0
 11 12  1  0
 12 13  2  0
 13 14  1  0
 14 15  2  0
 15 16  1  0
 16 17  2  0
 17 18  1  0
 18 19  2  0
 11 20  1  0
 20 21  1  0
 21 22  1  0
 22 23  2  0
 23 24  1  0
 24 25  2  0
 25 26  1  0
 26 27  1  0
 26 28  2  0
 20  2  1  0
 28 22  1  0
  9  3  1  0
 19 14  1  0
  4 29  1  0
  5 30  1  0
  8 31  1  0
 12 32  1  0
 13 33  1  0
 15 34  1  0
 16 35  1  0
 17 36  1  0
 18 37  1  0
 21 38  1  0
 21 39  1  0
 23 40  1  0
 24 41  1  0
 25 42  1  0
 27 43  1  0
 28 44  1  0
M  END
>  <smiles>  (22) 
O=c1c2ccc(Cl)cc2nc(/C=C/c2ccccn2)n1Cc1cccc(O)c1

>  <score_type>  (22) 
oracle

>  <origin>  (22) 
autodockgpu

>  <m_score__min__energy>  (22) 
-8.2200000000000006

>  <m_primary>  (22) 
energy

>  <rmsd>  (22) 
8.296378911201245

>  <m_score__min__rmsd>  (22) 
8.296378911201245

>  <meeko>  (22) 
{"free_energy": -7.94, "intermolecular_energy": -9.73, "internal_energy": -0.96, "cluster_size": 18, "cluster_id": 1, "rank_in_cluster": 5}

>  <energy>  (22) 
-7.1

>  <cluster_rmsd>  (22) 
0.0

>  <cluster>  (22) 
4

$$$$

     RDKit          3D

 44 47  0  0  0  0  0  0  0  0999 V2000
  135.7210   72.7210  222.0870 O   0  0  0  0  0  0  0  0  0  0  0  0
  136.7840   72.1960  222.5060 C   0  0  0  0  0  0  0  0  0  0  0  0
  137.9650   72.7810  222.0960 C   0  0  0  0  0  0  0  0  0  0  0  0
  137.9490   73.8800  221.2680 C   0  0  0  0  0  0  0  0  0  0  0  0
  139.1600   74.4290  220.8850 C   0  0  0  0  0  0  0  0  0  0  0  0
  140.3090   73.8360  221.3580 C   0  0  0  0  0  0  0  0  0  0  0  0
  141.8710   74.4920  220.9010 Cl  0  0  0  0  0  0  0  0  0  0  0  0
  140.3120   72.7340  222.1860 C   0  0  0  0  0  0  0  0  0  0  0  0
  139.1110   72.2110  222.5510 C   0  0  0  0  0  0  0  0  0  0  0  0
  139.0600   71.1610  223.3380 N   0  0  0  0  0  0  0  0  0  0  0  0
  137.9060   70.5570  223.7650 C   0  0  0  0  0  0  0  0  0  0  0  0
  138.0910   69.4560  224.6560 C   0  0  0  0  0  0  0  0  0  0  0  0
  139.0800   69.0940  225.4110 C   0  0  0  0  0  0  0  0  0  0  0  0
  139.8270   70.0850  226.2250 C   0  0  0  0  0  0  0  0  0  0  0  0
  139.6890   70.1160  227.5950 C   0  0  0  0  0  0  0  0  0  0  0  0
  140.3950   71.0510  228.3550 C   0  0  0  0  0  0  0  0  0  0  0  0
  141.2390   71.9520  227.7310 C   0  0  0  0  0  0  0  0  0  0  0  0
  141.3500   71.8880  226.3560 C   0  0  0  0  0  0  0  0  0  0  0  0
  140.6510   70.9700  225.6630 N   0  0  0  0  0  0  0  0  0  0  0  0
  136.7730   71.1010  223.3280 N   0  0  0  0  0  0  0  0  0  0  0  0
  135.4460   70.6140  223.6250 C   0  0  0  0  0  0  0  0  0  0  0  0
  134.8820   71.0460  224.8970 C   0  0  0  0  0  0  0  0  0  0  0  0
  134.7970   70.0900  225.9310 C   0  0  0  0  0  0  0  0  0  0  0  0
  134.3050   70.3920  227.1770 C   0  0  0  0  0  0  0  0  0  0  0  0
  133.8580   71.6550  227.4980 C   0  0  0  0  0  0  0  0  0  0  0  0
  133.9300   72.6060  226.5050 C   0  0  0  0  0  0  0  0  0  0  0  0
  133.4910   73.8910  226.7910 O   0  0  0  0  0  0  0  0  0  0  0  0
  134.4340   72.2940  225.2360 C   0  0  0  0  0  0  0  0  0  0  0  0
  136.9986   74.3107  220.9198 H   0  0  0  0  0  0  0  0  0  0  0  0
  139.2032   75.3084  220.2257 H   0  0  0  0  0  0  0  0  0  0  0  0
  141.2551   72.2921  222.5400 H   0  0  0  0  0  0  0  0  0  0  0  0
  137.2229   68.7828  224.7124 H   0  0  0  0  0  0  0  0  0  0  0  0
  139.3709   68.0339  225.4492 H   0  0  0  0  0  0  0  0  0  0  0  0
  139.0188   69.4002  228.0934 H   0  0  0  0  0  0  0  0  0  0  0  0
  140.2801   71.0710  229.4488 H   0  0  0  0  0  0  0  0  0  0  0  0
  141.8039   72.6960  228.3118 H   0  0  0  0  0  0  0  0  0  0  0  0
  142.0114   72.5890  225.8258 H   0  0  0  0  0  0  0  0  0  0  0  0
  134.7739   70.9561  222.8242 H   0  0  0  0  0  0  0  0  0  0  0  0
  135.5380   69.5201  223.6951 H   0  0  0  0  0  0  0  0  0  0  0  0
  135.1379   69.0634  225.7315 H   0  0  0  0  0  0  0  0  0  0  0  0
  134.2666   69.6020  227.9415 H   0  0  0  0  0  0  0  0  0  0  0  0
  133.4635   71.8917  228.4972 H   0  0  0  0  0  0  0  0  0  0  0  0
  132.8070   74.4010  226.2840 H   0  0  0  0  0  0  0  0  0  0  0  0
  134.4715   73.0889  224.4766 H   0  0  0  0  0  0  0  0  0  0  0  0
  1  2  2  0
  2  3  1  0
  3  4  2  0
  4  5  1  0
  5  6  2  0
  6  7  1  0
  6  8  1  0
  8  9  2  0
  9 10  1  0
 10 11  2  0
 11 12  1  0
 12 13  2  0
 13 14  1  0
 14 15  2  0
 15 16  1  0
 16 17  2  0
 17 18  1  0
 18 19  2  0
 11 20  1  0
 20 21  1  0
 21 22  1  0
 22 23  2  0
 23 24  1  0
 24 25  2  0
 25 26  1  0
 26 27  1  0
 26 28  2  0
 20  2  1  0
 28 22  1  0
  9  3  1  0
 19 14  1  0
  4 29  1  0
  5 30  1  0
  8 31  1  0
 12 32  1  0
 13 33  1  0
 15 34  1  0
 16 35  1  0
 17 36  1  0
 18 37  1  0
 21 38  1  0
 21 39  1  0
 23 40  1  0
 24 41  1  0
 25 42  1  0
 27 43  1  0
 28 44  1  0
M  END
>  <smiles>  (23) 
O=c1c2ccc(Cl)cc2nc(/C=C/c2ccccn2)n1Cc1cccc(O)c1

>  <score_type>  (23) 
oracle

>  <origin>  (23) 
autodockgpu

>  <m_score__min__energy>  (23) 
-8.2200000000000006

>  <m_primary>  (23) 
energy

>  <rmsd>  (23) 
9.818220188830459

>  <m_score__min__rmsd>  (23) 
9.818220188830459

>  <meeko>  (23) 
{"free_energy": -7.02, "intermolecular_energy": -8.81, "internal_energy": -1.35, "cluster_size": 4, "cluster_id": 4, "rank_in_cluster": 3}

>  <energy>  (23) 
-7.08

>  <cluster_rmsd>  (23) 
0.59

>  <cluster>  (23) 
4

$$$$

     RDKit          3D

 44 47  0  0  0  0  0  0  0  0999 V2000
  140.6480   74.5490  221.9630 O   0  0  0  0  0  0  0  0  0  0  0  0
  141.4730   74.9410  221.0980 C   0  0  0  0  0  0  0  0  0  0  0  0
  142.4190   74.0240  220.6880 C   0  0  0  0  0  0  0  0  0  0  0  0
  142.4360   72.7530  221.2170 C   0  0  0  0  0  0  0  0  0  0  0  0
  143.4060   71.8710  220.7730 C   0  0  0  0  0  0  0  0  0  0  0  0
  144.2970   72.3250  219.8250 C   0  0  0  0  0  0  0  0  0  0  0  0
  145.5470   71.2480  219.2290 Cl  0  0  0  0  0  0  0  0  0  0  0  0
  144.2700   73.6010  219.3040 C   0  0  0  0  0  0  0  0  0  0  0  0
  143.3090   74.4500  219.7540 C   0  0  0  0  0  0  0  0  0  0  0  0
  143.2410   75.6770  219.2880 N   0  0  0  0  0  0  0  0  0  0  0  0
  142.3150   76.6110  219.6730 C   0  0  0  0  0  0  0  0  0  0  0  0
  142.4030   77.8660  218.9980 C   0  0  0  0  0  0  0  0  0  0  0  0
  141.5070   78.6600  218.5000 C   0  0  0  0  0  0  0  0  0  0  0  0
  141.0280   79.8460  219.2520 C   0  0  0  0  0  0  0  0  0  0  0  0
  141.8900   80.8720  219.5710 C   0  0  0  0  0  0  0  0  0  0  0  0
  141.4320   81.9850  220.2790 C   0  0  0  0  0  0  0  0  0  0  0  0
  140.1060   82.0610  220.6630 C   0  0  0  0  0  0  0  0  0  0  0  0
  139.2730   81.0120  220.3240 C   0  0  0  0  0  0  0  0  0  0  0  0
  139.7580   79.9590  219.6410 N   0  0  0  0  0  0  0  0  0  0  0  0
  141.4360   76.2110  220.5880 N   0  0  0  0  0  0  0  0  0  0  0  0
  140.3940   77.0330  221.1590 C   0  0  0  0  0  0  0  0  0  0  0  0
  140.8440   78.1180  222.0220 C   0  0  0  0  0  0  0  0  0  0  0  0
  139.9080   78.6620  222.9270 C   0  0  0  0  0  0  0  0  0  0  0  0
  140.2280   79.6710  223.8020 C   0  0  0  0  0  0  0  0  0  0  0  0
  141.4900   80.2200  223.8520 C   0  0  0  0  0  0  0  0  0  0  0  0
  142.4220   79.7060  222.9780 C   0  0  0  0  0  0  0  0  0  0  0  0
  143.7050   80.2330  222.9990 O   0  0  0  0  0  0  0  0  0  0  0  0
  142.0920   78.6770  222.0880 C   0  0  0  0  0  0  0  0  0  0  0  0
  141.6979   72.4464  221.9728 H   0  0  0  0  0  0  0  0  0  0  0  0
  143.4635   70.8441  221.1631 H   0  0  0  0  0  0  0  0  0  0  0  0
  145.0025   73.9216  218.5486 H   0  0  0  0  0  0  0  0  0  0  0  0
  143.4335   78.2311  218.8765 H   0  0  0  0  0  0  0  0  0  0  0  0
  141.0946   78.4506  217.5020 H   0  0  0  0  0  0  0  0  0  0  0  0
  142.9453   80.8142  219.2662 H   0  0  0  0  0  0  0  0  0  0  0  0
  142.1257   82.8007  220.5310 H   0  0  0  0  0  0  0  0  0  0  0  0
  139.7260   82.9295  221.2210 H   0  0  0  0  0  0  0  0  0  0  0  0
  138.2119   81.0378  220.6129 H   0  0  0  0  0  0  0  0  0  0  0  0
  139.8213   77.4758  220.3308 H   0  0  0  0  0  0  0  0  0  0  0  0
  139.8043   76.3638  221.8028 H   0  0  0  0  0  0  0  0  0  0  0  0
  138.8830   78.2627  222.9319 H   0  0  0  0  0  0  0  0  0  0  0  0
  139.4530   80.0521  224.4833 H   0  0  0  0  0  0  0  0  0  0  0  0
  141.7410   81.0283  224.5546 H   0  0  0  0  0  0  0  0  0  0  0  0
  144.4320   80.0280  222.3550 H   0  0  0  0  0  0  0  0  0  0  0  0
  142.8719   78.3000  221.4100 H   0  0  0  0  0  0  0  0  0  0  0  0
  1  2  2  0
  2  3  1  0
  3  4  2  0
  4  5  1  0
  5  6  2  0
  6  7  1  0
  6  8  1  0
  8  9  2  0
  9 10  1  0
 10 11  2  0
 11 12  1  0
 12 13  2  0
 13 14  1  0
 14 15  2  0
 15 16  1  0
 16 17  2  0
 17 18  1  0
 18 19  2  0
 11 20  1  0
 20 21  1  0
 21 22  1  0
 22 23  2  0
 23 24  1  0
 24 25  2  0
 25 26  1  0
 26 27  1  0
 26 28  2  0
 20  2  1  0
 28 22  1  0
  9  3  1  0
 19 14  1  0
  4 29  1  0
  5 30  1  0
  8 31  1  0
 12 32  1  0
 13 33  1  0
 15 34  1  0
 16 35  1  0
 17 36  1  0
 18 37  1  0
 21 38  1  0
 21 39  1  0
 23 40  1  0
 24 41  1  0
 25 42  1  0
 27 43  1  0
 28 44  1  0
M  END
>  <smiles>  (24) 
O=c1c2ccc(Cl)cc2nc(/C=C/c2ccccn2)n1Cc1cccc(O)c1

>  <score_type>  (24) 
oracle

>  <origin>  (24) 
autodockgpu

>  <m_score__min__energy>  (24) 
-8.2200000000000006

>  <m_primary>  (24) 
energy

>  <rmsd>  (24) 
4.393213458928468

>  <m_score__min__rmsd>  (24) 
4.393213458928468

>  <meeko>  (24) 
{"free_energy": -6.72, "intermolecular_energy": -8.51, "internal_energy": -1.71, "cluster_size": 7, "cluster_id": 6, "rank_in_cluster": 3}

>  <energy>  (24) 
-7.02

>  <cluster_rmsd>  (24) 
0.62

>  <cluster>  (24) 
4

$$$$

     RDKit          3D

 44 47  0  0  0  0  0  0  0  0999 V2000
  142.7620   75.2660  219.6430 O   0  0  0  0  0  0  0  0  0  0  0  0
  141.8740   74.9270  220.4650 C   0  0  0  0  0  0  0  0  0  0  0  0
  141.1730   75.9500  221.0720 C   0  0  0  0  0  0  0  0  0  0  0  0
  141.4550   77.2640  220.7730 C   0  0  0  0  0  0  0  0  0  0  0  0
  140.7230   78.2510  221.4090 C   0  0  0  0  0  0  0  0  0  0  0  0
  139.7560   77.8540  222.3060 C   0  0  0  0  0  0  0  0  0  0  0  0
  138.8010   79.0660  223.1400 Cl  0  0  0  0  0  0  0  0  0  0  0  0
  139.4830   76.5340  222.5970 C   0  0  0  0  0  0  0  0  0  0  0  0
  140.2130   75.5800  221.9600 C   0  0  0  0  0  0  0  0  0  0  0  0
  139.9930   74.3080  222.2040 N   0  0  0  0  0  0  0  0  0  0  0  0
  140.6690   73.2700  221.6190 C   0  0  0  0  0  0  0  0  0  0  0  0
  140.2280   71.9660  222.0000 C   0  0  0  0  0  0  0  0  0  0  0  0
  139.4300   71.5470  222.9310 C   0  0  0  0  0  0  0  0  0  0  0  0
  139.9550   71.0690  224.2340 C   0  0  0  0  0  0  0  0  0  0  0  0
  140.7120   71.8960  225.0340 C   0  0  0  0  0  0  0  0  0  0  0  0
  141.2040   71.4400  226.2590 C   0  0  0  0  0  0  0  0  0  0  0  0
  140.9280   70.1510  226.6760 C   0  0  0  0  0  0  0  0  0  0  0  0
  140.1650   69.3520  225.8460 C   0  0  0  0  0  0  0  0  0  0  0  0
  139.7130   69.8340  224.6740 N   0  0  0  0  0  0  0  0  0  0  0  0
  141.6140   73.6130  220.7460 N   0  0  0  0  0  0  0  0  0  0  0  0
  142.4680   72.6890  220.0360 C   0  0  0  0  0  0  0  0  0  0  0  0
  143.8990   72.9470  220.1330 C   0  0  0  0  0  0  0  0  0  0  0  0
  144.6150   73.1060  218.9280 C   0  0  0  0  0  0  0  0  0  0  0  0
  145.9610   73.3740  218.8990 C   0  0  0  0  0  0  0  0  0  0  0  0
  146.7030   73.5050  220.0530 C   0  0  0  0  0  0  0  0  0  0  0  0
  146.0260   73.3540  221.2420 C   0  0  0  0  0  0  0  0  0  0  0  0
  146.7400   73.4800  222.4250 O   0  0  0  0  0  0  0  0  0  0  0  0
  144.6530   73.0810  221.2660 C   0  0  0  0  0  0  0  0  0  0  0  0
  142.2410   77.5222  220.0481 H   0  0  0  0  0  0  0  0  0  0  0  0
  140.9070   79.3162  221.2053 H   0  0  0  0  0  0  0  0  0  0  0  0
  138.7005   76.2618  223.3206 H   0  0  0  0  0  0  0  0  0  0  0  0
  140.6483   71.1590  221.3818 H   0  0  0  0  0  0  0  0  0  0  0  0
  138.3446   71.5456  222.7523 H   0  0  0  0  0  0  0  0  0  0  0  0
  140.9306   72.9229  224.7058 H   0  0  0  0  0  0  0  0  0  0  0  0
  141.8102   72.1055  226.8912 H   0  0  0  0  0  0  0  0  0  0  0  0
  141.3040   69.7734  227.6383 H   0  0  0  0  0  0  0  0  0  0  0  0
  139.9268   68.3203  226.1439 H   0  0  0  0  0  0  0  0  0  0  0  0
  142.2789   71.6809  220.4334 H   0  0  0  0  0  0  0  0  0  0  0  0
  142.2146   72.8046  218.9719 H   0  0  0  0  0  0  0  0  0  0  0  0
  144.0739   73.0116  217.9749 H   0  0  0  0  0  0  0  0  0  0  0  0
  146.4620   73.4875  217.9263 H   0  0  0  0  0  0  0  0  0  0  0  0
  147.7816   73.7194  220.0253 H   0  0  0  0  0  0  0  0  0  0  0  0
  146.3610   73.4450  223.3420 H   0  0  0  0  0  0  0  0  0  0  0  0
  144.1576   72.9691  222.2418 H   0  0  0  0  0  0  0  0  0  0  0  0
  1  2  2  0
  2  3  1  0
  3  4  2  0
  4  5  1  0
  5  6  2  0
  6  7  1  0
  6  8  1  0
  8  9  2  0
  9 10  1  0
 10 11  2  0
 11 12  1  0
 12 13  2  0
 13 14  1  0
 14 15  2  0
 15 16  1  0
 16 17  2  0
 17 18  1  0
 18 19  2  0
 11 20  1  0
 20 21  1  0
 21 22  1  0
 22 23  2  0
 23 24  1  0
 24 25  2  0
 25 26  1  0
 26 27  1  0
 26 28  2  0
 20  2  1  0
 28 22  1  0
  9  3  1  0
 19 14  1  0
  4 29  1  0
  5 30  1  0
  8 31  1  0
 12 32  1  0
 13 33  1  0
 15 34  1  0
 16 35  1  0
 17 36  1  0
 18 37  1  0
 21 38  1  0
 21 39  1  0
 23 40  1  0
 24 41  1  0
 25 42  1  0
 27 43  1  0
 28 44  1  0
M  END
>  <smiles>  (25) 
O=c1c2ccc(Cl)cc2nc(/C=C/c2ccccn2)n1Cc1cccc(O)c1

>  <score_type>  (25) 
oracle

>  <origin>  (25) 
autodockgpu

>  <m_score__min__energy>  (25) 
-8.2200000000000006

>  <m_primary>  (25) 
energy

>  <rmsd>  (25) 
7.878316523684098

>  <m_score__min__rmsd>  (25) 
7.878316523684098

>  <meeko>  (25) 
{"free_energy": -7.69, "intermolecular_energy": -9.48, "internal_energy": -0.8, "cluster_size": 18, "cluster_id": 1, "rank_in_cluster": 15}

>  <energy>  (25) 
-6.93

>  <cluster_rmsd>  (25) 
1.68

>  <cluster>  (25) 
4

$$$$

     RDKit          3D

 44 47  0  0  0  0  0  0  0  0999 V2000
  142.5350   75.9360  219.2800 O   0  0  0  0  0  0  0  0  0  0  0  0
  141.7610   75.6630  220.2320 C   0  0  0  0  0  0  0  0  0  0  0  0
  141.2670   76.7330  220.9510 C   0  0  0  0  0  0  0  0  0  0  0  0
  141.6230   78.0210  220.6210 C   0  0  0  0  0  0  0  0  0  0  0  0
  141.1020   79.0580  221.3740 C   0  0  0  0  0  0  0  0  0  0  0  0
  140.2560   78.7330  222.4110 C   0  0  0  0  0  0  0  0  0  0  0  0
  139.5680   80.0100  223.3970 Cl  0  0  0  0  0  0  0  0  0  0  0  0
  139.9070   77.4390  222.7330 C   0  0  0  0  0  0  0  0  0  0  0  0
  140.4310   76.4350  221.9800 C   0  0  0  0  0  0  0  0  0  0  0  0
  140.1300   75.1840  222.2460 N   0  0  0  0  0  0  0  0  0  0  0  0
  140.6010   74.1010  221.5520 C   0  0  0  0  0  0  0  0  0  0  0  0
  140.1020   72.8360  221.9900 C   0  0  0  0  0  0  0  0  0  0  0  0
  140.6860   71.7710  222.4420 C   0  0  0  0  0  0  0  0  0  0  0  0
  140.4340   71.2850  223.8220 C   0  0  0  0  0  0  0  0  0  0  0  0
  139.6060   70.2080  224.0490 C   0  0  0  0  0  0  0  0  0  0  0  0
  139.3730   69.7570  225.3490 C   0  0  0  0  0  0  0  0  0  0  0  0
  139.9770   70.3920  226.4190 C   0  0  0  0  0  0  0  0  0  0  0  0
  140.8010   71.4680  226.1510 C   0  0  0  0  0  0  0  0  0  0  0  0
  140.9960   71.8690  224.8810 N   0  0  0  0  0  0  0  0  0  0  0  0
  141.4230   74.3730  220.5410 N   0  0  0  0  0  0  0  0  0  0  0  0
  142.0600   73.3900  219.6960 C   0  0  0  0  0  0  0  0  0  0  0  0
  143.5120   73.3180  219.7900 C   0  0  0  0  0  0  0  0  0  0  0  0
  144.0730   73.1100  221.0680 C   0  0  0  0  0  0  0  0  0  0  0  0
  145.4270   73.0040  221.2710 C   0  0  0  0  0  0  0  0  0  0  0  0
  146.3290   73.0940  220.2350 C   0  0  0  0  0  0  0  0  0  0  0  0
  145.8060   73.2960  218.9780 C   0  0  0  0  0  0  0  0  0  0  0  0
  146.6840   73.3910  217.9070 O   0  0  0  0  0  0  0  0  0  0  0  0
  144.4250   73.4040  218.7740 C   0  0  0  0  0  0  0  0  0  0  0  0
  142.3040   78.2206  219.7805 H   0  0  0  0  0  0  0  0  0  0  0  0
  141.3546   80.1054  221.1522 H   0  0  0  0  0  0  0  0  0  0  0  0
  139.2273   77.2255  223.5711 H   0  0  0  0  0  0  0  0  0  0  0  0
  139.0070   72.7488  221.9323 H   0  0  0  0  0  0  0  0  0  0  0  0
  141.3801   71.2178  221.7922 H   0  0  0  0  0  0  0  0  0  0  0  0
  139.1252   69.7000  223.2000 H   0  0  0  0  0  0  0  0  0  0  0  0
  138.7094   68.8971  225.5225 H   0  0  0  0  0  0  0  0  0  0  0  0
  139.8067   70.0510  227.4509 H   0  0  0  0  0  0  0  0  0  0  0  0
  141.2985   71.9978  226.9767 H   0  0  0  0  0  0  0  0  0  0  0  0
  141.6552   72.4026  219.9628 H   0  0  0  0  0  0  0  0  0  0  0  0
  141.8426   73.6986  218.6628 H   0  0  0  0  0  0  0  0  0  0  0  0
  143.4002   73.0297  221.9345 H   0  0  0  0  0  0  0  0  0  0  0  0
  145.8022   72.8423  222.2923 H   0  0  0  0  0  0  0  0  0  0  0  0
  147.4127   73.0088  220.4032 H   0  0  0  0  0  0  0  0  0  0  0  0
  146.9740   74.2290  217.4620 H   0  0  0  0  0  0  0  0  0  0  0  0
  144.0569   73.5654  217.7501 H   0  0  0  0  0  0  0  0  0  0  0  0
  1  2  2  0
  2  3  1  0
  3  4  2  0
  4  5  1  0
  5  6  2  0
  6  7  1  0
  6  8  1  0
  8  9  2  0
  9 10  1  0
 10 11  2  0
 11 12  1  0
 12 13  2  0
 13 14  1  0
 14 15  2  0
 15 16  1  0
 16 17  2  0
 17 18  1  0
 18 19  2  0
 11 20  1  0
 20 21  1  0
 21 22  1  0
 22 23  2  0
 23 24  1  0
 24 25  2  0
 25 26  1  0
 26 27  1  0
 26 28  2  0
 20  2  1  0
 28 22  1  0
  9  3  1  0
 19 14  1  0
  4 29  1  0
  5 30  1  0
  8 31  1  0
 12 32  1  0
 13 33  1  0
 15 34  1  0
 16 35  1  0
 17 36  1  0
 18 37  1  0
 21 38  1  0
 21 39  1  0
 23 40  1  0
 24 41  1  0
 25 42  1  0
 27 43  1  0
 28 44  1  0
M  END
>  <smiles>  (26) 
O=c1c2ccc(Cl)cc2nc(/C=C/c2ccccn2)n1Cc1cccc(O)c1

>  <score_type>  (26) 
oracle

>  <origin>  (26) 
autodockgpu

>  <m_score__min__energy>  (26) 
-8.2200000000000006

>  <m_primary>  (26) 
energy

>  <rmsd>  (26) 
7.628102951051215

>  <m_score__min__rmsd>  (26) 
7.628102951051215

>  <meeko>  (26) 
{"free_energy": -8.03, "intermolecular_energy": -9.82, "internal_energy": -1.02, "cluster_size": 18, "cluster_id": 1, "rank_in_cluster": 3}

>  <energy>  (26) 
-6.9

>  <cluster_rmsd>  (26) 
0.0

>  <cluster>  (26) 
5

$$$$

     RDKit          3D

 44 47  0  0  0  0  0  0  0  0999 V2000
  136.6150   75.6770  221.9000 O   0  0  0  0  0  0  0  0  0  0  0  0
  137.8110   75.3000  221.9960 C   0  0  0  0  0  0  0  0  0  0  0  0
  138.7490   76.2810  222.2470 C   0  0  0  0  0  0  0  0  0  0  0  0
  138.3660   77.5960  222.3790 C   0  0  0  0  0  0  0  0  0  0  0  0
  139.3450   78.5410  222.6300 C   0  0  0  0  0  0  0  0  0  0  0  0
  140.6470   78.1020  222.7300 C   0  0  0  0  0  0  0  0  0  0  0  0
  141.9270   79.2600  223.0460 Cl  0  0  0  0  0  0  0  0  0  0  0  0
  141.0180   76.7820  222.5950 C   0  0  0  0  0  0  0  0  0  0  0  0
  140.0400   75.8700  222.3500 C   0  0  0  0  0  0  0  0  0  0  0  0
  140.3420   74.5980  222.2120 N   0  0  0  0  0  0  0  0  0  0  0  0
  139.4360   73.6010  221.9640 C   0  0  0  0  0  0  0  0  0  0  0  0
  139.9860   72.2840  221.8990 C   0  0  0  0  0  0  0  0  0  0  0  0
  139.6300   71.1570  222.4310 C   0  0  0  0  0  0  0  0  0  0  0  0
  139.8100   70.9020  223.8820 C   0  0  0  0  0  0  0  0  0  0  0  0
  140.6500   71.6920  224.6360 C   0  0  0  0  0  0  0  0  0  0  0  0
  140.8150   71.4460  226.0010 C   0  0  0  0  0  0  0  0  0  0  0  0
  140.1310   70.4050  226.6020 C   0  0  0  0  0  0  0  0  0  0  0  0
  139.2980   69.6360  225.8120 C   0  0  0  0  0  0  0  0  0  0  0  0
  139.1700   69.9090  224.5000 N   0  0  0  0  0  0  0  0  0  0  0  0
  138.1660   73.9850  221.8580 N   0  0  0  0  0  0  0  0  0  0  0  0
  137.0520   73.1110  221.5710 C   0  0  0  0  0  0  0  0  0  0  0  0
  136.4460   72.4570  222.7230 C   0  0  0  0  0  0  0  0  0  0  0  0
  135.4720   73.1790  223.4450 C   0  0  0  0  0  0  0  0  0  0  0  0
  134.8200   72.6540  224.5320 C   0  0  0  0  0  0  0  0  0  0  0  0
  135.0760   71.3800  224.9910 C   0  0  0  0  0  0  0  0  0  0  0  0
  136.0220   70.6550  224.3030 C   0  0  0  0  0  0  0  0  0  0  0  0
  136.3060   69.3670  224.7350 O   0  0  0  0  0  0  0  0  0  0  0  0
  136.6850   71.1950  223.1940 C   0  0  0  0  0  0  0  0  0  0  0  0
  137.3095   77.8882  222.2874 H   0  0  0  0  0  0  0  0  0  0  0  0
  139.0926   79.6054  222.7457 H   0  0  0  0  0  0  0  0  0  0  0  0
  142.0710   76.4761  222.6826 H   0  0  0  0  0  0  0  0  0  0  0  0
  140.8889   72.2124  221.2748 H   0  0  0  0  0  0  0  0  0  0  0  0
  139.1867   70.3758  221.7960 H   0  0  0  0  0  0  0  0  0  0  0  0
  141.1939   72.5213  224.1602 H   0  0  0  0  0  0  0  0  0  0  0  0
  141.4882   72.0795  226.5973 H   0  0  0  0  0  0  0  0  0  0  0  0
  140.2465   70.1957  227.6757 H   0  0  0  0  0  0  0  0  0  0  0  0
  138.7385   68.7994  226.2559 H   0  0  0  0  0  0  0  0  0  0  0  0
  136.2736   73.7085  221.0740 H   0  0  0  0  0  0  0  0  0  0  0  0
  137.4603   72.3013  220.9484 H   0  0  0  0  0  0  0  0  0  0  0  0
  135.2261   74.2020  223.1240 H   0  0  0  0  0  0  0  0  0  0  0  0
  134.0706   73.2682  225.0527 H   0  0  0  0  0  0  0  0  0  0  0  0
  134.5507   70.9637  225.8632 H   0  0  0  0  0  0  0  0  0  0  0  0
  137.2070   68.9530  224.7830 H   0  0  0  0  0  0  0  0  0  0  0  0
  137.4329   70.5755  222.6774 H   0  0  0  0  0  0  0  0  0  0  0  0
  1  2  2  0
  2  3  1  0
  3  4  2  0
  4  5  1  0
  5  6  2  0
  6  7  1  0
  6  8  1  0
  8  9  2  0
  9 10  1  0
 10 11  2  0
 11 12  1  0
 12 13  2  0
 13 14  1  0
 14 15  2  0
 15 16  1  0
 16 17  2  0
 17 18  1  0
 18 19  2  0
 11 20  1  0
 20 21  1  0
 21 22  1  0
 22 23  2  0
 23 24  1  0
 24 25  2  0
 25 26  1  0
 26 27  1  0
 26 28  2  0
 20  2  1  0
 28 22  1  0
  9  3  1  0
 19 14  1  0
  4 29  1  0
  5 30  1  0
  8 31  1  0
 12 32  1  0
 13 33  1  0
 15 34  1  0
 16 35  1  0
 17 36  1  0
 18 37  1  0
 21 38  1  0
 21 39  1  0
 23 40  1  0
 24 41  1  0
 25 42  1  0
 27 43  1  0
 28 44  1  0
M  END
>  <smiles>  (27) 
O=c1c2ccc(Cl)cc2nc(/C=C/c2ccccn2)n1Cc1cccc(O)c1

>  <score_type>  (27) 
oracle

>  <origin>  (27) 
autodockgpu

>  <m_score__min__energy>  (27) 
-8.2200000000000006

>  <m_primary>  (27) 
energy

>  <rmsd>  (27) 
8.295225203286922

>  <m_score__min__rmsd>  (27) 
8.295225203286922

>  <meeko>  (27) 
{"free_energy": -6.19, "intermolecular_energy": -7.98, "internal_energy": -2.09, "cluster_size": 5, "cluster_id": 5, "rank_in_cluster": 5}

>  <energy>  (27) 
-6.9

>  <cluster_rmsd>  (27) 
0.21

>  <cluster>  (27) 
5

$$$$

     RDKit          3D

 44 47  0  0  0  0  0  0  0  0999 V2000
  139.6310   75.0960  221.0790 O   0  0  0  0  0  0  0  0  0  0  0  0
  140.5950   75.7680  220.6300 C   0  0  0  0  0  0  0  0  0  0  0  0
  141.8100   75.1200  220.5420 C   0  0  0  0  0  0  0  0  0  0  0  0
  141.9320   73.8060  220.9360 C   0  0  0  0  0  0  0  0  0  0  0  0
  143.1720   73.2030  220.8290 C   0  0  0  0  0  0  0  0  0  0  0  0
  144.2120   73.9600  220.3340 C   0  0  0  0  0  0  0  0  0  0  0  0
  145.8050   73.2420  220.1800 Cl  0  0  0  0  0  0  0  0  0  0  0  0
  144.0780   75.2750  219.9440 C   0  0  0  0  0  0  0  0  0  0  0  0
  142.8500   75.8480  220.0570 C   0  0  0  0  0  0  0  0  0  0  0  0
  142.6700   77.0990  219.6990 N   0  0  0  0  0  0  0  0  0  0  0  0
  141.4780   77.7710  219.7720 C   0  0  0  0  0  0  0  0  0  0  0  0
  141.5070   79.1130  219.2830 C   0  0  0  0  0  0  0  0  0  0  0  0
  141.8090   80.2430  219.8380 C   0  0  0  0  0  0  0  0  0  0  0  0
  141.9910   80.3530  221.3070 C   0  0  0  0  0  0  0  0  0  0  0  0
  141.7300   81.5360  221.9620 C   0  0  0  0  0  0  0  0  0  0  0  0
  141.9040   81.6320  223.3440 C   0  0  0  0  0  0  0  0  0  0  0  0
  142.3390   80.5340  224.0630 C   0  0  0  0  0  0  0  0  0  0  0  0
  142.5890   79.3650  223.3700 C   0  0  0  0  0  0  0  0  0  0  0  0
  142.4090   79.3180  222.0370 N   0  0  0  0  0  0  0  0  0  0  0  0
  140.4480   77.0740  220.2460 N   0  0  0  0  0  0  0  0  0  0  0  0
  139.1120   77.5870  220.4370 C   0  0  0  0  0  0  0  0  0  0  0  0
  138.9610   78.5930  221.4810 C   0  0  0  0  0  0  0  0  0  0  0  0
  139.3810   78.2480  222.7830 C   0  0  0  0  0  0  0  0  0  0  0  0
  139.3080   79.1240  223.8380 C   0  0  0  0  0  0  0  0  0  0  0  0
  138.8160   80.4030  223.6910 C   0  0  0  0  0  0  0  0  0  0  0  0
  138.4000   80.7620  222.4290 C   0  0  0  0  0  0  0  0  0  0  0  0
  137.8990   82.0430  222.2420 O   0  0  0  0  0  0  0  0  0  0  0  0
  138.4770   79.8660  221.3560 C   0  0  0  0  0  0  0  0  0  0  0  0
  141.0660   73.2507  221.3255 H   0  0  0  0  0  0  0  0  0  0  0  0
  143.3230   72.1554  221.1286 H   0  0  0  0  0  0  0  0  0  0  0  0
  144.9360   75.8423  219.5542 H   0  0  0  0  0  0  0  0  0  0  0  0
  141.2151   79.2042  218.2264 H   0  0  0  0  0  0  0  0  0  0  0  0
  141.9329   81.1374  219.2098 H   0  0  0  0  0  0  0  0  0  0  0  0
  141.3823   82.4107  221.3928 H   0  0  0  0  0  0  0  0  0  0  0  0
  141.6952   82.5805  223.8604 H   0  0  0  0  0  0  0  0  0  0  0  0
  142.4816   80.5893  225.1523 H   0  0  0  0  0  0  0  0  0  0  0  0
  142.9359   78.4710  223.9089 H   0  0  0  0  0  0  0  0  0  0  0  0
  138.7835   78.0345  219.4873 H   0  0  0  0  0  0  0  0  0  0  0  0
  138.5060   76.7279  220.7606 H   0  0  0  0  0  0  0  0  0  0  0  0
  139.7821   77.2391  222.9597 H   0  0  0  0  0  0  0  0  0  0  0  0
  139.6523   78.7952  224.8296 H   0  0  0  0  0  0  0  0  0  0  0  0
  138.7587   81.1013  224.5390 H   0  0  0  0  0  0  0  0  0  0  0  0
  136.9430   82.2870  222.1360 H   0  0  0  0  0  0  0  0  0  0  0  0
  138.1323   80.2014  220.3667 H   0  0  0  0  0  0  0  0  0  0  0  0
  1  2  2  0
  2  3  1  0
  3  4  2  0
  4  5  1  0
  5  6  2  0
  6  7  1  0
  6  8  1  0
  8  9  2  0
  9 10  1  0
 10 11  2  0
 11 12  1  0
 12 13  2  0
 13 14  1  0
 14 15  2  0
 15 16  1  0
 16 17  2  0
 17 18  1  0
 18 19  2  0
 11 20  1  0
 20 21  1  0
 21 22  1  0
 22 23  2  0
 23 24  1  0
 24 25  2  0
 25 26  1  0
 26 27  1  0
 26 28  2  0
 20  2  1  0
 28 22  1  0
  9  3  1  0
 19 14  1  0
  4 29  1  0
  5 30  1  0
  8 31  1  0
 12 32  1  0
 13 33  1  0
 15 34  1  0
 16 35  1  0
 17 36  1  0
 18 37  1  0
 21 38  1  0
 21 39  1  0
 23 40  1  0
 24 41  1  0
 25 42  1  0
 27 43  1  0
 28 44  1  0
M  END
>  <smiles>  (28) 
O=c1c2ccc(Cl)cc2nc(/C=C/c2ccccn2)n1Cc1cccc(O)c1

>  <score_type>  (28) 
oracle

>  <origin>  (28) 
autodockgpu

>  <m_score__min__energy>  (28) 
-8.2200000000000006

>  <m_primary>  (28) 
energy

>  <rmsd>  (28) 
3.9877389887704062

>  <m_score__min__rmsd>  (28) 
3.9877389887704062

>  <meeko>  (28) 
{"free_energy": -6.2, "intermolecular_energy": -7.99, "internal_energy": -2.11, "cluster_size": 10, "cluster_id": 9, "rank_in_cluster": 10}

>  <energy>  (28) 
-6.86

>  <cluster_rmsd>  (28) 
0.4

>  <cluster>  (28) 
5

$$$$

     RDKit          3D

 44 47  0  0  0  0  0  0  0  0999 V2000
  141.0110   75.2440  221.9750 O   0  0  0  0  0  0  0  0  0  0  0  0
  141.3500   76.1520  221.1740 C   0  0  0  0  0  0  0  0  0  0  0  0
  141.3910   77.4360  221.6780 C   0  0  0  0  0  0  0  0  0  0  0  0
  141.0710   77.6800  222.9950 C   0  0  0  0  0  0  0  0  0  0  0  0
  141.1270   78.9850  223.4510 C   0  0  0  0  0  0  0  0  0  0  0  0
  141.5010   79.9610  222.5530 C   0  0  0  0  0  0  0  0  0  0  0  0
  141.5870   81.6330  223.0810 Cl  0  0  0  0  0  0  0  0  0  0  0  0
  141.8180   79.7050  221.2370 C   0  0  0  0  0  0  0  0  0  0  0  0
  141.7570   78.4150  220.8100 C   0  0  0  0  0  0  0  0  0  0  0  0
  142.0490   78.1180  219.5640 N   0  0  0  0  0  0  0  0  0  0  0  0
  142.0190   76.8550  219.0320 C   0  0  0  0  0  0  0  0  0  0  0  0
  142.4210   76.7630  217.6650 C   0  0  0  0  0  0  0  0  0  0  0  0
  143.5820   76.6860  217.0950 C   0  0  0  0  0  0  0  0  0  0  0  0
  143.9690   75.4970  216.2960 C   0  0  0  0  0  0  0  0  0  0  0  0
  143.0520   74.8660  215.4850 C   0  0  0  0  0  0  0  0  0  0  0  0
  143.4220   73.7470  214.7360 C   0  0  0  0  0  0  0  0  0  0  0  0
  144.7180   73.2670  214.8060 C   0  0  0  0  0  0  0  0  0  0  0  0
  145.6080   73.9280  215.6310 C   0  0  0  0  0  0  0  0  0  0  0  0
  145.2070   75.0030  216.3350 N   0  0  0  0  0  0  0  0  0  0  0  0
  141.6620   75.8830  219.8680 N   0  0  0  0  0  0  0  0  0  0  0  0
  141.5340   74.4880  219.5180 C   0  0  0  0  0  0  0  0  0  0  0  0
  142.7520   73.6940  219.6200 C   0  0  0  0  0  0  0  0  0  0  0  0
  142.7020   72.5240  220.4050 C   0  0  0  0  0  0  0  0  0  0  0  0
  143.7830   71.6890  220.5530 C   0  0  0  0  0  0  0  0  0  0  0  0
  144.9900   71.9430  219.9410 C   0  0  0  0  0  0  0  0  0  0  0  0
  145.0630   73.0800  219.1690 C   0  0  0  0  0  0  0  0  0  0  0  0
  146.2630   73.3690  218.5360 O   0  0  0  0  0  0  0  0  0  0  0  0
  143.9590   73.9290  219.0200 C   0  0  0  0  0  0  0  0  0  0  0  0
  140.7787   76.8592  223.6665 H   0  0  0  0  0  0  0  0  0  0  0  0
  140.8816   79.2347  224.4938 H   0  0  0  0  0  0  0  0  0  0  0  0
  142.1106   80.5165  220.5545 H   0  0  0  0  0  0  0  0  0  0  0  0
  141.5796   76.7562  216.9565 H   0  0  0  0  0  0  0  0  0  0  0  0
  144.2939   77.5173  217.2054 H   0  0  0  0  0  0  0  0  0  0  0  0
  142.0213   75.2460  215.4269 H   0  0  0  0  0  0  0  0  0  0  0  0
  142.6840   73.2476  214.0910 H   0  0  0  0  0  0  0  0  0  0  0  0
  145.0298   72.3874  214.2236 H   0  0  0  0  0  0  0  0  0  0  0  0
  146.6466   73.5749  215.7126 H   0  0  0  0  0  0  0  0  0  0  0  0
  140.7825   74.0403  220.1849 H   0  0  0  0  0  0  0  0  0  0  0  0
  141.2548   74.4713  218.4542 H   0  0  0  0  0  0  0  0  0  0  0  0
  141.7626   72.2702  220.9180 H   0  0  0  0  0  0  0  0  0  0  0  0
  143.6812   70.7905  221.1793 H   0  0  0  0  0  0  0  0  0  0  0  0
  145.8524   71.2711  220.0629 H   0  0  0  0  0  0  0  0  0  0  0  0
  146.4410   74.1500  217.9490 H   0  0  0  0  0  0  0  0  0  0  0  0
  144.0673   74.8256  218.3920 H   0  0  0  0  0  0  0  0  0  0  0  0
  1  2  2  0
  2  3  1  0
  3  4  2  0
  4  5  1  0
  5  6  2  0
  6  7  1  0
  6  8  1  0
  8  9  2  0
  9 10  1  0
 10 11  2  0
 11 12  1  0
 12 13  2  0
 13 14  1  0
 14 15  2  0
 15 16  1  0
 16 17  2  0
 17 18  1  0
 18 19  2  0
 11 20  1  0
 20 21  1  0
 21 22  1  0
 22 23  2  0
 23 24  1  0
 24 25  2  0
 25 26  1  0
 26 27  1  0
 26 28  2  0
 20  2  1  0
 28 22  1  0
  9  3  1  0
 19 14  1  0
  4 29  1  0
  5 30  1  0
  8 31  1  0
 12 32  1  0
 13 33  1  0
 15 34  1  0
 16 35  1  0
 17 36  1  0
 18 37  1  0
 21 38  1  0
 21 39  1  0
 23 40  1  0
 24 41  1  0
 25 42  1  0
 27 43  1  0
 28 44  1  0
M  END
>  <smiles>  (29) 
O=c1c2ccc(Cl)cc2nc(/C=C/c2ccccn2)n1Cc1cccc(O)c1

>  <score_type>  (29) 
oracle

>  <origin>  (29) 
autodockgpu

>  <m_score__min__energy>  (29) 
-8.2200000000000006

>  <m_primary>  (29) 
energy

>  <rmsd>  (29) 
7.770609283248305

>  <m_score__min__rmsd>  (29) 
7.770609283248305

>  <meeko>  (29) 
{"free_energy": -6.29, "intermolecular_energy": -8.07, "internal_energy": -2.08, "cluster_size": 2, "cluster_id": 7, "rank_in_cluster": 2}

>  <energy>  (29) 
-6.74

>  <cluster_rmsd>  (29) 
0.73

>  <cluster>  (29) 
5

$$$$

     RDKit          3D

 44 47  0  0  0  0  0  0  0  0999 V2000
  141.8920   75.0320  218.7100 O   0  0  0  0  0  0  0  0  0  0  0  0
  141.4130   74.8290  219.8550 C   0  0  0  0  0  0  0  0  0  0  0  0
  141.2110   75.9430  220.6450 C   0  0  0  0  0  0  0  0  0  0  0  0
  141.5290   77.1980  220.1770 C   0  0  0  0  0  0  0  0  0  0  0  0
  141.3080   78.2820  221.0080 C   0  0  0  0  0  0  0  0  0  0  0  0
  140.7820   78.0340  222.2570 C   0  0  0  0  0  0  0  0  0  0  0  0
  140.4830   79.3730  223.3510 Cl  0  0  0  0  0  0  0  0  0  0  0  0
  140.4680   76.7720  222.7140 C   0  0  0  0  0  0  0  0  0  0  0  0
  140.6930   75.7210  221.8810 C   0  0  0  0  0  0  0  0  0  0  0  0
  140.4110   74.4980  222.2700 N   0  0  0  0  0  0  0  0  0  0  0  0
  140.5980   73.3730  221.5110 C   0  0  0  0  0  0  0  0  0  0  0  0
  140.1760   72.1520  222.1210 C   0  0  0  0  0  0  0  0  0  0  0  0
  139.3110   71.8880  223.0490 C   0  0  0  0  0  0  0  0  0  0  0  0
  139.7160   71.2130  224.3070 C   0  0  0  0  0  0  0  0  0  0  0  0
  140.7000   71.7490  225.1080 C   0  0  0  0  0  0  0  0  0  0  0  0
  141.0760   71.1080  226.2900 C   0  0  0  0  0  0  0  0  0  0  0  0
  140.4580   69.9280  226.6630 C   0  0  0  0  0  0  0  0  0  0  0  0
  139.4750   69.4230  225.8340 C   0  0  0  0  0  0  0  0  0  0  0  0
  139.1450   70.0740  224.7030 N   0  0  0  0  0  0  0  0  0  0  0  0
  141.1060   73.5700  220.2970 N   0  0  0  0  0  0  0  0  0  0  0  0
  141.4130   72.5310  219.3420 C   0  0  0  0  0  0  0  0  0  0  0  0
  142.7990   72.0820  219.3180 C   0  0  0  0  0  0  0  0  0  0  0  0
  143.0570   70.7460  219.6930 C   0  0  0  0  0  0  0  0  0  0  0  0
  144.3210   70.2090  219.6860 C   0  0  0  0  0  0  0  0  0  0  0  0
  145.4240   70.9450  219.3100 C   0  0  0  0  0  0  0  0  0  0  0  0
  145.1970   72.2510  218.9390 C   0  0  0  0  0  0  0  0  0  0  0  0
  146.2840   73.0230  218.5530 O   0  0  0  0  0  0  0  0  0  0  0  0
  143.9060   72.7940  218.9480 C   0  0  0  0  0  0  0  0  0  0  0  0
  141.9477   77.3354  219.1691 H   0  0  0  0  0  0  0  0  0  0  0  0
  141.5440   79.3060  220.6828 H   0  0  0  0  0  0  0  0  0  0  0  0
  140.0491   76.6201  223.7197 H   0  0  0  0  0  0  0  0  0  0  0  0
  140.6854   71.2610  221.7252 H   0  0  0  0  0  0  0  0  0  0  0  0
  138.2578   72.1692  222.9017 H   0  0  0  0  0  0  0  0  0  0  0  0
  141.1926   72.6878  224.8147 H   0  0  0  0  0  0  0  0  0  0  0  0
  141.8634   71.5412  226.9244 H   0  0  0  0  0  0  0  0  0  0  0  0
  140.7403   69.4082  227.5904 H   0  0  0  0  0  0  0  0  0  0  0  0
  138.9610   68.4872  226.0987 H   0  0  0  0  0  0  0  0  0  0  0  0
  140.7804   71.6615  219.5740 H   0  0  0  0  0  0  0  0  0  0  0  0
  141.2237   72.9700  218.3513 H   0  0  0  0  0  0  0  0  0  0  0  0
  142.2139   70.1109  220.0025 H   0  0  0  0  0  0  0  0  0  0  0  0
  144.4571   69.1605  219.9895 H   0  0  0  0  0  0  0  0  0  0  0  0
  146.4346   70.5107  219.3066 H   0  0  0  0  0  0  0  0  0  0  0  0
  146.3280   74.0150  218.5630 H   0  0  0  0  0  0  0  0  0  0  0  0
  143.7766   73.8429  218.6430 H   0  0  0  0  0  0  0  0  0  0  0  0
  1  2  2  0
  2  3  1  0
  3  4  2  0
  4  5  1  0
  5  6  2  0
  6  7  1  0
  6  8  1  0
  8  9  2  0
  9 10  1  0
 10 11  2  0
 11 12  1  0
 12 13  2  0
 13 14  1  0
 14 15  2  0
 15 16  1  0
 16 17  2  0
 17 18  1  0
 18 19  2  0
 11 20  1  0
 20 21  1  0
 21 22  1  0
 22 23  2  0
 23 24  1  0
 24 25  2  0
 25 26  1  0
 26 27  1  0
 26 28  2  0
 20  2  1  0
 28 22  1  0
  9  3  1  0
 19 14  1  0
  4 29  1  0
  5 30  1  0
  8 31  1  0
 12 32  1  0
 13 33  1  0
 15 34  1  0
 16 35  1  0
 17 36  1  0
 18 37  1  0
 21 38  1  0
 21 39  1  0
 23 40  1  0
 24 41  1  0
 25 42  1  0
 27 43  1  0
 28 44  1  0
M  END
>  <smiles>  (30) 
O=c1c2ccc(Cl)cc2nc(/C=C/c2ccccn2)n1Cc1cccc(O)c1

>  <score_type>  (30) 
oracle

>  <origin>  (30) 
autodockgpu

>  <m_score__min__energy>  (30) 
-8.2200000000000006

>  <m_primary>  (30) 
energy

>  <rmsd>  (30) 
8.400661001856518

>  <m_score__min__rmsd>  (30) 
8.400661001856518

>  <meeko>  (30) 
{"free_energy": -7.85, "intermolecular_energy": -9.64, "internal_energy": -0.95, "cluster_size": 18, "cluster_id": 1, "rank_in_cluster": 12}

>  <energy>  (30) 
-6.19

>  <cluster_rmsd>  (30) 
1.85

>  <cluster>  (30) 
5

$$$$

     RDKit          3D

 44 47  0  0  0  0  0  0  0  0999 V2000
  142.0940   74.9300  218.8110 O   0  0  0  0  0  0  0  0  0  0  0  0
  141.5260   74.7430  219.9170 C   0  0  0  0  0  0  0  0  0  0  0  0
  141.3190   75.8610  220.7000 C   0  0  0  0  0  0  0  0  0  0  0  0
  141.7250   77.1030  220.2670 C   0  0  0  0  0  0  0  0  0  0  0  0
  141.4940   78.1910  221.0890 C   0  0  0  0  0  0  0  0  0  0  0  0
  140.8710   77.9600  222.2960 C   0  0  0  0  0  0  0  0  0  0  0  0
  140.5560   79.3060  223.3770 Cl  0  0  0  0  0  0  0  0  0  0  0  0
  140.4690   76.7120  222.7190 C   0  0  0  0  0  0  0  0  0  0  0  0
  140.7050   75.6560  221.8950 C   0  0  0  0  0  0  0  0  0  0  0  0
  140.3420   74.4450  222.2520 N   0  0  0  0  0  0  0  0  0  0  0  0
  140.5320   73.3160  221.4990 C   0  0  0  0  0  0  0  0  0  0  0  0
  140.0140   72.1130  222.0680 C   0  0  0  0  0  0  0  0  0  0  0  0
  139.2190   71.8850  223.0650 C   0  0  0  0  0  0  0  0  0  0  0  0
  139.7270   71.3090  224.3350 C   0  0  0  0  0  0  0  0  0  0  0  0
  139.2000   70.1400  224.8380 C   0  0  0  0  0  0  0  0  0  0  0  0
  139.6820   69.6030  226.0340 C   0  0  0  0  0  0  0  0  0  0  0  0
  140.6960   70.2460  226.7190 C   0  0  0  0  0  0  0  0  0  0  0  0
  141.1990   71.4160  226.1820 C   0  0  0  0  0  0  0  0  0  0  0  0
  140.7040   71.8970  225.0270 N   0  0  0  0  0  0  0  0  0  0  0  0
  141.1330   73.4970  220.3260 N   0  0  0  0  0  0  0  0  0  0  0  0
  141.4600   72.4500  219.3860 C   0  0  0  0  0  0  0  0  0  0  0  0
  142.8550   72.0290  219.3660 C   0  0  0  0  0  0  0  0  0  0  0  0
  143.1380   70.6960  219.7290 C   0  0  0  0  0  0  0  0  0  0  0  0
  144.4130   70.1850  219.7250 C   0  0  0  0  0  0  0  0  0  0  0  0
  145.5020   70.9460  219.3620 C   0  0  0  0  0  0  0  0  0  0  0  0
  145.2510   72.2510  219.0030 C   0  0  0  0  0  0  0  0  0  0  0  0
  146.3240   73.0490  218.6310 O   0  0  0  0  0  0  0  0  0  0  0  0
  143.9500   72.7680  219.0090 C   0  0  0  0  0  0  0  0  0  0  0  0
  142.2202   77.2269  219.2926 H   0  0  0  0  0  0  0  0  0  0  0  0
  141.7970   79.2052  220.7897 H   0  0  0  0  0  0  0  0  0  0  0  0
  139.9734   76.5741  223.6913 H   0  0  0  0  0  0  0  0  0  0  0  0
  140.3578   71.2002  221.5595 H   0  0  0  0  0  0  0  0  0  0  0  0
  138.1492   72.1223  222.9687 H   0  0  0  0  0  0  0  0  0  0  0  0
  138.3940   69.6258  224.2941 H   0  0  0  0  0  0  0  0  0  0  0  0
  139.2553   68.6698  226.4302 H   0  0  0  0  0  0  0  0  0  0  0  0
  141.0902   69.8392  227.6619 H   0  0  0  0  0  0  0  0  0  0  0  0
  142.0058   71.9552  226.7000 H   0  0  0  0  0  0  0  0  0  0  0  0
  140.8457   71.5713  219.6323 H   0  0  0  0  0  0  0  0  0  0  0  0
  141.2603   72.8702  218.3892 H   0  0  0  0  0  0  0  0  0  0  0  0
  142.3062   70.0406  220.0266 H   0  0  0  0  0  0  0  0  0  0  0  0
  144.5689   69.1370  220.0205 H   0  0  0  0  0  0  0  0  0  0  0  0
  146.5210   70.5318  219.3591 H   0  0  0  0  0  0  0  0  0  0  0  0
  146.3530   74.0400  218.6640 H   0  0  0  0  0  0  0  0  0  0  0  0
  143.8011   73.8169  218.7130 H   0  0  0  0  0  0  0  0  0  0  0  0
  1  2  2  0
  2  3  1  0
  3  4  2  0
  4  5  1  0
  5  6  2  0
  6  7  1  0
  6  8  1  0
  8  9  2  0
  9 10  1  0
 10 11  2  0
 11 12  1  0
 12 13  2  0
 13 14  1  0
 14 15  2  0
 15 16  1  0
 16 17  2  0
 17 18  1  0
 18 19  2  0
 11 20  1  0
 20 21  1  0
 21 22  1  0
 22 23  2  0
 23 24  1  0
 24 25  2  0
 25 26  1  0
 26 27  1  0
 26 28  2  0
 20  2  1  0
 28 22  1  0
  9  3  1  0
 19 14  1  0
  4 29  1  0
  5 30  1  0
  8 31  1  0
 12 32  1  0
 13 33  1  0
 15 34  1  0
 16 35  1  0
 17 36  1  0
 18 37  1  0
 21 38  1  0
 21 39  1  0
 23 40  1  0
 24 41  1  0
 25 42  1  0
 27 43  1  0
 28 44  1  0
M  END
>  <smiles>  (31) 
O=c1c2ccc(Cl)cc2nc(/C=C/c2ccccn2)n1Cc1cccc(O)c1

>  <score_type>  (31) 
oracle

>  <origin>  (31) 
autodockgpu

>  <m_score__min__energy>  (31) 
-8.2200000000000006

>  <m_primary>  (31) 
energy

>  <rmsd>  (31) 
8.452599123314464

>  <m_score__min__rmsd>  (31) 
8.452599123314464

>  <meeko>  (31) 
{"free_energy": -8.0, "intermolecular_energy": -9.79, "internal_energy": -0.9, "cluster_size": 18, "cluster_id": 1, "rank_in_cluster": 4}

>  <energy>  (31) 
-6.74

>  <cluster_rmsd>  (31) 
0.0

>  <cluster>  (31) 
6

$$$$

     RDKit          3D

 44 47  0  0  0  0  0  0  0  0999 V2000
  136.2030   74.0650  221.6870 O   0  0  0  0  0  0  0  0  0  0  0  0
  137.4060   73.8240  221.9580 C   0  0  0  0  0  0  0  0  0  0  0  0
  138.2990   74.8620  221.7770 C   0  0  0  0  0  0  0  0  0  0  0  0
  137.8640   76.0860  221.3220 C   0  0  0  0  0  0  0  0  0  0  0  0
  138.7990   77.0930  221.1570 C   0  0  0  0  0  0  0  0  0  0  0  0
  140.1110   76.8030  221.4610 C   0  0  0  0  0  0  0  0  0  0  0  0
  141.3360   78.0450  221.2690 Cl  0  0  0  0  0  0  0  0  0  0  0  0
  140.5340   75.5730  221.9160 C   0  0  0  0  0  0  0  0  0  0  0  0
  139.5990   74.5980  222.0700 C   0  0  0  0  0  0  0  0  0  0  0  0
  139.9510   73.4070  222.5010 N   0  0  0  0  0  0  0  0  0  0  0  0
  139.0920   72.3580  222.6910 C   0  0  0  0  0  0  0  0  0  0  0  0
  139.6910   71.1700  223.2110 C   0  0  0  0  0  0  0  0  0  0  0  0
  139.4360   70.4410  224.2520 C   0  0  0  0  0  0  0  0  0  0  0  0
  139.9980   70.7810  225.5820 C   0  0  0  0  0  0  0  0  0  0  0  0
  139.7570   69.9760  226.6740 C   0  0  0  0  0  0  0  0  0  0  0  0
  140.2890   70.3010  227.9240 C   0  0  0  0  0  0  0  0  0  0  0  0
  141.0630   71.4380  228.0690 C   0  0  0  0  0  0  0  0  0  0  0  0
  141.2820   72.2190  226.9510 C   0  0  0  0  0  0  0  0  0  0  0  0
  140.7500   71.8660  225.7660 N   0  0  0  0  0  0  0  0  0  0  0  0
  137.8140   72.5970  222.4080 N   0  0  0  0  0  0  0  0  0  0  0  0
  136.7430   71.6320  222.5060 C   0  0  0  0  0  0  0  0  0  0  0  0
  135.9110   71.7270  223.6980 C   0  0  0  0  0  0  0  0  0  0  0  0
  135.5030   70.5200  224.3050 C   0  0  0  0  0  0  0  0  0  0  0  0
  134.7370   70.4900  225.4450 C   0  0  0  0  0  0  0  0  0  0  0  0
  134.3160   71.6420  226.0710 C   0  0  0  0  0  0  0  0  0  0  0  0
  134.7020   72.8320  225.4980 C   0  0  0  0  0  0  0  0  0  0  0  0
  134.2980   74.0150  226.1010 O   0  0  0  0  0  0  0  0  0  0  0  0
  135.4830   72.8590  224.3360 C   0  0  0  0  0  0  0  0  0  0  0  0
  136.8016   76.2592  221.0956 H   0  0  0  0  0  0  0  0  0  0  0  0
  138.5050   78.0896  220.7959 H   0  0  0  0  0  0  0  0  0  0  0  0
  141.5931   75.3861  222.1470 H   0  0  0  0  0  0  0  0  0  0  0  0
  140.5349   70.8012  222.6095 H   0  0  0  0  0  0  0  0  0  0  0  0
  138.7920   69.5554  224.1474 H   0  0  0  0  0  0  0  0  0  0  0  0
  139.1416   69.0714  226.5606 H   0  0  0  0  0  0  0  0  0  0  0  0
  140.0927   69.6538  228.7915 H   0  0  0  0  0  0  0  0  0  0  0  0
  141.4910   71.7119  229.0446 H   0  0  0  0  0  0  0  0  0  0  0  0
  141.8921   73.1309  227.0292 H   0  0  0  0  0  0  0  0  0  0  0  0
  136.0918   71.7604  221.6288 H   0  0  0  0  0  0  0  0  0  0  0  0
  137.2316   70.6480  222.5604 H   0  0  0  0  0  0  0  0  0  0  0  0
  135.8099   69.5676  223.8482 H   0  0  0  0  0  0  0  0  0  0  0  0
  134.4514   69.5166  225.8705 H   0  0  0  0  0  0  0  0  0  0  0  0
  133.7020   71.6124  226.9832 H   0  0  0  0  0  0  0  0  0  0  0  0
  133.8110   74.7590  225.6600 H   0  0  0  0  0  0  0  0  0  0  0  0
  135.7655   73.8359  223.9167 H   0  0  0  0  0  0  0  0  0  0  0  0
  1  2  2  0
  2  3  1  0
  3  4  2  0
  4  5  1  0
  5  6  2  0
  6  7  1  0
  6  8  1  0
  8  9  2  0
  9 10  1  0
 10 11  2  0
 11 12  1  0
 12 13  2  0
 13 14  1  0
 14 15  2  0
 15 16  1  0
 16 17  2  0
 17 18  1  0
 18 19  2  0
 11 20  1  0
 20 21  1  0
 21 22  1  0
 22 23  2  0
 23 24  1  0
 24 25  2  0
 25 26  1  0
 26 27  1  0
 26 28  2  0
 20  2  1  0
 28 22  1  0
  9  3  1  0
 19 14  1  0
  4 29  1  0
  5 30  1  0
  8 31  1  0
 12 32  1  0
 13 33  1  0
 15 34  1  0
 16 35  1  0
 17 36  1  0
 18 37  1  0
 21 38  1  0
 21 39  1  0
 23 40  1  0
 24 41  1  0
 25 42  1  0
 27 43  1  0
 28 44  1  0
M  END
>  <smiles>  (32) 
O=c1c2ccc(Cl)cc2nc(/C=C/c2ccccn2)n1Cc1cccc(O)c1

>  <score_type>  (32) 
oracle

>  <origin>  (32) 
autodockgpu

>  <m_score__min__energy>  (32) 
-8.2200000000000006

>  <m_primary>  (32) 
energy

>  <rmsd>  (32) 
8.85142627364986

>  <m_score__min__rmsd>  (32) 
8.85142627364986

>  <meeko>  (32) 
{"free_energy": -6.93, "intermolecular_energy": -8.72, "internal_energy": -1.21, "cluster_size": 4, "cluster_id": 4, "rank_in_cluster": 4}

>  <energy>  (32) 
-6.73

>  <cluster_rmsd>  (32) 
0.05

>  <cluster>  (32) 
6

$$$$

     RDKit          3D

 44 47  0  0  0  0  0  0  0  0999 V2000
  139.8140   74.5050  221.7980 O   0  0  0  0  0  0  0  0  0  0  0  0
  140.5850   75.2760  221.1720 C   0  0  0  0  0  0  0  0  0  0  0  0
  141.8310   74.7740  220.8510 C   0  0  0  0  0  0  0  0  0  0  0  0
  142.1820   73.4930  221.2130 C   0  0  0  0  0  0  0  0  0  0  0  0
  143.4430   73.0380  220.8690 C   0  0  0  0  0  0  0  0  0  0  0  0
  144.2690   73.9010  220.1830 C   0  0  0  0  0  0  0  0  0  0  0  0
  145.8780   73.3730  219.7240 Cl  0  0  0  0  0  0  0  0  0  0  0  0
  143.9060   75.1820  219.8270 C   0  0  0  0  0  0  0  0  0  0  0  0
  142.6630   75.6080  220.1750 C   0  0  0  0  0  0  0  0  0  0  0  0
  142.2690   76.8210  219.8600 N   0  0  0  0  0  0  0  0  0  0  0  0
  141.0410   77.3490  220.1620 C   0  0  0  0  0  0  0  0  0  0  0  0
  140.8140   78.6740  219.6770 C   0  0  0  0  0  0  0  0  0  0  0  0
  141.4360   79.7950  219.8620 C   0  0  0  0  0  0  0  0  0  0  0  0
  141.8300   80.2390  221.2230 C   0  0  0  0  0  0  0  0  0  0  0  0
  141.4480   81.4740  221.6970 C   0  0  0  0  0  0  0  0  0  0  0  0
  141.8230   81.8860  222.9780 C   0  0  0  0  0  0  0  0  0  0  0  0
  142.5790   81.0500  223.7780 C   0  0  0  0  0  0  0  0  0  0  0  0
  142.9410   79.8190  223.2670 C   0  0  0  0  0  0  0  0  0  0  0  0
  142.5590   79.4640  222.0260 N   0  0  0  0  0  0  0  0  0  0  0  0
  140.2130   76.5470  220.8250 N   0  0  0  0  0  0  0  0  0  0  0  0
  138.8850   76.9020  221.2710 C   0  0  0  0  0  0  0  0  0  0  0  0
  138.7960   78.0860  222.1150 C   0  0  0  0  0  0  0  0  0  0  0  0
  139.8130   78.2810  223.0730 C   0  0  0  0  0  0  0  0  0  0  0  0
  139.8420   79.3730  223.9060 C   0  0  0  0  0  0  0  0  0  0  0  0
  138.8750   80.3530  223.8580 C   0  0  0  0  0  0  0  0  0  0  0  0
  137.8720   80.1850  222.9310 C   0  0  0  0  0  0  0  0  0  0  0  0
  136.8800   81.1520  222.8520 O   0  0  0  0  0  0  0  0  0  0  0  0
  137.8460   79.0700  222.0830 C   0  0  0  0  0  0  0  0  0  0  0  0
  141.4791   72.8483  221.7610 H   0  0  0  0  0  0  0  0  0  0  0  0
  143.7740   72.0230  221.1340 H   0  0  0  0  0  0  0  0  0  0  0  0
  144.5990   75.8378  219.2795 H   0  0  0  0  0  0  0  0  0  0  0  0
  139.9385   78.7585  219.0164 H   0  0  0  0  0  0  0  0  0  0  0  0
  141.6765   80.4290  218.9959 H   0  0  0  0  0  0  0  0  0  0  0  0
  140.8440   82.1401  221.0633 H   0  0  0  0  0  0  0  0  0  0  0  0
  141.5169   82.8750  223.3498 H   0  0  0  0  0  0  0  0  0  0  0  0
  142.8829   81.3556  224.7901 H   0  0  0  0  0  0  0  0  0  0  0  0
  143.5425   79.1274  223.8752 H   0  0  0  0  0  0  0  0  0  0  0  0
  138.2645   77.0754  220.3794 H   0  0  0  0  0  0  0  0  0  0  0  0
  138.5450   76.0630  221.8958 H   0  0  0  0  0  0  0  0  0  0  0  0
  140.6129   77.5305  223.1561 H   0  0  0  0  0  0  0  0  0  0  0  0
  140.6619   79.4677  224.6331 H   0  0  0  0  0  0  0  0  0  0  0  0
  138.9032   81.2258  224.5269 H   0  0  0  0  0  0  0  0  0  0  0  0
  137.0080   82.1000  222.5900 H   0  0  0  0  0  0  0  0  0  0  0  0
  137.0236   78.9817  221.3578 H   0  0  0  0  0  0  0  0  0  0  0  0
  1  2  2  0
  2  3  1  0
  3  4  2  0
  4  5  1  0
  5  6  2  0
  6  7  1  0
  6  8  1  0
  8  9  2  0
  9 10  1  0
 10 11  2  0
 11 12  1  0
 12 13  2  0
 13 14  1  0
 14 15  2  0
 15 16  1  0
 16 17  2  0
 17 18  1  0
 18 19  2  0
 11 20  1  0
 20 21  1  0
 21 22  1  0
 22 23  2  0
 23 24  1  0
 24 25  2  0
 25 26  1  0
 26 27  1  0
 26 28  2  0
 20  2  1  0
 28 22  1  0
  9  3  1  0
 19 14  1  0
  4 29  1  0
  5 30  1  0
  8 31  1  0
 12 32  1  0
 13 33  1  0
 15 34  1  0
 16 35  1  0
 17 36  1  0
 18 37  1  0
 21 38  1  0
 21 39  1  0
 23 40  1  0
 24 41  1  0
 25 42  1  0
 27 43  1  0
 28 44  1  0
M  END
>  <smiles>  (33) 
O=c1c2ccc(Cl)cc2nc(/C=C/c2ccccn2)n1Cc1cccc(O)c1

>  <score_type>  (33) 
oracle

>  <origin>  (33) 
autodockgpu

>  <m_score__min__energy>  (33) 
-8.2200000000000006

>  <m_primary>  (33) 
energy

>  <rmsd>  (33) 
4.3800904198896555

>  <m_score__min__rmsd>  (33) 
4.3800904198896555

>  <meeko>  (33) 
{"free_energy": -6.62, "intermolecular_energy": -8.41, "internal_energy": -1.81, "cluster_size": 10, "cluster_id": 9, "rank_in_cluster": 4}

>  <energy>  (33) 
-6.73

>  <cluster_rmsd>  (33) 
0.26

>  <cluster>  (33) 
6

$$$$

     RDKit          3D

 44 47  0  0  0  0  0  0  0  0999 V2000
  136.6170   79.1800  221.6140 O   0  0  0  0  0  0  0  0  0  0  0  0
  137.5070   79.5140  222.4380 C   0  0  0  0  0  0  0  0  0  0  0  0
  137.0800   80.1710  223.5740 C   0  0  0  0  0  0  0  0  0  0  0  0
  135.7430   80.4340  223.7680 C   0  0  0  0  0  0  0  0  0  0  0  0
  135.3660   81.0960  224.9240 C   0  0  0  0  0  0  0  0  0  0  0  0
  136.3600   81.4510  225.8100 C   0  0  0  0  0  0  0  0  0  0  0  0
  135.9360   82.2930  227.2900 Cl  0  0  0  0  0  0  0  0  0  0  0  0
  137.6960   81.1820  225.6040 C   0  0  0  0  0  0  0  0  0  0  0  0
  138.0430   80.5310  224.4620 C   0  0  0  0  0  0  0  0  0  0  0  0
  139.3040   80.2520  224.2180 N   0  0  0  0  0  0  0  0  0  0  0  0
  139.7600   79.6020  223.1020 C   0  0  0  0  0  0  0  0  0  0  0  0
  141.1690   79.3650  223.0720 C   0  0  0  0  0  0  0  0  0  0  0  0
  142.1430   79.9410  222.4410 C   0  0  0  0  0  0  0  0  0  0  0  0
  141.9010   80.7140  221.1970 C   0  0  0  0  0  0  0  0  0  0  0  0
  141.3670   81.9820  221.2490 C   0  0  0  0  0  0  0  0  0  0  0  0
  141.1420   82.7040  220.0750 C   0  0  0  0  0  0  0  0  0  0  0  0
  141.4580   82.1440  218.8500 C   0  0  0  0  0  0  0  0  0  0  0  0
  141.9930   80.8700  218.8400 C   0  0  0  0  0  0  0  0  0  0  0  0
  142.1920   80.2120  219.9960 N   0  0  0  0  0  0  0  0  0  0  0  0
  138.8310   79.2420  222.2210 N   0  0  0  0  0  0  0  0  0  0  0  0
  139.0860   78.5750  220.9650 C   0  0  0  0  0  0  0  0  0  0  0  0
  139.8120   77.3150  221.0520 C   0  0  0  0  0  0  0  0  0  0  0  0
  141.0890   77.2570  220.4550 C   0  0  0  0  0  0  0  0  0  0  0  0
  141.8720   76.1290  220.4960 C   0  0  0  0  0  0  0  0  0  0  0  0
  141.4570   74.9760  221.1260 C   0  0  0  0  0  0  0  0  0  0  0  0
  140.2150   75.0090  221.7160 C   0  0  0  0  0  0  0  0  0  0  0  0
  139.7630   73.8660  222.3610 O   0  0  0  0  0  0  0  0  0  0  0  0
  139.4200   76.1610  221.6730 C   0  0  0  0  0  0  0  0  0  0  0  0
  134.9935   80.1262  223.0240 H   0  0  0  0  0  0  0  0  0  0  0  0
  134.3108   81.3302  225.1280 H   0  0  0  0  0  0  0  0  0  0  0  0
  138.4564   81.4840  226.3393 H   0  0  0  0  0  0  0  0  0  0  0  0
  141.4898   78.5287  223.7105 H   0  0  0  0  0  0  0  0  0  0  0  0
  143.1669   79.8558  222.8338 H   0  0  0  0  0  0  0  0  0  0  0  0
  141.1159   82.4294  222.2220 H   0  0  0  0  0  0  0  0  0  0  0  0
  140.7143   83.7162  220.1241 H   0  0  0  0  0  0  0  0  0  0  0  0
  141.2887   82.6956  217.9135 H   0  0  0  0  0  0  0  0  0  0  0  0
  142.2567   80.3930  217.8845 H   0  0  0  0  0  0  0  0  0  0  0  0
  138.1160   78.3733  220.4870 H   0  0  0  0  0  0  0  0  0  0  0  0
  139.7344   79.2544  220.3923 H   0  0  0  0  0  0  0  0  0  0  0  0
  141.4721   78.1487  219.9372 H   0  0  0  0  0  0  0  0  0  0  0  0
  142.8594   76.1468  220.0116 H   0  0  0  0  0  0  0  0  0  0  0  0
  142.0871   74.0748  221.1556 H   0  0  0  0  0  0  0  0  0  0  0  0
  138.9570   73.8000  222.9370 H   0  0  0  0  0  0  0  0  0  0  0  0
  138.4346   76.1368  222.1613 H   0  0  0  0  0  0  0  0  0  0  0  0
  1  2  2  0
  2  3  1  0
  3  4  2  0
  4  5  1  0
  5  6  2  0
  6  7  1  0
  6  8  1  0
  8  9  2  0
  9 10  1  0
 10 11  2  0
 11 12  1  0
 12 13  2  0
 13 14  1  0
 14 15  2  0
 15 16  1  0
 16 17  2  0
 17 18  1  0
 18 19  2  0
 11 20  1  0
 20 21  1  0
 21 22  1  0
 22 23  2  0
 23 24  1  0
 24 25  2  0
 25 26  1  0
 26 27  1  0
 26 28  2  0
 20  2  1  0
 28 22  1  0
  9  3  1  0
 19 14  1  0
  4 29  1  0
  5 30  1  0
  8 31  1  0
 12 32  1  0
 13 33  1  0
 15 34  1  0
 16 35  1  0
 17 36  1  0
 18 37  1  0
 21 38  1  0
 21 39  1  0
 23 40  1  0
 24 41  1  0
 25 42  1  0
 27 43  1  0
 28 44  1  0
M  END
>  <smiles>  (34) 
O=c1c2ccc(Cl)cc2nc(/C=C/c2ccccn2)n1Cc1cccc(O)c1

>  <score_type>  (34) 
oracle

>  <origin>  (34) 
autodockgpu

>  <m_score__min__energy>  (34) 
-8.2200000000000006

>  <m_primary>  (34) 
energy

>  <rmsd>  (34) 
6.866291030229612

>  <m_score__min__rmsd>  (34) 
6.866291030229612

>  <meeko>  (34) 
{"free_energy": -6.71, "intermolecular_energy": -8.5, "internal_energy": -1.56, "cluster_size": 1, "cluster_id": 8, "rank_in_cluster": 1}

>  <energy>  (34) 
-6.71

>  <cluster_rmsd>  (34) 
0.26

>  <cluster>  (34) 
6

$$$$

     RDKit          3D

 44 47  0  0  0  0  0  0  0  0999 V2000
  136.5250   77.0050  222.5140 O   0  0  0  0  0  0  0  0  0  0  0  0
  137.6660   76.4840  222.4300 C   0  0  0  0  0  0  0  0  0  0  0  0
  138.7420   77.3150  222.6670 C   0  0  0  0  0  0  0  0  0  0  0  0
  138.5450   78.6430  222.9750 C   0  0  0  0  0  0  0  0  0  0  0  0
  139.6570   79.4340  223.2030 C   0  0  0  0  0  0  0  0  0  0  0  0
  140.8960   78.8390  223.1050 C   0  0  0  0  0  0  0  0  0  0  0  0
  142.3390   79.7990  223.3830 Cl  0  0  0  0  0  0  0  0  0  0  0  0
  141.0800   77.5090  222.7950 C   0  0  0  0  0  0  0  0  0  0  0  0
  139.9740   76.7500  222.5760 C   0  0  0  0  0  0  0  0  0  0  0  0
  140.0960   75.4760  222.2760 N   0  0  0  0  0  0  0  0  0  0  0  0
  139.0500   74.6250  222.0370 C   0  0  0  0  0  0  0  0  0  0  0  0
  139.4180   73.2690  221.7760 C   0  0  0  0  0  0  0  0  0  0  0  0
  140.2820   72.4740  222.3230 C   0  0  0  0  0  0  0  0  0  0  0  0
  139.9060   71.5970  223.4590 C   0  0  0  0  0  0  0  0  0  0  0  0
  140.6910   71.5330  224.5890 C   0  0  0  0  0  0  0  0  0  0  0  0
  140.3320   70.7050  225.6540 C   0  0  0  0  0  0  0  0  0  0  0  0
  139.1790   69.9440  225.5790 C   0  0  0  0  0  0  0  0  0  0  0  0
  138.4180   70.0360  224.4300 C   0  0  0  0  0  0  0  0  0  0  0  0
  138.8030   70.8470  223.4270 N   0  0  0  0  0  0  0  0  0  0  0  0
  137.8350   75.1610  222.1210 N   0  0  0  0  0  0  0  0  0  0  0  0
  136.5950   74.4610  221.8800 C   0  0  0  0  0  0  0  0  0  0  0  0
  135.9430   73.9030  223.0570 C   0  0  0  0  0  0  0  0  0  0  0  0
  135.8830   72.4970  223.1640 C   0  0  0  0  0  0  0  0  0  0  0  0
  135.3130   71.8620  224.2400 C   0  0  0  0  0  0  0  0  0  0  0  0
  134.7590   72.5620  225.2900 C   0  0  0  0  0  0  0  0  0  0  0  0
  134.8060   73.9350  225.2090 C   0  0  0  0  0  0  0  0  0  0  0  0
  134.2590   74.6750  226.2480 O   0  0  0  0  0  0  0  0  0  0  0  0
  135.3890   74.5780  224.1090 C   0  0  0  0  0  0  0  0  0  0  0  0
  137.5305   79.0635  223.0380 H   0  0  0  0  0  0  0  0  0  0  0  0
  139.5556   80.5002  223.4537 H   0  0  0  0  0  0  0  0  0  0  0  0
  142.0888   77.0758  222.7270 H   0  0  0  0  0  0  0  0  0  0  0  0
  138.8575   72.8104  220.9481 H   0  0  0  0  0  0  0  0  0  0  0  0
  141.3123   72.4487  221.9386 H   0  0  0  0  0  0  0  0  0  0  0  0
  141.6071   72.1385  224.6527 H   0  0  0  0  0  0  0  0  0  0  0  0
  140.9653   70.6576  226.5521 H   0  0  0  0  0  0  0  0  0  0  0  0
  138.8779   69.2866  226.4080 H   0  0  0  0  0  0  0  0  0  0  0  0
  137.4951   69.4451  224.3343 H   0  0  0  0  0  0  0  0  0  0  0  0
  135.8950   75.1669  221.4092 H   0  0  0  0  0  0  0  0  0  0  0  0
  136.8560   73.6003  221.2468 H   0  0  0  0  0  0  0  0  0  0  0  0
  136.3092   71.8863  222.3544 H   0  0  0  0  0  0  0  0  0  0  0  0
  135.2982   70.7624  224.2646 H   0  0  0  0  0  0  0  0  0  0  0  0
  134.3023   72.0492  226.1493 H   0  0  0  0  0  0  0  0  0  0  0  0
  133.3480   75.0680  226.2690 H   0  0  0  0  0  0  0  0  0  0  0  0
  135.4016   75.6778  224.0910 H   0  0  0  0  0  0  0  0  0  0  0  0
  1  2  2  0
  2  3  1  0
  3  4  2  0
  4  5  1  0
  5  6  2  0
  6  7  1  0
  6  8  1  0
  8  9  2  0
  9 10  1  0
 10 11  2  0
 11 12  1  0
 12 13  2  0
 13 14  1  0
 14 15  2  0
 15 16  1  0
 16 17  2  0
 17 18  1  0
 18 19  2  0
 11 20  1  0
 20 21  1  0
 21 22  1  0
 22 23  2  0
 23 24  1  0
 24 25  2  0
 25 26  1  0
 26 27  1  0
 26 28  2  0
 20  2  1  0
 28 22  1  0
  9  3  1  0
 19 14  1  0
  4 29  1  0
  5 30  1  0
  8 31  1  0
 12 32  1  0
 13 33  1  0
 15 34  1  0
 16 35  1  0
 17 36  1  0
 18 37  1  0
 21 38  1  0
 21 39  1  0
 23 40  1  0
 24 41  1  0
 25 42  1  0
 27 43  1  0
 28 44  1  0
M  END
>  <smiles>  (35) 
O=c1c2ccc(Cl)cc2nc(/C=C/c2ccccn2)n1Cc1cccc(O)c1

>  <score_type>  (35) 
oracle

>  <origin>  (35) 
autodockgpu

>  <m_score__min__energy>  (35) 
-8.2200000000000006

>  <m_primary>  (35) 
energy

>  <rmsd>  (35) 
8.007137774904505

>  <m_score__min__rmsd>  (35) 
8.007137774904505

>  <meeko>  (35) 
{"free_energy": -6.74, "intermolecular_energy": -8.53, "internal_energy": -1.45, "cluster_size": 5, "cluster_id": 5, "rank_in_cluster": 4}

>  <energy>  (35) 
-6.61

>  <cluster_rmsd>  (35) 
0.53

>  <cluster>  (35) 
6

$$$$

     RDKit          3D

 44 47  0  0  0  0  0  0  0  0999 V2000
  142.1840   75.2960  218.8300 O   0  0  0  0  0  0  0  0  0  0  0  0
  141.5950   75.1490  219.9300 C   0  0  0  0  0  0  0  0  0  0  0  0
  141.4660   76.2770  220.7160 C   0  0  0  0  0  0  0  0  0  0  0  0
  141.9680   77.4860  220.2900 C   0  0  0  0  0  0  0  0  0  0  0  0
  141.8140   78.5860  221.1150 C   0  0  0  0  0  0  0  0  0  0  0  0
  141.1650   78.3990  222.3160 C   0  0  0  0  0  0  0  0  0  0  0  0
  140.9440   79.7610  223.3990 Cl  0  0  0  0  0  0  0  0  0  0  0  0
  140.6670   77.1830  222.7310 C   0  0  0  0  0  0  0  0  0  0  0  0
  140.8290   76.1150  221.9050 C   0  0  0  0  0  0  0  0  0  0  0  0
  140.3730   74.9340  222.2550 N   0  0  0  0  0  0  0  0  0  0  0  0
  140.4830   73.7970  221.4990 C   0  0  0  0  0  0  0  0  0  0  0  0
  139.8710   72.6340  222.0600 C   0  0  0  0  0  0  0  0  0  0  0  0
  140.3470   71.4990  222.4630 C   0  0  0  0  0  0  0  0  0  0  0  0
  140.2190   71.0720  223.8790 C   0  0  0  0  0  0  0  0  0  0  0  0
  140.7060   71.8600  224.8980 C   0  0  0  0  0  0  0  0  0  0  0  0
  140.5820   71.4510  226.2280 C   0  0  0  0  0  0  0  0  0  0  0  0
  139.9670   70.2490  226.5270 C   0  0  0  0  0  0  0  0  0  0  0  0
  139.4920   69.4880  225.4770 C   0  0  0  0  0  0  0  0  0  0  0  0
  139.6330   69.9200  224.2100 N   0  0  0  0  0  0  0  0  0  0  0  0
  141.1050   73.9350  220.3320 N   0  0  0  0  0  0  0  0  0  0  0  0
  141.3610   72.8690  219.3910 C   0  0  0  0  0  0  0  0  0  0  0  0
  142.7140   72.3300  219.3950 C   0  0  0  0  0  0  0  0  0  0  0  0
  142.8780   70.9840  219.7840 C   0  0  0  0  0  0  0  0  0  0  0  0
  144.1040   70.3650  219.8030 C   0  0  0  0  0  0  0  0  0  0  0  0
  145.2590   71.0240  219.4430 C   0  0  0  0  0  0  0  0  0  0  0  0
  145.1250   72.3390  219.0600 C   0  0  0  0  0  0  0  0  0  0  0  0
  146.2660   73.0360  218.6890 O   0  0  0  0  0  0  0  0  0  0  0  0
  143.8730   72.9660  219.0410 C   0  0  0  0  0  0  0  0  0  0  0  0
  142.4780   77.5751  219.3195 H   0  0  0  0  0  0  0  0  0  0  0  0
  142.1962   79.5751  220.8224 H   0  0  0  0  0  0  0  0  0  0  0  0
  140.1550   77.0796  223.6991 H   0  0  0  0  0  0  0  0  0  0  0  0
  138.7800   72.7197  222.1716 H   0  0  0  0  0  0  0  0  0  0  0  0
  140.8550   70.8399  221.7436 H   0  0  0  0  0  0  0  0  0  0  0  0
  141.1953   72.8168  224.6634 H   0  0  0  0  0  0  0  0  0  0  0  0
  140.9735   72.0849  227.0373 H   0  0  0  0  0  0  0  0  0  0  0  0
  139.8596   69.9099  227.5679 H   0  0  0  0  0  0  0  0  0  0  0  0
  138.9971   68.5261  225.6766 H   0  0  0  0  0  0  0  0  0  0  0  0
  140.6689   72.0448  219.6185 H   0  0  0  0  0  0  0  0  0  0  0  0
  141.2189   73.3109  218.3938 H   0  0  0  0  0  0  0  0  0  0  0  0
  141.9900   70.4081  220.0836 H   0  0  0  0  0  0  0  0  0  0  0  0
  144.1654   69.3119  220.1149 H   0  0  0  0  0  0  0  0  0  0  0  0
  146.2388   70.5243  219.4608 H   0  0  0  0  0  0  0  0  0  0  0  0
  146.3360   74.0170  218.5610 H   0  0  0  0  0  0  0  0  0  0  0  0
  143.8185   74.0188  218.7269 H   0  0  0  0  0  0  0  0  0  0  0  0
  1  2  2  0
  2  3  1  0
  3  4  2  0
  4  5  1  0
  5  6  2  0
  6  7  1  0
  6  8  1  0
  8  9  2  0
  9 10  1  0
 10 11  2  0
 11 12  1  0
 12 13  2  0
 13 14  1  0
 14 15  2  0
 15 16  1  0
 16 17  2  0
 17 18  1  0
 18 19  2  0
 11 20  1  0
 20 21  1  0
 21 22  1  0
 22 23  2  0
 23 24  1  0
 24 25  2  0
 25 26  1  0
 26 27  1  0
 26 28  2  0
 20  2  1  0
 28 22  1  0
  9  3  1  0
 19 14  1  0
  4 29  1  0
  5 30  1  0
  8 31  1  0
 12 32  1  0
 13 33  1  0
 15 34  1  0
 16 35  1  0
 17 36  1  0
 18 37  1  0
 21 38  1  0
 21 39  1  0
 23 40  1  0
 24 41  1  0
 25 42  1  0
 27 43  1  0
 28 44  1  0
M  END
>  <smiles>  (36) 
O=c1c2ccc(Cl)cc2nc(/C=C/c2ccccn2)n1Cc1cccc(O)c1

>  <score_type>  (36) 
oracle

>  <origin>  (36) 
autodockgpu

>  <m_score__min__energy>  (36) 
-8.2200000000000006

>  <m_primary>  (36) 
energy

>  <rmsd>  (36) 
8.280075989167377

>  <m_score__min__rmsd>  (36) 
8.280075989167377

>  <meeko>  (36) 
{"free_energy": -7.88, "intermolecular_energy": -9.67, "internal_energy": -1.0, "cluster_size": 18, "cluster_id": 1, "rank_in_cluster": 9}

>  <energy>  (36) 
-6.59

>  <cluster_rmsd>  (36) 
1.59

>  <cluster>  (36) 
6

$$$$

     RDKit          3D

 44 47  0  0  0  0  0  0  0  0999 V2000
  142.5530   75.8250  219.3630 O   0  0  0  0  0  0  0  0  0  0  0  0
  141.7570   75.5920  220.3080 C   0  0  0  0  0  0  0  0  0  0  0  0
  141.2630   76.6900  220.9830 C   0  0  0  0  0  0  0  0  0  0  0  0
  141.6420   77.9630  220.6200 C   0  0  0  0  0  0  0  0  0  0  0  0
  141.1190   79.0290  221.3290 C   0  0  0  0  0  0  0  0  0  0  0  0
  140.2500   78.7470  222.3600 C   0  0  0  0  0  0  0  0  0  0  0  0
  139.5590   80.0640  223.2920 Cl  0  0  0  0  0  0  0  0  0  0  0  0
  139.8780   77.4690  222.7150 C   0  0  0  0  0  0  0  0  0  0  0  0
  140.4030   76.4350  222.0040 C   0  0  0  0  0  0  0  0  0  0  0  0
  140.0810   75.1970  222.3030 N   0  0  0  0  0  0  0  0  0  0  0  0
  140.5520   74.0870  221.6530 C   0  0  0  0  0  0  0  0  0  0  0  0
  140.0280   72.8420  222.1200 C   0  0  0  0  0  0  0  0  0  0  0  0
  140.5930   71.7500  222.5290 C   0  0  0  0  0  0  0  0  0  0  0  0
  140.2580   71.1610  223.8490 C   0  0  0  0  0  0  0  0  0  0  0  0
  140.9970   71.4760  224.9680 C   0  0  0  0  0  0  0  0  0  0  0  0
  140.6770   70.9170  226.2070 C   0  0  0  0  0  0  0  0  0  0  0  0
  139.6110   70.0440  226.3160 C   0  0  0  0  0  0  0  0  0  0  0  0
  138.8940   69.7530  225.1710 C   0  0  0  0  0  0  0  0  0  0  0  0
  139.2390   70.3150  223.9980 N   0  0  0  0  0  0  0  0  0  0  0  0
  141.3960   74.3170  220.6510 N   0  0  0  0  0  0  0  0  0  0  0  0
  142.0360   73.3000  219.8490 C   0  0  0  0  0  0  0  0  0  0  0  0
  143.4930   73.2920  219.8800 C   0  0  0  0  0  0  0  0  0  0  0  0
  144.1170   73.1700  221.1390 C   0  0  0  0  0  0  0  0  0  0  0  0
  145.4820   73.1290  221.2850 C   0  0  0  0  0  0  0  0  0  0  0  0
  146.3340   73.2050  220.2050 C   0  0  0  0  0  0  0  0  0  0  0  0
  145.7480   73.3250  218.9650 C   0  0  0  0  0  0  0  0  0  0  0  0
  146.5740   73.4030  217.8520 O   0  0  0  0  0  0  0  0  0  0  0  0
  144.3560   73.3660  218.8210 C   0  0  0  0  0  0  0  0  0  0  0  0
  142.3424   78.1277  219.7879 H   0  0  0  0  0  0  0  0  0  0  0  0
  141.3875   80.0659  221.0784 H   0  0  0  0  0  0  0  0  0  0  0  0
  139.1796   77.2906  223.5459 H   0  0  0  0  0  0  0  0  0  0  0  0
  138.9288   72.8032  222.1352 H   0  0  0  0  0  0  0  0  0  0  0  0
  141.3336   71.2511  221.8867 H   0  0  0  0  0  0  0  0  0  0  0  0
  141.8445   72.1723  224.8851 H   0  0  0  0  0  0  0  0  0  0  0  0
  141.2730   71.1713  227.0958 H   0  0  0  0  0  0  0  0  0  0  0  0
  139.3418   69.5951  227.2835 H   0  0  0  0  0  0  0  0  0  0  0  0
  138.0402   69.0611  225.2185 H   0  0  0  0  0  0  0  0  0  0  0  0
  141.6854   72.3197  220.2042 H   0  0  0  0  0  0  0  0  0  0  0  0
  141.7604   73.5231  218.8077 H   0  0  0  0  0  0  0  0  0  0  0  0
  143.4865   73.1052  222.0380 H   0  0  0  0  0  0  0  0  0  0  0  0
  145.9078   73.0326  222.2946 H   0  0  0  0  0  0  0  0  0  0  0  0
  147.4267   73.1715  220.3272 H   0  0  0  0  0  0  0  0  0  0  0  0
  146.8400   74.2350  217.3800 H   0  0  0  0  0  0  0  0  0  0  0  0
  143.9364   73.4622  217.8087 H   0  0  0  0  0  0  0  0  0  0  0  0
  1  2  2  0
  2  3  1  0
  3  4  2  0
  4  5  1  0
  5  6  2  0
  6  7  1  0
  6  8  1  0
  8  9  2  0
  9 10  1  0
 10 11  2  0
 11 12  1  0
 12 13  2  0
 13 14  1  0
 14 15  2  0
 15 16  1  0
 16 17  2  0
 17 18  1  0
 18 19  2  0
 11 20  1  0
 20 21  1  0
 21 22  1  0
 22 23  2  0
 23 24  1  0
 24 25  2  0
 25 26  1  0
 26 27  1  0
 26 28  2  0
 20  2  1  0
 28 22  1  0
  9  3  1  0
 19 14  1  0
  4 29  1  0
  5 30  1  0
  8 31  1  0
 12 32  1  0
 13 33  1  0
 15 34  1  0
 16 35  1  0
 17 36  1  0
 18 37  1  0
 21 38  1  0
 21 39  1  0
 23 40  1  0
 24 41  1  0
 25 42  1  0
 27 43  1  0
 28 44  1  0
M  END
>  <smiles>  (37) 
O=c1c2ccc(Cl)cc2nc(/C=C/c2ccccn2)n1Cc1cccc(O)c1

>  <score_type>  (37) 
oracle

>  <origin>  (37) 
autodockgpu

>  <m_score__min__energy>  (37) 
-8.2200000000000006

>  <m_primary>  (37) 
energy

>  <rmsd>  (37) 
7.601604372072267

>  <m_score__min__rmsd>  (37) 
7.601604372072267

>  <meeko>  (37) 
{"free_energy": -8.04, "intermolecular_energy": -9.83, "internal_energy": -0.95, "cluster_size": 18, "cluster_id": 1, "rank_in_cluster": 2}

>  <energy>  (37) 
-6.58

>  <cluster_rmsd>  (37) 
1.6

>  <cluster>  (37) 
6

$$$$

     RDKit          3D

 44 47  0  0  0  0  0  0  0  0999 V2000
  139.6750   74.9890  221.3130 O   0  0  0  0  0  0  0  0  0  0  0  0
  140.5850   75.6880  220.7990 C   0  0  0  0  0  0  0  0  0  0  0  0
  141.8140   75.0810  220.6380 C   0  0  0  0  0  0  0  0  0  0  0  0
  142.0050   73.7760  221.0320 C   0  0  0  0  0  0  0  0  0  0  0  0
  143.2560   73.2130  220.8500 C   0  0  0  0  0  0  0  0  0  0  0  0
  144.2350   74.0000  220.2850 C   0  0  0  0  0  0  0  0  0  0  0  0
  145.8390   73.3350  220.0340 Cl  0  0  0  0  0  0  0  0  0  0  0  0
  144.0320   75.3060  219.8960 C   0  0  0  0  0  0  0  0  0  0  0  0
  142.7950   75.8390  220.0830 C   0  0  0  0  0  0  0  0  0  0  0  0
  142.5500   77.0800  219.7290 N   0  0  0  0  0  0  0  0  0  0  0  0
  141.3430   77.7120  219.8730 C   0  0  0  0  0  0  0  0  0  0  0  0
  141.2950   79.0500  219.3740 C   0  0  0  0  0  0  0  0  0  0  0  0
  141.6250   80.1920  219.8900 C   0  0  0  0  0  0  0  0  0  0  0  0
  141.9410   80.3190  221.3340 C   0  0  0  0  0  0  0  0  0  0  0  0
  141.8190   81.5310  221.9770 C   0  0  0  0  0  0  0  0  0  0  0  0
  142.1180   81.6440  223.3360 C   0  0  0  0  0  0  0  0  0  0  0  0
  142.5380   80.5330  224.0450 C   0  0  0  0  0  0  0  0  0  0  0  0
  142.6470   79.3360  223.3660 C   0  0  0  0  0  0  0  0  0  0  0  0
  142.3480   79.2730  222.0550 N   0  0  0  0  0  0  0  0  0  0  0  0
  140.3700   76.9860  220.4160 N   0  0  0  0  0  0  0  0  0  0  0  0
  139.0310   77.4550  220.6890 C   0  0  0  0  0  0  0  0  0  0  0  0
  138.9290   78.5800  221.6090 C   0  0  0  0  0  0  0  0  0  0  0  0
  139.3380   78.3700  222.9430 C   0  0  0  0  0  0  0  0  0  0  0  0
  139.3060   79.3650  223.8890 C   0  0  0  0  0  0  0  0  0  0  0  0
  138.8710   80.6380  223.5950 C   0  0  0  0  0  0  0  0  0  0  0  0
  138.4670   80.8680  222.2990 C   0  0  0  0  0  0  0  0  0  0  0  0
  138.0220   82.1390  221.9640 O   0  0  0  0  0  0  0  0  0  0  0  0
  138.5010   79.8510  221.3370 C   0  0  0  0  0  0  0  0  0  0  0  0
  141.1847   73.1958  221.4798 H   0  0  0  0  0  0  0  0  0  0  0  0
  143.4613   72.1737  221.1461 H   0  0  0  0  0  0  0  0  0  0  0  0
  144.8440   75.8982  219.4488 H   0  0  0  0  0  0  0  0  0  0  0  0
  140.9001   79.1256  218.3501 H   0  0  0  0  0  0  0  0  0  0  0  0
  141.6716   81.0827  219.2462 H   0  0  0  0  0  0  0  0  0  0  0  0
  141.4837   82.4158  221.4160 H   0  0  0  0  0  0  0  0  0  0  0  0
  142.0197   82.6155  223.8424 H   0  0  0  0  0  0  0  0  0  0  0  0
  142.7776   80.6012  225.1164 H   0  0  0  0  0  0  0  0  0  0  0  0
  142.9789   78.4318  223.8973 H   0  0  0  0  0  0  0  0  0  0  0  0
  138.5781   77.7582  219.7335 H   0  0  0  0  0  0  0  0  0  0  0  0
  138.5157   76.6177  221.1823 H   0  0  0  0  0  0  0  0  0  0  0  0
  139.6959   77.3720  223.2362 H   0  0  0  0  0  0  0  0  0  0  0  0
  139.6380   79.1381  224.9129 H   0  0  0  0  0  0  0  0  0  0  0  0
  138.8475   81.4310  224.3570 H   0  0  0  0  0  0  0  0  0  0  0  0
  137.5130   82.3830  221.1480 H   0  0  0  0  0  0  0  0  0  0  0  0
  138.1681   80.0847  220.3150 H   0  0  0  0  0  0  0  0  0  0  0  0
  1  2  2  0
  2  3  1  0
  3  4  2  0
  4  5  1  0
  5  6  2  0
  6  7  1  0
  6  8  1  0
  8  9  2  0
  9 10  1  0
 10 11  2  0
 11 12  1  0
 12 13  2  0
 13 14  1  0
 14 15  2  0
 15 16  1  0
 16 17  2  0
 17 18  1  0
 18 19  2  0
 11 20  1  0
 20 21  1  0
 21 22  1  0
 22 23  2  0
 23 24  1  0
 24 25  2  0
 25 26  1  0
 26 27  1  0
 26 28  2  0
 20  2  1  0
 28 22  1  0
  9  3  1  0
 19 14  1  0
  4 29  1  0
  5 30  1  0
  8 31  1  0
 12 32  1  0
 13 33  1  0
 15 34  1  0
 16 35  1  0
 17 36  1  0
 18 37  1  0
 21 38  1  0
 21 39  1  0
 23 40  1  0
 24 41  1  0
 25 42  1  0
 27 43  1  0
 28 44  1  0
M  END
>  <smiles>  (38) 
O=c1c2ccc(Cl)cc2nc(/C=C/c2ccccn2)n1Cc1cccc(O)c1

>  <score_type>  (38) 
oracle

>  <origin>  (38) 
autodockgpu

>  <m_score__min__energy>  (38) 
-8.2200000000000006

>  <m_primary>  (38) 
energy

>  <rmsd>  (38) 
3.9754655482775387

>  <m_score__min__rmsd>  (38) 
3.9754655482775387

>  <meeko>  (38) 
{"free_energy": -6.26, "intermolecular_energy": -8.05, "internal_energy": -2.06, "cluster_size": 10, "cluster_id": 9, "rank_in_cluster": 7}

>  <energy>  (38) 
-6.73

>  <cluster_rmsd>  (38) 
0.0

>  <cluster>  (38) 
7

$$$$

     RDKit          3D

 44 47  0  0  0  0  0  0  0  0999 V2000
  142.4670   76.2760  219.1310 O   0  0  0  0  0  0  0  0  0  0  0  0
  141.7740   76.0430  220.1540 C   0  0  0  0  0  0  0  0  0  0  0  0
  141.4140   77.1360  220.9170 C   0  0  0  0  0  0  0  0  0  0  0  0
  141.8090   78.4030  220.5520 C   0  0  0  0  0  0  0  0  0  0  0  0
  141.4230   79.4650  221.3510 C   0  0  0  0  0  0  0  0  0  0  0  0
  140.6650   79.1840  222.4660 C   0  0  0  0  0  0  0  0  0  0  0  0
  140.1500   80.4940  223.5130 Cl  0  0  0  0  0  0  0  0  0  0  0  0
  140.2760   77.9100  222.8210 C   0  0  0  0  0  0  0  0  0  0  0  0
  140.6670   76.8820  222.0220 C   0  0  0  0  0  0  0  0  0  0  0  0
  140.3220   75.6490  222.3170 N   0  0  0  0  0  0  0  0  0  0  0  0
  140.6620   74.5430  221.5820 C   0  0  0  0  0  0  0  0  0  0  0  0
  140.1370   73.3070  222.0680 C   0  0  0  0  0  0  0  0  0  0  0  0
  140.6940   72.1810  222.3860 C   0  0  0  0  0  0  0  0  0  0  0  0
  140.3260   71.4690  223.6350 C   0  0  0  0  0  0  0  0  0  0  0  0
  139.1970   70.6820  223.6890 C   0  0  0  0  0  0  0  0  0  0  0  0
  138.8560   70.0140  224.8680 C   0  0  0  0  0  0  0  0  0  0  0  0
  139.6560   70.1410  225.9890 C   0  0  0  0  0  0  0  0  0  0  0  0
  140.7800   70.9390  225.8940 C   0  0  0  0  0  0  0  0  0  0  0  0
  141.0690   71.5640  224.7380 N   0  0  0  0  0  0  0  0  0  0  0  0
  141.3960   74.7730  220.4960 N   0  0  0  0  0  0  0  0  0  0  0  0
  141.8900   73.7590  219.5940 C   0  0  0  0  0  0  0  0  0  0  0  0
  143.3340   73.5610  219.5940 C   0  0  0  0  0  0  0  0  0  0  0  0
  143.9830   73.4950  220.8450 C   0  0  0  0  0  0  0  0  0  0  0  0
  145.3350   73.2880  220.9650 C   0  0  0  0  0  0  0  0  0  0  0  0
  146.1490   73.1320  219.8650 C   0  0  0  0  0  0  0  0  0  0  0  0
  145.5390   73.1920  218.6330 C   0  0  0  0  0  0  0  0  0  0  0  0
  146.3270   73.0380  217.5000 O   0  0  0  0  0  0  0  0  0  0  0  0
  144.1600   73.4030  218.5150 C   0  0  0  0  0  0  0  0  0  0  0  0
  142.4155   78.5671  219.6491 H   0  0  0  0  0  0  0  0  0  0  0  0
  141.7115   80.4974  221.1042 H   0  0  0  0  0  0  0  0  0  0  0  0
  139.6693   77.7312  223.7210 H   0  0  0  0  0  0  0  0  0  0  0  0
  139.0447   73.3117  222.1980 H   0  0  0  0  0  0  0  0  0  0  0  0
  141.4525   71.7455  221.7188 H   0  0  0  0  0  0  0  0  0  0  0  0
  138.5597   70.5786  222.7984 H   0  0  0  0  0  0  0  0  0  0  0  0
  137.9523   69.3879  224.9045 H   0  0  0  0  0  0  0  0  0  0  0  0
  139.4054   69.6231  226.9265 H   0  0  0  0  0  0  0  0  0  0  0  0
  141.4399   71.0636  226.7652 H   0  0  0  0  0  0  0  0  0  0  0  0
  141.4181   72.8040  219.8683 H   0  0  0  0  0  0  0  0  0  0  0  0
  141.6357   74.1085  218.5825 H   0  0  0  0  0  0  0  0  0  0  0  0
  143.3829   73.6139  221.7592 H   0  0  0  0  0  0  0  0  0  0  0  0
  145.7813   73.2455  221.9695 H   0  0  0  0  0  0  0  0  0  0  0  0
  147.2320   72.9678  219.9662 H   0  0  0  0  0  0  0  0  0  0  0  0
  146.2180   73.5240  216.6420 H   0  0  0  0  0  0  0  0  0  0  0  0
  143.7201   73.4436  217.5076 H   0  0  0  0  0  0  0  0  0  0  0  0
  1  2  2  0
  2  3  1  0
  3  4  2  0
  4  5  1  0
  5  6  2  0
  6  7  1  0
  6  8  1  0
  8  9  2  0
  9 10  1  0
 10 11  2  0
 11 12  1  0
 12 13  2  0
 13 14  1  0
 14 15  2  0
 15 16  1  0
 16 17  2  0
 17 18  1  0
 18 19  2  0
 11 20  1  0
 20 21  1  0
 21 22  1  0
 22 23  2  0
 23 24  1  0
 24 25  2  0
 25 26  1  0
 26 27  1  0
 26 28  2  0
 20  2  1  0
 28 22  1  0
  9  3  1  0
 19 14  1  0
  4 29  1  0
  5 30  1  0
  8 31  1  0
 12 32  1  0
 13 33  1  0
 15 34  1  0
 16 35  1  0
 17 36  1  0
 18 37  1  0
 21 38  1  0
 21 39  1  0
 23 40  1  0
 24 41  1  0
 25 42  1  0
 27 43  1  0
 28 44  1  0
M  END
>  <smiles>  (39) 
O=c1c2ccc(Cl)cc2nc(/C=C/c2ccccn2)n1Cc1cccc(O)c1

>  <score_type>  (39) 
oracle

>  <origin>  (39) 
autodockgpu

>  <m_score__min__energy>  (39) 
-8.2200000000000006

>  <m_primary>  (39) 
energy

>  <rmsd>  (39) 
7.535213416923246

>  <m_score__min__rmsd>  (39) 
7.535213416923246

>  <meeko>  (39) 
{"free_energy": -7.64, "intermolecular_energy": -9.43, "internal_energy": -1.0, "cluster_size": 18, "cluster_id": 1, "rank_in_cluster": 16}

>  <energy>  (39) 
-6.29

>  <cluster_rmsd>  (39) 
0.87

>  <cluster>  (39) 
7

$$$$

     RDKit          3D

 44 47  0  0  0  0  0  0  0  0999 V2000
  142.1910   74.9560  218.7870 O   0  0  0  0  0  0  0  0  0  0  0  0
  141.7010   74.7740  219.9300 C   0  0  0  0  0  0  0  0  0  0  0  0
  141.4640   75.9050  220.6860 C   0  0  0  0  0  0  0  0  0  0  0  0
  141.7610   77.1530  220.1880 C   0  0  0  0  0  0  0  0  0  0  0  0
  141.5060   78.2540  220.9870 C   0  0  0  0  0  0  0  0  0  0  0  0
  140.9680   78.0290  222.2350 C   0  0  0  0  0  0  0  0  0  0  0  0
  140.6260   79.3900  223.2870 Cl  0  0  0  0  0  0  0  0  0  0  0  0
  140.6750   76.7730  222.7220 C   0  0  0  0  0  0  0  0  0  0  0  0
  140.9340   75.7050  221.9210 C   0  0  0  0  0  0  0  0  0  0  0  0
  140.6740   74.4870  222.3400 N   0  0  0  0  0  0  0  0  0  0  0  0
  140.8950   73.3460  221.6150 C   0  0  0  0  0  0  0  0  0  0  0  0
  140.4920   72.1340  222.2530 C   0  0  0  0  0  0  0  0  0  0  0  0
  139.5530   71.8600  223.1030 C   0  0  0  0  0  0  0  0  0  0  0  0
  139.8610   71.2260  224.4090 C   0  0  0  0  0  0  0  0  0  0  0  0
  140.7290   71.8240  225.2950 C   0  0  0  0  0  0  0  0  0  0  0  0
  141.0150   71.2220  226.5220 C   0  0  0  0  0  0  0  0  0  0  0  0
  140.4220   70.0170  226.8540 C   0  0  0  0  0  0  0  0  0  0  0  0
  139.5570   69.4490  225.9390 C   0  0  0  0  0  0  0  0  0  0  0  0
  139.3110   70.0650  224.7680 N   0  0  0  0  0  0  0  0  0  0  0  0
  141.4150   73.5220  220.4030 N   0  0  0  0  0  0  0  0  0  0  0  0
  141.7580   72.4640  219.4810 C   0  0  0  0  0  0  0  0  0  0  0  0
  143.1620   72.0780  219.4520 C   0  0  0  0  0  0  0  0  0  0  0  0
  143.4580   70.6990  219.4010 C   0  0  0  0  0  0  0  0  0  0  0  0
  144.7450   70.2220  219.3470 C   0  0  0  0  0  0  0  0  0  0  0  0
  145.8350   71.0640  219.3410 C   0  0  0  0  0  0  0  0  0  0  0  0
  145.5720   72.4140  219.3910 C   0  0  0  0  0  0  0  0  0  0  0  0
  146.6450   73.2940  219.3860 O   0  0  0  0  0  0  0  0  0  0  0  0
  144.2580   72.8970  219.4450 C   0  0  0  0  0  0  0  0  0  0  0  0
  142.1895   77.2723  219.1820 H   0  0  0  0  0  0  0  0  0  0  0  0
  141.7254   79.2736  220.6375 H   0  0  0  0  0  0  0  0  0  0  0  0
  140.2457   76.6391  223.7259 H   0  0  0  0  0  0  0  0  0  0  0  0
  141.0975   71.2614  221.9668 H   0  0  0  0  0  0  0  0  0  0  0  0
  138.5096   72.1015  222.8521 H   0  0  0  0  0  0  0  0  0  0  0  0
  141.2006   72.7830  225.0343 H   0  0  0  0  0  0  0  0  0  0  0  0
  141.7108   71.7052  227.2237 H   0  0  0  0  0  0  0  0  0  0  0  0
  140.6326   69.5268  227.8160 H   0  0  0  0  0  0  0  0  0  0  0  0
  139.0680   68.4907  226.1681 H   0  0  0  0  0  0  0  0  0  0  0  0
  141.1694   71.5754  219.7531 H   0  0  0  0  0  0  0  0  0  0  0  0
  141.5362   72.8584  218.4784 H   0  0  0  0  0  0  0  0  0  0  0  0
  142.6265   69.9789  219.4046 H   0  0  0  0  0  0  0  0  0  0  0  0
  144.9100   69.1352  219.3074 H   0  0  0  0  0  0  0  0  0  0  0  0
  146.8638   70.6770  219.2984 H   0  0  0  0  0  0  0  0  0  0  0  0
  146.7020   74.1430  218.8750 H   0  0  0  0  0  0  0  0  0  0  0  0
  144.1002   73.9849  219.4836 H   0  0  0  0  0  0  0  0  0  0  0  0
  1  2  2  0
  2  3  1  0
  3  4  2  0
  4  5  1  0
  5  6  2  0
  6  7  1  0
  6  8  1  0
  8  9  2  0
  9 10  1  0
 10 11  2  0
 11 12  1  0
 12 13  2  0
 13 14  1  0
 14 15  2  0
 15 16  1  0
 16 17  2  0
 17 18  1  0
 18 19  2  0
 11 20  1  0
 20 21  1  0
 21 22  1  0
 22 23  2  0
 23 24  1  0
 24 25  2  0
 25 26  1  0
 26 27  1  0
 26 28  2  0
 20  2  1  0
 28 22  1  0
  9  3  1  0
 19 14  1  0
  4 29  1  0
  5 30  1  0
  8 31  1  0
 12 32  1  0
 13 33  1  0
 15 34  1  0
 16 35  1  0
 17 36  1  0
 18 37  1  0
 21 38  1  0
 21 39  1  0
 23 40  1  0
 24 41  1  0
 25 42  1  0
 27 43  1  0
 28 44  1  0
M  END
>  <smiles>  (40) 
O=c1c2ccc(Cl)cc2nc(/C=C/c2ccccn2)n1Cc1cccc(O)c1

>  <score_type>  (40) 
oracle

>  <origin>  (40) 
autodockgpu

>  <m_score__min__energy>  (40) 
-8.2200000000000006

>  <m_primary>  (40) 
energy

>  <rmsd>  (40) 
8.492435639080195

>  <m_score__min__rmsd>  (40) 
8.492435639080195

>  <meeko>  (40) 
{"free_energy": -7.91, "intermolecular_energy": -9.7, "internal_energy": -0.9, "cluster_size": 18, "cluster_id": 1, "rank_in_cluster": 8}

>  <energy>  (40) 
-6.71

>  <cluster_rmsd>  (40) 
0.0

>  <cluster>  (40) 
8

$$$$

     RDKit          3D

 44 47  0  0  0  0  0  0  0  0999 V2000
  141.6100   74.7790  218.9150 O   0  0  0  0  0  0  0  0  0  0  0  0
  141.0910   74.5120  220.0290 C   0  0  0  0  0  0  0  0  0  0  0  0
  140.3250   75.5040  220.6060 C   0  0  0  0  0  0  0  0  0  0  0  0
  140.1560   76.7140  219.9720 C   0  0  0  0  0  0  0  0  0  0  0  0
  139.3780   77.6760  220.5930 C   0  0  0  0  0  0  0  0  0  0  0  0
  138.8210   77.3590  221.8120 C   0  0  0  0  0  0  0  0  0  0  0  0
  137.8280   78.5430  222.6420 Cl  0  0  0  0  0  0  0  0  0  0  0  0
  138.9980   76.1430  222.4370 C   0  0  0  0  0  0  0  0  0  0  0  0
  139.7650   75.2130  221.8100 C   0  0  0  0  0  0  0  0  0  0  0  0
  139.9650   74.0390  222.3640 N   0  0  0  0  0  0  0  0  0  0  0  0
  140.7190   73.0330  221.8190 C   0  0  0  0  0  0  0  0  0  0  0  0
  140.7590   71.8240  222.5780 C   0  0  0  0  0  0  0  0  0  0  0  0
  139.8850   71.2290  223.3270 C   0  0  0  0  0  0  0  0  0  0  0  0
  140.1690   70.9340  224.7530 C   0  0  0  0  0  0  0  0  0  0  0  0
  140.7640   71.8770  225.5620 C   0  0  0  0  0  0  0  0  0  0  0  0
  141.0290   71.5920  226.9030 C   0  0  0  0  0  0  0  0  0  0  0  0
  140.6930   70.3570  227.4260 C   0  0  0  0  0  0  0  0  0  0  0  0
  140.0980   69.4380  226.5840 C   0  0  0  0  0  0  0  0  0  0  0  0
  139.8620   69.7560  225.2970 N   0  0  0  0  0  0  0  0  0  0  0  0
  141.2760   73.3010  220.6400 N   0  0  0  0  0  0  0  0  0  0  0  0
  142.1310   72.4030  219.8990 C   0  0  0  0  0  0  0  0  0  0  0  0
  143.5550   72.7070  219.9380 C   0  0  0  0  0  0  0  0  0  0  0  0
  144.1730   72.7710  221.2040 C   0  0  0  0  0  0  0  0  0  0  0  0
  145.5130   73.0280  221.3600 C   0  0  0  0  0  0  0  0  0  0  0  0
  146.3440   73.2410  220.2820 C   0  0  0  0  0  0  0  0  0  0  0  0
  145.7650   73.1830  219.0350 C   0  0  0  0  0  0  0  0  0  0  0  0
  146.5710   73.3910  217.9240 O   0  0  0  0  0  0  0  0  0  0  0  0
  144.3980   72.9210  218.8810 C   0  0  0  0  0  0  0  0  0  0  0  0
  140.6267   76.9114  218.9976 H   0  0  0  0  0  0  0  0  0  0  0  0
  139.2106   78.6592  220.1291 H   0  0  0  0  0  0  0  0  0  0  0  0
  138.5334   75.9325  223.4116 H   0  0  0  0  0  0  0  0  0  0  0  0
  141.7206   71.2937  222.5143 H   0  0  0  0  0  0  0  0  0  0  0  0
  138.9150   70.9374  222.8979 H   0  0  0  0  0  0  0  0  0  0  0  0
  141.0320   72.8607  225.1490 H   0  0  0  0  0  0  0  0  0  0  0  0
  141.5048   72.3496  227.5430 H   0  0  0  0  0  0  0  0  0  0  0  0
  140.8933   70.1139  228.4799 H   0  0  0  0  0  0  0  0  0  0  0  0
  139.8166   68.4453  226.9652 H   0  0  0  0  0  0  0  0  0  0  0  0
  141.9907   71.3907  220.3060 H   0  0  0  0  0  0  0  0  0  0  0  0
  141.8320   72.5071  218.8455 H   0  0  0  0  0  0  0  0  0  0  0  0
  143.5579   72.6088  222.1014 H   0  0  0  0  0  0  0  0  0  0  0  0
  145.9351   73.0649  222.3751 H   0  0  0  0  0  0  0  0  0  0  0  0
  147.4167   73.4471  220.4116 H   0  0  0  0  0  0  0  0  0  0  0  0
  146.7400   74.2620  217.4800 H   0  0  0  0  0  0  0  0  0  0  0  0
  143.9823   72.8855  217.8632 H   0  0  0  0  0  0  0  0  0  0  0  0
  1  2  2  0
  2  3  1  0
  3  4  2  0
  4  5  1  0
  5  6  2  0
  6  7  1  0
  6  8  1  0
  8  9  2  0
  9 10  1  0
 10 11  2  0
 11 12  1  0
 12 13  2  0
 13 14  1  0
 14 15  2  0
 15 16  1  0
 16 17  2  0
 17 18  1  0
 18 19  2  0
 11 20  1  0
 20 21  1  0
 21 22  1  0
 22 23  2  0
 23 24  1  0
 24 25  2  0
 25 26  1  0
 26 27  1  0
 26 28  2  0
 20  2  1  0
 28 22  1  0
  9  3  1  0
 19 14  1  0
  4 29  1  0
  5 30  1  0
  8 31  1  0
 12 32  1  0
 13 33  1  0
 15 34  1  0
 16 35  1  0
 17 36  1  0
 18 37  1  0
 21 38  1  0
 21 39  1  0
 23 40  1  0
 24 41  1  0
 25 42  1  0
 27 43  1  0
 28 44  1  0
M  END
>  <smiles>  (41) 
O=c1c2ccc(Cl)cc2nc(/C=C/c2ccccn2)n1Cc1cccc(O)c1

>  <score_type>  (41) 
oracle

>  <origin>  (41) 
autodockgpu

>  <m_score__min__energy>  (41) 
-8.2200000000000006

>  <m_primary>  (41) 
energy

>  <rmsd>  (41) 
7.685113491551719

>  <m_score__min__rmsd>  (41) 
7.685113491551719

>  <meeko>  (41) 
{"free_energy": -7.8, "intermolecular_energy": -9.59, "internal_energy": -1.01, "cluster_size": 18, "cluster_id": 1, "rank_in_cluster": 13}

>  <energy>  (41) 
-6.67

>  <cluster_rmsd>  (41) 
0.0

>  <cluster>  (41) 
9

$$$$

     RDKit          3D

 44 47  0  0  0  0  0  0  0  0999 V2000
  142.2300   75.3990  218.8840 O   0  0  0  0  0  0  0  0  0  0  0  0
  141.6200   75.2590  219.9750 C   0  0  0  0  0  0  0  0  0  0  0  0
  141.4850   76.3890  220.7560 C   0  0  0  0  0  0  0  0  0  0  0  0
  142.0030   77.5940  220.3370 C   0  0  0  0  0  0  0  0  0  0  0  0
  141.8400   78.6960  221.1570 C   0  0  0  0  0  0  0  0  0  0  0  0
  141.1680   78.5160  222.3460 C   0  0  0  0  0  0  0  0  0  0  0  0
  140.9370   79.8820  223.4230 Cl  0  0  0  0  0  0  0  0  0  0  0  0
  140.6550   77.3040  222.7540 C   0  0  0  0  0  0  0  0  0  0  0  0
  140.8250   76.2340  221.9330 C   0  0  0  0  0  0  0  0  0  0  0  0
  140.3550   75.0560  222.2770 N   0  0  0  0  0  0  0  0  0  0  0  0
  140.4710   73.9160  221.5260 C   0  0  0  0  0  0  0  0  0  0  0  0
  139.8410   72.7590  222.0770 C   0  0  0  0  0  0  0  0  0  0  0  0
  140.2960   71.6020  222.4430 C   0  0  0  0  0  0  0  0  0  0  0  0
  140.2330   71.1660  223.8600 C   0  0  0  0  0  0  0  0  0  0  0  0
  139.5810   70.0040  224.2100 C   0  0  0  0  0  0  0  0  0  0  0  0
  139.5250   69.5990  225.5450 C   0  0  0  0  0  0  0  0  0  0  0  0
  140.1290   70.3670  226.5250 C   0  0  0  0  0  0  0  0  0  0  0  0
  140.7730   71.5250  226.1330 C   0  0  0  0  0  0  0  0  0  0  0  0
  140.8010   71.8760  224.8350 N   0  0  0  0  0  0  0  0  0  0  0  0
  141.1150   74.0490  220.3690 N   0  0  0  0  0  0  0  0  0  0  0  0
  141.3800   72.9790  219.4350 C   0  0  0  0  0  0  0  0  0  0  0  0
  142.7290   72.4290  219.4670 C   0  0  0  0  0  0  0  0  0  0  0  0
  142.8880   71.1250  219.9840 C   0  0  0  0  0  0  0  0  0  0  0  0
  144.1090   70.4990  220.0420 C   0  0  0  0  0  0  0  0  0  0  0  0
  145.2620   71.1060  219.5970 C   0  0  0  0  0  0  0  0  0  0  0  0
  145.1320   72.3780  219.0880 C   0  0  0  0  0  0  0  0  0  0  0  0
  146.2730   73.0230  218.6290 O   0  0  0  0  0  0  0  0  0  0  0  0
  143.8860   73.0140  219.0310 C   0  0  0  0  0  0  0  0  0  0  0  0
  142.5321   77.6780  219.3763 H   0  0  0  0  0  0  0  0  0  0  0  0
  142.2334   79.6822  220.8695 H   0  0  0  0  0  0  0  0  0  0  0  0
  140.1251   77.2055  223.7129 H   0  0  0  0  0  0  0  0  0  0  0  0
  138.7560   72.8720  222.2187 H   0  0  0  0  0  0  0  0  0  0  0  0
  140.7365   70.9316  221.6903 H   0  0  0  0  0  0  0  0  0  0  0  0
  139.1013   69.3912  223.4326 H   0  0  0  0  0  0  0  0  0  0  0  0
  139.0015   68.6707  225.8174 H   0  0  0  0  0  0  0  0  0  0  0  0
  140.0975   70.0652  227.5823 H   0  0  0  0  0  0  0  0  0  0  0  0
  141.2638   72.1612  226.8842 H   0  0  0  0  0  0  0  0  0  0  0  0
  140.6768   72.1610  219.6505 H   0  0  0  0  0  0  0  0  0  0  0  0
  141.2606   73.4196  218.4342 H   0  0  0  0  0  0  0  0  0  0  0  0
  142.0008   70.5904  220.3542 H   0  0  0  0  0  0  0  0  0  0  0  0
  144.1676   69.4818  220.4566 H   0  0  0  0  0  0  0  0  0  0  0  0
  146.2374   70.5999  219.6459 H   0  0  0  0  0  0  0  0  0  0  0  0
  146.4070   74.0040  218.5750 H   0  0  0  0  0  0  0  0  0  0  0  0
  143.8351   74.0316  218.6163 H   0  0  0  0  0  0  0  0  0  0  0  0
  1  2  2  0
  2  3  1  0
  3  4  2  0
  4  5  1  0
  5  6  2  0
  6  7  1  0
  6  8  1  0
  8  9  2  0
  9 10  1  0
 10 11  2  0
 11 12  1  0
 12 13  2  0
 13 14  1  0
 14 15  2  0
 15 16  1  0
 16 17  2  0
 17 18  1  0
 18 19  2  0
 11 20  1  0
 20 21  1  0
 21 22  1  0
 22 23  2  0
 23 24  1  0
 24 25  2  0
 25 26  1  0
 26 27  1  0
 26 28  2  0
 20  2  1  0
 28 22  1  0
  9  3  1  0
 19 14  1  0
  4 29  1  0
  5 30  1  0
  8 31  1  0
 12 32  1  0
 13 33  1  0
 15 34  1  0
 16 35  1  0
 17 36  1  0
 18 37  1  0
 21 38  1  0
 21 39  1  0
 23 40  1  0
 24 41  1  0
 25 42  1  0
 27 43  1  0
 28 44  1  0
M  END
>  <smiles>  (42) 
O=c1c2ccc(Cl)cc2nc(/C=C/c2ccccn2)n1Cc1cccc(O)c1

>  <score_type>  (42) 
oracle

>  <origin>  (42) 
autodockgpu

>  <m_score__min__energy>  (42) 
-8.2200000000000006

>  <m_primary>  (42) 
energy

>  <rmsd>  (42) 
8.215389322318996

>  <m_score__min__rmsd>  (42) 
8.215389322318996

>  <meeko>  (42) 
{"free_energy": -7.91, "intermolecular_energy": -9.7, "internal_energy": -1.01, "cluster_size": 18, "cluster_id": 1, "rank_in_cluster": 7}

>  <energy>  (42) 
-6.65

>  <cluster_rmsd>  (42) 
0.21

>  <cluster>  (42) 
9

$$$$

     RDKit          3D

 44 47  0  0  0  0  0  0  0  0999 V2000
  136.5060   76.3490  222.2120 O   0  0  0  0  0  0  0  0  0  0  0  0
  137.6630   75.8570  222.1910 C   0  0  0  0  0  0  0  0  0  0  0  0
  138.7110   76.7360  222.3740 C   0  0  0  0  0  0  0  0  0  0  0  0
  138.4710   78.0780  222.5660 C   0  0  0  0  0  0  0  0  0  0  0  0
  139.5560   78.9180  222.7450 C   0  0  0  0  0  0  0  0  0  0  0  0
  140.8130   78.3540  222.7180 C   0  0  0  0  0  0  0  0  0  0  0  0
  142.2220   79.3750  222.9380 Cl  0  0  0  0  0  0  0  0  0  0  0  0
  141.0400   77.0090  222.5240 C   0  0  0  0  0  0  0  0  0  0  0  0
  139.9590   76.2010  222.3510 C   0  0  0  0  0  0  0  0  0  0  0  0
  140.1220   74.9110  222.1620 N   0  0  0  0  0  0  0  0  0  0  0  0
  139.1050   74.0120  221.9780 C   0  0  0  0  0  0  0  0  0  0  0  0
  139.5160   72.6510  221.8380 C   0  0  0  0  0  0  0  0  0  0  0  0
  139.1290   71.5540  222.4090 C   0  0  0  0  0  0  0  0  0  0  0  0
  139.5690   71.2080  223.7830 C   0  0  0  0  0  0  0  0  0  0  0  0
  138.9170   70.2330  224.5050 C   0  0  0  0  0  0  0  0  0  0  0  0
  139.3360   69.9120  225.7980 C   0  0  0  0  0  0  0  0  0  0  0  0
  140.4130   70.5740  226.3590 C   0  0  0  0  0  0  0  0  0  0  0  0
  141.0410   71.5450  225.6020 C   0  0  0  0  0  0  0  0  0  0  0  0
  140.6030   71.8220  224.3600 N   0  0  0  0  0  0  0  0  0  0  0  0
  137.8750   74.5180  221.9960 N   0  0  0  0  0  0  0  0  0  0  0  0
  136.6600   73.7640  221.7950 C   0  0  0  0  0  0  0  0  0  0  0  0
  135.9650   73.3440  223.0050 C   0  0  0  0  0  0  0  0  0  0  0  0
  135.8280   71.9580  223.2300 C   0  0  0  0  0  0  0  0  0  0  0  0
  135.2130   71.4500  224.3480 C   0  0  0  0  0  0  0  0  0  0  0  0
  134.6870   72.2650  225.3250 C   0  0  0  0  0  0  0  0  0  0  0  0
  134.8090   73.6220  225.1280 C   0  0  0  0  0  0  0  0  0  0  0  0
  134.2920   74.4760  226.0930 O   0  0  0  0  0  0  0  0  0  0  0  0
  135.4370   74.1360  223.9880 C   0  0  0  0  0  0  0  0  0  0  0  0
  137.4440   78.4720  222.5768 H   0  0  0  0  0  0  0  0  0  0  0  0
  139.4199   79.9980  222.9033 H   0  0  0  0  0  0  0  0  0  0  0  0
  142.0617   76.6017  222.5095 H   0  0  0  0  0  0  0  0  0  0  0  0
  140.3190   72.5056  221.1004 H   0  0  0  0  0  0  0  0  0  0  0  0
  138.4629   70.8676  221.8657 H   0  0  0  0  0  0  0  0  0  0  0  0
  138.0611   69.7040  224.0605 H   0  0  0  0  0  0  0  0  0  0  0  0
  138.8099   69.1333  226.3697 H   0  0  0  0  0  0  0  0  0  0  0  0
  140.7588   70.3352  227.3756 H   0  0  0  0  0  0  0  0  0  0  0  0
  141.9007   72.0926  226.0156 H   0  0  0  0  0  0  0  0  0  0  0  0
  135.9692   74.3877  221.2086 H   0  0  0  0  0  0  0  0  0  0  0  0
  136.9653   72.8361  221.2893 H   0  0  0  0  0  0  0  0  0  0  0  0
  136.2287   71.2581  222.4820 H   0  0  0  0  0  0  0  0  0  0  0  0
  135.1384   70.3589  224.4664 H   0  0  0  0  0  0  0  0  0  0  0  0
  134.1942   71.8527  226.2178 H   0  0  0  0  0  0  0  0  0  0  0  0
  133.3500   74.7810  226.1580 H   0  0  0  0  0  0  0  0  0  0  0  0
  135.5096   75.2280  223.8769 H   0  0  0  0  0  0  0  0  0  0  0  0
  1  2  2  0
  2  3  1  0
  3  4  2  0
  4  5  1  0
  5  6  2  0
  6  7  1  0
  6  8  1  0
  8  9  2  0
  9 10  1  0
 10 11  2  0
 11 12  1  0
 12 13  2  0
 13 14  1  0
 14 15  2  0
 15 16  1  0
 16 17  2  0
 17 18  1  0
 18 19  2  0
 11 20  1  0
 20 21  1  0
 21 22  1  0
 22 23  2  0
 23 24  1  0
 24 25  2  0
 25 26  1  0
 26 27  1  0
 26 28  2  0
 20  2  1  0
 28 22  1  0
  9  3  1  0
 19 14  1  0
  4 29  1  0
  5 30  1  0
  8 31  1  0
 12 32  1  0
 13 33  1  0
 15 34  1  0
 16 35  1  0
 17 36  1  0
 18 37  1  0
 21 38  1  0
 21 39  1  0
 23 40  1  0
 24 41  1  0
 25 42  1  0
 27 43  1  0
 28 44  1  0
M  END
>  <smiles>  (43) 
O=c1c2ccc(Cl)cc2nc(/C=C/c2ccccn2)n1Cc1cccc(O)c1

>  <score_type>  (43) 
oracle

>  <origin>  (43) 
autodockgpu

>  <m_score__min__energy>  (43) 
-8.2200000000000006

>  <m_primary>  (43) 
energy

>  <rmsd>  (43) 
8.133154240477548

>  <m_score__min__rmsd>  (43) 
8.133154240477548

>  <meeko>  (43) 
{"free_energy": -6.9, "intermolecular_energy": -8.69, "internal_energy": -1.42, "cluster_size": 5, "cluster_id": 5, "rank_in_cluster": 1}

>  <energy>  (43) 
-6.65

>  <cluster_rmsd>  (43) 
0.29

>  <cluster>  (43) 
9

$$$$

     RDKit          3D

 44 47  0  0  0  0  0  0  0  0999 V2000
  141.3920   71.4150  219.6370 O   0  0  0  0  0  0  0  0  0  0  0  0
  140.8940   72.0920  220.5710 C   0  0  0  0  0  0  0  0  0  0  0  0
  140.1520   71.4010  221.5080 C   0  0  0  0  0  0  0  0  0  0  0  0
  139.9810   70.0390  221.3970 C   0  0  0  0  0  0  0  0  0  0  0  0
  139.2280   69.3930  222.3610 C   0  0  0  0  0  0  0  0  0  0  0  0
  138.6940   70.1580  223.3740 C   0  0  0  0  0  0  0  0  0  0  0  0
  137.7300   69.3880  224.6210 Cl  0  0  0  0  0  0  0  0  0  0  0  0
  138.8720   71.5210  223.4740 C   0  0  0  0  0  0  0  0  0  0  0  0
  139.6160   72.1360  222.5160 C   0  0  0  0  0  0  0  0  0  0  0  0
  139.8140   73.4340  222.5660 N   0  0  0  0  0  0  0  0  0  0  0  0
  140.5450   74.1500  221.6550 C   0  0  0  0  0  0  0  0  0  0  0  0
  140.6660   75.5450  221.9350 C   0  0  0  0  0  0  0  0  0  0  0  0
  141.0870   76.5490  221.2330 C   0  0  0  0  0  0  0  0  0  0  0  0
  141.4510   77.8360  221.8740 C   0  0  0  0  0  0  0  0  0  0  0  0
  141.8250   78.9210  221.1130 C   0  0  0  0  0  0  0  0  0  0  0  0
  142.1670   80.1300  221.7230 C   0  0  0  0  0  0  0  0  0  0  0  0
  142.1290   80.2420  223.1010 C   0  0  0  0  0  0  0  0  0  0  0  0
  141.7490   79.1320  223.8300 C   0  0  0  0  0  0  0  0  0  0  0  0
  141.4280   77.9870  223.1990 N   0  0  0  0  0  0  0  0  0  0  0  0
  141.0770   73.4460  220.6590 N   0  0  0  0  0  0  0  0  0  0  0  0
  141.8570   73.9960  219.5740 C   0  0  0  0  0  0  0  0  0  0  0  0
  143.2920   73.7510  219.6380 C   0  0  0  0  0  0  0  0  0  0  0  0
  143.8570   73.5160  220.9090 C   0  0  0  0  0  0  0  0  0  0  0  0
  145.1930   73.2530  221.0850 C   0  0  0  0  0  0  0  0  0  0  0  0
  146.0720   73.2010  220.0260 C   0  0  0  0  0  0  0  0  0  0  0  0
  145.5450   73.4260  218.7750 C   0  0  0  0  0  0  0  0  0  0  0  0
  146.4000   73.3810  217.6820 O   0  0  0  0  0  0  0  0  0  0  0  0
  144.1810   73.6950  218.5990 C   0  0  0  0  0  0  0  0  0  0  0  0
  140.4313   69.4796  220.5638 H   0  0  0  0  0  0  0  0  0  0  0  0
  139.0616   68.3064  222.3198 H   0  0  0  0  0  0  0  0  0  0  0  0
  138.4268   72.0927  224.3016 H   0  0  0  0  0  0  0  0  0  0  0  0
  140.3364   75.8219  222.9473 H   0  0  0  0  0  0  0  0  0  0  0  0
  141.1762   76.4451  220.1416 H   0  0  0  0  0  0  0  0  0  0  0  0
  141.8546   78.8349  220.0168 H   0  0  0  0  0  0  0  0  0  0  0  0
  142.4662   80.9918  221.1084 H   0  0  0  0  0  0  0  0  0  0  0  0
  142.3932   81.1856  223.6008 H   0  0  0  0  0  0  0  0  0  0  0  0
  141.7086   79.1837  224.9280 H   0  0  0  0  0  0  0  0  0  0  0  0
  141.4820   73.5627  218.6351 H   0  0  0  0  0  0  0  0  0  0  0  0
  141.7365   75.0873  219.6421 H   0  0  0  0  0  0  0  0  0  0  0  0
  143.2024   73.5445  221.7926 H   0  0  0  0  0  0  0  0  0  0  0  0
  145.5728   73.0786  222.1025 H   0  0  0  0  0  0  0  0  0  0  0  0
  147.1416   72.9902  220.1729 H   0  0  0  0  0  0  0  0  0  0  0  0
  146.7930   74.1640  217.2160 H   0  0  0  0  0  0  0  0  0  0  0  0
  143.8078   73.8691  217.5790 H   0  0  0  0  0  0  0  0  0  0  0  0
  1  2  2  0
  2  3  1  0
  3  4  2  0
  4  5  1  0
  5  6  2  0
  6  7  1  0
  6  8  1  0
  8  9  2  0
  9 10  1  0
 10 11  2  0
 11 12  1  0
 12 13  2  0
 13 14  1  0
 14 15  2  0
 15 16  1  0
 16 17  2  0
 17 18  1  0
 18 19  2  0
 11 20  1  0
 20 21  1  0
 21 22  1  0
 22 23  2  0
 23 24  1  0
 24 25  2  0
 25 26  1  0
 26 27  1  0
 26 28  2  0
 20  2  1  0
 28 22  1  0
  9  3  1  0
 19 14  1  0
  4 29  1  0
  5 30  1  0
  8 31  1  0
 12 32  1  0
 13 33  1  0
 15 34  1  0
 16 35  1  0
 17 36  1  0
 18 37  1  0
 21 38  1  0
 21 39  1  0
 23 40  1  0
 24 41  1  0
 25 42  1  0
 27 43  1  0
 28 44  1  0
M  END
>  <smiles>  (44) 
O=c1c2ccc(Cl)cc2nc(/C=C/c2ccccn2)n1Cc1cccc(O)c1

>  <score_type>  (44) 
oracle

>  <origin>  (44) 
autodockgpu

>  <m_score__min__energy>  (44) 
-8.2200000000000006

>  <m_primary>  (44) 
energy

>  <rmsd>  (44) 
8.478660500079274

>  <m_score__min__rmsd>  (44) 
8.478660500079274

>  <meeko>  (44) 
{"free_energy": -7.31, "intermolecular_energy": -9.1, "internal_energy": -0.95, "cluster_size": 1, "cluster_id": 2, "rank_in_cluster": 1}

>  <energy>  (44) 
-6.62

>  <cluster_rmsd>  (44) 
0.18

>  <cluster>  (44) 
9

$$$$

     RDKit          3D

 44 47  0  0  0  0  0  0  0  0999 V2000
  142.5730   76.0110  219.2670 O   0  0  0  0  0  0  0  0  0  0  0  0
  141.8010   75.8000  220.2360 C   0  0  0  0  0  0  0  0  0  0  0  0
  141.3870   76.9080  220.9470 C   0  0  0  0  0  0  0  0  0  0  0  0
  141.8150   78.1670  220.5910 C   0  0  0  0  0  0  0  0  0  0  0  0
  141.3720   79.2450  221.3370 C   0  0  0  0  0  0  0  0  0  0  0  0
  140.5270   78.9880  222.3940 C   0  0  0  0  0  0  0  0  0  0  0  0
  139.9370   80.3190  223.3720 Cl  0  0  0  0  0  0  0  0  0  0  0  0
  140.1060   77.7220  222.7410 C   0  0  0  0  0  0  0  0  0  0  0  0
  140.5530   76.6770  221.9950 C   0  0  0  0  0  0  0  0  0  0  0  0
  140.1810   75.4510  222.2850 N   0  0  0  0  0  0  0  0  0  0  0  0
  140.5730   74.3310  221.6000 C   0  0  0  0  0  0  0  0  0  0  0  0
  140.0050   73.1060  222.0660 C   0  0  0  0  0  0  0  0  0  0  0  0
  140.5270   71.9670  222.3980 C   0  0  0  0  0  0  0  0  0  0  0  0
  140.3190   71.3920  223.7500 C   0  0  0  0  0  0  0  0  0  0  0  0
  139.4350   70.3540  223.9450 C   0  0  0  0  0  0  0  0  0  0  0  0
  139.2440   69.8180  225.2200 C   0  0  0  0  0  0  0  0  0  0  0  0
  139.9470   70.3290  226.2960 C   0  0  0  0  0  0  0  0  0  0  0  0
  140.8240   71.3700  226.0600 C   0  0  0  0  0  0  0  0  0  0  0  0
  140.9760   71.8550  224.8140 N   0  0  0  0  0  0  0  0  0  0  0  0
  141.3910   74.5380  220.5720 N   0  0  0  0  0  0  0  0  0  0  0  0
  141.9500   73.5050  219.7310 C   0  0  0  0  0  0  0  0  0  0  0  0
  143.4030   73.3900  219.7490 C   0  0  0  0  0  0  0  0  0  0  0  0
  144.0740   73.4120  218.5090 C   0  0  0  0  0  0  0  0  0  0  0  0
  145.4410   73.3330  218.4080 C   0  0  0  0  0  0  0  0  0  0  0  0
  146.2490   73.2280  219.5190 C   0  0  0  0  0  0  0  0  0  0  0  0
  145.6180   73.2050  220.7410 C   0  0  0  0  0  0  0  0  0  0  0  0
  146.3980   73.1000  221.8840 O   0  0  0  0  0  0  0  0  0  0  0  0
  144.2230   73.2850  220.8400 C   0  0  0  0  0  0  0  0  0  0  0  0
  142.4915   78.3123  219.7359 H   0  0  0  0  0  0  0  0  0  0  0  0
  141.6838   80.2716  221.0943 H   0  0  0  0  0  0  0  0  0  0  0  0
  139.4301   77.5624  223.5941 H   0  0  0  0  0  0  0  0  0  0  0  0
  138.9096   73.1350  222.1619 H   0  0  0  0  0  0  0  0  0  0  0  0
  141.1349   71.4169  221.6646 H   0  0  0  0  0  0  0  0  0  0  0  0
  138.8758   69.9446  223.0907 H   0  0  0  0  0  0  0  0  0  0  0  0
  138.5351   68.9901  225.3686 H   0  0  0  0  0  0  0  0  0  0  0  0
  139.8120   69.9194  227.3079 H   0  0  0  0  0  0  0  0  0  0  0  0
  141.3989   71.8031  226.8918 H   0  0  0  0  0  0  0  0  0  0  0  0
  141.5310   72.5413  220.0564 H   0  0  0  0  0  0  0  0  0  0  0  0
  141.6849   73.7827  218.7002 H   0  0  0  0  0  0  0  0  0  0  0  0
  143.4795   73.4957  217.5873 H   0  0  0  0  0  0  0  0  0  0  0  0
  145.9047   73.3542  217.4107 H   0  0  0  0  0  0  0  0  0  0  0  0
  147.3439   73.1657  219.4331 H   0  0  0  0  0  0  0  0  0  0  0  0
  146.6570   72.2570  222.3390 H   0  0  0  0  0  0  0  0  0  0  0  0
  143.7656   73.2624  221.8401 H   0  0  0  0  0  0  0  0  0  0  0  0
  1  2  2  0
  2  3  1  0
  3  4  2  0
  4  5  1  0
  5  6  2  0
  6  7  1  0
  6  8  1  0
  8  9  2  0
  9 10  1  0
 10 11  2  0
 11 12  1  0
 12 13  2  0
 13 14  1  0
 14 15  2  0
 15 16  1  0
 16 17  2  0
 17 18  1  0
 18 19  2  0
 11 20  1  0
 20 21  1  0
 21 22  1  0
 22 23  2  0
 23 24  1  0
 24 25  2  0
 25 26  1  0
 26 27  1  0
 26 28  2  0
 20  2  1  0
 28 22  1  0
  9  3  1  0
 19 14  1  0
  4 29  1  0
  5 30  1  0
  8 31  1  0
 12 32  1  0
 13 33  1  0
 15 34  1  0
 16 35  1  0
 17 36  1  0
 18 37  1  0
 21 38  1  0
 21 39  1  0
 23 40  1  0
 24 41  1  0
 25 42  1  0
 27 43  1  0
 28 44  1  0
M  END
>  <smiles>  (45) 
O=c1c2ccc(Cl)cc2nc(/C=C/c2ccccn2)n1Cc1cccc(O)c1

>  <score_type>  (45) 
oracle

>  <origin>  (45) 
autodockgpu

>  <m_score__min__energy>  (45) 
-8.2200000000000006

>  <m_primary>  (45) 
energy

>  <rmsd>  (45) 
7.704032341788977

>  <m_score__min__rmsd>  (45) 
7.704032341788977

>  <meeko>  (45) 
{"free_energy": -7.51, "intermolecular_energy": -9.3, "internal_energy": -0.91, "cluster_size": 18, "cluster_id": 1, "rank_in_cluster": 18}

>  <energy>  (45) 
-6.61

>  <cluster_rmsd>  (45) 
0.1

>  <cluster>  (45) 
9

$$$$

     RDKit          3D

 44 47  0  0  0  0  0  0  0  0999 V2000
  135.7540   72.5700  222.5620 O   0  0  0  0  0  0  0  0  0  0  0  0
  136.8650   72.0310  222.7950 C   0  0  0  0  0  0  0  0  0  0  0  0
  137.9840   72.7080  222.3520 C   0  0  0  0  0  0  0  0  0  0  0  0
  137.8570   73.9090  221.6910 C   0  0  0  0  0  0  0  0  0  0  0  0
  139.0090   74.5470  221.2660 C   0  0  0  0  0  0  0  0  0  0  0  0
  140.2140   73.9360  221.5330 C   0  0  0  0  0  0  0  0  0  0  0  0
  141.7050   74.7030  221.0150 Cl  0  0  0  0  0  0  0  0  0  0  0  0
  140.3280   72.7330  222.1950 C   0  0  0  0  0  0  0  0  0  0  0  0
  139.1840   72.1230  222.6040 C   0  0  0  0  0  0  0  0  0  0  0  0
  139.2380   70.9740  223.2390 N   0  0  0  0  0  0  0  0  0  0  0  0
  138.1490   70.2770  223.6920 C   0  0  0  0  0  0  0  0  0  0  0  0
  138.4500   69.0720  224.3970 C   0  0  0  0  0  0  0  0  0  0  0  0
  138.9960   68.8420  225.5500 C   0  0  0  0  0  0  0  0  0  0  0  0
  139.7150   69.9120  226.2850 C   0  0  0  0  0  0  0  0  0  0  0  0
  139.5980   70.0270  227.6520 C   0  0  0  0  0  0  0  0  0  0  0  0
  140.2770   71.0370  228.3380 C   0  0  0  0  0  0  0  0  0  0  0  0
  141.0750   71.9270  227.6430 C   0  0  0  0  0  0  0  0  0  0  0  0
  141.1670   71.7780  226.2730 C   0  0  0  0  0  0  0  0  0  0  0  0
  140.4950   70.7910  225.6530 N   0  0  0  0  0  0  0  0  0  0  0  0
  136.9650   70.8340  223.4530 N   0  0  0  0  0  0  0  0  0  0  0  0
  135.6870   70.2640  223.8130 C   0  0  0  0  0  0  0  0  0  0  0  0
  135.0530   70.8260  224.9980 C   0  0  0  0  0  0  0  0  0  0  0  0
  134.8600   69.9690  226.1020 C   0  0  0  0  0  0  0  0  0  0  0  0
  134.2940   70.3960  227.2780 C   0  0  0  0  0  0  0  0  0  0  0  0
  133.8770   71.6960  227.4560 C   0  0  0  0  0  0  0  0  0  0  0  0
  134.0560   72.5530  226.3940 C   0  0  0  0  0  0  0  0  0  0  0  0
  133.6480   73.8720  226.5360 O   0  0  0  0  0  0  0  0  0  0  0  0
  134.6330   72.1130  225.1960 C   0  0  0  0  0  0  0  0  0  0  0  0
  136.8663   74.3496  221.5057 H   0  0  0  0  0  0  0  0  0  0  0  0
  138.9639   75.5085  220.7336 H   0  0  0  0  0  0  0  0  0  0  0  0
  141.3124   72.2810  222.3863 H   0  0  0  0  0  0  0  0  0  0  0  0
  138.1617   68.1593  223.8549 H   0  0  0  0  0  0  0  0  0  0  0  0
  138.9252   67.8368  225.9910 H   0  0  0  0  0  0  0  0  0  0  0  0
  138.9657   69.3189  228.2077 H   0  0  0  0  0  0  0  0  0  0  0  0
  140.1769   71.1241  229.4300 H   0  0  0  0  0  0  0  0  0  0  0  0
  141.6192   72.7281  228.1646 H   0  0  0  0  0  0  0  0  0  0  0  0
  141.7916   72.4683  225.6870 H   0  0  0  0  0  0  0  0  0  0  0  0
  135.0024   70.4073  222.9640 H   0  0  0  0  0  0  0  0  0  0  0  0
  135.8874   69.2095  224.0533 H   0  0  0  0  0  0  0  0  0  0  0  0
  135.1750   68.9185  226.0175 H   0  0  0  0  0  0  0  0  0  0  0  0
  134.1701   69.6782  228.1022 H   0  0  0  0  0  0  0  0  0  0  0  0
  133.4234   72.0329  228.3998 H   0  0  0  0  0  0  0  0  0  0  0  0
  132.7910   74.2560  226.2180 H   0  0  0  0  0  0  0  0  0  0  0  0
  134.7542   72.8360  224.3759 H   0  0  0  0  0  0  0  0  0  0  0  0
  1  2  2  0
  2  3  1  0
  3  4  2  0
  4  5  1  0
  5  6  2  0
  6  7  1  0
  6  8  1  0
  8  9  2  0
  9 10  1  0
 10 11  2  0
 11 12  1  0
 12 13  2  0
 13 14  1  0
 14 15  2  0
 15 16  1  0
 16 17  2  0
 17 18  1  0
 18 19  2  0
 11 20  1  0
 20 21  1  0
 21 22  1  0
 22 23  2  0
 23 24  1  0
 24 25  2  0
 25 26  1  0
 26 27  1  0
 26 28  2  0
 20  2  1  0
 28 22  1  0
  9  3  1  0
 19 14  1  0
  4 29  1  0
  5 30  1  0
  8 31  1  0
 12 32  1  0
 13 33  1  0
 15 34  1  0
 16 35  1  0
 17 36  1  0
 18 37  1  0
 21 38  1  0
 21 39  1  0
 23 40  1  0
 24 41  1  0
 25 42  1  0
 27 43  1  0
 28 44  1  0
M  END
>  <smiles>  (46) 
O=c1c2ccc(Cl)cc2nc(/C=C/c2ccccn2)n1Cc1cccc(O)c1

>  <score_type>  (46) 
oracle

>  <origin>  (46) 
autodockgpu

>  <m_score__min__energy>  (46) 
-8.2200000000000006

>  <m_primary>  (46) 
energy

>  <rmsd>  (46) 
9.918882538659576

>  <m_score__min__rmsd>  (46) 
9.918882538659576

>  <meeko>  (46) 
{"free_energy": -7.08, "intermolecular_energy": -8.87, "internal_energy": -1.36, "cluster_size": 4, "cluster_id": 4, "rank_in_cluster": 2}

>  <energy>  (46) 
-6.48

>  <cluster_rmsd>  (46) 
0.28

>  <cluster>  (46) 
9

$$$$

     RDKit          3D

 44 47  0  0  0  0  0  0  0  0999 V2000
  142.5120   76.1470  219.2800 O   0  0  0  0  0  0  0  0  0  0  0  0
  141.7370   75.9510  220.2500 C   0  0  0  0  0  0  0  0  0  0  0  0
  141.3770   77.0630  220.9860 C   0  0  0  0  0  0  0  0  0  0  0  0
  141.8600   78.3080  220.6520 C   0  0  0  0  0  0  0  0  0  0  0  0
  141.4700   79.3890  221.4220 C   0  0  0  0  0  0  0  0  0  0  0  0
  140.6200   79.1480  222.4790 C   0  0  0  0  0  0  0  0  0  0  0  0
  140.0960   80.4850  223.4880 Cl  0  0  0  0  0  0  0  0  0  0  0  0
  140.1440   77.8960  222.8040 C   0  0  0  0  0  0  0  0  0  0  0  0
  140.5400   76.8480  222.0340 C   0  0  0  0  0  0  0  0  0  0  0  0
  140.1150   75.6340  222.3020 N   0  0  0  0  0  0  0  0  0  0  0  0
  140.4510   74.5120  221.5920 C   0  0  0  0  0  0  0  0  0  0  0  0
  139.8320   73.3040  222.0370 C   0  0  0  0  0  0  0  0  0  0  0  0
  140.2830   72.1040  222.2270 C   0  0  0  0  0  0  0  0  0  0  0  0
  140.0800   71.4030  223.5190 C   0  0  0  0  0  0  0  0  0  0  0  0
  140.7060   71.8430  224.6640 C   0  0  0  0  0  0  0  0  0  0  0  0
  140.5110   71.1780  225.8770 C   0  0  0  0  0  0  0  0  0  0  0  0
  139.6820   70.0720  225.9310 C   0  0  0  0  0  0  0  0  0  0  0  0
  139.0720   69.6620  224.7620 C   0  0  0  0  0  0  0  0  0  0  0  0
  139.2900   70.3330  223.6160 N   0  0  0  0  0  0  0  0  0  0  0  0
  141.2720   74.7020  220.5620 N   0  0  0  0  0  0  0  0  0  0  0  0
  141.7800   73.6630  219.6970 C   0  0  0  0  0  0  0  0  0  0  0  0
  143.2160   73.4250  219.7670 C   0  0  0  0  0  0  0  0  0  0  0  0
  143.7440   72.9890  221.0010 C   0  0  0  0  0  0  0  0  0  0  0  0
  145.0780   72.7120  221.1750 C   0  0  0  0  0  0  0  0  0  0  0  0
  145.9900   72.8440  220.1520 C   0  0  0  0  0  0  0  0  0  0  0  0
  145.4990   73.2690  218.9380 C   0  0  0  0  0  0  0  0  0  0  0  0
  146.3880   73.4130  217.8820 O   0  0  0  0  0  0  0  0  0  0  0  0
  144.1380   73.5490  218.7640 C   0  0  0  0  0  0  0  0  0  0  0  0
  142.5379   78.4397  219.7958 H   0  0  0  0  0  0  0  0  0  0  0  0
  141.8261   80.4054  221.1981 H   0  0  0  0  0  0  0  0  0  0  0  0
  139.4663   77.7497  223.6580 H   0  0  0  0  0  0  0  0  0  0  0  0
  138.7611   73.4140  222.2630 H   0  0  0  0  0  0  0  0  0  0  0  0
  140.8259   71.5961  221.4162 H   0  0  0  0  0  0  0  0  0  0  0  0
  141.3638   72.7237  224.6232 H   0  0  0  0  0  0  0  0  0  0  0  0
  141.0158   71.5332  226.7875 H   0  0  0  0  0  0  0  0  0  0  0  0
  139.5138   69.5354  226.8764 H   0  0  0  0  0  0  0  0  0  0  0  0
  138.4070   68.7858  224.7675 H   0  0  0  0  0  0  0  0  0  0  0  0
  141.2693   72.7250  219.9603 H   0  0  0  0  0  0  0  0  0  0  0  0
  141.5839   74.0065  218.6706 H   0  0  0  0  0  0  0  0  0  0  0  0
  143.0619   72.8664  221.8552 H   0  0  0  0  0  0  0  0  0  0  0  0
  145.4284   72.3745  222.1616 H   0  0  0  0  0  0  0  0  0  0  0  0
  147.0573   72.6211  220.2973 H   0  0  0  0  0  0  0  0  0  0  0  0
  146.6310   74.2660  217.4360 H   0  0  0  0  0  0  0  0  0  0  0  0
  143.7942   73.8844  217.7744 H   0  0  0  0  0  0  0  0  0  0  0  0
  1  2  2  0
  2  3  1  0
  3  4  2  0
  4  5  1  0
  5  6  2  0
  6  7  1  0
  6  8  1  0
  8  9  2  0
  9 10  1  0
 10 11  2  0
 11 12  1  0
 12 13  2  0
 13 14  1  0
 14 15  2  0
 15 16  1  0
 16 17  2  0
 17 18  1  0
 18 19  2  0
 11 20  1  0
 20 21  1  0
 21 22  1  0
 22 23  2  0
 23 24  1  0
 24 25  2  0
 25 26  1  0
 26 27  1  0
 26 28  2  0
 20  2  1  0
 28 22  1  0
  9  3  1  0
 19 14  1  0
  4 29  1  0
  5 30  1  0
  8 31  1  0
 12 32  1  0
 13 33  1  0
 15 34  1  0
 16 35  1  0
 17 36  1  0
 18 37  1  0
 21 38  1  0
 21 39  1  0
 23 40  1  0
 24 41  1  0
 25 42  1  0
 27 43  1  0
 28 44  1  0
M  END
>  <smiles>  (47) 
O=c1c2ccc(Cl)cc2nc(/C=C/c2ccccn2)n1Cc1cccc(O)c1

>  <score_type>  (47) 
oracle

>  <origin>  (47) 
autodockgpu

>  <m_score__min__energy>  (47) 
-8.2200000000000006

>  <m_primary>  (47) 
energy

>  <rmsd>  (47) 
7.593400951745411

>  <m_score__min__rmsd>  (47) 
7.593400951745411

>  <meeko>  (47) 
{"free_energy": -7.87, "intermolecular_energy": -9.66, "internal_energy": -1.03, "cluster_size": 18, "cluster_id": 1, "rank_in_cluster": 10}

>  <energy>  (47) 
-6.26

>  <cluster_rmsd>  (47) 
0.71

>  <cluster>  (47) 
9

$$$$

     RDKit          3D

 44 47  0  0  0  0  0  0  0  0999 V2000
  142.4440   76.4190  219.0730 O   0  0  0  0  0  0  0  0  0  0  0  0
  141.7590   76.1660  220.0960 C   0  0  0  0  0  0  0  0  0  0  0  0
  141.3950   77.2450  220.8770 C   0  0  0  0  0  0  0  0  0  0  0  0
  141.7800   78.5200  220.5300 C   0  0  0  0  0  0  0  0  0  0  0  0
  141.3900   79.5670  221.3460 C   0  0  0  0  0  0  0  0  0  0  0  0
  140.6390   79.2630  222.4610 C   0  0  0  0  0  0  0  0  0  0  0  0
  140.1210   80.5540  223.5300 Cl  0  0  0  0  0  0  0  0  0  0  0  0
  140.2610   77.9820  222.7990 C   0  0  0  0  0  0  0  0  0  0  0  0
  140.6540   76.9680  221.9820 C   0  0  0  0  0  0  0  0  0  0  0  0
  140.3200   75.7280  222.2600 N   0  0  0  0  0  0  0  0  0  0  0  0
  140.6630   74.6370  221.5060 C   0  0  0  0  0  0  0  0  0  0  0  0
  140.1490   73.3890  221.9760 C   0  0  0  0  0  0  0  0  0  0  0  0
  140.7170   72.2700  222.2970 C   0  0  0  0  0  0  0  0  0  0  0  0
  140.3060   71.5210  223.5100 C   0  0  0  0  0  0  0  0  0  0  0  0
  139.1410   70.7880  223.5230 C   0  0  0  0  0  0  0  0  0  0  0  0
  138.7590   70.0850  224.6680 C   0  0  0  0  0  0  0  0  0  0  0  0
  139.5560   70.1240  225.7980 C   0  0  0  0  0  0  0  0  0  0  0  0
  140.7170   70.8700  225.7460 C   0  0  0  0  0  0  0  0  0  0  0  0
  141.0450   71.5310  224.6210 N   0  0  0  0  0  0  0  0  0  0  0  0
  141.3900   74.8880  220.4210 N   0  0  0  0  0  0  0  0  0  0  0  0
  141.8870   73.8910  219.5010 C   0  0  0  0  0  0  0  0  0  0  0  0
  143.2970   73.5490  219.6380 C   0  0  0  0  0  0  0  0  0  0  0  0
  143.7220   73.0210  220.8750 C   0  0  0  0  0  0  0  0  0  0  0  0
  145.0210   72.6430  221.1090 C   0  0  0  0  0  0  0  0  0  0  0  0
  145.9980   72.7560  220.1450 C   0  0  0  0  0  0  0  0  0  0  0  0
  145.6080   73.2690  218.9290 C   0  0  0  0  0  0  0  0  0  0  0  0
  146.5650   73.3970  217.9320 O   0  0  0  0  0  0  0  0  0  0  0  0
  144.2820   73.6530  218.6940 C   0  0  0  0  0  0  0  0  0  0  0  0
  142.3820   78.7018  219.6275 H   0  0  0  0  0  0  0  0  0  0  0  0
  141.6694   80.6051  221.1132 H   0  0  0  0  0  0  0  0  0  0  0  0
  139.6611   77.7857  223.6999 H   0  0  0  0  0  0  0  0  0  0  0  0
  139.0547   73.3762  222.0871 H   0  0  0  0  0  0  0  0  0  0  0  0
  141.5180   71.8680  221.6592 H   0  0  0  0  0  0  0  0  0  0  0  0
  138.5062   70.7556  222.6252 H   0  0  0  0  0  0  0  0  0  0  0  0
  137.8264   69.5016  224.6711 H   0  0  0  0  0  0  0  0  0  0  0  0
  139.2737   69.5776  226.7100 H   0  0  0  0  0  0  0  0  0  0  0  0
  141.3748   70.9239  226.6260 H   0  0  0  0  0  0  0  0  0  0  0  0
  141.3008   72.9722  219.6499 H   0  0  0  0  0  0  0  0  0  0  0  0
  141.7821   74.3308  218.4982 H   0  0  0  0  0  0  0  0  0  0  0  0
  142.9844   72.9078  221.6832 H   0  0  0  0  0  0  0  0  0  0  0  0
  145.2893   72.2378  222.0958 H   0  0  0  0  0  0  0  0  0  0  0  0
  147.0374   72.4516  220.3372 H   0  0  0  0  0  0  0  0  0  0  0  0
  146.8080   74.2360  217.4600 H   0  0  0  0  0  0  0  0  0  0  0  0
  144.0202   74.0569  217.7049 H   0  0  0  0  0  0  0  0  0  0  0  0
  1  2  2  0
  2  3  1  0
  3  4  2  0
  4  5  1  0
  5  6  2  0
  6  7  1  0
  6  8  1  0
  8  9  2  0
  9 10  1  0
 10 11  2  0
 11 12  1  0
 12 13  2  0
 13 14  1  0
 14 15  2  0
 15 16  1  0
 16 17  2  0
 17 18  1  0
 18 19  2  0
 11 20  1  0
 20 21  1  0
 21 22  1  0
 22 23  2  0
 23 24  1  0
 24 25  2  0
 25 26  1  0
 26 27  1  0
 26 28  2  0
 20  2  1  0
 28 22  1  0
  9  3  1  0
 19 14  1  0
  4 29  1  0
  5 30  1  0
  8 31  1  0
 12 32  1  0
 13 33  1  0
 15 34  1  0
 16 35  1  0
 17 36  1  0
 18 37  1  0
 21 38  1  0
 21 39  1  0
 23 40  1  0
 24 41  1  0
 25 42  1  0
 27 43  1  0
 28 44  1  0
M  END
>  <smiles>  (48) 
O=c1c2ccc(Cl)cc2nc(/C=C/c2ccccn2)n1Cc1cccc(O)c1

>  <score_type>  (48) 
oracle

>  <origin>  (48) 
autodockgpu

>  <m_score__min__energy>  (48) 
-8.2200000000000006

>  <m_primary>  (48) 
energy

>  <rmsd>  (48) 
7.5876034696655035

>  <m_score__min__rmsd>  (48) 
7.5876034696655035

>  <meeko>  (48) 
{"free_energy": -7.86, "intermolecular_energy": -9.65, "internal_energy": -1.04, "cluster_size": 18, "cluster_id": 1, "rank_in_cluster": 11}

>  <energy>  (48) 
-6.24

>  <cluster_rmsd>  (48) 
0.7

>  <cluster>  (48) 
9

$$$$

     RDKit          3D

 44 47  0  0  0  0  0  0  0  0999 V2000
  139.8530   74.6020  221.6600 O   0  0  0  0  0  0  0  0  0  0  0  0
  140.6570   75.3570  221.0560 C   0  0  0  0  0  0  0  0  0  0  0  0
  141.9020   74.8320  220.7750 C   0  0  0  0  0  0  0  0  0  0  0  0
  142.2200   73.5470  221.1500 C   0  0  0  0  0  0  0  0  0  0  0  0
  143.4820   73.0690  220.8460 C   0  0  0  0  0  0  0  0  0  0  0  0
  144.3440   73.9150  220.1840 C   0  0  0  0  0  0  0  0  0  0  0  0
  145.9570   73.3580  219.7750 Cl  0  0  0  0  0  0  0  0  0  0  0  0
  144.0150   75.2010  219.8140 C   0  0  0  0  0  0  0  0  0  0  0  0
  142.7690   75.6510  220.1230 C   0  0  0  0  0  0  0  0  0  0  0  0
  142.4060   76.8690  219.7920 N   0  0  0  0  0  0  0  0  0  0  0  0
  141.1790   77.4190  220.0550 C   0  0  0  0  0  0  0  0  0  0  0  0
  140.9910   78.7460  219.5610 C   0  0  0  0  0  0  0  0  0  0  0  0
  141.5790   79.8710  219.8190 C   0  0  0  0  0  0  0  0  0  0  0  0
  141.8960   80.2700  221.2130 C   0  0  0  0  0  0  0  0  0  0  0  0
  141.5320   81.5090  221.6910 C   0  0  0  0  0  0  0  0  0  0  0  0
  141.8340   81.8780  223.0040 C   0  0  0  0  0  0  0  0  0  0  0  0
  142.5010   80.9940  223.8330 C   0  0  0  0  0  0  0  0  0  0  0  0
  142.8490   79.7610  223.3170 C   0  0  0  0  0  0  0  0  0  0  0  0
  142.5380   79.4480  222.0450 N   0  0  0  0  0  0  0  0  0  0  0  0
  140.3170   76.6330  220.6950 N   0  0  0  0  0  0  0  0  0  0  0  0
  138.9830   77.0130  221.0990 C   0  0  0  0  0  0  0  0  0  0  0  0
  138.8860   78.2200  221.9090 C   0  0  0  0  0  0  0  0  0  0  0  0
  139.6800   78.2900  223.0720 C   0  0  0  0  0  0  0  0  0  0  0  0
  139.6860   79.3880  223.8970 C   0  0  0  0  0  0  0  0  0  0  0  0
  138.9110   80.4970  223.6400 C   0  0  0  0  0  0  0  0  0  0  0  0
  138.1270   80.4530  222.5100 C   0  0  0  0  0  0  0  0  0  0  0  0
  137.3330   81.5530  222.2160 O   0  0  0  0  0  0  0  0  0  0  0  0
  138.1250   79.3320  221.6710 C   0  0  0  0  0  0  0  0  0  0  0  0
  141.4897   72.9161  221.6778 H   0  0  0  0  0  0  0  0  0  0  0  0
  143.7864   72.0490  221.1232 H   0  0  0  0  0  0  0  0  0  0  0  0
  144.7361   75.8425  219.2862 H   0  0  0  0  0  0  0  0  0  0  0  0
  140.1881   78.8290  218.8137 H   0  0  0  0  0  0  0  0  0  0  0  0
  141.8481   80.5425  218.9903 H   0  0  0  0  0  0  0  0  0  0  0  0
  140.9998   82.2130  221.0344 H   0  0  0  0  0  0  0  0  0  0  0  0
  141.5418   82.8702  223.3782 H   0  0  0  0  0  0  0  0  0  0  0  0
  142.7465   81.2646  224.8705 H   0  0  0  0  0  0  0  0  0  0  0  0
  143.3815   79.0331  223.9467 H   0  0  0  0  0  0  0  0  0  0  0  0
  138.3860   77.1687  220.1883 H   0  0  0  0  0  0  0  0  0  0  0  0
  138.6194   76.1944  221.7375 H   0  0  0  0  0  0  0  0  0  0  0  0
  140.3192   77.4323  223.3284 H   0  0  0  0  0  0  0  0  0  0  0  0
  140.3289   79.3814  224.7895 H   0  0  0  0  0  0  0  0  0  0  0  0
  138.9183   81.3736  224.3044 H   0  0  0  0  0  0  0  0  0  0  0  0
  136.3550   81.6240  222.3660 H   0  0  0  0  0  0  0  0  0  0  0  0
  137.4816   79.3459  220.7789 H   0  0  0  0  0  0  0  0  0  0  0  0
  1  2  2  0
  2  3  1  0
  3  4  2  0
  4  5  1  0
  5  6  2  0
  6  7  1  0
  6  8  1  0
  8  9  2  0
  9 10  1  0
 10 11  2  0
 11 12  1  0
 12 13  2  0
 13 14  1  0
 14 15  2  0
 15 16  1  0
 16 17  2  0
 17 18  1  0
 18 19  2  0
 11 20  1  0
 20 21  1  0
 21 22  1  0
 22 23  2  0
 23 24  1  0
 24 25  2  0
 25 26  1  0
 26 27  1  0
 26 28  2  0
 20  2  1  0
 28 22  1  0
  9  3  1  0
 19 14  1  0
  4 29  1  0
  5 30  1  0
  8 31  1  0
 12 32  1  0
 13 33  1  0
 15 34  1  0
 16 35  1  0
 17 36  1  0
 18 37  1  0
 21 38  1  0
 21 39  1  0
 23 40  1  0
 24 41  1  0
 25 42  1  0
 27 43  1  0
 28 44  1  0
M  END
>  <smiles>  (49) 
O=c1c2ccc(Cl)cc2nc(/C=C/c2ccccn2)n1Cc1cccc(O)c1

>  <score_type>  (49) 
oracle

>  <origin>  (49) 
autodockgpu

>  <m_score__min__energy>  (49) 
-8.2200000000000006

>  <m_primary>  (49) 
energy

>  <rmsd>  (49) 
4.241261003635798

>  <m_score__min__rmsd>  (49) 
4.241261003635798

>  <meeko>  (49) 
{"free_energy": -6.48, "intermolecular_energy": -8.27, "internal_energy": -1.94, "cluster_size": 10, "cluster_id": 9, "rank_in_cluster": 6}

>  <energy>  (49) 
-6.24

>  <cluster_rmsd>  (49) 
0.72

>  <cluster>  (49) 
9

$$$$

     RDKit          3D

 44 47  0  0  0  0  0  0  0  0999 V2000
  140.5300   74.5040  222.1290 O   0  0  0  0  0  0  0  0  0  0  0  0
  141.3270   74.9360  221.2580 C   0  0  0  0  0  0  0  0  0  0  0  0
  142.2500   74.0350  220.7660 C   0  0  0  0  0  0  0  0  0  0  0  0
  142.2750   72.7380  221.2260 C   0  0  0  0  0  0  0  0  0  0  0  0
  143.2210   71.8750  220.7010 C   0  0  0  0  0  0  0  0  0  0  0  0
  144.0820   72.3720  219.7480 C   0  0  0  0  0  0  0  0  0  0  0  0
  145.3000   71.3200  219.0520 Cl  0  0  0  0  0  0  0  0  0  0  0  0
  144.0480   73.6740  219.2960 C   0  0  0  0  0  0  0  0  0  0  0  0
  143.1100   74.5050  219.8250 C   0  0  0  0  0  0  0  0  0  0  0  0
  143.0370   75.7550  219.4280 N   0  0  0  0  0  0  0  0  0  0  0  0
  142.1330   76.6730  219.8950 C   0  0  0  0  0  0  0  0  0  0  0  0
  142.2080   77.9620  219.2840 C   0  0  0  0  0  0  0  0  0  0  0  0
  141.3090   78.7510  218.7840 C   0  0  0  0  0  0  0  0  0  0  0  0
  140.9030   79.9950  219.4850 C   0  0  0  0  0  0  0  0  0  0  0  0
  141.8270   80.9760  219.7670 C   0  0  0  0  0  0  0  0  0  0  0  0
  141.4390   82.1440  220.4270 C   0  0  0  0  0  0  0  0  0  0  0  0
  140.1180   82.3200  220.7990 C   0  0  0  0  0  0  0  0  0  0  0  0
  139.2220   81.3130  220.4970 C   0  0  0  0  0  0  0  0  0  0  0  0
  139.6410   80.2040  219.8610 N   0  0  0  0  0  0  0  0  0  0  0  0
  141.2830   76.2310  220.8180 N   0  0  0  0  0  0  0  0  0  0  0  0
  140.2700   77.0290  221.4690 C   0  0  0  0  0  0  0  0  0  0  0  0
  140.7540   78.1800  222.2200 C   0  0  0  0  0  0  0  0  0  0  0  0
  139.8210   78.8780  223.0160 C   0  0  0  0  0  0  0  0  0  0  0  0
  140.1710   79.9620  223.7830 C   0  0  0  0  0  0  0  0  0  0  0  0
  141.4620   80.4400  223.8240 C   0  0  0  0  0  0  0  0  0  0  0  0
  142.3910   79.7750  223.0570 C   0  0  0  0  0  0  0  0  0  0  0  0
  143.7030   80.2270  223.0730 O   0  0  0  0  0  0  0  0  0  0  0  0
  142.0300   78.6690  222.2760 C   0  0  0  0  0  0  0  0  0  0  0  0
  141.5619   72.3964  221.9907 H   0  0  0  0  0  0  0  0  0  0  0  0
  143.2830   70.8283  221.0334 H   0  0  0  0  0  0  0  0  0  0  0  0
  144.7561   74.0291  218.5328 H   0  0  0  0  0  0  0  0  0  0  0  0
  143.2301   78.3645  219.2264 H   0  0  0  0  0  0  0  0  0  0  0  0
  140.8387   78.4941  217.8233 H   0  0  0  0  0  0  0  0  0  0  0  0
  142.8774   80.8389  219.4706 H   0  0  0  0  0  0  0  0  0  0  0  0
  142.1826   82.9230  220.6508 H   0  0  0  0  0  0  0  0  0  0  0  0
  139.7916   83.2329  221.3187 H   0  0  0  0  0  0  0  0  0  0  0  0
  138.1635   81.4181  220.7772 H   0  0  0  0  0  0  0  0  0  0  0  0
  139.5811   77.3970  220.6944 H   0  0  0  0  0  0  0  0  0  0  0  0
  139.7984   76.3663  222.2096 H   0  0  0  0  0  0  0  0  0  0  0  0
  138.7739   78.5411  223.0224 H   0  0  0  0  0  0  0  0  0  0  0  0
  139.3971   80.4635  224.3826 H   0  0  0  0  0  0  0  0  0  0  0  0
  141.7367   81.3097  224.4390 H   0  0  0  0  0  0  0  0  0  0  0  0
  144.4050   80.0080  222.4070 H   0  0  0  0  0  0  0  0  0  0  0  0
  142.8091   78.1709  221.6803 H   0  0  0  0  0  0  0  0  0  0  0  0
  1  2  2  0
  2  3  1  0
  3  4  2  0
  4  5  1  0
  5  6  2  0
  6  7  1  0
  6  8  1  0
  8  9  2  0
  9 10  1  0
 10 11  2  0
 11 12  1  0
 12 13  2  0
 13 14  1  0
 14 15  2  0
 15 16  1  0
 16 17  2  0
 17 18  1  0
 18 19  2  0
 11 20  1  0
 20 21  1  0
 21 22  1  0
 22 23  2  0
 23 24  1  0
 24 25  2  0
 25 26  1  0
 26 27  1  0
 26 28  2  0
 20  2  1  0
 28 22  1  0
  9  3  1  0
 19 14  1  0
  4 29  1  0
  5 30  1  0
  8 31  1  0
 12 32  1  0
 13 33  1  0
 15 34  1  0
 16 35  1  0
 17 36  1  0
 18 37  1  0
 21 38  1  0
 21 39  1  0
 23 40  1  0
 24 41  1  0
 25 42  1  0
 27 43  1  0
 28 44  1  0
M  END
>  <smiles>  (50) 
O=c1c2ccc(Cl)cc2nc(/C=C/c2ccccn2)n1Cc1cccc(O)c1

>  <score_type>  (50) 
oracle

>  <origin>  (50) 
autodockgpu

>  <m_score__min__energy>  (50) 
-8.2200000000000006

>  <m_primary>  (50) 
energy

>  <rmsd>  (50) 
4.308682177314689

>  <m_score__min__rmsd>  (50) 
4.308682177314689

>  <meeko>  (50) 
{"free_energy": -6.73, "intermolecular_energy": -8.52, "internal_energy": -1.64, "cluster_size": 7, "cluster_id": 6, "rank_in_cluster": 2}

>  <energy>  (50) 
-6.2

>  <cluster_rmsd>  (50) 
0.71

>  <cluster>  (50) 
9

$$$$
