
     RDKit          3D

 48 51  0  0  0  0  0  0  0  0999 V2000
  139.9980   72.0460  220.6950 O   0  0  0  0  0  0  0  0  0  0  0  0
  139.9020   72.4560  221.8910 C   0  0  0  0  0  0  0  0  0  0  0  0
  139.7210   73.8520  222.1190 N   0  0  0  0  0  0  0  0  0  0  0  0
  139.6530   74.7230  220.9920 C   0  0  0  0  0  0  0  0  0  0  0  0
  140.6980   75.8090  221.0650 C   0  0  0  0  0  0  0  0  0  0  0  0
  140.9770   76.2040  222.2250 O   0  0  0  0  0  0  0  0  0  0  0  0
  141.2890   76.3100  219.8860 N   0  0  0  0  0  0  0  0  0  0  0  0
  140.9640   77.6010  219.2650 C   0  0  0  0  0  0  0  0  0  0  0  0
  142.0330   77.8240  218.2210 C   0  0  2  0  0  0  0  0  0  0  0  0
  141.5480   77.4330  216.9670 F   0  0  0  0  0  0  0  0  0  0  0  0
  143.1140   76.8360  218.6030 C   0  0  0  0  0  0  0  0  0  0  0  0
  142.2790   75.6720  219.1090 C   0  0  1  0  0  0  0  0  0  0  0  0
  143.1080   74.6570  219.7390 C   0  0  0  0  0  0  0  0  0  0  0  0
  144.4380   74.9150  220.1050 C   0  0  0  0  0  0  0  0  0  0  0  0
  145.2130   73.9620  220.6960 C   0  0  0  0  0  0  0  0  0  0  0  0
  144.7340   72.6980  220.9650 C   0  0  0  0  0  0  0  0  0  0  0  0
  143.4180   72.4110  220.6120 C   0  0  0  0  0  0  0  0  0  0  0  0
  142.6490   73.3940  220.0130 C   0  0  0  0  0  0  0  0  0  0  0  0
  139.9740   71.5480  223.0320 C   0  0  0  0  0  0  0  0  0  0  0  0
  139.5130   70.2570  222.8570 C   0  0  0  0  0  0  0  0  0  0  0  0
  139.5350   69.3140  223.8730 C   0  0  0  0  0  0  0  0  0  0  0  0
  140.0490   69.7350  225.0950 C   0  0  0  0  0  0  0  0  0  0  0  0
  140.0960   68.8360  226.1510 C   0  0  0  0  0  0  0  0  0  0  0  0
  140.6170   69.2870  227.3600 C   0  0  0  0  0  0  0  0  0  0  0  0
  140.7040   68.2040  228.7280 Cl  0  0  0  0  0  0  0  0  0  0  0  0
  141.0750   70.5900  227.5170 C   0  0  0  0  0  0  0  0  0  0  0  0
  141.0270   71.4850  226.4630 C   0  0  0  0  0  0  0  0  0  0  0  0
  140.5060   71.0310  225.2520 C   0  0  0  0  0  0  0  0  0  0  0  0
  140.4670   71.9270  224.2280 N   0  0  0  0  0  0  0  0  0  0  0  0
  139.6400   74.2140  223.0960 H   0  0  0  0  0  0  0  0  0  0  0  0
  139.8128   74.1349  220.0763 H   0  0  0  0  0  0  0  0  0  0  0  0
  138.6616   75.1996  220.9850 H   0  0  0  0  0  0  0  0  0  0  0  0
  139.9698   77.5630  218.7959 H   0  0  0  0  0  0  0  0  0  0  0  0
  140.9374   78.4154  220.0039 H   0  0  0  0  0  0  0  0  0  0  0  0
  142.3629   78.8723  218.1745 H   0  0  0  0  0  0  0  0  0  0  0  0
  143.7233   76.5480  217.7336 H   0  0  0  0  0  0  0  0  0  0  0  0
  143.8427   77.2211  219.3315 H   0  0  0  0  0  0  0  0  0  0  0  0
  141.7857   75.0581  218.3410 H   0  0  0  0  0  0  0  0  0  0  0  0
  144.8652   75.9098  219.9104 H   0  0  0  0  0  0  0  0  0  0  0  0
  146.2504   74.2089  220.9660 H   0  0  0  0  0  0  0  0  0  0  0  0
  145.3713   71.9398  221.4435 H   0  0  0  0  0  0  0  0  0  0  0  0
  142.9943   71.4147  220.8068 H   0  0  0  0  0  0  0  0  0  0  0  0
  141.6117   73.1483  219.7416 H   0  0  0  0  0  0  0  0  0  0  0  0
  139.1134   69.9666  221.8742 H   0  0  0  0  0  0  0  0  0  0  0  0
  139.1661   68.2889  223.7211 H   0  0  0  0  0  0  0  0  0  0  0  0
  139.7343   67.8035  226.0365 H   0  0  0  0  0  0  0  0  0  0  0  0
  141.4792   70.9124  228.4879 H   0  0  0  0  0  0  0  0  0  0  0  0
  141.3871   72.5182  226.5764 H   0  0  0  0  0  0  0  0  0  0  0  0
  1  2  2  0
  2  3  1  0
  3  4  1  0
  4  5  1  0
  5  6  2  0
  5  7  1  0
  7  8  1  0
  8  9  1  0
  9 10  1  0
  9 11  1  0
 11 12  1  0
 12 13  1  0
 13 14  2  0
 14 15  1  0
 15 16  2  0
 16 17  1  0
 17 18  2  0
  2 19  1  0
 19 20  2  0
 20 21  1  0
 21 22  2  0
 22 23  1  0
 23 24  2  0
 24 25  1  0
 24 26  1  0
 26 27  2  0
 27 28  1  0
 28 29  2  0
 12  7  1  0
 18 13  1  0
 29 19  1  0
 28 22  1  0
  3 30  1  0
  4 31  1  0
  4 32  1  0
  8 33  1  0
  8 34  1  0
  9 35  1  6
 11 36  1  0
 11 37  1  0
 12 38  1  6
 14 39  1  0
 15 40  1  0
 16 41  1  0
 17 42  1  0
 18 43  1  0
 20 44  1  0
 21 45  1  0
 23 46  1  0
 26 47  1  0
 27 48  1  0
M  END
>  <smiles>  (1) 
O=C(NCC(=O)N1C[C@H](F)C[C@H]1c1ccccc1)c1ccc2cc(Cl)ccc2n1

>  <score_type>  (1) 
oracle

>  <origin>  (1) 
autodockgpu

>  <m_score__min__energy>  (1) 
-8.6999999999999993

>  <m_primary>  (1) 
energy

>  <rmsd>  (1) 
2.077187854788693

>  <m_score__min__rmsd>  (1) 
2.077187854788693

>  <meeko>  (1) 
{"free_energy": -8.21, "intermolecular_energy": -9.7, "internal_energy": -2.03, "cluster_size": 20, "cluster_id": 4, "rank_in_cluster": 12}

>  <energy>  (1) 
-8.7

>  <cluster_rmsd>  (1) 
0.0

>  <cluster>  (1) 
1

$$$$

     RDKit          3D

 48 51  0  0  0  0  0  0  0  0999 V2000
  139.4570   72.1420  220.8710 O   0  0  0  0  0  0  0  0  0  0  0  0
  139.5580   72.5290  222.0740 C   0  0  0  0  0  0  0  0  0  0  0  0
  139.4850   73.9270  222.3460 N   0  0  0  0  0  0  0  0  0  0  0  0
  139.3010   74.8250  221.2530 C   0  0  0  0  0  0  0  0  0  0  0  0
  139.7030   76.2330  221.6180 C   0  0  0  0  0  0  0  0  0  0  0  0
  140.9410   76.4520  221.6200 O   0  0  0  0  0  0  0  0  0  0  0  0
  138.7200   77.1990  221.9240 N   0  0  0  0  0  0  0  0  0  0  0  0
  137.3010   76.9060  222.1650 C   0  0  0  0  0  0  0  0  0  0  0  0
  136.7190   78.1810  222.7280 C   0  0  2  0  0  0  0  0  0  0  0  0
  136.0940   78.9010  221.7030 F   0  0  0  0  0  0  0  0  0  0  0  0
  137.9400   78.9750  223.1420 C   0  0  0  0  0  0  0  0  0  0  0  0
  138.9230   78.5890  222.0500 C   0  0  1  0  0  0  0  0  0  0  0  0
  140.2620   79.0710  222.3460 C   0  0  0  0  0  0  0  0  0  0  0  0
  140.8670   78.8490  223.5930 C   0  0  0  0  0  0  0  0  0  0  0  0
  142.1220   79.3010  223.8680 C   0  0  0  0  0  0  0  0  0  0  0  0
  142.8650   79.9990  222.9390 C   0  0  0  0  0  0  0  0  0  0  0  0
  142.2920   80.2350  221.6920 C   0  0  0  0  0  0  0  0  0  0  0  0
  141.0150   79.7660  221.4350 C   0  0  0  0  0  0  0  0  0  0  0  0
  139.7460   71.5940  223.1780 C   0  0  0  0  0  0  0  0  0  0  0  0
  139.3890   70.2750  222.9730 C   0  0  0  0  0  0  0  0  0  0  0  0
  139.5250   69.3050  223.9540 C   0  0  0  0  0  0  0  0  0  0  0  0
  140.0460   69.7270  225.1730 C   0  0  0  0  0  0  0  0  0  0  0  0
  140.2060   68.8010  226.1930 C   0  0  0  0  0  0  0  0  0  0  0  0
  140.7300   69.2550  227.4000 C   0  0  0  0  0  0  0  0  0  0  0  0
  140.9560   68.1390  228.7250 Cl  0  0  0  0  0  0  0  0  0  0  0  0
  141.0840   70.5860  227.5880 C   0  0  0  0  0  0  0  0  0  0  0  0
  140.9230   71.5080  226.5680 C   0  0  0  0  0  0  0  0  0  0  0  0
  140.3990   71.0520  225.3600 C   0  0  0  0  0  0  0  0  0  0  0  0
  140.2480   71.9740  224.3700 N   0  0  0  0  0  0  0  0  0  0  0  0
  139.5670   74.2710  223.3300 H   0  0  0  0  0  0  0  0  0  0  0  0
  139.9152   74.4866  220.4055 H   0  0  0  0  0  0  0  0  0  0  0  0
  138.2336   74.8296  220.9871 H   0  0  0  0  0  0  0  0  0  0  0  0
  136.7985   76.6359  221.2245 H   0  0  0  0  0  0  0  0  0  0  0  0
  137.1692   76.0573  222.8523 H   0  0  0  0  0  0  0  0  0  0  0  0
  135.9957   77.9922  223.5350 H   0  0  0  0  0  0  0  0  0  0  0  0
  137.7382   80.0563  223.1397 H   0  0  0  0  0  0  0  0  0  0  0  0
  138.2919   78.7650  224.1628 H   0  0  0  0  0  0  0  0  0  0  0  0
  138.7696   79.0603  221.0680 H   0  0  0  0  0  0  0  0  0  0  0  0
  140.3141   78.2965  224.3670 H   0  0  0  0  0  0  0  0  0  0  0  0
  142.5555   79.1037  224.8595 H   0  0  0  0  0  0  0  0  0  0  0  0
  143.8776   80.3577  223.1755 H   0  0  0  0  0  0  0  0  0  0  0  0
  142.8476   80.7877  220.9201 H   0  0  0  0  0  0  0  0  0  0  0  0
  140.5799   79.9620  220.4439 H   0  0  0  0  0  0  0  0  0  0  0  0
  138.9813   69.9835  221.9938 H   0  0  0  0  0  0  0  0  0  0  0  0
  139.2365   68.2582  223.7781 H   0  0  0  0  0  0  0  0  0  0  0  0
  139.9288   67.7457  226.0532 H   0  0  0  0  0  0  0  0  0  0  0  0
  141.4956   70.9094  228.5555 H   0  0  0  0  0  0  0  0  0  0  0  0
  141.1991   72.5638  226.7063 H   0  0  0  0  0  0  0  0  0  0  0  0
  1  2  2  0
  2  3  1  0
  3  4  1  0
  4  5  1  0
  5  6  2  0
  5  7  1  0
  7  8  1  0
  8  9  1  0
  9 10  1  0
  9 11  1  0
 11 12  1  0
 12 13  1  0
 13 14  2  0
 14 15  1  0
 15 16  2  0
 16 17  1  0
 17 18  2  0
  2 19  1  0
 19 20  2  0
 20 21  1  0
 21 22  2  0
 22 23  1  0
 23 24  2  0
 24 25  1  0
 24 26  1  0
 26 27  2  0
 27 28  1  0
 28 29  2  0
 12  7  1  0
 18 13  1  0
 29 19  1  0
 28 22  1  0
  3 30  1  0
  4 31  1  0
  4 32  1  0
  8 33  1  0
  8 34  1  0
  9 35  1  1
 11 36  1  0
 11 37  1  0
 12 38  1  6
 14 39  1  0
 15 40  1  0
 16 41  1  0
 17 42  1  0
 18 43  1  0
 20 44  1  0
 21 45  1  0
 23 46  1  0
 26 47  1  0
 27 48  1  0
M  END
>  <smiles>  (2) 
O=C(NCC(=O)N1C[C@H](F)C[C@H]1c1ccccc1)c1ccc2cc(Cl)ccc2n1

>  <score_type>  (2) 
oracle

>  <origin>  (2) 
autodockgpu

>  <m_score__min__energy>  (2) 
-8.6999999999999993

>  <m_primary>  (2) 
energy

>  <rmsd>  (2) 
3.1968759887994893

>  <m_score__min__rmsd>  (2) 
3.1968759887994893

>  <meeko>  (2) 
{"free_energy": -8.46, "intermolecular_energy": -9.95, "internal_energy": -1.34, "cluster_size": 1, "cluster_id": 3, "rank_in_cluster": 1}

>  <energy>  (2) 
-8.64

>  <cluster_rmsd>  (2) 
0.21

>  <cluster>  (2) 
1

$$$$

     RDKit          3D

 48 51  0  0  0  0  0  0  0  0999 V2000
  140.1310   72.5250  220.8400 O   0  0  0  0  0  0  0  0  0  0  0  0
  139.9380   72.8670  222.0460 C   0  0  0  0  0  0  0  0  0  0  0  0
  139.6450   74.2350  222.3260 N   0  0  0  0  0  0  0  0  0  0  0  0
  139.5820   75.1540  221.2380 C   0  0  0  0  0  0  0  0  0  0  0  0
  140.3990   76.3930  221.5090 C   0  0  0  0  0  0  0  0  0  0  0  0
  140.4070   76.7770  222.7070 O   0  0  0  0  0  0  0  0  0  0  0  0
  141.0870   77.0380  220.4590 N   0  0  0  0  0  0  0  0  0  0  0  0
  141.1020   76.5850  219.0620 C   0  0  0  0  0  0  0  0  0  0  0  0
  141.7090   77.7260  218.2790 C   0  0  2  0  0  0  0  0  0  0  0  0
  143.0700   77.4730  218.0680 F   0  0  0  0  0  0  0  0  0  0  0  0
  141.6220   78.8980  219.2330 C   0  0  0  0  0  0  0  0  0  0  0  0
  141.8680   78.2080  220.5640 C   0  0  1  0  0  0  0  0  0  0  0  0
  141.6240   79.1070  221.6810 C   0  0  0  0  0  0  0  0  0  0  0  0
  140.4130   79.8020  221.8170 C   0  0  0  0  0  0  0  0  0  0  0  0
  140.1870   80.6430  222.8650 C   0  0  0  0  0  0  0  0  0  0  0  0
  141.1330   80.8570  223.8450 C   0  0  0  0  0  0  0  0  0  0  0  0
  142.3460   80.1820  223.7370 C   0  0  0  0  0  0  0  0  0  0  0  0
  142.5540   79.3310  222.6650 C   0  0  0  0  0  0  0  0  0  0  0  0
  140.0080   71.9100  223.1460 C   0  0  0  0  0  0  0  0  0  0  0  0
  139.5570   70.6250  222.9100 C   0  0  0  0  0  0  0  0  0  0  0  0
  139.5780   69.6380  223.8840 C   0  0  0  0  0  0  0  0  0  0  0  0
  140.0800   70.0080  225.1270 C   0  0  0  0  0  0  0  0  0  0  0  0
  140.1260   69.0630  226.1420 C   0  0  0  0  0  0  0  0  0  0  0  0
  140.6340   69.4630  227.3740 C   0  0  0  0  0  0  0  0  0  0  0  0
  140.7180   68.3220  228.6930 Cl  0  0  0  0  0  0  0  0  0  0  0  0
  141.0820   70.7610  227.5930 C   0  0  0  0  0  0  0  0  0  0  0  0
  141.0350   71.7020  226.5780 C   0  0  0  0  0  0  0  0  0  0  0  0
  140.5260   71.2990  225.3440 C   0  0  0  0  0  0  0  0  0  0  0  0
  140.4890   72.2380  224.3610 N   0  0  0  0  0  0  0  0  0  0  0  0
  139.4830   74.5400  223.3120 H   0  0  0  0  0  0  0  0  0  0  0  0
  139.9684   74.6626  220.3329 H   0  0  0  0  0  0  0  0  0  0  0  0
  138.5330   75.4564  221.1036 H   0  0  0  0  0  0  0  0  0  0  0  0
  141.7147   75.6774  218.9579 H   0  0  0  0  0  0  0  0  0  0  0  0
  140.0938   76.3316  218.7023 H   0  0  0  0  0  0  0  0  0  0  0  0
  141.2113   77.8827  217.3106 H   0  0  0  0  0  0  0  0  0  0  0  0
  142.3950   79.6509  219.0194 H   0  0  0  0  0  0  0  0  0  0  0  0
  140.6757   79.4563  219.1800 H   0  0  0  0  0  0  0  0  0  0  0  0
  142.9082   77.9220  220.7789 H   0  0  0  0  0  0  0  0  0  0  0  0
  139.6272   79.6648  221.0596 H   0  0  0  0  0  0  0  0  0  0  0  0
  139.2218   81.1664  222.9311 H   0  0  0  0  0  0  0  0  0  0  0  0
  140.9357   81.5391  224.6852 H   0  0  0  0  0  0  0  0  0  0  0  0
  143.1304   80.3233  224.4951 H   0  0  0  0  0  0  0  0  0  0  0  0
  143.5180   78.8054  222.5983 H   0  0  0  0  0  0  0  0  0  0  0  0
  139.1668   70.3758  221.9122 H   0  0  0  0  0  0  0  0  0  0  0  0
  139.2173   68.6182  223.6843 H   0  0  0  0  0  0  0  0  0  0  0  0
  139.7733   68.0340  225.9784 H   0  0  0  0  0  0  0  0  0  0  0  0
  141.4769   71.0426  228.5803 H   0  0  0  0  0  0  0  0  0  0  0  0
  141.3870   72.7316  226.7397 H   0  0  0  0  0  0  0  0  0  0  0  0
  1  2  2  0
  2  3  1  0
  3  4  1  0
  4  5  1  0
  5  6  2  0
  5  7  1  0
  7  8  1  0
  8  9  1  0
  9 10  1  0
  9 11  1  0
 11 12  1  0
 12 13  1  0
 13 14  2  0
 14 15  1  0
 15 16  2  0
 16 17  1  0
 17 18  2  0
  2 19  1  0
 19 20  2  0
 20 21  1  0
 21 22  2  0
 22 23  1  0
 23 24  2  0
 24 25  1  0
 24 26  1  0
 26 27  2  0
 27 28  1  0
 28 29  2  0
 12  7  1  0
 18 13  1  0
 29 19  1  0
 28 22  1  0
  3 30  1  0
  4 31  1  0
  4 32  1  0
  8 33  1  0
  8 34  1  0
  9 35  1  6
 11 36  1  0
 11 37  1  0
 12 38  1  6
 14 39  1  0
 15 40  1  0
 16 41  1  0
 17 42  1  0
 18 43  1  0
 20 44  1  0
 21 45  1  0
 23 46  1  0
 26 47  1  0
 27 48  1  0
M  END
>  <smiles>  (3) 
O=C(NCC(=O)N1C[C@H](F)C[C@H]1c1ccccc1)c1ccc2cc(Cl)ccc2n1

>  <score_type>  (3) 
oracle

>  <origin>  (3) 
autodockgpu

>  <m_score__min__energy>  (3) 
-8.6999999999999993

>  <m_primary>  (3) 
energy

>  <rmsd>  (3) 
1.8166977092914969

>  <m_score__min__rmsd>  (3) 
1.8166977092914969

>  <meeko>  (3) 
{"free_energy": -8.63, "intermolecular_energy": -10.12, "internal_energy": -1.56, "cluster_size": 15, "cluster_id": 1, "rank_in_cluster": 3}

>  <energy>  (3) 
-8.63

>  <cluster_rmsd>  (3) 
0.22

>  <cluster>  (3) 
1

$$$$

     RDKit          3D

 48 51  0  0  0  0  0  0  0  0999 V2000
  138.7020   72.9020  221.1360 O   0  0  0  0  0  0  0  0  0  0  0  0
  139.7220   72.8330  221.8860 C   0  0  0  0  0  0  0  0  0  0  0  0
  140.8320   73.6840  221.6010 N   0  0  0  0  0  0  0  0  0  0  0  0
  140.7430   74.5710  220.4890 C   0  0  0  0  0  0  0  0  0  0  0  0
  142.0510   75.2790  220.2370 C   0  0  0  0  0  0  0  0  0  0  0  0
  143.0370   74.8210  220.8690 O   0  0  0  0  0  0  0  0  0  0  0  0
  142.1110   76.3720  219.3450 N   0  0  0  0  0  0  0  0  0  0  0  0
  142.2050   76.2590  217.8840 C   0  0  0  0  0  0  0  0  0  0  0  0
  141.9500   77.6530  217.3590 C   0  0  2  0  0  0  0  0  0  0  0  0
  143.1730   78.2820  217.0950 F   0  0  0  0  0  0  0  0  0  0  0  0
  141.3330   78.3700  218.5400 C   0  0  0  0  0  0  0  0  0  0  0  0
  142.0920   77.7390  219.6940 C   0  0  1  0  0  0  0  0  0  0  0  0
  141.5230   78.1200  220.9770 C   0  0  0  0  0  0  0  0  0  0  0  0
  142.1780   79.0150  221.8360 C   0  0  0  0  0  0  0  0  0  0  0  0
  141.6420   79.3700  223.0380 C   0  0  0  0  0  0  0  0  0  0  0  0
  140.4330   78.8720  223.4730 C   0  0  0  0  0  0  0  0  0  0  0  0
  139.7590   77.9810  222.6420 C   0  0  0  0  0  0  0  0  0  0  0  0
  140.3220   77.6340  221.4250 C   0  0  0  0  0  0  0  0  0  0  0  0
  139.7940   71.9180  223.0190 C   0  0  0  0  0  0  0  0  0  0  0  0
  139.2540   70.6550  222.8620 C   0  0  0  0  0  0  0  0  0  0  0  0
  139.2680   69.7070  223.8740 C   0  0  0  0  0  0  0  0  0  0  0  0
  139.8590   70.0930  225.0730 C   0  0  0  0  0  0  0  0  0  0  0  0
  139.9030   69.1870  226.1230 C   0  0  0  0  0  0  0  0  0  0  0  0
  140.5010   69.6020  227.3090 C   0  0  0  0  0  0  0  0  0  0  0  0
  140.5880   68.5100  228.6680 Cl  0  0  0  0  0  0  0  0  0  0  0  0
  141.0380   70.8770  227.4490 C   0  0  0  0  0  0  0  0  0  0  0  0
  140.9920   71.7790  226.4000 C   0  0  0  0  0  0  0  0  0  0  0  0
  140.3940   71.3610  225.2120 C   0  0  0  0  0  0  0  0  0  0  0  0
  140.3590   72.2620  224.1930 N   0  0  0  0  0  0  0  0  0  0  0  0
  141.6840   73.6450  222.2050 H   0  0  0  0  0  0  0  0  0  0  0  0
  140.4711   73.9938  219.5929 H   0  0  0  0  0  0  0  0  0  0  0  0
  139.9791   75.3297  220.7145 H   0  0  0  0  0  0  0  0  0  0  0  0
  143.2063   75.9130  217.5880 H   0  0  0  0  0  0  0  0  0  0  0  0
  141.4849   75.5312  217.4818 H   0  0  0  0  0  0  0  0  0  0  0  0
  141.3344   77.6524  216.4474 H   0  0  0  0  0  0  0  0  0  0  0  0
  141.5059   79.4551  218.4886 H   0  0  0  0  0  0  0  0  0  0  0  0
  140.2397   78.2703  218.6091 H   0  0  0  0  0  0  0  0  0  0  0  0
  143.1266   78.0824  219.8415 H   0  0  0  0  0  0  0  0  0  0  0  0
  143.1462   79.4400  221.5327 H   0  0  0  0  0  0  0  0  0  0  0  0
  142.1908   80.0749  223.6798 H   0  0  0  0  0  0  0  0  0  0  0  0
  140.0138   79.1689  224.4457 H   0  0  0  0  0  0  0  0  0  0  0  0
  138.7910   77.5577  222.9483 H   0  0  0  0  0  0  0  0  0  0  0  0
  139.7748   76.9290  220.7820 H   0  0  0  0  0  0  0  0  0  0  0  0
  138.7956   70.3920  221.8973 H   0  0  0  0  0  0  0  0  0  0  0  0
  138.8357   68.7049  223.7364 H   0  0  0  0  0  0  0  0  0  0  0  0
  139.4802   68.1766  226.0215 H   0  0  0  0  0  0  0  0  0  0  0  0
  141.5032   71.1713  228.4013 H   0  0  0  0  0  0  0  0  0  0  0  0
  141.4127   72.7904  226.5002 H   0  0  0  0  0  0  0  0  0  0  0  0
  1  2  2  0
  2  3  1  0
  3  4  1  0
  4  5  1  0
  5  6  2  0
  5  7  1  0
  7  8  1  0
  8  9  1  0
  9 10  1  0
  9 11  1  0
 11 12  1  0
 12 13  1  0
 13 14  2  0
 14 15  1  0
 15 16  2  0
 16 17  1  0
 17 18  2  0
  2 19  1  0
 19 20  2  0
 20 21  1  0
 21 22  2  0
 22 23  1  0
 23 24  2  0
 24 25  1  0
 24 26  1  0
 26 27  2  0
 27 28  1  0
 28 29  2  0
 12  7  1  0
 18 13  1  0
 29 19  1  0
 28 22  1  0
  3 30  1  0
  4 31  1  0
  4 32  1  0
  8 33  1  0
  8 34  1  0
  9 35  1  6
 11 36  1  0
 11 37  1  0
 12 38  1  1
 14 39  1  0
 15 40  1  0
 16 41  1  0
 17 42  1  0
 18 43  1  0
 20 44  1  0
 21 45  1  0
 23 46  1  0
 26 47  1  0
 27 48  1  0
M  END
>  <smiles>  (4) 
O=C(NCC(=O)N1C[C@H](F)C[C@H]1c1ccccc1)c1ccc2cc(Cl)ccc2n1

>  <score_type>  (4) 
oracle

>  <origin>  (4) 
autodockgpu

>  <m_score__min__energy>  (4) 
-8.6999999999999993

>  <m_primary>  (4) 
energy

>  <rmsd>  (4) 
2.0671391098263054

>  <m_score__min__rmsd>  (4) 
2.0671391098263054

>  <meeko>  (4) 
{"free_energy": -7.38, "intermolecular_energy": -8.87, "internal_energy": -1.87, "cluster_size": 15, "cluster_id": 1, "rank_in_cluster": 15}

>  <energy>  (4) 
-8.6

>  <cluster_rmsd>  (4) 
0.23

>  <cluster>  (4) 
1

$$$$

     RDKit          3D

 48 51  0  0  0  0  0  0  0  0999 V2000
  134.2860   69.2840  226.0250 O   0  0  0  0  0  0  0  0  0  0  0  0
  134.5400   70.4610  225.6260 C   0  0  0  0  0  0  0  0  0  0  0  0
  135.5370   70.6370  224.6200 N   0  0  0  0  0  0  0  0  0  0  0  0
  136.2010   69.4830  224.1100 C   0  0  0  0  0  0  0  0  0  0  0  0
  137.5910   69.3440  224.6790 C   0  0  0  0  0  0  0  0  0  0  0  0
  137.7110   68.4900  225.5950 O   0  0  0  0  0  0  0  0  0  0  0  0
  138.6470   70.1380  224.1840 N   0  0  0  0  0  0  0  0  0  0  0  0
  138.5150   71.1450  223.1230 C   0  0  0  0  0  0  0  0  0  0  0  0
  139.8130   71.9180  223.1420 C   0  0  2  0  0  0  0  0  0  0  0  0
  140.6690   71.4170  222.1540 F   0  0  0  0  0  0  0  0  0  0  0  0
  140.4230   71.5550  224.4790 C   0  0  0  0  0  0  0  0  0  0  0  0
  139.9920   70.1040  224.6110 C   0  0  1  0  0  0  0  0  0  0  0  0
  140.2850   69.5810  225.9360 C   0  0  0  0  0  0  0  0  0  0  0  0
  140.0970   70.3530  227.0920 C   0  0  0  0  0  0  0  0  0  0  0  0
  140.3730   69.8600  228.3320 C   0  0  0  0  0  0  0  0  0  0  0  0
  140.8500   68.5800  228.5170 C   0  0  0  0  0  0  0  0  0  0  0  0
  141.0480   67.7890  227.3890 C   0  0  0  0  0  0  0  0  0  0  0  0
  140.7610   68.3110  226.1390 C   0  0  0  0  0  0  0  0  0  0  0  0
  133.8500   71.6300  226.1610 C   0  0  0  0  0  0  0  0  0  0  0  0
  132.7170   71.4140  226.9230 C   0  0  0  0  0  0  0  0  0  0  0  0
  131.9850   72.4530  227.4790 C   0  0  0  0  0  0  0  0  0  0  0  0
  132.4510   73.7400  227.2300 C   0  0  0  0  0  0  0  0  0  0  0  0
  131.7600   74.8200  227.7600 C   0  0  0  0  0  0  0  0  0  0  0  0
  132.2520   76.0940  227.4940 C   0  0  0  0  0  0  0  0  0  0  0  0
  131.4270   77.4950  228.1320 Cl  0  0  0  0  0  0  0  0  0  0  0  0
  133.3930   76.2910  226.7240 C   0  0  0  0  0  0  0  0  0  0  0  0
  134.0800   75.2110  226.1960 C   0  0  0  0  0  0  0  0  0  0  0  0
  133.5870   73.9350  226.4650 C   0  0  0  0  0  0  0  0  0  0  0  0
  134.2770   72.8880  225.9370 N   0  0  0  0  0  0  0  0  0  0  0  0
  135.7640   71.5970  224.2760 H   0  0  0  0  0  0  0  0  0  0  0  0
  135.6165   68.5893  224.3738 H   0  0  0  0  0  0  0  0  0  0  0  0
  136.2856   69.5896  223.0185 H   0  0  0  0  0  0  0  0  0  0  0  0
  138.3703   70.6592  222.1468 H   0  0  0  0  0  0  0  0  0  0  0  0
  137.6459   71.7995  223.2852 H   0  0  0  0  0  0  0  0  0  0  0  0
  139.6621   72.9958  222.9818 H   0  0  0  0  0  0  0  0  0  0  0  0
  141.5187   71.6509  224.4623 H   0  0  0  0  0  0  0  0  0  0  0  0
  140.1054   72.1995  225.3119 H   0  0  0  0  0  0  0  0  0  0  0  0
  140.5421   69.3754  223.9974 H   0  0  0  0  0  0  0  0  0  0  0  0
  139.7177   71.3810  226.9952 H   0  0  0  0  0  0  0  0  0  0  0  0
  140.2105   70.5018  229.2105 H   0  0  0  0  0  0  0  0  0  0  0  0
  141.0674   68.1958  229.5245 H   0  0  0  0  0  0  0  0  0  0  0  0
  141.4279   66.7616  227.4893 H   0  0  0  0  0  0  0  0  0  0  0  0
  140.9240   67.6710  225.2593 H   0  0  0  0  0  0  0  0  0  0  0  0
  132.3835   70.3800  227.0948 H   0  0  0  0  0  0  0  0  0  0  0  0
  131.0849   72.2692  228.0840 H   0  0  0  0  0  0  0  0  0  0  0  0
  130.8555   74.6743  228.3688 H   0  0  0  0  0  0  0  0  0  0  0  0
  133.7526   77.3128  226.5329 H   0  0  0  0  0  0  0  0  0  0  0  0
  134.9836   75.3548  225.5854 H   0  0  0  0  0  0  0  0  0  0  0  0
  1  2  2  0
  2  3  1  0
  3  4  1  0
  4  5  1  0
  5  6  2  0
  5  7  1  0
  7  8  1  0
  8  9  1  0
  9 10  1  0
  9 11  1  0
 11 12  1  0
 12 13  1  0
 13 14  2  0
 14 15  1  0
 15 16  2  0
 16 17  1  0
 17 18  2  0
  2 19  1  0
 19 20  2  0
 20 21  1  0
 21 22  2  0
 22 23  1  0
 23 24  2  0
 24 25  1  0
 24 26  1  0
 26 27  2  0
 27 28  1  0
 28 29  2  0
 12  7  1  0
 18 13  1  0
 29 19  1  0
 28 22  1  0
  3 30  1  0
  4 31  1  0
  4 32  1  0
  8 33  1  0
  8 34  1  0
  9 35  1  1
 11 36  1  0
 11 37  1  0
 12 38  1  6
 14 39  1  0
 15 40  1  0
 16 41  1  0
 17 42  1  0
 18 43  1  0
 20 44  1  0
 21 45  1  0
 23 46  1  0
 26 47  1  0
 27 48  1  0
M  END
>  <smiles>  (5) 
O=C(NCC(=O)N1C[C@H](F)C[C@H]1c1ccccc1)c1ccc2cc(Cl)ccc2n1

>  <score_type>  (5) 
oracle

>  <origin>  (5) 
autodockgpu

>  <m_score__min__energy>  (5) 
-8.6999999999999993

>  <m_primary>  (5) 
energy

>  <rmsd>  (5) 
7.75524256490301

>  <m_score__min__rmsd>  (5) 
7.75524256490301

>  <meeko>  (5) 
{"free_energy": -8.4, "intermolecular_energy": -9.9, "internal_energy": -1.48, "cluster_size": 13, "cluster_id": 2, "rank_in_cluster": 10}

>  <energy>  (5) 
-8.59

>  <cluster_rmsd>  (5) 
0.26

>  <cluster>  (5) 
1

$$$$

     RDKit          3D

 48 51  0  0  0  0  0  0  0  0999 V2000
  134.7410   68.5150  225.0630 O   0  0  0  0  0  0  0  0  0  0  0  0
  135.1180   69.7210  224.9590 C   0  0  0  0  0  0  0  0  0  0  0  0
  136.2900   70.0030  224.1960 N   0  0  0  0  0  0  0  0  0  0  0  0
  136.9830   68.9160  223.5850 C   0  0  0  0  0  0  0  0  0  0  0  0
  138.4240   68.8550  224.0290 C   0  0  0  0  0  0  0  0  0  0  0  0
  138.7750   67.7680  224.5550 O   0  0  0  0  0  0  0  0  0  0  0  0
  139.2750   69.9660  223.8440 N   0  0  0  0  0  0  0  0  0  0  0  0
  139.1440   70.9550  222.7670 C   0  0  0  0  0  0  0  0  0  0  0  0
  140.0730   72.0840  223.1450 C   0  0  2  0  0  0  0  0  0  0  0  0
  141.2870   71.9370  222.4630 F   0  0  0  0  0  0  0  0  0  0  0  0
  140.3580   71.8330  224.6110 C   0  0  0  0  0  0  0  0  0  0  0  0
  140.3820   70.3150  224.6470 C   0  0  1  0  0  0  0  0  0  0  0  0
  140.4330   69.8170  226.0120 C   0  0  0  0  0  0  0  0  0  0  0  0
  140.9850   68.5640  226.3190 C   0  0  0  0  0  0  0  0  0  0  0  0
  141.0320   68.0990  227.5990 C   0  0  0  0  0  0  0  0  0  0  0  0
  140.5430   68.8330  228.6590 C   0  0  0  0  0  0  0  0  0  0  0  0
  139.9890   70.0800  228.3860 C   0  0  0  0  0  0  0  0  0  0  0  0
  139.9510   70.5320  227.0780 C   0  0  0  0  0  0  0  0  0  0  0  0
  134.3960   70.8190  225.5920 C   0  0  0  0  0  0  0  0  0  0  0  0
  133.3750   70.4980  226.4660 C   0  0  0  0  0  0  0  0  0  0  0  0
  132.6240   71.4620  227.1210 C   0  0  0  0  0  0  0  0  0  0  0  0
  132.9510   72.7880  226.8530 C   0  0  0  0  0  0  0  0  0  0  0  0
  132.2350   73.7980  227.4790 C   0  0  0  0  0  0  0  0  0  0  0  0
  132.5870   75.1130  227.1910 C   0  0  0  0  0  0  0  0  0  0  0  0
  131.7240   76.4300  227.9460 Cl  0  0  0  0  0  0  0  0  0  0  0  0
  133.6170   75.4160  226.3080 C   0  0  0  0  0  0  0  0  0  0  0  0
  134.3300   74.4070  225.6850 C   0  0  0  0  0  0  0  0  0  0  0  0
  133.9770   73.0900  225.9750 C   0  0  0  0  0  0  0  0  0  0  0  0
  134.6900   72.1130  225.3520 N   0  0  0  0  0  0  0  0  0  0  0  0
  136.6210   70.9890  224.0960 H   0  0  0  0  0  0  0  0  0  0  0  0
  136.4845   67.9750  223.8607 H   0  0  0  0  0  0  0  0  0  0  0  0
  136.9651   69.0660  222.4954 H   0  0  0  0  0  0  0  0  0  0  0  0
  139.4429   70.5167  221.8034 H   0  0  0  0  0  0  0  0  0  0  0  0
  138.1059   71.3001  222.6522 H   0  0  0  0  0  0  0  0  0  0  0  0
  139.6458   73.0726  222.9211 H   0  0  0  0  0  0  0  0  0  0  0  0
  141.3260   72.2594  224.9129 H   0  0  0  0  0  0  0  0  0  0  0  0
  139.6317   72.2910  225.2985 H   0  0  0  0  0  0  0  0  0  0  0  0
  141.2827   69.8326  224.2394 H   0  0  0  0  0  0  0  0  0  0  0  0
  141.3895   67.9421  225.5068 H   0  0  0  0  0  0  0  0  0  0  0  0
  141.4726   67.1098  227.7922 H   0  0  0  0  0  0  0  0  0  0  0  0
  140.5894   68.4453  229.6873 H   0  0  0  0  0  0  0  0  0  0  0  0
  139.5857   70.6997  229.2005 H   0  0  0  0  0  0  0  0  0  0  0  0
  139.5093   71.5204  226.8830 H   0  0  0  0  0  0  0  0  0  0  0  0
  133.1494   69.4371  226.6491 H   0  0  0  0  0  0  0  0  0  0  0  0
  131.8137   71.1934  227.8148 H   0  0  0  0  0  0  0  0  0  0  0  0
  131.4179   73.5674  228.1784 H   0  0  0  0  0  0  0  0  0  0  0  0
  133.8675   76.4673  226.1027 H   0  0  0  0  0  0  0  0  0  0  0  0
  135.1471   74.6362  224.9851 H   0  0  0  0  0  0  0  0  0  0  0  0
  1  2  2  0
  2  3  1  0
  3  4  1  0
  4  5  1  0
  5  6  2  0
  5  7  1  0
  7  8  1  0
  8  9  1  0
  9 10  1  0
  9 11  1  0
 11 12  1  0
 12 13  1  0
 13 14  2  0
 14 15  1  0
 15 16  2  0
 16 17  1  0
 17 18  2  0
  2 19  1  0
 19 20  2  0
 20 21  1  0
 21 22  2  0
 22 23  1  0
 23 24  2  0
 24 25  1  0
 24 26  1  0
 26 27  2  0
 27 28  1  0
 28 29  2  0
 12  7  1  0
 18 13  1  0
 29 19  1  0
 28 22  1  0
  3 30  1  0
  4 31  1  0
  4 32  1  0
  8 33  1  0
  8 34  1  0
  9 35  1  1
 11 36  1  0
 11 37  1  0
 12 38  1  6
 14 39  1  0
 15 40  1  0
 16 41  1  0
 17 42  1  0
 18 43  1  0
 20 44  1  0
 21 45  1  0
 23 46  1  0
 26 47  1  0
 27 48  1  0
M  END
>  <smiles>  (6) 
O=C(NCC(=O)N1C[C@H](F)C[C@H]1c1ccccc1)c1ccc2cc(Cl)ccc2n1

>  <score_type>  (6) 
oracle

>  <origin>  (6) 
autodockgpu

>  <m_score__min__energy>  (6) 
-8.6999999999999993

>  <m_primary>  (6) 
energy

>  <rmsd>  (6) 
7.270802989238447

>  <m_score__min__rmsd>  (6) 
7.270802989238447

>  <meeko>  (6) 
{"free_energy": -8.6, "intermolecular_energy": -10.09, "internal_energy": -1.61, "cluster_size": 13, "cluster_id": 2, "rank_in_cluster": 3}

>  <energy>  (6) 
-8.3

>  <cluster_rmsd>  (6) 
0.53

>  <cluster>  (6) 
1

$$$$

     RDKit          3D

 48 51  0  0  0  0  0  0  0  0999 V2000
  140.1800   71.9820  220.7580 O   0  0  0  0  0  0  0  0  0  0  0  0
  140.0150   72.4030  221.9430 C   0  0  0  0  0  0  0  0  0  0  0  0
  139.7890   73.7970  222.1420 N   0  0  0  0  0  0  0  0  0  0  0  0
  139.7590   74.6530  221.0020 C   0  0  0  0  0  0  0  0  0  0  0  0
  140.6000   75.8880  221.2120 C   0  0  0  0  0  0  0  0  0  0  0  0
  140.6820   76.2830  222.4030 O   0  0  0  0  0  0  0  0  0  0  0  0
  141.2290   76.5170  220.1160 N   0  0  0  0  0  0  0  0  0  0  0  0
  140.9980   77.9060  219.6980 C   0  0  0  0  0  0  0  0  0  0  0  0
  142.0830   78.2060  218.6910 C   0  0  2  0  0  0  0  0  0  0  0  0
  141.5760   78.0420  217.3960 F   0  0  0  0  0  0  0  0  0  0  0  0
  143.0910   77.0980  218.9130 C   0  0  0  0  0  0  0  0  0  0  0  0
  142.1740   75.9330  219.2450 C   0  0  1  0  0  0  0  0  0  0  0  0
  142.9270   74.7800  219.7110 C   0  0  0  0  0  0  0  0  0  0  0  0
  142.4770   73.4690  219.4930 C   0  0  0  0  0  0  0  0  0  0  0  0
  143.1850   72.3900  219.9300 C   0  0  0  0  0  0  0  0  0  0  0  0
  144.3780   72.5270  220.6070 C   0  0  0  0  0  0  0  0  0  0  0  0
  144.8500   73.8160  220.8400 C   0  0  0  0  0  0  0  0  0  0  0  0
  144.1150   74.8980  220.3860 C   0  0  0  0  0  0  0  0  0  0  0  0
  140.0490   71.5110  223.0970 C   0  0  0  0  0  0  0  0  0  0  0  0
  139.5410   70.2350  222.9390 C   0  0  0  0  0  0  0  0  0  0  0  0
  139.5240   69.3080  223.9700 C   0  0  0  0  0  0  0  0  0  0  0  0
  140.0510   69.7280  225.1880 C   0  0  0  0  0  0  0  0  0  0  0  0
  140.0610   68.8440  226.2570 C   0  0  0  0  0  0  0  0  0  0  0  0
  140.5940   69.2930  227.4610 C   0  0  0  0  0  0  0  0  0  0  0  0
  140.6370   68.2290  228.8450 Cl  0  0  0  0  0  0  0  0  0  0  0  0
  141.1000   70.5810  227.6000 C   0  0  0  0  0  0  0  0  0  0  0  0
  141.0880   71.4610  226.5320 C   0  0  0  0  0  0  0  0  0  0  0  0
  140.5540   71.0080  225.3260 C   0  0  0  0  0  0  0  0  0  0  0  0
  140.5520   71.8890  224.2890 N   0  0  0  0  0  0  0  0  0  0  0  0
  139.6510   74.1680  223.1100 H   0  0  0  0  0  0  0  0  0  0  0  0
  140.1451   74.1020  220.1317 H   0  0  0  0  0  0  0  0  0  0  0  0
  138.7185   74.9695  220.8369 H   0  0  0  0  0  0  0  0  0  0  0  0
  140.0049   78.0091  219.2363 H   0  0  0  0  0  0  0  0  0  0  0  0
  141.0269   78.6006  220.5505 H   0  0  0  0  0  0  0  0  0  0  0  0
  142.4860   79.2238  218.7993 H   0  0  0  0  0  0  0  0  0  0  0  0
  143.6814   76.9014  218.0059 H   0  0  0  0  0  0  0  0  0  0  0  0
  143.8428   77.3174  219.6855 H   0  0  0  0  0  0  0  0  0  0  0  0
  141.6413   75.4765  218.3977 H   0  0  0  0  0  0  0  0  0  0  0  0
  141.5302   73.3085  218.9566 H   0  0  0  0  0  0  0  0  0  0  0  0
  142.7933   71.3804  219.7370 H   0  0  0  0  0  0  0  0  0  0  0  0
  144.9391   71.6461  220.9521 H   0  0  0  0  0  0  0  0  0  0  0  0
  145.7961   73.9730  221.3787 H   0  0  0  0  0  0  0  0  0  0  0  0
  144.5056   75.9084  220.5773 H   0  0  0  0  0  0  0  0  0  0  0  0
  139.1352   69.9443  221.9588 H   0  0  0  0  0  0  0  0  0  0  0  0
  139.1162   68.2956  223.8329 H   0  0  0  0  0  0  0  0  0  0  0  0
  139.6616   67.8240  226.1562 H   0  0  0  0  0  0  0  0  0  0  0  0
  141.5133   70.9030  228.5672 H   0  0  0  0  0  0  0  0  0  0  0  0
  141.4857   72.4818  226.6309 H   0  0  0  0  0  0  0  0  0  0  0  0
  1  2  2  0
  2  3  1  0
  3  4  1  0
  4  5  1  0
  5  6  2  0
  5  7  1  0
  7  8  1  0
  8  9  1  0
  9 10  1  0
  9 11  1  0
 11 12  1  0
 12 13  1  0
 13 14  2  0
 14 15  1  0
 15 16  2  0
 16 17  1  0
 17 18  2  0
  2 19  1  0
 19 20  2  0
 20 21  1  0
 21 22  2  0
 22 23  1  0
 23 24  2  0
 24 25  1  0
 24 26  1  0
 26 27  2  0
 27 28  1  0
 28 29  2  0
 12  7  1  0
 18 13  1  0
 29 19  1  0
 28 22  1  0
  3 30  1  0
  4 31  1  0
  4 32  1  0
  8 33  1  0
  8 34  1  0
  9 35  1  6
 11 36  1  0
 11 37  1  0
 12 38  1  6
 14 39  1  0
 15 40  1  0
 16 41  1  0
 17 42  1  0
 18 43  1  0
 20 44  1  0
 21 45  1  0
 23 46  1  0
 26 47  1  0
 27 48  1  0
M  END
>  <smiles>  (7) 
O=C(NCC(=O)N1C[C@H](F)C[C@H]1c1ccccc1)c1ccc2cc(Cl)ccc2n1

>  <score_type>  (7) 
oracle

>  <origin>  (7) 
autodockgpu

>  <m_score__min__energy>  (7) 
-8.6999999999999993

>  <m_primary>  (7) 
energy

>  <rmsd>  (7) 
2.1756239689962302

>  <m_score__min__rmsd>  (7) 
2.1756239689962302

>  <meeko>  (7) 
{"free_energy": -7.97, "intermolecular_energy": -9.46, "internal_energy": -2.09, "cluster_size": 20, "cluster_id": 4, "rank_in_cluster": 15}

>  <energy>  (7) 
-8.23

>  <cluster_rmsd>  (7) 
0.95

>  <cluster>  (7) 
1

$$$$

     RDKit          3D

 48 51  0  0  0  0  0  0  0  0999 V2000
  141.0750   72.8250  221.1950 O   0  0  0  0  0  0  0  0  0  0  0  0
  140.2460   72.9300  222.1490 C   0  0  0  0  0  0  0  0  0  0  0  0
  139.3560   74.0450  222.1540 N   0  0  0  0  0  0  0  0  0  0  0  0
  139.4380   74.9880  221.0880 C   0  0  0  0  0  0  0  0  0  0  0  0
  140.6470   75.8800  221.2270 C   0  0  0  0  0  0  0  0  0  0  0  0
  141.2320   75.8180  222.3380 O   0  0  0  0  0  0  0  0  0  0  0  0
  141.0510   76.7060  220.1560 N   0  0  0  0  0  0  0  0  0  0  0  0
  140.9410   76.3530  218.7350 C   0  0  0  0  0  0  0  0  0  0  0  0
  141.2180   77.6330  217.9820 C   0  0  2  0  0  0  0  0  0  0  0  0
  142.5570   77.6520  217.5710 F   0  0  0  0  0  0  0  0  0  0  0  0
  141.0680   78.7070  219.0390 C   0  0  0  0  0  0  0  0  0  0  0  0
  141.6220   77.9930  220.2600 C   0  0  1  0  0  0  0  0  0  0  0  0
  141.3900   78.7580  221.4740 C   0  0  0  0  0  0  0  0  0  0  0  0
  140.0960   78.9870  221.9660 C   0  0  0  0  0  0  0  0  0  0  0  0
  139.8820   79.7050  223.1040 C   0  0  0  0  0  0  0  0  0  0  0  0
  140.9220   80.2430  223.8330 C   0  0  0  0  0  0  0  0  0  0  0  0
  142.2180   80.0330  223.3700 C   0  0  0  0  0  0  0  0  0  0  0  0
  142.4120   79.3010  222.2110 C   0  0  0  0  0  0  0  0  0  0  0  0
  140.1770   71.9540  223.2310 C   0  0  0  0  0  0  0  0  0  0  0  0
  139.5940   70.7320  222.9590 C   0  0  0  0  0  0  0  0  0  0  0  0
  139.4760   69.7330  223.9140 C   0  0  0  0  0  0  0  0  0  0  0  0
  139.9810   70.0240  225.1770 C   0  0  0  0  0  0  0  0  0  0  0  0
  139.8920   69.0640  226.1750 C   0  0  0  0  0  0  0  0  0  0  0  0
  140.4060   69.3850  227.4270 C   0  0  0  0  0  0  0  0  0  0  0  0
  140.3250   68.2210  228.7260 Cl  0  0  0  0  0  0  0  0  0  0  0  0
  140.9890   70.6220  227.6830 C   0  0  0  0  0  0  0  0  0  0  0  0
  141.0760   71.5780  226.6850 C   0  0  0  0  0  0  0  0  0  0  0  0
  140.5610   71.2540  225.4310 C   0  0  0  0  0  0  0  0  0  0  0  0
  140.6570   72.2080  224.4650 N   0  0  0  0  0  0  0  0  0  0  0  0
  138.6640   74.1540  222.9300 H   0  0  0  0  0  0  0  0  0  0  0  0
  139.5037   74.4438  220.1343 H   0  0  0  0  0  0  0  0  0  0  0  0
  138.5386   75.6205  221.1183 H   0  0  0  0  0  0  0  0  0  0  0  0
  141.6811   75.5832  218.4711 H   0  0  0  0  0  0  0  0  0  0  0  0
  139.9509   75.9405  218.4910 H   0  0  0  0  0  0  0  0  0  0  0  0
  140.5644   77.7539  217.1055 H   0  0  0  0  0  0  0  0  0  0  0  0
  141.6582   79.6018  218.7921 H   0  0  0  0  0  0  0  0  0  0  0  0
  140.0413   79.0825  219.1608 H   0  0  0  0  0  0  0  0  0  0  0  0
  142.7163   77.8932  220.3098 H   0  0  0  0  0  0  0  0  0  0  0  0
  139.2337   78.5770  221.4198 H   0  0  0  0  0  0  0  0  0  0  0  0
  138.8499   79.8601  223.4515 H   0  0  0  0  0  0  0  0  0  0  0  0
  140.7334   80.8194  224.7507 H   0  0  0  0  0  0  0  0  0  0  0  0
  143.0782   80.4440  223.9188 H   0  0  0  0  0  0  0  0  0  0  0  0
  143.4434   79.1460  221.8614 H   0  0  0  0  0  0  0  0  0  0  0  0
  139.2084   70.5437  221.9462 H   0  0  0  0  0  0  0  0  0  0  0  0
  139.0087   68.7638  223.6851 H   0  0  0  0  0  0  0  0  0  0  0  0
  139.4312   68.0838  225.9828 H   0  0  0  0  0  0  0  0  0  0  0  0
  141.3838   70.8423  228.6858 H   0  0  0  0  0  0  0  0  0  0  0  0
  141.5356   72.5591  226.8753 H   0  0  0  0  0  0  0  0  0  0  0  0
  1  2  2  0
  2  3  1  0
  3  4  1  0
  4  5  1  0
  5  6  2  0
  5  7  1  0
  7  8  1  0
  8  9  1  0
  9 10  1  0
  9 11  1  0
 11 12  1  0
 12 13  1  0
 13 14  2  0
 14 15  1  0
 15 16  2  0
 16 17  1  0
 17 18  2  0
  2 19  1  0
 19 20  2  0
 20 21  1  0
 21 22  2  0
 22 23  1  0
 23 24  2  0
 24 25  1  0
 24 26  1  0
 26 27  2  0
 27 28  1  0
 28 29  2  0
 12  7  1  0
 18 13  1  0
 29 19  1  0
 28 22  1  0
  3 30  1  0
  4 31  1  0
  4 32  1  0
  8 33  1  0
  8 34  1  0
  9 35  1  6
 11 36  1  0
 11 37  1  0
 12 38  1  6
 14 39  1  0
 15 40  1  0
 16 41  1  0
 17 42  1  0
 18 43  1  0
 20 44  1  0
 21 45  1  0
 23 46  1  0
 26 47  1  0
 27 48  1  0
M  END
>  <smiles>  (8) 
O=C(NCC(=O)N1C[C@H](F)C[C@H]1c1ccccc1)c1ccc2cc(Cl)ccc2n1

>  <score_type>  (8) 
oracle

>  <origin>  (8) 
autodockgpu

>  <m_score__min__energy>  (8) 
-8.6999999999999993

>  <m_primary>  (8) 
energy

>  <rmsd>  (8) 
1.6616598999106895

>  <m_score__min__rmsd>  (8) 
1.6616598999106895

>  <meeko>  (8) 
{"free_energy": -8.3, "intermolecular_energy": -9.79, "internal_energy": -1.3, "cluster_size": 15, "cluster_id": 1, "rank_in_cluster": 6}

>  <energy>  (8) 
-8.13

>  <cluster_rmsd>  (8) 
0.87

>  <cluster>  (8) 
1

$$$$

     RDKit          3D

 48 51  0  0  0  0  0  0  0  0999 V2000
  140.1840   72.0280  220.7270 O   0  0  0  0  0  0  0  0  0  0  0  0
  139.9990   72.4330  221.9140 C   0  0  0  0  0  0  0  0  0  0  0  0
  139.7430   73.8210  222.1260 N   0  0  0  0  0  0  0  0  0  0  0  0
  139.7070   74.6880  220.9950 C   0  0  0  0  0  0  0  0  0  0  0  0
  140.7400   75.7820  221.1000 C   0  0  0  0  0  0  0  0  0  0  0  0
  141.0070   76.1550  222.2710 O   0  0  0  0  0  0  0  0  0  0  0  0
  141.3360   76.3150  219.9370 N   0  0  0  0  0  0  0  0  0  0  0  0
  141.0220   77.6270  219.3570 C   0  0  0  0  0  0  0  0  0  0  0  0
  142.0920   77.8730  218.3200 C   0  0  2  0  0  0  0  0  0  0  0  0
  141.6040   77.5250  217.0550 F   0  0  0  0  0  0  0  0  0  0  0  0
  143.1650   76.8640  218.6710 C   0  0  0  0  0  0  0  0  0  0  0  0
  142.3200   75.6920  219.1400 C   0  0  1  0  0  0  0  0  0  0  0  0
  143.1410   74.6510  219.7390 C   0  0  0  0  0  0  0  0  0  0  0  0
  144.4430   74.9100  220.1940 C   0  0  0  0  0  0  0  0  0  0  0  0
  145.2090   73.9320  220.7540 C   0  0  0  0  0  0  0  0  0  0  0  0
  144.7490   72.6420  220.9050 C   0  0  0  0  0  0  0  0  0  0  0  0
  143.4610   72.3540  220.4620 C   0  0  0  0  0  0  0  0  0  0  0  0
  142.7000   73.3620  219.8960 C   0  0  0  0  0  0  0  0  0  0  0  0
  140.0400   71.5300  223.0590 C   0  0  0  0  0  0  0  0  0  0  0  0
  139.5470   70.2500  222.8870 C   0  0  0  0  0  0  0  0  0  0  0  0
  139.5380   69.3120  223.9080 C   0  0  0  0  0  0  0  0  0  0  0  0
  140.0560   69.7250  225.1310 C   0  0  0  0  0  0  0  0  0  0  0  0
  140.0730   68.8300  226.1910 C   0  0  0  0  0  0  0  0  0  0  0  0
  140.5990   69.2720  227.4010 C   0  0  0  0  0  0  0  0  0  0  0  0
  140.6490   68.1940  228.7740 Cl  0  0  0  0  0  0  0  0  0  0  0  0
  141.0900   70.5640  227.5550 C   0  0  0  0  0  0  0  0  0  0  0  0
  141.0710   71.4550  226.4960 C   0  0  0  0  0  0  0  0  0  0  0  0
  140.5450   71.0100  225.2840 C   0  0  0  0  0  0  0  0  0  0  0  0
  140.5360   71.9010  224.2560 N   0  0  0  0  0  0  0  0  0  0  0  0
  139.5880   74.1780  223.0960 H   0  0  0  0  0  0  0  0  0  0  0  0
  139.9026   74.0985  220.0871 H   0  0  0  0  0  0  0  0  0  0  0  0
  138.7128   75.1569  220.9528 H   0  0  0  0  0  0  0  0  0  0  0  0
  140.0272   77.6123  218.8877 H   0  0  0  0  0  0  0  0  0  0  0  0
  141.0028   78.4182  220.1210 H   0  0  0  0  0  0  0  0  0  0  0  0
  142.4303   78.9196  218.3057 H   0  0  0  0  0  0  0  0  0  0  0  0
  143.7721   76.5983  217.7931 H   0  0  0  0  0  0  0  0  0  0  0  0
  143.8968   77.2198  219.4112 H   0  0  0  0  0  0  0  0  0  0  0  0
  141.8215   75.1062  218.3537 H   0  0  0  0  0  0  0  0  0  0  0  0
  144.8545   75.9254  220.0964 H   0  0  0  0  0  0  0  0  0  0  0  0
  146.2248   74.1797  221.0957 H   0  0  0  0  0  0  0  0  0  0  0  0
  145.3794   71.8644  221.3611 H   0  0  0  0  0  0  0  0  0  0  0  0
  143.0529   71.3373  220.5607 H   0  0  0  0  0  0  0  0  0  0  0  0
  141.6844   73.1154  219.5528 H   0  0  0  0  0  0  0  0  0  0  0  0
  139.1467   69.9649  221.9029 H   0  0  0  0  0  0  0  0  0  0  0  0
  139.1427   68.2964  223.7589 H   0  0  0  0  0  0  0  0  0  0  0  0
  139.6844   67.8071  226.0788 H   0  0  0  0  0  0  0  0  0  0  0  0
  141.4969   70.8805  228.5267 H   0  0  0  0  0  0  0  0  0  0  0  0
  141.4576   72.4789  226.6068 H   0  0  0  0  0  0  0  0  0  0  0  0
  1  2  2  0
  2  3  1  0
  3  4  1  0
  4  5  1  0
  5  6  2  0
  5  7  1  0
  7  8  1  0
  8  9  1  0
  9 10  1  0
  9 11  1  0
 11 12  1  0
 12 13  1  0
 13 14  2  0
 14 15  1  0
 15 16  2  0
 16 17  1  0
 17 18  2  0
  2 19  1  0
 19 20  2  0
 20 21  1  0
 21 22  2  0
 22 23  1  0
 23 24  2  0
 24 25  1  0
 24 26  1  0
 26 27  2  0
 27 28  1  0
 28 29  2  0
 12  7  1  0
 18 13  1  0
 29 19  1  0
 28 22  1  0
  3 30  1  0
  4 31  1  0
  4 32  1  0
  8 33  1  0
  8 34  1  0
  9 35  1  6
 11 36  1  0
 11 37  1  0
 12 38  1  6
 14 39  1  0
 15 40  1  0
 16 41  1  0
 17 42  1  0
 18 43  1  0
 20 44  1  0
 21 45  1  0
 23 46  1  0
 26 47  1  0
 27 48  1  0
M  END
>  <smiles>  (9) 
O=C(NCC(=O)N1C[C@H](F)C[C@H]1c1ccccc1)c1ccc2cc(Cl)ccc2n1

>  <score_type>  (9) 
oracle

>  <origin>  (9) 
autodockgpu

>  <m_score__min__energy>  (9) 
-8.6999999999999993

>  <m_primary>  (9) 
energy

>  <rmsd>  (9) 
2.1092268032887533

>  <m_score__min__rmsd>  (9) 
2.1092268032887533

>  <meeko>  (9) 
{"free_energy": -8.27, "intermolecular_energy": -9.76, "internal_energy": -1.99, "cluster_size": 20, "cluster_id": 4, "rank_in_cluster": 4}

>  <energy>  (9) 
-8.13

>  <cluster_rmsd>  (9) 
0.87

>  <cluster>  (9) 
1

$$$$

     RDKit          3D

 48 51  0  0  0  0  0  0  0  0999 V2000
  140.1230   72.4640  220.7450 O   0  0  0  0  0  0  0  0  0  0  0  0
  139.9380   72.8520  221.9380 C   0  0  0  0  0  0  0  0  0  0  0  0
  139.7060   74.2400  222.1720 N   0  0  0  0  0  0  0  0  0  0  0  0
  139.6920   75.1270  221.0550 C   0  0  0  0  0  0  0  0  0  0  0  0
  140.4220   76.4120  221.3570 C   0  0  0  0  0  0  0  0  0  0  0  0
  140.3500   76.8000  222.5510 O   0  0  0  0  0  0  0  0  0  0  0  0
  141.1210   77.0920  220.3370 N   0  0  0  0  0  0  0  0  0  0  0  0
  141.1590   76.6820  218.9270 C   0  0  0  0  0  0  0  0  0  0  0  0
  141.7710   77.8480  218.1870 C   0  0  2  0  0  0  0  0  0  0  0  0
  143.1360   77.6080  217.9880 F   0  0  0  0  0  0  0  0  0  0  0  0
  141.6640   78.9900  219.1750 C   0  0  0  0  0  0  0  0  0  0  0  0
  141.8940   78.2620  220.4880 C   0  0  1  0  0  0  0  0  0  0  0  0
  141.6300   79.1260  221.6280 C   0  0  0  0  0  0  0  0  0  0  0  0
  140.3890   79.7560  221.8030 C   0  0  0  0  0  0  0  0  0  0  0  0
  140.1430   80.5640  222.8720 C   0  0  0  0  0  0  0  0  0  0  0  0
  141.0980   80.8060  223.8370 C   0  0  0  0  0  0  0  0  0  0  0  0
  142.3410   80.1950  223.6900 C   0  0  0  0  0  0  0  0  0  0  0  0
  142.5680   79.3780  222.5960 C   0  0  0  0  0  0  0  0  0  0  0  0
  139.9570   71.9290  223.0670 C   0  0  0  0  0  0  0  0  0  0  0  0
  139.3920   70.6810  222.8870 C   0  0  0  0  0  0  0  0  0  0  0  0
  139.3550   69.7270  223.8940 C   0  0  0  0  0  0  0  0  0  0  0  0
  139.9220   70.0920  225.1110 C   0  0  0  0  0  0  0  0  0  0  0  0
  139.9150   69.1800  226.1560 C   0  0  0  0  0  0  0  0  0  0  0  0
  140.4900   69.5740  227.3610 C   0  0  0  0  0  0  0  0  0  0  0  0
  140.5130   68.4720  228.7160 Cl  0  0  0  0  0  0  0  0  0  0  0  0
  141.0530   70.8350  227.5230 C   0  0  0  0  0  0  0  0  0  0  0  0
  141.0580   71.7430  226.4780 C   0  0  0  0  0  0  0  0  0  0  0  0
  140.4830   71.3460  225.2720 C   0  0  0  0  0  0  0  0  0  0  0  0
  140.4980   72.2530  224.2580 N   0  0  0  0  0  0  0  0  0  0  0  0
  139.5510   74.5840  223.1470 H   0  0  0  0  0  0  0  0  0  0  0  0
  140.1777   74.6328  220.2007 H   0  0  0  0  0  0  0  0  0  0  0  0
  138.6450   75.3724  220.8237 H   0  0  0  0  0  0  0  0  0  0  0  0
  141.7779   75.7809  218.8047 H   0  0  0  0  0  0  0  0  0  0  0  0
  140.1572   76.4354  218.5454 H   0  0  0  0  0  0  0  0  0  0  0  0
  141.2868   78.0313  217.2164 H   0  0  0  0  0  0  0  0  0  0  0  0
  142.4361   79.7527  218.9956 H   0  0  0  0  0  0  0  0  0  0  0  0
  140.7154   79.5447  219.1249 H   0  0  0  0  0  0  0  0  0  0  0  0
  142.9325   77.9747  220.7094 H   0  0  0  0  0  0  0  0  0  0  0  0
  139.5952   79.5937  221.0590 H   0  0  0  0  0  0  0  0  0  0  0  0
  139.1545   81.0368  222.9681 H   0  0  0  0  0  0  0  0  0  0  0  0
  140.8850   81.4604  224.6951 H   0  0  0  0  0  0  0  0  0  0  0  0
  143.1334   80.3599  224.4350 H   0  0  0  0  0  0  0  0  0  0  0  0
  143.5560   78.9044  222.4976 H   0  0  0  0  0  0  0  0  0  0  0  0
  138.9549   70.4343  221.9082 H   0  0  0  0  0  0  0  0  0  0  0  0
  138.9023   68.7366  223.7386 H   0  0  0  0  0  0  0  0  0  0  0  0
  139.4708   68.1808  226.0368 H   0  0  0  0  0  0  0  0  0  0  0  0
  141.4981   71.1135  228.4896 H   0  0  0  0  0  0  0  0  0  0  0  0
  141.5005   72.7432  226.5954 H   0  0  0  0  0  0  0  0  0  0  0  0
  1  2  2  0
  2  3  1  0
  3  4  1  0
  4  5  1  0
  5  6  2  0
  5  7  1  0
  7  8  1  0
  8  9  1  0
  9 10  1  0
  9 11  1  0
 11 12  1  0
 12 13  1  0
 13 14  2  0
 14 15  1  0
 15 16  2  0
 16 17  1  0
 17 18  2  0
  2 19  1  0
 19 20  2  0
 20 21  1  0
 21 22  2  0
 22 23  1  0
 23 24  2  0
 24 25  1  0
 24 26  1  0
 26 27  2  0
 27 28  1  0
 28 29  2  0
 12  7  1  0
 18 13  1  0
 29 19  1  0
 28 22  1  0
  3 30  1  0
  4 31  1  0
  4 32  1  0
  8 33  1  0
  8 34  1  0
  9 35  1  6
 11 36  1  0
 11 37  1  0
 12 38  1  6
 14 39  1  0
 15 40  1  0
 16 41  1  0
 17 42  1  0
 18 43  1  0
 20 44  1  0
 21 45  1  0
 23 46  1  0
 26 47  1  0
 27 48  1  0
M  END
>  <smiles>  (10) 
O=C(NCC(=O)N1C[C@H](F)C[C@H]1c1ccccc1)c1ccc2cc(Cl)ccc2n1

>  <score_type>  (10) 
oracle

>  <origin>  (10) 
autodockgpu

>  <m_score__min__energy>  (10) 
-8.6999999999999993

>  <m_primary>  (10) 
energy

>  <rmsd>  (10) 
1.8598312801005286

>  <m_score__min__rmsd>  (10) 
1.8598312801005286

>  <meeko>  (10) 
{"free_energy": -8.6, "intermolecular_energy": -10.1, "internal_energy": -1.57, "cluster_size": 15, "cluster_id": 1, "rank_in_cluster": 4}

>  <energy>  (10) 
-7.99

>  <cluster_rmsd>  (10) 
1.5

>  <cluster>  (10) 
1

$$$$

     RDKit          3D

 48 51  0  0  0  0  0  0  0  0999 V2000
  140.4550   72.4770  220.7410 O   0  0  0  0  0  0  0  0  0  0  0  0
  140.1460   72.8560  221.9110 C   0  0  0  0  0  0  0  0  0  0  0  0
  139.8260   74.2310  222.1170 N   0  0  0  0  0  0  0  0  0  0  0  0
  139.8660   75.1150  220.9990 C   0  0  0  0  0  0  0  0  0  0  0  0
  141.2780   75.5350  220.6730 C   0  0  0  0  0  0  0  0  0  0  0  0
  142.1790   74.8890  221.2680 O   0  0  0  0  0  0  0  0  0  0  0  0
  141.5180   76.5820  219.7580 N   0  0  0  0  0  0  0  0  0  0  0  0
  141.5030   76.4410  218.2960 C   0  0  0  0  0  0  0  0  0  0  0  0
  141.5210   77.8530  217.7580 C   0  0  2  0  0  0  0  0  0  0  0  0
  142.8320   78.2050  217.4160 F   0  0  0  0  0  0  0  0  0  0  0  0
  141.1370   78.6950  218.9570 C   0  0  0  0  0  0  0  0  0  0  0  0
  141.8100   77.9250  220.0800 C   0  0  1  0  0  0  0  0  0  0  0  0
  141.4090   78.4280  221.3840 C   0  0  0  0  0  0  0  0  0  0  0  0
  140.0880   78.3140  221.8440 C   0  0  0  0  0  0  0  0  0  0  0  0
  139.7150   78.7870  223.0660 C   0  0  0  0  0  0  0  0  0  0  0  0
  140.6120   79.4000  223.9150 C   0  0  0  0  0  0  0  0  0  0  0  0
  141.9300   79.5280  223.4870 C   0  0  0  0  0  0  0  0  0  0  0  0
  142.2870   79.0410  222.2410 C   0  0  0  0  0  0  0  0  0  0  0  0
  140.1100   71.9360  223.0430 C   0  0  0  0  0  0  0  0  0  0  0  0
  139.5470   70.6900  222.8410 C   0  0  0  0  0  0  0  0  0  0  0  0
  139.4620   69.7390  223.8470 C   0  0  0  0  0  0  0  0  0  0  0  0
  139.9760   70.1040  225.0870 C   0  0  0  0  0  0  0  0  0  0  0  0
  139.9190   69.1950  226.1340 C   0  0  0  0  0  0  0  0  0  0  0  0
  140.4420   69.5900  227.3610 C   0  0  0  0  0  0  0  0  0  0  0  0
  140.4010   68.4920  228.7190 Cl  0  0  0  0  0  0  0  0  0  0  0  0
  141.0040   70.8480  227.5450 C   0  0  0  0  0  0  0  0  0  0  0  0
  141.0590   71.7540  226.4990 C   0  0  0  0  0  0  0  0  0  0  0  0
  140.5360   71.3560  225.2700 C   0  0  0  0  0  0  0  0  0  0  0  0
  140.6000   72.2610  224.2560 N   0  0  0  0  0  0  0  0  0  0  0  0
  139.5680   74.5670  223.0720 H   0  0  0  0  0  0  0  0  0  0  0  0
  139.4345   74.6050  220.1251 H   0  0  0  0  0  0  0  0  0  0  0  0
  139.2888   76.0165  221.2525 H   0  0  0  0  0  0  0  0  0  0  0  0
  142.3894   75.8870  217.9534 H   0  0  0  0  0  0  0  0  0  0  0  0
  140.6227   75.8810  217.9474 H   0  0  0  0  0  0  0  0  0  0  0  0
  140.8692   77.9764  216.8806 H   0  0  0  0  0  0  0  0  0  0  0  0
  141.5325   79.7182  218.8753 H   0  0  0  0  0  0  0  0  0  0  0  0
  140.0532   78.8312  219.0868 H   0  0  0  0  0  0  0  0  0  0  0  0
  142.9007   78.0411  220.1633 H   0  0  0  0  0  0  0  0  0  0  0  0
  139.3359   77.8313  221.2027 H   0  0  0  0  0  0  0  0  0  0  0  0
  138.6679   78.6767  223.3845 H   0  0  0  0  0  0  0  0  0  0  0  0
  140.2959   79.7759  224.8993 H   0  0  0  0  0  0  0  0  0  0  0  0
  142.6797   80.0106  224.1313 H   0  0  0  0  0  0  0  0  0  0  0  0
  143.3334   79.1520  221.9205 H   0  0  0  0  0  0  0  0  0  0  0  0
  139.1514   70.4433  221.8447 H   0  0  0  0  0  0  0  0  0  0  0  0
  139.0126   68.7500  223.6737 H   0  0  0  0  0  0  0  0  0  0  0  0
  139.4759   68.1974  225.9985 H   0  0  0  0  0  0  0  0  0  0  0  0
  141.4083   71.1262  228.5294 H   0  0  0  0  0  0  0  0  0  0  0  0
  141.5000   72.7527  226.6335 H   0  0  0  0  0  0  0  0  0  0  0  0
  1  2  2  0
  2  3  1  0
  3  4  1  0
  4  5  1  0
  5  6  2  0
  5  7  1  0
  7  8  1  0
  8  9  1  0
  9 10  1  0
  9 11  1  0
 11 12  1  0
 12 13  1  0
 13 14  2  0
 14 15  1  0
 15 16  2  0
 16 17  1  0
 17 18  2  0
  2 19  1  0
 19 20  2  0
 20 21  1  0
 21 22  2  0
 22 23  1  0
 23 24  2  0
 24 25  1  0
 24 26  1  0
 26 27  2  0
 27 28  1  0
 28 29  2  0
 12  7  1  0
 18 13  1  0
 29 19  1  0
 28 22  1  0
  3 30  1  0
  4 31  1  0
  4 32  1  0
  8 33  1  0
  8 34  1  0
  9 35  1  6
 11 36  1  0
 11 37  1  0
 12 38  1  6
 14 39  1  0
 15 40  1  0
 16 41  1  0
 17 42  1  0
 18 43  1  0
 20 44  1  0
 21 45  1  0
 23 46  1  0
 26 47  1  0
 27 48  1  0
M  END
>  <smiles>  (11) 
O=C(NCC(=O)N1C[C@H](F)C[C@H]1c1ccccc1)c1ccc2cc(Cl)ccc2n1

>  <score_type>  (11) 
oracle

>  <origin>  (11) 
autodockgpu

>  <m_score__min__energy>  (11) 
-8.6999999999999993

>  <m_primary>  (11) 
energy

>  <rmsd>  (11) 
1.8329848969491949

>  <m_score__min__rmsd>  (11) 
1.8329848969491949

>  <meeko>  (11) 
{"free_energy": -8.13, "intermolecular_energy": -9.63, "internal_energy": -1.38, "cluster_size": 15, "cluster_id": 1, "rank_in_cluster": 8}

>  <energy>  (11) 
-7.98

>  <cluster_rmsd>  (11) 
1.46

>  <cluster>  (11) 
1

$$$$

     RDKit          3D

 48 51  0  0  0  0  0  0  0  0999 V2000
  134.8660   68.5190  225.1830 O   0  0  0  0  0  0  0  0  0  0  0  0
  135.1700   69.7330  224.9750 C   0  0  0  0  0  0  0  0  0  0  0  0
  136.2640   70.0190  224.1060 N   0  0  0  0  0  0  0  0  0  0  0  0
  136.9650   68.9290  223.5100 C   0  0  0  0  0  0  0  0  0  0  0  0
  138.3890   68.8480  224.0020 C   0  0  0  0  0  0  0  0  0  0  0  0
  138.6950   67.7710  224.5760 O   0  0  0  0  0  0  0  0  0  0  0  0
  139.2740   69.9290  223.8080 N   0  0  0  0  0  0  0  0  0  0  0  0
  139.1600   70.9260  222.7340 C   0  0  0  0  0  0  0  0  0  0  0  0
  140.1320   72.0220  223.1020 C   0  0  2  0  0  0  0  0  0  0  0  0
  141.3310   71.8360  222.4010 F   0  0  0  0  0  0  0  0  0  0  0  0
  140.4310   71.7570  224.5620 C   0  0  0  0  0  0  0  0  0  0  0  0
  140.4030   70.2390  224.5940 C   0  0  1  0  0  0  0  0  0  0  0  0
  140.4590   69.7350  225.9570 C   0  0  0  0  0  0  0  0  0  0  0  0
  140.9940   68.4730  226.2560 C   0  0  0  0  0  0  0  0  0  0  0  0
  141.0440   68.0040  227.5340 C   0  0  0  0  0  0  0  0  0  0  0  0
  140.5750   68.7410  228.6000 C   0  0  0  0  0  0  0  0  0  0  0  0
  140.0380   69.9980  228.3360 C   0  0  0  0  0  0  0  0  0  0  0  0
  139.9960   70.4550  227.0300 C   0  0  0  0  0  0  0  0  0  0  0  0
  134.4410   70.8340  225.5950 C   0  0  0  0  0  0  0  0  0  0  0  0
  133.4100   70.5170  226.4600 C   0  0  0  0  0  0  0  0  0  0  0  0
  132.6530   71.4850  227.1020 C   0  0  0  0  0  0  0  0  0  0  0  0
  132.9830   72.8090  226.8300 C   0  0  0  0  0  0  0  0  0  0  0  0
  132.2600   73.8220  227.4430 C   0  0  0  0  0  0  0  0  0  0  0  0
  132.6150   75.1360  227.1520 C   0  0  0  0  0  0  0  0  0  0  0  0
  131.7440   76.4570  227.8900 Cl  0  0  0  0  0  0  0  0  0  0  0  0
  133.6550   75.4350  226.2780 C   0  0  0  0  0  0  0  0  0  0  0  0
  134.3740   74.4220  225.6680 C   0  0  0  0  0  0  0  0  0  0  0  0
  134.0180   73.1060  225.9620 C   0  0  0  0  0  0  0  0  0  0  0  0
  134.7370   72.1260  225.3510 N   0  0  0  0  0  0  0  0  0  0  0  0
  136.5340   71.0110  223.9200 H   0  0  0  0  0  0  0  0  0  0  0  0
  136.4469   67.9916  223.7609 H   0  0  0  0  0  0  0  0  0  0  0  0
  136.9858   69.0876  222.4217 H   0  0  0  0  0  0  0  0  0  0  0  0
  139.4301   70.4809  221.7650 H   0  0  0  0  0  0  0  0  0  0  0  0
  138.1324   71.3058  222.6347 H   0  0  0  0  0  0  0  0  0  0  0  0
  139.7344   73.0250  222.8879 H   0  0  0  0  0  0  0  0  0  0  0  0
  141.4178   72.1488  224.8496 H   0  0  0  0  0  0  0  0  0  0  0  0
  139.7319   72.2378  225.2620 H   0  0  0  0  0  0  0  0  0  0  0  0
  141.2803   69.7279  224.1707 H   0  0  0  0  0  0  0  0  0  0  0  0
  141.3824   67.8473  225.4389 H   0  0  0  0  0  0  0  0  0  0  0  0
  141.4713   67.0077  227.7206 H   0  0  0  0  0  0  0  0  0  0  0  0
  140.6234   68.3486  229.6265 H   0  0  0  0  0  0  0  0  0  0  0  0
  139.6514   70.6211  229.1560 H   0  0  0  0  0  0  0  0  0  0  0  0
  139.5678   71.4506  226.8416 H   0  0  0  0  0  0  0  0  0  0  0  0
  133.1818   69.4571  226.6458 H   0  0  0  0  0  0  0  0  0  0  0  0
  131.8358   71.2206  227.7892 H   0  0  0  0  0  0  0  0  0  0  0  0
  131.4353   73.5948  228.1346 H   0  0  0  0  0  0  0  0  0  0  0  0
  133.9080   76.4851  226.0700 H   0  0  0  0  0  0  0  0  0  0  0  0
  135.1980   74.6471  224.9750 H   0  0  0  0  0  0  0  0  0  0  0  0
  1  2  2  0
  2  3  1  0
  3  4  1  0
  4  5  1  0
  5  6  2  0
  5  7  1  0
  7  8  1  0
  8  9  1  0
  9 10  1  0
  9 11  1  0
 11 12  1  0
 12 13  1  0
 13 14  2  0
 14 15  1  0
 15 16  2  0
 16 17  1  0
 17 18  2  0
  2 19  1  0
 19 20  2  0
 20 21  1  0
 21 22  2  0
 22 23  1  0
 23 24  2  0
 24 25  1  0
 24 26  1  0
 26 27  2  0
 27 28  1  0
 28 29  2  0
 12  7  1  0
 18 13  1  0
 29 19  1  0
 28 22  1  0
  3 30  1  0
  4 31  1  0
  4 32  1  0
  8 33  1  0
  8 34  1  0
  9 35  1  1
 11 36  1  0
 11 37  1  0
 12 38  1  6
 14 39  1  0
 15 40  1  0
 16 41  1  0
 17 42  1  0
 18 43  1  0
 20 44  1  0
 21 45  1  0
 23 46  1  0
 26 47  1  0
 27 48  1  0
M  END
>  <smiles>  (12) 
O=C(NCC(=O)N1C[C@H](F)C[C@H]1c1ccccc1)c1ccc2cc(Cl)ccc2n1

>  <score_type>  (12) 
oracle

>  <origin>  (12) 
autodockgpu

>  <m_score__min__energy>  (12) 
-8.6999999999999993

>  <m_primary>  (12) 
energy

>  <rmsd>  (12) 
7.261365133618619

>  <m_score__min__rmsd>  (12) 
7.261365133618619

>  <meeko>  (12) 
{"free_energy": -8.54, "intermolecular_energy": -10.03, "internal_energy": -1.62, "cluster_size": 13, "cluster_id": 2, "rank_in_cluster": 6}

>  <energy>  (12) 
-7.93

>  <cluster_rmsd>  (12) 
1.57

>  <cluster>  (12) 
1

$$$$

     RDKit          3D

 48 51  0  0  0  0  0  0  0  0999 V2000
  134.7480   68.5080  225.1110 O   0  0  0  0  0  0  0  0  0  0  0  0
  135.1060   69.7160  224.9720 C   0  0  0  0  0  0  0  0  0  0  0  0
  136.2570   69.9960  224.1780 N   0  0  0  0  0  0  0  0  0  0  0  0
  136.9520   68.9060  223.5770 C   0  0  0  0  0  0  0  0  0  0  0  0
  138.3910   68.8490  224.0260 C   0  0  0  0  0  0  0  0  0  0  0  0
  138.7400   67.7670  224.5640 O   0  0  0  0  0  0  0  0  0  0  0  0
  139.2440   69.9560  223.8320 N   0  0  0  0  0  0  0  0  0  0  0  0
  139.1060   70.9440  222.7530 C   0  0  0  0  0  0  0  0  0  0  0  0
  140.0420   72.0710  223.1220 C   0  0  2  0  0  0  0  0  0  0  0  0
  141.2490   71.9190  222.4290 F   0  0  0  0  0  0  0  0  0  0  0  0
  140.3400   71.8220  224.5850 C   0  0  0  0  0  0  0  0  0  0  0  0
  140.3590   70.3040  224.6240 C   0  0  1  0  0  0  0  0  0  0  0  0
  140.4220   69.8070  225.9890 C   0  0  0  0  0  0  0  0  0  0  0  0
  139.9610   70.5710  227.0720 C   0  0  0  0  0  0  0  0  0  0  0  0
  140.0210   70.1030  228.3510 C   0  0  0  0  0  0  0  0  0  0  0  0
  140.5350   68.8590  228.6490 C   0  0  0  0  0  0  0  0  0  0  0  0
  141.0000   68.0780  227.5950 C   0  0  0  0  0  0  0  0  0  0  0  0
  140.9300   68.5730  226.3040 C   0  0  0  0  0  0  0  0  0  0  0  0
  134.3810   70.8180  225.5960 C   0  0  0  0  0  0  0  0  0  0  0  0
  133.3560   70.5030  226.4680 C   0  0  0  0  0  0  0  0  0  0  0  0
  132.6040   71.4710  227.1150 C   0  0  0  0  0  0  0  0  0  0  0  0
  132.9330   72.7950  226.8400 C   0  0  0  0  0  0  0  0  0  0  0  0
  132.2140   73.8090  227.4570 C   0  0  0  0  0  0  0  0  0  0  0  0
  132.5680   75.1220  227.1630 C   0  0  0  0  0  0  0  0  0  0  0  0
  131.7020   76.4440  227.9070 Cl  0  0  0  0  0  0  0  0  0  0  0  0
  133.6020   75.4200  226.2820 C   0  0  0  0  0  0  0  0  0  0  0  0
  134.3170   74.4060  225.6680 C   0  0  0  0  0  0  0  0  0  0  0  0
  133.9620   73.0910  225.9640 C   0  0  0  0  0  0  0  0  0  0  0  0
  134.6760   72.1100  225.3500 N   0  0  0  0  0  0  0  0  0  0  0  0
  136.5720   70.9850  224.0490 H   0  0  0  0  0  0  0  0  0  0  0  0
  136.4532   67.9666  223.8574 H   0  0  0  0  0  0  0  0  0  0  0  0
  136.9375   69.0484  222.4864 H   0  0  0  0  0  0  0  0  0  0  0  0
  139.3955   70.5032  221.7877 H   0  0  0  0  0  0  0  0  0  0  0  0
  138.0679   71.2917  222.6457 H   0  0  0  0  0  0  0  0  0  0  0  0
  139.6153   73.0606  222.9013 H   0  0  0  0  0  0  0  0  0  0  0  0
  141.3123   72.2456  224.8768 H   0  0  0  0  0  0  0  0  0  0  0  0
  139.6219   72.2839  225.2785 H   0  0  0  0  0  0  0  0  0  0  0  0
  141.2547   69.8189  224.2089 H   0  0  0  0  0  0  0  0  0  0  0  0
  139.5416   71.5705  226.8846 H   0  0  0  0  0  0  0  0  0  0  0  0
  139.6483   70.7366  229.1693 H   0  0  0  0  0  0  0  0  0  0  0  0
  140.5763   68.4954  229.6863 H   0  0  0  0  0  0  0  0  0  0  0  0
  141.4184   67.0787  227.7856 H   0  0  0  0  0  0  0  0  0  0  0  0
  141.3029   67.9407  225.4848 H   0  0  0  0  0  0  0  0  0  0  0  0
  133.1283   69.4433  226.6558 H   0  0  0  0  0  0  0  0  0  0  0  0
  131.7915   71.2071  227.8080 H   0  0  0  0  0  0  0  0  0  0  0  0
  131.3934   73.5827  228.1537 H   0  0  0  0  0  0  0  0  0  0  0  0
  133.8537   76.4699  226.0714 H   0  0  0  0  0  0  0  0  0  0  0  0
  135.1373   74.6304  224.9703 H   0  0  0  0  0  0  0  0  0  0  0  0
  1  2  2  0
  2  3  1  0
  3  4  1  0
  4  5  1  0
  5  6  2  0
  5  7  1  0
  7  8  1  0
  8  9  1  0
  9 10  1  0
  9 11  1  0
 11 12  1  0
 12 13  1  0
 13 14  2  0
 14 15  1  0
 15 16  2  0
 16 17  1  0
 17 18  2  0
  2 19  1  0
 19 20  2  0
 20 21  1  0
 21 22  2  0
 22 23  1  0
 23 24  2  0
 24 25  1  0
 24 26  1  0
 26 27  2  0
 27 28  1  0
 28 29  2  0
 12  7  1  0
 18 13  1  0
 29 19  1  0
 28 22  1  0
  3 30  1  0
  4 31  1  0
  4 32  1  0
  8 33  1  0
  8 34  1  0
  9 35  1  1
 11 36  1  0
 11 37  1  0
 12 38  1  6
 14 39  1  0
 15 40  1  0
 16 41  1  0
 17 42  1  0
 18 43  1  0
 20 44  1  0
 21 45  1  0
 23 46  1  0
 26 47  1  0
 27 48  1  0
M  END
>  <smiles>  (13) 
O=C(NCC(=O)N1C[C@H](F)C[C@H]1c1ccccc1)c1ccc2cc(Cl)ccc2n1

>  <score_type>  (13) 
oracle

>  <origin>  (13) 
autodockgpu

>  <m_score__min__energy>  (13) 
-8.6999999999999993

>  <m_primary>  (13) 
energy

>  <rmsd>  (13) 
7.279949463551377

>  <m_score__min__rmsd>  (13) 
7.279949463551377

>  <meeko>  (13) 
{"free_energy": -8.61, "intermolecular_energy": -10.1, "internal_energy": -1.6, "cluster_size": 13, "cluster_id": 2, "rank_in_cluster": 2}

>  <energy>  (13) 
-7.84

>  <cluster_rmsd>  (13) 
1.67

>  <cluster>  (13) 
1

$$$$

     RDKit          3D

 48 51  0  0  0  0  0  0  0  0999 V2000
  133.8580   70.7880  224.9160 O   0  0  0  0  0  0  0  0  0  0  0  0
  134.7130   71.7220  224.9770 C   0  0  0  0  0  0  0  0  0  0  0  0
  136.0510   71.4450  224.5680 N   0  0  0  0  0  0  0  0  0  0  0  0
  136.3660   70.1320  224.1100 C   0  0  0  0  0  0  0  0  0  0  0  0
  137.7690   69.7310  224.4950 C   0  0  0  0  0  0  0  0  0  0  0  0
  137.8530   68.6910  225.1980 O   0  0  0  0  0  0  0  0  0  0  0  0
  138.8730   70.5000  224.0720 N   0  0  0  0  0  0  0  0  0  0  0  0
  138.8330   71.5140  223.0090 C   0  0  0  0  0  0  0  0  0  0  0  0
  140.1450   72.2560  223.1150 C   0  0  2  0  0  0  0  0  0  0  0  0
  141.0500   71.7360  222.1800 F   0  0  0  0  0  0  0  0  0  0  0  0
  140.6600   71.8740  224.4860 C   0  0  0  0  0  0  0  0  0  0  0  0
  140.1860   70.4330  224.5840 C   0  0  1  0  0  0  0  0  0  0  0  0
  140.3820   69.8990  225.9220 C   0  0  0  0  0  0  0  0  0  0  0  0
  140.2930   70.7140  227.0610 C   0  0  0  0  0  0  0  0  0  0  0  0
  140.4780   70.2110  228.3140 C   0  0  0  0  0  0  0  0  0  0  0  0
  140.7600   68.8790  228.5300 C   0  0  0  0  0  0  0  0  0  0  0  0
  140.8550   68.0450  227.4190 C   0  0  0  0  0  0  0  0  0  0  0  0
  140.6640   68.5770  226.1560 C   0  0  0  0  0  0  0  0  0  0  0  0
  134.3710   73.0600  225.4490 C   0  0  0  0  0  0  0  0  0  0  0  0
  135.1150   74.1210  224.9710 C   0  0  0  0  0  0  0  0  0  0  0  0
  134.8750   75.4320  225.3540 C   0  0  0  0  0  0  0  0  0  0  0  0
  133.8350   75.6310  226.2560 C   0  0  0  0  0  0  0  0  0  0  0  0
  133.5480   76.9220  226.6770 C   0  0  0  0  0  0  0  0  0  0  0  0
  132.5010   77.0880  227.5790 C   0  0  0  0  0  0  0  0  0  0  0  0
  132.0890   78.6870  228.1480 Cl  0  0  0  0  0  0  0  0  0  0  0  0
  131.7630   76.0080  228.0500 C   0  0  0  0  0  0  0  0  0  0  0  0
  132.0530   74.7210  227.6280 C   0  0  0  0  0  0  0  0  0  0  0  0
  133.1010   74.5560  226.7240 C   0  0  0  0  0  0  0  0  0  0  0  0
  133.3690   73.2840  226.3230 N   0  0  0  0  0  0  0  0  0  0  0  0
  136.7740   72.2000  224.6100 H   0  0  0  0  0  0  0  0  0  0  0  0
  135.6562   69.4190  224.5547 H   0  0  0  0  0  0  0  0  0  0  0  0
  136.2949   70.1242  223.0123 H   0  0  0  0  0  0  0  0  0  0  0  0
  138.7400   71.0350  222.0231 H   0  0  0  0  0  0  0  0  0  0  0  0
  137.9709   72.1884  223.1183 H   0  0  0  0  0  0  0  0  0  0  0  0
  140.0307   73.3378  222.9515 H   0  0  0  0  0  0  0  0  0  0  0  0
  141.7566   71.9429  224.5390 H   0  0  0  0  0  0  0  0  0  0  0  0
  140.3061   72.5237  225.3001 H   0  0  0  0  0  0  0  0  0  0  0  0
  140.7562   69.6930  224.0033 H   0  0  0  0  0  0  0  0  0  0  0  0
  140.0686   71.7840  226.9396 H   0  0  0  0  0  0  0  0  0  0  0  0
  140.4001   70.8874  229.1780 H   0  0  0  0  0  0  0  0  0  0  0  0
  140.9053   68.4875  229.5476 H   0  0  0  0  0  0  0  0  0  0  0  0
  141.0793   66.9754  227.5440 H   0  0  0  0  0  0  0  0  0  0  0  0
  140.7427   67.9020  225.2910 H   0  0  0  0  0  0  0  0  0  0  0  0
  135.9289   73.9183  224.2594 H   0  0  0  0  0  0  0  0  0  0  0  0
  135.4743   76.2688  224.9658 H   0  0  0  0  0  0  0  0  0  0  0  0
  134.1270   77.7828  226.3111 H   0  0  0  0  0  0  0  0  0  0  0  0
  130.9427   76.1768  228.7631 H   0  0  0  0  0  0  0  0  0  0  0  0
  131.4761   73.8588  227.9937 H   0  0  0  0  0  0  0  0  0  0  0  0
  1  2  2  0
  2  3  1  0
  3  4  1  0
  4  5  1  0
  5  6  2  0
  5  7  1  0
  7  8  1  0
  8  9  1  0
  9 10  1  0
  9 11  1  0
 11 12  1  0
 12 13  1  0
 13 14  2  0
 14 15  1  0
 15 16  2  0
 16 17  1  0
 17 18  2  0
  2 19  1  0
 19 20  2  0
 20 21  1  0
 21 22  2  0
 22 23  1  0
 23 24  2  0
 24 25  1  0
 24 26  1  0
 26 27  2  0
 27 28  1  0
 28 29  2  0
 12  7  1  0
 18 13  1  0
 29 19  1  0
 28 22  1  0
  3 30  1  0
  4 31  1  0
  4 32  1  0
  8 33  1  0
  8 34  1  0
  9 35  1  1
 11 36  1  0
 11 37  1  0
 12 38  1  6
 14 39  1  0
 15 40  1  0
 16 41  1  0
 17 42  1  0
 18 43  1  0
 20 44  1  0
 21 45  1  0
 23 46  1  0
 26 47  1  0
 27 48  1  0
M  END
>  <smiles>  (14) 
O=C(NCC(=O)N1C[C@H](F)C[C@H]1c1ccccc1)c1ccc2cc(Cl)ccc2n1

>  <score_type>  (14) 
oracle

>  <origin>  (14) 
autodockgpu

>  <m_score__min__energy>  (14) 
-8.6999999999999993

>  <m_primary>  (14) 
energy

>  <rmsd>  (14) 
7.782159451887365

>  <m_score__min__rmsd>  (14) 
7.782159451887365

>  <meeko>  (14) 
{"free_energy": -8.27, "intermolecular_energy": -9.76, "internal_energy": -1.23, "cluster_size": 13, "cluster_id": 2, "rank_in_cluster": 12}

>  <energy>  (14) 
-7.75

>  <cluster_rmsd>  (14) 
1.55

>  <cluster>  (14) 
1

$$$$

     RDKit          3D

 48 51  0  0  0  0  0  0  0  0999 V2000
  134.7490   68.5020  225.0160 O   0  0  0  0  0  0  0  0  0  0  0  0
  135.1700   69.6940  224.9150 C   0  0  0  0  0  0  0  0  0  0  0  0
  136.3560   69.9330  224.1600 N   0  0  0  0  0  0  0  0  0  0  0  0
  137.0130   68.8230  223.5520 C   0  0  0  0  0  0  0  0  0  0  0  0
  138.4620   68.7410  223.9640 C   0  0  0  0  0  0  0  0  0  0  0  0
  138.8220   67.6320  224.4360 O   0  0  0  0  0  0  0  0  0  0  0  0
  139.3120   69.8570  223.8090 N   0  0  0  0  0  0  0  0  0  0  0  0
  139.1840   70.8710  222.7530 C   0  0  0  0  0  0  0  0  0  0  0  0
  140.1080   71.9930  223.1620 C   0  0  2  0  0  0  0  0  0  0  0  0
  141.3260   71.8640  222.4830 F   0  0  0  0  0  0  0  0  0  0  0  0
  140.3870   71.7100  224.6230 C   0  0  0  0  0  0  0  0  0  0  0  0
  140.4140   70.1910  224.6250 C   0  0  1  0  0  0  0  0  0  0  0  0
  140.4600   69.6620  225.9780 C   0  0  0  0  0  0  0  0  0  0  0  0
  141.0350   68.4140  226.2630 C   0  0  0  0  0  0  0  0  0  0  0  0
  141.0770   67.9200  227.5320 C   0  0  0  0  0  0  0  0  0  0  0  0
  140.5590   68.6180  228.6030 C   0  0  0  0  0  0  0  0  0  0  0  0
  139.9820   69.8590  228.3520 C   0  0  0  0  0  0  0  0  0  0  0  0
  139.9500   70.3410  227.0550 C   0  0  0  0  0  0  0  0  0  0  0  0
  134.4830   70.8160  225.5450 C   0  0  0  0  0  0  0  0  0  0  0  0
  133.5370   70.5320  226.5110 C   0  0  0  0  0  0  0  0  0  0  0  0
  132.8260   71.5220  227.1710 C   0  0  0  0  0  0  0  0  0  0  0  0
  133.1130   72.8350  226.8100 C   0  0  0  0  0  0  0  0  0  0  0  0
  132.4330   73.8690  227.4360 C   0  0  0  0  0  0  0  0  0  0  0  0
  132.7440   75.1710  227.0540 C   0  0  0  0  0  0  0  0  0  0  0  0
  131.9230   76.5180  227.8040 Cl  0  0  0  0  0  0  0  0  0  0  0  0
  133.6990   75.4370  226.0790 C   0  0  0  0  0  0  0  0  0  0  0  0
  134.3750   74.4030  225.4550 C   0  0  0  0  0  0  0  0  0  0  0  0
  134.0640   73.1000  225.8410 C   0  0  0  0  0  0  0  0  0  0  0  0
  134.7400   72.0980  225.2160 N   0  0  0  0  0  0  0  0  0  0  0  0
  136.7230   70.9070  224.0630 H   0  0  0  0  0  0  0  0  0  0  0  0
  136.5029   67.8967  223.8548 H   0  0  0  0  0  0  0  0  0  0  0  0
  136.9727   68.9552  222.4607 H   0  0  0  0  0  0  0  0  0  0  0  0
  139.4893   70.4556  221.7813 H   0  0  0  0  0  0  0  0  0  0  0  0
  138.1456   71.2161  222.6403 H   0  0  0  0  0  0  0  0  0  0  0  0
  139.6789   72.9853  222.9589 H   0  0  0  0  0  0  0  0  0  0  0  0
  141.3528   72.1315  224.9387 H   0  0  0  0  0  0  0  0  0  0  0  0
  139.6568   72.1511  225.3174 H   0  0  0  0  0  0  0  0  0  0  0  0
  141.3179   69.7205  224.2109 H   0  0  0  0  0  0  0  0  0  0  0  0
  141.4623   67.8200  225.4417 H   0  0  0  0  0  0  0  0  0  0  0  0
  141.5371   66.9364  227.7075 H   0  0  0  0  0  0  0  0  0  0  0  0
  140.6007   68.2069  229.6224 H   0  0  0  0  0  0  0  0  0  0  0  0
  139.5558   70.4507  229.1756 H   0  0  0  0  0  0  0  0  0  0  0  0
  139.4895   71.3242  226.8780 H   0  0  0  0  0  0  0  0  0  0  0  0
  133.3406   69.4802  226.7661 H   0  0  0  0  0  0  0  0  0  0  0  0
  132.0754   71.2827  227.9387 H   0  0  0  0  0  0  0  0  0  0  0  0
  131.6748   73.6674  228.2070 H   0  0  0  0  0  0  0  0  0  0  0  0
  133.9191   76.4783  225.8012 H   0  0  0  0  0  0  0  0  0  0  0  0
  135.1313   74.6023  224.6815 H   0  0  0  0  0  0  0  0  0  0  0  0
  1  2  2  0
  2  3  1  0
  3  4  1  0
  4  5  1  0
  5  6  2  0
  5  7  1  0
  7  8  1  0
  8  9  1  0
  9 10  1  0
  9 11  1  0
 11 12  1  0
 12 13  1  0
 13 14  2  0
 14 15  1  0
 15 16  2  0
 16 17  1  0
 17 18  2  0
  2 19  1  0
 19 20  2  0
 20 21  1  0
 21 22  2  0
 22 23  1  0
 23 24  2  0
 24 25  1  0
 24 26  1  0
 26 27  2  0
 27 28  1  0
 28 29  2  0
 12  7  1  0
 18 13  1  0
 29 19  1  0
 28 22  1  0
  3 30  1  0
  4 31  1  0
  4 32  1  0
  8 33  1  0
  8 34  1  0
  9 35  1  1
 11 36  1  0
 11 37  1  0
 12 38  1  6
 14 39  1  0
 15 40  1  0
 16 41  1  0
 17 42  1  0
 18 43  1  0
 20 44  1  0
 21 45  1  0
 23 46  1  0
 26 47  1  0
 27 48  1  0
M  END
>  <smiles>  (15) 
O=C(NCC(=O)N1C[C@H](F)C[C@H]1c1ccccc1)c1ccc2cc(Cl)ccc2n1

>  <score_type>  (15) 
oracle

>  <origin>  (15) 
autodockgpu

>  <m_score__min__energy>  (15) 
-8.6999999999999993

>  <m_primary>  (15) 
energy

>  <rmsd>  (15) 
7.271253427283796

>  <m_score__min__rmsd>  (15) 
7.271253427283796

>  <meeko>  (15) 
{"free_energy": -8.58, "intermolecular_energy": -10.07, "internal_energy": -1.62, "cluster_size": 13, "cluster_id": 2, "rank_in_cluster": 4}

>  <energy>  (15) 
-7.38

>  <cluster_rmsd>  (15) 
1.35

>  <cluster>  (15) 
1

$$$$

     RDKit          3D

 48 51  0  0  0  0  0  0  0  0999 V2000
  134.8670   68.4530  225.0010 O   0  0  0  0  0  0  0  0  0  0  0  0
  135.3410   69.6170  224.8290 C   0  0  0  0  0  0  0  0  0  0  0  0
  136.5430   69.7560  224.0730 N   0  0  0  0  0  0  0  0  0  0  0  0
  137.1550   68.5820  223.5450 C   0  0  0  0  0  0  0  0  0  0  0  0
  138.6350   68.5460  223.8400 C   0  0  0  0  0  0  0  0  0  0  0  0
  139.0870   67.4190  224.1650 O   0  0  0  0  0  0  0  0  0  0  0  0
  139.4100   69.7210  223.7420 N   0  0  0  0  0  0  0  0  0  0  0  0
  139.2630   70.7410  222.6950 C   0  0  0  0  0  0  0  0  0  0  0  0
  140.0860   71.9180  223.1640 C   0  0  2  0  0  0  0  0  0  0  0  0
  141.3410   71.8850  222.5440 F   0  0  0  0  0  0  0  0  0  0  0  0
  140.3120   71.6300  224.6330 C   0  0  0  0  0  0  0  0  0  0  0  0
  140.4450   70.1170  224.6160 C   0  0  1  0  0  0  0  0  0  0  0  0
  140.4620   69.5700  225.9630 C   0  0  0  0  0  0  0  0  0  0  0  0
  139.9300   70.2760  227.0520 C   0  0  0  0  0  0  0  0  0  0  0  0
  139.9470   69.7620  228.3140 C   0  0  0  0  0  0  0  0  0  0  0  0
  140.4850   68.5220  228.5880 C   0  0  0  0  0  0  0  0  0  0  0  0
  141.0220   67.7970  227.5280 C   0  0  0  0  0  0  0  0  0  0  0  0
  140.9930   68.3390  226.2540 C   0  0  0  0  0  0  0  0  0  0  0  0
  134.6980   70.8070  225.3780 C   0  0  0  0  0  0  0  0  0  0  0  0
  133.7080   70.6240  226.3250 C   0  0  0  0  0  0  0  0  0  0  0  0
  133.0330   71.6840  226.9110 C   0  0  0  0  0  0  0  0  0  0  0  0
  133.4050   72.9590  226.4950 C   0  0  0  0  0  0  0  0  0  0  0  0
  132.7650   74.0600  227.0450 C   0  0  0  0  0  0  0  0  0  0  0  0
  133.1590   75.3210  226.6090 C   0  0  0  0  0  0  0  0  0  0  0  0
  132.3930   76.7470  227.2630 Cl  0  0  0  0  0  0  0  0  0  0  0  0
  134.1580   75.4840  225.6550 C   0  0  0  0  0  0  0  0  0  0  0  0
  134.7940   74.3840  225.1070 C   0  0  0  0  0  0  0  0  0  0  0  0
  134.3980   73.1220  225.5460 C   0  0  0  0  0  0  0  0  0  0  0  0
  135.0370   72.0540  224.9950 N   0  0  0  0  0  0  0  0  0  0  0  0
  136.9530   70.7050  223.9190 H   0  0  0  0  0  0  0  0  0  0  0  0
  136.6796   67.6982  223.9955 H   0  0  0  0  0  0  0  0  0  0  0  0
  137.0219   68.5861  222.4531 H   0  0  0  0  0  0  0  0  0  0  0  0
  139.6431   70.3639  221.7341 H   0  0  0  0  0  0  0  0  0  0  0  0
  138.2097   71.0154  222.5359 H   0  0  0  0  0  0  0  0  0  0  0  0
  139.5997   72.8819  222.9532 H   0  0  0  0  0  0  0  0  0  0  0  0
  141.2293   72.1118  225.0024 H   0  0  0  0  0  0  0  0  0  0  0  0
  139.5194   72.0076  225.2957 H   0  0  0  0  0  0  0  0  0  0  0  0
  141.3986   69.7172  224.2408 H   0  0  0  0  0  0  0  0  0  0  0  0
  139.4881   71.2691  226.8832 H   0  0  0  0  0  0  0  0  0  0  0  0
  139.5195   70.3529  229.1375 H   0  0  0  0  0  0  0  0  0  0  0  0
  140.4896   68.1188  229.6114 H   0  0  0  0  0  0  0  0  0  0  0  0
  141.4644   66.8047  227.7004 H   0  0  0  0  0  0  0  0  0  0  0  0
  141.4196   67.7494  225.4291 H   0  0  0  0  0  0  0  0  0  0  0  0
  133.4457   69.5988  226.6251 H   0  0  0  0  0  0  0  0  0  0  0  0
  132.2465   71.5259  227.6636 H   0  0  0  0  0  0  0  0  0  0  0  0
  131.9736   73.9402  227.7995 H   0  0  0  0  0  0  0  0  0  0  0  0
  134.4449   76.4960  225.3334 H   0  0  0  0  0  0  0  0  0  0  0  0
  135.5846   74.5016  224.3512 H   0  0  0  0  0  0  0  0  0  0  0  0
  1  2  2  0
  2  3  1  0
  3  4  1  0
  4  5  1  0
  5  6  2  0
  5  7  1  0
  7  8  1  0
  8  9  1  0
  9 10  1  0
  9 11  1  0
 11 12  1  0
 12 13  1  0
 13 14  2  0
 14 15  1  0
 15 16  2  0
 16 17  1  0
 17 18  2  0
  2 19  1  0
 19 20  2  0
 20 21  1  0
 21 22  2  0
 22 23  1  0
 23 24  2  0
 24 25  1  0
 24 26  1  0
 26 27  2  0
 27 28  1  0
 28 29  2  0
 12  7  1  0
 18 13  1  0
 29 19  1  0
 28 22  1  0
  3 30  1  0
  4 31  1  0
  4 32  1  0
  8 33  1  0
  8 34  1  0
  9 35  1  1
 11 36  1  0
 11 37  1  0
 12 38  1  6
 14 39  1  0
 15 40  1  0
 16 41  1  0
 17 42  1  0
 18 43  1  0
 20 44  1  0
 21 45  1  0
 23 46  1  0
 26 47  1  0
 27 48  1  0
M  END
>  <smiles>  (16) 
O=C(NCC(=O)N1C[C@H](F)C[C@H]1c1ccccc1)c1ccc2cc(Cl)ccc2n1

>  <score_type>  (16) 
oracle

>  <origin>  (16) 
autodockgpu

>  <m_score__min__energy>  (16) 
-8.6999999999999993

>  <m_primary>  (16) 
energy

>  <rmsd>  (16) 
7.20970644148366

>  <m_score__min__rmsd>  (16) 
7.20970644148366

>  <meeko>  (16) 
{"free_energy": -8.34, "intermolecular_energy": -9.83, "internal_energy": -1.69, "cluster_size": 13, "cluster_id": 2, "rank_in_cluster": 11}

>  <energy>  (16) 
-8.62

>  <cluster_rmsd>  (16) 
0.0

>  <cluster>  (16) 
2

$$$$

     RDKit          3D

 48 51  0  0  0  0  0  0  0  0999 V2000
  140.7540   72.6500  220.9270 O   0  0  0  0  0  0  0  0  0  0  0  0
  140.1820   72.9150  222.0280 C   0  0  0  0  0  0  0  0  0  0  0  0
  139.5470   74.1840  222.1750 N   0  0  0  0  0  0  0  0  0  0  0  0
  139.5850   75.0960  221.0800 C   0  0  0  0  0  0  0  0  0  0  0  0
  140.3740   76.3370  221.4160 C   0  0  0  0  0  0  0  0  0  0  0  0
  140.2650   76.7350  222.6040 O   0  0  0  0  0  0  0  0  0  0  0  0
  141.1640   76.9680  220.4320 N   0  0  0  0  0  0  0  0  0  0  0  0
  141.2860   76.5210  219.0380 C   0  0  0  0  0  0  0  0  0  0  0  0
  141.9850   77.6490  218.3160 C   0  0  2  0  0  0  0  0  0  0  0  0
  143.3530   77.3630  218.2180 F   0  0  0  0  0  0  0  0  0  0  0  0
  141.8470   78.8190  219.2660 C   0  0  0  0  0  0  0  0  0  0  0  0
  141.9620   78.1180  220.6090 C   0  0  1  0  0  0  0  0  0  0  0  0
  141.6470   79.0180  221.7070 C   0  0  0  0  0  0  0  0  0  0  0  0
  142.5650   79.2750  222.7360 C   0  0  0  0  0  0  0  0  0  0  0  0
  142.2670   80.1190  223.7640 C   0  0  0  0  0  0  0  0  0  0  0  0
  141.0530   80.7650  223.8470 C   0  0  0  0  0  0  0  0  0  0  0  0
  140.1200   80.5310  222.8400 C   0  0  0  0  0  0  0  0  0  0  0  0
  140.4440   79.6700  221.8060 C   0  0  0  0  0  0  0  0  0  0  0  0
  140.1550   71.9680  223.1370 C   0  0  0  0  0  0  0  0  0  0  0  0
  139.5780   70.7320  222.9150 C   0  0  0  0  0  0  0  0  0  0  0  0
  139.4990   69.7590  223.8990 C   0  0  0  0  0  0  0  0  0  0  0  0
  140.0360   70.0890  225.1390 C   0  0  0  0  0  0  0  0  0  0  0  0
  139.9860   69.1560  226.1640 C   0  0  0  0  0  0  0  0  0  0  0  0
  140.5310   69.5160  227.3930 C   0  0  0  0  0  0  0  0  0  0  0  0
  140.5000   68.3860  228.7240 Cl  0  0  0  0  0  0  0  0  0  0  0  0
  141.1070   70.7650  227.5980 C   0  0  0  0  0  0  0  0  0  0  0  0
  141.1550   71.6950  226.5740 C   0  0  0  0  0  0  0  0  0  0  0  0
  140.6090   71.3320  225.3430 C   0  0  0  0  0  0  0  0  0  0  0  0
  140.6660   72.2600  224.3500 N   0  0  0  0  0  0  0  0  0  0  0  0
  139.0700   74.4250  223.0730 H   0  0  0  0  0  0  0  0  0  0  0  0
  140.0528   74.5986  220.2176 H   0  0  0  0  0  0  0  0  0  0  0  0
  138.5528   75.3976  220.8483 H   0  0  0  0  0  0  0  0  0  0  0  0
  141.8825   75.5986  218.9802 H   0  0  0  0  0  0  0  0  0  0  0  0
  140.3057   76.2951  218.5930 H   0  0  0  0  0  0  0  0  0  0  0  0
  141.5746   77.8216  217.3101 H   0  0  0  0  0  0  0  0  0  0  0  0
  142.6540   79.5527  219.1230 H   0  0  0  0  0  0  0  0  0  0  0  0
  140.9229   79.4014  219.1365 H   0  0  0  0  0  0  0  0  0  0  0  0
  142.9732   77.8054  220.9088 H   0  0  0  0  0  0  0  0  0  0  0  0
  143.5489   78.7837  222.7128 H   0  0  0  0  0  0  0  0  0  0  0  0
  143.0175   80.2892  224.5500 H   0  0  0  0  0  0  0  0  0  0  0  0
  140.8277   81.4442  224.6824 H   0  0  0  0  0  0  0  0  0  0  0  0
  139.1373   81.0246  222.8661 H   0  0  0  0  0  0  0  0  0  0  0  0
  139.6946   79.4988  221.0191 H   0  0  0  0  0  0  0  0  0  0  0  0
  139.1656   70.5119  221.9192 H   0  0  0  0  0  0  0  0  0  0  0  0
  139.0367   68.7790  223.7096 H   0  0  0  0  0  0  0  0  0  0  0  0
  139.5315   68.1661  226.0109 H   0  0  0  0  0  0  0  0  0  0  0  0
  141.5282   71.0161  228.5827 H   0  0  0  0  0  0  0  0  0  0  0  0
  141.6080   72.6858  226.7258 H   0  0  0  0  0  0  0  0  0  0  0  0
  1  2  2  0
  2  3  1  0
  3  4  1  0
  4  5  1  0
  5  6  2  0
  5  7  1  0
  7  8  1  0
  8  9  1  0
  9 10  1  0
  9 11  1  0
 11 12  1  0
 12 13  1  0
 13 14  2  0
 14 15  1  0
 15 16  2  0
 16 17  1  0
 17 18  2  0
  2 19  1  0
 19 20  2  0
 20 21  1  0
 21 22  2  0
 22 23  1  0
 23 24  2  0
 24 25  1  0
 24 26  1  0
 26 27  2  0
 27 28  1  0
 28 29  2  0
 12  7  1  0
 18 13  1  0
 29 19  1  0
 28 22  1  0
  3 30  1  0
  4 31  1  0
  4 32  1  0
  8 33  1  0
  8 34  1  0
  9 35  1  6
 11 36  1  0
 11 37  1  0
 12 38  1  1
 14 39  1  0
 15 40  1  0
 16 41  1  0
 17 42  1  0
 18 43  1  0
 20 44  1  0
 21 45  1  0
 23 46  1  0
 26 47  1  0
 27 48  1  0
M  END
>  <smiles>  (17) 
O=C(NCC(=O)N1C[C@H](F)C[C@H]1c1ccccc1)c1ccc2cc(Cl)ccc2n1

>  <score_type>  (17) 
oracle

>  <origin>  (17) 
autodockgpu

>  <m_score__min__energy>  (17) 
-8.6999999999999993

>  <m_primary>  (17) 
energy

>  <rmsd>  (17) 
1.8689601127209126

>  <m_score__min__rmsd>  (17) 
1.8689601127209126

>  <meeko>  (17) 
{"free_energy": -8.7, "intermolecular_energy": -10.19, "internal_energy": -1.37, "cluster_size": 15, "cluster_id": 1, "rank_in_cluster": 1}

>  <energy>  (17) 
-8.61

>  <cluster_rmsd>  (17) 
0.06

>  <cluster>  (17) 
2

$$$$

     RDKit          3D

 48 51  0  0  0  0  0  0  0  0999 V2000
  140.1230   72.0410  220.7560 O   0  0  0  0  0  0  0  0  0  0  0  0
  139.9550   72.4390  221.9480 C   0  0  0  0  0  0  0  0  0  0  0  0
  139.7150   73.8270  222.1740 N   0  0  0  0  0  0  0  0  0  0  0  0
  139.6720   74.7030  221.0490 C   0  0  0  0  0  0  0  0  0  0  0  0
  140.7290   75.7760  221.1400 C   0  0  0  0  0  0  0  0  0  0  0  0
  141.0180   76.1440  222.3070 O   0  0  0  0  0  0  0  0  0  0  0  0
  141.3220   76.2940  219.9690 N   0  0  0  0  0  0  0  0  0  0  0  0
  141.0070   77.6010  219.3750 C   0  0  0  0  0  0  0  0  0  0  0  0
  142.0740   77.8340  218.3320 C   0  0  2  0  0  0  0  0  0  0  0  0
  141.5810   77.4720  217.0720 F   0  0  0  0  0  0  0  0  0  0  0  0
  143.1470   76.8280  218.6910 C   0  0  0  0  0  0  0  0  0  0  0  0
  142.3030   75.6620  219.1760 C   0  0  1  0  0  0  0  0  0  0  0  0
  143.1240   74.6270  219.7830 C   0  0  0  0  0  0  0  0  0  0  0  0
  144.4280   74.8880  220.2280 C   0  0  0  0  0  0  0  0  0  0  0  0
  145.1960   73.9160  220.7970 C   0  0  0  0  0  0  0  0  0  0  0  0
  144.7340   72.6290  220.9650 C   0  0  0  0  0  0  0  0  0  0  0  0
  143.4430   72.3380  220.5320 C   0  0  0  0  0  0  0  0  0  0  0  0
  142.6810   73.3410  219.9580 C   0  0  0  0  0  0  0  0  0  0  0  0
  140.0020   71.5270  223.0860 C   0  0  0  0  0  0  0  0  0  0  0  0
  139.5070   70.2490  222.9070 C   0  0  0  0  0  0  0  0  0  0  0  0
  139.5030   69.3030  223.9210 C   0  0  0  0  0  0  0  0  0  0  0  0
  140.0280   69.7070  225.1450 C   0  0  0  0  0  0  0  0  0  0  0  0
  140.0500   68.8040  226.1980 C   0  0  0  0  0  0  0  0  0  0  0  0
  140.5820   69.2370  227.4080 C   0  0  0  0  0  0  0  0  0  0  0  0
  140.6390   68.1490  228.7730 Cl  0  0  0  0  0  0  0  0  0  0  0  0
  141.0740   70.5270  227.5700 C   0  0  0  0  0  0  0  0  0  0  0  0
  141.0500   71.4260  226.5180 C   0  0  0  0  0  0  0  0  0  0  0  0
  140.5180   70.9900  225.3050 C   0  0  0  0  0  0  0  0  0  0  0  0
  140.5040   71.8890  224.2840 N   0  0  0  0  0  0  0  0  0  0  0  0
  139.5740   74.1790  223.1480 H   0  0  0  0  0  0  0  0  0  0  0  0
  139.8367   74.1163  220.1332 H   0  0  0  0  0  0  0  0  0  0  0  0
  138.6865   75.1914  221.0306 H   0  0  0  0  0  0  0  0  0  0  0  0
  140.0107   77.5821  218.9091 H   0  0  0  0  0  0  0  0  0  0  0  0
  140.9909   78.4008  220.1301 H   0  0  0  0  0  0  0  0  0  0  0  0
  142.4137   78.8799  218.3047 H   0  0  0  0  0  0  0  0  0  0  0  0
  143.7511   76.5519  217.8142 H   0  0  0  0  0  0  0  0  0  0  0  0
  143.8812   77.1916  219.4249 H   0  0  0  0  0  0  0  0  0  0  0  0
  141.8018   75.0681  218.3975 H   0  0  0  0  0  0  0  0  0  0  0  0
  144.8410   75.9013  220.1152 H   0  0  0  0  0  0  0  0  0  0  0  0
  146.2135   74.1664  221.1315 H   0  0  0  0  0  0  0  0  0  0  0  0
  145.3652   71.8555  221.4268 H   0  0  0  0  0  0  0  0  0  0  0  0
  143.0336   71.3233  220.6447 H   0  0  0  0  0  0  0  0  0  0  0  0
  141.6630   73.0926  219.6234 H   0  0  0  0  0  0  0  0  0  0  0  0
  139.1009   69.9718  221.9230 H   0  0  0  0  0  0  0  0  0  0  0  0
  139.1065   68.2887  223.7664 H   0  0  0  0  0  0  0  0  0  0  0  0
  139.6606   67.7820  226.0802 H   0  0  0  0  0  0  0  0  0  0  0  0
  141.4857   70.8358  228.5422 H   0  0  0  0  0  0  0  0  0  0  0  0
  141.4372   72.4490  226.6347 H   0  0  0  0  0  0  0  0  0  0  0  0
  1  2  2  0
  2  3  1  0
  3  4  1  0
  4  5  1  0
  5  6  2  0
  5  7  1  0
  7  8  1  0
  8  9  1  0
  9 10  1  0
  9 11  1  0
 11 12  1  0
 12 13  1  0
 13 14  2  0
 14 15  1  0
 15 16  2  0
 16 17  1  0
 17 18  2  0
  2 19  1  0
 19 20  2  0
 20 21  1  0
 21 22  2  0
 22 23  1  0
 23 24  2  0
 24 25  1  0
 24 26  1  0
 26 27  2  0
 27 28  1  0
 28 29  2  0
 12  7  1  0
 18 13  1  0
 29 19  1  0
 28 22  1  0
  3 30  1  0
  4 31  1  0
  4 32  1  0
  8 33  1  0
  8 34  1  0
  9 35  1  6
 11 36  1  0
 11 37  1  0
 12 38  1  6
 14 39  1  0
 15 40  1  0
 16 41  1  0
 17 42  1  0
 18 43  1  0
 20 44  1  0
 21 45  1  0
 23 46  1  0
 26 47  1  0
 27 48  1  0
M  END
>  <smiles>  (18) 
O=C(NCC(=O)N1C[C@H](F)C[C@H]1c1ccccc1)c1ccc2cc(Cl)ccc2n1

>  <score_type>  (18) 
oracle

>  <origin>  (18) 
autodockgpu

>  <m_score__min__energy>  (18) 
-8.6999999999999993

>  <m_primary>  (18) 
energy

>  <rmsd>  (18) 
2.0925419414082818

>  <m_score__min__rmsd>  (18) 
2.0925419414082818

>  <meeko>  (18) 
{"free_energy": -8.28, "intermolecular_energy": -9.77, "internal_energy": -1.99, "cluster_size": 20, "cluster_id": 4, "rank_in_cluster": 2}

>  <energy>  (18) 
-8.6

>  <cluster_rmsd>  (18) 
0.05

>  <cluster>  (18) 
2

$$$$

     RDKit          3D

 48 51  0  0  0  0  0  0  0  0999 V2000
  134.7500   68.5140  224.9510 O   0  0  0  0  0  0  0  0  0  0  0  0
  135.2260   69.6850  224.8430 C   0  0  0  0  0  0  0  0  0  0  0  0
  136.4430   69.8600  224.1190 N   0  0  0  0  0  0  0  0  0  0  0  0
  137.0670   68.7130  223.5490 C   0  0  0  0  0  0  0  0  0  0  0  0
  138.5280   68.6320  223.9200 C   0  0  0  0  0  0  0  0  0  0  0  0
  138.9180   67.5040  224.3140 O   0  0  0  0  0  0  0  0  0  0  0  0
  139.3540   69.7710  223.8140 N   0  0  0  0  0  0  0  0  0  0  0  0
  139.2500   70.7900  222.7610 C   0  0  0  0  0  0  0  0  0  0  0  0
  140.1250   71.9320  223.2210 C   0  0  2  0  0  0  0  0  0  0  0  0
  141.3760   71.8400  222.6000 F   0  0  0  0  0  0  0  0  0  0  0  0
  140.3420   71.6440  224.6920 C   0  0  0  0  0  0  0  0  0  0  0  0
  140.4070   70.1260  224.6830 C   0  0  1  0  0  0  0  0  0  0  0  0
  140.4030   69.5860  226.0340 C   0  0  0  0  0  0  0  0  0  0  0  0
  141.0650   68.3900  226.3510 C   0  0  0  0  0  0  0  0  0  0  0  0
  141.0600   67.8870  227.6180 C   0  0  0  0  0  0  0  0  0  0  0  0
  140.4070   68.5240  228.6520 C   0  0  0  0  0  0  0  0  0  0  0  0
  139.7410   69.7120  228.3680 C   0  0  0  0  0  0  0  0  0  0  0  0
  139.7590   70.2050  227.0740 C   0  0  0  0  0  0  0  0  0  0  0  0
  134.5710   70.8470  225.4350 C   0  0  0  0  0  0  0  0  0  0  0  0
  133.5670   70.6200  226.3570 C   0  0  0  0  0  0  0  0  0  0  0  0
  132.8800   71.6510  226.9790 C   0  0  0  0  0  0  0  0  0  0  0  0
  133.2530   72.9440  226.6260 C   0  0  0  0  0  0  0  0  0  0  0  0
  132.6010   74.0170  227.2150 C   0  0  0  0  0  0  0  0  0  0  0  0
  132.9970   75.2980  226.8410 C   0  0  0  0  0  0  0  0  0  0  0  0
  132.2160   76.6910  227.5460 Cl  0  0  0  0  0  0  0  0  0  0  0  0
  134.0090   75.5060  225.9110 C   0  0  0  0  0  0  0  0  0  0  0  0
  134.6580   74.4340  225.3240 C   0  0  0  0  0  0  0  0  0  0  0  0
  134.2600   73.1510  225.7000 C   0  0  0  0  0  0  0  0  0  0  0  0
  134.9110   72.1110  225.1120 N   0  0  0  0  0  0  0  0  0  0  0  0
  136.8540   70.8160  224.0180 H   0  0  0  0  0  0  0  0  0  0  0  0
  136.5556   67.8101  223.9141 H   0  0  0  0  0  0  0  0  0  0  0  0
  136.9943   68.7907  222.4542 H   0  0  0  0  0  0  0  0  0  0  0  0
  139.6110   70.3906  221.8018 H   0  0  0  0  0  0  0  0  0  0  0  0
  138.2096   71.1098  222.6022 H   0  0  0  0  0  0  0  0  0  0  0  0
  139.6805   72.9146  223.0044 H   0  0  0  0  0  0  0  0  0  0  0  0
  141.2809   72.0865  225.0562 H   0  0  0  0  0  0  0  0  0  0  0  0
  139.5695   72.0611  225.3548 H   0  0  0  0  0  0  0  0  0  0  0  0
  141.3409   69.6823  224.3075 H   0  0  0  0  0  0  0  0  0  0  0  0
  141.6003   67.8459  225.5589 H   0  0  0  0  0  0  0  0  0  0  0  0
  141.5921   66.9460  227.8213 H   0  0  0  0  0  0  0  0  0  0  0  0
  140.4125   68.1060  229.6695 H   0  0  0  0  0  0  0  0  0  0  0  0
  139.2062   70.2535  229.1622 H   0  0  0  0  0  0  0  0  0  0  0  0
  139.2269   71.1457  226.8692 H   0  0  0  0  0  0  0  0  0  0  0  0
  133.3029   69.5818  226.6068 H   0  0  0  0  0  0  0  0  0  0  0  0
  132.0831   71.4572  227.7120 H   0  0  0  0  0  0  0  0  0  0  0  0
  131.7992   73.8613  227.9518 H   0  0  0  0  0  0  0  0  0  0  0  0
  134.2966   76.5323  225.6391 H   0  0  0  0  0  0  0  0  0  0  0  0
  135.4597   74.5882  224.5867 H   0  0  0  0  0  0  0  0  0  0  0  0
  1  2  2  0
  2  3  1  0
  3  4  1  0
  4  5  1  0
  5  6  2  0
  5  7  1  0
  7  8  1  0
  8  9  1  0
  9 10  1  0
  9 11  1  0
 11 12  1  0
 12 13  1  0
 13 14  2  0
 14 15  1  0
 15 16  2  0
 16 17  1  0
 17 18  2  0
  2 19  1  0
 19 20  2  0
 20 21  1  0
 21 22  2  0
 22 23  1  0
 23 24  2  0
 24 25  1  0
 24 26  1  0
 26 27  2  0
 27 28  1  0
 28 29  2  0
 12  7  1  0
 18 13  1  0
 29 19  1  0
 28 22  1  0
  3 30  1  0
  4 31  1  0
  4 32  1  0
  8 33  1  0
  8 34  1  0
  9 35  1  1
 11 36  1  0
 11 37  1  0
 12 38  1  6
 14 39  1  0
 15 40  1  0
 16 41  1  0
 17 42  1  0
 18 43  1  0
 20 44  1  0
 21 45  1  0
 23 46  1  0
 26 47  1  0
 27 48  1  0
M  END
>  <smiles>  (19) 
O=C(NCC(=O)N1C[C@H](F)C[C@H]1c1ccccc1)c1ccc2cc(Cl)ccc2n1

>  <score_type>  (19) 
oracle

>  <origin>  (19) 
autodockgpu

>  <m_score__min__energy>  (19) 
-8.6999999999999993

>  <m_primary>  (19) 
energy

>  <rmsd>  (19) 
7.256308066985637

>  <m_score__min__rmsd>  (19) 
7.256308066985637

>  <meeko>  (19) 
{"free_energy": -8.45, "intermolecular_energy": -9.94, "internal_energy": -1.69, "cluster_size": 13, "cluster_id": 2, "rank_in_cluster": 9}

>  <energy>  (19) 
-8.58

>  <cluster_rmsd>  (19) 
0.17

>  <cluster>  (19) 
2

$$$$

     RDKit          3D

 48 51  0  0  0  0  0  0  0  0999 V2000
  134.8440   68.5350  225.2370 O   0  0  0  0  0  0  0  0  0  0  0  0
  135.1420   69.7500  225.0300 C   0  0  0  0  0  0  0  0  0  0  0  0
  136.2340   70.0420  224.1590 N   0  0  0  0  0  0  0  0  0  0  0  0
  136.9390   68.9560  223.5620 C   0  0  0  0  0  0  0  0  0  0  0  0
  138.3520   68.8570  224.0820 C   0  0  0  0  0  0  0  0  0  0  0  0
  138.6320   67.7800  224.6670 O   0  0  0  0  0  0  0  0  0  0  0  0
  139.2560   69.9250  223.8980 N   0  0  0  0  0  0  0  0  0  0  0  0
  139.1440   70.9510  222.8520 C   0  0  0  0  0  0  0  0  0  0  0  0
  140.1460   72.0160  223.2290 C   0  0  2  0  0  0  0  0  0  0  0  0
  141.3270   71.8240  222.5000 F   0  0  0  0  0  0  0  0  0  0  0  0
  140.4660   71.7080  224.6760 C   0  0  0  0  0  0  0  0  0  0  0  0
  140.4070   70.1900  224.6700 C   0  0  1  0  0  0  0  0  0  0  0  0
  140.4770   69.6500  226.0180 C   0  0  0  0  0  0  0  0  0  0  0  0
  140.0080   70.3710  227.1260 C   0  0  0  0  0  0  0  0  0  0  0  0
  140.0750   69.8630  228.3890 C   0  0  0  0  0  0  0  0  0  0  0  0
  140.6050   68.6160  228.6450 C   0  0  0  0  0  0  0  0  0  0  0  0
  141.0790   67.8760  227.5660 C   0  0  0  0  0  0  0  0  0  0  0  0
  141.0010   68.4120  226.2920 C   0  0  0  0  0  0  0  0  0  0  0  0
  134.4090   70.8470  225.6510 C   0  0  0  0  0  0  0  0  0  0  0  0
  133.3730   70.5250  226.5080 C   0  0  0  0  0  0  0  0  0  0  0  0
  132.6110   71.4890  227.1510 C   0  0  0  0  0  0  0  0  0  0  0  0
  132.9430   72.8150  226.8890 C   0  0  0  0  0  0  0  0  0  0  0  0
  132.2150   73.8240  227.5030 C   0  0  0  0  0  0  0  0  0  0  0  0
  132.5710   75.1390  227.2210 C   0  0  0  0  0  0  0  0  0  0  0  0
  131.6950   76.4560  227.9620 Cl  0  0  0  0  0  0  0  0  0  0  0  0
  133.6150   75.4440  226.3550 C   0  0  0  0  0  0  0  0  0  0  0  0
  134.3390   74.4350  225.7430 C   0  0  0  0  0  0  0  0  0  0  0  0
  133.9820   73.1170  226.0280 C   0  0  0  0  0  0  0  0  0  0  0  0
  134.7060   72.1410  225.4160 N   0  0  0  0  0  0  0  0  0  0  0  0
  136.4990   71.0360  223.9730 H   0  0  0  0  0  0  0  0  0  0  0  0
  136.4090   68.0191  223.7884 H   0  0  0  0  0  0  0  0  0  0  0  0
  136.9836   69.1303  222.4768 H   0  0  0  0  0  0  0  0  0  0  0  0
  139.3865   70.5252  221.8672 H   0  0  0  0  0  0  0  0  0  0  0  0
  138.1233   71.3550  222.7817 H   0  0  0  0  0  0  0  0  0  0  0  0
  139.7662   73.0324  223.0482 H   0  0  0  0  0  0  0  0  0  0  0  0
  141.4658   72.0722  224.9548 H   0  0  0  0  0  0  0  0  0  0  0  0
  139.7900   72.1849  225.4010 H   0  0  0  0  0  0  0  0  0  0  0  0
  141.2654   69.6717  224.2176 H   0  0  0  0  0  0  0  0  0  0  0  0
  139.5756   71.3707  226.9719 H   0  0  0  0  0  0  0  0  0  0  0  0
  139.6955   70.4649  229.2279 H   0  0  0  0  0  0  0  0  0  0  0  0
  140.6516   68.2187  229.6697 H   0  0  0  0  0  0  0  0  0  0  0  0
  141.5107   66.8766  227.7236 H   0  0  0  0  0  0  0  0  0  0  0  0
  141.3805   67.8115  225.4521 H   0  0  0  0  0  0  0  0  0  0  0  0
  133.1444   69.4639  226.6866 H   0  0  0  0  0  0  0  0  0  0  0  0
  131.7891   71.2203  227.8309 H   0  0  0  0  0  0  0  0  0  0  0  0
  131.3861   73.5925  228.1881 H   0  0  0  0  0  0  0  0  0  0  0  0
  133.8679   76.4956  226.1544 H   0  0  0  0  0  0  0  0  0  0  0  0
  135.1668   74.6646  225.0560 H   0  0  0  0  0  0  0  0  0  0  0  0
  1  2  2  0
  2  3  1  0
  3  4  1  0
  4  5  1  0
  5  6  2  0
  5  7  1  0
  7  8  1  0
  8  9  1  0
  9 10  1  0
  9 11  1  0
 11 12  1  0
 12 13  1  0
 13 14  2  0
 14 15  1  0
 15 16  2  0
 16 17  1  0
 17 18  2  0
  2 19  1  0
 19 20  2  0
 20 21  1  0
 21 22  2  0
 22 23  1  0
 23 24  2  0
 24 25  1  0
 24 26  1  0
 26 27  2  0
 27 28  1  0
 28 29  2  0
 12  7  1  0
 18 13  1  0
 29 19  1  0
 28 22  1  0
  3 30  1  0
  4 31  1  0
  4 32  1  0
  8 33  1  0
  8 34  1  0
  9 35  1  1
 11 36  1  0
 11 37  1  0
 12 38  1  6
 14 39  1  0
 15 40  1  0
 16 41  1  0
 17 42  1  0
 18 43  1  0
 20 44  1  0
 21 45  1  0
 23 46  1  0
 26 47  1  0
 27 48  1  0
M  END
>  <smiles>  (20) 
O=C(NCC(=O)N1C[C@H](F)C[C@H]1c1ccccc1)c1ccc2cc(Cl)ccc2n1

>  <score_type>  (20) 
oracle

>  <origin>  (20) 
autodockgpu

>  <m_score__min__energy>  (20) 
-8.6999999999999993

>  <m_primary>  (20) 
energy

>  <rmsd>  (20) 
7.316759814090516

>  <m_score__min__rmsd>  (20) 
7.316759814090516

>  <meeko>  (20) 
{"free_energy": -8.53, "intermolecular_energy": -10.02, "internal_energy": -1.61, "cluster_size": 13, "cluster_id": 2, "rank_in_cluster": 8}

>  <energy>  (20) 
-8.57

>  <cluster_rmsd>  (20) 
0.07

>  <cluster>  (20) 
2

$$$$

     RDKit          3D

 48 51  0  0  0  0  0  0  0  0999 V2000
  140.6020   72.4580  220.7420 O   0  0  0  0  0  0  0  0  0  0  0  0
  140.2210   72.8340  221.8910 C   0  0  0  0  0  0  0  0  0  0  0  0
  139.8420   74.1980  222.0680 N   0  0  0  0  0  0  0  0  0  0  0  0
  139.9070   75.0750  220.9450 C   0  0  0  0  0  0  0  0  0  0  0  0
  141.3200   75.5280  220.6740 C   0  0  0  0  0  0  0  0  0  0  0  0
  142.2110   74.9020  221.3040 O   0  0  0  0  0  0  0  0  0  0  0  0
  141.5710   76.5810  219.7700 N   0  0  0  0  0  0  0  0  0  0  0  0
  141.5880   76.4470  218.3070 C   0  0  0  0  0  0  0  0  0  0  0  0
  141.6060   77.8610  217.7760 C   0  0  2  0  0  0  0  0  0  0  0  0
  142.9220   78.2260  217.4640 F   0  0  0  0  0  0  0  0  0  0  0  0
  141.1900   78.6940  218.9700 C   0  0  0  0  0  0  0  0  0  0  0  0
  141.8440   77.9250  220.1040 C   0  0  1  0  0  0  0  0  0  0  0  0
  141.4100   78.4190  221.4010 C   0  0  0  0  0  0  0  0  0  0  0  0
  142.3010   79.0440  222.2870 C   0  0  0  0  0  0  0  0  0  0  0  0
  141.8920   79.5060  223.5020 C   0  0  0  0  0  0  0  0  0  0  0  0
  140.5850   79.3850  223.9250 C   0  0  0  0  0  0  0  0  0  0  0  0
  139.6780   78.7690  223.0680 C   0  0  0  0  0  0  0  0  0  0  0  0
  140.1150   78.3070  221.8390 C   0  0  0  0  0  0  0  0  0  0  0  0
  140.1620   71.9220  223.0280 C   0  0  0  0  0  0  0  0  0  0  0  0
  139.5540   70.6960  222.8380 C   0  0  0  0  0  0  0  0  0  0  0  0
  139.4430   69.7540  223.8500 C   0  0  0  0  0  0  0  0  0  0  0  0
  139.9790   70.1070  225.0840 C   0  0  0  0  0  0  0  0  0  0  0  0
  139.8980   69.2060  226.1350 C   0  0  0  0  0  0  0  0  0  0  0  0
  140.4440   69.5890  227.3570 C   0  0  0  0  0  0  0  0  0  0  0  0
  140.3740   68.5000  228.7200 Cl  0  0  0  0  0  0  0  0  0  0  0  0
  141.0510   70.8270  227.5290 C   0  0  0  0  0  0  0  0  0  0  0  0
  141.1310   71.7250  226.4780 C   0  0  0  0  0  0  0  0  0  0  0  0
  140.5840   71.3400  225.2550 C   0  0  0  0  0  0  0  0  0  0  0  0
  140.6720   72.2360  224.2350 N   0  0  0  0  0  0  0  0  0  0  0  0
  139.5250   74.5320  223.0060 H   0  0  0  0  0  0  0  0  0  0  0  0
  139.5250   74.5481  220.0582 H   0  0  0  0  0  0  0  0  0  0  0  0
  139.2980   75.9636  221.1673 H   0  0  0  0  0  0  0  0  0  0  0  0
  142.4859   75.9017  217.9807 H   0  0  0  0  0  0  0  0  0  0  0  0
  140.7197   75.8818  217.9374 H   0  0  0  0  0  0  0  0  0  0  0  0
  140.9722   77.9828  216.8852 H   0  0  0  0  0  0  0  0  0  0  0  0
  141.5791   79.7206  218.9013 H   0  0  0  0  0  0  0  0  0  0  0  0
  140.1026   78.8207  219.0769 H   0  0  0  0  0  0  0  0  0  0  0  0
  142.9315   78.0499  220.2120 H   0  0  0  0  0  0  0  0  0  0  0  0
  143.3544   79.1638  221.9938 H   0  0  0  0  0  0  0  0  0  0  0  0
  142.6253   79.9893  224.1643 H   0  0  0  0  0  0  0  0  0  0  0  0
  140.2695   79.7634  224.9085 H   0  0  0  0  0  0  0  0  0  0  0  0
  138.6253   78.6506  223.3643 H   0  0  0  0  0  0  0  0  0  0  0  0
  139.3828   77.8228  221.1761 H   0  0  0  0  0  0  0  0  0  0  0  0
  139.1422   70.4578  221.8462 H   0  0  0  0  0  0  0  0  0  0  0  0
  138.9575   68.7807  223.6856 H   0  0  0  0  0  0  0  0  0  0  0  0
  139.4194   68.2238  226.0077 H   0  0  0  0  0  0  0  0  0  0  0  0
  141.4718   71.0962  228.5090 H   0  0  0  0  0  0  0  0  0  0  0  0
  141.6093   72.7075  226.6037 H   0  0  0  0  0  0  0  0  0  0  0  0
  1  2  2  0
  2  3  1  0
  3  4  1  0
  4  5  1  0
  5  6  2  0
  5  7  1  0
  7  8  1  0
  8  9  1  0
  9 10  1  0
  9 11  1  0
 11 12  1  0
 12 13  1  0
 13 14  2  0
 14 15  1  0
 15 16  2  0
 16 17  1  0
 17 18  2  0
  2 19  1  0
 19 20  2  0
 20 21  1  0
 21 22  2  0
 22 23  1  0
 23 24  2  0
 24 25  1  0
 24 26  1  0
 26 27  2  0
 27 28  1  0
 28 29  2  0
 12  7  1  0
 18 13  1  0
 29 19  1  0
 28 22  1  0
  3 30  1  0
  4 31  1  0
  4 32  1  0
  8 33  1  0
  8 34  1  0
  9 35  1  6
 11 36  1  0
 11 37  1  0
 12 38  1  1
 14 39  1  0
 15 40  1  0
 16 41  1  0
 17 42  1  0
 18 43  1  0
 20 44  1  0
 21 45  1  0
 23 46  1  0
 26 47  1  0
 27 48  1  0
M  END
>  <smiles>  (21) 
O=C(NCC(=O)N1C[C@H](F)C[C@H]1c1ccccc1)c1ccc2cc(Cl)ccc2n1

>  <score_type>  (21) 
oracle

>  <origin>  (21) 
autodockgpu

>  <m_score__min__energy>  (21) 
-8.6999999999999993

>  <m_primary>  (21) 
energy

>  <rmsd>  (21) 
1.857010509331119

>  <m_score__min__rmsd>  (21) 
1.857010509331119

>  <meeko>  (21) 
{"free_energy": -8.13, "intermolecular_energy": -9.63, "internal_energy": -1.36, "cluster_size": 15, "cluster_id": 1, "rank_in_cluster": 9}

>  <energy>  (21) 
-8.54

>  <cluster_rmsd>  (21) 
0.1

>  <cluster>  (21) 
2

$$$$

     RDKit          3D

 48 51  0  0  0  0  0  0  0  0999 V2000
  140.2060   72.4220  220.7240 O   0  0  0  0  0  0  0  0  0  0  0  0
  139.9950   72.8000  221.9160 C   0  0  0  0  0  0  0  0  0  0  0  0
  139.7130   74.1780  222.1520 N   0  0  0  0  0  0  0  0  0  0  0  0
  139.6800   75.0670  221.0380 C   0  0  0  0  0  0  0  0  0  0  0  0
  139.6480   76.5100  221.4800 C   0  0  0  0  0  0  0  0  0  0  0  0
  139.8600   76.6990  222.7050 O   0  0  0  0  0  0  0  0  0  0  0  0
  139.3960   77.5370  220.5450 N   0  0  0  0  0  0  0  0  0  0  0  0
  138.3480   77.4970  219.5160 C   0  0  0  0  0  0  0  0  0  0  0  0
  138.2740   78.9020  218.9660 C   0  0  2  0  0  0  0  0  0  0  0  0
  139.0220   78.9800  217.7840 F   0  0  0  0  0  0  0  0  0  0  0  0
  139.0050   79.7280  220.0040 C   0  0  0  0  0  0  0  0  0  0  0  0
  140.0920   78.7590  220.4350 C   0  0  1  0  0  0  0  0  0  0  0  0
  140.8140   79.2530  221.5970 C   0  0  0  0  0  0  0  0  0  0  0  0
  140.1470   79.8180  222.6940 C   0  0  0  0  0  0  0  0  0  0  0  0
  140.8260   80.2800  223.7810 C   0  0  0  0  0  0  0  0  0  0  0  0
  142.2010   80.2160  223.8620 C   0  0  0  0  0  0  0  0  0  0  0  0
  142.8910   79.6610  222.7890 C   0  0  0  0  0  0  0  0  0  0  0  0
  142.1810   79.1980  221.6950 C   0  0  0  0  0  0  0  0  0  0  0  0
  140.0330   71.8730  223.0430 C   0  0  0  0  0  0  0  0  0  0  0  0
  139.5380   70.5990  222.8450 C   0  0  0  0  0  0  0  0  0  0  0  0
  139.5250   69.6400  223.8470 C   0  0  0  0  0  0  0  0  0  0  0  0
  140.0430   70.0280  225.0790 C   0  0  0  0  0  0  0  0  0  0  0  0
  140.0570   69.1120  226.1210 C   0  0  0  0  0  0  0  0  0  0  0  0
  140.5810   69.5300  227.3400 C   0  0  0  0  0  0  0  0  0  0  0  0
  140.6280   68.4250  228.6920 Cl  0  0  0  0  0  0  0  0  0  0  0  0
  141.0750   70.8170  227.5200 C   0  0  0  0  0  0  0  0  0  0  0  0
  141.0590   71.7290  226.4790 C   0  0  0  0  0  0  0  0  0  0  0  0
  140.5340   71.3080  225.2580 C   0  0  0  0  0  0  0  0  0  0  0  0
  140.5280   72.2200  224.2480 N   0  0  0  0  0  0  0  0  0  0  0  0
  139.5360   74.5130  223.1260 H   0  0  0  0  0  0  0  0  0  0  0  0
  140.5767   74.9018  220.4227 H   0  0  0  0  0  0  0  0  0  0  0  0
  138.7654   74.8631  220.4618 H   0  0  0  0  0  0  0  0  0  0  0  0
  138.6160   76.7858  218.7208 H   0  0  0  0  0  0  0  0  0  0  0  0
  137.3827   77.1666  219.9271 H   0  0  0  0  0  0  0  0  0  0  0  0
  137.2404   79.2212  218.7665 H   0  0  0  0  0  0  0  0  0  0  0  0
  139.4304   80.6428  219.5655 H   0  0  0  0  0  0  0  0  0  0  0  0
  138.3687   80.0892  220.8254 H   0  0  0  0  0  0  0  0  0  0  0  0
  140.9315   78.6278  219.7365 H   0  0  0  0  0  0  0  0  0  0  0  0
  139.0495   79.8898  222.6762 H   0  0  0  0  0  0  0  0  0  0  0  0
  140.2612   80.7165  224.6179 H   0  0  0  0  0  0  0  0  0  0  0  0
  142.7354   80.5919  224.7470 H   0  0  0  0  0  0  0  0  0  0  0  0
  143.9886   79.5910  222.8099 H   0  0  0  0  0  0  0  0  0  0  0  0
  142.7445   78.7615  220.8572 H   0  0  0  0  0  0  0  0  0  0  0  0
  139.1387   70.3347  221.8547 H   0  0  0  0  0  0  0  0  0  0  0  0
  139.1272   68.6286  223.6772 H   0  0  0  0  0  0  0  0  0  0  0  0
  139.6677   68.0918  225.9880 H   0  0  0  0  0  0  0  0  0  0  0  0
  141.4820   71.1130  228.4981 H   0  0  0  0  0  0  0  0  0  0  0  0
  141.4468   72.7499  226.6104 H   0  0  0  0  0  0  0  0  0  0  0  0
  1  2  2  0
  2  3  1  0
  3  4  1  0
  4  5  1  0
  5  6  2  0
  5  7  1  0
  7  8  1  0
  8  9  1  0
  9 10  1  0
  9 11  1  0
 11 12  1  0
 12 13  1  0
 13 14  2  0
 14 15  1  0
 15 16  2  0
 16 17  1  0
 17 18  2  0
  2 19  1  0
 19 20  2  0
 20 21  1  0
 21 22  2  0
 22 23  1  0
 23 24  2  0
 24 25  1  0
 24 26  1  0
 26 27  2  0
 27 28  1  0
 28 29  2  0
 12  7  1  0
 18 13  1  0
 29 19  1  0
 28 22  1  0
  3 30  1  0
  4 31  1  0
  4 32  1  0
  8 33  1  0
  8 34  1  0
  9 35  1  6
 11 36  1  0
 11 37  1  0
 12 38  1  6
 14 39  1  0
 15 40  1  0
 16 41  1  0
 17 42  1  0
 18 43  1  0
 20 44  1  0
 21 45  1  0
 23 46  1  0
 26 47  1  0
 27 48  1  0
M  END
>  <smiles>  (22) 
O=C(NCC(=O)N1C[C@H](F)C[C@H]1c1ccccc1)c1ccc2cc(Cl)ccc2n1

>  <score_type>  (22) 
oracle

>  <origin>  (22) 
autodockgpu

>  <m_score__min__energy>  (22) 
-8.6999999999999993

>  <m_primary>  (22) 
energy

>  <rmsd>  (22) 
2.253864830238921

>  <m_score__min__rmsd>  (22) 
2.253864830238921

>  <meeko>  (22) 
{"free_energy": -7.98, "intermolecular_energy": -9.47, "internal_energy": -1.83, "cluster_size": 15, "cluster_id": 1, "rank_in_cluster": 11}

>  <energy>  (22) 
-8.53

>  <cluster_rmsd>  (22) 
0.11

>  <cluster>  (22) 
2

$$$$

     RDKit          3D

 48 51  0  0  0  0  0  0  0  0999 V2000
  140.0950   71.9970  220.7490 O   0  0  0  0  0  0  0  0  0  0  0  0
  139.9430   72.4050  221.9400 C   0  0  0  0  0  0  0  0  0  0  0  0
  139.7130   73.7960  222.1570 N   0  0  0  0  0  0  0  0  0  0  0  0
  139.6630   74.6630  221.0270 C   0  0  0  0  0  0  0  0  0  0  0  0
  140.6430   75.8030  221.1560 C   0  0  0  0  0  0  0  0  0  0  0  0
  140.8570   76.1920  222.3330 O   0  0  0  0  0  0  0  0  0  0  0  0
  141.2490   76.3570  220.0080 N   0  0  0  0  0  0  0  0  0  0  0  0
  140.9430   77.6820  219.4530 C   0  0  0  0  0  0  0  0  0  0  0  0
  142.0220   77.9450  218.4290 C   0  0  2  0  0  0  0  0  0  0  0  0
  141.5410   77.6250  217.1530 F   0  0  0  0  0  0  0  0  0  0  0  0
  143.0880   76.9250  218.7660 C   0  0  0  0  0  0  0  0  0  0  0  0
  142.2360   75.7470  219.2060 C   0  0  1  0  0  0  0  0  0  0  0  0
  143.0480   74.6900  219.7880 C   0  0  0  0  0  0  0  0  0  0  0  0
  144.3640   74.9230  220.2130 C   0  0  0  0  0  0  0  0  0  0  0  0
  145.1240   73.9310  220.7590 C   0  0  0  0  0  0  0  0  0  0  0  0
  144.6400   72.6500  220.9220 C   0  0  0  0  0  0  0  0  0  0  0  0
  143.3370   72.3880  220.5090 C   0  0  0  0  0  0  0  0  0  0  0  0
  142.5840   73.4110  219.9580 C   0  0  0  0  0  0  0  0  0  0  0  0
  139.9980   71.5010  223.0840 C   0  0  0  0  0  0  0  0  0  0  0  0
  139.5240   70.2150  222.9120 C   0  0  0  0  0  0  0  0  0  0  0  0
  139.5290   69.2760  223.9320 C   0  0  0  0  0  0  0  0  0  0  0  0
  140.0410   69.6950  225.1550 C   0  0  0  0  0  0  0  0  0  0  0  0
  140.0720   68.8000  226.2150 C   0  0  0  0  0  0  0  0  0  0  0  0
  140.5910   69.2490  227.4250 C   0  0  0  0  0  0  0  0  0  0  0  0
  140.6580   68.1710  228.7970 Cl  0  0  0  0  0  0  0  0  0  0  0  0
  141.0640   70.5480  227.5800 C   0  0  0  0  0  0  0  0  0  0  0  0
  141.0310   71.4390  226.5210 C   0  0  0  0  0  0  0  0  0  0  0  0
  140.5120   70.9870  225.3090 C   0  0  0  0  0  0  0  0  0  0  0  0
  140.4890   71.8790  224.2820 N   0  0  0  0  0  0  0  0  0  0  0  0
  139.5860   74.1560  223.1310 H   0  0  0  0  0  0  0  0  0  0  0  0
  139.9051   74.0850  220.1229 H   0  0  0  0  0  0  0  0  0  0  0  0
  138.6498   75.0866  220.9637 H   0  0  0  0  0  0  0  0  0  0  0  0
  139.9517   77.6803  218.9762 H   0  0  0  0  0  0  0  0  0  0  0  0
  140.9202   78.4576  220.2327 H   0  0  0  0  0  0  0  0  0  0  0  0
  142.3650   78.9901  218.4391 H   0  0  0  0  0  0  0  0  0  0  0  0
  143.6995   76.6747  217.8866 H   0  0  0  0  0  0  0  0  0  0  0  0
  143.8162   77.2629  219.5180 H   0  0  0  0  0  0  0  0  0  0  0  0
  141.7409   75.1790  218.4045 H   0  0  0  0  0  0  0  0  0  0  0  0
  144.7934   75.9298  220.1033 H   0  0  0  0  0  0  0  0  0  0  0  0
  146.1517   74.1590  221.0783 H   0  0  0  0  0  0  0  0  0  0  0  0
  145.2643   71.8599  221.3646 H   0  0  0  0  0  0  0  0  0  0  0  0
  142.9104   71.3801  220.6190 H   0  0  0  0  0  0  0  0  0  0  0  0
  141.5559   73.1850  219.6387 H   0  0  0  0  0  0  0  0  0  0  0  0
  139.1273   69.9248  221.9279 H   0  0  0  0  0  0  0  0  0  0  0  0
  139.1486   68.2549  223.7819 H   0  0  0  0  0  0  0  0  0  0  0  0
  139.6992   67.7713  226.1024 H   0  0  0  0  0  0  0  0  0  0  0  0
  141.4673   70.8697  228.5515 H   0  0  0  0  0  0  0  0  0  0  0  0
  141.4018   72.4686  226.6323 H   0  0  0  0  0  0  0  0  0  0  0  0
  1  2  2  0
  2  3  1  0
  3  4  1  0
  4  5  1  0
  5  6  2  0
  5  7  1  0
  7  8  1  0
  8  9  1  0
  9 10  1  0
  9 11  1  0
 11 12  1  0
 12 13  1  0
 13 14  2  0
 14 15  1  0
 15 16  2  0
 16 17  1  0
 17 18  2  0
  2 19  1  0
 19 20  2  0
 20 21  1  0
 21 22  2  0
 22 23  1  0
 23 24  2  0
 24 25  1  0
 24 26  1  0
 26 27  2  0
 27 28  1  0
 28 29  2  0
 12  7  1  0
 18 13  1  0
 29 19  1  0
 28 22  1  0
  3 30  1  0
  4 31  1  0
  4 32  1  0
  8 33  1  0
  8 34  1  0
  9 35  1  6
 11 36  1  0
 11 37  1  0
 12 38  1  6
 14 39  1  0
 15 40  1  0
 16 41  1  0
 17 42  1  0
 18 43  1  0
 20 44  1  0
 21 45  1  0
 23 46  1  0
 26 47  1  0
 27 48  1  0
M  END
>  <smiles>  (23) 
O=C(NCC(=O)N1C[C@H](F)C[C@H]1c1ccccc1)c1ccc2cc(Cl)ccc2n1

>  <score_type>  (23) 
oracle

>  <origin>  (23) 
autodockgpu

>  <m_score__min__energy>  (23) 
-8.6999999999999993

>  <m_primary>  (23) 
energy

>  <rmsd>  (23) 
2.0854114169866924

>  <m_score__min__rmsd>  (23) 
2.0854114169866924

>  <meeko>  (23) 
{"free_energy": -8.23, "intermolecular_energy": -9.72, "internal_energy": -2.01, "cluster_size": 20, "cluster_id": 4, "rank_in_cluster": 10}

>  <energy>  (23) 
-8.53

>  <cluster_rmsd>  (23) 
0.17

>  <cluster>  (23) 
2

$$$$

     RDKit          3D

 48 51  0  0  0  0  0  0  0  0999 V2000
  139.9940   72.0490  220.7330 O   0  0  0  0  0  0  0  0  0  0  0  0
  139.8840   72.4480  221.9320 C   0  0  0  0  0  0  0  0  0  0  0  0
  139.6830   73.8400  222.1690 N   0  0  0  0  0  0  0  0  0  0  0  0
  139.6120   74.7190  221.0480 C   0  0  0  0  0  0  0  0  0  0  0  0
  140.6490   75.8120  221.1330 C   0  0  0  0  0  0  0  0  0  0  0  0
  140.9310   76.1920  222.2980 O   0  0  0  0  0  0  0  0  0  0  0  0
  141.2310   76.3350  219.9590 N   0  0  0  0  0  0  0  0  0  0  0  0
  140.9140   77.6460  219.3760 C   0  0  0  0  0  0  0  0  0  0  0  0
  141.9710   77.8820  218.3240 C   0  0  2  0  0  0  0  0  0  0  0  0
  141.4640   77.5290  217.0670 F   0  0  0  0  0  0  0  0  0  0  0  0
  143.0450   76.8710  218.6650 C   0  0  0  0  0  0  0  0  0  0  0  0
  142.2010   75.7050  219.1520 C   0  0  1  0  0  0  0  0  0  0  0  0
  143.0260   74.6630  219.7440 C   0  0  0  0  0  0  0  0  0  0  0  0
  142.5520   73.3530  219.9090 C   0  0  0  0  0  0  0  0  0  0  0  0
  143.3270   72.3790  220.4650 C   0  0  0  0  0  0  0  0  0  0  0  0
  144.6140   72.6270  220.8920 C   0  0  0  0  0  0  0  0  0  0  0  0
  145.1120   73.9190  220.7420 C   0  0  0  0  0  0  0  0  0  0  0  0
  144.3070   74.8920  220.1760 C   0  0  0  0  0  0  0  0  0  0  0  0
  139.9590   71.5320  223.0650 C   0  0  0  0  0  0  0  0  0  0  0  0
  139.5080   70.2390  222.8790 C   0  0  0  0  0  0  0  0  0  0  0  0
  139.5330   69.2890  223.8880 C   0  0  0  0  0  0  0  0  0  0  0  0
  140.0410   69.7030  225.1150 C   0  0  0  0  0  0  0  0  0  0  0  0
  140.0920   68.7970  226.1630 C   0  0  0  0  0  0  0  0  0  0  0  0
  140.6060   69.2410  227.3770 C   0  0  0  0  0  0  0  0  0  0  0  0
  140.6960   68.1490  228.7370 Cl  0  0  0  0  0  0  0  0  0  0  0  0
  141.0550   70.5460  227.5460 C   0  0  0  0  0  0  0  0  0  0  0  0
  141.0030   71.4490  226.4980 C   0  0  0  0  0  0  0  0  0  0  0  0
  140.4880   71.0020  225.2820 C   0  0  0  0  0  0  0  0  0  0  0  0
  140.4460   71.9050  224.2650 N   0  0  0  0  0  0  0  0  0  0  0  0
  139.5900   74.1920  223.1480 H   0  0  0  0  0  0  0  0  0  0  0  0
  139.7791   74.1390  220.1284 H   0  0  0  0  0  0  0  0  0  0  0  0
  138.6171   75.1882  221.0410 H   0  0  0  0  0  0  0  0  0  0  0  0
  139.9131   77.6327  218.9200 H   0  0  0  0  0  0  0  0  0  0  0  0
  140.9078   78.4414  220.1359 H   0  0  0  0  0  0  0  0  0  0  0  0
  142.3134   78.9271  218.3002 H   0  0  0  0  0  0  0  0  0  0  0  0
  143.6387   76.5982  217.7800 H   0  0  0  0  0  0  0  0  0  0  0  0
  143.7889   77.2275  219.3926 H   0  0  0  0  0  0  0  0  0  0  0  0
  141.6886   75.1181  218.3755 H   0  0  0  0  0  0  0  0  0  0  0  0
  141.5312   73.1060  219.5821 H   0  0  0  0  0  0  0  0  0  0  0  0
  142.9133   71.3658  220.5761 H   0  0  0  0  0  0  0  0  0  0  0  0
  145.2280   71.8301  221.3369 H   0  0  0  0  0  0  0  0  0  0  0  0
  146.1333   74.1632  221.0696 H   0  0  0  0  0  0  0  0  0  0  0  0
  144.7180   75.9064  220.0665 H   0  0  0  0  0  0  0  0  0  0  0  0
  139.1142   69.9528  221.8926 H   0  0  0  0  0  0  0  0  0  0  0  0
  139.1706   68.2629  223.7271 H   0  0  0  0  0  0  0  0  0  0  0  0
  139.7383   67.7628  226.0389 H   0  0  0  0  0  0  0  0  0  0  0  0
  141.4548   70.8635  228.5204 H   0  0  0  0  0  0  0  0  0  0  0  0
  141.3559   72.4836  226.6205 H   0  0  0  0  0  0  0  0  0  0  0  0
  1  2  2  0
  2  3  1  0
  3  4  1  0
  4  5  1  0
  5  6  2  0
  5  7  1  0
  7  8  1  0
  8  9  1  0
  9 10  1  0
  9 11  1  0
 11 12  1  0
 12 13  1  0
 13 14  2  0
 14 15  1  0
 15 16  2  0
 16 17  1  0
 17 18  2  0
  2 19  1  0
 19 20  2  0
 20 21  1  0
 21 22  2  0
 22 23  1  0
 23 24  2  0
 24 25  1  0
 24 26  1  0
 26 27  2  0
 27 28  1  0
 28 29  2  0
 12  7  1  0
 18 13  1  0
 29 19  1  0
 28 22  1  0
  3 30  1  0
  4 31  1  0
  4 32  1  0
  8 33  1  0
  8 34  1  0
  9 35  1  6
 11 36  1  0
 11 37  1  0
 12 38  1  6
 14 39  1  0
 15 40  1  0
 16 41  1  0
 17 42  1  0
 18 43  1  0
 20 44  1  0
 21 45  1  0
 23 46  1  0
 26 47  1  0
 27 48  1  0
M  END
>  <smiles>  (24) 
O=C(NCC(=O)N1C[C@H](F)C[C@H]1c1ccccc1)c1ccc2cc(Cl)ccc2n1

>  <score_type>  (24) 
oracle

>  <origin>  (24) 
autodockgpu

>  <m_score__min__energy>  (24) 
-8.6999999999999993

>  <m_primary>  (24) 
energy

>  <rmsd>  (24) 
2.064125577752273

>  <m_score__min__rmsd>  (24) 
2.064125577752273

>  <meeko>  (24) 
{"free_energy": -8.21, "intermolecular_energy": -9.7, "internal_energy": -2.03, "cluster_size": 20, "cluster_id": 4, "rank_in_cluster": 13}

>  <energy>  (24) 
-8.45

>  <cluster_rmsd>  (24) 
0.34

>  <cluster>  (24) 
2

$$$$

     RDKit          3D

 48 51  0  0  0  0  0  0  0  0999 V2000
  139.7160   71.9830  220.7520 O   0  0  0  0  0  0  0  0  0  0  0  0
  139.7150   72.3940  221.9510 C   0  0  0  0  0  0  0  0  0  0  0  0
  139.5760   73.7940  222.1890 N   0  0  0  0  0  0  0  0  0  0  0  0
  139.4420   74.6650  221.0680 C   0  0  0  0  0  0  0  0  0  0  0  0
  139.4010   76.1130  221.4920 C   0  0  0  0  0  0  0  0  0  0  0  0
  139.6060   76.3180  222.7160 O   0  0  0  0  0  0  0  0  0  0  0  0
  139.1480   77.1270  220.5430 N   0  0  0  0  0  0  0  0  0  0  0  0
  138.1040   77.0710  219.5120 C   0  0  0  0  0  0  0  0  0  0  0  0
  138.0280   78.4690  218.9440 C   0  0  2  0  0  0  0  0  0  0  0  0
  138.7780   78.5340  217.7640 F   0  0  0  0  0  0  0  0  0  0  0  0
  138.7520   79.3100  219.9730 C   0  0  0  0  0  0  0  0  0  0  0  0
  139.8410   78.3500  220.4210 C   0  0  1  0  0  0  0  0  0  0  0  0
  140.5570   78.8610  221.5780 C   0  0  0  0  0  0  0  0  0  0  0  0
  139.8820   79.3410  222.7100 C   0  0  0  0  0  0  0  0  0  0  0  0
  140.5560   79.8190  223.7940 C   0  0  0  0  0  0  0  0  0  0  0  0
  141.9330   79.8570  223.8360 C   0  0  0  0  0  0  0  0  0  0  0  0
  142.6320   79.3880  222.7270 C   0  0  0  0  0  0  0  0  0  0  0  0
  141.9270   78.9070  221.6380 C   0  0  0  0  0  0  0  0  0  0  0  0
  139.8530   71.4860  223.0850 C   0  0  0  0  0  0  0  0  0  0  0  0
  139.4420   70.1780  222.9150 C   0  0  0  0  0  0  0  0  0  0  0  0
  139.5270   69.2320  223.9260 C   0  0  0  0  0  0  0  0  0  0  0  0
  140.0540   69.6690  225.1370 C   0  0  0  0  0  0  0  0  0  0  0  0
  140.1650   68.7690  226.1860 C   0  0  0  0  0  0  0  0  0  0  0  0
  140.6960   69.2360  227.3850 C   0  0  0  0  0  0  0  0  0  0  0  0
  140.8610   68.1520  228.7440 Cl  0  0  0  0  0  0  0  0  0  0  0  0
  141.1030   70.5560  227.5370 C   0  0  0  0  0  0  0  0  0  0  0  0
  140.9920   71.4530  226.4890 C   0  0  0  0  0  0  0  0  0  0  0  0
  140.4600   70.9830  225.2880 C   0  0  0  0  0  0  0  0  0  0  0  0
  140.3590   71.8800  224.2700 N   0  0  0  0  0  0  0  0  0  0  0  0
  139.5730   74.1570  223.1690 H   0  0  0  0  0  0  0  0  0  0  0  0
  140.2984   74.5143  220.3943 H   0  0  0  0  0  0  0  0  0  0  0  0
  138.4959   74.4283  220.5592 H   0  0  0  0  0  0  0  0  0  0  0  0
  138.3765   76.3505  218.7267 H   0  0  0  0  0  0  0  0  0  0  0  0
  137.1383   76.7431  219.9241 H   0  0  0  0  0  0  0  0  0  0  0  0
  136.9942   78.7828  218.7373 H   0  0  0  0  0  0  0  0  0  0  0  0
  139.1761   80.2203  219.5242 H   0  0  0  0  0  0  0  0  0  0  0  0
  138.1114   79.6796  220.7873 H   0  0  0  0  0  0  0  0  0  0  0  0
  140.6843   78.2124  219.7282 H   0  0  0  0  0  0  0  0  0  0  0  0
  138.7821   79.3314  222.7232 H   0  0  0  0  0  0  0  0  0  0  0  0
  139.9847   80.1848  224.6599 H   0  0  0  0  0  0  0  0  0  0  0  0
  142.4631   80.2457  224.7180 H   0  0  0  0  0  0  0  0  0  0  0  0
  143.7319   79.3997  222.7167 H   0  0  0  0  0  0  0  0  0  0  0  0
  142.4970   78.5408  220.7714 H   0  0  0  0  0  0  0  0  0  0  0  0
  139.0316   69.8751  221.9404 H   0  0  0  0  0  0  0  0  0  0  0  0
  139.1959   68.1935  223.7783 H   0  0  0  0  0  0  0  0  0  0  0  0
  139.8446   67.7226  226.0746 H   0  0  0  0  0  0  0  0  0  0  0  0
  141.5173   70.8910  228.4994 H   0  0  0  0  0  0  0  0  0  0  0  0
  141.3120   72.4997  226.5991 H   0  0  0  0  0  0  0  0  0  0  0  0
  1  2  2  0
  2  3  1  0
  3  4  1  0
  4  5  1  0
  5  6  2  0
  5  7  1  0
  7  8  1  0
  8  9  1  0
  9 10  1  0
  9 11  1  0
 11 12  1  0
 12 13  1  0
 13 14  2  0
 14 15  1  0
 15 16  2  0
 16 17  1  0
 17 18  2  0
  2 19  1  0
 19 20  2  0
 20 21  1  0
 21 22  2  0
 22 23  1  0
 23 24  2  0
 24 25  1  0
 24 26  1  0
 26 27  2  0
 27 28  1  0
 28 29  2  0
 12  7  1  0
 18 13  1  0
 29 19  1  0
 28 22  1  0
  3 30  1  0
  4 31  1  0
  4 32  1  0
  8 33  1  0
  8 34  1  0
  9 35  1  6
 11 36  1  0
 11 37  1  0
 12 38  1  6
 14 39  1  0
 15 40  1  0
 16 41  1  0
 17 42  1  0
 18 43  1  0
 20 44  1  0
 21 45  1  0
 23 46  1  0
 26 47  1  0
 27 48  1  0
M  END
>  <smiles>  (25) 
O=C(NCC(=O)N1C[C@H](F)C[C@H]1c1ccccc1)c1ccc2cc(Cl)ccc2n1

>  <score_type>  (25) 
oracle

>  <origin>  (25) 
autodockgpu

>  <m_score__min__energy>  (25) 
-8.6999999999999993

>  <m_primary>  (25) 
energy

>  <rmsd>  (25) 
2.010227202323114

>  <m_score__min__rmsd>  (25) 
2.010227202323114

>  <meeko>  (25) 
{"free_energy": -7.93, "intermolecular_energy": -9.42, "internal_energy": -1.9, "cluster_size": 15, "cluster_id": 1, "rank_in_cluster": 12}

>  <energy>  (25) 
-8.4

>  <cluster_rmsd>  (25) 
0.9

>  <cluster>  (25) 
2

$$$$

     RDKit          3D

 48 51  0  0  0  0  0  0  0  0999 V2000
  134.7440   68.5320  225.0290 O   0  0  0  0  0  0  0  0  0  0  0  0
  135.1260   69.7370  224.9290 C   0  0  0  0  0  0  0  0  0  0  0  0
  136.3040   70.0150  224.1740 N   0  0  0  0  0  0  0  0  0  0  0  0
  136.9970   68.9270  223.5670 C   0  0  0  0  0  0  0  0  0  0  0  0
  138.4420   68.8780  223.9980 C   0  0  0  0  0  0  0  0  0  0  0  0
  138.8080   67.7930  224.5180 O   0  0  0  0  0  0  0  0  0  0  0  0
  139.2810   69.9960  223.8070 N   0  0  0  0  0  0  0  0  0  0  0  0
  139.1360   70.9820  222.7280 C   0  0  0  0  0  0  0  0  0  0  0  0
  140.0550   72.1210  223.1010 C   0  0  2  0  0  0  0  0  0  0  0  0
  141.2680   71.9850  222.4130 F   0  0  0  0  0  0  0  0  0  0  0  0
  140.3500   71.8760  224.5650 C   0  0  0  0  0  0  0  0  0  0  0  0
  140.3880   70.3580  224.6040 C   0  0  1  0  0  0  0  0  0  0  0  0
  140.4510   69.8630  225.9700 C   0  0  0  0  0  0  0  0  0  0  0  0
  141.0110   68.6140  226.2760 C   0  0  0  0  0  0  0  0  0  0  0  0
  141.0680   68.1520  227.5570 C   0  0  0  0  0  0  0  0  0  0  0  0
  140.5820   68.8860  228.6180 C   0  0  0  0  0  0  0  0  0  0  0  0
  140.0190   70.1300  228.3460 C   0  0  0  0  0  0  0  0  0  0  0  0
  139.9710   70.5790  227.0380 C   0  0  0  0  0  0  0  0  0  0  0  0
  134.4030   70.8380  225.5580 C   0  0  0  0  0  0  0  0  0  0  0  0
  133.3860   70.5190  226.4380 C   0  0  0  0  0  0  0  0  0  0  0  0
  132.6350   71.4860  227.0900 C   0  0  0  0  0  0  0  0  0  0  0  0
  132.9580   72.8100  226.8120 C   0  0  0  0  0  0  0  0  0  0  0  0
  132.2420   73.8220  227.4350 C   0  0  0  0  0  0  0  0  0  0  0  0
  132.5890   75.1360  227.1370 C   0  0  0  0  0  0  0  0  0  0  0  0
  131.7250   76.4560  227.8870 Cl  0  0  0  0  0  0  0  0  0  0  0  0
  133.6150   75.4370  226.2480 C   0  0  0  0  0  0  0  0  0  0  0  0
  134.3280   74.4250  225.6290 C   0  0  0  0  0  0  0  0  0  0  0  0
  133.9790   73.1090  225.9290 C   0  0  0  0  0  0  0  0  0  0  0  0
  134.6920   72.1300  225.3090 N   0  0  0  0  0  0  0  0  0  0  0  0
  136.6390   71.0010  224.0770 H   0  0  0  0  0  0  0  0  0  0  0  0
  136.5064   67.9858  223.8559 H   0  0  0  0  0  0  0  0  0  0  0  0
  136.9683   69.0669  222.4763 H   0  0  0  0  0  0  0  0  0  0  0  0
  139.4360   70.5450  221.7641 H   0  0  0  0  0  0  0  0  0  0  0  0
  138.0940   71.3163  222.6160 H   0  0  0  0  0  0  0  0  0  0  0  0
  139.6160   73.1047  222.8783 H   0  0  0  0  0  0  0  0  0  0  0  0
  141.3157   72.3118  224.8608 H   0  0  0  0  0  0  0  0  0  0  0  0
  139.6234   72.3289  225.2556 H   0  0  0  0  0  0  0  0  0  0  0  0
  141.2912   69.8835  224.1927 H   0  0  0  0  0  0  0  0  0  0  0  0
  141.4138   67.9925  225.4627 H   0  0  0  0  0  0  0  0  0  0  0  0
  141.5145   67.1654  227.7498 H   0  0  0  0  0  0  0  0  0  0  0  0
  140.6373   68.5010  229.6469 H   0  0  0  0  0  0  0  0  0  0  0  0
  139.6169   70.7489  229.1616 H   0  0  0  0  0  0  0  0  0  0  0  0
  139.5232   71.5647  226.8433 H   0  0  0  0  0  0  0  0  0  0  0  0
  133.1639   69.4586  226.6284 H   0  0  0  0  0  0  0  0  0  0  0  0
  131.8281   71.2202  227.7887 H   0  0  0  0  0  0  0  0  0  0  0  0
  131.4288   73.5936  228.1396 H   0  0  0  0  0  0  0  0  0  0  0  0
  133.8619   76.4876  226.0351 H   0  0  0  0  0  0  0  0  0  0  0  0
  135.1420   74.6513  224.9246 H   0  0  0  0  0  0  0  0  0  0  0  0
  1  2  2  0
  2  3  1  0
  3  4  1  0
  4  5  1  0
  5  6  2  0
  5  7  1  0
  7  8  1  0
  8  9  1  0
  9 10  1  0
  9 11  1  0
 11 12  1  0
 12 13  1  0
 13 14  2  0
 14 15  1  0
 15 16  2  0
 16 17  1  0
 17 18  2  0
  2 19  1  0
 19 20  2  0
 20 21  1  0
 21 22  2  0
 22 23  1  0
 23 24  2  0
 24 25  1  0
 24 26  1  0
 26 27  2  0
 27 28  1  0
 28 29  2  0
 12  7  1  0
 18 13  1  0
 29 19  1  0
 28 22  1  0
  3 30  1  0
  4 31  1  0
  4 32  1  0
  8 33  1  0
  8 34  1  0
  9 35  1  1
 11 36  1  0
 11 37  1  0
 12 38  1  6
 14 39  1  0
 15 40  1  0
 16 41  1  0
 17 42  1  0
 18 43  1  0
 20 44  1  0
 21 45  1  0
 23 46  1  0
 26 47  1  0
 27 48  1  0
M  END
>  <smiles>  (26) 
O=C(NCC(=O)N1C[C@H](F)C[C@H]1c1ccccc1)c1ccc2cc(Cl)ccc2n1

>  <score_type>  (26) 
oracle

>  <origin>  (26) 
autodockgpu

>  <m_score__min__energy>  (26) 
-8.6999999999999993

>  <m_primary>  (26) 
energy

>  <rmsd>  (26) 
7.2481860112110095

>  <m_score__min__rmsd>  (26) 
7.2481860112110095

>  <meeko>  (26) 
{"free_energy": -8.62, "intermolecular_energy": -10.11, "internal_energy": -1.61, "cluster_size": 13, "cluster_id": 2, "rank_in_cluster": 1}

>  <energy>  (26) 
-8.34

>  <cluster_rmsd>  (26) 
0.46

>  <cluster>  (26) 
2

$$$$

     RDKit          3D

 48 51  0  0  0  0  0  0  0  0999 V2000
  138.8570   71.9370  220.9180 O   0  0  0  0  0  0  0  0  0  0  0  0
  139.1650   72.3580  222.0740 C   0  0  0  0  0  0  0  0  0  0  0  0
  139.2380   73.7670  222.2860 N   0  0  0  0  0  0  0  0  0  0  0  0
  138.9620   74.6360  221.1900 C   0  0  0  0  0  0  0  0  0  0  0  0
  139.6720   75.9590  221.3360 C   0  0  0  0  0  0  0  0  0  0  0  0
  139.1630   76.7500  222.1720 O   0  0  0  0  0  0  0  0  0  0  0  0
  140.8220   76.2410  220.5690 N   0  0  0  0  0  0  0  0  0  0  0  0
  141.1830   75.5640  219.3160 C   0  0  0  0  0  0  0  0  0  0  0  0
  142.3060   76.3850  218.7270 C   0  0  2  0  0  0  0  0  0  0  0  0
  143.5340   75.7960  219.0540 F   0  0  0  0  0  0  0  0  0  0  0  0
  142.2270   77.6920  219.4870 C   0  0  0  0  0  0  0  0  0  0  0  0
  141.8110   77.2030  220.8640 C   0  0  1  0  0  0  0  0  0  0  0  0
  141.4620   78.3110  221.7380 C   0  0  0  0  0  0  0  0  0  0  0  0
  141.5470   78.2040  223.1340 C   0  0  0  0  0  0  0  0  0  0  0  0
  141.2190   79.2440  223.9510 C   0  0  0  0  0  0  0  0  0  0  0  0
  140.7880   80.4550  223.4510 C   0  0  0  0  0  0  0  0  0  0  0  0
  140.6930   80.5920  222.0690 C   0  0  0  0  0  0  0  0  0  0  0  0
  141.0310   79.5220  221.2590 C   0  0  0  0  0  0  0  0  0  0  0  0
  139.4440   71.4520  223.1830 C   0  0  0  0  0  0  0  0  0  0  0  0
  139.0880   70.1250  223.0360 C   0  0  0  0  0  0  0  0  0  0  0  0
  139.3070   69.1800  224.0260 C   0  0  0  0  0  0  0  0  0  0  0  0
  139.9120   69.6370  225.1930 C   0  0  0  0  0  0  0  0  0  0  0  0
  140.1570   68.7380  226.2210 C   0  0  0  0  0  0  0  0  0  0  0  0
  140.7630   69.2260  227.3740 C   0  0  0  0  0  0  0  0  0  0  0  0
  141.0980   68.1450  228.7050 Cl  0  0  0  0  0  0  0  0  0  0  0  0
  141.1140   70.5650  227.5050 C   0  0  0  0  0  0  0  0  0  0  0  0
  140.8680   71.4600  226.4780 C   0  0  0  0  0  0  0  0  0  0  0  0
  140.2610   70.9690  225.3230 C   0  0  0  0  0  0  0  0  0  0  0  0
  140.0280   71.8660  224.3260 N   0  0  0  0  0  0  0  0  0  0  0  0
  139.4910   74.1390  223.2300 H   0  0  0  0  0  0  0  0  0  0  0  0
  139.2950   74.1533  220.2594 H   0  0  0  0  0  0  0  0  0  0  0  0
  137.8791   74.8280  221.1682 H   0  0  0  0  0  0  0  0  0  0  0  0
  141.5214   74.5368  219.5169 H   0  0  0  0  0  0  0  0  0  0  0  0
  140.3268   75.4891  218.6295 H   0  0  0  0  0  0  0  0  0  0  0  0
  142.2272   76.4828  217.6342 H   0  0  0  0  0  0  0  0  0  0  0  0
  143.2015   78.2014  219.5167 H   0  0  0  0  0  0  0  0  0  0  0  0
  141.5453   78.4331  219.0443 H   0  0  0  0  0  0  0  0  0  0  0  0
  142.5973   76.7291  221.4699 H   0  0  0  0  0  0  0  0  0  0  0  0
  141.8867   77.2576  223.5800 H   0  0  0  0  0  0  0  0  0  0  0  0
  141.3003   79.1141  225.0403 H   0  0  0  0  0  0  0  0  0  0  0  0
  140.5276   81.2861  224.1229 H   0  0  0  0  0  0  0  0  0  0  0  0
  140.3532   81.5397  221.6259 H   0  0  0  0  0  0  0  0  0  0  0  0
  140.9495   79.6498  220.1695 H   0  0  0  0  0  0  0  0  0  0  0  0
  138.6123   69.8062  222.0968 H   0  0  0  0  0  0  0  0  0  0  0  0
  139.0184   68.1265  223.8964 H   0  0  0  0  0  0  0  0  0  0  0  0
  139.8818   67.6771  226.1275 H   0  0  0  0  0  0  0  0  0  0  0  0
  141.5909   70.9159  228.4321 H   0  0  0  0  0  0  0  0  0  0  0  0
  141.1419   72.5214  226.5700 H   0  0  0  0  0  0  0  0  0  0  0  0
  1  2  2  0
  2  3  1  0
  3  4  1  0
  4  5  1  0
  5  6  2  0
  5  7  1  0
  7  8  1  0
  8  9  1  0
  9 10  1  0
  9 11  1  0
 11 12  1  0
 12 13  1  0
 13 14  2  0
 14 15  1  0
 15 16  2  0
 16 17  1  0
 17 18  2  0
  2 19  1  0
 19 20  2  0
 20 21  1  0
 21 22  2  0
 22 23  1  0
 23 24  2  0
 24 25  1  0
 24 26  1  0
 26 27  2  0
 27 28  1  0
 28 29  2  0
 12  7  1  0
 18 13  1  0
 29 19  1  0
 28 22  1  0
  3 30  1  0
  4 31  1  0
  4 32  1  0
  8 33  1  0
  8 34  1  0
  9 35  1  6
 11 36  1  0
 11 37  1  0
 12 38  1  1
 14 39  1  0
 15 40  1  0
 16 41  1  0
 17 42  1  0
 18 43  1  0
 20 44  1  0
 21 45  1  0
 23 46  1  0
 26 47  1  0
 27 48  1  0
M  END
>  <smiles>  (27) 
O=C(NCC(=O)N1C[C@H](F)C[C@H]1c1ccccc1)c1ccc2cc(Cl)ccc2n1

>  <score_type>  (27) 
oracle

>  <origin>  (27) 
autodockgpu

>  <m_score__min__energy>  (27) 
-8.6999999999999993

>  <m_primary>  (27) 
energy

>  <rmsd>  (27) 
1.451873785494338

>  <m_score__min__rmsd>  (27) 
1.451873785494338

>  <meeko>  (27) 
{"free_energy": -8.23, "intermolecular_energy": -9.72, "internal_energy": -1.42, "cluster_size": 15, "cluster_id": 1, "rank_in_cluster": 7}

>  <energy>  (27) 
-8.27

>  <cluster_rmsd>  (27) 
1.21

>  <cluster>  (27) 
2

$$$$

     RDKit          3D

 48 51  0  0  0  0  0  0  0  0999 V2000
  140.1390   72.4630  220.7650 O   0  0  0  0  0  0  0  0  0  0  0  0
  139.9170   72.8200  221.9620 C   0  0  0  0  0  0  0  0  0  0  0  0
  139.5930   74.1860  222.2150 N   0  0  0  0  0  0  0  0  0  0  0  0
  139.5310   75.0870  221.1110 C   0  0  0  0  0  0  0  0  0  0  0  0
  138.9510   76.4200  221.5150 C   0  0  0  0  0  0  0  0  0  0  0  0
  138.6130   76.5130  222.7220 O   0  0  0  0  0  0  0  0  0  0  0  0
  138.8200   77.4570  220.5670 N   0  0  0  0  0  0  0  0  0  0  0  0
  137.7680   77.5330  219.5440 C   0  0  0  0  0  0  0  0  0  0  0  0
  137.8650   78.9290  218.9750 C   0  0  2  0  0  0  0  0  0  0  0  0
  138.6070   78.8980  217.7870 F   0  0  0  0  0  0  0  0  0  0  0  0
  138.6990   79.6730  219.9960 C   0  0  0  0  0  0  0  0  0  0  0  0
  139.6610   78.5830  220.4350 C   0  0  1  0  0  0  0  0  0  0  0  0
  140.4470   79.0000  221.5850 C   0  0  0  0  0  0  0  0  0  0  0  0
  139.8410   79.4070  222.7840 C   0  0  0  0  0  0  0  0  0  0  0  0
  140.5800   79.7970  223.8600 C   0  0  0  0  0  0  0  0  0  0  0  0
  141.9580   79.8120  223.8310 C   0  0  0  0  0  0  0  0  0  0  0  0
  142.5890   79.4140  222.6550 C   0  0  0  0  0  0  0  0  0  0  0  0
  141.8180   79.0210  221.5740 C   0  0  0  0  0  0  0  0  0  0  0  0
  139.9850   71.8820  223.0770 C   0  0  0  0  0  0  0  0  0  0  0  0
  139.5270   70.5950  222.8650 C   0  0  0  0  0  0  0  0  0  0  0  0
  139.5450   69.6250  223.8550 C   0  0  0  0  0  0  0  0  0  0  0  0
  140.0520   70.0130  225.0910 C   0  0  0  0  0  0  0  0  0  0  0  0
  140.0960   69.0860  226.1220 C   0  0  0  0  0  0  0  0  0  0  0  0
  140.6090   69.5040  227.3460 C   0  0  0  0  0  0  0  0  0  0  0  0
  140.6910   68.3850  228.6840 Cl  0  0  0  0  0  0  0  0  0  0  0  0
  141.0650   70.8040  227.5410 C   0  0  0  0  0  0  0  0  0  0  0  0
  141.0200   71.7270  226.5100 C   0  0  0  0  0  0  0  0  0  0  0  0
  140.5060   71.3050  225.2850 C   0  0  0  0  0  0  0  0  0  0  0  0
  140.4710   72.2280  224.2860 N   0  0  0  0  0  0  0  0  0  0  0  0
  139.4060   74.5030  223.1930 H   0  0  0  0  0  0  0  0  0  0  0  0
  140.5473   75.2434  220.7201 H   0  0  0  0  0  0  0  0  0  0  0  0
  138.8787   74.6461  220.3428 H   0  0  0  0  0  0  0  0  0  0  0  0
  137.9406   76.7836  218.7575 H   0  0  0  0  0  0  0  0  0  0  0  0
  136.7720   77.3299  219.9643 H   0  0  0  0  0  0  0  0  0  0  0  0
  136.8772   79.3710  218.7775 H   0  0  0  0  0  0  0  0  0  0  0  0
  139.2308   80.5220  219.5417 H   0  0  0  0  0  0  0  0  0  0  0  0
  138.1182   80.1218  220.8153 H   0  0  0  0  0  0  0  0  0  0  0  0
  140.4725   78.3393  219.7335 H   0  0  0  0  0  0  0  0  0  0  0  0
  138.7434   79.4111  222.8565 H   0  0  0  0  0  0  0  0  0  0  0  0
  140.0619   80.1090  224.7788 H   0  0  0  0  0  0  0  0  0  0  0  0
  142.5407   80.1282  224.7087 H   0  0  0  0  0  0  0  0  0  0  0  0
  143.6868   79.4119  222.5857 H   0  0  0  0  0  0  0  0  0  0  0  0
  142.3345   78.7080  220.6546 H   0  0  0  0  0  0  0  0  0  0  0  0
  139.1331   70.3305  221.8726 H   0  0  0  0  0  0  0  0  0  0  0  0
  139.1783   68.6040  223.6732 H   0  0  0  0  0  0  0  0  0  0  0  0
  139.7377   68.0561  225.9769 H   0  0  0  0  0  0  0  0  0  0  0  0
  141.4644   71.1008  228.5220 H   0  0  0  0  0  0  0  0  0  0  0  0
  141.3775   72.7575  226.6526 H   0  0  0  0  0  0  0  0  0  0  0  0
  1  2  2  0
  2  3  1  0
  3  4  1  0
  4  5  1  0
  5  6  2  0
  5  7  1  0
  7  8  1  0
  8  9  1  0
  9 10  1  0
  9 11  1  0
 11 12  1  0
 12 13  1  0
 13 14  2  0
 14 15  1  0
 15 16  2  0
 16 17  1  0
 17 18  2  0
  2 19  1  0
 19 20  2  0
 20 21  1  0
 21 22  2  0
 22 23  1  0
 23 24  2  0
 24 25  1  0
 24 26  1  0
 26 27  2  0
 27 28  1  0
 28 29  2  0
 12  7  1  0
 18 13  1  0
 29 19  1  0
 28 22  1  0
  3 30  1  0
  4 31  1  0
  4 32  1  0
  8 33  1  0
  8 34  1  0
  9 35  1  6
 11 36  1  0
 11 37  1  0
 12 38  1  6
 14 39  1  0
 15 40  1  0
 16 41  1  0
 17 42  1  0
 18 43  1  0
 20 44  1  0
 21 45  1  0
 23 46  1  0
 26 47  1  0
 27 48  1  0
M  END
>  <smiles>  (28) 
O=C(NCC(=O)N1C[C@H](F)C[C@H]1c1ccccc1)c1ccc2cc(Cl)ccc2n1

>  <score_type>  (28) 
oracle

>  <origin>  (28) 
autodockgpu

>  <m_score__min__energy>  (28) 
-8.6999999999999993

>  <m_primary>  (28) 
energy

>  <rmsd>  (28) 
2.343925252063059

>  <m_score__min__rmsd>  (28) 
2.343925252063059

>  <meeko>  (28) 
{"free_energy": -7.84, "intermolecular_energy": -9.33, "internal_energy": -1.9, "cluster_size": 15, "cluster_id": 1, "rank_in_cluster": 13}

>  <energy>  (28) 
-7.7

>  <cluster_rmsd>  (28) 
1.04

>  <cluster>  (28) 
2

$$$$

     RDKit          3D

 48 51  0  0  0  0  0  0  0  0999 V2000
  140.0970   72.0730  220.7460 O   0  0  0  0  0  0  0  0  0  0  0  0
  139.9430   72.4650  221.9420 C   0  0  0  0  0  0  0  0  0  0  0  0
  139.7010   73.8510  222.1770 N   0  0  0  0  0  0  0  0  0  0  0  0
  139.6420   74.7320  221.0580 C   0  0  0  0  0  0  0  0  0  0  0  0
  140.7400   75.7660  221.1060 C   0  0  0  0  0  0  0  0  0  0  0  0
  141.0760   76.1360  222.2600 O   0  0  0  0  0  0  0  0  0  0  0  0
  141.3170   76.2500  219.9120 N   0  0  0  0  0  0  0  0  0  0  0  0
  140.9750   77.5280  219.2720 C   0  0  0  0  0  0  0  0  0  0  0  0
  142.0330   77.7400  218.2140 C   0  0  2  0  0  0  0  0  0  0  0  0
  141.5390   77.3220  216.9720 F   0  0  0  0  0  0  0  0  0  0  0  0
  143.1250   76.7660  218.6030 C   0  0  0  0  0  0  0  0  0  0  0  0
  142.3040   75.6050  219.1370 C   0  0  1  0  0  0  0  0  0  0  0  0
  143.1460   74.6080  219.7770 C   0  0  0  0  0  0  0  0  0  0  0  0
  144.4530   74.9040  220.1920 C   0  0  0  0  0  0  0  0  0  0  0  0
  145.2410   73.9680  220.7920 C   0  0  0  0  0  0  0  0  0  0  0  0
  144.7980   72.6830  221.0240 C   0  0  0  0  0  0  0  0  0  0  0  0
  143.5050   72.3590  220.6230 C   0  0  0  0  0  0  0  0  0  0  0  0
  142.7220   73.3250  220.0150 C   0  0  0  0  0  0  0  0  0  0  0  0
  140.0070   71.5470  223.0750 C   0  0  0  0  0  0  0  0  0  0  0  0
  139.5410   70.2600  222.8870 C   0  0  0  0  0  0  0  0  0  0  0  0
  139.5540   69.3080  223.8950 C   0  0  0  0  0  0  0  0  0  0  0  0
  140.0660   69.7160  225.1230 C   0  0  0  0  0  0  0  0  0  0  0  0
  140.1060   68.8070  226.1700 C   0  0  0  0  0  0  0  0  0  0  0  0
  140.6240   69.2450  227.3850 C   0  0  0  0  0  0  0  0  0  0  0  0
  140.7010   68.1510  228.7440 Cl  0  0  0  0  0  0  0  0  0  0  0  0
  141.0870   70.5450  227.5560 C   0  0  0  0  0  0  0  0  0  0  0  0
  141.0460   71.4500  226.5090 C   0  0  0  0  0  0  0  0  0  0  0  0
  140.5280   71.0090  225.2920 C   0  0  0  0  0  0  0  0  0  0  0  0
  140.4960   71.9130  224.2760 N   0  0  0  0  0  0  0  0  0  0  0  0
  139.5720   74.1980  223.1550 H   0  0  0  0  0  0  0  0  0  0  0  0
  139.7461   74.1435  220.1345 H   0  0  0  0  0  0  0  0  0  0  0  0
  138.6751   75.2558  221.0834 H   0  0  0  0  0  0  0  0  0  0  0  0
  139.9767   77.4741  218.8132 H   0  0  0  0  0  0  0  0  0  0  0  0
  140.9481   78.3552  219.9966 H   0  0  0  0  0  0  0  0  0  0  0  0
  142.3547   78.7897  218.1459 H   0  0  0  0  0  0  0  0  0  0  0  0
  143.7282   76.4673  217.7329 H   0  0  0  0  0  0  0  0  0  0  0  0
  143.8574   77.1691  219.3179 H   0  0  0  0  0  0  0  0  0  0  0  0
  141.8085   74.9736  218.3848 H   0  0  0  0  0  0  0  0  0  0  0  0
  144.8514   75.9163  220.0291 H   0  0  0  0  0  0  0  0  0  0  0  0
  146.2598   74.2456  221.1001 H   0  0  0  0  0  0  0  0  0  0  0  0
  145.4453   71.9382  221.5101 H   0  0  0  0  0  0  0  0  0  0  0  0
  143.1096   71.3458  220.7876 H   0  0  0  0  0  0  0  0  0  0  0  0
  141.7033   73.0487  219.7054 H   0  0  0  0  0  0  0  0  0  0  0  0
  139.1445   69.9799  221.8999 H   0  0  0  0  0  0  0  0  0  0  0  0
  139.1801   68.2863  223.7329 H   0  0  0  0  0  0  0  0  0  0  0  0
  139.7413   67.7768  226.0443 H   0  0  0  0  0  0  0  0  0  0  0  0
  141.4892   70.8569  228.5312 H   0  0  0  0  0  0  0  0  0  0  0  0
  141.4094   72.4808  226.6330 H   0  0  0  0  0  0  0  0  0  0  0  0
  1  2  2  0
  2  3  1  0
  3  4  1  0
  4  5  1  0
  5  6  2  0
  5  7  1  0
  7  8  1  0
  8  9  1  0
  9 10  1  0
  9 11  1  0
 11 12  1  0
 12 13  1  0
 13 14  2  0
 14 15  1  0
 15 16  2  0
 16 17  1  0
 17 18  2  0
  2 19  1  0
 19 20  2  0
 20 21  1  0
 21 22  2  0
 22 23  1  0
 23 24  2  0
 24 25  1  0
 24 26  1  0
 26 27  2  0
 27 28  1  0
 28 29  2  0
 12  7  1  0
 18 13  1  0
 29 19  1  0
 28 22  1  0
  3 30  1  0
  4 31  1  0
  4 32  1  0
  8 33  1  0
  8 34  1  0
  9 35  1  6
 11 36  1  0
 11 37  1  0
 12 38  1  6
 14 39  1  0
 15 40  1  0
 16 41  1  0
 17 42  1  0
 18 43  1  0
 20 44  1  0
 21 45  1  0
 23 46  1  0
 26 47  1  0
 27 48  1  0
M  END
>  <smiles>  (29) 
O=C(NCC(=O)N1C[C@H](F)C[C@H]1c1ccccc1)c1ccc2cc(Cl)ccc2n1

>  <score_type>  (29) 
oracle

>  <origin>  (29) 
autodockgpu

>  <m_score__min__energy>  (29) 
-8.6999999999999993

>  <m_primary>  (29) 
energy

>  <rmsd>  (29) 
2.0687824441012252

>  <m_score__min__rmsd>  (29) 
2.0687824441012252

>  <meeko>  (29) 
{"free_energy": -8.27, "intermolecular_energy": -9.76, "internal_energy": -1.99, "cluster_size": 20, "cluster_id": 4, "rank_in_cluster": 3}

>  <energy>  (29) 
-8.46

>  <cluster_rmsd>  (29) 
0.0

>  <cluster>  (29) 
3

$$$$

     RDKit          3D

 48 51  0  0  0  0  0  0  0  0999 V2000
  139.7290   71.6240  220.8330 O   0  0  0  0  0  0  0  0  0  0  0  0
  139.7420   72.0970  222.0100 C   0  0  0  0  0  0  0  0  0  0  0  0
  139.6450   73.5110  222.1740 N   0  0  0  0  0  0  0  0  0  0  0  0
  139.5370   74.3270  221.0100 C   0  0  0  0  0  0  0  0  0  0  0  0
  140.2910   75.6240  221.1690 C   0  0  0  0  0  0  0  0  0  0  0  0
  140.3980   76.0390  222.3510 O   0  0  0  0  0  0  0  0  0  0  0  0
  140.8180   76.2850  220.0390 N   0  0  0  0  0  0  0  0  0  0  0  0
  140.3350   77.5700  219.5150 C   0  0  0  0  0  0  0  0  0  0  0  0
  141.3710   78.0040  218.5050 C   0  0  2  0  0  0  0  0  0  0  0  0
  140.9430   77.6540  217.2180 F   0  0  0  0  0  0  0  0  0  0  0  0
  142.5660   77.1320  218.8240 C   0  0  0  0  0  0  0  0  0  0  0  0
  141.8820   75.8370  219.2280 C   0  0  1  0  0  0  0  0  0  0  0  0
  142.8300   74.8880  219.7890 C   0  0  0  0  0  0  0  0  0  0  0  0
  144.1480   75.2570  220.0970 C   0  0  0  0  0  0  0  0  0  0  0  0
  145.0340   74.3660  220.6230 C   0  0  0  0  0  0  0  0  0  0  0  0
  144.6850   73.0570  220.8800 C   0  0  0  0  0  0  0  0  0  0  0  0
  143.3840   72.6600  220.5840 C   0  0  0  0  0  0  0  0  0  0  0  0
  142.5010   73.5820  220.0510 C   0  0  0  0  0  0  0  0  0  0  0  0
  139.8540   71.2450  223.1890 C   0  0  0  0  0  0  0  0  0  0  0  0
  139.4210   69.9370  223.0800 C   0  0  0  0  0  0  0  0  0  0  0  0
  139.4820   69.0420  224.1380 C   0  0  0  0  0  0  0  0  0  0  0  0
  140.0050   69.5300  225.3310 C   0  0  0  0  0  0  0  0  0  0  0  0
  140.0910   68.6820  226.4260 C   0  0  0  0  0  0  0  0  0  0  0  0
  140.6200   69.2000  227.6040 C   0  0  0  0  0  0  0  0  0  0  0  0
  140.7540   68.1840  229.0180 Cl  0  0  0  0  0  0  0  0  0  0  0  0
  141.0490   70.5190  227.6940 C   0  0  0  0  0  0  0  0  0  0  0  0
  140.9620   71.3640  226.6000 C   0  0  0  0  0  0  0  0  0  0  0  0
  140.4330   70.8430  225.4200 C   0  0  0  0  0  0  0  0  0  0  0  0
  140.3560   71.6890  224.3580 N   0  0  0  0  0  0  0  0  0  0  0  0
  139.6540   73.9240  223.1350 H   0  0  0  0  0  0  0  0  0  0  0  0
  139.9482   73.7782  220.1499 H   0  0  0  0  0  0  0  0  0  0  0  0
  138.4743   74.5638  220.8533 H   0  0  0  0  0  0  0  0  0  0  0  0
  139.3547   77.4450  219.0319 H   0  0  0  0  0  0  0  0  0  0  0  0
  140.2038   78.3150  220.3136 H   0  0  0  0  0  0  0  0  0  0  0  0
  141.5670   79.0857  218.5433 H   0  0  0  0  0  0  0  0  0  0  0  0
  143.2095   76.9910  217.9431 H   0  0  0  0  0  0  0  0  0  0  0  0
  143.2382   77.5471  219.5894 H   0  0  0  0  0  0  0  0  0  0  0  0
  141.4718   75.2275  218.4093 H   0  0  0  0  0  0  0  0  0  0  0  0
  144.4738   76.2907  219.9092 H   0  0  0  0  0  0  0  0  0  0  0  0
  146.0572   74.7003  220.8492 H   0  0  0  0  0  0  0  0  0  0  0  0
  145.4115   72.3490  221.3054 H   0  0  0  0  0  0  0  0  0  0  0  0
  143.0618   71.6251  220.7717 H   0  0  0  0  0  0  0  0  0  0  0  0
  141.4773   73.2493  219.8244 H   0  0  0  0  0  0  0  0  0  0  0  0
  139.0128   69.5929  222.1183 H   0  0  0  0  0  0  0  0  0  0  0  0
  139.1355   68.0027  224.0390 H   0  0  0  0  0  0  0  0  0  0  0  0
  139.7529   67.6370  226.3648 H   0  0  0  0  0  0  0  0  0  0  0  0
  141.4611   70.8950  228.6421 H   0  0  0  0  0  0  0  0  0  0  0  0
  141.2985   72.4095  226.6601 H   0  0  0  0  0  0  0  0  0  0  0  0
  1  2  2  0
  2  3  1  0
  3  4  1  0
  4  5  1  0
  5  6  2  0
  5  7  1  0
  7  8  1  0
  8  9  1  0
  9 10  1  0
  9 11  1  0
 11 12  1  0
 12 13  1  0
 13 14  2  0
 14 15  1  0
 15 16  2  0
 16 17  1  0
 17 18  2  0
  2 19  1  0
 19 20  2  0
 20 21  1  0
 21 22  2  0
 22 23  1  0
 23 24  2  0
 24 25  1  0
 24 26  1  0
 26 27  2  0
 27 28  1  0
 28 29  2  0
 12  7  1  0
 18 13  1  0
 29 19  1  0
 28 22  1  0
  3 30  1  0
  4 31  1  0
  4 32  1  0
  8 33  1  0
  8 34  1  0
  9 35  1  6
 11 36  1  0
 11 37  1  0
 12 38  1  6
 14 39  1  0
 15 40  1  0
 16 41  1  0
 17 42  1  0
 18 43  1  0
 20 44  1  0
 21 45  1  0
 23 46  1  0
 26 47  1  0
 27 48  1  0
M  END
>  <smiles>  (30) 
O=C(NCC(=O)N1C[C@H](F)C[C@H]1c1ccccc1)c1ccc2cc(Cl)ccc2n1

>  <score_type>  (30) 
oracle

>  <origin>  (30) 
autodockgpu

>  <m_score__min__energy>  (30) 
-8.6999999999999993

>  <m_primary>  (30) 
energy

>  <rmsd>  (30) 
1.8305764366979789

>  <m_score__min__rmsd>  (30) 
1.8305764366979789

>  <meeko>  (30) 
{"free_energy": -7.91, "intermolecular_energy": -9.4, "internal_energy": -2.06, "cluster_size": 20, "cluster_id": 4, "rank_in_cluster": 16}

>  <energy>  (30) 
-8.29

>  <cluster_rmsd>  (30) 
0.0

>  <cluster>  (30) 
4

$$$$

     RDKit          3D

 48 51  0  0  0  0  0  0  0  0999 V2000
  140.3850   71.9980  220.7770 O   0  0  0  0  0  0  0  0  0  0  0  0
  140.1100   72.4060  221.9460 C   0  0  0  0  0  0  0  0  0  0  0  0
  139.8000   73.7860  222.1280 N   0  0  0  0  0  0  0  0  0  0  0  0
  139.8110   74.6430  220.9880 C   0  0  0  0  0  0  0  0  0  0  0  0
  140.8130   75.7610  221.1430 C   0  0  0  0  0  0  0  0  0  0  0  0
  141.0410   76.1140  222.3290 O   0  0  0  0  0  0  0  0  0  0  0  0
  141.4220   76.3350  220.0080 N   0  0  0  0  0  0  0  0  0  0  0  0
  141.1270   77.6760  219.4830 C   0  0  0  0  0  0  0  0  0  0  0  0
  142.2070   77.9520  218.4630 C   0  0  2  0  0  0  0  0  0  0  0  0
  141.7220   77.6650  217.1810 F   0  0  0  0  0  0  0  0  0  0  0  0
  143.2650   76.9160  218.7760 C   0  0  0  0  0  0  0  0  0  0  0  0
  142.4030   75.7350  219.1900 C   0  0  1  0  0  0  0  0  0  0  0  0
  143.2070   74.6600  219.7480 C   0  0  0  0  0  0  0  0  0  0  0  0
  144.4770   74.8960  220.2960 C   0  0  0  0  0  0  0  0  0  0  0  0
  145.2280   73.8860  220.8180 C   0  0  0  0  0  0  0  0  0  0  0  0
  144.7830   72.5820  220.8360 C   0  0  0  0  0  0  0  0  0  0  0  0
  143.5270   72.3150  220.2990 C   0  0  0  0  0  0  0  0  0  0  0  0
  142.7810   73.3560  219.7740 C   0  0  0  0  0  0  0  0  0  0  0  0
  140.1040   71.5130  223.1000 C   0  0  0  0  0  0  0  0  0  0  0  0
  139.5440   70.2600  222.9400 C   0  0  0  0  0  0  0  0  0  0  0  0
  139.4860   69.3330  223.9700 C   0  0  0  0  0  0  0  0  0  0  0  0
  140.0250   69.7300  225.1900 C   0  0  0  0  0  0  0  0  0  0  0  0
  139.9960   68.8460  226.2580 C   0  0  0  0  0  0  0  0  0  0  0  0
  140.5440   69.2720  227.4640 C   0  0  0  0  0  0  0  0  0  0  0  0
  140.5380   68.2070  228.8480 Cl  0  0  0  0  0  0  0  0  0  0  0  0
  141.1030   70.5370  227.6060 C   0  0  0  0  0  0  0  0  0  0  0  0
  141.1300   71.4180  226.5380 C   0  0  0  0  0  0  0  0  0  0  0  0
  140.5820   70.9890  225.3300 C   0  0  0  0  0  0  0  0  0  0  0  0
  140.6190   71.8690  224.2930 N   0  0  0  0  0  0  0  0  0  0  0  0
  139.5710   74.1460  223.0820 H   0  0  0  0  0  0  0  0  0  0  0  0
  140.0719   74.0506  220.0986 H   0  0  0  0  0  0  0  0  0  0  0  0
  138.8110   75.0892  220.8834 H   0  0  0  0  0  0  0  0  0  0  0  0
  140.1350   77.6941  219.0081 H   0  0  0  0  0  0  0  0  0  0  0  0
  141.1125   78.4341  220.2799 H   0  0  0  0  0  0  0  0  0  0  0  0
  142.5588   78.9937  218.4956 H   0  0  0  0  0  0  0  0  0  0  0  0
  143.8740   76.6806  217.8907 H   0  0  0  0  0  0  0  0  0  0  0  0
  143.9966   77.2307  219.5348 H   0  0  0  0  0  0  0  0  0  0  0  0
  141.9023   75.1899  218.3762 H   0  0  0  0  0  0  0  0  0  0  0  0
  144.8759   75.9211  220.3044 H   0  0  0  0  0  0  0  0  0  0  0  0
  146.2181   74.1183  221.2371 H   0  0  0  0  0  0  0  0  0  0  0  0
  145.4009   71.7775  221.2613 H   0  0  0  0  0  0  0  0  0  0  0  0
  143.1317   71.2885  220.2919 H   0  0  0  0  0  0  0  0  0  0  0  0
  141.7910   73.1249  219.3540 H   0  0  0  0  0  0  0  0  0  0  0  0
  139.1285   69.9874  221.9586 H   0  0  0  0  0  0  0  0  0  0  0  0
  139.0383   68.3380  223.8301 H   0  0  0  0  0  0  0  0  0  0  0  0
  139.5553   67.8434  226.1554 H   0  0  0  0  0  0  0  0  0  0  0  0
  141.5272   70.8405  228.5745 H   0  0  0  0  0  0  0  0  0  0  0  0
  141.5687   72.4216  226.6392 H   0  0  0  0  0  0  0  0  0  0  0  0
  1  2  2  0
  2  3  1  0
  3  4  1  0
  4  5  1  0
  5  6  2  0
  5  7  1  0
  7  8  1  0
  8  9  1  0
  9 10  1  0
  9 11  1  0
 11 12  1  0
 12 13  1  0
 13 14  2  0
 14 15  1  0
 15 16  2  0
 16 17  1  0
 17 18  2  0
  2 19  1  0
 19 20  2  0
 20 21  1  0
 21 22  2  0
 22 23  1  0
 23 24  2  0
 24 25  1  0
 24 26  1  0
 26 27  2  0
 27 28  1  0
 28 29  2  0
 12  7  1  0
 18 13  1  0
 29 19  1  0
 28 22  1  0
  3 30  1  0
  4 31  1  0
  4 32  1  0
  8 33  1  0
  8 34  1  0
  9 35  1  6
 11 36  1  0
 11 37  1  0
 12 38  1  6
 14 39  1  0
 15 40  1  0
 16 41  1  0
 17 42  1  0
 18 43  1  0
 20 44  1  0
 21 45  1  0
 23 46  1  0
 26 47  1  0
 27 48  1  0
M  END
>  <smiles>  (31) 
O=C(NCC(=O)N1C[C@H](F)C[C@H]1c1ccccc1)c1ccc2cc(Cl)ccc2n1

>  <score_type>  (31) 
oracle

>  <origin>  (31) 
autodockgpu

>  <m_score__min__energy>  (31) 
-8.6999999999999993

>  <m_primary>  (31) 
energy

>  <rmsd>  (31) 
2.1699537246302474

>  <m_score__min__rmsd>  (31) 
2.1699537246302474

>  <meeko>  (31) 
{"free_energy": -8.25, "intermolecular_energy": -9.74, "internal_energy": -1.95, "cluster_size": 20, "cluster_id": 4, "rank_in_cluster": 7}

>  <energy>  (31) 
-8.28

>  <cluster_rmsd>  (31) 
0.06

>  <cluster>  (31) 
4

$$$$

     RDKit          3D

 48 51  0  0  0  0  0  0  0  0999 V2000
  140.1520   72.2660  220.7930 O   0  0  0  0  0  0  0  0  0  0  0  0
  139.9180   72.6200  221.9880 C   0  0  0  0  0  0  0  0  0  0  0  0
  139.5790   73.9820  222.2390 N   0  0  0  0  0  0  0  0  0  0  0  0
  139.5160   74.8840  221.1370 C   0  0  0  0  0  0  0  0  0  0  0  0
  140.8160   75.6280  220.9530 C   0  0  0  0  0  0  0  0  0  0  0  0
  141.4050   75.9470  222.0180 O   0  0  0  0  0  0  0  0  0  0  0  0
  141.2940   75.9200  219.6570 N   0  0  0  0  0  0  0  0  0  0  0  0
  140.8220   77.0290  218.8180 C   0  0  0  0  0  0  0  0  0  0  0  0
  141.8060   77.1130  217.6750 C   0  0  2  0  0  0  0  0  0  0  0  0
  141.2870   76.4380  216.5630 F   0  0  0  0  0  0  0  0  0  0  0  0
  142.9900   76.3070  218.1660 C   0  0  0  0  0  0  0  0  0  0  0  0
  142.2900   75.2110  218.9530 C   0  0  1  0  0  0  0  0  0  0  0  0
  143.2390   74.4120  219.7100 C   0  0  0  0  0  0  0  0  0  0  0  0
  142.9570   73.0880  220.0810 C   0  0  0  0  0  0  0  0  0  0  0  0
  143.8480   72.3410  220.7910 C   0  0  0  0  0  0  0  0  0  0  0  0
  145.0720   72.8420  221.1800 C   0  0  0  0  0  0  0  0  0  0  0  0
  145.3810   74.1530  220.8280 C   0  0  0  0  0  0  0  0  0  0  0  0
  144.4600   74.8940  220.1070 C   0  0  0  0  0  0  0  0  0  0  0  0
  139.9870   71.6820  223.1040 C   0  0  0  0  0  0  0  0  0  0  0  0
  139.5270   70.3960  222.8920 C   0  0  0  0  0  0  0  0  0  0  0  0
  139.5470   69.4260  223.8830 C   0  0  0  0  0  0  0  0  0  0  0  0
  140.0580   69.8130  225.1180 C   0  0  0  0  0  0  0  0  0  0  0  0
  140.1020   68.8860  226.1490 C   0  0  0  0  0  0  0  0  0  0  0  0
  140.6190   69.3040  227.3710 C   0  0  0  0  0  0  0  0  0  0  0  0
  140.7030   68.1850  228.7090 Cl  0  0  0  0  0  0  0  0  0  0  0  0
  141.0770   70.6020  227.5650 C   0  0  0  0  0  0  0  0  0  0  0  0
  141.0310   71.5260  226.5340 C   0  0  0  0  0  0  0  0  0  0  0  0
  140.5130   71.1050  225.3100 C   0  0  0  0  0  0  0  0  0  0  0  0
  140.4770   72.0280  224.3110 N   0  0  0  0  0  0  0  0  0  0  0  0
  139.3820   74.2970  223.2170 H   0  0  0  0  0  0  0  0  0  0  0  0
  139.2980   74.3144  220.2215 H   0  0  0  0  0  0  0  0  0  0  0  0
  138.7241   75.6200  221.3397 H   0  0  0  0  0  0  0  0  0  0  0  0
  139.8098   76.8222  218.4402 H   0  0  0  0  0  0  0  0  0  0  0  0
  140.7660   77.9728  219.3803 H   0  0  0  0  0  0  0  0  0  0  0  0
  142.0389   78.1513  217.3965 H   0  0  0  0  0  0  0  0  0  0  0  0
  143.5723   75.8941  217.3291 H   0  0  0  0  0  0  0  0  0  0  0  0
  143.7219   76.8859  218.7483 H   0  0  0  0  0  0  0  0  0  0  0  0
  141.8100   74.4174  218.3616 H   0  0  0  0  0  0  0  0  0  0  0  0
  141.9936   72.6429  219.7916 H   0  0  0  0  0  0  0  0  0  0  0  0
  143.5831   71.3083  221.0617 H   0  0  0  0  0  0  0  0  0  0  0  0
  145.7821   72.2253  221.7505 H   0  0  0  0  0  0  0  0  0  0  0  0
  146.3453   74.5949  221.1192 H   0  0  0  0  0  0  0  0  0  0  0  0
  144.7225   75.9276  219.8374 H   0  0  0  0  0  0  0  0  0  0  0  0
  139.1303   70.1321  221.9005 H   0  0  0  0  0  0  0  0  0  0  0  0
  139.1786   68.4054  223.7024 H   0  0  0  0  0  0  0  0  0  0  0  0
  139.7409   67.8569  226.0054 H   0  0  0  0  0  0  0  0  0  0  0  0
  141.4792   70.8978  228.5452 H   0  0  0  0  0  0  0  0  0  0  0  0
  141.3906   72.5558  226.6760 H   0  0  0  0  0  0  0  0  0  0  0  0
  1  2  2  0
  2  3  1  0
  3  4  1  0
  4  5  1  0
  5  6  2  0
  5  7  1  0
  7  8  1  0
  8  9  1  0
  9 10  1  0
  9 11  1  0
 11 12  1  0
 12 13  1  0
 13 14  2  0
 14 15  1  0
 15 16  2  0
 16 17  1  0
 17 18  2  0
  2 19  1  0
 19 20  2  0
 20 21  1  0
 21 22  2  0
 22 23  1  0
 23 24  2  0
 24 25  1  0
 24 26  1  0
 26 27  2  0
 27 28  1  0
 28 29  2  0
 12  7  1  0
 18 13  1  0
 29 19  1  0
 28 22  1  0
  3 30  1  0
  4 31  1  0
  4 32  1  0
  8 33  1  0
  8 34  1  0
  9 35  1  6
 11 36  1  0
 11 37  1  0
 12 38  1  6
 14 39  1  0
 15 40  1  0
 16 41  1  0
 17 42  1  0
 18 43  1  0
 20 44  1  0
 21 45  1  0
 23 46  1  0
 26 47  1  0
 27 48  1  0
M  END
>  <smiles>  (32) 
O=C(NCC(=O)N1C[C@H](F)C[C@H]1c1ccccc1)c1ccc2cc(Cl)ccc2n1

>  <score_type>  (32) 
oracle

>  <origin>  (32) 
autodockgpu

>  <m_score__min__energy>  (32) 
-8.6999999999999993

>  <m_primary>  (32) 
energy

>  <rmsd>  (32) 
1.972003830027916

>  <m_score__min__rmsd>  (32) 
1.972003830027916

>  <meeko>  (32) 
{"free_energy": -8.07, "intermolecular_energy": -9.56, "internal_energy": -1.9, "cluster_size": 20, "cluster_id": 4, "rank_in_cluster": 14}

>  <energy>  (32) 
-8.27

>  <cluster_rmsd>  (32) 
0.09

>  <cluster>  (32) 
4

$$$$

     RDKit          3D

 48 51  0  0  0  0  0  0  0  0999 V2000
  140.0790   71.9690  220.7620 O   0  0  0  0  0  0  0  0  0  0  0  0
  139.9420   72.3900  221.9500 C   0  0  0  0  0  0  0  0  0  0  0  0
  139.7310   73.7850  222.1570 N   0  0  0  0  0  0  0  0  0  0  0  0
  139.6830   74.6430  221.0190 C   0  0  0  0  0  0  0  0  0  0  0  0
  140.4730   75.9090  221.2420 C   0  0  0  0  0  0  0  0  0  0  0  0
  140.5040   76.3160  222.4320 O   0  0  0  0  0  0  0  0  0  0  0  0
  141.1130   76.5510  220.1610 N   0  0  0  0  0  0  0  0  0  0  0  0
  140.9040   77.9520  219.7730 C   0  0  0  0  0  0  0  0  0  0  0  0
  141.9950   78.2570  218.7730 C   0  0  2  0  0  0  0  0  0  0  0  0
  141.4850   78.1290  217.4750 F   0  0  0  0  0  0  0  0  0  0  0  0
  142.9840   77.1280  218.9710 C   0  0  0  0  0  0  0  0  0  0  0  0
  142.0470   75.9710  219.2770 C   0  0  1  0  0  0  0  0  0  0  0  0
  142.7810   74.7950  219.7170 C   0  0  0  0  0  0  0  0  0  0  0  0
  142.3300   73.4970  219.4370 C   0  0  0  0  0  0  0  0  0  0  0  0
  143.0190   72.3970  219.8500 C   0  0  0  0  0  0  0  0  0  0  0  0
  144.1950   72.4990  220.5630 C   0  0  0  0  0  0  0  0  0  0  0  0
  144.6680   73.7750  220.8580 C   0  0  0  0  0  0  0  0  0  0  0  0
  143.9520   74.8780  220.4280 C   0  0  0  0  0  0  0  0  0  0  0  0
  139.9950   71.4960  223.1020 C   0  0  0  0  0  0  0  0  0  0  0  0
  139.5180   70.2090  222.9400 C   0  0  0  0  0  0  0  0  0  0  0  0
  139.5210   69.2780  223.9680 C   0  0  0  0  0  0  0  0  0  0  0  0
  140.0330   69.7080  225.1890 C   0  0  0  0  0  0  0  0  0  0  0  0
  140.0620   68.8210  226.2560 C   0  0  0  0  0  0  0  0  0  0  0  0
  140.5800   69.2800  227.4620 C   0  0  0  0  0  0  0  0  0  0  0  0
  140.6440   68.2140  228.8440 Cl  0  0  0  0  0  0  0  0  0  0  0  0
  141.0540   70.5800  227.6070 C   0  0  0  0  0  0  0  0  0  0  0  0
  141.0230   71.4620  226.5410 C   0  0  0  0  0  0  0  0  0  0  0  0
  140.5050   71.0000  225.3320 C   0  0  0  0  0  0  0  0  0  0  0  0
  140.4840   71.8830  224.2970 N   0  0  0  0  0  0  0  0  0  0  0  0
  139.6160   74.1560  223.1270 H   0  0  0  0  0  0  0  0  0  0  0  0
  140.1010   74.1098  220.1524 H   0  0  0  0  0  0  0  0  0  0  0  0
  138.6333   74.9201  220.8420 H   0  0  0  0  0  0  0  0  0  0  0  0
  139.9131   78.0805  219.3130 H   0  0  0  0  0  0  0  0  0  0  0  0
  140.9428   78.6274  220.6403 H   0  0  0  0  0  0  0  0  0  0  0  0
  142.4151   79.2652  218.9033 H   0  0  0  0  0  0  0  0  0  0  0  0
  143.5718   76.9416  218.0601 H   0  0  0  0  0  0  0  0  0  0  0  0
  143.7387   77.3178  219.7484 H   0  0  0  0  0  0  0  0  0  0  0  0
  141.5065   75.5427  218.4200 H   0  0  0  0  0  0  0  0  0  0  0  0
  141.3969   73.3639  218.8699 H   0  0  0  0  0  0  0  0  0  0  0  0
  142.6260   71.3985  219.6078 H   0  0  0  0  0  0  0  0  0  0  0  0
  144.7416   71.6015  220.8881 H   0  0  0  0  0  0  0  0  0  0  0  0
  145.6006   73.9046  221.4267 H   0  0  0  0  0  0  0  0  0  0  0  0
  144.3431   75.8774  220.6695 H   0  0  0  0  0  0  0  0  0  0  0  0
  139.1208   69.9117  221.9582 H   0  0  0  0  0  0  0  0  0  0  0  0
  139.1397   68.2560  223.8263 H   0  0  0  0  0  0  0  0  0  0  0  0
  139.6885   67.7916  226.1514 H   0  0  0  0  0  0  0  0  0  0  0  0
  141.4565   70.9093  228.5763 H   0  0  0  0  0  0  0  0  0  0  0  0
  141.3943   72.4923  226.6441 H   0  0  0  0  0  0  0  0  0  0  0  0
  1  2  2  0
  2  3  1  0
  3  4  1  0
  4  5  1  0
  5  6  2  0
  5  7  1  0
  7  8  1  0
  8  9  1  0
  9 10  1  0
  9 11  1  0
 11 12  1  0
 12 13  1  0
 13 14  2  0
 14 15  1  0
 15 16  2  0
 16 17  1  0
 17 18  2  0
  2 19  1  0
 19 20  2  0
 20 21  1  0
 21 22  2  0
 22 23  1  0
 23 24  2  0
 24 25  1  0
 24 26  1  0
 26 27  2  0
 27 28  1  0
 28 29  2  0
 12  7  1  0
 18 13  1  0
 29 19  1  0
 28 22  1  0
  3 30  1  0
  4 31  1  0
  4 32  1  0
  8 33  1  0
  8 34  1  0
  9 35  1  1
 11 36  1  0
 11 37  1  0
 12 38  1  6
 14 39  1  0
 15 40  1  0
 16 41  1  0
 17 42  1  0
 18 43  1  0
 20 44  1  0
 21 45  1  0
 23 46  1  0
 26 47  1  0
 27 48  1  0
M  END
>  <smiles>  (33) 
O=C(NCC(=O)N1C[C@H](F)C[C@H]1c1ccccc1)c1ccc2cc(Cl)ccc2n1

>  <score_type>  (33) 
oracle

>  <origin>  (33) 
autodockgpu

>  <m_score__min__energy>  (33) 
-8.6999999999999993

>  <m_primary>  (33) 
energy

>  <rmsd>  (33) 
2.150140295194931

>  <m_score__min__rmsd>  (33) 
2.150140295194931

>  <meeko>  (33) 
{"free_energy": -7.88, "intermolecular_energy": -9.37, "internal_energy": -2.13, "cluster_size": 20, "cluster_id": 4, "rank_in_cluster": 17}

>  <energy>  (33) 
-8.27

>  <cluster_rmsd>  (33) 
0.06

>  <cluster>  (33) 
4

$$$$

     RDKit          3D

 48 51  0  0  0  0  0  0  0  0999 V2000
  138.7190   71.9110  221.1610 O   0  0  0  0  0  0  0  0  0  0  0  0
  139.5160   72.1860  222.1080 C   0  0  0  0  0  0  0  0  0  0  0  0
  140.2770   73.3910  222.0280 N   0  0  0  0  0  0  0  0  0  0  0  0
  140.1060   74.2300  220.8880 C   0  0  0  0  0  0  0  0  0  0  0  0
  140.9030   75.5050  221.0130 C   0  0  0  0  0  0  0  0  0  0  0  0
  140.9960   75.9660  222.1790 O   0  0  0  0  0  0  0  0  0  0  0  0
  141.4830   76.0980  219.8710 N   0  0  0  0  0  0  0  0  0  0  0  0
  141.0880   77.3950  219.3050 C   0  0  0  0  0  0  0  0  0  0  0  0
  142.1590   77.7330  218.2950 C   0  0  2  0  0  0  0  0  0  0  0  0
  141.7220   77.3730  217.0140 F   0  0  0  0  0  0  0  0  0  0  0  0
  143.2940   76.7970  218.6530 C   0  0  0  0  0  0  0  0  0  0  0  0
  142.5250   75.5600  219.0860 C   0  0  1  0  0  0  0  0  0  0  0  0
  143.4040   74.5700  219.6850 C   0  0  0  0  0  0  0  0  0  0  0  0
  143.0820   73.2040  219.6900 C   0  0  0  0  0  0  0  0  0  0  0  0
  143.9090   72.2780  220.2520 C   0  0  0  0  0  0  0  0  0  0  0  0
  145.1030   72.6310  220.8440 C   0  0  0  0  0  0  0  0  0  0  0  0
  145.4500   73.9790  220.8550 C   0  0  0  0  0  0  0  0  0  0  0  0
  144.5960   74.9030  220.2780 C   0  0  0  0  0  0  0  0  0  0  0  0
  139.6770   71.3140  223.2670 C   0  0  0  0  0  0  0  0  0  0  0  0
  139.2260   70.0120  223.1590 C   0  0  0  0  0  0  0  0  0  0  0  0
  139.3290   69.1000  224.1980 C   0  0  0  0  0  0  0  0  0  0  0  0
  139.9150   69.5630  225.3720 C   0  0  0  0  0  0  0  0  0  0  0  0
  140.0450   68.6970  226.4470 C   0  0  0  0  0  0  0  0  0  0  0  0
  140.6360   69.1900  227.6060 C   0  0  0  0  0  0  0  0  0  0  0  0
  140.8300   68.1490  228.9950 Cl  0  0  0  0  0  0  0  0  0  0  0  0
  141.0830   70.5030  227.6960 C   0  0  0  0  0  0  0  0  0  0  0  0
  140.9520   71.3660  226.6220 C   0  0  0  0  0  0  0  0  0  0  0  0
  140.3600   70.8700  225.4610 C   0  0  0  0  0  0  0  0  0  0  0  0
  140.2400   71.7340  224.4170 N   0  0  0  0  0  0  0  0  0  0  0  0
  140.9400   73.6380  222.7970 H   0  0  0  0  0  0  0  0  0  0  0  0
  140.4396   73.6868  219.9916 H   0  0  0  0  0  0  0  0  0  0  0  0
  139.0412   74.4955  220.8125 H   0  0  0  0  0  0  0  0  0  0  0  0
  140.1064   77.3182  218.8144 H   0  0  0  0  0  0  0  0  0  0  0  0
  140.9970   78.1698  220.0805 H   0  0  0  0  0  0  0  0  0  0  0  0
  142.4228   78.8009  218.3042 H   0  0  0  0  0  0  0  0  0  0  0  0
  143.9360   76.5899  217.7841 H   0  0  0  0  0  0  0  0  0  0  0  0
  143.9837   77.1913  219.4138 H   0  0  0  0  0  0  0  0  0  0  0  0
  142.0856   74.9539  218.2800 H   0  0  0  0  0  0  0  0  0  0  0  0
  142.1396   72.8729  219.2293 H   0  0  0  0  0  0  0  0  0  0  0  0
  143.6153   71.2181  220.2327 H   0  0  0  0  0  0  0  0  0  0  0  0
  145.7603   71.8719  221.2932 H   0  0  0  0  0  0  0  0  0  0  0  0
  146.3929   74.3065  221.3173 H   0  0  0  0  0  0  0  0  0  0  0  0
  144.8890   75.9631  220.2958 H   0  0  0  0  0  0  0  0  0  0  0  0
  138.7681   69.6872  222.2130 H   0  0  0  0  0  0  0  0  0  0  0  0
  138.9669   68.0660  224.0996 H   0  0  0  0  0  0  0  0  0  0  0  0
  139.6932   67.6566  226.3856 H   0  0  0  0  0  0  0  0  0  0  0  0
  141.5447   70.8592  228.6287 H   0  0  0  0  0  0  0  0  0  0  0  0
  141.3026   72.4069  226.6821 H   0  0  0  0  0  0  0  0  0  0  0  0
  1  2  2  0
  2  3  1  0
  3  4  1  0
  4  5  1  0
  5  6  2  0
  5  7  1  0
  7  8  1  0
  8  9  1  0
  9 10  1  0
  9 11  1  0
 11 12  1  0
 12 13  1  0
 13 14  2  0
 14 15  1  0
 15 16  2  0
 16 17  1  0
 17 18  2  0
  2 19  1  0
 19 20  2  0
 20 21  1  0
 21 22  2  0
 22 23  1  0
 23 24  2  0
 24 25  1  0
 24 26  1  0
 26 27  2  0
 27 28  1  0
 28 29  2  0
 12  7  1  0
 18 13  1  0
 29 19  1  0
 28 22  1  0
  3 30  1  0
  4 31  1  0
  4 32  1  0
  8 33  1  0
  8 34  1  0
  9 35  1  6
 11 36  1  0
 11 37  1  0
 12 38  1  6
 14 39  1  0
 15 40  1  0
 16 41  1  0
 17 42  1  0
 18 43  1  0
 20 44  1  0
 21 45  1  0
 23 46  1  0
 26 47  1  0
 27 48  1  0
M  END
>  <smiles>  (34) 
O=C(NCC(=O)N1C[C@H](F)C[C@H]1c1ccccc1)c1ccc2cc(Cl)ccc2n1

>  <score_type>  (34) 
oracle

>  <origin>  (34) 
autodockgpu

>  <m_score__min__energy>  (34) 
-8.6999999999999993

>  <m_primary>  (34) 
energy

>  <rmsd>  (34) 
2.0920350409272856

>  <m_score__min__rmsd>  (34) 
2.0920350409272856

>  <meeko>  (34) 
{"free_energy": -7.71, "intermolecular_energy": -9.2, "internal_energy": -1.97, "cluster_size": 20, "cluster_id": 4, "rank_in_cluster": 19}

>  <energy>  (34) 
-8.25

>  <cluster_rmsd>  (34) 
0.1

>  <cluster>  (34) 
4

$$$$

     RDKit          3D

 48 51  0  0  0  0  0  0  0  0999 V2000
  140.4200   72.3250  220.8200 O   0  0  0  0  0  0  0  0  0  0  0  0
  140.0200   72.6480  221.9800 C   0  0  0  0  0  0  0  0  0  0  0  0
  139.5200   73.9680  222.1820 N   0  0  0  0  0  0  0  0  0  0  0  0
  139.4920   74.8640  221.0730 C   0  0  0  0  0  0  0  0  0  0  0  0
  140.8740   75.3560  220.7210 C   0  0  0  0  0  0  0  0  0  0  0  0
  141.6000   75.6600  221.7030 O   0  0  0  0  0  0  0  0  0  0  0  0
  141.2760   75.4500  219.3720 N   0  0  0  0  0  0  0  0  0  0  0  0
  140.6850   76.3580  218.3800 C   0  0  0  0  0  0  0  0  0  0  0  0
  141.6140   76.3100  217.1900 C   0  0  2  0  0  0  0  0  0  0  0  0
  141.1070   75.4150  216.2390 F   0  0  0  0  0  0  0  0  0  0  0  0
  142.8760   75.6890  217.7490 C   0  0  0  0  0  0  0  0  0  0  0  0
  142.2970   74.7020  218.7480 C   0  0  1  0  0  0  0  0  0  0  0  0
  143.3360   74.1170  219.5810 C   0  0  0  0  0  0  0  0  0  0  0  0
  144.4100   74.8800  220.0640 C   0  0  0  0  0  0  0  0  0  0  0  0
  145.3820   74.3300  220.8440 C   0  0  0  0  0  0  0  0  0  0  0  0
  145.3630   72.9980  221.2010 C   0  0  0  0  0  0  0  0  0  0  0  0
  144.3100   72.2150  220.7370 C   0  0  0  0  0  0  0  0  0  0  0  0
  143.3330   72.7950  219.9450 C   0  0  0  0  0  0  0  0  0  0  0  0
  140.0560   71.7160  223.1020 C   0  0  0  0  0  0  0  0  0  0  0  0
  139.5670   70.4410  222.8960 C   0  0  0  0  0  0  0  0  0  0  0  0
  139.5540   69.4770  223.8940 C   0  0  0  0  0  0  0  0  0  0  0  0
  140.0640   69.8610  225.1300 C   0  0  0  0  0  0  0  0  0  0  0  0
  140.0770   68.9410  226.1670 C   0  0  0  0  0  0  0  0  0  0  0  0
  140.5940   69.3540  227.3910 C   0  0  0  0  0  0  0  0  0  0  0  0
  140.6390   68.2430  228.7380 Cl  0  0  0  0  0  0  0  0  0  0  0  0
  141.0820   70.6430  227.5800 C   0  0  0  0  0  0  0  0  0  0  0  0
  141.0670   71.5590  226.5430 C   0  0  0  0  0  0  0  0  0  0  0  0
  140.5500   71.1430  225.3170 C   0  0  0  0  0  0  0  0  0  0  0  0
  140.5440   72.0590  224.3110 N   0  0  0  0  0  0  0  0  0  0  0  0
  139.1850   74.2580  223.1290 H   0  0  0  0  0  0  0  0  0  0  0  0
  139.0667   74.3421  220.2031 H   0  0  0  0  0  0  0  0  0  0  0  0
  138.8773   75.7335  221.3489 H   0  0  0  0  0  0  0  0  0  0  0  0
  139.6785   76.0163  218.0967 H   0  0  0  0  0  0  0  0  0  0  0  0
  140.5761   77.3794  218.7735 H   0  0  0  0  0  0  0  0  0  0  0  0
  141.7529   77.2975  216.7257 H   0  0  0  0  0  0  0  0  0  0  0  0
  143.4555   75.1780  216.9661 H   0  0  0  0  0  0  0  0  0  0  0  0
  143.5823   76.4117  218.1836 H   0  0  0  0  0  0  0  0  0  0  0  0
  141.8585   73.7853  218.3269 H   0  0  0  0  0  0  0  0  0  0  0  0
  144.4685   75.9479  219.8066 H   0  0  0  0  0  0  0  0  0  0  0  0
  146.2057   74.9666  221.1993 H   0  0  0  0  0  0  0  0  0  0  0  0
  146.1547   72.5682  221.8322 H   0  0  0  0  0  0  0  0  0  0  0  0
  144.2544   71.1475  220.9964 H   0  0  0  0  0  0  0  0  0  0  0  0
  142.5088   72.1598  219.5882 H   0  0  0  0  0  0  0  0  0  0  0  0
  139.1728   70.1797  221.9029 H   0  0  0  0  0  0  0  0  0  0  0  0
  139.1619   68.4645  223.7175 H   0  0  0  0  0  0  0  0  0  0  0  0
  139.6920   67.9201  226.0271 H   0  0  0  0  0  0  0  0  0  0  0  0
  141.4829   70.9363  228.5615 H   0  0  0  0  0  0  0  0  0  0  0  0
  141.4500   72.5808  226.6813 H   0  0  0  0  0  0  0  0  0  0  0  0
  1  2  2  0
  2  3  1  0
  3  4  1  0
  4  5  1  0
  5  6  2  0
  5  7  1  0
  7  8  1  0
  8  9  1  0
  9 10  1  0
  9 11  1  0
 11 12  1  0
 12 13  1  0
 13 14  2  0
 14 15  1  0
 15 16  2  0
 16 17  1  0
 17 18  2  0
  2 19  1  0
 19 20  2  0
 20 21  1  0
 21 22  2  0
 22 23  1  0
 23 24  2  0
 24 25  1  0
 24 26  1  0
 26 27  2  0
 27 28  1  0
 28 29  2  0
 12  7  1  0
 18 13  1  0
 29 19  1  0
 28 22  1  0
  3 30  1  0
  4 31  1  0
  4 32  1  0
  8 33  1  0
  8 34  1  0
  9 35  1  6
 11 36  1  0
 11 37  1  0
 12 38  1  6
 14 39  1  0
 15 40  1  0
 16 41  1  0
 17 42  1  0
 18 43  1  0
 20 44  1  0
 21 45  1  0
 23 46  1  0
 26 47  1  0
 27 48  1  0
M  END
>  <smiles>  (35) 
O=C(NCC(=O)N1C[C@H](F)C[C@H]1c1ccccc1)c1ccc2cc(Cl)ccc2n1

>  <score_type>  (35) 
oracle

>  <origin>  (35) 
autodockgpu

>  <m_score__min__energy>  (35) 
-8.6999999999999993

>  <m_primary>  (35) 
energy

>  <rmsd>  (35) 
1.9449225372594026

>  <m_score__min__rmsd>  (35) 
1.9449225372594026

>  <meeko>  (35) 
{"free_energy": -7.8, "intermolecular_energy": -9.3, "internal_energy": -1.83, "cluster_size": 20, "cluster_id": 4, "rank_in_cluster": 18}

>  <energy>  (35) 
-8.25

>  <cluster_rmsd>  (35) 
0.12

>  <cluster>  (35) 
4

$$$$

     RDKit          3D

 48 51  0  0  0  0  0  0  0  0999 V2000
  140.0360   72.0030  220.7290 O   0  0  0  0  0  0  0  0  0  0  0  0
  139.9080   72.4160  221.9210 C   0  0  0  0  0  0  0  0  0  0  0  0
  139.6940   73.8100  222.1370 N   0  0  0  0  0  0  0  0  0  0  0  0
  139.6340   74.6740  221.0040 C   0  0  0  0  0  0  0  0  0  0  0  0
  140.5420   75.8680  221.1670 C   0  0  0  0  0  0  0  0  0  0  0  0
  140.7160   76.2500  222.3520 O   0  0  0  0  0  0  0  0  0  0  0  0
  141.1320   76.4740  220.0370 N   0  0  0  0  0  0  0  0  0  0  0  0
  140.7890   77.8080  219.5250 C   0  0  0  0  0  0  0  0  0  0  0  0
  141.8600   78.1330  218.5090 C   0  0  2  0  0  0  0  0  0  0  0  0
  141.3860   77.8410  217.2240 F   0  0  0  0  0  0  0  0  0  0  0  0
  142.9540   77.1320  218.8140 C   0  0  0  0  0  0  0  0  0  0  0  0
  142.1340   75.9180  219.2150 C   0  0  1  0  0  0  0  0  0  0  0  0
  142.9760   74.8660  219.7630 C   0  0  0  0  0  0  0  0  0  0  0  0
  142.4910   73.5650  219.9660 C   0  0  0  0  0  0  0  0  0  0  0  0
  143.2820   72.5810  220.4790 C   0  0  0  0  0  0  0  0  0  0  0  0
  144.5970   72.8100  220.8250 C   0  0  0  0  0  0  0  0  0  0  0  0
  145.1070   74.0910  220.6360 C   0  0  0  0  0  0  0  0  0  0  0  0
  144.2850   75.0750  220.1130 C   0  0  0  0  0  0  0  0  0  0  0  0
  139.9730   71.5160  223.0670 C   0  0  0  0  0  0  0  0  0  0  0  0
  139.4940   70.2300  222.9030 C   0  0  0  0  0  0  0  0  0  0  0  0
  139.5070   69.2940  223.9260 C   0  0  0  0  0  0  0  0  0  0  0  0
  140.0330   69.7160  225.1430 C   0  0  0  0  0  0  0  0  0  0  0  0
  140.0730   68.8240  226.2050 C   0  0  0  0  0  0  0  0  0  0  0  0
  140.6040   69.2760  227.4080 C   0  0  0  0  0  0  0  0  0  0  0  0
  140.6830   68.2020  228.7830 Cl  0  0  0  0  0  0  0  0  0  0  0  0
  141.0810   70.5740  227.5550 C   0  0  0  0  0  0  0  0  0  0  0  0
  141.0390   71.4620  226.4940 C   0  0  0  0  0  0  0  0  0  0  0  0
  140.5070   71.0070  225.2880 C   0  0  0  0  0  0  0  0  0  0  0  0
  140.4750   71.8960  224.2580 N   0  0  0  0  0  0  0  0  0  0  0  0
  139.5860   74.1750  223.1110 H   0  0  0  0  0  0  0  0  0  0  0  0
  139.9408   74.1117  220.1097 H   0  0  0  0  0  0  0  0  0  0  0  0
  138.6010   75.0386  220.9038 H   0  0  0  0  0  0  0  0  0  0  0  0
  139.7975   77.7947  219.0488 H   0  0  0  0  0  0  0  0  0  0  0  0
  140.7458   78.5572  220.3292 H   0  0  0  0  0  0  0  0  0  0  0  0
  142.1749   79.1861  218.5517 H   0  0  0  0  0  0  0  0  0  0  0  0
  143.5722   76.9268  217.9276 H   0  0  0  0  0  0  0  0  0  0  0  0
  143.6730   77.4651  219.5769 H   0  0  0  0  0  0  0  0  0  0  0  0
  141.6531   75.3639  218.3955 H   0  0  0  0  0  0  0  0  0  0  0  0
  141.4477   73.3340  219.7049 H   0  0  0  0  0  0  0  0  0  0  0  0
  142.8594   71.5754  220.6211 H   0  0  0  0  0  0  0  0  0  0  0  0
  145.2233   72.0053  221.2375 H   0  0  0  0  0  0  0  0  0  0  0  0
  146.1505   74.3191  220.8989 H   0  0  0  0  0  0  0  0  0  0  0  0
  144.7060   76.0812  219.9703 H   0  0  0  0  0  0  0  0  0  0  0  0
  139.0870   69.9379  221.9237 H   0  0  0  0  0  0  0  0  0  0  0  0
  139.1224   68.2734  223.7831 H   0  0  0  0  0  0  0  0  0  0  0  0
  139.6978   67.7954  226.0990 H   0  0  0  0  0  0  0  0  0  0  0  0
  141.4947   70.8974  228.5216 H   0  0  0  0  0  0  0  0  0  0  0  0
  141.4125   72.4913  226.5986 H   0  0  0  0  0  0  0  0  0  0  0  0
  1  2  2  0
  2  3  1  0
  3  4  1  0
  4  5  1  0
  5  6  2  0
  5  7  1  0
  7  8  1  0
  8  9  1  0
  9 10  1  0
  9 11  1  0
 11 12  1  0
 12 13  1  0
 13 14  2  0
 14 15  1  0
 15 16  2  0
 16 17  1  0
 17 18  2  0
  2 19  1  0
 19 20  2  0
 20 21  1  0
 21 22  2  0
 22 23  1  0
 23 24  2  0
 24 25  1  0
 24 26  1  0
 26 27  2  0
 27 28  1  0
 28 29  2  0
 12  7  1  0
 18 13  1  0
 29 19  1  0
 28 22  1  0
  3 30  1  0
  4 31  1  0
  4 32  1  0
  8 33  1  0
  8 34  1  0
  9 35  1  6
 11 36  1  0
 11 37  1  0
 12 38  1  6
 14 39  1  0
 15 40  1  0
 16 41  1  0
 17 42  1  0
 18 43  1  0
 20 44  1  0
 21 45  1  0
 23 46  1  0
 26 47  1  0
 27 48  1  0
M  END
>  <smiles>  (36) 
O=C(NCC(=O)N1C[C@H](F)C[C@H]1c1ccccc1)c1ccc2cc(Cl)ccc2n1

>  <score_type>  (36) 
oracle

>  <origin>  (36) 
autodockgpu

>  <m_score__min__energy>  (36) 
-8.6999999999999993

>  <m_primary>  (36) 
energy

>  <rmsd>  (36) 
2.0704927758249054

>  <m_score__min__rmsd>  (36) 
2.0704927758249054

>  <meeko>  (36) 
{"free_energy": -8.24, "intermolecular_energy": -9.73, "internal_energy": -2.01, "cluster_size": 20, "cluster_id": 4, "rank_in_cluster": 9}

>  <energy>  (36) 
-8.25

>  <cluster_rmsd>  (36) 
0.15

>  <cluster>  (36) 
4

$$$$

     RDKit          3D

 48 51  0  0  0  0  0  0  0  0999 V2000
  140.1260   72.0340  220.7580 O   0  0  0  0  0  0  0  0  0  0  0  0
  139.9600   72.4330  221.9510 C   0  0  0  0  0  0  0  0  0  0  0  0
  139.7130   73.8200  222.1750 N   0  0  0  0  0  0  0  0  0  0  0  0
  139.6630   74.6940  221.0490 C   0  0  0  0  0  0  0  0  0  0  0  0
  140.7150   75.7720  221.1360 C   0  0  0  0  0  0  0  0  0  0  0  0
  141.0220   76.1270  222.3030 O   0  0  0  0  0  0  0  0  0  0  0  0
  141.2830   76.3110  219.9610 N   0  0  0  0  0  0  0  0  0  0  0  0
  140.9390   77.6170  219.3840 C   0  0  0  0  0  0  0  0  0  0  0  0
  141.9880   77.8760  218.3290 C   0  0  2  0  0  0  0  0  0  0  0  0
  141.4830   77.5180  217.0720 F   0  0  0  0  0  0  0  0  0  0  0  0
  143.0810   76.8840  218.6630 C   0  0  0  0  0  0  0  0  0  0  0  0
  142.2620   75.7010  219.1490 C   0  0  1  0  0  0  0  0  0  0  0  0
  143.1080   74.6740  219.7350 C   0  0  0  0  0  0  0  0  0  0  0  0
  142.6480   73.3630  219.9300 C   0  0  0  0  0  0  0  0  0  0  0  0
  143.4430   72.4020  220.4790 C   0  0  0  0  0  0  0  0  0  0  0  0
  144.7380   72.6640  220.8720 C   0  0  0  0  0  0  0  0  0  0  0  0
  145.2230   73.9570  220.6920 C   0  0  0  0  0  0  0  0  0  0  0  0
  144.3980   74.9170  220.1320 C   0  0  0  0  0  0  0  0  0  0  0  0
  140.0150   71.5230  223.0900 C   0  0  0  0  0  0  0  0  0  0  0  0
  139.5390   70.2380  222.9100 C   0  0  0  0  0  0  0  0  0  0  0  0
  139.5430   69.2930  223.9250 C   0  0  0  0  0  0  0  0  0  0  0  0
  140.0570   69.7050  225.1500 C   0  0  0  0  0  0  0  0  0  0  0  0
  140.0880   68.8030  226.2040 C   0  0  0  0  0  0  0  0  0  0  0  0
  140.6080   69.2450  227.4170 C   0  0  0  0  0  0  0  0  0  0  0  0
  140.6740   68.1590  228.7830 Cl  0  0  0  0  0  0  0  0  0  0  0  0
  141.0820   70.5420  227.5790 C   0  0  0  0  0  0  0  0  0  0  0  0
  141.0490   71.4400  226.5260 C   0  0  0  0  0  0  0  0  0  0  0  0
  140.5290   70.9950  225.3110 C   0  0  0  0  0  0  0  0  0  0  0  0
  140.5060   71.8930  224.2890 N   0  0  0  0  0  0  0  0  0  0  0  0
  139.5730   74.1730  223.1490 H   0  0  0  0  0  0  0  0  0  0  0  0
  139.8283   74.1068  220.1336 H   0  0  0  0  0  0  0  0  0  0  0  0
  138.6751   75.1776  221.0322 H   0  0  0  0  0  0  0  0  0  0  0  0
  139.9369   77.5862  218.9314 H   0  0  0  0  0  0  0  0  0  0  0  0
  140.9200   78.4097  220.1464 H   0  0  0  0  0  0  0  0  0  0  0  0
  142.3112   78.9272  218.3074 H   0  0  0  0  0  0  0  0  0  0  0  0
  143.6765   76.6252  217.7751 H   0  0  0  0  0  0  0  0  0  0  0  0
  143.8202   77.2522  219.3896 H   0  0  0  0  0  0  0  0  0  0  0  0
  141.7586   75.1059  218.3728 H   0  0  0  0  0  0  0  0  0  0  0  0
  141.6210   73.1047  219.6326 H   0  0  0  0  0  0  0  0  0  0  0  0
  143.0395   71.3874  220.6125 H   0  0  0  0  0  0  0  0  0  0  0  0
  145.3678   71.8775  221.3133 H   0  0  0  0  0  0  0  0  0  0  0  0
  146.2502   74.2125  220.9915 H   0  0  0  0  0  0  0  0  0  0  0  0
  144.7997   75.9322  219.9978 H   0  0  0  0  0  0  0  0  0  0  0  0
  139.1419   69.9541  221.9243 H   0  0  0  0  0  0  0  0  0  0  0  0
  139.1606   68.2734  223.7698 H   0  0  0  0  0  0  0  0  0  0  0  0
  139.7148   67.7751  226.0851 H   0  0  0  0  0  0  0  0  0  0  0  0
  141.4866   70.8572  228.5521 H   0  0  0  0  0  0  0  0  0  0  0  0
  141.4200   72.4688  226.6436 H   0  0  0  0  0  0  0  0  0  0  0  0
  1  2  2  0
  2  3  1  0
  3  4  1  0
  4  5  1  0
  5  6  2  0
  5  7  1  0
  7  8  1  0
  8  9  1  0
  9 10  1  0
  9 11  1  0
 11 12  1  0
 12 13  1  0
 13 14  2  0
 14 15  1  0
 15 16  2  0
 16 17  1  0
 17 18  2  0
  2 19  1  0
 19 20  2  0
 20 21  1  0
 21 22  2  0
 22 23  1  0
 23 24  2  0
 24 25  1  0
 24 26  1  0
 26 27  2  0
 27 28  1  0
 28 29  2  0
 12  7  1  0
 18 13  1  0
 29 19  1  0
 28 22  1  0
  3 30  1  0
  4 31  1  0
  4 32  1  0
  8 33  1  0
  8 34  1  0
  9 35  1  6
 11 36  1  0
 11 37  1  0
 12 38  1  6
 14 39  1  0
 15 40  1  0
 16 41  1  0
 17 42  1  0
 18 43  1  0
 20 44  1  0
 21 45  1  0
 23 46  1  0
 26 47  1  0
 27 48  1  0
M  END
>  <smiles>  (37) 
O=C(NCC(=O)N1C[C@H](F)C[C@H]1c1ccccc1)c1ccc2cc(Cl)ccc2n1

>  <score_type>  (37) 
oracle

>  <origin>  (37) 
autodockgpu

>  <m_score__min__energy>  (37) 
-8.6999999999999993

>  <m_primary>  (37) 
energy

>  <rmsd>  (37) 
2.073330055437727

>  <m_score__min__rmsd>  (37) 
2.073330055437727

>  <meeko>  (37) 
{"free_energy": -8.29, "intermolecular_energy": -9.78, "internal_energy": -1.98, "cluster_size": 20, "cluster_id": 4, "rank_in_cluster": 1}

>  <energy>  (37) 
-8.24

>  <cluster_rmsd>  (37) 
0.11

>  <cluster>  (37) 
4

$$$$

     RDKit          3D

 48 51  0  0  0  0  0  0  0  0999 V2000
  134.8330   68.5190  225.1680 O   0  0  0  0  0  0  0  0  0  0  0  0
  135.1390   69.7320  224.9590 C   0  0  0  0  0  0  0  0  0  0  0  0
  136.2350   70.0160  224.0910 N   0  0  0  0  0  0  0  0  0  0  0  0
  136.9350   68.9250  223.4980 C   0  0  0  0  0  0  0  0  0  0  0  0
  138.3610   68.8480  223.9870 C   0  0  0  0  0  0  0  0  0  0  0  0
  138.6720   67.7720  224.5600 O   0  0  0  0  0  0  0  0  0  0  0  0
  139.2420   69.9320  223.7910 N   0  0  0  0  0  0  0  0  0  0  0  0
  139.1160   70.9350  222.7240 C   0  0  0  0  0  0  0  0  0  0  0  0
  140.0900   72.0310  223.0890 C   0  0  2  0  0  0  0  0  0  0  0  0
  141.2820   71.8510  222.3760 F   0  0  0  0  0  0  0  0  0  0  0  0
  140.4020   71.7590  224.5450 C   0  0  0  0  0  0  0  0  0  0  0  0
  140.3780   70.2400  224.5690 C   0  0  1  0  0  0  0  0  0  0  0  0
  140.4460   69.7290  225.9290 C   0  0  0  0  0  0  0  0  0  0  0  0
  140.9860   68.4660  226.2150 C   0  0  0  0  0  0  0  0  0  0  0  0
  141.0490   67.9900  227.4900 C   0  0  0  0  0  0  0  0  0  0  0  0
  140.5880   68.7200  228.5640 C   0  0  0  0  0  0  0  0  0  0  0  0
  140.0460   69.9770  228.3120 C   0  0  0  0  0  0  0  0  0  0  0  0
  139.9920   70.4420  227.0090 C   0  0  0  0  0  0  0  0  0  0  0  0
  134.4090   70.8340  225.5760 C   0  0  0  0  0  0  0  0  0  0  0  0
  133.3680   70.5200  226.4280 C   0  0  0  0  0  0  0  0  0  0  0  0
  132.6090   71.4890  227.0670 C   0  0  0  0  0  0  0  0  0  0  0  0
  132.9500   72.8120  226.8050 C   0  0  0  0  0  0  0  0  0  0  0  0
  132.2260   73.8270  227.4140 C   0  0  0  0  0  0  0  0  0  0  0  0
  132.5920   75.1400  227.1330 C   0  0  0  0  0  0  0  0  0  0  0  0
  131.7200   76.4630  227.8680 Cl  0  0  0  0  0  0  0  0  0  0  0  0
  133.6420   75.4370  226.2710 C   0  0  0  0  0  0  0  0  0  0  0  0
  134.3620   74.4220  225.6640 C   0  0  0  0  0  0  0  0  0  0  0  0
  133.9950   73.1080  225.9480 C   0  0  0  0  0  0  0  0  0  0  0  0
  134.7160   72.1260  225.3410 N   0  0  0  0  0  0  0  0  0  0  0  0
  136.5050   71.0080  223.9040 H   0  0  0  0  0  0  0  0  0  0  0  0
  136.4187   67.9881  223.7542 H   0  0  0  0  0  0  0  0  0  0  0  0
  136.9526   69.0788  222.4089 H   0  0  0  0  0  0  0  0  0  0  0  0
  139.3775   70.4960  221.7499 H   0  0  0  0  0  0  0  0  0  0  0  0
  138.0869   71.3136  222.6369 H   0  0  0  0  0  0  0  0  0  0  0  0
  139.6893   73.0347  222.8839 H   0  0  0  0  0  0  0  0  0  0  0  0
  141.3902   72.1517  224.8264 H   0  0  0  0  0  0  0  0  0  0  0  0
  139.7076   72.2343  225.2535 H   0  0  0  0  0  0  0  0  0  0  0  0
  141.2529   69.7333  224.1356 H   0  0  0  0  0  0  0  0  0  0  0  0
  141.3674   67.8456  225.3906 H   0  0  0  0  0  0  0  0  0  0  0  0
  141.4805   66.9938  227.6673 H   0  0  0  0  0  0  0  0  0  0  0  0
  140.6465   68.3220  229.5878 H   0  0  0  0  0  0  0  0  0  0  0  0
  139.6648   70.5941  229.1389 H   0  0  0  0  0  0  0  0  0  0  0  0
  139.5612   71.4382  226.8302 H   0  0  0  0  0  0  0  0  0  0  0  0
  133.1319   69.4606  226.6065 H   0  0  0  0  0  0  0  0  0  0  0  0
  131.7827   71.2259  227.7438 H   0  0  0  0  0  0  0  0  0  0  0  0
  131.3920   73.6018  228.0950 H   0  0  0  0  0  0  0  0  0  0  0  0
  133.9026   76.4866  226.0698 H   0  0  0  0  0  0  0  0  0  0  0  0
  135.1950   74.6451  224.9811 H   0  0  0  0  0  0  0  0  0  0  0  0
  1  2  2  0
  2  3  1  0
  3  4  1  0
  4  5  1  0
  5  6  2  0
  5  7  1  0
  7  8  1  0
  8  9  1  0
  9 10  1  0
  9 11  1  0
 11 12  1  0
 12 13  1  0
 13 14  2  0
 14 15  1  0
 15 16  2  0
 16 17  1  0
 17 18  2  0
  2 19  1  0
 19 20  2  0
 20 21  1  0
 21 22  2  0
 22 23  1  0
 23 24  2  0
 24 25  1  0
 24 26  1  0
 26 27  2  0
 27 28  1  0
 28 29  2  0
 12  7  1  0
 18 13  1  0
 29 19  1  0
 28 22  1  0
  3 30  1  0
  4 31  1  0
  4 32  1  0
  8 33  1  0
  8 34  1  0
  9 35  1  1
 11 36  1  0
 11 37  1  0
 12 38  1  6
 14 39  1  0
 15 40  1  0
 16 41  1  0
 17 42  1  0
 18 43  1  0
 20 44  1  0
 21 45  1  0
 23 46  1  0
 26 47  1  0
 27 48  1  0
M  END
>  <smiles>  (38) 
O=C(NCC(=O)N1C[C@H](F)C[C@H]1c1ccccc1)c1ccc2cc(Cl)ccc2n1

>  <score_type>  (38) 
oracle

>  <origin>  (38) 
autodockgpu

>  <m_score__min__energy>  (38) 
-8.6999999999999993

>  <m_primary>  (38) 
energy

>  <rmsd>  (38) 
7.26750336457627

>  <m_score__min__rmsd>  (38) 
7.26750336457627

>  <meeko>  (38) 
{"free_energy": -8.53, "intermolecular_energy": -10.02, "internal_energy": -1.62, "cluster_size": 13, "cluster_id": 2, "rank_in_cluster": 7}

>  <energy>  (38) 
-8.24

>  <cluster_rmsd>  (38) 
0.19

>  <cluster>  (38) 
4

$$$$

     RDKit          3D

 48 51  0  0  0  0  0  0  0  0999 V2000
  134.8640   68.5020  225.2000 O   0  0  0  0  0  0  0  0  0  0  0  0
  135.1840   69.7140  225.0060 C   0  0  0  0  0  0  0  0  0  0  0  0
  136.2910   69.9960  224.1510 N   0  0  0  0  0  0  0  0  0  0  0  0
  136.9860   68.9040  223.5540 C   0  0  0  0  0  0  0  0  0  0  0  0
  138.4260   68.8510  224.0000 C   0  0  0  0  0  0  0  0  0  0  0  0
  138.7810   67.7680  224.5340 O   0  0  0  0  0  0  0  0  0  0  0  0
  139.2740   69.9630  223.8090 N   0  0  0  0  0  0  0  0  0  0  0  0
  139.1380   70.9460  222.7260 C   0  0  0  0  0  0  0  0  0  0  0  0
  140.0650   72.0800  223.0980 C   0  0  2  0  0  0  0  0  0  0  0  0
  141.2780   71.9330  222.4150 F   0  0  0  0  0  0  0  0  0  0  0  0
  140.3530   71.8380  224.5640 C   0  0  0  0  0  0  0  0  0  0  0  0
  140.3810   70.3190  224.6080 C   0  0  1  0  0  0  0  0  0  0  0  0
  140.4360   69.8280  225.9760 C   0  0  0  0  0  0  0  0  0  0  0  0
  140.9690   68.5680  226.2850 C   0  0  0  0  0  0  0  0  0  0  0  0
  141.0200   68.1100  227.5680 C   0  0  0  0  0  0  0  0  0  0  0  0
  140.5520   68.8580  228.6270 C   0  0  0  0  0  0  0  0  0  0  0  0
  140.0160   70.1130  228.3520 C   0  0  0  0  0  0  0  0  0  0  0  0
  139.9750   70.5580  227.0420 C   0  0  0  0  0  0  0  0  0  0  0  0
  134.4590   70.8180  225.6270 C   0  0  0  0  0  0  0  0  0  0  0  0
  133.4780   70.5060  226.5490 C   0  0  0  0  0  0  0  0  0  0  0  0
  132.7300   71.4770  227.1970 C   0  0  0  0  0  0  0  0  0  0  0  0
  133.0170   72.7990  226.8710 C   0  0  0  0  0  0  0  0  0  0  0  0
  132.3010   73.8150  227.4870 C   0  0  0  0  0  0  0  0  0  0  0  0
  132.6110   75.1260  227.1400 C   0  0  0  0  0  0  0  0  0  0  0  0
  131.7460   76.4500  227.8800 Cl  0  0  0  0  0  0  0  0  0  0  0  0
  133.6010   75.4200  226.2100 C   0  0  0  0  0  0  0  0  0  0  0  0
  134.3140   74.4040  225.5960 C   0  0  0  0  0  0  0  0  0  0  0  0
  134.0020   73.0910  225.9450 C   0  0  0  0  0  0  0  0  0  0  0  0
  134.7140   72.1080  225.3310 N   0  0  0  0  0  0  0  0  0  0  0  0
  136.5740   70.9870  223.9770 H   0  0  0  0  0  0  0  0  0  0  0  0
  136.4890   67.9654  223.8402 H   0  0  0  0  0  0  0  0  0  0  0  0
  136.9689   69.0410  222.4627 H   0  0  0  0  0  0  0  0  0  0  0  0
  139.4370   70.5036  221.7643 H   0  0  0  0  0  0  0  0  0  0  0  0
  138.0987   71.2872  222.6099 H   0  0  0  0  0  0  0  0  0  0  0  0
  139.6343   73.0662  222.8702 H   0  0  0  0  0  0  0  0  0  0  0  0
  141.3204   72.2685  224.8619 H   0  0  0  0  0  0  0  0  0  0  0  0
  139.6268   72.2979  225.2504 H   0  0  0  0  0  0  0  0  0  0  0  0
  141.2822   69.8367  224.2014 H   0  0  0  0  0  0  0  0  0  0  0  0
  141.3550   67.9344  225.4729 H   0  0  0  0  0  0  0  0  0  0  0  0
  141.4468   67.1152  227.7637 H   0  0  0  0  0  0  0  0  0  0  0  0
  140.6005   68.4752  229.6571 H   0  0  0  0  0  0  0  0  0  0  0  0
  139.6296   70.7436  229.1663 H   0  0  0  0  0  0  0  0  0  0  0  0
  139.5489   71.5527  226.8447 H   0  0  0  0  0  0  0  0  0  0  0  0
  133.2833   69.4477  226.7773 H   0  0  0  0  0  0  0  0  0  0  0  0
  131.9517   71.2164  227.9293 H   0  0  0  0  0  0  0  0  0  0  0  0
  131.5156   73.5918  228.2241 H   0  0  0  0  0  0  0  0  0  0  0  0
  133.8200   76.4685  225.9596 H   0  0  0  0  0  0  0  0  0  0  0  0
  135.0994   74.6254  224.8583 H   0  0  0  0  0  0  0  0  0  0  0  0
  1  2  2  0
  2  3  1  0
  3  4  1  0
  4  5  1  0
  5  6  2  0
  5  7  1  0
  7  8  1  0
  8  9  1  0
  9 10  1  0
  9 11  1  0
 11 12  1  0
 12 13  1  0
 13 14  2  0
 14 15  1  0
 15 16  2  0
 16 17  1  0
 17 18  2  0
  2 19  1  0
 19 20  2  0
 20 21  1  0
 21 22  2  0
 22 23  1  0
 23 24  2  0
 24 25  1  0
 24 26  1  0
 26 27  2  0
 27 28  1  0
 28 29  2  0
 12  7  1  0
 18 13  1  0
 29 19  1  0
 28 22  1  0
  3 30  1  0
  4 31  1  0
  4 32  1  0
  8 33  1  0
  8 34  1  0
  9 35  1  1
 11 36  1  0
 11 37  1  0
 12 38  1  6
 14 39  1  0
 15 40  1  0
 16 41  1  0
 17 42  1  0
 18 43  1  0
 20 44  1  0
 21 45  1  0
 23 46  1  0
 26 47  1  0
 27 48  1  0
M  END
>  <smiles>  (39) 
O=C(NCC(=O)N1C[C@H](F)C[C@H]1c1ccccc1)c1ccc2cc(Cl)ccc2n1

>  <score_type>  (39) 
oracle

>  <origin>  (39) 
autodockgpu

>  <m_score__min__energy>  (39) 
-8.6999999999999993

>  <m_primary>  (39) 
energy

>  <rmsd>  (39) 
7.252870444806035

>  <m_score__min__rmsd>  (39) 
7.252870444806035

>  <meeko>  (39) 
{"free_energy": -8.57, "intermolecular_energy": -10.06, "internal_energy": -1.62, "cluster_size": 13, "cluster_id": 2, "rank_in_cluster": 5}

>  <energy>  (39) 
-8.23

>  <cluster_rmsd>  (39) 
0.08

>  <cluster>  (39) 
4

$$$$

     RDKit          3D

 48 51  0  0  0  0  0  0  0  0999 V2000
  139.8050   72.3970  220.7110 O   0  0  0  0  0  0  0  0  0  0  0  0
  139.7470   72.7900  221.9150 C   0  0  0  0  0  0  0  0  0  0  0  0
  139.5530   74.1800  222.1670 N   0  0  0  0  0  0  0  0  0  0  0  0
  139.4320   75.0640  221.0550 C   0  0  0  0  0  0  0  0  0  0  0  0
  140.7820   75.4530  220.5040 C   0  0  0  0  0  0  0  0  0  0  0  0
  141.5680   75.9740  221.3360 O   0  0  0  0  0  0  0  0  0  0  0  0
  141.0910   75.2260  219.1460 N   0  0  0  0  0  0  0  0  0  0  0  0
  140.4400   75.8960  218.0120 C   0  0  0  0  0  0  0  0  0  0  0  0
  141.2840   75.5550  216.8070 C   0  0  2  0  0  0  0  0  0  0  0  0
  140.7070   74.4790  216.1230 F   0  0  0  0  0  0  0  0  0  0  0  0
  142.5770   75.0500  217.4110 C   0  0  0  0  0  0  0  0  0  0  0  0
  142.0610   74.3310  218.6460 C   0  0  1  0  0  0  0  0  0  0  0  0
  143.1500   73.9280  219.5210 C   0  0  0  0  0  0  0  0  0  0  0  0
  143.2310   72.6300  220.0470 C   0  0  0  0  0  0  0  0  0  0  0  0
  144.2530   72.2550  220.8670 C   0  0  0  0  0  0  0  0  0  0  0  0
  145.2590   73.1280  221.2230 C   0  0  0  0  0  0  0  0  0  0  0  0
  145.2050   74.4240  220.7180 C   0  0  0  0  0  0  0  0  0  0  0  0
  144.1580   74.7830  219.8860 C   0  0  0  0  0  0  0  0  0  0  0  0
  139.8730   71.8690  223.0400 C   0  0  0  0  0  0  0  0  0  0  0  0
  139.4780   70.5590  222.8470 C   0  0  0  0  0  0  0  0  0  0  0  0
  139.5550   69.6020  223.8480 C   0  0  0  0  0  0  0  0  0  0  0  0
  140.0560   70.0300  225.0740 C   0  0  0  0  0  0  0  0  0  0  0  0
  140.1560   69.1180  226.1140 C   0  0  0  0  0  0  0  0  0  0  0  0
  140.6610   69.5760  227.3280 C   0  0  0  0  0  0  0  0  0  0  0  0
  140.8130   68.4780  228.6770 Cl  0  0  0  0  0  0  0  0  0  0  0  0
  141.0520   70.8980  227.5030 C   0  0  0  0  0  0  0  0  0  0  0  0
  140.9510   71.8060  226.4630 C   0  0  0  0  0  0  0  0  0  0  0  0
  140.4460   71.3450  225.2480 C   0  0  0  0  0  0  0  0  0  0  0  0
  140.3540   72.2540  224.2390 N   0  0  0  0  0  0  0  0  0  0  0  0
  139.5030   74.5280  223.1510 H   0  0  0  0  0  0  0  0  0  0  0  0
  138.8540   74.5647  220.2635 H   0  0  0  0  0  0  0  0  0  0  0  0
  138.9237   75.9779  221.3962 H   0  0  0  0  0  0  0  0  0  0  0  0
  139.4138   75.5221  217.8815 H   0  0  0  0  0  0  0  0  0  0  0  0
  140.3666   76.9827  218.1660 H   0  0  0  0  0  0  0  0  0  0  0  0
  141.3976   76.4061  216.1195 H   0  0  0  0  0  0  0  0  0  0  0  0
  143.0980   74.3604  216.7306 H   0  0  0  0  0  0  0  0  0  0  0  0
  143.3162   75.8370  217.6211 H   0  0  0  0  0  0  0  0  0  0  0  0
  141.5879   73.3524  218.4771 H   0  0  0  0  0  0  0  0  0  0  0  0
  142.4511   71.8975  219.7915 H   0  0  0  0  0  0  0  0  0  0  0  0
  144.2759   71.2263  221.2560 H   0  0  0  0  0  0  0  0  0  0  0  0
  146.0781   72.8105  221.8850 H   0  0  0  0  0  0  0  0  0  0  0  0
  145.9853   75.1548  220.9770 H   0  0  0  0  0  0  0  0  0  0  0  0
  144.1335   75.8113  219.4961 H   0  0  0  0  0  0  0  0  0  0  0  0
  139.0876   70.2639  221.8619 H   0  0  0  0  0  0  0  0  0  0  0  0
  139.2376   68.5619  223.6821 H   0  0  0  0  0  0  0  0  0  0  0  0
  139.8474   68.0702  225.9844 H   0  0  0  0  0  0  0  0  0  0  0  0
  141.4453   71.2258  228.4766 H   0  0  0  0  0  0  0  0  0  0  0  0
  141.2584   72.8544  226.5907 H   0  0  0  0  0  0  0  0  0  0  0  0
  1  2  2  0
  2  3  1  0
  3  4  1  0
  4  5  1  0
  5  6  2  0
  5  7  1  0
  7  8  1  0
  8  9  1  0
  9 10  1  0
  9 11  1  0
 11 12  1  0
 12 13  1  0
 13 14  2  0
 14 15  1  0
 15 16  2  0
 16 17  1  0
 17 18  2  0
  2 19  1  0
 19 20  2  0
 20 21  1  0
 21 22  2  0
 22 23  1  0
 23 24  2  0
 24 25  1  0
 24 26  1  0
 26 27  2  0
 27 28  1  0
 28 29  2  0
 12  7  1  0
 18 13  1  0
 29 19  1  0
 28 22  1  0
  3 30  1  0
  4 31  1  0
  4 32  1  0
  8 33  1  0
  8 34  1  0
  9 35  1  6
 11 36  1  0
 11 37  1  0
 12 38  1  6
 14 39  1  0
 15 40  1  0
 16 41  1  0
 17 42  1  0
 18 43  1  0
 20 44  1  0
 21 45  1  0
 23 46  1  0
 26 47  1  0
 27 48  1  0
M  END
>  <smiles>  (40) 
O=C(NCC(=O)N1C[C@H](F)C[C@H]1c1ccccc1)c1ccc2cc(Cl)ccc2n1

>  <score_type>  (40) 
oracle

>  <origin>  (40) 
autodockgpu

>  <m_score__min__energy>  (40) 
-8.6999999999999993

>  <m_primary>  (40) 
energy

>  <rmsd>  (40) 
1.9947032786900911

>  <m_score__min__rmsd>  (40) 
1.9947032786900911

>  <meeko>  (40) 
{"free_energy": -7.39, "intermolecular_energy": -8.88, "internal_energy": -1.94, "cluster_size": 20, "cluster_id": 4, "rank_in_cluster": 20}

>  <energy>  (40) 
-8.21

>  <cluster_rmsd>  (40) 
0.1

>  <cluster>  (40) 
4

$$$$

     RDKit          3D

 48 51  0  0  0  0  0  0  0  0999 V2000
  136.0950   71.2630  222.6300 O   0  0  0  0  0  0  0  0  0  0  0  0
  135.8060   71.0150  223.8390 C   0  0  0  0  0  0  0  0  0  0  0  0
  136.2540   69.7840  224.4060 N   0  0  0  0  0  0  0  0  0  0  0  0
  137.0070   68.8920  223.5880 C   0  0  0  0  0  0  0  0  0  0  0  0
  138.4520   68.8300  224.0160 C   0  0  0  0  0  0  0  0  0  0  0  0
  138.8110   67.7400  224.5320 O   0  0  0  0  0  0  0  0  0  0  0  0
  139.3000   69.9430  223.8280 N   0  0  0  0  0  0  0  0  0  0  0  0
  139.1710   70.9230  222.7420 C   0  0  0  0  0  0  0  0  0  0  0  0
  140.0930   72.0590  223.1180 C   0  0  2  0  0  0  0  0  0  0  0  0
  141.3120   71.9120  222.4440 F   0  0  0  0  0  0  0  0  0  0  0  0
  140.3700   71.8210  224.5870 C   0  0  0  0  0  0  0  0  0  0  0  0
  140.4000   70.3030  224.6350 C   0  0  1  0  0  0  0  0  0  0  0  0
  140.4450   69.8150  226.0040 C   0  0  0  0  0  0  0  0  0  0  0  0
  140.9870   68.5610  226.3220 C   0  0  0  0  0  0  0  0  0  0  0  0
  141.0280   68.1060  227.6060 C   0  0  0  0  0  0  0  0  0  0  0  0
  140.5420   68.8520  228.6590 C   0  0  0  0  0  0  0  0  0  0  0  0
  139.9980   70.1010  228.3750 C   0  0  0  0  0  0  0  0  0  0  0  0
  139.9660   70.5430  227.0630 C   0  0  0  0  0  0  0  0  0  0  0  0
  135.0340   71.9410  224.6600 C   0  0  0  0  0  0  0  0  0  0  0  0
  134.0990   71.4080  225.5270 C   0  0  0  0  0  0  0  0  0  0  0  0
  133.3120   72.1980  226.3520 C   0  0  0  0  0  0  0  0  0  0  0  0
  133.5100   73.5720  226.2640 C   0  0  0  0  0  0  0  0  0  0  0  0
  132.7510   74.4140  227.0640 C   0  0  0  0  0  0  0  0  0  0  0  0
  132.9730   75.7830  226.9540 C   0  0  0  0  0  0  0  0  0  0  0  0
  132.0510   76.8960  227.9340 Cl  0  0  0  0  0  0  0  0  0  0  0  0
  133.9180   76.3010  226.0750 C   0  0  0  0  0  0  0  0  0  0  0  0
  134.6730   75.4590  225.2770 C   0  0  0  0  0  0  0  0  0  0  0  0
  134.4500   74.0870  225.3900 C   0  0  0  0  0  0  0  0  0  0  0  0
  135.2030   73.2770  224.5970 N   0  0  0  0  0  0  0  0  0  0  0  0
  136.0280   69.5570  225.4010 H   0  0  0  0  0  0  0  0  0  0  0  0
  136.5697   67.8853  223.6615 H   0  0  0  0  0  0  0  0  0  0  0  0
  136.9710   69.2621  222.5527 H   0  0  0  0  0  0  0  0  0  0  0  0
  139.4781   70.4787  221.7837 H   0  0  0  0  0  0  0  0  0  0  0  0
  138.1321   71.2623  222.6173 H   0  0  0  0  0  0  0  0  0  0  0  0
  139.6628   73.0441  222.8845 H   0  0  0  0  0  0  0  0  0  0  0  0
  141.3344   72.2538  224.8914 H   0  0  0  0  0  0  0  0  0  0  0  0
  139.6378   72.2814  225.2666 H   0  0  0  0  0  0  0  0  0  0  0  0
  141.3054   69.8216  224.2368 H   0  0  0  0  0  0  0  0  0  0  0  0
  141.3886   67.9297  225.5157 H   0  0  0  0  0  0  0  0  0  0  0  0
  141.4612   67.1153  227.8082 H   0  0  0  0  0  0  0  0  0  0  0  0
  140.5830   68.4720  229.6905 H   0  0  0  0  0  0  0  0  0  0  0  0
  139.5978   70.7302  229.1837 H   0  0  0  0  0  0  0  0  0  0  0  0
  139.5323   71.5331  226.8589 H   0  0  0  0  0  0  0  0  0  0  0  0
  133.9742   70.3157  225.5642 H   0  0  0  0  0  0  0  0  0  0  0  0
  132.5716   71.7616  227.0385 H   0  0  0  0  0  0  0  0  0  0  0  0
  132.0001   74.0132  227.7608 H   0  0  0  0  0  0  0  0  0  0  0  0
  134.0667   77.3892  226.0134 H   0  0  0  0  0  0  0  0  0  0  0  0
  135.4228   75.8581  224.5780 H   0  0  0  0  0  0  0  0  0  0  0  0
  1  2  2  0
  2  3  1  0
  3  4  1  0
  4  5  1  0
  5  6  2  0
  5  7  1  0
  7  8  1  0
  8  9  1  0
  9 10  1  0
  9 11  1  0
 11 12  1  0
 12 13  1  0
 13 14  2  0
 14 15  1  0
 15 16  2  0
 16 17  1  0
 17 18  2  0
  2 19  1  0
 19 20  2  0
 20 21  1  0
 21 22  2  0
 22 23  1  0
 23 24  2  0
 24 25  1  0
 24 26  1  0
 26 27  2  0
 27 28  1  0
 28 29  2  0
 12  7  1  0
 18 13  1  0
 29 19  1  0
 28 22  1  0
  3 30  1  0
  4 31  1  0
  4 32  1  0
  8 33  1  0
  8 34  1  0
  9 35  1  1
 11 36  1  0
 11 37  1  0
 12 38  1  6
 14 39  1  0
 15 40  1  0
 16 41  1  0
 17 42  1  0
 18 43  1  0
 20 44  1  0
 21 45  1  0
 23 46  1  0
 26 47  1  0
 27 48  1  0
M  END
>  <smiles>  (41) 
O=C(NCC(=O)N1C[C@H](F)C[C@H]1c1ccccc1)c1ccc2cc(Cl)ccc2n1

>  <score_type>  (41) 
oracle

>  <origin>  (41) 
autodockgpu

>  <m_score__min__energy>  (41) 
-8.6999999999999993

>  <m_primary>  (41) 
energy

>  <rmsd>  (41) 
7.153002913628324

>  <m_score__min__rmsd>  (41) 
7.153002913628324

>  <meeko>  (41) 
{"free_energy": -7.7, "intermolecular_energy": -9.19, "internal_energy": -1.52, "cluster_size": 13, "cluster_id": 2, "rank_in_cluster": 13}

>  <energy>  (41) 
-8.21

>  <cluster_rmsd>  (41) 
0.09

>  <cluster>  (41) 
4

$$$$

     RDKit          3D

 48 51  0  0  0  0  0  0  0  0999 V2000
  140.2630   72.4870  220.7520 O   0  0  0  0  0  0  0  0  0  0  0  0
  140.0260   72.8460  221.9450 C   0  0  0  0  0  0  0  0  0  0  0  0
  139.7260   74.2180  222.1950 N   0  0  0  0  0  0  0  0  0  0  0  0
  139.7060   75.1230  221.0930 C   0  0  0  0  0  0  0  0  0  0  0  0
  140.5140   76.3640  221.3780 C   0  0  0  0  0  0  0  0  0  0  0  0
  140.5960   76.6820  222.5930 O   0  0  0  0  0  0  0  0  0  0  0  0
  141.1160   77.0820  220.3230 N   0  0  0  0  0  0  0  0  0  0  0  0
  141.1000   76.6730  218.9120 C   0  0  0  0  0  0  0  0  0  0  0  0
  141.6020   77.8720  218.1430 C   0  0  2  0  0  0  0  0  0  0  0  0
  142.9660   77.7120  217.8680 F   0  0  0  0  0  0  0  0  0  0  0  0
  141.4840   79.0080  219.1370 C   0  0  0  0  0  0  0  0  0  0  0  0
  141.8270   78.2960  220.4340 C   0  0  1  0  0  0  0  0  0  0  0  0
  141.5760   79.1440  221.5880 C   0  0  0  0  0  0  0  0  0  0  0  0
  142.5660   79.3910  222.5510 C   0  0  0  0  0  0  0  0  0  0  0  0
  142.3280   80.1860  223.6320 C   0  0  0  0  0  0  0  0  0  0  0  0
  141.1060   80.7890  223.8370 C   0  0  0  0  0  0  0  0  0  0  0  0
  140.1020   80.5630  222.8990 C   0  0  0  0  0  0  0  0  0  0  0  0
  140.3660   79.7510  221.8090 C   0  0  0  0  0  0  0  0  0  0  0  0
  140.0510   71.9040  223.0600 C   0  0  0  0  0  0  0  0  0  0  0  0
  139.5470   70.6360  222.8420 C   0  0  0  0  0  0  0  0  0  0  0  0
  139.5220   69.6650  223.8310 C   0  0  0  0  0  0  0  0  0  0  0  0
  140.0360   70.0320  225.0710 C   0  0  0  0  0  0  0  0  0  0  0  0
  140.0380   69.1020  226.1010 C   0  0  0  0  0  0  0  0  0  0  0  0
  140.5590   69.4990  227.3280 C   0  0  0  0  0  0  0  0  0  0  0  0
  140.5900   68.3760  228.6650 Cl  0  0  0  0  0  0  0  0  0  0  0  0
  141.0620   70.7800  227.5280 C   0  0  0  0  0  0  0  0  0  0  0  0
  141.0580   71.7060  226.4990 C   0  0  0  0  0  0  0  0  0  0  0  0
  140.5360   71.3060  225.2700 C   0  0  0  0  0  0  0  0  0  0  0  0
  140.5420   72.2310  224.2720 N   0  0  0  0  0  0  0  0  0  0  0  0
  139.5270   74.5380  223.1700 H   0  0  0  0  0  0  0  0  0  0  0  0
  140.1255   74.6191  220.2098 H   0  0  0  0  0  0  0  0  0  0  0  0
  138.6633   75.4251  220.9152 H   0  0  0  0  0  0  0  0  0  0  0  0
  141.7623   75.8091  218.7539 H   0  0  0  0  0  0  0  0  0  0  0  0
  140.0950   76.3680  218.5851 H   0  0  0  0  0  0  0  0  0  0  0  0
  141.0545   78.0253  217.2013 H   0  0  0  0  0  0  0  0  0  0  0  0
  142.2002   79.8133  218.9168 H   0  0  0  0  0  0  0  0  0  0  0  0
  140.5041   79.5077  219.1398 H   0  0  0  0  0  0  0  0  0  0  0  0
  142.8910   78.0698  220.5978 H   0  0  0  0  0  0  0  0  0  0  0  0
  143.5583   78.9318  222.4305 H   0  0  0  0  0  0  0  0  0  0  0  0
  143.1344   80.3510  224.3617 H   0  0  0  0  0  0  0  0  0  0  0  0
  140.9292   81.4288  224.7141 H   0  0  0  0  0  0  0  0  0  0  0  0
  139.1110   81.0241  223.0225 H   0  0  0  0  0  0  0  0  0  0  0  0
  139.5601   79.5833  221.0793 H   0  0  0  0  0  0  0  0  0  0  0  0
  139.1508   70.3878  221.8463 H   0  0  0  0  0  0  0  0  0  0  0  0
  139.1178   68.6589  223.6456 H   0  0  0  0  0  0  0  0  0  0  0  0
  139.6416   68.0868  225.9523 H   0  0  0  0  0  0  0  0  0  0  0  0
  141.4664   71.0597  228.5120 H   0  0  0  0  0  0  0  0  0  0  0  0
  141.4530   72.7220  226.6461 H   0  0  0  0  0  0  0  0  0  0  0  0
  1  2  2  0
  2  3  1  0
  3  4  1  0
  4  5  1  0
  5  6  2  0
  5  7  1  0
  7  8  1  0
  8  9  1  0
  9 10  1  0
  9 11  1  0
 11 12  1  0
 12 13  1  0
 13 14  2  0
 14 15  1  0
 15 16  2  0
 16 17  1  0
 17 18  2  0
  2 19  1  0
 19 20  2  0
 20 21  1  0
 21 22  2  0
 22 23  1  0
 23 24  2  0
 24 25  1  0
 24 26  1  0
 26 27  2  0
 27 28  1  0
 28 29  2  0
 12  7  1  0
 18 13  1  0
 29 19  1  0
 28 22  1  0
  3 30  1  0
  4 31  1  0
  4 32  1  0
  8 33  1  0
  8 34  1  0
  9 35  1  6
 11 36  1  0
 11 37  1  0
 12 38  1  6
 14 39  1  0
 15 40  1  0
 16 41  1  0
 17 42  1  0
 18 43  1  0
 20 44  1  0
 21 45  1  0
 23 46  1  0
 26 47  1  0
 27 48  1  0
M  END
>  <smiles>  (42) 
O=C(NCC(=O)N1C[C@H](F)C[C@H]1c1ccccc1)c1ccc2cc(Cl)ccc2n1

>  <score_type>  (42) 
oracle

>  <origin>  (42) 
autodockgpu

>  <m_score__min__energy>  (42) 
-8.6999999999999993

>  <m_primary>  (42) 
energy

>  <rmsd>  (42) 
1.8386879172098272

>  <m_score__min__rmsd>  (42) 
1.8386879172098272

>  <meeko>  (42) 
{"free_energy": -8.59, "intermolecular_energy": -10.08, "internal_energy": -1.57, "cluster_size": 15, "cluster_id": 1, "rank_in_cluster": 5}

>  <energy>  (42) 
-8.21

>  <cluster_rmsd>  (42) 
0.07

>  <cluster>  (42) 
4

$$$$

     RDKit          3D

 48 51  0  0  0  0  0  0  0  0999 V2000
  140.1000   71.9910  220.7280 O   0  0  0  0  0  0  0  0  0  0  0  0
  139.9470   72.4060  221.9160 C   0  0  0  0  0  0  0  0  0  0  0  0
  139.7210   73.7990  222.1250 N   0  0  0  0  0  0  0  0  0  0  0  0
  139.6770   74.6610  220.9900 C   0  0  0  0  0  0  0  0  0  0  0  0
  140.6350   75.8170  221.1330 C   0  0  0  0  0  0  0  0  0  0  0  0
  140.8270   76.2100  222.3120 O   0  0  0  0  0  0  0  0  0  0  0  0
  141.2460   76.3820  219.9930 N   0  0  0  0  0  0  0  0  0  0  0  0
  140.9500   77.7160  219.4550 C   0  0  0  0  0  0  0  0  0  0  0  0
  142.0320   77.9850  218.4360 C   0  0  2  0  0  0  0  0  0  0  0  0
  141.5520   77.6840  217.1550 F   0  0  0  0  0  0  0  0  0  0  0  0
  143.0920   76.9540  218.7610 C   0  0  0  0  0  0  0  0  0  0  0  0
  142.2310   75.7760  219.1840 C   0  0  1  0  0  0  0  0  0  0  0  0
  143.0360   74.7070  219.7540 C   0  0  0  0  0  0  0  0  0  0  0  0
  144.3420   74.9330  220.2130 C   0  0  0  0  0  0  0  0  0  0  0  0
  145.0940   73.9300  220.7460 C   0  0  0  0  0  0  0  0  0  0  0  0
  144.6130   72.6430  220.8650 C   0  0  0  0  0  0  0  0  0  0  0  0
  143.3200   72.3880  220.4190 C   0  0  0  0  0  0  0  0  0  0  0  0
  142.5740   73.4220  219.8800 C   0  0  0  0  0  0  0  0  0  0  0  0
  139.9950   71.5080  223.0650 C   0  0  0  0  0  0  0  0  0  0  0  0
  139.4950   70.2300  222.9050 C   0  0  0  0  0  0  0  0  0  0  0  0
  139.4920   69.2970  223.9300 C   0  0  0  0  0  0  0  0  0  0  0  0
  140.0230   69.7140  225.1470 C   0  0  0  0  0  0  0  0  0  0  0  0
  140.0460   68.8250  226.2110 C   0  0  0  0  0  0  0  0  0  0  0  0
  140.5840   69.2720  227.4140 C   0  0  0  0  0  0  0  0  0  0  0  0
  140.6430   68.2010  228.7930 Cl  0  0  0  0  0  0  0  0  0  0  0  0
  141.0810   70.5620  227.5570 C   0  0  0  0  0  0  0  0  0  0  0  0
  141.0560   71.4480  226.4940 C   0  0  0  0  0  0  0  0  0  0  0  0
  140.5180   70.9980  225.2890 C   0  0  0  0  0  0  0  0  0  0  0  0
  140.5020   71.8840  224.2560 N   0  0  0  0  0  0  0  0  0  0  0  0
  139.5920   74.1650  223.0960 H   0  0  0  0  0  0  0  0  0  0  0  0
  139.9454   74.0839  220.0929 H   0  0  0  0  0  0  0  0  0  0  0  0
  138.6582   75.0670  220.9058 H   0  0  0  0  0  0  0  0  0  0  0  0
  139.9594   77.7274  218.9770 H   0  0  0  0  0  0  0  0  0  0  0  0
  140.9316   78.4814  220.2448 H   0  0  0  0  0  0  0  0  0  0  0  0
  142.3806   79.0280  218.4605 H   0  0  0  0  0  0  0  0  0  0  0  0
  143.7033   76.7115  217.8793 H   0  0  0  0  0  0  0  0  0  0  0  0
  143.8217   77.2772  219.5181 H   0  0  0  0  0  0  0  0  0  0  0  0
  141.7332   75.2221  218.3745 H   0  0  0  0  0  0  0  0  0  0  0  0
  144.7691   75.9441  220.1408 H   0  0  0  0  0  0  0  0  0  0  0  0
  146.1143   74.1530  221.0914 H   0  0  0  0  0  0  0  0  0  0  0  0
  145.2318   71.8436  221.2987 H   0  0  0  0  0  0  0  0  0  0  0  0
  142.8953   71.3761  220.4939 H   0  0  0  0  0  0  0  0  0  0  0  0
  141.5538   73.2006  219.5335 H   0  0  0  0  0  0  0  0  0  0  0  0
  139.0834   69.9419  221.9264 H   0  0  0  0  0  0  0  0  0  0  0  0
  139.0917   68.2821  223.7892 H   0  0  0  0  0  0  0  0  0  0  0  0
  139.6530   67.8028  226.1077 H   0  0  0  0  0  0  0  0  0  0  0  0
  141.4979   70.8816  228.5235 H   0  0  0  0  0  0  0  0  0  0  0  0
  141.4468   72.4711  226.5962 H   0  0  0  0  0  0  0  0  0  0  0  0
  1  2  2  0
  2  3  1  0
  3  4  1  0
  4  5  1  0
  5  6  2  0
  5  7  1  0
  7  8  1  0
  8  9  1  0
  9 10  1  0
  9 11  1  0
 11 12  1  0
 12 13  1  0
 13 14  2  0
 14 15  1  0
 15 16  2  0
 16 17  1  0
 17 18  2  0
  2 19  1  0
 19 20  2  0
 20 21  1  0
 21 22  2  0
 22 23  1  0
 23 24  2  0
 24 25  1  0
 24 26  1  0
 26 27  2  0
 27 28  1  0
 28 29  2  0
 12  7  1  0
 18 13  1  0
 29 19  1  0
 28 22  1  0
  3 30  1  0
  4 31  1  0
  4 32  1  0
  8 33  1  0
  8 34  1  0
  9 35  1  6
 11 36  1  0
 11 37  1  0
 12 38  1  6
 14 39  1  0
 15 40  1  0
 16 41  1  0
 17 42  1  0
 18 43  1  0
 20 44  1  0
 21 45  1  0
 23 46  1  0
 26 47  1  0
 27 48  1  0
M  END
>  <smiles>  (43) 
O=C(NCC(=O)N1C[C@H](F)C[C@H]1c1ccccc1)c1ccc2cc(Cl)ccc2n1

>  <score_type>  (43) 
oracle

>  <origin>  (43) 
autodockgpu

>  <m_score__min__energy>  (43) 
-8.6999999999999993

>  <m_primary>  (43) 
energy

>  <rmsd>  (43) 
2.0973892884413403

>  <m_score__min__rmsd>  (43) 
2.0973892884413403

>  <meeko>  (43) 
{"free_energy": -8.21, "intermolecular_energy": -9.7, "internal_energy": -2.02, "cluster_size": 20, "cluster_id": 4, "rank_in_cluster": 11}

>  <energy>  (43) 
-8.07

>  <cluster_rmsd>  (43) 
0.44

>  <cluster>  (43) 
4

$$$$

     RDKit          3D

 48 51  0  0  0  0  0  0  0  0999 V2000
  140.1310   72.1180  220.7370 O   0  0  0  0  0  0  0  0  0  0  0  0
  139.9580   72.5040  221.9320 C   0  0  0  0  0  0  0  0  0  0  0  0
  139.7010   73.8880  222.1680 N   0  0  0  0  0  0  0  0  0  0  0  0
  139.6490   74.7710  221.0500 C   0  0  0  0  0  0  0  0  0  0  0  0
  140.7810   75.7690  221.0760 C   0  0  0  0  0  0  0  0  0  0  0  0
  141.1570   76.1200  222.2240 O   0  0  0  0  0  0  0  0  0  0  0  0
  141.3420   76.2420  219.8710 N   0  0  0  0  0  0  0  0  0  0  0  0
  140.9860   77.5100  219.2190 C   0  0  0  0  0  0  0  0  0  0  0  0
  142.0320   77.7160  218.1490 C   0  0  2  0  0  0  0  0  0  0  0  0
  141.5290   77.2800  216.9160 F   0  0  0  0  0  0  0  0  0  0  0  0
  143.1350   76.7550  218.5390 C   0  0  0  0  0  0  0  0  0  0  0  0
  142.3260   75.5950  219.0950 C   0  0  1  0  0  0  0  0  0  0  0  0
  143.1820   74.6110  219.7390 C   0  0  0  0  0  0  0  0  0  0  0  0
  142.7540   73.2930  219.9580 C   0  0  0  0  0  0  0  0  0  0  0  0
  143.5580   72.3730  220.5620 C   0  0  0  0  0  0  0  0  0  0  0  0
  144.8310   72.6860  220.9880 C   0  0  0  0  0  0  0  0  0  0  0  0
  145.2840   73.9870  220.7850 C   0  0  0  0  0  0  0  0  0  0  0  0
  144.4510   74.9050  220.1700 C   0  0  0  0  0  0  0  0  0  0  0  0
  140.0160   71.5840  223.0630 C   0  0  0  0  0  0  0  0  0  0  0  0
  139.5500   70.2970  222.8690 C   0  0  0  0  0  0  0  0  0  0  0  0
  139.5580   69.3430  223.8750 C   0  0  0  0  0  0  0  0  0  0  0  0
  140.0640   69.7480  225.1070 C   0  0  0  0  0  0  0  0  0  0  0  0
  140.0980   68.8370  226.1530 C   0  0  0  0  0  0  0  0  0  0  0  0
  140.6100   69.2720  227.3710 C   0  0  0  0  0  0  0  0  0  0  0  0
  140.6800   68.1740  228.7280 Cl  0  0  0  0  0  0  0  0  0  0  0  0
  141.0730   70.5710  227.5470 C   0  0  0  0  0  0  0  0  0  0  0  0
  141.0380   71.4780  226.5020 C   0  0  0  0  0  0  0  0  0  0  0  0
  140.5250   71.0400  225.2810 C   0  0  0  0  0  0  0  0  0  0  0  0
  140.5000   71.9470  224.2670 N   0  0  0  0  0  0  0  0  0  0  0  0
  139.5560   74.2300  223.1450 H   0  0  0  0  0  0  0  0  0  0  0  0
  139.7158   74.1797  220.1249 H   0  0  0  0  0  0  0  0  0  0  0  0
  138.7004   75.3261  221.0943 H   0  0  0  0  0  0  0  0  0  0  0  0
  139.9838   77.4444  218.7704 H   0  0  0  0  0  0  0  0  0  0  0  0
  140.9609   78.3456  219.9339 H   0  0  0  0  0  0  0  0  0  0  0  0
  142.3456   78.7670  218.0655 H   0  0  0  0  0  0  0  0  0  0  0  0
  143.7319   76.4498  217.6669 H   0  0  0  0  0  0  0  0  0  0  0  0
  143.8720   77.1716  219.2414 H   0  0  0  0  0  0  0  0  0  0  0  0
  141.8270   74.9515  218.3555 H   0  0  0  0  0  0  0  0  0  0  0  0
  141.7457   72.9951  219.6346 H   0  0  0  0  0  0  0  0  0  0  0  0
  143.1801   71.3512  220.7139 H   0  0  0  0  0  0  0  0  0  0  0  0
  145.4687   71.9321  221.4728 H   0  0  0  0  0  0  0  0  0  0  0  0
  146.2928   74.2817  221.1099 H   0  0  0  0  0  0  0  0  0  0  0  0
  144.8272   75.9275  220.0182 H   0  0  0  0  0  0  0  0  0  0  0  0
  139.1582   70.0194  221.8793 H   0  0  0  0  0  0  0  0  0  0  0  0
  139.1848   68.3217  223.7087 H   0  0  0  0  0  0  0  0  0  0  0  0
  139.7331   67.8074  226.0237 H   0  0  0  0  0  0  0  0  0  0  0  0
  141.4705   70.8806  228.5248 H   0  0  0  0  0  0  0  0  0  0  0  0
  141.4020   72.5081  226.6299 H   0  0  0  0  0  0  0  0  0  0  0  0
  1  2  2  0
  2  3  1  0
  3  4  1  0
  4  5  1  0
  5  6  2  0
  5  7  1  0
  7  8  1  0
  8  9  1  0
  9 10  1  0
  9 11  1  0
 11 12  1  0
 12 13  1  0
 13 14  2  0
 14 15  1  0
 15 16  2  0
 16 17  1  0
 17 18  2  0
  2 19  1  0
 19 20  2  0
 20 21  1  0
 21 22  2  0
 22 23  1  0
 23 24  2  0
 24 25  1  0
 24 26  1  0
 26 27  2  0
 27 28  1  0
 28 29  2  0
 12  7  1  0
 18 13  1  0
 29 19  1  0
 28 22  1  0
  3 30  1  0
  4 31  1  0
  4 32  1  0
  8 33  1  0
  8 34  1  0
  9 35  1  6
 11 36  1  0
 11 37  1  0
 12 38  1  6
 14 39  1  0
 15 40  1  0
 16 41  1  0
 17 42  1  0
 18 43  1  0
 20 44  1  0
 21 45  1  0
 23 46  1  0
 26 47  1  0
 27 48  1  0
M  END
>  <smiles>  (44) 
O=C(NCC(=O)N1C[C@H](F)C[C@H]1c1ccccc1)c1ccc2cc(Cl)ccc2n1

>  <score_type>  (44) 
oracle

>  <origin>  (44) 
autodockgpu

>  <m_score__min__energy>  (44) 
-8.6999999999999993

>  <m_primary>  (44) 
energy

>  <rmsd>  (44) 
2.077017386045222

>  <m_score__min__rmsd>  (44) 
2.077017386045222

>  <meeko>  (44) 
{"free_energy": -8.25, "intermolecular_energy": -9.74, "internal_energy": -1.97, "cluster_size": 20, "cluster_id": 4, "rank_in_cluster": 6}

>  <energy>  (44) 
-7.97

>  <cluster_rmsd>  (44) 
0.29

>  <cluster>  (44) 
4

$$$$

     RDKit          3D

 48 51  0  0  0  0  0  0  0  0999 V2000
  140.1020   72.0830  220.7190 O   0  0  0  0  0  0  0  0  0  0  0  0
  139.9470   72.4760  221.9150 C   0  0  0  0  0  0  0  0  0  0  0  0
  139.7100   73.8630  222.1490 N   0  0  0  0  0  0  0  0  0  0  0  0
  139.6550   74.7430  221.0280 C   0  0  0  0  0  0  0  0  0  0  0  0
  140.7500   75.7810  221.0820 C   0  0  0  0  0  0  0  0  0  0  0  0
  141.0780   76.1510  222.2380 O   0  0  0  0  0  0  0  0  0  0  0  0
  141.3310   76.2670  219.8920 N   0  0  0  0  0  0  0  0  0  0  0  0
  140.9940   77.5470  219.2540 C   0  0  0  0  0  0  0  0  0  0  0  0
  142.0560   77.7590  218.2000 C   0  0  2  0  0  0  0  0  0  0  0  0
  141.5650   77.3460  216.9550 F   0  0  0  0  0  0  0  0  0  0  0  0
  143.1450   76.7830  218.5900 C   0  0  0  0  0  0  0  0  0  0  0  0
  142.3190   75.6220  219.1180 C   0  0  1  0  0  0  0  0  0  0  0  0
  143.1580   74.6210  219.7580 C   0  0  0  0  0  0  0  0  0  0  0  0
  144.4530   74.9220  220.2060 C   0  0  0  0  0  0  0  0  0  0  0  0
  145.2370   73.9830  220.8060 C   0  0  0  0  0  0  0  0  0  0  0  0
  144.8010   72.6900  221.0050 C   0  0  0  0  0  0  0  0  0  0  0  0
  143.5200   72.3610  220.5710 C   0  0  0  0  0  0  0  0  0  0  0  0
  142.7410   73.3310  219.9650 C   0  0  0  0  0  0  0  0  0  0  0  0
  140.0070   71.5600  223.0490 C   0  0  0  0  0  0  0  0  0  0  0  0
  139.5450   70.2710  222.8590 C   0  0  0  0  0  0  0  0  0  0  0  0
  139.5550   69.3200  223.8680 C   0  0  0  0  0  0  0  0  0  0  0  0
  140.0590   69.7300  225.0980 C   0  0  0  0  0  0  0  0  0  0  0  0
  140.0950   68.8220  226.1470 C   0  0  0  0  0  0  0  0  0  0  0  0
  140.6050   69.2620  227.3640 C   0  0  0  0  0  0  0  0  0  0  0  0
  140.6770   68.1680  228.7240 Cl  0  0  0  0  0  0  0  0  0  0  0  0
  141.0660   70.5630  227.5360 C   0  0  0  0  0  0  0  0  0  0  0  0
  141.0290   71.4660  226.4880 C   0  0  0  0  0  0  0  0  0  0  0  0
  140.5170   71.0240  225.2690 C   0  0  0  0  0  0  0  0  0  0  0  0
  140.4900   71.9270  224.2520 N   0  0  0  0  0  0  0  0  0  0  0  0
  139.5800   74.2110  223.1260 H   0  0  0  0  0  0  0  0  0  0  0  0
  139.7668   74.1538  220.1058 H   0  0  0  0  0  0  0  0  0  0  0  0
  138.6862   75.2636  221.0465 H   0  0  0  0  0  0  0  0  0  0  0  0
  139.9971   77.4965  218.7918 H   0  0  0  0  0  0  0  0  0  0  0  0
  140.9666   78.3726  219.9804 H   0  0  0  0  0  0  0  0  0  0  0  0
  142.3802   78.8082  218.1356 H   0  0  0  0  0  0  0  0  0  0  0  0
  143.7508   76.4856  217.7214 H   0  0  0  0  0  0  0  0  0  0  0  0
  143.8760   77.1828  219.3082 H   0  0  0  0  0  0  0  0  0  0  0  0
  141.8238   74.9941  218.3627 H   0  0  0  0  0  0  0  0  0  0  0  0
  144.8449   75.9407  220.0695 H   0  0  0  0  0  0  0  0  0  0  0  0
  146.2462   74.2643  221.1411 H   0  0  0  0  0  0  0  0  0  0  0  0
  145.4450   71.9424  221.4912 H   0  0  0  0  0  0  0  0  0  0  0  0
  143.1312   71.3412  220.7082 H   0  0  0  0  0  0  0  0  0  0  0  0
  141.7309   73.0518  219.6307 H   0  0  0  0  0  0  0  0  0  0  0  0
  139.1547   69.9891  221.8700 H   0  0  0  0  0  0  0  0  0  0  0  0
  139.1846   68.2972  223.7047 H   0  0  0  0  0  0  0  0  0  0  0  0
  139.7331   67.7910  226.0205 H   0  0  0  0  0  0  0  0  0  0  0  0
  141.4631   70.8766  228.5127 H   0  0  0  0  0  0  0  0  0  0  0  0
  141.3912   72.4972  226.6126 H   0  0  0  0  0  0  0  0  0  0  0  0
  1  2  2  0
  2  3  1  0
  3  4  1  0
  4  5  1  0
  5  6  2  0
  5  7  1  0
  7  8  1  0
  8  9  1  0
  9 10  1  0
  9 11  1  0
 11 12  1  0
 12 13  1  0
 13 14  2  0
 14 15  1  0
 15 16  2  0
 16 17  1  0
 17 18  2  0
  2 19  1  0
 19 20  2  0
 20 21  1  0
 21 22  2  0
 22 23  1  0
 23 24  2  0
 24 25  1  0
 24 26  1  0
 26 27  2  0
 27 28  1  0
 28 29  2  0
 12  7  1  0
 18 13  1  0
 29 19  1  0
 28 22  1  0
  3 30  1  0
  4 31  1  0
  4 32  1  0
  8 33  1  0
  8 34  1  0
  9 35  1  6
 11 36  1  0
 11 37  1  0
 12 38  1  6
 14 39  1  0
 15 40  1  0
 16 41  1  0
 17 42  1  0
 18 43  1  0
 20 44  1  0
 21 45  1  0
 23 46  1  0
 26 47  1  0
 27 48  1  0
M  END
>  <smiles>  (45) 
O=C(NCC(=O)N1C[C@H](F)C[C@H]1c1ccccc1)c1ccc2cc(Cl)ccc2n1

>  <score_type>  (45) 
oracle

>  <origin>  (45) 
autodockgpu

>  <m_score__min__energy>  (45) 
-8.6999999999999993

>  <m_primary>  (45) 
energy

>  <rmsd>  (45) 
2.0822773014336007

>  <m_score__min__rmsd>  (45) 
2.0822773014336007

>  <meeko>  (45) 
{"free_energy": -8.25, "intermolecular_energy": -9.74, "internal_energy": -2.0, "cluster_size": 20, "cluster_id": 4, "rank_in_cluster": 5}

>  <energy>  (45) 
-7.91

>  <cluster_rmsd>  (45) 
0.4

>  <cluster>  (45) 
4

$$$$

     RDKit          3D

 48 51  0  0  0  0  0  0  0  0999 V2000
  140.0670   72.0780  220.7430 O   0  0  0  0  0  0  0  0  0  0  0  0
  139.9260   72.4730  221.9400 C   0  0  0  0  0  0  0  0  0  0  0  0
  139.6960   73.8620  222.1730 N   0  0  0  0  0  0  0  0  0  0  0  0
  139.6360   74.7400  221.0520 C   0  0  0  0  0  0  0  0  0  0  0  0
  140.7410   75.7670  221.0900 C   0  0  0  0  0  0  0  0  0  0  0  0
  141.0860   76.1390  222.2400 O   0  0  0  0  0  0  0  0  0  0  0  0
  141.3140   76.2420  219.8910 N   0  0  0  0  0  0  0  0  0  0  0  0
  140.9660   77.5120  219.2380 C   0  0  0  0  0  0  0  0  0  0  0  0
  142.0210   77.7180  218.1770 C   0  0  2  0  0  0  0  0  0  0  0  0
  141.5280   77.2860  216.9400 F   0  0  0  0  0  0  0  0  0  0  0  0
  143.1190   76.7540  218.5750 C   0  0  0  0  0  0  0  0  0  0  0  0
  142.3030   75.5940  219.1210 C   0  0  1  0  0  0  0  0  0  0  0  0
  143.1520   74.6080  219.7700 C   0  0  0  0  0  0  0  0  0  0  0  0
  144.4630   74.9100  220.1670 C   0  0  0  0  0  0  0  0  0  0  0  0
  145.2560   73.9840  220.7750 C   0  0  0  0  0  0  0  0  0  0  0  0
  144.8140   72.7040  221.0340 C   0  0  0  0  0  0  0  0  0  0  0  0
  143.5170   72.3740  220.6520 C   0  0  0  0  0  0  0  0  0  0  0  0
  142.7290   73.3300  220.0350 C   0  0  0  0  0  0  0  0  0  0  0  0
  139.9920   71.5580  223.0740 C   0  0  0  0  0  0  0  0  0  0  0  0
  139.5370   70.2660  222.8850 C   0  0  0  0  0  0  0  0  0  0  0  0
  139.5540   69.3160  223.8950 C   0  0  0  0  0  0  0  0  0  0  0  0
  140.0560   69.7300  225.1250 C   0  0  0  0  0  0  0  0  0  0  0  0
  140.0980   68.8230  226.1740 C   0  0  0  0  0  0  0  0  0  0  0  0
  140.6060   69.2670  227.3910 C   0  0  0  0  0  0  0  0  0  0  0  0
  140.6860   68.1750  228.7510 Cl  0  0  0  0  0  0  0  0  0  0  0  0
  141.0580   70.5710  227.5620 C   0  0  0  0  0  0  0  0  0  0  0  0
  141.0150   71.4730  226.5130 C   0  0  0  0  0  0  0  0  0  0  0  0
  140.5060   71.0270  225.2940 C   0  0  0  0  0  0  0  0  0  0  0  0
  140.4720   71.9290  224.2770 N   0  0  0  0  0  0  0  0  0  0  0  0
  139.5770   74.2120  223.1510 H   0  0  0  0  0  0  0  0  0  0  0  0
  139.7306   74.1481  220.1297 H   0  0  0  0  0  0  0  0  0  0  0  0
  138.6727   75.2703  221.0819 H   0  0  0  0  0  0  0  0  0  0  0  0
  139.9674   77.4491  218.7811 H   0  0  0  0  0  0  0  0  0  0  0  0
  140.9368   78.3464  219.9542 H   0  0  0  0  0  0  0  0  0  0  0  0
  142.3373   78.7686  218.0977 H   0  0  0  0  0  0  0  0  0  0  0  0
  143.7234   76.4498  217.7077 H   0  0  0  0  0  0  0  0  0  0  0  0
  143.8502   77.1678  219.2850 H   0  0  0  0  0  0  0  0  0  0  0  0
  141.8087   74.9531  218.3761 H   0  0  0  0  0  0  0  0  0  0  0  0
  144.8605   75.9190  219.9830 H   0  0  0  0  0  0  0  0  0  0  0  0
  146.2783   74.2656  221.0677 H   0  0  0  0  0  0  0  0  0  0  0  0
  145.4655   71.9673  221.5267 H   0  0  0  0  0  0  0  0  0  0  0  0
  143.1224   71.3643  220.8384 H   0  0  0  0  0  0  0  0  0  0  0  0
  141.7068   73.0496  219.7408 H   0  0  0  0  0  0  0  0  0  0  0  0
  139.1470   69.9812  221.8967 H   0  0  0  0  0  0  0  0  0  0  0  0
  139.1903   68.2906  223.7327 H   0  0  0  0  0  0  0  0  0  0  0  0
  139.7424   67.7897  226.0481 H   0  0  0  0  0  0  0  0  0  0  0  0
  141.4528   70.8881  228.5385 H   0  0  0  0  0  0  0  0  0  0  0  0
  141.3703   72.5066  226.6369 H   0  0  0  0  0  0  0  0  0  0  0  0
  1  2  2  0
  2  3  1  0
  3  4  1  0
  4  5  1  0
  5  6  2  0
  5  7  1  0
  7  8  1  0
  8  9  1  0
  9 10  1  0
  9 11  1  0
 11 12  1  0
 12 13  1  0
 13 14  2  0
 14 15  1  0
 15 16  2  0
 16 17  1  0
 17 18  2  0
  2 19  1  0
 19 20  2  0
 20 21  1  0
 21 22  2  0
 22 23  1  0
 23 24  2  0
 24 25  1  0
 24 26  1  0
 26 27  2  0
 27 28  1  0
 28 29  2  0
 12  7  1  0
 18 13  1  0
 29 19  1  0
 28 22  1  0
  3 30  1  0
  4 31  1  0
  4 32  1  0
  8 33  1  0
  8 34  1  0
  9 35  1  6
 11 36  1  0
 11 37  1  0
 12 38  1  6
 14 39  1  0
 15 40  1  0
 16 41  1  0
 17 42  1  0
 18 43  1  0
 20 44  1  0
 21 45  1  0
 23 46  1  0
 26 47  1  0
 27 48  1  0
M  END
>  <smiles>  (46) 
O=C(NCC(=O)N1C[C@H](F)C[C@H]1c1ccccc1)c1ccc2cc(Cl)ccc2n1

>  <score_type>  (46) 
oracle

>  <origin>  (46) 
autodockgpu

>  <m_score__min__energy>  (46) 
-8.6999999999999993

>  <m_primary>  (46) 
energy

>  <rmsd>  (46) 
2.061480517698786

>  <m_score__min__rmsd>  (46) 
2.061480517698786

>  <meeko>  (46) 
{"free_energy": -8.24, "intermolecular_energy": -9.74, "internal_energy": -1.99, "cluster_size": 20, "cluster_id": 4, "rank_in_cluster": 8}

>  <energy>  (46) 
-7.88

>  <cluster_rmsd>  (46) 
0.37

>  <cluster>  (46) 
4

$$$$

     RDKit          3D

 48 51  0  0  0  0  0  0  0  0999 V2000
  133.4780   70.2150  226.7810 O   0  0  0  0  0  0  0  0  0  0  0  0
  133.8030   71.3270  226.2640 C   0  0  0  0  0  0  0  0  0  0  0  0
  134.7850   71.3330  225.2300 N   0  0  0  0  0  0  0  0  0  0  0  0
  135.3560   70.0920  224.8240 C   0  0  0  0  0  0  0  0  0  0  0  0
  136.5430   70.2960  223.9150 C   0  0  0  0  0  0  0  0  0  0  0  0
  136.8230   71.4970  223.6630 O   0  0  0  0  0  0  0  0  0  0  0  0
  137.2540   69.1870  223.4100 N   0  0  0  0  0  0  0  0  0  0  0  0
  136.9340   68.4800  222.1630 C   0  0  0  0  0  0  0  0  0  0  0  0
  138.1170   67.5780  221.8990 C   0  0  2  0  0  0  0  0  0  0  0  0
  137.8310   66.2870  222.3600 F   0  0  0  0  0  0  0  0  0  0  0  0
  139.1980   68.1380  222.8000 C   0  0  0  0  0  0  0  0  0  0  0  0
  138.3780   68.5730  224.0030 C   0  0  1  0  0  0  0  0  0  0  0  0
  139.1770   69.3460  224.9390 C   0  0  0  0  0  0  0  0  0  0  0  0
  139.8260   70.5290  224.5530 C   0  0  0  0  0  0  0  0  0  0  0  0
  140.5740   71.2520  225.4330 C   0  0  0  0  0  0  0  0  0  0  0  0
  140.7350   70.8620  226.7450 C   0  0  0  0  0  0  0  0  0  0  0  0
  140.1040   69.6910  227.1580 C   0  0  0  0  0  0  0  0  0  0  0  0
  139.3480   68.9730  226.2480 C   0  0  0  0  0  0  0  0  0  0  0  0
  133.2070   72.5870  226.6940 C   0  0  0  0  0  0  0  0  0  0  0  0
  131.9940   72.5330  227.3550 C   0  0  0  0  0  0  0  0  0  0  0  0
  131.3400   73.6700  227.8050 C   0  0  0  0  0  0  0  0  0  0  0  0
  131.9710   74.8850  227.5570 C   0  0  0  0  0  0  0  0  0  0  0  0
  131.3650   76.0570  227.9840 C   0  0  0  0  0  0  0  0  0  0  0  0
  132.0210   77.2560  227.7220 C   0  0  0  0  0  0  0  0  0  0  0  0
  131.3100   78.7670  228.2330 Cl  0  0  0  0  0  0  0  0  0  0  0  0
  133.2400   77.2900  227.0550 C   0  0  0  0  0  0  0  0  0  0  0  0
  133.8430   76.1190  226.6300 C   0  0  0  0  0  0  0  0  0  0  0  0
  133.1840   74.9190  226.8940 C   0  0  0  0  0  0  0  0  0  0  0  0
  133.7930   73.7790  226.4680 N   0  0  0  0  0  0  0  0  0  0  0  0
  135.0690   72.2380  224.7880 H   0  0  0  0  0  0  0  0  0  0  0  0
  135.6820   69.5399  225.7179 H   0  0  0  0  0  0  0  0  0  0  0  0
  134.5919   69.5274  224.2696 H   0  0  0  0  0  0  0  0  0  0  0  0
  136.0159   67.8859  222.2820 H   0  0  0  0  0  0  0  0  0  0  0  0
  136.7572   69.1774  221.3309 H   0  0  0  0  0  0  0  0  0  0  0  0
  138.3825   67.5345  220.8324 H   0  0  0  0  0  0  0  0  0  0  0  0
  139.9361   67.3688  223.0713 H   0  0  0  0  0  0  0  0  0  0  0  0
  139.7958   68.9414  222.3449 H   0  0  0  0  0  0  0  0  0  0  0  0
  138.0327   67.7710  224.6720 H   0  0  0  0  0  0  0  0  0  0  0  0
  139.7285   70.8809  223.5154 H   0  0  0  0  0  0  0  0  0  0  0  0
  141.0637   72.1739  225.0861 H   0  0  0  0  0  0  0  0  0  0  0  0
  141.3423   71.4564  227.4435 H   0  0  0  0  0  0  0  0  0  0  0  0
  140.2054   69.3408  228.1958 H   0  0  0  0  0  0  0  0  0  0  0  0
  138.8567   68.0515  226.5937 H   0  0  0  0  0  0  0  0  0  0  0  0
  131.5302   71.5512  227.5306 H   0  0  0  0  0  0  0  0  0  0  0  0
  130.3747   73.6144  228.3295 H   0  0  0  0  0  0  0  0  0  0  0  0
  130.3998   76.0395  228.5112 H   0  0  0  0  0  0  0  0  0  0  0  0
  133.7298   78.2561  226.8632 H   0  0  0  0  0  0  0  0  0  0  0  0
  134.8082   76.1345  226.1025 H   0  0  0  0  0  0  0  0  0  0  0  0
  1  2  2  0
  2  3  1  0
  3  4  1  0
  4  5  1  0
  5  6  2  0
  5  7  1  0
  7  8  1  0
  8  9  1  0
  9 10  1  0
  9 11  1  0
 11 12  1  0
 12 13  1  0
 13 14  2  0
 14 15  1  0
 15 16  2  0
 16 17  1  0
 17 18  2  0
  2 19  1  0
 19 20  2  0
 20 21  1  0
 21 22  2  0
 22 23  1  0
 23 24  2  0
 24 25  1  0
 24 26  1  0
 26 27  2  0
 27 28  1  0
 28 29  2  0
 12  7  1  0
 18 13  1  0
 29 19  1  0
 28 22  1  0
  3 30  1  0
  4 31  1  0
  4 32  1  0
  8 33  1  0
  8 34  1  0
  9 35  1  6
 11 36  1  0
 11 37  1  0
 12 38  1  1
 14 39  1  0
 15 40  1  0
 16 41  1  0
 17 42  1  0
 18 43  1  0
 20 44  1  0
 21 45  1  0
 23 46  1  0
 26 47  1  0
 27 48  1  0
M  END
>  <smiles>  (47) 
O=C(NCC(=O)N1C[C@H](F)C[C@H]1c1ccccc1)c1ccc2cc(Cl)ccc2n1

>  <score_type>  (47) 
oracle

>  <origin>  (47) 
autodockgpu

>  <m_score__min__energy>  (47) 
-8.6999999999999993

>  <m_primary>  (47) 
energy

>  <rmsd>  (47) 
8.799415214167071

>  <m_score__min__rmsd>  (47) 
8.799415214167071

>  <meeko>  (47) 
{"free_energy": -7.66, "intermolecular_energy": -9.15, "internal_energy": -2.0, "cluster_size": 1, "cluster_id": 5, "rank_in_cluster": 1}

>  <energy>  (47) 
-7.8

>  <cluster_rmsd>  (47) 
0.83

>  <cluster>  (47) 
4

$$$$

     RDKit          3D

 48 51  0  0  0  0  0  0  0  0999 V2000
  139.7440   72.0250  220.7450 O   0  0  0  0  0  0  0  0  0  0  0  0
  139.7190   72.4310  221.9460 C   0  0  0  0  0  0  0  0  0  0  0  0
  139.5730   73.8290  222.1870 N   0  0  0  0  0  0  0  0  0  0  0  0
  139.4620   74.7060  221.0680 C   0  0  0  0  0  0  0  0  0  0  0  0
  139.5860   76.1520  221.4790 C   0  0  0  0  0  0  0  0  0  0  0  0
  139.9110   76.3400  222.6800 O   0  0  0  0  0  0  0  0  0  0  0  0
  139.3450   77.1830  220.5460 N   0  0  0  0  0  0  0  0  0  0  0  0
  138.2970   77.1560  219.5170 C   0  0  0  0  0  0  0  0  0  0  0  0
  138.2390   78.5630  218.9690 C   0  0  2  0  0  0  0  0  0  0  0  0
  138.9870   78.6340  217.7870 F   0  0  0  0  0  0  0  0  0  0  0  0
  138.9780   79.3790  220.0080 C   0  0  0  0  0  0  0  0  0  0  0  0
  140.0540   78.3970  220.4380 C   0  0  1  0  0  0  0  0  0  0  0  0
  140.7810   78.8820  221.6010 C   0  0  0  0  0  0  0  0  0  0  0  0
  140.1170   79.3190  222.7560 C   0  0  0  0  0  0  0  0  0  0  0  0
  140.8000   79.7720  223.8440 C   0  0  0  0  0  0  0  0  0  0  0  0
  142.1780   79.8250  223.8690 C   0  0  0  0  0  0  0  0  0  0  0  0
  142.8660   79.3980  222.7370 C   0  0  0  0  0  0  0  0  0  0  0  0
  142.1510   78.9420  221.6430 C   0  0  0  0  0  0  0  0  0  0  0  0
  139.8340   71.5180  223.0780 C   0  0  0  0  0  0  0  0  0  0  0  0
  139.4120   70.2140  222.8990 C   0  0  0  0  0  0  0  0  0  0  0  0
  139.4770   69.2650  223.9080 C   0  0  0  0  0  0  0  0  0  0  0  0
  139.9940   69.6930  225.1270 C   0  0  0  0  0  0  0  0  0  0  0  0
  140.0830   68.7880  226.1750 C   0  0  0  0  0  0  0  0  0  0  0  0
  140.6050   69.2460  227.3800 C   0  0  0  0  0  0  0  0  0  0  0  0
  140.7430   68.1570  228.7390 Cl  0  0  0  0  0  0  0  0  0  0  0  0
  141.0230   70.5620  227.5420 C   0  0  0  0  0  0  0  0  0  0  0  0
  140.9330   71.4630  226.4950 C   0  0  0  0  0  0  0  0  0  0  0  0
  140.4110   71.0020  225.2870 C   0  0  0  0  0  0  0  0  0  0  0  0
  140.3300   71.9030  224.2710 N   0  0  0  0  0  0  0  0  0  0  0  0
  139.5500   74.1880  223.1680 H   0  0  0  0  0  0  0  0  0  0  0  0
  140.2605   74.4698  220.3492 H   0  0  0  0  0  0  0  0  0  0  0  0
  138.4697   74.5616  220.6158 H   0  0  0  0  0  0  0  0  0  0  0  0
  138.5572   76.4430  218.7208 H   0  0  0  0  0  0  0  0  0  0  0  0
  137.3279   76.8357  219.9273 H   0  0  0  0  0  0  0  0  0  0  0  0
  137.2092   78.8945  218.7699 H   0  0  0  0  0  0  0  0  0  0  0  0
  139.4137   80.2896  219.5711 H   0  0  0  0  0  0  0  0  0  0  0  0
  138.3454   79.7462  220.8296 H   0  0  0  0  0  0  0  0  0  0  0  0
  140.8922   78.2569  219.7395 H   0  0  0  0  0  0  0  0  0  0  0  0
  139.0176   79.2954  222.7842 H   0  0  0  0  0  0  0  0  0  0  0  0
  140.2364   80.1051  224.7280 H   0  0  0  0  0  0  0  0  0  0  0  0
  142.7160   80.1929  224.7551 H   0  0  0  0  0  0  0  0  0  0  0  0
  143.9654   79.4226  222.7120 H   0  0  0  0  0  0  0  0  0  0  0  0
  142.7127   78.6091  220.7577 H   0  0  0  0  0  0  0  0  0  0  0  0
  139.0094   69.9178  221.9191 H   0  0  0  0  0  0  0  0  0  0  0  0
  139.1383   68.2300  223.7532 H   0  0  0  0  0  0  0  0  0  0  0  0
  139.7525   67.7455  226.0570 H   0  0  0  0  0  0  0  0  0  0  0  0
  141.4287   70.8900  228.5104 H   0  0  0  0  0  0  0  0  0  0  0  0
  141.2618   72.5062  226.6119 H   0  0  0  0  0  0  0  0  0  0  0  0
  1  2  2  0
  2  3  1  0
  3  4  1  0
  4  5  1  0
  5  6  2  0
  5  7  1  0
  7  8  1  0
  8  9  1  0
  9 10  1  0
  9 11  1  0
 11 12  1  0
 12 13  1  0
 13 14  2  0
 14 15  1  0
 15 16  2  0
 16 17  1  0
 17 18  2  0
  2 19  1  0
 19 20  2  0
 20 21  1  0
 21 22  2  0
 22 23  1  0
 23 24  2  0
 24 25  1  0
 24 26  1  0
 26 27  2  0
 27 28  1  0
 28 29  2  0
 12  7  1  0
 18 13  1  0
 29 19  1  0
 28 22  1  0
  3 30  1  0
  4 31  1  0
  4 32  1  0
  8 33  1  0
  8 34  1  0
  9 35  1  6
 11 36  1  0
 11 37  1  0
 12 38  1  6
 14 39  1  0
 15 40  1  0
 16 41  1  0
 17 42  1  0
 18 43  1  0
 20 44  1  0
 21 45  1  0
 23 46  1  0
 26 47  1  0
 27 48  1  0
M  END
>  <smiles>  (48) 
O=C(NCC(=O)N1C[C@H](F)C[C@H]1c1ccccc1)c1ccc2cc(Cl)ccc2n1

>  <score_type>  (48) 
oracle

>  <origin>  (48) 
autodockgpu

>  <m_score__min__energy>  (48) 
-8.6999999999999993

>  <m_primary>  (48) 
energy

>  <rmsd>  (48) 
1.9921238000244637

>  <m_score__min__rmsd>  (48) 
1.9921238000244637

>  <meeko>  (48) 
{"free_energy": -7.99, "intermolecular_energy": -9.48, "internal_energy": -1.85, "cluster_size": 15, "cluster_id": 1, "rank_in_cluster": 10}

>  <energy>  (48) 
-7.71

>  <cluster_rmsd>  (48) 
0.53

>  <cluster>  (48) 
4

$$$$

     RDKit          3D

 48 51  0  0  0  0  0  0  0  0999 V2000
  138.4630   71.6210  221.2120 O   0  0  0  0  0  0  0  0  0  0  0  0
  138.9540   72.0760  222.2890 C   0  0  0  0  0  0  0  0  0  0  0  0
  139.1970   73.4780  222.3850 N   0  0  0  0  0  0  0  0  0  0  0  0
  138.8760   74.3040  221.2680 C   0  0  0  0  0  0  0  0  0  0  0  0
  139.6350   75.6080  221.3040 C   0  0  0  0  0  0  0  0  0  0  0  0
  140.3940   75.7570  222.2960 O   0  0  0  0  0  0  0  0  0  0  0  0
  139.4710   76.5570  220.2740 N   0  0  0  0  0  0  0  0  0  0  0  0
  138.6500   76.3600  219.0720 C   0  0  0  0  0  0  0  0  0  0  0  0
  138.5510   77.7230  218.4270 C   0  0  2  0  0  0  0  0  0  0  0  0
  139.5010   77.8240  217.4030 F   0  0  0  0  0  0  0  0  0  0  0  0
  138.9870   78.6690  219.5260 C   0  0  0  0  0  0  0  0  0  0  0  0
  140.0570   77.8400  220.2160 C   0  0  1  0  0  0  0  0  0  0  0  0
  140.4930   78.4600  221.4570 C   0  0  0  0  0  0  0  0  0  0  0  0
  141.8370   78.7920  221.6830 C   0  0  0  0  0  0  0  0  0  0  0  0
  142.2420   79.3730  222.8470 C   0  0  0  0  0  0  0  0  0  0  0  0
  141.3570   79.6670  223.8610 C   0  0  0  0  0  0  0  0  0  0  0  0
  140.0150   79.3500  223.6670 C   0  0  0  0  0  0  0  0  0  0  0  0
  139.6260   78.7590  222.4770 C   0  0  0  0  0  0  0  0  0  0  0  0
  139.2760   71.2140  223.4210 C   0  0  0  0  0  0  0  0  0  0  0  0
  138.9410   69.8770  223.3270 C   0  0  0  0  0  0  0  0  0  0  0  0
  139.2000   68.9700  224.3440 C   0  0  0  0  0  0  0  0  0  0  0  0
  139.8230   69.4780  225.4800 C   0  0  0  0  0  0  0  0  0  0  0  0
  140.1080   68.6200  226.5320 C   0  0  0  0  0  0  0  0  0  0  0  0
  140.7310   69.1570  227.6540 C   0  0  0  0  0  0  0  0  0  0  0  0
  141.1170   68.1290  229.0120 Cl  0  0  0  0  0  0  0  0  0  0  0  0
  141.0600   70.5060  227.7300 C   0  0  0  0  0  0  0  0  0  0  0  0
  140.7740   71.3610  226.6800 C   0  0  0  0  0  0  0  0  0  0  0  0
  140.1500   70.8200  225.5560 C   0  0  0  0  0  0  0  0  0  0  0  0
  139.8780   71.6770  224.5350 N   0  0  0  0  0  0  0  0  0  0  0  0
  139.6020   73.8770  223.2630 H   0  0  0  0  0  0  0  0  0  0  0  0
  139.1319   73.7676  220.3423 H   0  0  0  0  0  0  0  0  0  0  0  0
  137.8004   74.5312  221.3064 H   0  0  0  0  0  0  0  0  0  0  0  0
  139.1323   75.6451  218.3892 H   0  0  0  0  0  0  0  0  0  0  0  0
  137.6590   75.9494  219.3158 H   0  0  0  0  0  0  0  0  0  0  0  0
  137.5495   77.9221  218.0179 H   0  0  0  0  0  0  0  0  0  0  0  0
  139.4011   79.6016  219.1153 H   0  0  0  0  0  0  0  0  0  0  0  0
  138.1733   79.0001  220.1880 H   0  0  0  0  0  0  0  0  0  0  0  0
  141.0238   77.7655  219.6966 H   0  0  0  0  0  0  0  0  0  0  0  0
  142.5816   78.5782  220.9020 H   0  0  0  0  0  0  0  0  0  0  0  0
  143.3068   79.6144  222.9810 H   0  0  0  0  0  0  0  0  0  0  0  0
  141.6996   80.1373  224.7945 H   0  0  0  0  0  0  0  0  0  0  0  0
  139.2730   79.5665  224.4497 H   0  0  0  0  0  0  0  0  0  0  0  0
  138.5618   78.5155  222.3419 H   0  0  0  0  0  0  0  0  0  0  0  0
  138.4500   69.5180  222.4105 H   0  0  0  0  0  0  0  0  0  0  0  0
  138.9279   67.9077  224.2573 H   0  0  0  0  0  0  0  0  0  0  0  0
  139.8503   67.5518  226.4808 H   0  0  0  0  0  0  0  0  0  0  0  0
  141.5520   70.8970  228.6328 H   0  0  0  0  0  0  0  0  0  0  0  0
  141.0298   72.4297  226.7301 H   0  0  0  0  0  0  0  0  0  0  0  0
  1  2  2  0
  2  3  1  0
  3  4  1  0
  4  5  1  0
  5  6  2  0
  5  7  1  0
  7  8  1  0
  8  9  1  0
  9 10  1  0
  9 11  1  0
 11 12  1  0
 12 13  1  0
 13 14  2  0
 14 15  1  0
 15 16  2  0
 16 17  1  0
 17 18  2  0
  2 19  1  0
 19 20  2  0
 20 21  1  0
 21 22  2  0
 22 23  1  0
 23 24  2  0
 24 25  1  0
 24 26  1  0
 26 27  2  0
 27 28  1  0
 28 29  2  0
 12  7  1  0
 18 13  1  0
 29 19  1  0
 28 22  1  0
  3 30  1  0
  4 31  1  0
  4 32  1  0
  8 33  1  0
  8 34  1  0
  9 35  1  6
 11 36  1  0
 11 37  1  0
 12 38  1  6
 14 39  1  0
 15 40  1  0
 16 41  1  0
 17 42  1  0
 18 43  1  0
 20 44  1  0
 21 45  1  0
 23 46  1  0
 26 47  1  0
 27 48  1  0
M  END
>  <smiles>  (49) 
O=C(NCC(=O)N1C[C@H](F)C[C@H]1c1ccccc1)c1ccc2cc(Cl)ccc2n1

>  <score_type>  (49) 
oracle

>  <origin>  (49) 
autodockgpu

>  <m_score__min__energy>  (49) 
-8.6999999999999993

>  <m_primary>  (49) 
energy

>  <rmsd>  (49) 
1.4427914355895066

>  <m_score__min__rmsd>  (49) 
1.4427914355895066

>  <meeko>  (49) 
{"free_energy": -7.75, "intermolecular_energy": -9.24, "internal_energy": -1.88, "cluster_size": 15, "cluster_id": 1, "rank_in_cluster": 14}

>  <energy>  (49) 
-7.39

>  <cluster_rmsd>  (49) 
1.09

>  <cluster>  (49) 
4

$$$$

     RDKit          3D

 48 51  0  0  0  0  0  0  0  0999 V2000
  140.1350   72.5440  220.8310 O   0  0  0  0  0  0  0  0  0  0  0  0
  139.9360   72.8830  222.0370 C   0  0  0  0  0  0  0  0  0  0  0  0
  139.6380   74.2500  222.3170 N   0  0  0  0  0  0  0  0  0  0  0  0
  139.5760   75.1710  221.2310 C   0  0  0  0  0  0  0  0  0  0  0  0
  140.3930   76.4090  221.5040 C   0  0  0  0  0  0  0  0  0  0  0  0
  140.3890   76.7990  222.7000 O   0  0  0  0  0  0  0  0  0  0  0  0
  141.0960   77.0450  220.4580 N   0  0  0  0  0  0  0  0  0  0  0  0
  141.1260   76.5830  219.0640 C   0  0  0  0  0  0  0  0  0  0  0  0
  141.7460   77.7170  218.2810 C   0  0  2  0  0  0  0  0  0  0  0  0
  143.1090   77.4600  218.0880 F   0  0  0  0  0  0  0  0  0  0  0  0
  141.6500   78.8960  219.2260 C   0  0  0  0  0  0  0  0  0  0  0  0
  141.8780   78.2140  220.5650 C   0  0  1  0  0  0  0  0  0  0  0  0
  141.6230   79.1210  221.6730 C   0  0  0  0  0  0  0  0  0  0  0  0
  140.3920   79.7770  221.8200 C   0  0  0  0  0  0  0  0  0  0  0  0
  140.1550   80.6260  222.8600 C   0  0  0  0  0  0  0  0  0  0  0  0
  141.1100   80.8850  223.8200 C   0  0  0  0  0  0  0  0  0  0  0  0
  142.3420   80.2490  223.7010 C   0  0  0  0  0  0  0  0  0  0  0  0
  142.5600   79.3900  222.6370 C   0  0  0  0  0  0  0  0  0  0  0  0
  140.0040   71.9250  223.1360 C   0  0  0  0  0  0  0  0  0  0  0  0
  139.5540   70.6400  222.8980 C   0  0  0  0  0  0  0  0  0  0  0  0
  139.5740   69.6520  223.8700 C   0  0  0  0  0  0  0  0  0  0  0  0
  140.0740   70.0200  225.1150 C   0  0  0  0  0  0  0  0  0  0  0  0
  140.1180   69.0750  226.1290 C   0  0  0  0  0  0  0  0  0  0  0  0
  140.6250   69.4730  227.3620 C   0  0  0  0  0  0  0  0  0  0  0  0
  140.7070   68.3310  228.6800 Cl  0  0  0  0  0  0  0  0  0  0  0  0
  141.0720   70.7710  227.5830 C   0  0  0  0  0  0  0  0  0  0  0  0
  141.0270   71.7130  226.5700 C   0  0  0  0  0  0  0  0  0  0  0  0
  140.5200   71.3110  225.3340 C   0  0  0  0  0  0  0  0  0  0  0  0
  140.4840   72.2520  224.3520 N   0  0  0  0  0  0  0  0  0  0  0  0
  139.4710   74.5530  223.3040 H   0  0  0  0  0  0  0  0  0  0  0  0
  139.9626   74.6810  220.3252 H   0  0  0  0  0  0  0  0  0  0  0  0
  138.5271   75.4742  221.0972 H   0  0  0  0  0  0  0  0  0  0  0  0
  141.7369   75.6728  218.9729 H   0  0  0  0  0  0  0  0  0  0  0  0
  140.1213   76.3306  218.6940 H   0  0  0  0  0  0  0  0  0  0  0  0
  141.2608   77.8678  217.3054 H   0  0  0  0  0  0  0  0  0  0  0  0
  142.4274   79.6456  219.0169 H   0  0  0  0  0  0  0  0  0  0  0  0
  140.7058   79.4562  219.1575 H   0  0  0  0  0  0  0  0  0  0  0  0
  142.9147   77.9270  220.7948 H   0  0  0  0  0  0  0  0  0  0  0  0
  139.5987   79.6022  221.0783 H   0  0  0  0  0  0  0  0  0  0  0  0
  139.1742   81.1182  222.9353 H   0  0  0  0  0  0  0  0  0  0  0  0
  140.9046   81.5726  224.6537 H   0  0  0  0  0  0  0  0  0  0  0  0
  143.1337   80.4266  224.4437 H   0  0  0  0  0  0  0  0  0  0  0  0
  143.5398   78.8958  222.5610 H   0  0  0  0  0  0  0  0  0  0  0  0
  139.1652   70.3920  221.8993 H   0  0  0  0  0  0  0  0  0  0  0  0
  139.2141   68.6324  223.6679 H   0  0  0  0  0  0  0  0  0  0  0  0
  139.7643   68.0465  225.9642 H   0  0  0  0  0  0  0  0  0  0  0  0
  141.4648   71.0516  228.5714 H   0  0  0  0  0  0  0  0  0  0  0  0
  141.3786   72.7424  226.7337 H   0  0  0  0  0  0  0  0  0  0  0  0
  1  2  2  0
  2  3  1  0
  3  4  1  0
  4  5  1  0
  5  6  2  0
  5  7  1  0
  7  8  1  0
  8  9  1  0
  9 10  1  0
  9 11  1  0
 11 12  1  0
 12 13  1  0
 13 14  2  0
 14 15  1  0
 15 16  2  0
 16 17  1  0
 17 18  2  0
  2 19  1  0
 19 20  2  0
 20 21  1  0
 21 22  2  0
 22 23  1  0
 23 24  2  0
 24 25  1  0
 24 26  1  0
 26 27  2  0
 27 28  1  0
 28 29  2  0
 12  7  1  0
 18 13  1  0
 29 19  1  0
 28 22  1  0
  3 30  1  0
  4 31  1  0
  4 32  1  0
  8 33  1  0
  8 34  1  0
  9 35  1  6
 11 36  1  0
 11 37  1  0
 12 38  1  6
 14 39  1  0
 15 40  1  0
 16 41  1  0
 17 42  1  0
 18 43  1  0
 20 44  1  0
 21 45  1  0
 23 46  1  0
 26 47  1  0
 27 48  1  0
M  END
>  <smiles>  (50) 
O=C(NCC(=O)N1C[C@H](F)C[C@H]1c1ccccc1)c1ccc2cc(Cl)ccc2n1

>  <score_type>  (50) 
oracle

>  <origin>  (50) 
autodockgpu

>  <m_score__min__energy>  (50) 
-8.6999999999999993

>  <m_primary>  (50) 
energy

>  <rmsd>  (50) 
1.8273417784488335

>  <m_score__min__rmsd>  (50) 
1.8273417784488335

>  <meeko>  (50) 
{"free_energy": -8.64, "intermolecular_energy": -10.13, "internal_energy": -1.54, "cluster_size": 15, "cluster_id": 1, "rank_in_cluster": 2}

>  <energy>  (50) 
-7.66

>  <cluster_rmsd>  (50) 
0.0

>  <cluster>  (50) 
5

$$$$
