
     RDKit          3D

 42 44  0  0  0  0  0  0  0  0999 V2000
  141.0250   73.5780  220.5830 O   0  0  0  0  0  0  0  0  0  0  0  0
  140.5630   74.4130  221.4100 C   0  0  0  0  0  0  0  0  0  0  0  0
  139.6080   73.9520  222.3430 N   0  0  0  0  0  0  0  0  0  0  0  0
  139.2190   72.5720  222.2990 C   0  0  0  0  0  0  0  0  0  0  0  0
  140.2350   71.6760  222.9110 C   0  0  0  0  0  0  0  0  0  0  0  0
  141.4000   71.5380  222.4610 O   0  0  0  0  0  0  0  0  0  0  0  0
  139.8630   70.9380  224.0690 N   0  0  0  0  0  0  0  0  0  0  0  0
  138.5570   70.3240  224.2190 C   0  0  0  0  0  0  0  0  0  0  0  0
  138.6540   69.4400  225.4430 C   0  0  0  0  0  0  0  0  0  0  0  0
  140.1500   69.2320  225.5560 C   0  0  2  0  0  0  0  0  0  0  0  0
  140.5670   68.7660  226.9210 C   0  0  0  0  0  0  0  0  0  0  0  0
  140.7380   67.4000  226.8640 O   0  0  0  0  0  0  0  0  0  0  0  0
  140.6360   70.6560  225.2560 C   0  0  0  0  0  0  0  0  0  0  0  0
  140.9690   75.8120  221.4400 C   0  0  0  0  0  0  0  0  0  0  0  0
  141.6830   76.3460  220.3770 C   0  0  0  0  0  0  0  0  0  0  0  0
  142.0950   77.6590  220.3470 C   0  0  0  0  0  0  0  0  0  0  0  0
  141.7780   78.4670  221.4280 C   0  0  0  0  0  0  0  0  0  0  0  0
  142.1460   79.7990  221.4950 C   0  0  0  0  0  0  0  0  0  0  0  0
  141.7930   80.5330  222.6030 C   0  0  0  0  0  0  0  0  0  0  0  0
  142.1590   81.8280  222.6510 F   0  0  0  0  0  0  0  0  0  0  0  0
  141.0830   79.9900  223.6550 C   0  0  0  0  0  0  0  0  0  0  0  0
  140.7290   78.6760  223.5710 C   0  0  0  0  0  0  0  0  0  0  0  0
  141.0730   77.9210  222.4690 C   0  0  0  0  0  0  0  0  0  0  0  0
  140.6760   76.6210  222.4790 N   0  0  0  0  0  0  0  0  0  0  0  0
  139.1760   74.5770  223.0600 H   0  0  0  0  0  0  0  0  0  0  0  0
  138.2708   72.4549  222.8442 H   0  0  0  0  0  0  0  0  0  0  0  0
  139.1145   72.2870  221.2417 H   0  0  0  0  0  0  0  0  0  0  0  0
  137.7858   71.0949  224.3637 H   0  0  0  0  0  0  0  0  0  0  0  0
  138.2760   69.7477  223.3252 H   0  0  0  0  0  0  0  0  0  0  0  0
  138.2511   69.9437  226.3340 H   0  0  0  0  0  0  0  0  0  0  0  0
  138.0786   68.5057  225.3649 H   0  0  0  0  0  0  0  0  0  0  0  0
  140.5563   68.4517  224.8957 H   0  0  0  0  0  0  0  0  0  0  0  0
  141.5117   69.2500  227.2095 H   0  0  0  0  0  0  0  0  0  0  0  0
  139.8023   69.0274  227.6673 H   0  0  0  0  0  0  0  0  0  0  0  0
  140.0000   66.9460  227.3640 H   0  0  0  0  0  0  0  0  0  0  0  0
  140.3959   71.3506  226.0745 H   0  0  0  0  0  0  0  0  0  0  0  0
  141.7246   70.7592  225.1362 H   0  0  0  0  0  0  0  0  0  0  0  0
  141.9293   75.6949  219.5253 H   0  0  0  0  0  0  0  0  0  0  0  0
  142.6594   78.0556  219.4902 H   0  0  0  0  0  0  0  0  0  0  0  0
  142.7123   80.2638  220.6745 H   0  0  0  0  0  0  0  0  0  0  0  0
  140.8120   80.5969  224.5315 H   0  0  0  0  0  0  0  0  0  0  0  0
  140.1623   78.2124  224.3919 H   0  0  0  0  0  0  0  0  0  0  0  0
  1  2  2  0
  2  3  1  0
  3  4  1  0
  4  5  1  0
  5  6  2  0
  5  7  1  0
  7  8  1  0
  8  9  1  0
  9 10  1  0
 10 11  1  0
 11 12  1  0
 10 13  1  0
  2 14  1  0
 14 15  2  0
 15 16  1  0
 16 17  2  0
 17 18  1  0
 18 19  2  0
 19 20  1  0
 19 21  1  0
 21 22  2  0
 22 23  1  0
 23 24  2  0
 13  7  1  0
 24 14  1  0
 23 17  1  0
  3 25  1  0
  4 26  1  0
  4 27  1  0
  8 28  1  0
  8 29  1  0
  9 30  1  0
  9 31  1  0
 10 32  1  6
 11 33  1  0
 11 34  1  0
 12 35  1  0
 13 36  1  0
 13 37  1  0
 15 38  1  0
 16 39  1  0
 18 40  1  0
 21 41  1  0
 22 42  1  0
M  END
>  <smiles>  (1) 
O=C(NCC(=O)N1CC[C@H](CO)C1)c1ccc2cc(F)ccc2n1

>  <score_type>  (1) 
oracle

>  <origin>  (1) 
autodockgpu

>  <m_score__min__energy>  (1) 
-7.7199999999999998

>  <m_primary>  (1) 
energy

>  <rmsd>  (1) 
9.202185477966465

>  <m_score__min__rmsd>  (1) 
9.202185477966465

>  <meeko>  (1) 
{"free_energy": -6.56, "intermolecular_energy": -8.35, "internal_energy": -0.89, "cluster_size": 5, "cluster_id": 4, "rank_in_cluster": 5}

>  <energy>  (1) 
-7.72

>  <cluster_rmsd>  (1) 
0.0

>  <cluster>  (1) 
1

$$$$

     RDKit          3D

 42 44  0  0  0  0  0  0  0  0999 V2000
  141.1890   72.2870  221.4840 O   0  0  0  0  0  0  0  0  0  0  0  0
  140.3270   72.4590  222.3900 C   0  0  0  0  0  0  0  0  0  0  0  0
  139.4700   73.5760  222.2770 N   0  0  0  0  0  0  0  0  0  0  0  0
  139.6260   74.4460  221.1460 C   0  0  0  0  0  0  0  0  0  0  0  0
  140.8370   75.3010  221.2510 C   0  0  0  0  0  0  0  0  0  0  0  0
  141.3380   75.6640  222.3450 O   0  0  0  0  0  0  0  0  0  0  0  0
  141.4590   75.7280  220.0450 N   0  0  0  0  0  0  0  0  0  0  0  0
  141.7990   77.1150  219.7890 C   0  0  0  0  0  0  0  0  0  0  0  0
  142.6550   77.1070  218.5400 C   0  0  0  0  0  0  0  0  0  0  0  0
  143.1510   75.6760  218.5160 C   0  0  2  0  0  0  0  0  0  0  0  0
  143.6560   75.2640  217.1630 C   0  0  0  0  0  0  0  0  0  0  0  0
  144.6840   74.3650  217.3550 O   0  0  0  0  0  0  0  0  0  0  0  0
  141.8580   74.9430  218.8990 C   0  0  0  0  0  0  0  0  0  0  0  0
  140.1830   71.5650  223.5330 C   0  0  0  0  0  0  0  0  0  0  0  0
  139.5360   70.3480  223.3780 C   0  0  0  0  0  0  0  0  0  0  0  0
  139.3690   69.4620  224.4180 C   0  0  0  0  0  0  0  0  0  0  0  0
  139.8700   69.8130  225.6620 C   0  0  0  0  0  0  0  0  0  0  0  0
  139.7530   68.9930  226.7700 C   0  0  0  0  0  0  0  0  0  0  0  0
  140.2780   69.4150  227.9690 C   0  0  0  0  0  0  0  0  0  0  0  0
  140.1550   68.6050  229.0370 F   0  0  0  0  0  0  0  0  0  0  0  0
  140.9190   70.6290  228.1100 C   0  0  0  0  0  0  0  0  0  0  0  0
  141.0260   71.4230  227.0060 C   0  0  0  0  0  0  0  0  0  0  0  0
  140.5060   71.0200  225.7940 C   0  0  0  0  0  0  0  0  0  0  0  0
  140.6610   71.8810  224.7540 N   0  0  0  0  0  0  0  0  0  0  0  0
  138.7310   73.7910  222.9830 H   0  0  0  0  0  0  0  0  0  0  0  0
  139.7048   73.8322  220.2365 H   0  0  0  0  0  0  0  0  0  0  0  0
  138.7494   75.1095  221.1101 H   0  0  0  0  0  0  0  0  0  0  0  0
  140.8876   77.7086  219.6248 H   0  0  0  0  0  0  0  0  0  0  0  0
  142.3302   77.5651  220.6406 H   0  0  0  0  0  0  0  0  0  0  0  0
  142.0599   77.3401  217.6447 H   0  0  0  0  0  0  0  0  0  0  0  0
  143.4588   77.8579  218.5450 H   0  0  0  0  0  0  0  0  0  0  0  0
  144.0113   75.4770  219.1719 H   0  0  0  0  0  0  0  0  0  0  0  0
  142.8460   74.7900  216.5892 H   0  0  0  0  0  0  0  0  0  0  0  0
  144.0107   76.1405  216.6009 H   0  0  0  0  0  0  0  0  0  0  0  0
  145.5460   74.8590  217.4720 H   0  0  0  0  0  0  0  0  0  0  0  0
  141.1099   74.9857  218.0937 H   0  0  0  0  0  0  0  0  0  0  0  0
  141.9736   73.8660  219.0908 H   0  0  0  0  0  0  0  0  0  0  0  0
  139.1415   70.0808  222.3866 H   0  0  0  0  0  0  0  0  0  0  0  0
  138.8527   68.5026  224.2663 H   0  0  0  0  0  0  0  0  0  0  0  0
  139.2480   68.0188  226.6932 H   0  0  0  0  0  0  0  0  0  0  0  0
  141.3298   70.9457  229.0800 H   0  0  0  0  0  0  0  0  0  0  0  0
  141.5330   72.3961  227.0834 H   0  0  0  0  0  0  0  0  0  0  0  0
  1  2  2  0
  2  3  1  0
  3  4  1  0
  4  5  1  0
  5  6  2  0
  5  7  1  0
  7  8  1  0
  8  9  1  0
  9 10  1  0
 10 11  1  0
 11 12  1  0
 10 13  1  0
  2 14  1  0
 14 15  2  0
 15 16  1  0
 16 17  2  0
 17 18  1  0
 18 19  2  0
 19 20  1  0
 19 21  1  0
 21 22  2  0
 22 23  1  0
 23 24  2  0
 13  7  1  0
 24 14  1  0
 23 17  1  0
  3 25  1  0
  4 26  1  0
  4 27  1  0
  8 28  1  0
  8 29  1  0
  9 30  1  0
  9 31  1  0
 10 32  1  1
 11 33  1  0
 11 34  1  0
 12 35  1  0
 13 36  1  0
 13 37  1  0
 15 38  1  0
 16 39  1  0
 18 40  1  0
 21 41  1  0
 22 42  1  0
M  END
>  <smiles>  (2) 
O=C(NCC(=O)N1CC[C@H](CO)C1)c1ccc2cc(F)ccc2n1

>  <score_type>  (2) 
oracle

>  <origin>  (2) 
autodockgpu

>  <m_score__min__energy>  (2) 
-7.7199999999999998

>  <m_primary>  (2) 
energy

>  <rmsd>  (2) 
1.9811671713103525

>  <m_score__min__rmsd>  (2) 
1.9811671713103525

>  <meeko>  (2) 
{"free_energy": -6.56, "intermolecular_energy": -8.35, "internal_energy": -0.79, "cluster_size": 29, "cluster_id": 1, "rank_in_cluster": 27}

>  <energy>  (2) 
-7.67

>  <cluster_rmsd>  (2) 
0.45

>  <cluster>  (2) 
1

$$$$

     RDKit          3D

 42 44  0  0  0  0  0  0  0  0999 V2000
  140.3340   71.7930  221.0290 O   0  0  0  0  0  0  0  0  0  0  0  0
  140.0730   72.2430  222.1790 C   0  0  0  0  0  0  0  0  0  0  0  0
  139.7660   73.6180  222.2910 N   0  0  0  0  0  0  0  0  0  0  0  0
  139.7680   74.4180  221.1000 C   0  0  0  0  0  0  0  0  0  0  0  0
  141.1020   75.0090  220.8160 C   0  0  0  0  0  0  0  0  0  0  0  0
  141.3970   76.2060  221.0590 O   0  0  0  0  0  0  0  0  0  0  0  0
  142.0940   74.1690  220.2370 N   0  0  0  0  0  0  0  0  0  0  0  0
  142.0480   73.7460  218.8500 C   0  0  0  0  0  0  0  0  0  0  0  0
  143.3860   73.0950  218.5730 C   0  0  0  0  0  0  0  0  0  0  0  0
  144.2490   73.6840  219.6690 C   0  0  2  0  0  0  0  0  0  0  0  0
  145.5000   72.8880  219.9090 C   0  0  0  0  0  0  0  0  0  0  0  0
  146.3240   73.0620  218.8180 O   0  0  0  0  0  0  0  0  0  0  0  0
  143.2710   73.5970  220.8480 C   0  0  0  0  0  0  0  0  0  0  0  0
  140.0760   71.4150  223.3790 C   0  0  0  0  0  0  0  0  0  0  0  0
  139.5790   70.1210  223.3240 C   0  0  0  0  0  0  0  0  0  0  0  0
  139.5550   69.2910  224.4220 C   0  0  0  0  0  0  0  0  0  0  0  0
  140.0480   69.7810  225.6220 C   0  0  0  0  0  0  0  0  0  0  0  0
  140.0680   69.0280  226.7820 C   0  0  0  0  0  0  0  0  0  0  0  0
  140.5740   69.5870  227.9310 C   0  0  0  0  0  0  0  0  0  0  0  0
  140.5850   68.8400  229.0510 F   0  0  0  0  0  0  0  0  0  0  0  0
  141.0650   70.8760  227.9720 C   0  0  0  0  0  0  0  0  0  0  0  0
  141.0380   71.6040  226.8190 C   0  0  0  0  0  0  0  0  0  0  0  0
  140.5340   71.0630  225.6550 C   0  0  0  0  0  0  0  0  0  0  0  0
  140.5490   71.8660  224.5590 N   0  0  0  0  0  0  0  0  0  0  0  0
  139.5390   74.0700  223.2040 H   0  0  0  0  0  0  0  0  0  0  0  0
  139.4735   73.7858  220.2494 H   0  0  0  0  0  0  0  0  0  0  0  0
  139.0599   75.2461  221.2513 H   0  0  0  0  0  0  0  0  0  0  0  0
  141.2319   73.0246  218.6964 H   0  0  0  0  0  0  0  0  0  0  0  0
  141.8625   74.5938  218.1741 H   0  0  0  0  0  0  0  0  0  0  0  0
  143.3238   72.0000  218.6569 H   0  0  0  0  0  0  0  0  0  0  0  0
  143.7687   73.2771  217.5579 H   0  0  0  0  0  0  0  0  0  0  0  0
  144.6359   74.6918  219.4579 H   0  0  0  0  0  0  0  0  0  0  0  0
  146.0031   73.2464  220.8192 H   0  0  0  0  0  0  0  0  0  0  0  0
  145.2589   71.8232  220.0433 H   0  0  0  0  0  0  0  0  0  0  0  0
  146.4000   74.0360  218.6050 H   0  0  0  0  0  0  0  0  0  0  0  0
  143.1030   72.5568  221.1637 H   0  0  0  0  0  0  0  0  0  0  0  0
  143.6068   74.0982  221.7678 H   0  0  0  0  0  0  0  0  0  0  0  0
  139.1894   69.7439  222.3669 H   0  0  0  0  0  0  0  0  0  0  0  0
  139.1562   68.2684  224.3496 H   0  0  0  0  0  0  0  0  0  0  0  0
  139.6846   67.9970  226.7848 H   0  0  0  0  0  0  0  0  0  0  0  0
  141.4650   71.3023  228.9038 H   0  0  0  0  0  0  0  0  0  0  0  0
  141.4227   72.6345  226.8176 H   0  0  0  0  0  0  0  0  0  0  0  0
  1  2  2  0
  2  3  1  0
  3  4  1  0
  4  5  1  0
  5  6  2  0
  5  7  1  0
  7  8  1  0
  8  9  1  0
  9 10  1  0
 10 11  1  0
 11 12  1  0
 10 13  1  0
  2 14  1  0
 14 15  2  0
 15 16  1  0
 16 17  2  0
 17 18  1  0
 18 19  2  0
 19 20  1  0
 19 21  1  0
 21 22  2  0
 22 23  1  0
 23 24  2  0
 13  7  1  0
 24 14  1  0
 23 17  1  0
  3 25  1  0
  4 26  1  0
  4 27  1  0
  8 28  1  0
  8 29  1  0
  9 30  1  0
  9 31  1  0
 10 32  1  6
 11 33  1  0
 11 34  1  0
 12 35  1  0
 13 36  1  0
 13 37  1  0
 15 38  1  0
 16 39  1  0
 18 40  1  0
 21 41  1  0
 22 42  1  0
M  END
>  <smiles>  (3) 
O=C(NCC(=O)N1CC[C@H](CO)C1)c1ccc2cc(F)ccc2n1

>  <score_type>  (3) 
oracle

>  <origin>  (3) 
autodockgpu

>  <m_score__min__energy>  (3) 
-7.7199999999999998

>  <m_primary>  (3) 
energy

>  <rmsd>  (3) 
3.178787006716373

>  <m_score__min__rmsd>  (3) 
3.178787006716373

>  <meeko>  (3) 
{"free_energy": -7.12, "intermolecular_energy": -8.91, "internal_energy": -1.06, "cluster_size": 29, "cluster_id": 1, "rank_in_cluster": 17}

>  <energy>  (3) 
-7.65

>  <cluster_rmsd>  (3) 
0.25

>  <cluster>  (3) 
1

$$$$

     RDKit          3D

 42 44  0  0  0  0  0  0  0  0999 V2000
  140.2370   72.9480  222.6250 O   0  0  0  0  0  0  0  0  0  0  0  0
  140.3240   71.7090  222.8500 C   0  0  0  0  0  0  0  0  0  0  0  0
  140.3230   70.8390  221.7360 N   0  0  0  0  0  0  0  0  0  0  0  0
  140.2250   71.4080  220.4230 C   0  0  0  0  0  0  0  0  0  0  0  0
  141.4770   71.2440  219.6390 C   0  0  0  0  0  0  0  0  0  0  0  0
  141.6650   70.3100  218.8190 O   0  0  0  0  0  0  0  0  0  0  0  0
  142.5130   72.1990  219.8300 N   0  0  0  0  0  0  0  0  0  0  0  0
  142.2650   73.5300  220.3490 C   0  0  0  0  0  0  0  0  0  0  0  0
  143.6280   74.1230  220.6360 C   0  0  0  0  0  0  0  0  0  0  0  0
  144.4870   72.8810  220.7480 C   0  0  2  0  0  0  0  0  0  0  0  0
  145.9510   73.1760  220.5890 C   0  0  0  0  0  0  0  0  0  0  0  0
  146.2570   73.0730  219.2500 O   0  0  0  0  0  0  0  0  0  0  0  0
  143.9290   72.0690  219.5720 C   0  0  0  0  0  0  0  0  0  0  0  0
  140.4230   71.1470  224.1910 C   0  0  0  0  0  0  0  0  0  0  0  0
  140.9820   71.9000  225.2140 C   0  0  0  0  0  0  0  0  0  0  0  0
  141.1030   71.4260  226.5000 C   0  0  0  0  0  0  0  0  0  0  0  0
  140.6460   70.1440  226.7700 C   0  0  0  0  0  0  0  0  0  0  0  0
  140.7220   69.5760  228.0280 C   0  0  0  0  0  0  0  0  0  0  0  0
  140.2460   68.2990  228.2130 C   0  0  0  0  0  0  0  0  0  0  0  0
  140.3290   67.7620  229.4440 F   0  0  0  0  0  0  0  0  0  0  0  0
  139.6930   67.5610  227.1870 C   0  0  0  0  0  0  0  0  0  0  0  0
  139.6260   68.1380  225.9530 C   0  0  0  0  0  0  0  0  0  0  0  0
  140.0970   69.4170  225.7450 C   0  0  0  0  0  0  0  0  0  0  0  0
  139.9870   69.9040  224.4820 N   0  0  0  0  0  0  0  0  0  0  0  0
  140.3910   69.8010  221.8340 H   0  0  0  0  0  0  0  0  0  0  0  0
  139.4035   70.9133  219.8841 H   0  0  0  0  0  0  0  0  0  0  0  0
  140.0403   72.4863  220.5379 H   0  0  0  0  0  0  0  0  0  0  0  0
  141.7321   74.1384  219.6034 H   0  0  0  0  0  0  0  0  0  0  0  0
  141.6382   73.5013  221.2525 H   0  0  0  0  0  0  0  0  0  0  0  0
  143.9648   74.7704  219.8129 H   0  0  0  0  0  0  0  0  0  0  0  0
  143.6558   74.7665  221.5277 H   0  0  0  0  0  0  0  0  0  0  0  0
  144.4418   72.3778  221.7251 H   0  0  0  0  0  0  0  0  0  0  0  0
  146.1688   74.1935  220.9457 H   0  0  0  0  0  0  0  0  0  0  0  0
  146.5525   72.4670  221.1768 H   0  0  0  0  0  0  0  0  0  0  0  0
  146.3320   73.9870  218.8500 H   0  0  0  0  0  0  0  0  0  0  0  0
  144.2098   72.5074  218.6030 H   0  0  0  0  0  0  0  0  0  0  0  0
  144.2960   71.0341  219.5068 H   0  0  0  0  0  0  0  0  0  0  0  0
  141.3421   72.9146  224.9881 H   0  0  0  0  0  0  0  0  0  0  0  0
  141.5494   72.0458  227.2916 H   0  0  0  0  0  0  0  0  0  0  0  0
  141.1567   70.1370  228.8685 H   0  0  0  0  0  0  0  0  0  0  0  0
  139.3185   66.5410  227.3585 H   0  0  0  0  0  0  0  0  0  0  0  0
  139.1909   67.5761  225.1134 H   0  0  0  0  0  0  0  0  0  0  0  0
  1  2  2  0
  2  3  1  0
  3  4  1  0
  4  5  1  0
  5  6  2  0
  5  7  1  0
  7  8  1  0
  8  9  1  0
  9 10  1  0
 10 11  1  0
 11 12  1  0
 10 13  1  0
  2 14  1  0
 14 15  2  0
 15 16  1  0
 16 17  2  0
 17 18  1  0
 18 19  2  0
 19 20  1  0
 19 21  1  0
 21 22  2  0
 22 23  1  0
 23 24  2  0
 13  7  1  0
 24 14  1  0
 23 17  1  0
  3 25  1  0
  4 26  1  0
  4 27  1  0
  8 28  1  0
  8 29  1  0
  9 30  1  0
  9 31  1  0
 10 32  1  1
 11 33  1  0
 11 34  1  0
 12 35  1  0
 13 36  1  0
 13 37  1  0
 15 38  1  0
 16 39  1  0
 18 40  1  0
 21 41  1  0
 22 42  1  0
M  END
>  <smiles>  (4) 
O=C(NCC(=O)N1CC[C@H](CO)C1)c1ccc2cc(F)ccc2n1

>  <score_type>  (4) 
oracle

>  <origin>  (4) 
autodockgpu

>  <m_score__min__energy>  (4) 
-7.7199999999999998

>  <m_primary>  (4) 
energy

>  <rmsd>  (4) 
4.327891101669032

>  <m_score__min__rmsd>  (4) 
4.327891101669032

>  <meeko>  (4) 
{"free_energy": -7.07, "intermolecular_energy": -8.86, "internal_energy": -1.08, "cluster_size": 29, "cluster_id": 1, "rank_in_cluster": 19}

>  <energy>  (4) 
-7.64

>  <cluster_rmsd>  (4) 
0.69

>  <cluster>  (4) 
1

$$$$

     RDKit          3D

 42 44  0  0  0  0  0  0  0  0999 V2000
  140.7190   71.2550  221.4000 O   0  0  0  0  0  0  0  0  0  0  0  0
  140.1880   71.7130  222.4500 C   0  0  0  0  0  0  0  0  0  0  0  0
  139.7170   73.0440  222.4200 N   0  0  0  0  0  0  0  0  0  0  0  0
  139.8680   73.7970  221.2080 C   0  0  0  0  0  0  0  0  0  0  0  0
  140.9600   74.8010  221.2950 C   0  0  0  0  0  0  0  0  0  0  0  0
  141.0530   75.6460  222.2210 O   0  0  0  0  0  0  0  0  0  0  0  0
  141.9500   74.8010  220.2740 N   0  0  0  0  0  0  0  0  0  0  0  0
  142.5370   76.0220  219.7540 C   0  0  0  0  0  0  0  0  0  0  0  0
  143.7010   75.5850  218.8900 C   0  0  0  0  0  0  0  0  0  0  0  0
  143.9810   74.1970  219.4280 C   0  0  2  0  0  0  0  0  0  0  0  0
  144.7850   73.3600  218.4760 C   0  0  0  0  0  0  0  0  0  0  0  0
  146.0530   73.2290  219.0000 O   0  0  0  0  0  0  0  0  0  0  0  0
  142.5440   73.6800  219.5810 C   0  0  0  0  0  0  0  0  0  0  0  0
  140.0440   70.9340  223.6740 C   0  0  0  0  0  0  0  0  0  0  0  0
  139.4120   69.6990  223.6350 C   0  0  0  0  0  0  0  0  0  0  0  0
  139.2450   68.9180  224.7560 C   0  0  0  0  0  0  0  0  0  0  0  0
  139.7310   69.3970  225.9630 C   0  0  0  0  0  0  0  0  0  0  0  0
  139.6130   68.6890  227.1460 C   0  0  0  0  0  0  0  0  0  0  0  0
  140.1210   69.2330  228.3020 C   0  0  0  0  0  0  0  0  0  0  0  0
  139.9970   68.5310  229.4430 F   0  0  0  0  0  0  0  0  0  0  0  0
  140.7470   70.4630  228.3270 C   0  0  0  0  0  0  0  0  0  0  0  0
  140.8540   71.1460  227.1510 C   0  0  0  0  0  0  0  0  0  0  0  0
  140.3510   70.6190  225.9800 C   0  0  0  0  0  0  0  0  0  0  0  0
  140.5060   71.3750  224.8620 N   0  0  0  0  0  0  0  0  0  0  0  0
  139.2660   73.4990  223.2450 H   0  0  0  0  0  0  0  0  0  0  0  0
  140.0928   73.1014  220.3861 H   0  0  0  0  0  0  0  0  0  0  0  0
  138.9276   74.3399  221.0321 H   0  0  0  0  0  0  0  0  0  0  0  0
  141.8004   76.5753  219.1529 H   0  0  0  0  0  0  0  0  0  0  0  0
  142.8629   76.6913  220.5639 H   0  0  0  0  0  0  0  0  0  0  0  0
  143.4211   75.5536  217.8267 H   0  0  0  0  0  0  0  0  0  0  0  0
  144.5666   76.2625  218.9322 H   0  0  0  0  0  0  0  0  0  0  0  0
  144.5856   74.1744  220.3467 H   0  0  0  0  0  0  0  0  0  0  0  0
  144.3212   72.3687  218.3654 H   0  0  0  0  0  0  0  0  0  0  0  0
  144.8253   73.8357  217.4850 H   0  0  0  0  0  0  0  0  0  0  0  0
  146.4980   74.1240  219.0340 H   0  0  0  0  0  0  0  0  0  0  0  0
  142.0672   73.5031  218.6056 H   0  0  0  0  0  0  0  0  0  0  0  0
  142.4506   72.7127  220.0964 H   0  0  0  0  0  0  0  0  0  0  0  0
  139.0300   69.3303  222.6716 H   0  0  0  0  0  0  0  0  0  0  0  0
  138.7407   67.9423  224.6961 H   0  0  0  0  0  0  0  0  0  0  0  0
  139.1202   67.7057  227.1613 H   0  0  0  0  0  0  0  0  0  0  0  0
  141.1462   70.8786  229.2640 H   0  0  0  0  0  0  0  0  0  0  0  0
  141.3475   72.1290  227.1365 H   0  0  0  0  0  0  0  0  0  0  0  0
  1  2  2  0
  2  3  1  0
  3  4  1  0
  4  5  1  0
  5  6  2  0
  5  7  1  0
  7  8  1  0
  8  9  1  0
  9 10  1  0
 10 11  1  0
 11 12  1  0
 10 13  1  0
  2 14  1  0
 14 15  2  0
 15 16  1  0
 16 17  2  0
 17 18  1  0
 18 19  2  0
 19 20  1  0
 19 21  1  0
 21 22  2  0
 22 23  1  0
 23 24  2  0
 13  7  1  0
 24 14  1  0
 23 17  1  0
  3 25  1  0
  4 26  1  0
  4 27  1  0
  8 28  1  0
  8 29  1  0
  9 30  1  0
  9 31  1  0
 10 32  1  1
 11 33  1  0
 11 34  1  0
 12 35  1  0
 13 36  1  0
 13 37  1  0
 15 38  1  0
 16 39  1  0
 18 40  1  0
 21 41  1  0
 22 42  1  0
M  END
>  <smiles>  (5) 
O=C(NCC(=O)N1CC[C@H](CO)C1)c1ccc2cc(F)ccc2n1

>  <score_type>  (5) 
oracle

>  <origin>  (5) 
autodockgpu

>  <m_score__min__energy>  (5) 
-7.7199999999999998

>  <m_primary>  (5) 
energy

>  <rmsd>  (5) 
2.623880338366418

>  <m_score__min__rmsd>  (5) 
2.623880338366418

>  <meeko>  (5) 
{"free_energy": -7.3, "intermolecular_energy": -9.09, "internal_energy": -0.88, "cluster_size": 29, "cluster_id": 1, "rank_in_cluster": 12}

>  <energy>  (5) 
-7.61

>  <cluster_rmsd>  (5) 
0.27

>  <cluster>  (5) 
1

$$$$

     RDKit          3D

 42 44  0  0  0  0  0  0  0  0999 V2000
  140.8470   71.6050  221.1970 O   0  0  0  0  0  0  0  0  0  0  0  0
  140.3630   72.0310  222.2820 C   0  0  0  0  0  0  0  0  0  0  0  0
  139.9800   73.3890  222.3410 N   0  0  0  0  0  0  0  0  0  0  0  0
  140.1600   74.2020  221.1730 C   0  0  0  0  0  0  0  0  0  0  0  0
  140.1930   75.6540  221.4920 C   0  0  0  0  0  0  0  0  0  0  0  0
  139.9510   76.1190  222.6340 O   0  0  0  0  0  0  0  0  0  0  0  0
  140.5160   76.5600  220.4450 N   0  0  0  0  0  0  0  0  0  0  0  0
  139.9090   77.8730  220.3310 C   0  0  0  0  0  0  0  0  0  0  0  0
  140.6940   78.6000  219.2610 C   0  0  0  0  0  0  0  0  0  0  0  0
  141.9930   77.8220  219.2480 C   0  0  2  0  0  0  0  0  0  0  0  0
  142.7840   78.0380  217.9900 C   0  0  0  0  0  0  0  0  0  0  0  0
  142.9670   79.3950  217.8370 O   0  0  0  0  0  0  0  0  0  0  0  0
  141.4440   76.3920  219.3490 C   0  0  0  0  0  0  0  0  0  0  0  0
  140.1870   71.1900  223.4600 C   0  0  0  0  0  0  0  0  0  0  0  0
  139.5300   69.9740  223.3470 C   0  0  0  0  0  0  0  0  0  0  0  0
  139.3330   69.1370  224.4220 C   0  0  0  0  0  0  0  0  0  0  0  0
  139.8140   69.5380  225.6590 C   0  0  0  0  0  0  0  0  0  0  0  0
  139.6670   68.7700  226.8000 C   0  0  0  0  0  0  0  0  0  0  0  0
  140.1730   69.2390  227.9890 C   0  0  0  0  0  0  0  0  0  0  0  0
  140.0200   68.4790  229.0890 F   0  0  0  0  0  0  0  0  0  0  0  0
  140.8250   70.4520  228.0880 C   0  0  0  0  0  0  0  0  0  0  0  0
  140.9610   71.1950  226.9530 C   0  0  0  0  0  0  0  0  0  0  0  0
  140.4610   70.7440  225.7490 C   0  0  0  0  0  0  0  0  0  0  0  0
  140.6450   71.5550  224.6760 N   0  0  0  0  0  0  0  0  0  0  0  0
  139.5720   73.8210  223.2010 H   0  0  0  0  0  0  0  0  0  0  0  0
  141.1097   73.9243  220.6924 H   0  0  0  0  0  0  0  0  0  0  0  0
  139.3034   74.0248  220.5060 H   0  0  0  0  0  0  0  0  0  0  0  0
  138.8531   77.7823  220.0361 H   0  0  0  0  0  0  0  0  0  0  0  0
  139.9333   78.4142  221.2883 H   0  0  0  0  0  0  0  0  0  0  0  0
  140.1862   78.5480  218.2866 H   0  0  0  0  0  0  0  0  0  0  0  0
  140.8206   79.6754  219.4544 H   0  0  0  0  0  0  0  0  0  0  0  0
  142.7050   78.1052  220.0372 H   0  0  0  0  0  0  0  0  0  0  0  0
  143.7591   77.5353  218.0698 H   0  0  0  0  0  0  0  0  0  0  0  0
  142.2499   77.6215  217.1232 H   0  0  0  0  0  0  0  0  0  0  0  0
  143.7010   79.5640  217.1790 H   0  0  0  0  0  0  0  0  0  0  0  0
  140.9335   76.0838  218.4246 H   0  0  0  0  0  0  0  0  0  0  0  0
  142.2046   75.6118  219.4995 H   0  0  0  0  0  0  0  0  0  0  0  0
  139.1519   69.6666  222.3608 H   0  0  0  0  0  0  0  0  0  0  0  0
  138.8088   68.1773  224.3030 H   0  0  0  0  0  0  0  0  0  0  0  0
  139.1529   67.7985  226.7566 H   0  0  0  0  0  0  0  0  0  0  0  0
  141.2215   70.8071  229.0506 H   0  0  0  0  0  0  0  0  0  0  0  0
  141.4758   72.1661  226.9979 H   0  0  0  0  0  0  0  0  0  0  0  0
  1  2  2  0
  2  3  1  0
  3  4  1  0
  4  5  1  0
  5  6  2  0
  5  7  1  0
  7  8  1  0
  8  9  1  0
  9 10  1  0
 10 11  1  0
 11 12  1  0
 10 13  1  0
  2 14  1  0
 14 15  2  0
 15 16  1  0
 16 17  2  0
 17 18  1  0
 18 19  2  0
 19 20  1  0
 19 21  1  0
 21 22  2  0
 22 23  1  0
 23 24  2  0
 13  7  1  0
 24 14  1  0
 23 17  1  0
  3 25  1  0
  4 26  1  0
  4 27  1  0
  8 28  1  0
  8 29  1  0
  9 30  1  0
  9 31  1  0
 10 32  1  1
 11 33  1  0
 11 34  1  0
 12 35  1  0
 13 36  1  0
 13 37  1  0
 15 38  1  0
 16 39  1  0
 18 40  1  0
 21 41  1  0
 22 42  1  0
M  END
>  <smiles>  (6) 
O=C(NCC(=O)N1CC[C@H](CO)C1)c1ccc2cc(F)ccc2n1

>  <score_type>  (6) 
oracle

>  <origin>  (6) 
autodockgpu

>  <m_score__min__energy>  (6) 
-7.7199999999999998

>  <m_primary>  (6) 
energy

>  <rmsd>  (6) 
2.177716303252819

>  <m_score__min__rmsd>  (6) 
2.177716303252819

>  <meeko>  (6) 
{"free_energy": -6.54, "intermolecular_energy": -8.33, "internal_energy": -1.08, "cluster_size": 12, "cluster_id": 2, "rank_in_cluster": 12}

>  <energy>  (6) 
-7.51

>  <cluster_rmsd>  (6) 
0.65

>  <cluster>  (6) 
1

$$$$

     RDKit          3D

 42 44  0  0  0  0  0  0  0  0999 V2000
  140.8750   71.6480  221.2670 O   0  0  0  0  0  0  0  0  0  0  0  0
  140.3800   72.0400  222.3600 C   0  0  0  0  0  0  0  0  0  0  0  0
  139.9570   73.3860  222.4430 N   0  0  0  0  0  0  0  0  0  0  0  0
  140.1120   74.2240  221.2900 C   0  0  0  0  0  0  0  0  0  0  0  0
  140.0780   75.6710  221.6310 C   0  0  0  0  0  0  0  0  0  0  0  0
  139.5870   76.1210  222.6970 O   0  0  0  0  0  0  0  0  0  0  0  0
  140.6320   76.5900  220.6980 N   0  0  0  0  0  0  0  0  0  0  0  0
  140.7340   78.0120  220.9680 C   0  0  0  0  0  0  0  0  0  0  0  0
  141.5940   78.5820  219.8590 C   0  0  0  0  0  0  0  0  0  0  0  0
  142.3260   77.3490  219.3720 C   0  0  2  0  0  0  0  0  0  0  0  0
  142.9100   77.5290  218.0000 C   0  0  0  0  0  0  0  0  0  0  0  0
  142.9290   78.8790  217.7260 O   0  0  0  0  0  0  0  0  0  0  0  0
  141.1730   76.3370  219.3820 C   0  0  0  0  0  0  0  0  0  0  0  0
  140.2300   71.1740  223.5230 C   0  0  0  0  0  0  0  0  0  0  0  0
  139.5790   69.9550  223.3960 C   0  0  0  0  0  0  0  0  0  0  0  0
  139.4070   69.0950  224.4560 C   0  0  0  0  0  0  0  0  0  0  0  0
  139.9050   69.4740  225.6930 C   0  0  0  0  0  0  0  0  0  0  0  0
  139.7830   68.6810  226.8200 C   0  0  0  0  0  0  0  0  0  0  0  0
  140.3050   69.1300  228.0100 C   0  0  0  0  0  0  0  0  0  0  0  0
  140.1760   68.3460  229.0970 F   0  0  0  0  0  0  0  0  0  0  0  0
  140.9490   70.3460  228.1240 C   0  0  0  0  0  0  0  0  0  0  0  0
  141.0610   71.1130  227.0020 C   0  0  0  0  0  0  0  0  0  0  0  0
  140.5440   70.6830  225.7980 C   0  0  0  0  0  0  0  0  0  0  0  0
  140.7040   71.5180  224.7380 N   0  0  0  0  0  0  0  0  0  0  0  0
  139.5370   73.7900  223.3100 H   0  0  0  0  0  0  0  0  0  0  0  0
  141.0775   73.9958  220.8149 H   0  0  0  0  0  0  0  0  0  0  0  0
  139.2703   74.0198  220.6119 H   0  0  0  0  0  0  0  0  0  0  0  0
  139.7369   78.4765  220.9567 H   0  0  0  0  0  0  0  0  0  0  0  0
  141.1705   78.2056  221.9590 H   0  0  0  0  0  0  0  0  0  0  0  0
  140.9786   79.0239  219.0615 H   0  0  0  0  0  0  0  0  0  0  0  0
  142.2586   79.3962  220.1836 H   0  0  0  0  0  0  0  0  0  0  0  0
  143.2001   77.0655  219.9767 H   0  0  0  0  0  0  0  0  0  0  0  0
  143.9335   77.1269  217.9729 H   0  0  0  0  0  0  0  0  0  0  0  0
  142.3077   76.9928  217.2518 H   0  0  0  0  0  0  0  0  0  0  0  0
  143.6760   79.0850  217.0940 H   0  0  0  0  0  0  0  0  0  0  0  0
  140.4382   76.5468  218.5908 H   0  0  0  0  0  0  0  0  0  0  0  0
  141.4687   75.2943  219.1941 H   0  0  0  0  0  0  0  0  0  0  0  0
  139.1856   69.6654  222.4104 H   0  0  0  0  0  0  0  0  0  0  0  0
  138.8888   68.1335  224.3256 H   0  0  0  0  0  0  0  0  0  0  0  0
  139.2762   67.7063  226.7649 H   0  0  0  0  0  0  0  0  0  0  0  0
  141.3579   70.6847  229.0874 H   0  0  0  0  0  0  0  0  0  0  0  0
  141.5700   72.0866  227.0580 H   0  0  0  0  0  0  0  0  0  0  0  0
  1  2  2  0
  2  3  1  0
  3  4  1  0
  4  5  1  0
  5  6  2  0
  5  7  1  0
  7  8  1  0
  8  9  1  0
  9 10  1  0
 10 11  1  0
 11 12  1  0
 10 13  1  0
  2 14  1  0
 14 15  2  0
 15 16  1  0
 16 17  2  0
 17 18  1  0
 18 19  2  0
 19 20  1  0
 19 21  1  0
 21 22  2  0
 22 23  1  0
 23 24  2  0
 13  7  1  0
 24 14  1  0
 23 17  1  0
  3 25  1  0
  4 26  1  0
  4 27  1  0
  8 28  1  0
  8 29  1  0
  9 30  1  0
  9 31  1  0
 10 32  1  1
 11 33  1  0
 11 34  1  0
 12 35  1  0
 13 36  1  0
 13 37  1  0
 15 38  1  0
 16 39  1  0
 18 40  1  0
 21 41  1  0
 22 42  1  0
M  END
>  <smiles>  (7) 
O=C(NCC(=O)N1CC[C@H](CO)C1)c1ccc2cc(F)ccc2n1

>  <score_type>  (7) 
oracle

>  <origin>  (7) 
autodockgpu

>  <m_score__min__energy>  (7) 
-7.7199999999999998

>  <m_primary>  (7) 
energy

>  <rmsd>  (7) 
2.1149480968771686

>  <m_score__min__rmsd>  (7) 
2.1149480968771686

>  <meeko>  (7) 
{"free_energy": -6.7, "intermolecular_energy": -8.49, "internal_energy": -1.07, "cluster_size": 12, "cluster_id": 2, "rank_in_cluster": 10}

>  <energy>  (7) 
-7.49

>  <cluster_rmsd>  (7) 
0.67

>  <cluster>  (7) 
1

$$$$

     RDKit          3D

 42 44  0  0  0  0  0  0  0  0999 V2000
  139.7830   70.2660  221.7630 O   0  0  0  0  0  0  0  0  0  0  0  0
  139.4840   71.3760  222.2850 C   0  0  0  0  0  0  0  0  0  0  0  0
  138.5250   71.3760  223.3210 N   0  0  0  0  0  0  0  0  0  0  0  0
  137.9490   70.1240  223.7210 C   0  0  0  0  0  0  0  0  0  0  0  0
  138.8770   69.3110  224.5490 C   0  0  0  0  0  0  0  0  0  0  0  0
  138.8980   68.0540  224.5370 O   0  0  0  0  0  0  0  0  0  0  0  0
  139.7880   69.9960  225.3990 N   0  0  0  0  0  0  0  0  0  0  0  0
  140.8980   70.7780  224.8870 C   0  0  0  0  0  0  0  0  0  0  0  0
  141.4530   71.5340  226.0750 C   0  0  0  0  0  0  0  0  0  0  0  0
  140.2780   71.5130  227.0310 C   0  0  2  0  0  0  0  0  0  0  0  0
  140.6830   71.7990  228.4490 C   0  0  0  0  0  0  0  0  0  0  0  0
  139.5670   72.2490  229.1210 O   0  0  0  0  0  0  0  0  0  0  0  0
  139.8130   70.0630  226.8420 C   0  0  0  0  0  0  0  0  0  0  0  0
  140.0790   72.6390  221.8660 C   0  0  0  0  0  0  0  0  0  0  0  0
  141.1280   72.6390  220.9580 C   0  0  0  0  0  0  0  0  0  0  0  0
  141.7310   73.7990  220.5250 C   0  0  0  0  0  0  0  0  0  0  0  0
  141.2630   75.0040  221.0240 C   0  0  0  0  0  0  0  0  0  0  0  0
  141.8000   76.2230  220.6530 C   0  0  0  0  0  0  0  0  0  0  0  0
  141.2780   77.3750  221.1940 C   0  0  0  0  0  0  0  0  0  0  0  0
  141.8140   78.5520  220.8210 F   0  0  0  0  0  0  0  0  0  0  0  0
  140.2350   77.3600  222.0970 C   0  0  0  0  0  0  0  0  0  0  0  0
  139.7170   76.1490  222.4510 C   0  0  0  0  0  0  0  0  0  0  0  0
  140.2250   74.9820  221.9210 C   0  0  0  0  0  0  0  0  0  0  0  0
  139.6440   73.8260  222.3360 N   0  0  0  0  0  0  0  0  0  0  0  0
  138.2210   72.2500  223.8060 H   0  0  0  0  0  0  0  0  0  0  0  0
  137.0386   70.3247  224.3049 H   0  0  0  0  0  0  0  0  0  0  0  0
  137.7254   69.5516  222.8087 H   0  0  0  0  0  0  0  0  0  0  0  0
  141.6671   70.1175  224.4601 H   0  0  0  0  0  0  0  0  0  0  0  0
  140.5768   71.4610  224.0868 H   0  0  0  0  0  0  0  0  0  0  0  0
  142.3271   71.0216  226.5032 H   0  0  0  0  0  0  0  0  0  0  0  0
  141.8119   72.5450  225.8319 H   0  0  0  0  0  0  0  0  0  0  0  0
  139.5119   72.2776  226.8352 H   0  0  0  0  0  0  0  0  0  0  0  0
  141.0610   70.8812  228.9230 H   0  0  0  0  0  0  0  0  0  0  0  0
  141.4806   72.5560  228.4766 H   0  0  0  0  0  0  0  0  0  0  0  0
  139.5300   73.2480  229.0820 H   0  0  0  0  0  0  0  0  0  0  0  0
  140.5273   69.3455  227.2720 H   0  0  0  0  0  0  0  0  0  0  0  0
  138.8620   69.8125  227.3349 H   0  0  0  0  0  0  0  0  0  0  0  0
  141.4917   71.6764  220.5693 H   0  0  0  0  0  0  0  0  0  0  0  0
  142.5607   73.7698  219.8034 H   0  0  0  0  0  0  0  0  0  0  0  0
  142.6325   76.2708  219.9357 H   0  0  0  0  0  0  0  0  0  0  0  0
  139.8344   78.2941  222.5176 H   0  0  0  0  0  0  0  0  0  0  0  0
  138.8840   76.1028  223.1679 H   0  0  0  0  0  0  0  0  0  0  0  0
  1  2  2  0
  2  3  1  0
  3  4  1  0
  4  5  1  0
  5  6  2  0
  5  7  1  0
  7  8  1  0
  8  9  1  0
  9 10  1  0
 10 11  1  0
 11 12  1  0
 10 13  1  0
  2 14  1  0
 14 15  2  0
 15 16  1  0
 16 17  2  0
 17 18  1  0
 18 19  2  0
 19 20  1  0
 19 21  1  0
 21 22  2  0
 22 23  1  0
 23 24  2  0
 13  7  1  0
 24 14  1  0
 23 17  1  0
  3 25  1  0
  4 26  1  0
  4 27  1  0
  8 28  1  0
  8 29  1  0
  9 30  1  0
  9 31  1  0
 10 32  1  6
 11 33  1  0
 11 34  1  0
 12 35  1  0
 13 36  1  0
 13 37  1  0
 15 38  1  0
 16 39  1  0
 18 40  1  0
 21 41  1  0
 22 42  1  0
M  END
>  <smiles>  (8) 
O=C(NCC(=O)N1CC[C@H](CO)C1)c1ccc2cc(F)ccc2n1

>  <score_type>  (8) 
oracle

>  <origin>  (8) 
autodockgpu

>  <m_score__min__energy>  (8) 
-7.7199999999999998

>  <m_primary>  (8) 
energy

>  <rmsd>  (8) 
8.348364258645395

>  <m_score__min__rmsd>  (8) 
8.348364258645395

>  <meeko>  (8) 
{"free_energy": -6.51, "intermolecular_energy": -8.3, "internal_energy": -1.12, "cluster_size": 1, "cluster_id": 6, "rank_in_cluster": 1}

>  <energy>  (8) 
-7.48

>  <cluster_rmsd>  (8) 
1.0

>  <cluster>  (8) 
1

$$$$

     RDKit          3D

 42 44  0  0  0  0  0  0  0  0999 V2000
  140.9660   72.0920  221.4270 O   0  0  0  0  0  0  0  0  0  0  0  0
  140.1710   72.2690  222.3910 C   0  0  0  0  0  0  0  0  0  0  0  0
  139.3000   73.3800  222.3270 N   0  0  0  0  0  0  0  0  0  0  0  0
  139.3670   74.2370  221.1790 C   0  0  0  0  0  0  0  0  0  0  0  0
  140.3070   75.3720  221.3730 C   0  0  0  0  0  0  0  0  0  0  0  0
  140.3510   76.0660  222.4200 O   0  0  0  0  0  0  0  0  0  0  0  0
  141.2020   75.6860  220.3130 N   0  0  0  0  0  0  0  0  0  0  0  0
  141.8930   76.9590  220.2230 C   0  0  0  0  0  0  0  0  0  0  0  0
  142.9190   76.7950  219.1220 C   0  0  0  0  0  0  0  0  0  0  0  0
  143.0660   75.2890  219.0590 C   0  0  2  0  0  0  0  0  0  0  0  0
  143.6800   74.8230  217.7700 C   0  0  0  0  0  0  0  0  0  0  0  0
  144.0510   75.9410  217.0540 O   0  0  0  0  0  0  0  0  0  0  0  0
  141.5940   74.8760  219.1820 C   0  0  0  0  0  0  0  0  0  0  0  0
  140.1160   71.3880  223.5510 C   0  0  0  0  0  0  0  0  0  0  0  0
  139.5330   70.1340  223.4370 C   0  0  0  0  0  0  0  0  0  0  0  0
  139.4510   69.2580  224.4950 C   0  0  0  0  0  0  0  0  0  0  0  0
  139.9740   69.6570  225.7160 C   0  0  0  0  0  0  0  0  0  0  0  0
  139.9410   68.8510  226.8390 C   0  0  0  0  0  0  0  0  0  0  0  0
  140.4810   69.3220  228.0130 C   0  0  0  0  0  0  0  0  0  0  0  0
  140.4400   68.5240  229.0970 F   0  0  0  0  0  0  0  0  0  0  0  0
  141.0570   70.5720  228.1140 C   0  0  0  0  0  0  0  0  0  0  0  0
  141.0810   71.3520  226.9950 C   0  0  0  0  0  0  0  0  0  0  0  0
  140.5450   70.9010  225.8070 C   0  0  0  0  0  0  0  0  0  0  0  0
  140.6150   71.7510  224.7500 N   0  0  0  0  0  0  0  0  0  0  0  0
  138.6120   73.5990  223.0820 H   0  0  0  0  0  0  0  0  0  0  0  0
  139.7022   73.6445  220.3150 H   0  0  0  0  0  0  0  0  0  0  0  0
  138.3636   74.6569  221.0150 H   0  0  0  0  0  0  0  0  0  0  0  0
  141.1850   77.7620  219.9702 H   0  0  0  0  0  0  0  0  0  0  0  0
  142.3649   77.2317  221.1785 H   0  0  0  0  0  0  0  0  0  0  0  0
  142.5519   77.2020  218.1683 H   0  0  0  0  0  0  0  0  0  0  0  0
  143.8630   77.3277  219.3092 H   0  0  0  0  0  0  0  0  0  0  0  0
  143.7352   74.8605  219.8196 H   0  0  0  0  0  0  0  0  0  0  0  0
  144.5634   74.2018  217.9789 H   0  0  0  0  0  0  0  0  0  0  0  0
  142.9608   74.2196  217.1967 H   0  0  0  0  0  0  0  0  0  0  0  0
  145.0440   76.0540  217.0960 H   0  0  0  0  0  0  0  0  0  0  0  0
  141.0211   75.1314  218.2784 H   0  0  0  0  0  0  0  0  0  0  0  0
  141.4235   73.7961  219.3032 H   0  0  0  0  0  0  0  0  0  0  0  0
  139.1208   69.8286  222.4640 H   0  0  0  0  0  0  0  0  0  0  0  0
  138.9839   68.2693  224.3757 H   0  0  0  0  0  0  0  0  0  0  0  0
  139.4899   67.8487  226.7942 H   0  0  0  0  0  0  0  0  0  0  0  0
  141.4822   70.9273  229.0642 H   0  0  0  0  0  0  0  0  0  0  0  0
  141.5337   72.3535  227.0409 H   0  0  0  0  0  0  0  0  0  0  0  0
  1  2  2  0
  2  3  1  0
  3  4  1  0
  4  5  1  0
  5  6  2  0
  5  7  1  0
  7  8  1  0
  8  9  1  0
  9 10  1  0
 10 11  1  0
 11 12  1  0
 10 13  1  0
  2 14  1  0
 14 15  2  0
 15 16  1  0
 16 17  2  0
 17 18  1  0
 18 19  2  0
 19 20  1  0
 19 21  1  0
 21 22  2  0
 22 23  1  0
 23 24  2  0
 13  7  1  0
 24 14  1  0
 23 17  1  0
  3 25  1  0
  4 26  1  0
  4 27  1  0
  8 28  1  0
  8 29  1  0
  9 30  1  0
  9 31  1  0
 10 32  1  1
 11 33  1  0
 11 34  1  0
 12 35  1  0
 13 36  1  0
 13 37  1  0
 15 38  1  0
 16 39  1  0
 18 40  1  0
 21 41  1  0
 22 42  1  0
M  END
>  <smiles>  (9) 
O=C(NCC(=O)N1CC[C@H](CO)C1)c1ccc2cc(F)ccc2n1

>  <score_type>  (9) 
oracle

>  <origin>  (9) 
autodockgpu

>  <m_score__min__energy>  (9) 
-7.7199999999999998

>  <m_primary>  (9) 
energy

>  <rmsd>  (9) 
1.8776469016147397

>  <m_score__min__rmsd>  (9) 
1.8776469016147397

>  <meeko>  (9) 
{"free_energy": -6.67, "intermolecular_energy": -8.46, "internal_energy": -0.86, "cluster_size": 29, "cluster_id": 1, "rank_in_cluster": 25}

>  <energy>  (9) 
-7.43

>  <cluster_rmsd>  (9) 
1.05

>  <cluster>  (9) 
1

$$$$

     RDKit          3D

 42 44  0  0  0  0  0  0  0  0999 V2000
  141.2910   71.8860  221.6800 O   0  0  0  0  0  0  0  0  0  0  0  0
  140.4030   72.0860  222.5540 C   0  0  0  0  0  0  0  0  0  0  0  0
  139.5570   73.2050  222.3850 N   0  0  0  0  0  0  0  0  0  0  0  0
  139.7520   74.0440  221.2380 C   0  0  0  0  0  0  0  0  0  0  0  0
  140.9450   74.9210  221.3730 C   0  0  0  0  0  0  0  0  0  0  0  0
  141.1040   75.7350  222.3170 O   0  0  0  0  0  0  0  0  0  0  0  0
  141.9560   74.8310  220.3770 N   0  0  0  0  0  0  0  0  0  0  0  0
  142.5010   75.9970  219.7070 C   0  0  0  0  0  0  0  0  0  0  0  0
  143.7010   75.5030  218.9290 C   0  0  0  0  0  0  0  0  0  0  0  0
  144.0300   74.2140  219.6540 C   0  0  2  0  0  0  0  0  0  0  0  0
  144.8920   73.2950  218.8350 C   0  0  0  0  0  0  0  0  0  0  0  0
  146.1790   73.3870  219.3190 O   0  0  0  0  0  0  0  0  0  0  0  0
  142.6140   73.6560  219.8510 C   0  0  0  0  0  0  0  0  0  0  0  0
  140.2190   71.2240  223.7150 C   0  0  0  0  0  0  0  0  0  0  0  0
  139.5170   70.0350  223.5850 C   0  0  0  0  0  0  0  0  0  0  0  0
  139.3090   69.1790  224.6440 C   0  0  0  0  0  0  0  0  0  0  0  0
  139.8260   69.5330  225.8810 C   0  0  0  0  0  0  0  0  0  0  0  0
  139.6730   68.7430  227.0050 C   0  0  0  0  0  0  0  0  0  0  0  0
  140.2160   69.1650  228.1960 C   0  0  0  0  0  0  0  0  0  0  0  0
  140.0560   68.3840  229.2800 F   0  0  0  0  0  0  0  0  0  0  0  0
  140.9120   70.3510  228.3120 C   0  0  0  0  0  0  0  0  0  0  0  0
  141.0540   71.1170  227.1920 C   0  0  0  0  0  0  0  0  0  0  0  0
  140.5170   70.7120  225.9870 C   0  0  0  0  0  0  0  0  0  0  0  0
  140.7100   71.5430  224.9300 N   0  0  0  0  0  0  0  0  0  0  0  0
  138.7980   73.4430  223.0620 H   0  0  0  0  0  0  0  0  0  0  0  0
  139.8813   73.4058  220.3515 H   0  0  0  0  0  0  0  0  0  0  0  0
  138.8684   74.6923  221.1428 H   0  0  0  0  0  0  0  0  0  0  0  0
  141.7546   76.4306  219.0251 H   0  0  0  0  0  0  0  0  0  0  0  0
  142.7797   76.7826  220.4247 H   0  0  0  0  0  0  0  0  0  0  0  0
  143.4462   75.3163  217.8753 H   0  0  0  0  0  0  0  0  0  0  0  0
  144.5348   76.2196  218.8930 H   0  0  0  0  0  0  0  0  0  0  0  0
  144.6140   74.3422  220.5773 H   0  0  0  0  0  0  0  0  0  0  0  0
  144.5300   72.2604  218.9272 H   0  0  0  0  0  0  0  0  0  0  0  0
  144.8582   73.5792  217.7729 H   0  0  0  0  0  0  0  0  0  0  0  0
  146.4410   74.3490  219.4000 H   0  0  0  0  0  0  0  0  0  0  0  0
  142.1677   73.3285  218.9004 H   0  0  0  0  0  0  0  0  0  0  0  0
  142.5512   72.7629  220.4901 H   0  0  0  0  0  0  0  0  0  0  0  0
  139.1109   69.7653  222.5989 H   0  0  0  0  0  0  0  0  0  0  0  0
  138.7489   68.2415  224.5122 H   0  0  0  0  0  0  0  0  0  0  0  0
  139.1251   67.7909  226.9477 H   0  0  0  0  0  0  0  0  0  0  0  0
  141.3380   70.6681  229.2753 H   0  0  0  0  0  0  0  0  0  0  0  0
  141.6029   72.0685  227.2502 H   0  0  0  0  0  0  0  0  0  0  0  0
  1  2  2  0
  2  3  1  0
  3  4  1  0
  4  5  1  0
  5  6  2  0
  5  7  1  0
  7  8  1  0
  8  9  1  0
  9 10  1  0
 10 11  1  0
 11 12  1  0
 10 13  1  0
  2 14  1  0
 14 15  2  0
 15 16  1  0
 16 17  2  0
 17 18  1  0
 18 19  2  0
 19 20  1  0
 19 21  1  0
 21 22  2  0
 22 23  1  0
 23 24  2  0
 13  7  1  0
 24 14  1  0
 23 17  1  0
  3 25  1  0
  4 26  1  0
  4 27  1  0
  8 28  1  0
  8 29  1  0
  9 30  1  0
  9 31  1  0
 10 32  1  1
 11 33  1  0
 11 34  1  0
 12 35  1  0
 13 36  1  0
 13 37  1  0
 15 38  1  0
 16 39  1  0
 18 40  1  0
 21 41  1  0
 22 42  1  0
M  END
>  <smiles>  (10) 
O=C(NCC(=O)N1CC[C@H](CO)C1)c1ccc2cc(F)ccc2n1

>  <score_type>  (10) 
oracle

>  <origin>  (10) 
autodockgpu

>  <m_score__min__energy>  (10) 
-7.7199999999999998

>  <m_primary>  (10) 
energy

>  <rmsd>  (10) 
2.723090035278511

>  <m_score__min__rmsd>  (10) 
2.723090035278511

>  <meeko>  (10) 
{"free_energy": -7.51, "intermolecular_energy": -9.3, "internal_energy": -0.81, "cluster_size": 29, "cluster_id": 1, "rank_in_cluster": 6}

>  <energy>  (10) 
-7.39

>  <cluster_rmsd>  (10) 
0.74

>  <cluster>  (10) 
1

$$$$

     RDKit          3D

 42 44  0  0  0  0  0  0  0  0999 V2000
  141.3530   73.7330  221.1120 O   0  0  0  0  0  0  0  0  0  0  0  0
  140.3890   74.1810  221.7910 C   0  0  0  0  0  0  0  0  0  0  0  0
  139.5300   73.2450  222.4090 N   0  0  0  0  0  0  0  0  0  0  0  0
  139.8010   71.8470  222.2310 C   0  0  0  0  0  0  0  0  0  0  0  0
  139.0030   70.9940  223.1500 C   0  0  0  0  0  0  0  0  0  0  0  0
  137.7760   70.7680  222.9970 O   0  0  0  0  0  0  0  0  0  0  0  0
  139.6680   70.4040  224.2600 N   0  0  0  0  0  0  0  0  0  0  0  0
  140.6610   71.1140  225.0440 C   0  0  0  0  0  0  0  0  0  0  0  0
  140.9280   70.2470  226.2560 C   0  0  0  0  0  0  0  0  0  0  0  0
  139.6800   69.3910  226.3040 C   0  0  2  0  0  0  0  0  0  0  0  0
  139.8620   68.1490  227.1280 C   0  0  0  0  0  0  0  0  0  0  0  0
  139.2660   67.1060  226.4540 O   0  0  0  0  0  0  0  0  0  0  0  0
  139.5190   69.0760  224.8110 C   0  0  0  0  0  0  0  0  0  0  0  0
  140.1280   75.6050  221.9600 C   0  0  0  0  0  0  0  0  0  0  0  0
  138.8930   76.1270  221.6040 C   0  0  0  0  0  0  0  0  0  0  0  0
  138.5860   77.4620  221.7400 C   0  0  0  0  0  0  0  0  0  0  0  0
  139.5600   78.3060  222.2530 C   0  0  0  0  0  0  0  0  0  0  0  0
  139.3510   79.6620  222.4280 C   0  0  0  0  0  0  0  0  0  0  0  0
  140.3680   80.4320  222.9440 C   0  0  0  0  0  0  0  0  0  0  0  0
  140.1480   81.7490  223.1070 F   0  0  0  0  0  0  0  0  0  0  0  0
  141.5930   79.9000  223.2940 C   0  0  0  0  0  0  0  0  0  0  0  0
  141.7800   78.5610  223.1140 C   0  0  0  0  0  0  0  0  0  0  0  0
  140.7740   77.7710  222.5990 C   0  0  0  0  0  0  0  0  0  0  0  0
  141.0560   76.4500  222.4560 N   0  0  0  0  0  0  0  0  0  0  0  0
  138.7090   73.5320  222.9880 H   0  0  0  0  0  0  0  0  0  0  0  0
  139.5610   71.5698  221.1939 H   0  0  0  0  0  0  0  0  0  0  0  0
  140.8645   71.6800  222.4568 H   0  0  0  0  0  0  0  0  0  0  0  0
  141.5833   71.2508  224.4604 H   0  0  0  0  0  0  0  0  0  0  0  0
  140.3082   72.1151  225.3326 H   0  0  0  0  0  0  0  0  0  0  0  0
  141.8301   69.6328  226.1184 H   0  0  0  0  0  0  0  0  0  0  0  0
  141.1143   70.8158  227.1789 H   0  0  0  0  0  0  0  0  0  0  0  0
  138.8112   69.8738  226.7753 H   0  0  0  0  0  0  0  0  0  0  0  0
  140.9341   67.9433  227.2632 H   0  0  0  0  0  0  0  0  0  0  0  0
  139.4056   68.2760  228.1208 H   0  0  0  0  0  0  0  0  0  0  0  0
  139.5100   66.2390  226.8890 H   0  0  0  0  0  0  0  0  0  0  0  0
  140.3027   68.3935  224.4504 H   0  0  0  0  0  0  0  0  0  0  0  0
  138.5832   68.5640  224.5426 H   0  0  0  0  0  0  0  0  0  0  0  0
  138.1294   75.4477  221.1972 H   0  0  0  0  0  0  0  0  0  0  0  0
  137.5975   77.8481  221.4504 H   0  0  0  0  0  0  0  0  0  0  0  0
  138.3867   80.1178  222.1588 H   0  0  0  0  0  0  0  0  0  0  0  0
  142.3918   80.5351  223.7045 H   0  0  0  0  0  0  0  0  0  0  0  0
  142.7447   78.1059  223.3828 H   0  0  0  0  0  0  0  0  0  0  0  0
  1  2  2  0
  2  3  1  0
  3  4  1  0
  4  5  1  0
  5  6  2  0
  5  7  1  0
  7  8  1  0
  8  9  1  0
  9 10  1  0
 10 11  1  0
 11 12  1  0
 10 13  1  0
  2 14  1  0
 14 15  2  0
 15 16  1  0
 16 17  2  0
 17 18  1  0
 18 19  2  0
 19 20  1  0
 19 21  1  0
 21 22  2  0
 22 23  1  0
 23 24  2  0
 13  7  1  0
 24 14  1  0
 23 17  1  0
  3 25  1  0
  4 26  1  0
  4 27  1  0
  8 28  1  0
  8 29  1  0
  9 30  1  0
  9 31  1  0
 10 32  1  1
 11 33  1  0
 11 34  1  0
 12 35  1  0
 13 36  1  0
 13 37  1  0
 15 38  1  0
 16 39  1  0
 18 40  1  0
 21 41  1  0
 22 42  1  0
M  END
>  <smiles>  (11) 
O=C(NCC(=O)N1CC[C@H](CO)C1)c1ccc2cc(F)ccc2n1

>  <score_type>  (11) 
oracle

>  <origin>  (11) 
autodockgpu

>  <m_score__min__energy>  (11) 
-7.7199999999999998

>  <m_primary>  (11) 
energy

>  <rmsd>  (11) 
9.04948445600972

>  <m_score__min__rmsd>  (11) 
9.04948445600972

>  <meeko>  (11) 
{"free_energy": -6.73, "intermolecular_energy": -8.52, "internal_energy": -0.72, "cluster_size": 5, "cluster_id": 4, "rank_in_cluster": 4}

>  <energy>  (11) 
-7.32

>  <cluster_rmsd>  (11) 
0.68

>  <cluster>  (11) 
1

$$$$

     RDKit          3D

 42 44  0  0  0  0  0  0  0  0999 V2000
  141.0780   72.1720  221.3850 O   0  0  0  0  0  0  0  0  0  0  0  0
  140.3060   72.4330  222.3480 C   0  0  0  0  0  0  0  0  0  0  0  0
  139.5600   73.6320  222.2850 N   0  0  0  0  0  0  0  0  0  0  0  0
  139.7200   74.4780  221.1370 C   0  0  0  0  0  0  0  0  0  0  0  0
  140.9440   75.3170  221.2180 C   0  0  0  0  0  0  0  0  0  0  0  0
  142.0980   74.8880  220.9650 O   0  0  0  0  0  0  0  0  0  0  0  0
  140.7960   76.6780  221.6040 N   0  0  0  0  0  0  0  0  0  0  0  0
  139.8050   77.1140  222.5690 C   0  0  0  0  0  0  0  0  0  0  0  0
  140.1410   78.5560  222.8840 C   0  0  0  0  0  0  0  0  0  0  0  0
  141.5960   78.6310  222.4710 C   0  0  2  0  0  0  0  0  0  0  0  0
  142.0640   80.0420  222.2580 C   0  0  0  0  0  0  0  0  0  0  0  0
  143.3170   80.1580  222.8190 O   0  0  0  0  0  0  0  0  0  0  0  0
  141.5370   77.8360  221.1590 C   0  0  0  0  0  0  0  0  0  0  0  0
  140.1550   71.5620  223.5070 C   0  0  0  0  0  0  0  0  0  0  0  0
  139.4730   70.3600  223.3820 C   0  0  0  0  0  0  0  0  0  0  0  0
  139.2980   69.4960  224.4390 C   0  0  0  0  0  0  0  0  0  0  0  0
  139.8270   69.8530  225.6700 C   0  0  0  0  0  0  0  0  0  0  0  0
  139.7050   69.0550  226.7930 C   0  0  0  0  0  0  0  0  0  0  0  0
  140.2580   69.4820  227.9770 C   0  0  0  0  0  0  0  0  0  0  0  0
  140.1290   68.6920  229.0600 F   0  0  0  0  0  0  0  0  0  0  0  0
  140.9330   70.6800  228.0880 C   0  0  0  0  0  0  0  0  0  0  0  0
  141.0440   71.4540  226.9710 C   0  0  0  0  0  0  0  0  0  0  0  0
  140.4970   71.0450  225.7720 C   0  0  0  0  0  0  0  0  0  0  0  0
  140.6590   71.8850  224.7160 N   0  0  0  0  0  0  0  0  0  0  0  0
  138.8980   73.9230  223.0390 H   0  0  0  0  0  0  0  0  0  0  0  0
  139.7835   73.8463  220.2387 H   0  0  0  0  0  0  0  0  0  0  0  0
  138.8527   75.1532  221.0943 H   0  0  0  0  0  0  0  0  0  0  0  0
  138.7948   77.0412  222.1398 H   0  0  0  0  0  0  0  0  0  0  0  0
  139.8190   76.4885  223.4738 H   0  0  0  0  0  0  0  0  0  0  0  0
  139.5214   79.2494  222.2964 H   0  0  0  0  0  0  0  0  0  0  0  0
  139.9598   78.8375  223.9318 H   0  0  0  0  0  0  0  0  0  0  0  0
  142.3059   78.2467  223.2182 H   0  0  0  0  0  0  0  0  0  0  0  0
  142.1141   80.2614  221.1813 H   0  0  0  0  0  0  0  0  0  0  0  0
  141.3663   80.7533  222.7241 H   0  0  0  0  0  0  0  0  0  0  0  0
  143.9670   79.5930  222.3110 H   0  0  0  0  0  0  0  0  0  0  0  0
  141.0013   78.3862  220.3714 H   0  0  0  0  0  0  0  0  0  0  0  0
  142.5144   77.6157  220.7050 H   0  0  0  0  0  0  0  0  0  0  0  0
  139.0565   70.0874  222.4011 H   0  0  0  0  0  0  0  0  0  0  0  0
  138.7537   68.5487  224.3108 H   0  0  0  0  0  0  0  0  0  0  0  0
  139.1736   68.0933  226.7396 H   0  0  0  0  0  0  0  0  0  0  0  0
  141.3675   71.0004  229.0464 H   0  0  0  0  0  0  0  0  0  0  0  0
  141.5757   72.4154  227.0263 H   0  0  0  0  0  0  0  0  0  0  0  0
  1  2  2  0
  2  3  1  0
  3  4  1  0
  4  5  1  0
  5  6  2  0
  5  7  1  0
  7  8  1  0
  8  9  1  0
  9 10  1  0
 10 11  1  0
 11 12  1  0
 10 13  1  0
  2 14  1  0
 14 15  2  0
 15 16  1  0
 16 17  2  0
 17 18  1  0
 18 19  2  0
 19 20  1  0
 19 21  1  0
 21 22  2  0
 22 23  1  0
 23 24  2  0
 13  7  1  0
 24 14  1  0
 23 17  1  0
  3 25  1  0
  4 26  1  0
  4 27  1  0
  8 28  1  0
  8 29  1  0
  9 30  1  0
  9 31  1  0
 10 32  1  1
 11 33  1  0
 11 34  1  0
 12 35  1  0
 13 36  1  0
 13 37  1  0
 15 38  1  0
 16 39  1  0
 18 40  1  0
 21 41  1  0
 22 42  1  0
M  END
>  <smiles>  (12) 
O=C(NCC(=O)N1CC[C@H](CO)C1)c1ccc2cc(F)ccc2n1

>  <score_type>  (12) 
oracle

>  <origin>  (12) 
autodockgpu

>  <m_score__min__energy>  (12) 
-7.7199999999999998

>  <m_primary>  (12) 
energy

>  <rmsd>  (12) 
3.594397007856697

>  <m_score__min__rmsd>  (12) 
3.594397007856697

>  <meeko>  (12) 
{"free_energy": -7.45, "intermolecular_energy": -9.24, "internal_energy": -0.73, "cluster_size": 12, "cluster_id": 2, "rank_in_cluster": 4}

>  <energy>  (12) 
-7.3

>  <cluster_rmsd>  (12) 
0.59

>  <cluster>  (12) 
1

$$$$

     RDKit          3D

 42 44  0  0  0  0  0  0  0  0999 V2000
  141.6330   72.9310  220.9230 O   0  0  0  0  0  0  0  0  0  0  0  0
  140.9120   73.7810  221.5130 C   0  0  0  0  0  0  0  0  0  0  0  0
  139.8420   73.3010  222.3010 N   0  0  0  0  0  0  0  0  0  0  0  0
  139.6370   71.8830  222.3850 C   0  0  0  0  0  0  0  0  0  0  0  0
  138.9110   71.4870  223.6200 C   0  0  0  0  0  0  0  0  0  0  0  0
  137.6980   71.7460  223.8250 O   0  0  0  0  0  0  0  0  0  0  0  0
  139.6320   70.7770  224.6190 N   0  0  0  0  0  0  0  0  0  0  0  0
  140.5370   71.4330  225.5440 C   0  0  0  0  0  0  0  0  0  0  0  0
  140.8920   70.3900  226.5830 C   0  0  0  0  0  0  0  0  0  0  0  0
  139.7440   69.4120  226.4440 C   0  0  2  0  0  0  0  0  0  0  0  0
  140.0570   68.0660  227.0320 C   0  0  0  0  0  0  0  0  0  0  0  0
  139.2160   67.1460  226.4450 O   0  0  0  0  0  0  0  0  0  0  0  0
  139.6260   69.3630  224.9150 C   0  0  0  0  0  0  0  0  0  0  0  0
  141.1330   75.2190  221.4160 C   0  0  0  0  0  0  0  0  0  0  0  0
  141.9310   75.7260  220.4000 C   0  0  0  0  0  0  0  0  0  0  0  0
  142.1780   77.0730  220.2560 C   0  0  0  0  0  0  0  0  0  0  0  0
  141.6020   77.9430  221.1700 C   0  0  0  0  0  0  0  0  0  0  0  0
  141.7890   79.3130  221.1120 C   0  0  0  0  0  0  0  0  0  0  0  0
  141.1830   80.1080  222.0560 C   0  0  0  0  0  0  0  0  0  0  0  0
  141.3760   81.4380  221.9850 F   0  0  0  0  0  0  0  0  0  0  0  0
  140.3930   79.5910  223.0620 C   0  0  0  0  0  0  0  0  0  0  0  0
  140.2200   78.2390  223.1030 C   0  0  0  0  0  0  0  0  0  0  0  0
  140.8180   77.4220  222.1660 C   0  0  0  0  0  0  0  0  0  0  0  0
  140.5870   76.0890  222.2910 N   0  0  0  0  0  0  0  0  0  0  0  0
  139.1970   73.9370  222.8220 H   0  0  0  0  0  0  0  0  0  0  0  0
  139.0518   71.5585  221.5119 H   0  0  0  0  0  0  0  0  0  0  0  0
  140.6261   71.4023  222.4090 H   0  0  0  0  0  0  0  0  0  0  0  0
  141.4414   71.7736  225.0185 H   0  0  0  0  0  0  0  0  0  0  0  0
  140.0751   72.3201  226.0020 H   0  0  0  0  0  0  0  0  0  0  0  0
  141.8560   69.9110  226.3567 H   0  0  0  0  0  0  0  0  0  0  0  0
  141.0118   70.7953  227.5986 H   0  0  0  0  0  0  0  0  0  0  0  0
  138.8253   69.7037  226.9740 H   0  0  0  0  0  0  0  0  0  0  0  0
  141.1045   67.8013  226.8252 H   0  0  0  0  0  0  0  0  0  0  0  0
  139.9124   68.0791  228.1224 H   0  0  0  0  0  0  0  0  0  0  0  0
  139.2750   66.2760  226.9350 H   0  0  0  0  0  0  0  0  0  0  0  0
  140.4813   68.8459  224.4556 H   0  0  0  0  0  0  0  0  0  0  0  0
  138.7526   68.8131  224.5345 H   0  0  0  0  0  0  0  0  0  0  0  0
  142.3833   75.0254  219.6827 H   0  0  0  0  0  0  0  0  0  0  0  0
  142.8134   77.4481  219.4401 H   0  0  0  0  0  0  0  0  0  0  0  0
  142.4126   79.7589  220.3231 H   0  0  0  0  0  0  0  0  0  0  0  0
  139.9185   80.2475  223.8062 H   0  0  0  0  0  0  0  0  0  0  0  0
  139.5962   77.7946  223.8926 H   0  0  0  0  0  0  0  0  0  0  0  0
  1  2  2  0
  2  3  1  0
  3  4  1  0
  4  5  1  0
  5  6  2  0
  5  7  1  0
  7  8  1  0
  8  9  1  0
  9 10  1  0
 10 11  1  0
 11 12  1  0
 10 13  1  0
  2 14  1  0
 14 15  2  0
 15 16  1  0
 16 17  2  0
 17 18  1  0
 18 19  2  0
 19 20  1  0
 19 21  1  0
 21 22  2  0
 22 23  1  0
 23 24  2  0
 13  7  1  0
 24 14  1  0
 23 17  1  0
  3 25  1  0
  4 26  1  0
  4 27  1  0
  8 28  1  0
  8 29  1  0
  9 30  1  0
  9 31  1  0
 10 32  1  1
 11 33  1  0
 11 34  1  0
 12 35  1  0
 13 36  1  0
 13 37  1  0
 15 38  1  0
 16 39  1  0
 18 40  1  0
 21 41  1  0
 22 42  1  0
M  END
>  <smiles>  (13) 
O=C(NCC(=O)N1CC[C@H](CO)C1)c1ccc2cc(F)ccc2n1

>  <score_type>  (13) 
oracle

>  <origin>  (13) 
autodockgpu

>  <m_score__min__energy>  (13) 
-7.7199999999999998

>  <m_primary>  (13) 
energy

>  <rmsd>  (13) 
9.150874819889642

>  <m_score__min__rmsd>  (13) 
9.150874819889642

>  <meeko>  (13) 
{"free_energy": -6.93, "intermolecular_energy": -8.72, "internal_energy": -0.95, "cluster_size": 5, "cluster_id": 4, "rank_in_cluster": 1}

>  <energy>  (13) 
-7.23

>  <cluster_rmsd>  (13) 
0.68

>  <cluster>  (13) 
1

$$$$

     RDKit          3D

 42 44  0  0  0  0  0  0  0  0999 V2000
  140.1600   70.7620  221.6050 O   0  0  0  0  0  0  0  0  0  0  0  0
  140.0250   71.5130  222.6110 C   0  0  0  0  0  0  0  0  0  0  0  0
  139.7150   72.8710  222.3790 N   0  0  0  0  0  0  0  0  0  0  0  0
  139.5700   73.3180  221.0230 C   0  0  0  0  0  0  0  0  0  0  0  0
  140.7470   74.0960  220.5540 C   0  0  0  0  0  0  0  0  0  0  0  0
  140.6950   75.3130  220.2440 O   0  0  0  0  0  0  0  0  0  0  0  0
  141.9950   73.4220  220.4520 N   0  0  0  0  0  0  0  0  0  0  0  0
  142.1170   72.0770  219.9230 C   0  0  0  0  0  0  0  0  0  0  0  0
  143.6010   71.8340  219.7510 C   0  0  0  0  0  0  0  0  0  0  0  0
  144.1420   73.2480  219.6990 C   0  0  2  0  0  0  0  0  0  0  0  0
  145.6160   73.3120  219.9760 C   0  0  0  0  0  0  0  0  0  0  0  0
  146.2750   73.1740  218.7730 O   0  0  0  0  0  0  0  0  0  0  0  0
  143.3130   73.8860  220.8220 C   0  0  0  0  0  0  0  0  0  0  0  0
  140.1760   71.0420  223.9820 C   0  0  0  0  0  0  0  0  0  0  0  0
  140.7020   71.8890  224.9480 C   0  0  0  0  0  0  0  0  0  0  0  0
  140.8680   71.5030  226.2590 C   0  0  0  0  0  0  0  0  0  0  0  0
  140.4940   70.2160  226.6130 C   0  0  0  0  0  0  0  0  0  0  0  0
  140.6220   69.7320  227.9030 C   0  0  0  0  0  0  0  0  0  0  0  0
  140.2270   68.4430  228.1730 C   0  0  0  0  0  0  0  0  0  0  0  0
  140.3580   67.9880  229.4330 F   0  0  0  0  0  0  0  0  0  0  0  0
  139.7060   67.6100  227.2030 C   0  0  0  0  0  0  0  0  0  0  0  0
  139.5870   68.1050  225.9370 C   0  0  0  0  0  0  0  0  0  0  0  0
  139.9770   69.3950  225.6440 C   0  0  0  0  0  0  0  0  0  0  0  0
  139.8210   69.7950  224.3550 N   0  0  0  0  0  0  0  0  0  0  0  0
  139.5870   73.5590  223.1540 H   0  0  0  0  0  0  0  0  0  0  0  0
  139.4453   72.4395  220.3728 H   0  0  0  0  0  0  0  0  0  0  0  0
  138.6919   73.9792  220.9798 H   0  0  0  0  0  0  0  0  0  0  0  0
  141.6887   71.3483  220.6270 H   0  0  0  0  0  0  0  0  0  0  0  0
  141.5758   71.9657  218.9718 H   0  0  0  0  0  0  0  0  0  0  0  0
  144.0172   71.2769  220.6034 H   0  0  0  0  0  0  0  0  0  0  0  0
  143.8540   71.2273  218.8690 H   0  0  0  0  0  0  0  0  0  0  0  0
  144.0547   73.7382  218.7182 H   0  0  0  0  0  0  0  0  0  0  0  0
  145.8696   74.2798  220.4332 H   0  0  0  0  0  0  0  0  0  0  0  0
  145.9123   72.5129  220.6714 H   0  0  0  0  0  0  0  0  0  0  0  0
  146.3050   74.0550  218.3020 H   0  0  0  0  0  0  0  0  0  0  0  0
  143.6135   73.5152  221.8131 H   0  0  0  0  0  0  0  0  0  0  0  0
  143.4131   74.9779  220.9102 H   0  0  0  0  0  0  0  0  0  0  0  0
  140.9974   72.9072  224.6548 H   0  0  0  0  0  0  0  0  0  0  0  0
  141.2855   72.1960  227.0043 H   0  0  0  0  0  0  0  0  0  0  0  0
  141.0334   70.3687  228.7001 H   0  0  0  0  0  0  0  0  0  0  0  0
  139.3972   66.5818  227.4427 H   0  0  0  0  0  0  0  0  0  0  0  0
  139.1751   67.4676  225.1407 H   0  0  0  0  0  0  0  0  0  0  0  0
  1  2  2  0
  2  3  1  0
  3  4  1  0
  4  5  1  0
  5  6  2  0
  5  7  1  0
  7  8  1  0
  8  9  1  0
  9 10  1  0
 10 11  1  0
 11 12  1  0
 10 13  1  0
  2 14  1  0
 14 15  2  0
 15 16  1  0
 16 17  2  0
 17 18  1  0
 18 19  2  0
 19 20  1  0
 19 21  1  0
 21 22  2  0
 22 23  1  0
 23 24  2  0
 13  7  1  0
 24 14  1  0
 23 17  1  0
  3 25  1  0
  4 26  1  0
  4 27  1  0
  8 28  1  0
  8 29  1  0
  9 30  1  0
  9 31  1  0
 10 32  1  6
 11 33  1  0
 11 34  1  0
 12 35  1  0
 13 36  1  0
 13 37  1  0
 15 38  1  0
 16 39  1  0
 18 40  1  0
 21 41  1  0
 22 42  1  0
M  END
>  <smiles>  (14) 
O=C(NCC(=O)N1CC[C@H](CO)C1)c1ccc2cc(F)ccc2n1

>  <score_type>  (14) 
oracle

>  <origin>  (14) 
autodockgpu

>  <m_score__min__energy>  (14) 
-7.7199999999999998

>  <m_primary>  (14) 
energy

>  <rmsd>  (14) 
4.045767961321012

>  <m_score__min__rmsd>  (14) 
4.045767961321012

>  <meeko>  (14) 
{"free_energy": -7.08, "intermolecular_energy": -8.87, "internal_energy": -0.88, "cluster_size": 29, "cluster_id": 1, "rank_in_cluster": 18}

>  <energy>  (14) 
-7.22

>  <cluster_rmsd>  (14) 
0.51

>  <cluster>  (14) 
1

$$$$

     RDKit          3D

 42 44  0  0  0  0  0  0  0  0999 V2000
  141.2910   72.1400  221.4130 O   0  0  0  0  0  0  0  0  0  0  0  0
  140.5270   72.4430  222.3720 C   0  0  0  0  0  0  0  0  0  0  0  0
  139.8690   73.6920  222.3170 N   0  0  0  0  0  0  0  0  0  0  0  0
  140.1040   74.5400  221.1840 C   0  0  0  0  0  0  0  0  0  0  0  0
  140.6960   75.8480  221.5670 C   0  0  0  0  0  0  0  0  0  0  0  0
  140.4770   76.4120  222.6690 O   0  0  0  0  0  0  0  0  0  0  0  0
  141.5540   76.4920  220.6340 N   0  0  0  0  0  0  0  0  0  0  0  0
  142.3800   75.7560  219.6950 C   0  0  0  0  0  0  0  0  0  0  0  0
  142.9310   76.7880  218.7340 C   0  0  0  0  0  0  0  0  0  0  0  0
  141.9450   77.9250  218.9030 C   0  0  2  0  0  0  0  0  0  0  0  0
  142.4860   79.2360  218.4090 C   0  0  0  0  0  0  0  0  0  0  0  0
  142.5530   79.1710  217.0340 O   0  0  0  0  0  0  0  0  0  0  0  0
  141.7800   77.9040  220.4280 C   0  0  0  0  0  0  0  0  0  0  0  0
  140.3010   71.5690  223.5160 C   0  0  0  0  0  0  0  0  0  0  0  0
  139.6230   70.3700  223.3440 C   0  0  0  0  0  0  0  0  0  0  0  0
  139.3790   69.5030  224.3850 C   0  0  0  0  0  0  0  0  0  0  0  0
  139.8310   69.8550  225.6480 C   0  0  0  0  0  0  0  0  0  0  0  0
  139.6350   69.0540  226.7590 C   0  0  0  0  0  0  0  0  0  0  0  0
  140.1150   69.4750  227.9770 C   0  0  0  0  0  0  0  0  0  0  0  0
  139.9150   68.6830  229.0470 F   0  0  0  0  0  0  0  0  0  0  0  0
  140.7860   70.6700  228.1340 C   0  0  0  0  0  0  0  0  0  0  0  0
  140.9700   71.4460  227.0280 C   0  0  0  0  0  0  0  0  0  0  0  0
  140.4970   71.0440  225.7960 C   0  0  0  0  0  0  0  0  0  0  0  0
  140.7290   71.8860  224.7560 N   0  0  0  0  0  0  0  0  0  0  0  0
  139.2210   74.0190  223.0680 H   0  0  0  0  0  0  0  0  0  0  0  0
  140.7937   74.0280  220.4969 H   0  0  0  0  0  0  0  0  0  0  0  0
  139.1328   74.7388  220.7073 H   0  0  0  0  0  0  0  0  0  0  0  0
  143.2003   75.2476  220.2230 H   0  0  0  0  0  0  0  0  0  0  0  0
  141.8033   74.9805  219.1696 H   0  0  0  0  0  0  0  0  0  0  0  0
  143.9489   77.0951  219.0162 H   0  0  0  0  0  0  0  0  0  0  0  0
  143.0236   76.4284  217.6986 H   0  0  0  0  0  0  0  0  0  0  0  0
  141.0119   77.8130  218.3314 H   0  0  0  0  0  0  0  0  0  0  0  0
  141.8179   80.0553  218.7131 H   0  0  0  0  0  0  0  0  0  0  0  0
  143.4824   79.4261  218.8344 H   0  0  0  0  0  0  0  0  0  0  0  0
  143.3160   79.7290  216.7070 H   0  0  0  0  0  0  0  0  0  0  0  0
  142.6881   78.2518  220.9421 H   0  0  0  0  0  0  0  0  0  0  0  0
  140.9901   78.5624  220.8186 H   0  0  0  0  0  0  0  0  0  0  0  0
  139.2673   70.1026  222.3380 H   0  0  0  0  0  0  0  0  0  0  0  0
  138.8409   68.5579  224.2198 H   0  0  0  0  0  0  0  0  0  0  0  0
  139.1034   68.0952  226.6694 H   0  0  0  0  0  0  0  0  0  0  0  0
  141.1602   70.9864  229.1188 H   0  0  0  0  0  0  0  0  0  0  0  0
  141.5022   72.4044  227.1192 H   0  0  0  0  0  0  0  0  0  0  0  0
  1  2  2  0
  2  3  1  0
  3  4  1  0
  4  5  1  0
  5  6  2  0
  5  7  1  0
  7  8  1  0
  8  9  1  0
  9 10  1  0
 10 11  1  0
 11 12  1  0
 10 13  1  0
  2 14  1  0
 14 15  2  0
 15 16  1  0
 16 17  2  0
 17 18  1  0
 18 19  2  0
 19 20  1  0
 19 21  1  0
 21 22  2  0
 22 23  1  0
 23 24  2  0
 13  7  1  0
 24 14  1  0
 23 17  1  0
  3 25  1  0
  4 26  1  0
  4 27  1  0
  8 28  1  0
  8 29  1  0
  9 30  1  0
  9 31  1  0
 10 32  1  6
 11 33  1  0
 11 34  1  0
 12 35  1  0
 13 36  1  0
 13 37  1  0
 15 38  1  0
 16 39  1  0
 18 40  1  0
 21 41  1  0
 22 42  1  0
M  END
>  <smiles>  (15) 
O=C(NCC(=O)N1CC[C@H](CO)C1)c1ccc2cc(F)ccc2n1

>  <score_type>  (15) 
oracle

>  <origin>  (15) 
autodockgpu

>  <m_score__min__energy>  (15) 
-7.7199999999999998

>  <m_primary>  (15) 
energy

>  <rmsd>  (15) 
2.4454041315899606

>  <m_score__min__rmsd>  (15) 
2.4454041315899606

>  <meeko>  (15) 
{"free_energy": -7.07, "intermolecular_energy": -8.86, "internal_energy": -0.86, "cluster_size": 2, "cluster_id": 3, "rank_in_cluster": 1}

>  <energy>  (15) 
-7.22

>  <cluster_rmsd>  (15) 
0.91

>  <cluster>  (15) 
1

$$$$

     RDKit          3D

 42 44  0  0  0  0  0  0  0  0999 V2000
  139.1290   71.3380  221.1290 O   0  0  0  0  0  0  0  0  0  0  0  0
  139.4460   71.8250  222.2500 C   0  0  0  0  0  0  0  0  0  0  0  0
  139.6820   73.2160  222.3170 N   0  0  0  0  0  0  0  0  0  0  0  0
  139.5480   73.9910  221.1170 C   0  0  0  0  0  0  0  0  0  0  0  0
  140.4840   73.5500  220.0490 C   0  0  0  0  0  0  0  0  0  0  0  0
  140.1680   73.4830  218.8340 O   0  0  0  0  0  0  0  0  0  0  0  0
  141.8050   73.1850  220.4280 N   0  0  0  0  0  0  0  0  0  0  0  0
  142.1850   71.8150  220.7170 C   0  0  0  0  0  0  0  0  0  0  0  0
  143.6950   71.8190  220.8240 C   0  0  0  0  0  0  0  0  0  0  0  0
  144.0550   73.0790  220.0660 C   0  0  2  0  0  0  0  0  0  0  0  0
  145.4380   73.5700  220.3840 C   0  0  0  0  0  0  0  0  0  0  0  0
  146.3190   72.5460  220.1120 O   0  0  0  0  0  0  0  0  0  0  0  0
  142.9690   74.0240  220.5970 C   0  0  0  0  0  0  0  0  0  0  0  0
  139.5780   71.0220  223.4590 C   0  0  0  0  0  0  0  0  0  0  0  0
  139.1010   69.7190  223.4770 C   0  0  0  0  0  0  0  0  0  0  0  0
  139.1960   68.9120  224.5880 C   0  0  0  0  0  0  0  0  0  0  0  0
  139.7920   69.4340  225.7260 C   0  0  0  0  0  0  0  0  0  0  0  0
  139.9360   68.7050  226.8920 C   0  0  0  0  0  0  0  0  0  0  0  0
  140.5390   69.2960  227.9780 C   0  0  0  0  0  0  0  0  0  0  0  0
  140.6700   68.5720  229.1050 F   0  0  0  0  0  0  0  0  0  0  0  0
  141.0090   70.5940  227.9470 C   0  0  0  0  0  0  0  0  0  0  0  0
  140.8590   71.2970  226.7880 C   0  0  0  0  0  0  0  0  0  0  0  0
  140.2570   70.7240  225.6870 C   0  0  0  0  0  0  0  0  0  0  0  0
  140.1530   71.5040  224.5800 N   0  0  0  0  0  0  0  0  0  0  0  0
  139.9490   73.6990  223.2040 H   0  0  0  0  0  0  0  0  0  0  0  0
  138.5172   73.8921  220.7461 H   0  0  0  0  0  0  0  0  0  0  0  0
  139.7895   75.0354  221.3639 H   0  0  0  0  0  0  0  0  0  0  0  0
  141.7348   71.4845  221.6647 H   0  0  0  0  0  0  0  0  0  0  0  0
  141.8367   71.1248  219.9345 H   0  0  0  0  0  0  0  0  0  0  0  0
  144.0222   71.8750  221.8727 H   0  0  0  0  0  0  0  0  0  0  0  0
  144.1723   70.9098  220.4296 H   0  0  0  0  0  0  0  0  0  0  0  0
  144.0804   72.9648  218.9722 H   0  0  0  0  0  0  0  0  0  0  0  0
  145.6771   74.4451  219.7619 H   0  0  0  0  0  0  0  0  0  0  0  0
  145.5077   73.8676  221.4407 H   0  0  0  0  0  0  0  0  0  0  0  0
  146.2710   71.8580  220.8370 H   0  0  0  0  0  0  0  0  0  0  0  0
  143.1349   74.2849  221.6527 H   0  0  0  0  0  0  0  0  0  0  0  0
  142.9152   74.9997  220.0919 H   0  0  0  0  0  0  0  0  0  0  0  0
  138.6290   69.3157  222.5689 H   0  0  0  0  0  0  0  0  0  0  0  0
  138.8100   67.8821  224.5735 H   0  0  0  0  0  0  0  0  0  0  0  0
  139.5738   67.6680  226.9503 H   0  0  0  0  0  0  0  0  0  0  0  0
  141.4885   71.0460  228.8278 H   0  0  0  0  0  0  0  0  0  0  0  0
  141.2225   72.3336  226.7304 H   0  0  0  0  0  0  0  0  0  0  0  0
  1  2  2  0
  2  3  1  0
  3  4  1  0
  4  5  1  0
  5  6  2  0
  5  7  1  0
  7  8  1  0
  8  9  1  0
  9 10  1  0
 10 11  1  0
 11 12  1  0
 10 13  1  0
  2 14  1  0
 14 15  2  0
 15 16  1  0
 16 17  2  0
 17 18  1  0
 18 19  2  0
 19 20  1  0
 19 21  1  0
 21 22  2  0
 22 23  1  0
 23 24  2  0
 13  7  1  0
 24 14  1  0
 23 17  1  0
  3 25  1  0
  4 26  1  0
  4 27  1  0
  8 28  1  0
  8 29  1  0
  9 30  1  0
  9 31  1  0
 10 32  1  6
 11 33  1  0
 11 34  1  0
 12 35  1  0
 13 36  1  0
 13 37  1  0
 15 38  1  0
 16 39  1  0
 18 40  1  0
 21 41  1  0
 22 42  1  0
M  END
>  <smiles>  (16) 
O=C(NCC(=O)N1CC[C@H](CO)C1)c1ccc2cc(F)ccc2n1

>  <score_type>  (16) 
oracle

>  <origin>  (16) 
autodockgpu

>  <m_score__min__energy>  (16) 
-7.7199999999999998

>  <m_primary>  (16) 
energy

>  <rmsd>  (16) 
3.6495517857802553

>  <m_score__min__rmsd>  (16) 
3.6495517857802553

>  <meeko>  (16) 
{"free_energy": -6.52, "intermolecular_energy": -8.31, "internal_energy": -1.1, "cluster_size": 29, "cluster_id": 1, "rank_in_cluster": 28}

>  <energy>  (16) 
-7.14

>  <cluster_rmsd>  (16) 
0.56

>  <cluster>  (16) 
1

$$$$

     RDKit          3D

 42 44  0  0  0  0  0  0  0  0999 V2000
  141.1130   72.2290  221.4560 O   0  0  0  0  0  0  0  0  0  0  0  0
  140.3020   72.4450  222.3990 C   0  0  0  0  0  0  0  0  0  0  0  0
  139.4940   73.6010  222.3170 N   0  0  0  0  0  0  0  0  0  0  0  0
  139.6380   74.4580  221.1760 C   0  0  0  0  0  0  0  0  0  0  0  0
  140.8550   75.3080  221.2550 C   0  0  0  0  0  0  0  0  0  0  0  0
  142.0150   74.8830  221.0260 O   0  0  0  0  0  0  0  0  0  0  0  0
  140.6910   76.6760  221.6090 N   0  0  0  0  0  0  0  0  0  0  0  0
  139.6030   77.1420  222.4480 C   0  0  0  0  0  0  0  0  0  0  0  0
  139.9300   78.5800  222.7880 C   0  0  0  0  0  0  0  0  0  0  0  0
  141.4250   78.6220  222.5470 C   0  0  2  0  0  0  0  0  0  0  0  0
  141.9440   80.0210  222.3790 C   0  0  0  0  0  0  0  0  0  0  0  0
  143.2820   80.0150  222.7080 O   0  0  0  0  0  0  0  0  0  0  0  0
  141.5030   77.8140  221.2450 C   0  0  0  0  0  0  0  0  0  0  0  0
  140.1680   71.5640  223.5530 C   0  0  0  0  0  0  0  0  0  0  0  0
  139.4920   70.3600  223.4250 C   0  0  0  0  0  0  0  0  0  0  0  0
  139.3320   69.4860  224.4770 C   0  0  0  0  0  0  0  0  0  0  0  0
  139.8730   69.8370  225.7050 C   0  0  0  0  0  0  0  0  0  0  0  0
  139.7670   69.0290  226.8230 C   0  0  0  0  0  0  0  0  0  0  0  0
  140.3300   69.4490  228.0050 C   0  0  0  0  0  0  0  0  0  0  0  0
  140.2170   68.6510  229.0820 F   0  0  0  0  0  0  0  0  0  0  0  0
  141.0000   70.6510  228.1180 C   0  0  0  0  0  0  0  0  0  0  0  0
  141.0950   71.4330  227.0060 C   0  0  0  0  0  0  0  0  0  0  0  0
  140.5370   71.0310  225.8100 C   0  0  0  0  0  0  0  0  0  0  0  0
  140.6830   71.8800  224.7590 N   0  0  0  0  0  0  0  0  0  0  0  0
  138.7980   73.8540  223.0550 H   0  0  0  0  0  0  0  0  0  0  0  0
  139.7007   73.8347  220.2718 H   0  0  0  0  0  0  0  0  0  0  0  0
  138.7643   75.1256  221.1459 H   0  0  0  0  0  0  0  0  0  0  0  0
  138.6485   77.0847  221.9042 H   0  0  0  0  0  0  0  0  0  0  0  0
  139.4980   76.5261  223.3534 H   0  0  0  0  0  0  0  0  0  0  0  0
  139.3977   79.2792  222.1264 H   0  0  0  0  0  0  0  0  0  0  0  0
  139.6338   78.8761  223.8051 H   0  0  0  0  0  0  0  0  0  0  0  0
  142.0351   78.2321  223.3751 H   0  0  0  0  0  0  0  0  0  0  0  0
  141.8165   80.3449  221.3355 H   0  0  0  0  0  0  0  0  0  0  0  0
  141.3915   80.7168  223.0275 H   0  0  0  0  0  0  0  0  0  0  0  0
  143.7320   79.2350  222.2730 H   0  0  0  0  0  0  0  0  0  0  0  0
  141.0751   78.3662  220.3953 H   0  0  0  0  0  0  0  0  0  0  0  0
  142.5221   77.5691  220.9113 H   0  0  0  0  0  0  0  0  0  0  0  0
  139.0675   70.0930  222.4460 H   0  0  0  0  0  0  0  0  0  0  0  0
  138.7909   68.5371  224.3473 H   0  0  0  0  0  0  0  0  0  0  0  0
  139.2402   68.0650  226.7671 H   0  0  0  0  0  0  0  0  0  0  0  0
  141.4425   70.9670  229.0742 H   0  0  0  0  0  0  0  0  0  0  0  0
  141.6230   72.3964  227.0627 H   0  0  0  0  0  0  0  0  0  0  0  0
  1  2  2  0
  2  3  1  0
  3  4  1  0
  4  5  1  0
  5  6  2  0
  5  7  1  0
  7  8  1  0
  8  9  1  0
  9 10  1  0
 10 11  1  0
 11 12  1  0
 10 13  1  0
  2 14  1  0
 14 15  2  0
 15 16  1  0
 16 17  2  0
 17 18  1  0
 18 19  2  0
 19 20  1  0
 19 21  1  0
 21 22  2  0
 22 23  1  0
 23 24  2  0
 13  7  1  0
 24 14  1  0
 23 17  1  0
  3 25  1  0
  4 26  1  0
  4 27  1  0
  8 28  1  0
  8 29  1  0
  9 30  1  0
  9 31  1  0
 10 32  1  1
 11 33  1  0
 11 34  1  0
 12 35  1  0
 13 36  1  0
 13 37  1  0
 15 38  1  0
 16 39  1  0
 18 40  1  0
 21 41  1  0
 22 42  1  0
M  END
>  <smiles>  (17) 
O=C(NCC(=O)N1CC[C@H](CO)C1)c1ccc2cc(F)ccc2n1

>  <score_type>  (17) 
oracle

>  <origin>  (17) 
autodockgpu

>  <m_score__min__energy>  (17) 
-7.7199999999999998

>  <m_primary>  (17) 
energy

>  <rmsd>  (17) 
3.568189005763117

>  <m_score__min__rmsd>  (17) 
3.568189005763117

>  <meeko>  (17) 
{"free_energy": -7.54, "intermolecular_energy": -9.33, "internal_energy": -0.7, "cluster_size": 12, "cluster_id": 2, "rank_in_cluster": 3}

>  <energy>  (17) 
-7.12

>  <cluster_rmsd>  (17) 
0.86

>  <cluster>  (17) 
1

$$$$

     RDKit          3D

 42 44  0  0  0  0  0  0  0  0999 V2000
  141.1020   72.2700  221.4490 O   0  0  0  0  0  0  0  0  0  0  0  0
  140.2980   72.4860  222.3980 C   0  0  0  0  0  0  0  0  0  0  0  0
  139.4910   73.6430  222.3240 N   0  0  0  0  0  0  0  0  0  0  0  0
  139.6290   74.5010  221.1820 C   0  0  0  0  0  0  0  0  0  0  0  0
  140.8150   75.3910  221.2820 C   0  0  0  0  0  0  0  0  0  0  0  0
  141.9870   75.0170  221.0260 O   0  0  0  0  0  0  0  0  0  0  0  0
  140.6060   76.7380  221.6880 N   0  0  0  0  0  0  0  0  0  0  0  0
  139.4180   77.1630  222.4040 C   0  0  0  0  0  0  0  0  0  0  0  0
  139.6980   78.5780  222.8630 C   0  0  0  0  0  0  0  0  0  0  0  0
  141.2110   78.6240  222.8200 C   0  0  2  0  0  0  0  0  0  0  0  0
  141.7460   80.0270  222.7980 C   0  0  0  0  0  0  0  0  0  0  0  0
  143.1210   79.9510  222.7520 O   0  0  0  0  0  0  0  0  0  0  0  0
  141.4570   77.8900  221.4950 C   0  0  0  0  0  0  0  0  0  0  0  0
  140.1720   71.6030  223.5510 C   0  0  0  0  0  0  0  0  0  0  0  0
  139.5220   70.3840  223.4180 C   0  0  0  0  0  0  0  0  0  0  0  0
  139.3710   69.5080  224.4690 C   0  0  0  0  0  0  0  0  0  0  0  0
  139.8910   69.8720  225.7030 C   0  0  0  0  0  0  0  0  0  0  0  0
  139.7910   69.0630  226.8200 C   0  0  0  0  0  0  0  0  0  0  0  0
  140.3330   69.4960  228.0070 C   0  0  0  0  0  0  0  0  0  0  0  0
  140.2260   68.6970  229.0850 F   0  0  0  0  0  0  0  0  0  0  0  0
  140.9760   70.7120  228.1260 C   0  0  0  0  0  0  0  0  0  0  0  0
  141.0650   71.4960  227.0140 C   0  0  0  0  0  0  0  0  0  0  0  0
  140.5280   71.0800  225.8130 C   0  0  0  0  0  0  0  0  0  0  0  0
  140.6670   71.9310  224.7630 N   0  0  0  0  0  0  0  0  0  0  0  0
  138.8010   73.8950  223.0660 H   0  0  0  0  0  0  0  0  0  0  0  0
  139.7304   73.8772  220.2817 H   0  0  0  0  0  0  0  0  0  0  0  0
  138.7343   75.1389  221.1318 H   0  0  0  0  0  0  0  0  0  0  0  0
  138.5419   77.1422  221.7391 H   0  0  0  0  0  0  0  0  0  0  0  0
  139.1966   76.4983  223.2521 H   0  0  0  0  0  0  0  0  0  0  0  0
  139.2552   79.3162  222.1782 H   0  0  0  0  0  0  0  0  0  0  0  0
  139.2729   78.8190  223.8485 H   0  0  0  0  0  0  0  0  0  0  0  0
  141.7090   78.1848  223.6969 H   0  0  0  0  0  0  0  0  0  0  0  0
  141.3703   80.5572  221.9105 H   0  0  0  0  0  0  0  0  0  0  0  0
  141.4206   80.5772  223.6932 H   0  0  0  0  0  0  0  0  0  0  0  0
  143.4030   79.4190  221.9540 H   0  0  0  0  0  0  0  0  0  0  0  0
  141.1409   78.4913  220.6298 H   0  0  0  0  0  0  0  0  0  0  0  0
  142.5108   77.6584  221.2810 H   0  0  0  0  0  0  0  0  0  0  0  0
  139.1120   70.1074  222.4355 H   0  0  0  0  0  0  0  0  0  0  0  0
  138.8530   68.5470  224.3345 H   0  0  0  0  0  0  0  0  0  0  0  0
  139.2855   68.0879  226.7598 H   0  0  0  0  0  0  0  0  0  0  0  0
  141.4024   71.0376  229.0863 H   0  0  0  0  0  0  0  0  0  0  0  0
  141.5706   72.4710  227.0750 H   0  0  0  0  0  0  0  0  0  0  0  0
  1  2  2  0
  2  3  1  0
  3  4  1  0
  4  5  1  0
  5  6  2  0
  5  7  1  0
  7  8  1  0
  8  9  1  0
  9 10  1  0
 10 11  1  0
 11 12  1  0
 10 13  1  0
  2 14  1  0
 14 15  2  0
 15 16  1  0
 16 17  2  0
 17 18  1  0
 18 19  2  0
 19 20  1  0
 19 21  1  0
 21 22  2  0
 22 23  1  0
 23 24  2  0
 13  7  1  0
 24 14  1  0
 23 17  1  0
  3 25  1  0
  4 26  1  0
  4 27  1  0
  8 28  1  0
  8 29  1  0
  9 30  1  0
  9 31  1  0
 10 32  1  1
 11 33  1  0
 11 34  1  0
 12 35  1  0
 13 36  1  0
 13 37  1  0
 15 38  1  0
 16 39  1  0
 18 40  1  0
 21 41  1  0
 22 42  1  0
M  END
>  <smiles>  (18) 
O=C(NCC(=O)N1CC[C@H](CO)C1)c1ccc2cc(F)ccc2n1

>  <score_type>  (18) 
oracle

>  <origin>  (18) 
autodockgpu

>  <m_score__min__energy>  (18) 
-7.7199999999999998

>  <m_primary>  (18) 
energy

>  <rmsd>  (18) 
3.6269616556445783

>  <m_score__min__rmsd>  (18) 
3.6269616556445783

>  <meeko>  (18) 
{"free_energy": -7.54, "intermolecular_energy": -9.33, "internal_energy": -0.7, "cluster_size": 12, "cluster_id": 2, "rank_in_cluster": 2}

>  <energy>  (18) 
-7.08

>  <cluster_rmsd>  (18) 
1.01

>  <cluster>  (18) 
1

$$$$

     RDKit          3D

 42 44  0  0  0  0  0  0  0  0999 V2000
  139.9390   70.9460  221.3500 O   0  0  0  0  0  0  0  0  0  0  0  0
  139.9090   71.4480  222.5080 C   0  0  0  0  0  0  0  0  0  0  0  0
  139.9080   72.8570  222.6120 N   0  0  0  0  0  0  0  0  0  0  0  0
  139.9400   73.6330  221.4050 C   0  0  0  0  0  0  0  0  0  0  0  0
  141.0610   74.6080  221.3870 C   0  0  0  0  0  0  0  0  0  0  0  0
  141.0420   75.6980  222.0130 O   0  0  0  0  0  0  0  0  0  0  0  0
  142.2140   74.2860  220.6200 N   0  0  0  0  0  0  0  0  0  0  0  0
  142.5830   75.0130  219.4200 C   0  0  0  0  0  0  0  0  0  0  0  0
  143.9740   74.5360  219.0600 C   0  0  0  0  0  0  0  0  0  0  0  0
  144.4630   73.9830  220.3820 C   0  0  2  0  0  0  0  0  0  0  0  0
  145.6300   73.0520  220.2220 C   0  0  0  0  0  0  0  0  0  0  0  0
  146.0650   73.1450  218.9180 O   0  0  0  0  0  0  0  0  0  0  0  0
  143.1960   73.2500  220.8440 C   0  0  0  0  0  0  0  0  0  0  0  0
  139.8770   70.6450  223.7240 C   0  0  0  0  0  0  0  0  0  0  0  0
  139.2560   69.4050  223.7150 C   0  0  0  0  0  0  0  0  0  0  0  0
  139.1930   68.6000  224.8300 C   0  0  0  0  0  0  0  0  0  0  0  0
  139.7750   69.0620  226.0010 C   0  0  0  0  0  0  0  0  0  0  0  0
  139.7660   68.3300  227.1750 C   0  0  0  0  0  0  0  0  0  0  0  0
  140.3660   68.8590  228.2940 C   0  0  0  0  0  0  0  0  0  0  0  0
  140.3470   68.1340  229.4280 F   0  0  0  0  0  0  0  0  0  0  0  0
  140.9800   70.0950  228.2900 C   0  0  0  0  0  0  0  0  0  0  0  0
  140.9800   70.8010  227.1240 C   0  0  0  0  0  0  0  0  0  0  0  0
  140.3840   70.2900  225.9890 C   0  0  0  0  0  0  0  0  0  0  0  0
  140.4350   71.0690  224.8770 N   0  0  0  0  0  0  0  0  0  0  0  0
  139.8840   73.3530  223.5310 H   0  0  0  0  0  0  0  0  0  0  0  0
  140.0517   72.9507  220.5494 H   0  0  0  0  0  0  0  0  0  0  0  0
  139.0003   74.2019  221.3475 H   0  0  0  0  0  0  0  0  0  0  0  0
  141.8787   74.7898  218.6051 H   0  0  0  0  0  0  0  0  0  0  0  0
  142.5572   76.1008  219.5816 H   0  0  0  0  0  0  0  0  0  0  0  0
  143.9419   73.7548  218.2863 H   0  0  0  0  0  0  0  0  0  0  0  0
  144.6194   75.3211  218.6392 H   0  0  0  0  0  0  0  0  0  0  0  0
  144.8462   74.7393  221.0828 H   0  0  0  0  0  0  0  0  0  0  0  0
  146.4387   73.3437  220.9083 H   0  0  0  0  0  0  0  0  0  0  0  0
  145.3334   72.0190  220.4562 H   0  0  0  0  0  0  0  0  0  0  0  0
  146.3570   74.0820  218.7260 H   0  0  0  0  0  0  0  0  0  0  0  0
  142.9948   72.3573  220.2335 H   0  0  0  0  0  0  0  0  0  0  0  0
  143.2337   72.8605  221.8720 H   0  0  0  0  0  0  0  0  0  0  0  0
  138.7959   69.0509  222.7807 H   0  0  0  0  0  0  0  0  0  0  0  0
  138.6958   67.6195  224.7932 H   0  0  0  0  0  0  0  0  0  0  0  0
  139.2866   67.3407  227.2129 H   0  0  0  0  0  0  0  0  0  0  0  0
  141.4537   70.4971  229.1977 H   0  0  0  0  0  0  0  0  0  0  0  0
  141.4607   71.7897  227.0873 H   0  0  0  0  0  0  0  0  0  0  0  0
  1  2  2  0
  2  3  1  0
  3  4  1  0
  4  5  1  0
  5  6  2  0
  5  7  1  0
  7  8  1  0
  8  9  1  0
  9 10  1  0
 10 11  1  0
 11 12  1  0
 10 13  1  0
  2 14  1  0
 14 15  2  0
 15 16  1  0
 16 17  2  0
 17 18  1  0
 18 19  2  0
 19 20  1  0
 19 21  1  0
 21 22  2  0
 22 23  1  0
 23 24  2  0
 13  7  1  0
 24 14  1  0
 23 17  1  0
  3 25  1  0
  4 26  1  0
  4 27  1  0
  8 28  1  0
  8 29  1  0
  9 30  1  0
  9 31  1  0
 10 32  1  1
 11 33  1  0
 11 34  1  0
 12 35  1  0
 13 36  1  0
 13 37  1  0
 15 38  1  0
 16 39  1  0
 18 40  1  0
 21 41  1  0
 22 42  1  0
M  END
>  <smiles>  (19) 
O=C(NCC(=O)N1CC[C@H](CO)C1)c1ccc2cc(F)ccc2n1

>  <score_type>  (19) 
oracle

>  <origin>  (19) 
autodockgpu

>  <m_score__min__energy>  (19) 
-7.7199999999999998

>  <m_primary>  (19) 
energy

>  <rmsd>  (19) 
3.0493292993756365

>  <m_score__min__rmsd>  (19) 
3.0493292993756365

>  <meeko>  (19) 
{"free_energy": -7.61, "intermolecular_energy": -9.4, "internal_energy": -0.95, "cluster_size": 29, "cluster_id": 1, "rank_in_cluster": 5}

>  <energy>  (19) 
-7.07

>  <cluster_rmsd>  (19) 
1.64

>  <cluster>  (19) 
1

$$$$

     RDKit          3D

 42 44  0  0  0  0  0  0  0  0999 V2000
  140.5180   71.8330  221.0880 O   0  0  0  0  0  0  0  0  0  0  0  0
  140.1720   72.2690  222.2210 C   0  0  0  0  0  0  0  0  0  0  0  0
  139.8270   73.6350  222.3200 N   0  0  0  0  0  0  0  0  0  0  0  0
  139.8880   74.4450  221.1370 C   0  0  0  0  0  0  0  0  0  0  0  0
  141.1920   75.1450  220.9960 C   0  0  0  0  0  0  0  0  0  0  0  0
  141.4100   76.3000  221.4390 O   0  0  0  0  0  0  0  0  0  0  0  0
  142.2440   74.4670  220.3210 N   0  0  0  0  0  0  0  0  0  0  0  0
  142.5550   74.7000  218.9230 C   0  0  0  0  0  0  0  0  0  0  0  0
  143.8690   73.9930  218.6690 C   0  0  0  0  0  0  0  0  0  0  0  0
  144.4330   73.8760  220.0690 C   0  0  2  0  0  0  0  0  0  0  0  0
  145.5090   72.8340  220.1730 C   0  0  0  0  0  0  0  0  0  0  0  0
  146.5850   73.2660  219.4270 O   0  0  0  0  0  0  0  0  0  0  0  0
  143.1630   73.4750  220.8310 C   0  0  0  0  0  0  0  0  0  0  0  0
  140.1160   71.4330  223.4130 C   0  0  0  0  0  0  0  0  0  0  0  0
  139.5680   70.1610  223.3370 C   0  0  0  0  0  0  0  0  0  0  0  0
  139.4860   69.3240  224.4280 C   0  0  0  0  0  0  0  0  0  0  0  0
  139.9740   69.7840  225.6420 C   0  0  0  0  0  0  0  0  0  0  0  0
  139.9390   69.0210  226.7950 C   0  0  0  0  0  0  0  0  0  0  0  0
  140.4440   69.5510  227.9590 C   0  0  0  0  0  0  0  0  0  0  0  0
  140.4010   68.7950  229.0720 F   0  0  0  0  0  0  0  0  0  0  0  0
  140.9860   70.8180  228.0210 C   0  0  0  0  0  0  0  0  0  0  0  0
  141.0130   71.5550  226.8740 C   0  0  0  0  0  0  0  0  0  0  0  0
  140.5120   71.0440  225.6950 C   0  0  0  0  0  0  0  0  0  0  0  0
  140.5830   71.8540  224.6070 N   0  0  0  0  0  0  0  0  0  0  0  0
  139.5300   74.0760  223.2200 H   0  0  0  0  0  0  0  0  0  0  0  0
  139.7366   73.7999  220.2590 H   0  0  0  0  0  0  0  0  0  0  0  0
  139.1026   75.2113  221.2144 H   0  0  0  0  0  0  0  0  0  0  0  0
  141.7654   74.2833  218.2804 H   0  0  0  0  0  0  0  0  0  0  0  0
  142.6233   75.7744  218.6972 H   0  0  0  0  0  0  0  0  0  0  0  0
  143.7103   73.0028  218.2170 H   0  0  0  0  0  0  0  0  0  0  0  0
  144.5298   74.5200  217.9650 H   0  0  0  0  0  0  0  0  0  0  0  0
  144.9326   74.7831  220.4398 H   0  0  0  0  0  0  0  0  0  0  0  0
  145.8082   72.7082  221.2240 H   0  0  0  0  0  0  0  0  0  0  0  0
  145.1449   71.8658  219.7988 H   0  0  0  0  0  0  0  0  0  0  0  0
  146.3480   74.1150  218.9540 H   0  0  0  0  0  0  0  0  0  0  0  0
  142.8417   72.4532  220.5807 H   0  0  0  0  0  0  0  0  0  0  0  0
  143.2650   73.4559  221.9261 H   0  0  0  0  0  0  0  0  0  0  0  0
  139.1843   69.8072  222.3687 H   0  0  0  0  0  0  0  0  0  0  0  0
  139.0461   68.3197  224.3389 H   0  0  0  0  0  0  0  0  0  0  0  0
  139.5140   68.0065  226.7811 H   0  0  0  0  0  0  0  0  0  0  0  0
  141.3833   71.2205  228.9645 H   0  0  0  0  0  0  0  0  0  0  0  0
  141.4394   72.5689  226.8893 H   0  0  0  0  0  0  0  0  0  0  0  0
  1  2  2  0
  2  3  1  0
  3  4  1  0
  4  5  1  0
  5  6  2  0
  5  7  1  0
  7  8  1  0
  8  9  1  0
  9 10  1  0
 10 11  1  0
 11 12  1  0
 10 13  1  0
  2 14  1  0
 14 15  2  0
 15 16  1  0
 16 17  2  0
 17 18  1  0
 18 19  2  0
 19 20  1  0
 19 21  1  0
 21 22  2  0
 22 23  1  0
 23 24  2  0
 13  7  1  0
 24 14  1  0
 23 17  1  0
  3 25  1  0
  4 26  1  0
  4 27  1  0
  8 28  1  0
  8 29  1  0
  9 30  1  0
  9 31  1  0
 10 32  1  1
 11 33  1  0
 11 34  1  0
 12 35  1  0
 13 36  1  0
 13 37  1  0
 15 38  1  0
 16 39  1  0
 18 40  1  0
 21 41  1  0
 22 42  1  0
M  END
>  <smiles>  (20) 
O=C(NCC(=O)N1CC[C@H](CO)C1)c1ccc2cc(F)ccc2n1

>  <score_type>  (20) 
oracle

>  <origin>  (20) 
autodockgpu

>  <m_score__min__energy>  (20) 
-7.7199999999999998

>  <m_primary>  (20) 
energy

>  <rmsd>  (20) 
3.149610178313107

>  <m_score__min__rmsd>  (20) 
3.149610178313107

>  <meeko>  (20) 
{"free_energy": -7.32, "intermolecular_energy": -9.11, "internal_energy": -0.99, "cluster_size": 29, "cluster_id": 1, "rank_in_cluster": 11}

>  <energy>  (20) 
-6.97

>  <cluster_rmsd>  (20) 
0.87

>  <cluster>  (20) 
1

$$$$

     RDKit          3D

 42 44  0  0  0  0  0  0  0  0999 V2000
  141.4320   72.3560  221.6470 O   0  0  0  0  0  0  0  0  0  0  0  0
  140.4520   72.4590  222.4370 C   0  0  0  0  0  0  0  0  0  0  0  0
  139.5150   73.4870  222.1880 N   0  0  0  0  0  0  0  0  0  0  0  0
  139.7270   74.3480  221.0600 C   0  0  0  0  0  0  0  0  0  0  0  0
  140.5940   75.5100  221.3890 C   0  0  0  0  0  0  0  0  0  0  0  0
  140.4510   76.2120  222.4210 O   0  0  0  0  0  0  0  0  0  0  0  0
  141.6400   75.8400  220.4830 N   0  0  0  0  0  0  0  0  0  0  0  0
  142.8320   75.0260  220.3350 C   0  0  0  0  0  0  0  0  0  0  0  0
  143.5530   75.5680  219.1190 C   0  0  0  0  0  0  0  0  0  0  0  0
  142.4350   76.2870  218.3930 C   0  0  2  0  0  0  0  0  0  0  0  0
  142.9460   77.2840  217.3910 C   0  0  0  0  0  0  0  0  0  0  0  0
  143.1460   78.4770  218.0510 O   0  0  0  0  0  0  0  0  0  0  0  0
  141.7430   76.9650  219.5820 C   0  0  0  0  0  0  0  0  0  0  0  0
  140.2520   71.5760  223.5790 C   0  0  0  0  0  0  0  0  0  0  0  0
  139.5690   70.3790  223.4130 C   0  0  0  0  0  0  0  0  0  0  0  0
  139.3490   69.5040  224.4520 C   0  0  0  0  0  0  0  0  0  0  0  0
  139.8320   69.8430  225.7060 C   0  0  0  0  0  0  0  0  0  0  0  0
  139.6630   69.0330  226.8140 C   0  0  0  0  0  0  0  0  0  0  0  0
  140.1730   69.4420  228.0240 C   0  0  0  0  0  0  0  0  0  0  0  0
  139.9990   68.6410  229.0910 F   0  0  0  0  0  0  0  0  0  0  0  0
  140.8500   70.6350  228.1750 C   0  0  0  0  0  0  0  0  0  0  0  0
  141.0080   71.4210  227.0720 C   0  0  0  0  0  0  0  0  0  0  0  0
  140.5040   71.0300  225.8490 C   0  0  0  0  0  0  0  0  0  0  0  0
  140.7120   71.8810  224.8100 N   0  0  0  0  0  0  0  0  0  0  0  0
  138.6770   73.6420  222.7920 H   0  0  0  0  0  0  0  0  0  0  0  0
  140.2044   73.7672  220.2571 H   0  0  0  0  0  0  0  0  0  0  0  0
  138.7473   74.7384  220.7473 H   0  0  0  0  0  0  0  0  0  0  0  0
  143.4684   75.1128  221.2280 H   0  0  0  0  0  0  0  0  0  0  0  0
  142.5830   73.9611  220.2169 H   0  0  0  0  0  0  0  0  0  0  0  0
  144.3564   76.2625  219.4059 H   0  0  0  0  0  0  0  0  0  0  0  0
  144.0526   74.7958  218.5156 H   0  0  0  0  0  0  0  0  0  0  0  0
  141.7881   75.6363  217.7863 H   0  0  0  0  0  0  0  0  0  0  0  0
  143.8946   76.9302  216.9610 H   0  0  0  0  0  0  0  0  0  0  0  0
  142.2222   77.4132  216.5728 H   0  0  0  0  0  0  0  0  0  0  0  0
  143.7020   79.0860  217.4850 H   0  0  0  0  0  0  0  0  0  0  0  0
  142.3571   77.7733  220.0058 H   0  0  0  0  0  0  0  0  0  0  0  0
  140.7892   77.4589  219.3446 H   0  0  0  0  0  0  0  0  0  0  0  0
  139.1894   70.1202  222.4135 H   0  0  0  0  0  0  0  0  0  0  0  0
  138.8048   68.5616  224.2917 H   0  0  0  0  0  0  0  0  0  0  0  0
  139.1284   68.0754  226.7288 H   0  0  0  0  0  0  0  0  0  0  0  0
  141.2491   70.9418  229.1531 H   0  0  0  0  0  0  0  0  0  0  0  0
  141.5436   72.3779  227.1585 H   0  0  0  0  0  0  0  0  0  0  0  0
  1  2  2  0
  2  3  1  0
  3  4  1  0
  4  5  1  0
  5  6  2  0
  5  7  1  0
  7  8  1  0
  8  9  1  0
  9 10  1  0
 10 11  1  0
 11 12  1  0
 10 13  1  0
  2 14  1  0
 14 15  2  0
 15 16  1  0
 16 17  2  0
 17 18  1  0
 18 19  2  0
 19 20  1  0
 19 21  1  0
 21 22  2  0
 22 23  1  0
 23 24  2  0
 13  7  1  0
 24 14  1  0
 23 17  1  0
  3 25  1  0
  4 26  1  0
  4 27  1  0
  8 28  1  0
  8 29  1  0
  9 30  1  0
  9 31  1  0
 10 32  1  6
 11 33  1  0
 11 34  1  0
 12 35  1  0
 13 36  1  0
 13 37  1  0
 15 38  1  0
 16 39  1  0
 18 40  1  0
 21 41  1  0
 22 42  1  0
M  END
>  <smiles>  (21) 
O=C(NCC(=O)N1CC[C@H](CO)C1)c1ccc2cc(F)ccc2n1

>  <score_type>  (21) 
oracle

>  <origin>  (21) 
autodockgpu

>  <m_score__min__energy>  (21) 
-7.7199999999999998

>  <m_primary>  (21) 
energy

>  <rmsd>  (21) 
2.285080555240737

>  <m_score__min__rmsd>  (21) 
2.285080555240737

>  <meeko>  (21) 
{"free_energy": -6.95, "intermolecular_energy": -8.74, "internal_energy": -0.83, "cluster_size": 29, "cluster_id": 1, "rank_in_cluster": 21}

>  <energy>  (21) 
-6.95

>  <cluster_rmsd>  (21) 
1.93

>  <cluster>  (21) 
1

$$$$

     RDKit          3D

 42 44  0  0  0  0  0  0  0  0999 V2000
  135.6960   69.9640  224.1580 O   0  0  0  0  0  0  0  0  0  0  0  0
  135.8190   71.1900  224.4330 C   0  0  0  0  0  0  0  0  0  0  0  0
  136.9520   71.8650  223.9280 N   0  0  0  0  0  0  0  0  0  0  0  0
  137.8920   71.1250  223.1360 C   0  0  0  0  0  0  0  0  0  0  0  0
  139.3010   71.4250  223.5020 C   0  0  0  0  0  0  0  0  0  0  0  0
  140.0340   72.2130  222.8540 O   0  0  0  0  0  0  0  0  0  0  0  0
  139.8440   70.7820  224.6490 N   0  0  0  0  0  0  0  0  0  0  0  0
  140.3860   71.5180  225.7750 C   0  0  0  0  0  0  0  0  0  0  0  0
  140.6170   70.4930  226.8650 C   0  0  0  0  0  0  0  0  0  0  0  0
  139.6930   69.3720  226.4360 C   0  0  2  0  0  0  0  0  0  0  0  0
  140.0400   68.0600  227.0790 C   0  0  0  0  0  0  0  0  0  0  0  0
  139.2210   67.0960  226.5320 O   0  0  0  0  0  0  0  0  0  0  0  0
  139.9680   69.3690  224.9270 C   0  0  0  0  0  0  0  0  0  0  0  0
  134.8530   71.9260  225.2400 C   0  0  0  0  0  0  0  0  0  0  0  0
  133.8850   71.2360  225.9550 C   0  0  0  0  0  0  0  0  0  0  0  0
  132.9460   71.8740  226.7350 C   0  0  0  0  0  0  0  0  0  0  0  0
  132.9810   73.2590  226.7970 C   0  0  0  0  0  0  0  0  0  0  0  0
  132.0830   73.9930  227.5500 C   0  0  0  0  0  0  0  0  0  0  0  0
  132.1860   75.3650  227.5580 C   0  0  0  0  0  0  0  0  0  0  0  0
  131.3030   76.0640  228.2960 F   0  0  0  0  0  0  0  0  0  0  0  0
  133.1530   76.0390  226.8410 C   0  0  0  0  0  0  0  0  0  0  0  0
  134.0300   75.2980  226.1050 C   0  0  0  0  0  0  0  0  0  0  0  0
  133.9460   73.9210  226.0820 C   0  0  0  0  0  0  0  0  0  0  0  0
  134.8640   73.2720  225.3190 N   0  0  0  0  0  0  0  0  0  0  0  0
  137.1290   72.8780  224.1090 H   0  0  0  0  0  0  0  0  0  0  0  0
  137.7097   70.0503  223.2838 H   0  0  0  0  0  0  0  0  0  0  0  0
  137.7488   71.4172  222.0852 H   0  0  0  0  0  0  0  0  0  0  0  0
  141.3341   72.0010  225.4962 H   0  0  0  0  0  0  0  0  0  0  0  0
  139.7021   72.3135  226.1057 H   0  0  0  0  0  0  0  0  0  0  0  0
  141.6656   70.1614  226.8875 H   0  0  0  0  0  0  0  0  0  0  0  0
  140.4201   70.8693  227.8797 H   0  0  0  0  0  0  0  0  0  0  0  0
  138.6389   69.5120  226.7174 H   0  0  0  0  0  0  0  0  0  0  0  0
  141.0935   67.8128  226.8812 H   0  0  0  0  0  0  0  0  0  0  0  0
  139.8965   68.1148  228.1682 H   0  0  0  0  0  0  0  0  0  0  0  0
  139.2030   66.2920  227.1270 H   0  0  0  0  0  0  0  0  0  0  0  0
  140.9760   68.9940  224.6961 H   0  0  0  0  0  0  0  0  0  0  0  0
  139.3057   68.7196  224.3357 H   0  0  0  0  0  0  0  0  0  0  0  0
  133.8666   70.1377  225.8968 H   0  0  0  0  0  0  0  0  0  0  0  0
  132.1902   71.3015  227.2926 H   0  0  0  0  0  0  0  0  0  0  0  0
  131.2989   73.4881  228.1333 H   0  0  0  0  0  0  0  0  0  0  0  0
  133.2145   77.1371  226.8623 H   0  0  0  0  0  0  0  0  0  0  0  0
  134.8139   75.8043  225.5226 H   0  0  0  0  0  0  0  0  0  0  0  0
  1  2  2  0
  2  3  1  0
  3  4  1  0
  4  5  1  0
  5  6  2  0
  5  7  1  0
  7  8  1  0
  8  9  1  0
  9 10  1  0
 10 11  1  0
 11 12  1  0
 10 13  1  0
  2 14  1  0
 14 15  2  0
 15 16  1  0
 16 17  2  0
 17 18  1  0
 18 19  2  0
 19 20  1  0
 19 21  1  0
 21 22  2  0
 22 23  1  0
 23 24  2  0
 13  7  1  0
 24 14  1  0
 23 17  1  0
  3 25  1  0
  4 26  1  0
  4 27  1  0
  8 28  1  0
  8 29  1  0
  9 30  1  0
  9 31  1  0
 10 32  1  6
 11 33  1  0
 11 34  1  0
 12 35  1  0
 13 36  1  0
 13 37  1  0
 15 38  1  0
 16 39  1  0
 18 40  1  0
 21 41  1  0
 22 42  1  0
M  END
>  <smiles>  (22) 
O=C(NCC(=O)N1CC[C@H](CO)C1)c1ccc2cc(F)ccc2n1

>  <score_type>  (22) 
oracle

>  <origin>  (22) 
autodockgpu

>  <m_score__min__energy>  (22) 
-7.7199999999999998

>  <m_primary>  (22) 
energy

>  <rmsd>  (22) 
8.527570295934199

>  <m_score__min__rmsd>  (22) 
8.527570295934199

>  <meeko>  (22) 
{"free_energy": -6.65, "intermolecular_energy": -8.44, "internal_energy": -1.05, "cluster_size": 1, "cluster_id": 5, "rank_in_cluster": 1}

>  <energy>  (22) 
-6.82

>  <cluster_rmsd>  (22) 
1.47

>  <cluster>  (22) 
1

$$$$

     RDKit          3D

 42 44  0  0  0  0  0  0  0  0999 V2000
  140.7190   72.0020  221.1620 O   0  0  0  0  0  0  0  0  0  0  0  0
  140.2060   72.3560  222.2600 C   0  0  0  0  0  0  0  0  0  0  0  0
  139.6890   73.6670  222.3500 N   0  0  0  0  0  0  0  0  0  0  0  0
  139.7740   74.5170  221.1980 C   0  0  0  0  0  0  0  0  0  0  0  0
  140.9370   75.4410  221.2590 C   0  0  0  0  0  0  0  0  0  0  0  0
  142.1120   75.0980  220.9760 O   0  0  0  0  0  0  0  0  0  0  0  0
  140.7000   76.7850  221.6600 N   0  0  0  0  0  0  0  0  0  0  0  0
  139.4690   77.2050  222.3020 C   0  0  0  0  0  0  0  0  0  0  0  0
  139.7170   78.6170  222.7870 C   0  0  0  0  0  0  0  0  0  0  0  0
  141.2300   78.6640  222.8410 C   0  0  2  0  0  0  0  0  0  0  0  0
  141.7630   80.0680  222.8630 C   0  0  0  0  0  0  0  0  0  0  0  0
  142.4670   80.2670  221.6950 O   0  0  0  0  0  0  0  0  0  0  0  0
  141.5610   77.9390  221.5300 C   0  0  0  0  0  0  0  0  0  0  0  0
  140.1290   71.4790  223.4220 C   0  0  0  0  0  0  0  0  0  0  0  0
  139.5780   70.2120  223.2940 C   0  0  0  0  0  0  0  0  0  0  0  0
  139.4770   69.3390  224.3540 C   0  0  0  0  0  0  0  0  0  0  0  0
  139.9460   69.7560  225.5910 C   0  0  0  0  0  0  0  0  0  0  0  0
  139.8900   68.9540  226.7160 C   0  0  0  0  0  0  0  0  0  0  0  0
  140.3760   69.4420  227.9070 C   0  0  0  0  0  0  0  0  0  0  0  0
  140.3130   68.6490  228.9920 F   0  0  0  0  0  0  0  0  0  0  0  0
  140.9200   70.7050  228.0210 C   0  0  0  0  0  0  0  0  0  0  0  0
  140.9680   71.4810  226.9000 C   0  0  0  0  0  0  0  0  0  0  0  0
  140.4860   71.0120  225.6960 C   0  0  0  0  0  0  0  0  0  0  0  0
  140.5760   71.8580  224.6370 N   0  0  0  0  0  0  0  0  0  0  0  0
  139.2490   74.0390  223.2220 H   0  0  0  0  0  0  0  0  0  0  0  0
  139.8698   73.8875  220.3010 H   0  0  0  0  0  0  0  0  0  0  0  0
  138.8609   75.1295  221.1655 H   0  0  0  0  0  0  0  0  0  0  0  0
  138.6368   77.1878  221.5828 H   0  0  0  0  0  0  0  0  0  0  0  0
  139.1957   76.5348  223.1304 H   0  0  0  0  0  0  0  0  0  0  0  0
  139.3181   79.3593  222.0800 H   0  0  0  0  0  0  0  0  0  0  0  0
  139.2293   78.8515  223.7447 H   0  0  0  0  0  0  0  0  0  0  0  0
  141.6720   78.2189  223.7446 H   0  0  0  0  0  0  0  0  0  0  0  0
  140.9302   80.7840  222.9252 H   0  0  0  0  0  0  0  0  0  0  0  0
  142.4146   80.2192  223.7363 H   0  0  0  0  0  0  0  0  0  0  0  0
  143.3230   79.7500  221.7250 H   0  0  0  0  0  0  0  0  0  0  0  0
  141.3008   78.5460  220.6503 H   0  0  0  0  0  0  0  0  0  0  0  0
  142.6266   77.7091  221.3828 H   0  0  0  0  0  0  0  0  0  0  0  0
  139.2079   69.8929  222.3085 H   0  0  0  0  0  0  0  0  0  0  0  0
  139.0369   68.3393  224.2236 H   0  0  0  0  0  0  0  0  0  0  0  0
  139.4635   67.9416  226.6596 H   0  0  0  0  0  0  0  0  0  0  0  0
  141.3024   71.0740  228.9841 H   0  0  0  0  0  0  0  0  0  0  0  0
  141.3962   72.4926  226.9571 H   0  0  0  0  0  0  0  0  0  0  0  0
  1  2  2  0
  2  3  1  0
  3  4  1  0
  4  5  1  0
  5  6  2  0
  5  7  1  0
  7  8  1  0
  8  9  1  0
  9 10  1  0
 10 11  1  0
 11 12  1  0
 10 13  1  0
  2 14  1  0
 14 15  2  0
 15 16  1  0
 16 17  2  0
 17 18  1  0
 18 19  2  0
 19 20  1  0
 19 21  1  0
 21 22  2  0
 22 23  1  0
 23 24  2  0
 13  7  1  0
 24 14  1  0
 23 17  1  0
  3 25  1  0
  4 26  1  0
  4 27  1  0
  8 28  1  0
  8 29  1  0
  9 30  1  0
  9 31  1  0
 10 32  1  1
 11 33  1  0
 11 34  1  0
 12 35  1  0
 13 36  1  0
 13 37  1  0
 15 38  1  0
 16 39  1  0
 18 40  1  0
 21 41  1  0
 22 42  1  0
M  END
>  <smiles>  (23) 
O=C(NCC(=O)N1CC[C@H](CO)C1)c1ccc2cc(F)ccc2n1

>  <score_type>  (23) 
oracle

>  <origin>  (23) 
autodockgpu

>  <m_score__min__energy>  (23) 
-7.7199999999999998

>  <m_primary>  (23) 
energy

>  <rmsd>  (23) 
3.578361991366345

>  <m_score__min__rmsd>  (23) 
3.578361991366345

>  <meeko>  (23) 
{"free_energy": -7.17, "intermolecular_energy": -8.96, "internal_energy": -0.75, "cluster_size": 12, "cluster_id": 2, "rank_in_cluster": 7}

>  <energy>  (23) 
-6.81

>  <cluster_rmsd>  (23) 
1.07

>  <cluster>  (23) 
1

$$$$

     RDKit          3D

 42 44  0  0  0  0  0  0  0  0999 V2000
  141.7570   72.8360  221.0080 O   0  0  0  0  0  0  0  0  0  0  0  0
  140.9980   73.6920  221.5400 C   0  0  0  0  0  0  0  0  0  0  0  0
  139.9010   73.2170  222.2940 N   0  0  0  0  0  0  0  0  0  0  0  0
  139.7150   71.8000  222.4130 C   0  0  0  0  0  0  0  0  0  0  0  0
  138.9660   71.4270  223.6420 C   0  0  0  0  0  0  0  0  0  0  0  0
  137.7590   71.7210  223.8350 O   0  0  0  0  0  0  0  0  0  0  0  0
  139.6570   70.6990  224.6490 N   0  0  0  0  0  0  0  0  0  0  0  0
  140.6680   71.3040  225.4960 C   0  0  0  0  0  0  0  0  0  0  0  0
  140.9630   70.2860  226.5770 C   0  0  0  0  0  0  0  0  0  0  0  0
  139.7150   69.4290  226.5430 C   0  0  2  0  0  0  0  0  0  0  0  0
  139.9160   68.0900  227.1940 C   0  0  0  0  0  0  0  0  0  0  0  0
  139.2070   67.1590  226.4670 O   0  0  0  0  0  0  0  0  0  0  0  0
  139.5190   69.3110  225.0260 C   0  0  0  0  0  0  0  0  0  0  0  0
  141.2010   75.1290  221.4090 C   0  0  0  0  0  0  0  0  0  0  0  0
  141.9460   75.6260  220.3480 C   0  0  0  0  0  0  0  0  0  0  0  0
  142.1730   76.9720  220.1700 C   0  0  0  0  0  0  0  0  0  0  0  0
  141.6330   77.8530  221.0940 C   0  0  0  0  0  0  0  0  0  0  0  0
  141.8050   79.2230  221.0050 C   0  0  0  0  0  0  0  0  0  0  0  0
  141.2360   80.0290  221.9630 C   0  0  0  0  0  0  0  0  0  0  0  0
  141.4140   81.3600  221.8600 F   0  0  0  0  0  0  0  0  0  0  0  0
  140.4990   79.5230  223.0140 C   0  0  0  0  0  0  0  0  0  0  0  0
  140.3400   78.1700  223.0850 C   0  0  0  0  0  0  0  0  0  0  0  0
  140.9020   77.3420  222.1350 C   0  0  0  0  0  0  0  0  0  0  0  0
  140.6890   76.0100  222.2930 N   0  0  0  0  0  0  0  0  0  0  0  0
  139.2250   73.8580  222.7670 H   0  0  0  0  0  0  0  0  0  0  0  0
  139.1552   71.4425  221.5362 H   0  0  0  0  0  0  0  0  0  0  0  0
  140.7102   71.3354  222.4733 H   0  0  0  0  0  0  0  0  0  0  0  0
  141.5764   71.5192  224.9143 H   0  0  0  0  0  0  0  0  0  0  0  0
  140.3223   72.2577  225.9213 H   0  0  0  0  0  0  0  0  0  0  0  0
  141.8605   69.6965  226.3381 H   0  0  0  0  0  0  0  0  0  0  0  0
  141.1727   70.7293  227.5616 H   0  0  0  0  0  0  0  0  0  0  0  0
  138.8579   69.8443  227.0934 H   0  0  0  0  0  0  0  0  0  0  0  0
  140.9849   67.8302  227.1938 H   0  0  0  0  0  0  0  0  0  0  0  0
  139.5654   68.1124  228.2364 H   0  0  0  0  0  0  0  0  0  0  0  0
  139.3090   66.2560  226.8850 H   0  0  0  0  0  0  0  0  0  0  0  0
  140.2931   68.6825  224.5616 H   0  0  0  0  0  0  0  0  0  0  0  0
  138.5763   68.8370  224.7151 H   0  0  0  0  0  0  0  0  0  0  0  0
  142.3710   74.9172  219.6221 H   0  0  0  0  0  0  0  0  0  0  0  0
  142.7660   77.3380  219.3189 H   0  0  0  0  0  0  0  0  0  0  0  0
  142.3877   79.6606  220.1810 H   0  0  0  0  0  0  0  0  0  0  0  0
  140.0547   80.1881  223.7691 H   0  0  0  0  0  0  0  0  0  0  0  0
  139.7568   77.7339  223.9094 H   0  0  0  0  0  0  0  0  0  0  0  0
  1  2  2  0
  2  3  1  0
  3  4  1  0
  4  5  1  0
  5  6  2  0
  5  7  1  0
  7  8  1  0
  8  9  1  0
  9 10  1  0
 10 11  1  0
 11 12  1  0
 10 13  1  0
  2 14  1  0
 14 15  2  0
 15 16  1  0
 16 17  2  0
 17 18  1  0
 18 19  2  0
 19 20  1  0
 19 21  1  0
 21 22  2  0
 22 23  1  0
 23 24  2  0
 13  7  1  0
 24 14  1  0
 23 17  1  0
  3 25  1  0
  4 26  1  0
  4 27  1  0
  8 28  1  0
  8 29  1  0
  9 30  1  0
  9 31  1  0
 10 32  1  1
 11 33  1  0
 11 34  1  0
 12 35  1  0
 13 36  1  0
 13 37  1  0
 15 38  1  0
 16 39  1  0
 18 40  1  0
 21 41  1  0
 22 42  1  0
M  END
>  <smiles>  (24) 
O=C(NCC(=O)N1CC[C@H](CO)C1)c1ccc2cc(F)ccc2n1

>  <score_type>  (24) 
oracle

>  <origin>  (24) 
autodockgpu

>  <m_score__min__energy>  (24) 
-7.7199999999999998

>  <m_primary>  (24) 
energy

>  <rmsd>  (24) 
9.162428360959519

>  <m_score__min__rmsd>  (24) 
9.162428360959519

>  <meeko>  (24) 
{"free_energy": -6.93, "intermolecular_energy": -8.72, "internal_energy": -0.95, "cluster_size": 5, "cluster_id": 4, "rank_in_cluster": 2}

>  <energy>  (24) 
-6.8

>  <cluster_rmsd>  (24) 
1.1

>  <cluster>  (24) 
1

$$$$

     RDKit          3D

 42 44  0  0  0  0  0  0  0  0999 V2000
  141.2050   72.3270  221.5310 O   0  0  0  0  0  0  0  0  0  0  0  0
  140.3520   72.5000  222.4460 C   0  0  0  0  0  0  0  0  0  0  0  0
  139.5030   73.6250  222.3460 N   0  0  0  0  0  0  0  0  0  0  0  0
  139.6560   74.5000  221.2200 C   0  0  0  0  0  0  0  0  0  0  0  0
  140.8380   75.3930  221.3520 C   0  0  0  0  0  0  0  0  0  0  0  0
  142.0180   75.0170  221.1400 O   0  0  0  0  0  0  0  0  0  0  0  0
  140.6140   76.7430  221.7380 N   0  0  0  0  0  0  0  0  0  0  0  0
  139.3860   77.1820  222.3730 C   0  0  0  0  0  0  0  0  0  0  0  0
  139.6480   78.5960  222.8440 C   0  0  0  0  0  0  0  0  0  0  0  0
  141.1610   78.6290  222.9000 C   0  0  2  0  0  0  0  0  0  0  0  0
  141.7080   80.0270  222.9080 C   0  0  0  0  0  0  0  0  0  0  0  0
  142.6160   80.1280  221.8760 O   0  0  0  0  0  0  0  0  0  0  0  0
  141.4870   77.8860  221.5970 C   0  0  0  0  0  0  0  0  0  0  0  0
  140.2110   71.6000  223.5840 C   0  0  0  0  0  0  0  0  0  0  0  0
  139.5680   70.3820  223.4230 C   0  0  0  0  0  0  0  0  0  0  0  0
  139.4030   69.4900  224.4590 C   0  0  0  0  0  0  0  0  0  0  0  0
  139.9030   69.8370  225.7050 C   0  0  0  0  0  0  0  0  0  0  0  0
  139.7890   69.0120  226.8090 C   0  0  0  0  0  0  0  0  0  0  0  0
  140.3120   69.4290  228.0100 C   0  0  0  0  0  0  0  0  0  0  0  0
  140.1910   68.6140  229.0740 F   0  0  0  0  0  0  0  0  0  0  0  0
  140.9490   70.6450  228.1570 C   0  0  0  0  0  0  0  0  0  0  0  0
  141.0530   71.4450  227.0570 C   0  0  0  0  0  0  0  0  0  0  0  0
  140.5350   71.0460  225.8430 C   0  0  0  0  0  0  0  0  0  0  0  0
  140.6870   71.9120  224.8070 N   0  0  0  0  0  0  0  0  0  0  0  0
  138.7710   73.8410  223.0600 H   0  0  0  0  0  0  0  0  0  0  0  0
  139.7738   73.8901  220.3122 H   0  0  0  0  0  0  0  0  0  0  0  0
  138.7600   75.1357  221.1653 H   0  0  0  0  0  0  0  0  0  0  0  0
  138.5552   77.1661  221.6522 H   0  0  0  0  0  0  0  0  0  0  0  0
  139.1037   76.5231  223.2074 H   0  0  0  0  0  0  0  0  0  0  0  0
  139.2575   79.3351  222.1289 H   0  0  0  0  0  0  0  0  0  0  0  0
  139.1615   78.8447  223.7987 H   0  0  0  0  0  0  0  0  0  0  0  0
  141.5971   78.1897  223.8093 H   0  0  0  0  0  0  0  0  0  0  0  0
  140.8917   80.7495  222.7607 H   0  0  0  0  0  0  0  0  0  0  0  0
  142.1934   80.2451  223.8707 H   0  0  0  0  0  0  0  0  0  0  0  0
  143.3270   79.4330  221.9830 H   0  0  0  0  0  0  0  0  0  0  0  0
  141.2347   78.4860  220.7103 H   0  0  0  0  0  0  0  0  0  0  0  0
  142.5504   77.6434  221.4543 H   0  0  0  0  0  0  0  0  0  0  0  0
  139.1748   70.1184  222.4301 H   0  0  0  0  0  0  0  0  0  0  0  0
  138.8894   68.5299  224.3027 H   0  0  0  0  0  0  0  0  0  0  0  0
  139.2872   68.0365  226.7274 H   0  0  0  0  0  0  0  0  0  0  0  0
  141.3589   70.9582  229.1285 H   0  0  0  0  0  0  0  0  0  0  0  0
  141.5560   72.4198  227.1394 H   0  0  0  0  0  0  0  0  0  0  0  0
  1  2  2  0
  2  3  1  0
  3  4  1  0
  4  5  1  0
  5  6  2  0
  5  7  1  0
  7  8  1  0
  8  9  1  0
  9 10  1  0
 10 11  1  0
 11 12  1  0
 10 13  1  0
  2 14  1  0
 14 15  2  0
 15 16  1  0
 16 17  2  0
 17 18  1  0
 18 19  2  0
 19 20  1  0
 19 21  1  0
 21 22  2  0
 22 23  1  0
 23 24  2  0
 13  7  1  0
 24 14  1  0
 23 17  1  0
  3 25  1  0
  4 26  1  0
  4 27  1  0
  8 28  1  0
  8 29  1  0
  9 30  1  0
  9 31  1  0
 10 32  1  1
 11 33  1  0
 11 34  1  0
 12 35  1  0
 13 36  1  0
 13 37  1  0
 15 38  1  0
 16 39  1  0
 18 40  1  0
 21 41  1  0
 22 42  1  0
M  END
>  <smiles>  (25) 
O=C(NCC(=O)N1CC[C@H](CO)C1)c1ccc2cc(F)ccc2n1

>  <score_type>  (25) 
oracle

>  <origin>  (25) 
autodockgpu

>  <m_score__min__energy>  (25) 
-7.7199999999999998

>  <m_primary>  (25) 
energy

>  <rmsd>  (25) 
3.6122322400010054

>  <m_score__min__rmsd>  (25) 
3.6122322400010054

>  <meeko>  (25) 
{"free_energy": -7.43, "intermolecular_energy": -9.22, "internal_energy": -0.69, "cluster_size": 12, "cluster_id": 2, "rank_in_cluster": 6}

>  <energy>  (25) 
-6.67

>  <cluster_rmsd>  (25) 
1.42

>  <cluster>  (25) 
1

$$$$

     RDKit          3D

 42 44  0  0  0  0  0  0  0  0999 V2000
  140.4760   71.0770  221.4060 O   0  0  0  0  0  0  0  0  0  0  0  0
  140.0720   71.5270  222.5140 C   0  0  0  0  0  0  0  0  0  0  0  0
  139.6730   72.8810  222.5650 N   0  0  0  0  0  0  0  0  0  0  0  0
  139.7500   73.6630  221.3640 C   0  0  0  0  0  0  0  0  0  0  0  0
  140.8920   74.6140  221.3790 C   0  0  0  0  0  0  0  0  0  0  0  0
  140.9150   75.6590  222.0760 O   0  0  0  0  0  0  0  0  0  0  0  0
  142.0150   74.3210  220.5580 N   0  0  0  0  0  0  0  0  0  0  0  0
  142.8660   75.3550  219.9980 C   0  0  0  0  0  0  0  0  0  0  0  0
  144.0640   74.6340  219.4170 C   0  0  0  0  0  0  0  0  0  0  0  0
  144.0280   73.3190  220.1690 C   0  0  2  0  0  0  0  0  0  0  0  0
  144.8250   72.2430  219.4890 C   0  0  0  0  0  0  0  0  0  0  0  0
  146.1230   72.3330  219.9420 O   0  0  0  0  0  0  0  0  0  0  0  0
  142.5200   73.0360  220.1300 C   0  0  0  0  0  0  0  0  0  0  0  0
  140.0010   70.7180  223.7240 C   0  0  0  0  0  0  0  0  0  0  0  0
  139.3470   69.4940  223.6990 C   0  0  0  0  0  0  0  0  0  0  0  0
  139.2460   68.6860  224.8080 C   0  0  0  0  0  0  0  0  0  0  0  0
  139.8240   69.1250  225.9910 C   0  0  0  0  0  0  0  0  0  0  0  0
  139.7780   68.3880  227.1600 C   0  0  0  0  0  0  0  0  0  0  0  0
  140.3750   68.8940  228.2900 C   0  0  0  0  0  0  0  0  0  0  0  0
  140.3200   68.1630  229.4200 F   0  0  0  0  0  0  0  0  0  0  0  0
  141.0220   70.1130  228.3030 C   0  0  0  0  0  0  0  0  0  0  0  0
  141.0570   70.8250  227.1400 C   0  0  0  0  0  0  0  0  0  0  0  0
  140.4640   70.3370  225.9950 C   0  0  0  0  0  0  0  0  0  0  0  0
  140.5530   71.1200  224.8880 N   0  0  0  0  0  0  0  0  0  0  0  0
  139.3260   73.3320  223.4410 H   0  0  0  0  0  0  0  0  0  0  0  0
  139.8675   72.9835  220.5070 H   0  0  0  0  0  0  0  0  0  0  0  0
  138.8242   74.2521  221.2876 H   0  0  0  0  0  0  0  0  0  0  0  0
  142.3314   75.9059  219.2101 H   0  0  0  0  0  0  0  0  0  0  0  0
  143.1660   76.0891  220.7603 H   0  0  0  0  0  0  0  0  0  0  0  0
  143.9519   74.4793  218.3337 H   0  0  0  0  0  0  0  0  0  0  0  0
  145.0107   75.1836  219.5252 H   0  0  0  0  0  0  0  0  0  0  0  0
  144.4702   73.3531  221.1756 H   0  0  0  0  0  0  0  0  0  0  0  0
  144.4092   71.2553  219.7373 H   0  0  0  0  0  0  0  0  0  0  0  0
  144.7887   72.3688  218.3968 H   0  0  0  0  0  0  0  0  0  0  0  0
  146.1990   71.8940  220.8380 H   0  0  0  0  0  0  0  0  0  0  0  0
  142.1784   72.7797  219.1163 H   0  0  0  0  0  0  0  0  0  0  0  0
  142.1920   72.1815  220.7402 H   0  0  0  0  0  0  0  0  0  0  0  0
  138.8918   69.1569  222.7560 H   0  0  0  0  0  0  0  0  0  0  0  0
  138.7223   67.7199  224.7585 H   0  0  0  0  0  0  0  0  0  0  0  0
  139.2715   67.4119  227.1853 H   0  0  0  0  0  0  0  0  0  0  0  0
  141.4933   70.4972  229.2197 H   0  0  0  0  0  0  0  0  0  0  0  0
  141.5646   71.8006  227.1154 H   0  0  0  0  0  0  0  0  0  0  0  0
  1  2  2  0
  2  3  1  0
  3  4  1  0
  4  5  1  0
  5  6  2  0
  5  7  1  0
  7  8  1  0
  8  9  1  0
  9 10  1  0
 10 11  1  0
 11 12  1  0
 10 13  1  0
  2 14  1  0
 14 15  2  0
 15 16  1  0
 16 17  2  0
 17 18  1  0
 18 19  2  0
 19 20  1  0
 19 21  1  0
 21 22  2  0
 22 23  1  0
 23 24  2  0
 13  7  1  0
 24 14  1  0
 23 17  1  0
  3 25  1  0
  4 26  1  0
  4 27  1  0
  8 28  1  0
  8 29  1  0
  9 30  1  0
  9 31  1  0
 10 32  1  1
 11 33  1  0
 11 34  1  0
 12 35  1  0
 13 36  1  0
 13 37  1  0
 15 38  1  0
 16 39  1  0
 18 40  1  0
 21 41  1  0
 22 42  1  0
M  END
>  <smiles>  (26) 
O=C(NCC(=O)N1CC[C@H](CO)C1)c1ccc2cc(F)ccc2n1

>  <score_type>  (26) 
oracle

>  <origin>  (26) 
autodockgpu

>  <m_score__min__energy>  (26) 
-7.7199999999999998

>  <m_primary>  (26) 
energy

>  <rmsd>  (26) 
3.0643828277737595

>  <m_score__min__rmsd>  (26) 
3.0643828277737595

>  <meeko>  (26) 
{"free_energy": -7.23, "intermolecular_energy": -9.02, "internal_energy": -0.92, "cluster_size": 29, "cluster_id": 1, "rank_in_cluster": 13}

>  <energy>  (26) 
-6.62

>  <cluster_rmsd>  (26) 
0.97

>  <cluster>  (26) 
1

$$$$

     RDKit          3D

 42 44  0  0  0  0  0  0  0  0999 V2000
  141.5660   72.8600  220.8740 O   0  0  0  0  0  0  0  0  0  0  0  0
  140.8650   73.7100  221.4900 C   0  0  0  0  0  0  0  0  0  0  0  0
  139.8110   73.2280  222.2990 N   0  0  0  0  0  0  0  0  0  0  0  0
  139.5990   71.8120  222.3740 C   0  0  0  0  0  0  0  0  0  0  0  0
  138.8740   71.4120  223.6090 C   0  0  0  0  0  0  0  0  0  0  0  0
  137.6680   71.6890  223.8260 O   0  0  0  0  0  0  0  0  0  0  0  0
  139.5880   70.6750  224.5930 N   0  0  0  0  0  0  0  0  0  0  0  0
  140.6830   71.2460  225.3550 C   0  0  0  0  0  0  0  0  0  0  0  0
  140.9920   70.2440  226.4470 C   0  0  0  0  0  0  0  0  0  0  0  0
  139.7010   69.4570  226.5190 C   0  0  2  0  0  0  0  0  0  0  0  0
  139.8710   68.1280  227.1980 C   0  0  0  0  0  0  0  0  0  0  0  0
  139.2050   67.1840  226.4470 O   0  0  0  0  0  0  0  0  0  0  0  0
  139.4020   69.3080  225.0210 C   0  0  0  0  0  0  0  0  0  0  0  0
  141.0940   75.1470  221.4010 C   0  0  0  0  0  0  0  0  0  0  0  0
  141.8970   75.6550  220.3900 C   0  0  0  0  0  0  0  0  0  0  0  0
  142.1500   77.0020  220.2540 C   0  0  0  0  0  0  0  0  0  0  0  0
  141.5770   77.8700  221.1700 C   0  0  0  0  0  0  0  0  0  0  0  0
  141.7700   79.2390  221.1200 C   0  0  0  0  0  0  0  0  0  0  0  0
  141.1650   80.0320  222.0670 C   0  0  0  0  0  0  0  0  0  0  0  0
  141.3650   81.3620  222.0030 F   0  0  0  0  0  0  0  0  0  0  0  0
  140.3690   79.5130  223.0680 C   0  0  0  0  0  0  0  0  0  0  0  0
  140.1900   78.1620  223.1010 C   0  0  0  0  0  0  0  0  0  0  0  0
  140.7870   77.3470  222.1620 C   0  0  0  0  0  0  0  0  0  0  0  0
  140.5490   76.0150  222.2780 N   0  0  0  0  0  0  0  0  0  0  0  0
  139.1840   73.8640  222.8410 H   0  0  0  0  0  0  0  0  0  0  0  0
  139.0097   71.4963  221.5005 H   0  0  0  0  0  0  0  0  0  0  0  0
  140.5855   71.3257  222.3918 H   0  0  0  0  0  0  0  0  0  0  0  0
  141.5622   71.3936  224.7106 H   0  0  0  0  0  0  0  0  0  0  0  0
  140.4175   72.2291  225.7709 H   0  0  0  0  0  0  0  0  0  0  0  0
  141.8394   69.5992  226.1709 H   0  0  0  0  0  0  0  0  0  0  0  0
  141.2880   70.7028  227.4019 H   0  0  0  0  0  0  0  0  0  0  0  0
  138.9046   69.9340  227.1092 H   0  0  0  0  0  0  0  0  0  0  0  0
  140.9392   67.8725  227.2587 H   0  0  0  0  0  0  0  0  0  0  0  0
  139.4647   68.1633  228.2196 H   0  0  0  0  0  0  0  0  0  0  0  0
  139.3020   66.2850  226.8730 H   0  0  0  0  0  0  0  0  0  0  0  0
  140.1107   68.6257  224.5288 H   0  0  0  0  0  0  0  0  0  0  0  0
  138.4176   68.8776  224.7848 H   0  0  0  0  0  0  0  0  0  0  0  0
  142.3483   74.9560  219.6704 H   0  0  0  0  0  0  0  0  0  0  0  0
  142.7888   77.3782  219.4413 H   0  0  0  0  0  0  0  0  0  0  0  0
  142.3976   79.6863  220.3351 H   0  0  0  0  0  0  0  0  0  0  0  0
  139.8949   80.1676  223.8142 H   0  0  0  0  0  0  0  0  0  0  0  0
  139.5617   77.7163  223.8862 H   0  0  0  0  0  0  0  0  0  0  0  0
  1  2  2  0
  2  3  1  0
  3  4  1  0
  4  5  1  0
  5  6  2  0
  5  7  1  0
  7  8  1  0
  8  9  1  0
  9 10  1  0
 10 11  1  0
 11 12  1  0
 10 13  1  0
  2 14  1  0
 14 15  2  0
 15 16  1  0
 16 17  2  0
 17 18  1  0
 18 19  2  0
 19 20  1  0
 19 21  1  0
 21 22  2  0
 22 23  1  0
 23 24  2  0
 13  7  1  0
 24 14  1  0
 23 17  1  0
  3 25  1  0
  4 26  1  0
  4 27  1  0
  8 28  1  0
  8 29  1  0
  9 30  1  0
  9 31  1  0
 10 32  1  1
 11 33  1  0
 11 34  1  0
 12 35  1  0
 13 36  1  0
 13 37  1  0
 15 38  1  0
 16 39  1  0
 18 40  1  0
 21 41  1  0
 22 42  1  0
M  END
>  <smiles>  (27) 
O=C(NCC(=O)N1CC[C@H](CO)C1)c1ccc2cc(F)ccc2n1

>  <score_type>  (27) 
oracle

>  <origin>  (27) 
autodockgpu

>  <m_score__min__energy>  (27) 
-7.7199999999999998

>  <m_primary>  (27) 
energy

>  <rmsd>  (27) 
9.13203956183231

>  <m_score__min__rmsd>  (27) 
9.13203956183231

>  <meeko>  (27) 
{"free_energy": -6.88, "intermolecular_energy": -8.67, "internal_energy": -0.96, "cluster_size": 5, "cluster_id": 4, "rank_in_cluster": 3}

>  <energy>  (27) 
-6.56

>  <cluster_rmsd>  (27) 
1.31

>  <cluster>  (27) 
1

$$$$

     RDKit          3D

 42 44  0  0  0  0  0  0  0  0999 V2000
  140.8910   71.9670  221.2070 O   0  0  0  0  0  0  0  0  0  0  0  0
  140.2880   72.3390  222.2520 C   0  0  0  0  0  0  0  0  0  0  0  0
  139.7170   73.6320  222.2530 N   0  0  0  0  0  0  0  0  0  0  0  0
  139.8540   74.4420  221.0770 C   0  0  0  0  0  0  0  0  0  0  0  0
  141.0230   75.3560  221.1500 C   0  0  0  0  0  0  0  0  0  0  0  0
  142.1930   75.0120  220.8450 O   0  0  0  0  0  0  0  0  0  0  0  0
  140.8010   76.6900  221.5900 N   0  0  0  0  0  0  0  0  0  0  0  0
  139.6700   77.0620  222.4190 C   0  0  0  0  0  0  0  0  0  0  0  0
  139.9360   78.4830  222.8670 C   0  0  0  0  0  0  0  0  0  0  0  0
  141.4350   78.5900  222.6830 C   0  0  2  0  0  0  0  0  0  0  0  0
  141.9110   80.0130  222.6280 C   0  0  0  0  0  0  0  0  0  0  0  0
  143.2810   80.0040  222.7790 O   0  0  0  0  0  0  0  0  0  0  0  0
  141.5850   77.8760  221.3330 C   0  0  0  0  0  0  0  0  0  0  0  0
  140.1590   71.5040  223.4390 C   0  0  0  0  0  0  0  0  0  0  0  0
  139.5090   70.2800  223.3530 C   0  0  0  0  0  0  0  0  0  0  0  0
  139.3550   69.4470  224.4380 C   0  0  0  0  0  0  0  0  0  0  0  0
  139.8730   69.8590  225.6560 C   0  0  0  0  0  0  0  0  0  0  0  0
  139.7710   69.0950  226.8050 C   0  0  0  0  0  0  0  0  0  0  0  0
  140.3110   69.5750  227.9750 C   0  0  0  0  0  0  0  0  0  0  0  0
  140.2020   68.8190  229.0830 F   0  0  0  0  0  0  0  0  0  0  0  0
  140.9550   70.7940  228.0470 C   0  0  0  0  0  0  0  0  0  0  0  0
  141.0460   71.5330  226.9040 C   0  0  0  0  0  0  0  0  0  0  0  0
  140.5110   71.0710  225.7200 C   0  0  0  0  0  0  0  0  0  0  0  0
  140.6520   71.8790  224.6370 N   0  0  0  0  0  0  0  0  0  0  0  0
  139.2020   74.0180  223.0760 H   0  0  0  0  0  0  0  0  0  0  0  0
  139.9762   73.7816  220.2058 H   0  0  0  0  0  0  0  0  0  0  0  0
  138.9494   75.0618  220.9903 H   0  0  0  0  0  0  0  0  0  0  0  0
  138.7369   77.0118  221.8387 H   0  0  0  0  0  0  0  0  0  0  0  0
  139.5557   76.3822  223.2762 H   0  0  0  0  0  0  0  0  0  0  0  0
  139.4021   79.2086  222.2357 H   0  0  0  0  0  0  0  0  0  0  0  0
  139.5963   78.6984  223.8908 H   0  0  0  0  0  0  0  0  0  0  0  0
  142.0297   78.1643  223.5047 H   0  0  0  0  0  0  0  0  0  0  0  0
  141.6441   80.4599  221.6590 H   0  0  0  0  0  0  0  0  0  0  0  0
  141.4400   80.6073  223.4249 H   0  0  0  0  0  0  0  0  0  0  0  0
  143.7000   79.5090  222.0170 H   0  0  0  0  0  0  0  0  0  0  0  0
  141.1672   78.4710  220.5075 H   0  0  0  0  0  0  0  0  0  0  0  0
  142.6227   77.6875  221.0205 H   0  0  0  0  0  0  0  0  0  0  0  0
  139.1018   69.9641  222.3812 H   0  0  0  0  0  0  0  0  0  0  0  0
  138.8358   68.4821  224.3413 H   0  0  0  0  0  0  0  0  0  0  0  0
  139.2655   68.1183  226.7829 H   0  0  0  0  0  0  0  0  0  0  0  0
  141.3804   71.1572  228.9942 H   0  0  0  0  0  0  0  0  0  0  0  0
  141.5523   72.5093  226.9271 H   0  0  0  0  0  0  0  0  0  0  0  0
  1  2  2  0
  2  3  1  0
  3  4  1  0
  4  5  1  0
  5  6  2  0
  5  7  1  0
  7  8  1  0
  8  9  1  0
  9 10  1  0
 10 11  1  0
 11 12  1  0
 10 13  1  0
  2 14  1  0
 14 15  2  0
 15 16  1  0
 16 17  2  0
 17 18  1  0
 18 19  2  0
 19 20  1  0
 19 21  1  0
 21 22  2  0
 22 23  1  0
 23 24  2  0
 13  7  1  0
 24 14  1  0
 23 17  1  0
  3 25  1  0
  4 26  1  0
  4 27  1  0
  8 28  1  0
  8 29  1  0
  9 30  1  0
  9 31  1  0
 10 32  1  1
 11 33  1  0
 11 34  1  0
 12 35  1  0
 13 36  1  0
 13 37  1  0
 15 38  1  0
 16 39  1  0
 18 40  1  0
 21 41  1  0
 22 42  1  0
M  END
>  <smiles>  (28) 
O=C(NCC(=O)N1CC[C@H](CO)C1)c1ccc2cc(F)ccc2n1

>  <score_type>  (28) 
oracle

>  <origin>  (28) 
autodockgpu

>  <m_score__min__energy>  (28) 
-7.7199999999999998

>  <m_primary>  (28) 
energy

>  <rmsd>  (28) 
3.6076702313071096

>  <m_score__min__rmsd>  (28) 
3.6076702313071096

>  <meeko>  (28) 
{"free_energy": -7.45, "intermolecular_energy": -9.23, "internal_energy": -0.74, "cluster_size": 12, "cluster_id": 2, "rank_in_cluster": 5}

>  <energy>  (28) 
-6.52

>  <cluster_rmsd>  (28) 
1.22

>  <cluster>  (28) 
1

$$$$

     RDKit          3D

 42 44  0  0  0  0  0  0  0  0999 V2000
  138.8910   70.9950  221.7050 O   0  0  0  0  0  0  0  0  0  0  0  0
  139.5060   71.3550  222.7470 C   0  0  0  0  0  0  0  0  0  0  0  0
  140.0650   72.6530  222.7630 N   0  0  0  0  0  0  0  0  0  0  0  0
  139.9020   73.4820  221.6040 C   0  0  0  0  0  0  0  0  0  0  0  0
  141.0310   74.4320  221.4220 C   0  0  0  0  0  0  0  0  0  0  0  0
  141.0650   75.5760  221.9410 O   0  0  0  0  0  0  0  0  0  0  0  0
  142.1290   74.0180  220.6190 N   0  0  0  0  0  0  0  0  0  0  0  0
  142.4580   74.6540  219.3570 C   0  0  0  0  0  0  0  0  0  0  0  0
  143.8100   74.1020  218.9570 C   0  0  0  0  0  0  0  0  0  0  0  0
  144.3490   73.6140  220.2850 C   0  0  2  0  0  0  0  0  0  0  0  0
  145.4730   72.6300  220.1250 C   0  0  0  0  0  0  0  0  0  0  0  0
  146.4040   73.1900  219.2770 O   0  0  0  0  0  0  0  0  0  0  0  0
  143.0840   72.9600  220.8580 C   0  0  0  0  0  0  0  0  0  0  0  0
  139.6630   70.4990  223.9160 C   0  0  0  0  0  0  0  0  0  0  0  0
  139.1990   69.1910  223.8790 C   0  0  0  0  0  0  0  0  0  0  0  0
  139.3180   68.3350  224.9500 C   0  0  0  0  0  0  0  0  0  0  0  0
  139.9250   68.8100  226.1030 C   0  0  0  0  0  0  0  0  0  0  0  0
  140.0910   68.0300  227.2330 C   0  0  0  0  0  0  0  0  0  0  0  0
  140.7040   68.5770  228.3360 C   0  0  0  0  0  0  0  0  0  0  0  0
  140.8570   67.8030  229.4270 F   0  0  0  0  0  0  0  0  0  0  0  0
  141.1590   69.8790  228.3590 C   0  0  0  0  0  0  0  0  0  0  0  0
  140.9870   70.6330  227.2360 C   0  0  0  0  0  0  0  0  0  0  0  0
  140.3750   70.1050  226.1180 C   0  0  0  0  0  0  0  0  0  0  0  0
  140.2480   70.9350  225.0500 N   0  0  0  0  0  0  0  0  0  0  0  0
  140.5900   73.0280  223.5840 H   0  0  0  0  0  0  0  0  0  0  0  0
  139.8363   72.8373  220.7152 H   0  0  0  0  0  0  0  0  0  0  0  0
  138.9852   74.0739  221.7419 H   0  0  0  0  0  0  0  0  0  0  0  0
  141.7032   74.4077  218.5957 H   0  0  0  0  0  0  0  0  0  0  0  0
  142.4793   75.7499  219.4493 H   0  0  0  0  0  0  0  0  0  0  0  0
  143.7087   73.2760  218.2377 H   0  0  0  0  0  0  0  0  0  0  0  0
  144.4593   74.8336  218.4539 H   0  0  0  0  0  0  0  0  0  0  0  0
  144.7951   74.3974  220.9153 H   0  0  0  0  0  0  0  0  0  0  0  0
  145.9329   72.4247  221.1029 H   0  0  0  0  0  0  0  0  0  0  0  0
  145.0983   71.6815  219.7127 H   0  0  0  0  0  0  0  0  0  0  0  0
  146.1690   74.1470  219.1050 H   0  0  0  0  0  0  0  0  0  0  0  0
  142.8186   72.0397  220.3171 H   0  0  0  0  0  0  0  0  0  0  0  0
  143.1633   72.6332  221.9053 H   0  0  0  0  0  0  0  0  0  0  0  0
  138.7185   68.8253  222.9596 H   0  0  0  0  0  0  0  0  0  0  0  0
  138.9421   67.3028  224.8931 H   0  0  0  0  0  0  0  0  0  0  0  0
  139.7382   66.9882  227.2493 H   0  0  0  0  0  0  0  0  0  0  0  0
  141.6446   70.2953  229.2539 H   0  0  0  0  0  0  0  0  0  0  0  0
  141.3404   71.6746  227.2213 H   0  0  0  0  0  0  0  0  0  0  0  0
  1  2  2  0
  2  3  1  0
  3  4  1  0
  4  5  1  0
  5  6  2  0
  5  7  1  0
  7  8  1  0
  8  9  1  0
  9 10  1  0
 10 11  1  0
 11 12  1  0
 10 13  1  0
  2 14  1  0
 14 15  2  0
 15 16  1  0
 16 17  2  0
 17 18  1  0
 18 19  2  0
 19 20  1  0
 19 21  1  0
 21 22  2  0
 22 23  1  0
 23 24  2  0
 13  7  1  0
 24 14  1  0
 23 17  1  0
  3 25  1  0
  4 26  1  0
  4 27  1  0
  8 28  1  0
  8 29  1  0
  9 30  1  0
  9 31  1  0
 10 32  1  1
 11 33  1  0
 11 34  1  0
 12 35  1  0
 13 36  1  0
 13 37  1  0
 15 38  1  0
 16 39  1  0
 18 40  1  0
 21 41  1  0
 22 42  1  0
M  END
>  <smiles>  (29) 
O=C(NCC(=O)N1CC[C@H](CO)C1)c1ccc2cc(F)ccc2n1

>  <score_type>  (29) 
oracle

>  <origin>  (29) 
autodockgpu

>  <m_score__min__energy>  (29) 
-7.7199999999999998

>  <m_primary>  (29) 
energy

>  <rmsd>  (29) 
3.1260247409860282

>  <m_score__min__rmsd>  (29) 
3.1260247409860282

>  <meeko>  (29) 
{"free_energy": -7.14, "intermolecular_energy": -8.93, "internal_energy": -0.96, "cluster_size": 29, "cluster_id": 1, "rank_in_cluster": 16}

>  <energy>  (29) 
-6.37

>  <cluster_rmsd>  (29) 
1.24

>  <cluster>  (29) 
1

$$$$

     RDKit          3D

 42 44  0  0  0  0  0  0  0  0999 V2000
  138.7110   71.7090  221.1190 O   0  0  0  0  0  0  0  0  0  0  0  0
  139.4120   72.1160  222.0860 C   0  0  0  0  0  0  0  0  0  0  0  0
  140.0160   73.3880  221.9690 N   0  0  0  0  0  0  0  0  0  0  0  0
  139.7980   74.1400  220.7660 C   0  0  0  0  0  0  0  0  0  0  0  0
  140.9440   74.0450  219.8230 C   0  0  0  0  0  0  0  0  0  0  0  0
  140.8920   74.4320  218.6290 O   0  0  0  0  0  0  0  0  0  0  0  0
  142.1600   73.4870  220.3040 N   0  0  0  0  0  0  0  0  0  0  0  0
  142.3160   72.0710  220.5780 C   0  0  0  0  0  0  0  0  0  0  0  0
  143.7950   71.8570  220.8180 C   0  0  0  0  0  0  0  0  0  0  0  0
  144.3970   73.0690  220.1370 C   0  0  2  0  0  0  0  0  0  0  0  0
  145.8000   73.3500  220.5930 C   0  0  0  0  0  0  0  0  0  0  0  0
  146.6130   73.3370  219.4800 O   0  0  0  0  0  0  0  0  0  0  0  0
  143.4100   74.1480  220.6030 C   0  0  0  0  0  0  0  0  0  0  0  0
  139.6230   71.3380  223.3010 C   0  0  0  0  0  0  0  0  0  0  0  0
  139.2650   69.9980  223.3320 C   0  0  0  0  0  0  0  0  0  0  0  0
  139.4390   69.2110  224.4480 C   0  0  0  0  0  0  0  0  0  0  0  0
  139.9930   69.7940  225.5780 C   0  0  0  0  0  0  0  0  0  0  0  0
  140.2090   69.0900  226.7490 C   0  0  0  0  0  0  0  0  0  0  0  0
  140.7640   69.7420  227.8250 C   0  0  0  0  0  0  0  0  0  0  0  0
  140.9660   69.0420  228.9570 F   0  0  0  0  0  0  0  0  0  0  0  0
  141.1150   71.0760  227.7810 C   0  0  0  0  0  0  0  0  0  0  0  0
  140.8960   71.7530  226.6180 C   0  0  0  0  0  0  0  0  0  0  0  0
  140.3400   71.1190  225.5260 C   0  0  0  0  0  0  0  0  0  0  0  0
  140.1600   71.8790  224.4140 N   0  0  0  0  0  0  0  0  0  0  0  0
  140.6120   73.7990  222.7220 H   0  0  0  0  0  0  0  0  0  0  0  0
  138.8968   73.7546  220.2668 H   0  0  0  0  0  0  0  0  0  0  0  0
  139.6818   75.1970  221.0474 H   0  0  0  0  0  0  0  0  0  0  0  0
  141.7384   71.7878  221.4703 H   0  0  0  0  0  0  0  0  0  0  0  0
  141.9481   71.4548  219.7444 H   0  0  0  0  0  0  0  0  0  0  0  0
  144.0288   71.8440  221.8928 H   0  0  0  0  0  0  0  0  0  0  0  0
  144.1742   70.8973  220.4370 H   0  0  0  0  0  0  0  0  0  0  0  0
  144.5066   72.9760  219.0464 H   0  0  0  0  0  0  0  0  0  0  0  0
  145.8457   74.3359  221.0788 H   0  0  0  0  0  0  0  0  0  0  0  0
  146.1284   72.5915  221.3188 H   0  0  0  0  0  0  0  0  0  0  0  0
  146.7090   74.2660  219.1220 H   0  0  0  0  0  0  0  0  0  0  0  0
  143.5135   74.3599  221.6774 H   0  0  0  0  0  0  0  0  0  0  0  0
  143.5399   75.1321  220.1289 H   0  0  0  0  0  0  0  0  0  0  0  0
  138.8252   69.5471  222.4302 H   0  0  0  0  0  0  0  0  0  0  0  0
  139.1471   68.1504  224.4437 H   0  0  0  0  0  0  0  0  0  0  0  0
  139.9410   68.0254  226.8183 H   0  0  0  0  0  0  0  0  0  0  0  0
  141.5568   71.5765  228.6553 H   0  0  0  0  0  0  0  0  0  0  0  0
  141.1658   72.8172  226.5495 H   0  0  0  0  0  0  0  0  0  0  0  0
  1  2  2  0
  2  3  1  0
  3  4  1  0
  4  5  1  0
  5  6  2  0
  5  7  1  0
  7  8  1  0
  8  9  1  0
  9 10  1  0
 10 11  1  0
 11 12  1  0
 10 13  1  0
  2 14  1  0
 14 15  2  0
 15 16  1  0
 16 17  2  0
 17 18  1  0
 18 19  2  0
 19 20  1  0
 19 21  1  0
 21 22  2  0
 22 23  1  0
 23 24  2  0
 13  7  1  0
 24 14  1  0
 23 17  1  0
  3 25  1  0
  4 26  1  0
  4 27  1  0
  8 28  1  0
  8 29  1  0
  9 30  1  0
  9 31  1  0
 10 32  1  6
 11 33  1  0
 11 34  1  0
 12 35  1  0
 13 36  1  0
 13 37  1  0
 15 38  1  0
 16 39  1  0
 18 40  1  0
 21 41  1  0
 22 42  1  0
M  END
>  <smiles>  (30) 
O=C(NCC(=O)N1CC[C@H](CO)C1)c1ccc2cc(F)ccc2n1

>  <score_type>  (30) 
oracle

>  <origin>  (30) 
autodockgpu

>  <m_score__min__energy>  (30) 
-7.7199999999999998

>  <m_primary>  (30) 
energy

>  <rmsd>  (30) 
3.6494573247766966

>  <m_score__min__rmsd>  (30) 
3.6494573247766966

>  <meeko>  (30) 
{"free_energy": -6.37, "intermolecular_energy": -8.16, "internal_energy": -1.16, "cluster_size": 29, "cluster_id": 1, "rank_in_cluster": 29}

>  <energy>  (30) 
-7.56

>  <cluster_rmsd>  (30) 
0.0

>  <cluster>  (30) 
2

$$$$

     RDKit          3D

 42 44  0  0  0  0  0  0  0  0999 V2000
  138.4380   71.8890  222.1230 O   0  0  0  0  0  0  0  0  0  0  0  0
  139.4420   71.8900  222.8880 C   0  0  0  0  0  0  0  0  0  0  0  0
  140.4450   72.8570  222.6510 N   0  0  0  0  0  0  0  0  0  0  0  0
  140.2680   73.7750  221.5640 C   0  0  0  0  0  0  0  0  0  0  0  0
  140.7010   73.2040  220.2620 C   0  0  0  0  0  0  0  0  0  0  0  0
  139.9190   72.6330  219.4600 O   0  0  0  0  0  0  0  0  0  0  0  0
  142.0750   73.3110  219.9100 N   0  0  0  0  0  0  0  0  0  0  0  0
  142.5540   74.2400  218.9030 C   0  0  0  0  0  0  0  0  0  0  0  0
  144.0630   74.2240  219.0120 C   0  0  0  0  0  0  0  0  0  0  0  0
  144.2660   73.6910  220.4150 C   0  0  2  0  0  0  0  0  0  0  0  0
  145.6520   73.1560  220.6350 C   0  0  0  0  0  0  0  0  0  0  0  0
  146.3200   73.2140  219.4310 O   0  0  0  0  0  0  0  0  0  0  0  0
  143.2080   72.5810  220.4300 C   0  0  0  0  0  0  0  0  0  0  0  0
  139.6070   70.9490  223.9880 C   0  0  0  0  0  0  0  0  0  0  0  0
  139.1270   69.6530  223.8640 C   0  0  0  0  0  0  0  0  0  0  0  0
  139.2520   68.7180  224.8670 C   0  0  0  0  0  0  0  0  0  0  0  0
  139.8830   69.1010  226.0410 C   0  0  0  0  0  0  0  0  0  0  0  0
  140.0580   68.2380  227.1080 C   0  0  0  0  0  0  0  0  0  0  0  0
  140.6940   68.6960  228.2380 C   0  0  0  0  0  0  0  0  0  0  0  0
  140.8550   67.8430  229.2660 F   0  0  0  0  0  0  0  0  0  0  0  0
  141.1650   69.9880  228.3490 C   0  0  0  0  0  0  0  0  0  0  0  0
  140.9840   70.8250  227.2870 C   0  0  0  0  0  0  0  0  0  0  0  0
  140.3490   70.3870  226.1440 C   0  0  0  0  0  0  0  0  0  0  0  0
  140.2150   71.2940  225.1420 N   0  0  0  0  0  0  0  0  0  0  0  0
  141.3080   72.9270  223.2370 H   0  0  0  0  0  0  0  0  0  0  0  0
  139.2027   74.0405  221.4962 H   0  0  0  0  0  0  0  0  0  0  0  0
  140.8922   74.6578  221.7665 H   0  0  0  0  0  0  0  0  0  0  0  0
  142.2389   73.9144  217.9007 H   0  0  0  0  0  0  0  0  0  0  0  0
  142.1475   75.2503  219.0581 H   0  0  0  0  0  0  0  0  0  0  0  0
  144.5119   73.5570  218.2612 H   0  0  0  0  0  0  0  0  0  0  0  0
  144.5331   75.2025  218.8346 H   0  0  0  0  0  0  0  0  0  0  0  0
  144.1638   74.4435  221.2108 H   0  0  0  0  0  0  0  0  0  0  0  0
  146.1755   73.7687  221.3837 H   0  0  0  0  0  0  0  0  0  0  0  0
  145.6110   72.1202  221.0031 H   0  0  0  0  0  0  0  0  0  0  0  0
  146.5720   74.1610  219.2300 H   0  0  0  0  0  0  0  0  0  0  0  0
  143.4876   71.7411  219.7770 H   0  0  0  0  0  0  0  0  0  0  0  0
  143.0455   72.1076  221.4095 H   0  0  0  0  0  0  0  0  0  0  0  0
  138.6274   69.3613  222.9284 H   0  0  0  0  0  0  0  0  0  0  0  0
  138.8627   67.6970  224.7407 H   0  0  0  0  0  0  0  0  0  0  0  0
  139.6940   67.2014  227.0534 H   0  0  0  0  0  0  0  0  0  0  0  0
  141.6699   70.3320  229.2638 H   0  0  0  0  0  0  0  0  0  0  0  0
  141.3488   71.8612  227.3431 H   0  0  0  0  0  0  0  0  0  0  0  0
  1  2  2  0
  2  3  1  0
  3  4  1  0
  4  5  1  0
  5  6  2  0
  5  7  1  0
  7  8  1  0
  8  9  1  0
  9 10  1  0
 10 11  1  0
 11 12  1  0
 10 13  1  0
  2 14  1  0
 14 15  2  0
 15 16  1  0
 16 17  2  0
 17 18  1  0
 18 19  2  0
 19 20  1  0
 19 21  1  0
 21 22  2  0
 22 23  1  0
 23 24  2  0
 13  7  1  0
 24 14  1  0
 23 17  1  0
  3 25  1  0
  4 26  1  0
  4 27  1  0
  8 28  1  0
  8 29  1  0
  9 30  1  0
  9 31  1  0
 10 32  1  1
 11 33  1  0
 11 34  1  0
 12 35  1  0
 13 36  1  0
 13 37  1  0
 15 38  1  0
 16 39  1  0
 18 40  1  0
 21 41  1  0
 22 42  1  0
M  END
>  <smiles>  (31) 
O=C(NCC(=O)N1CC[C@H](CO)C1)c1ccc2cc(F)ccc2n1

>  <score_type>  (31) 
oracle

>  <origin>  (31) 
autodockgpu

>  <m_score__min__energy>  (31) 
-7.7199999999999998

>  <m_primary>  (31) 
energy

>  <rmsd>  (31) 
3.3266117617606312

>  <m_score__min__rmsd>  (31) 
3.3266117617606312

>  <meeko>  (31) 
{"free_energy": -6.62, "intermolecular_energy": -8.41, "internal_energy": -0.88, "cluster_size": 29, "cluster_id": 1, "rank_in_cluster": 26}

>  <energy>  (31) 
-7.54

>  <cluster_rmsd>  (31) 
0.13

>  <cluster>  (31) 
2

$$$$

     RDKit          3D

 42 44  0  0  0  0  0  0  0  0999 V2000
  139.1830   70.8300  221.5580 O   0  0  0  0  0  0  0  0  0  0  0  0
  139.6070   71.2530  222.6690 C   0  0  0  0  0  0  0  0  0  0  0  0
  140.0210   72.6020  222.7420 N   0  0  0  0  0  0  0  0  0  0  0  0
  139.9360   73.4090  221.5580 C   0  0  0  0  0  0  0  0  0  0  0  0
  141.0380   74.4030  221.4700 C   0  0  0  0  0  0  0  0  0  0  0  0
  141.0590   75.4750  222.1250 O   0  0  0  0  0  0  0  0  0  0  0  0
  142.1230   74.1210  220.5950 N   0  0  0  0  0  0  0  0  0  0  0  0
  142.5480   75.0390  219.5560 C   0  0  0  0  0  0  0  0  0  0  0  0
  143.8610   74.4940  219.0340 C   0  0  0  0  0  0  0  0  0  0  0  0
  144.3100   73.6180  220.1860 C   0  0  2  0  0  0  0  0  0  0  0  0
  145.3500   72.6150  219.7770 C   0  0  0  0  0  0  0  0  0  0  0  0
  146.3480   73.2920  219.1100 O   0  0  0  0  0  0  0  0  0  0  0  0
  142.9750   72.9550  220.5480 C   0  0  0  0  0  0  0  0  0  0  0  0
  139.6860   70.4190  223.8610 C   0  0  0  0  0  0  0  0  0  0  0  0
  139.1600   69.1350  223.8410 C   0  0  0  0  0  0  0  0  0  0  0  0
  139.2050   68.3000  224.9340 C   0  0  0  0  0  0  0  0  0  0  0  0
  139.8000   68.7740  226.0940 C   0  0  0  0  0  0  0  0  0  0  0  0
  139.8940   68.0140  227.2460 C   0  0  0  0  0  0  0  0  0  0  0  0
  140.5000   68.5580  228.3550 C   0  0  0  0  0  0  0  0  0  0  0  0
  140.5830   67.8040  229.4670 F   0  0  0  0  0  0  0  0  0  0  0  0
  141.0180   69.8370  228.3620 C   0  0  0  0  0  0  0  0  0  0  0  0
  140.9160   70.5700  227.2170 C   0  0  0  0  0  0  0  0  0  0  0  0
  140.3130   70.0450  226.0930 C   0  0  0  0  0  0  0  0  0  0  0  0
  140.2590   70.8540  225.0030 N   0  0  0  0  0  0  0  0  0  0  0  0
  140.3840   73.0310  223.6220 H   0  0  0  0  0  0  0  0  0  0  0  0
  139.9826   72.7510  220.6778 H   0  0  0  0  0  0  0  0  0  0  0  0
  138.9865   73.9631  221.5969 H   0  0  0  0  0  0  0  0  0  0  0  0
  141.8012   75.0764  218.7492 H   0  0  0  0  0  0  0  0  0  0  0  0
  142.6601   76.0629  219.9421 H   0  0  0  0  0  0  0  0  0  0  0  0
  143.7143   73.9055  218.1163 H   0  0  0  0  0  0  0  0  0  0  0  0
  144.5875   75.2713  218.7547 H   0  0  0  0  0  0  0  0  0  0  0  0
  144.8001   74.1578  221.0097 H   0  0  0  0  0  0  0  0  0  0  0  0
  145.7641   72.1206  220.6681 H   0  0  0  0  0  0  0  0  0  0  0  0
  144.9074   71.8452  219.1278 H   0  0  0  0  0  0  0  0  0  0  0  0
  146.4500   74.2080  219.4980 H   0  0  0  0  0  0  0  0  0  0  0  0
  142.6500   72.2423  219.7757 H   0  0  0  0  0  0  0  0  0  0  0  0
  142.9900   72.3536  221.4689 H   0  0  0  0  0  0  0  0  0  0  0  0
  138.6890   68.7707  222.9161 H   0  0  0  0  0  0  0  0  0  0  0  0
  138.7813   67.2859  224.8891 H   0  0  0  0  0  0  0  0  0  0  0  0
  139.4907   66.9910  227.2750 H   0  0  0  0  0  0  0  0  0  0  0  0
  141.4972   70.2513  229.2613 H   0  0  0  0  0  0  0  0  0  0  0  0
  141.3196   71.5929  227.1892 H   0  0  0  0  0  0  0  0  0  0  0  0
  1  2  2  0
  2  3  1  0
  3  4  1  0
  4  5  1  0
  5  6  2  0
  5  7  1  0
  7  8  1  0
  8  9  1  0
  9 10  1  0
 10 11  1  0
 11 12  1  0
 10 13  1  0
  2 14  1  0
 14 15  2  0
 15 16  1  0
 16 17  2  0
 17 18  1  0
 18 19  2  0
 19 20  1  0
 19 21  1  0
 21 22  2  0
 22 23  1  0
 23 24  2  0
 13  7  1  0
 24 14  1  0
 23 17  1  0
  3 25  1  0
  4 26  1  0
  4 27  1  0
  8 28  1  0
  8 29  1  0
  9 30  1  0
  9 31  1  0
 10 32  1  1
 11 33  1  0
 11 34  1  0
 12 35  1  0
 13 36  1  0
 13 37  1  0
 15 38  1  0
 16 39  1  0
 18 40  1  0
 21 41  1  0
 22 42  1  0
M  END
>  <smiles>  (32) 
O=C(NCC(=O)N1CC[C@H](CO)C1)c1ccc2cc(F)ccc2n1

>  <score_type>  (32) 
oracle

>  <origin>  (32) 
autodockgpu

>  <m_score__min__energy>  (32) 
-7.7199999999999998

>  <m_primary>  (32) 
energy

>  <rmsd>  (32) 
3.0441635875211026

>  <m_score__min__rmsd>  (32) 
3.0441635875211026

>  <meeko>  (32) 
{"free_energy": -7.22, "intermolecular_energy": -9.01, "internal_energy": -1.0, "cluster_size": 29, "cluster_id": 1, "rank_in_cluster": 14}

>  <energy>  (32) 
-7.54

>  <cluster_rmsd>  (32) 
0.08

>  <cluster>  (32) 
2

$$$$

     RDKit          3D

 42 44  0  0  0  0  0  0  0  0999 V2000
  138.0990   71.7640  222.8190 O   0  0  0  0  0  0  0  0  0  0  0  0
  139.2660   71.4270  223.1630 C   0  0  0  0  0  0  0  0  0  0  0  0
  140.3470   71.9740  222.4370 N   0  0  0  0  0  0  0  0  0  0  0  0
  140.0610   72.8750  221.3580 C   0  0  0  0  0  0  0  0  0  0  0  0
  140.9080   74.0960  221.3980 C   0  0  0  0  0  0  0  0  0  0  0  0
  140.5640   75.1600  221.9710 O   0  0  0  0  0  0  0  0  0  0  0  0
  142.1740   74.0510  220.7520 N   0  0  0  0  0  0  0  0  0  0  0  0
  142.7210   75.1810  220.0250 C   0  0  0  0  0  0  0  0  0  0  0  0
  144.1590   74.8180  219.7190 C   0  0  0  0  0  0  0  0  0  0  0  0
  144.4360   73.7510  220.7580 C   0  0  2  0  0  0  0  0  0  0  0  0
  145.6270   72.9040  220.4120 C   0  0  0  0  0  0  0  0  0  0  0  0
  145.9770   73.1850  219.1090 O   0  0  0  0  0  0  0  0  0  0  0  0
  143.1220   72.9630  220.6800 C   0  0  0  0  0  0  0  0  0  0  0  0
  139.5380   70.5100  224.2620 C   0  0  0  0  0  0  0  0  0  0  0  0
  139.1310   69.1860  224.1730 C   0  0  0  0  0  0  0  0  0  0  0  0
  139.3590   68.2730  225.1770 C   0  0  0  0  0  0  0  0  0  0  0  0
  140.0210   68.7060  226.3160 C   0  0  0  0  0  0  0  0  0  0  0  0
  140.2980   67.8670  227.3800 C   0  0  0  0  0  0  0  0  0  0  0  0
  140.9590   68.3740  228.4740 C   0  0  0  0  0  0  0  0  0  0  0  0
  141.2200   67.5430  229.5010 F   0  0  0  0  0  0  0  0  0  0  0  0
  141.3580   69.6930  228.5510 C   0  0  0  0  0  0  0  0  0  0  0  0
  141.0760   70.5050  227.4920 C   0  0  0  0  0  0  0  0  0  0  0  0
  140.4150   70.0170  226.3850 C   0  0  0  0  0  0  0  0  0  0  0  0
  140.1800   70.9040  225.3820 N   0  0  0  0  0  0  0  0  0  0  0  0
  141.3430   71.7470  222.6560 H   0  0  0  0  0  0  0  0  0  0  0  0
  140.2385   72.3533  220.4060 H   0  0  0  0  0  0  0  0  0  0  0  0
  139.0121   73.1918  221.4554 H   0  0  0  0  0  0  0  0  0  0  0  0
  142.1605   75.3442  219.0927 H   0  0  0  0  0  0  0  0  0  0  0  0
  142.6538   76.1098  220.6104 H   0  0  0  0  0  0  0  0  0  0  0  0
  144.2635   74.4205  218.6987 H   0  0  0  0  0  0  0  0  0  0  0  0
  144.8525   75.6709  219.7599 H   0  0  0  0  0  0  0  0  0  0  0  0
  144.6903   74.1363  221.7564 H   0  0  0  0  0  0  0  0  0  0  0  0
  146.4642   73.1424  221.0845 H   0  0  0  0  0  0  0  0  0  0  0  0
  145.3862   71.8366  220.5245 H   0  0  0  0  0  0  0  0  0  0  0  0
  146.3200   74.1230  219.0470 H   0  0  0  0  0  0  0  0  0  0  0  0
  143.0346   72.4070  219.7349 H   0  0  0  0  0  0  0  0  0  0  0  0
  142.9989   72.1887  221.4516 H   0  0  0  0  0  0  0  0  0  0  0  0
  138.6061   68.8538  223.2652 H   0  0  0  0  0  0  0  0  0  0  0  0
  139.0256   67.2293  225.0789 H   0  0  0  0  0  0  0  0  0  0  0  0
  139.9942   66.8102  227.3515 H   0  0  0  0  0  0  0  0  0  0  0  0
  141.8857   70.0765  229.4367 H   0  0  0  0  0  0  0  0  0  0  0  0
  141.3796   71.5619  227.5216 H   0  0  0  0  0  0  0  0  0  0  0  0
  1  2  2  0
  2  3  1  0
  3  4  1  0
  4  5  1  0
  5  6  2  0
  5  7  1  0
  7  8  1  0
  8  9  1  0
  9 10  1  0
 10 11  1  0
 11 12  1  0
 10 13  1  0
  2 14  1  0
 14 15  2  0
 15 16  1  0
 16 17  2  0
 17 18  1  0
 18 19  2  0
 19 20  1  0
 19 21  1  0
 21 22  2  0
 22 23  1  0
 23 24  2  0
 13  7  1  0
 24 14  1  0
 23 17  1  0
  3 25  1  0
  4 26  1  0
  4 27  1  0
  8 28  1  0
  8 29  1  0
  9 30  1  0
  9 31  1  0
 10 32  1  1
 11 33  1  0
 11 34  1  0
 12 35  1  0
 13 36  1  0
 13 37  1  0
 15 38  1  0
 16 39  1  0
 18 40  1  0
 21 41  1  0
 22 42  1  0
M  END
>  <smiles>  (33) 
O=C(NCC(=O)N1CC[C@H](CO)C1)c1ccc2cc(F)ccc2n1

>  <score_type>  (33) 
oracle

>  <origin>  (33) 
autodockgpu

>  <m_score__min__energy>  (33) 
-7.7199999999999998

>  <m_primary>  (33) 
energy

>  <rmsd>  (33) 
3.2049404299359314

>  <m_score__min__rmsd>  (33) 
3.2049404299359314

>  <meeko>  (33) 
{"free_energy": -7.48, "intermolecular_energy": -9.27, "internal_energy": -0.71, "cluster_size": 29, "cluster_id": 1, "rank_in_cluster": 8}

>  <energy>  (33) 
-7.45

>  <cluster_rmsd>  (33) 
0.17

>  <cluster>  (33) 
2

$$$$

     RDKit          3D

 42 44  0  0  0  0  0  0  0  0999 V2000
  138.1650   71.4670  222.6090 O   0  0  0  0  0  0  0  0  0  0  0  0
  139.3120   71.1810  223.0490 C   0  0  0  0  0  0  0  0  0  0  0  0
  140.4270   71.7450  222.3890 N   0  0  0  0  0  0  0  0  0  0  0  0
  140.1940   72.6050  221.2650 C   0  0  0  0  0  0  0  0  0  0  0  0
  140.9510   73.8810  221.3600 C   0  0  0  0  0  0  0  0  0  0  0  0
  140.5230   74.8970  221.9620 O   0  0  0  0  0  0  0  0  0  0  0  0
  142.2260   73.9490  220.7340 N   0  0  0  0  0  0  0  0  0  0  0  0
  142.7150   75.1500  220.0850 C   0  0  0  0  0  0  0  0  0  0  0  0
  144.1750   74.8900  219.7820 C   0  0  0  0  0  0  0  0  0  0  0  0
  144.5010   73.7800  220.7600 C   0  0  2  0  0  0  0  0  0  0  0  0
  145.7440   73.0260  220.3840 C   0  0  0  0  0  0  0  0  0  0  0  0
  145.9380   73.1850  219.0290 O   0  0  0  0  0  0  0  0  0  0  0  0
  143.2370   72.9230  220.6130 C   0  0  0  0  0  0  0  0  0  0  0  0
  139.5310   70.3050  224.1930 C   0  0  0  0  0  0  0  0  0  0  0  0
  139.0430   69.0060  224.1700 C   0  0  0  0  0  0  0  0  0  0  0  0
  139.2170   68.1310  225.2190 C   0  0  0  0  0  0  0  0  0  0  0  0
  139.9080   68.5790  226.3350 C   0  0  0  0  0  0  0  0  0  0  0  0
  140.1360   67.7790  227.4400 C   0  0  0  0  0  0  0  0  0  0  0  0
  140.8300   68.2990  228.5070 C   0  0  0  0  0  0  0  0  0  0  0  0
  141.0420   67.5060  229.5740 F   0  0  0  0  0  0  0  0  0  0  0  0
  141.3100   69.5930  228.5170 C   0  0  0  0  0  0  0  0  0  0  0  0
  141.0760   70.3660  227.4190 C   0  0  0  0  0  0  0  0  0  0  0  0
  140.3820   69.8660  226.3370 C   0  0  0  0  0  0  0  0  0  0  0  0
  140.1990   70.7130  225.2920 N   0  0  0  0  0  0  0  0  0  0  0  0
  141.4110   71.5590  222.6890 H   0  0  0  0  0  0  0  0  0  0  0  0
  140.5012   72.0796  220.3487 H   0  0  0  0  0  0  0  0  0  0  0  0
  139.1222   72.8518  221.2486 H   0  0  0  0  0  0  0  0  0  0  0  0
  142.1581   75.3366  219.1549 H   0  0  0  0  0  0  0  0  0  0  0  0
  142.5857   76.0364  220.7235 H   0  0  0  0  0  0  0  0  0  0  0  0
  144.3159   74.5615  218.7417 H   0  0  0  0  0  0  0  0  0  0  0  0
  144.8165   75.7776  219.8852 H   0  0  0  0  0  0  0  0  0  0  0  0
  144.7191   74.1185  221.7836 H   0  0  0  0  0  0  0  0  0  0  0  0
  146.6068   73.4277  220.9355 H   0  0  0  0  0  0  0  0  0  0  0  0
  145.6383   71.9603  220.6351 H   0  0  0  0  0  0  0  0  0  0  0  0
  146.2750   74.1080  218.8430 H   0  0  0  0  0  0  0  0  0  0  0  0
  143.1950   72.4211  219.6351 H   0  0  0  0  0  0  0  0  0  0  0  0
  143.1493   72.0972  221.3344 H   0  0  0  0  0  0  0  0  0  0  0  0
  138.4962   68.6621  223.2796 H   0  0  0  0  0  0  0  0  0  0  0  0
  138.8194   67.1064  225.1732 H   0  0  0  0  0  0  0  0  0  0  0  0
  139.7678   66.7427  227.4648 H   0  0  0  0  0  0  0  0  0  0  0  0
  141.8630   69.9874  229.3823 H   0  0  0  0  0  0  0  0  0  0  0  0
  141.4454   71.4019  227.3955 H   0  0  0  0  0  0  0  0  0  0  0  0
  1  2  2  0
  2  3  1  0
  3  4  1  0
  4  5  1  0
  5  6  2  0
  5  7  1  0
  7  8  1  0
  8  9  1  0
  9 10  1  0
 10 11  1  0
 11 12  1  0
 10 13  1  0
  2 14  1  0
 14 15  2  0
 15 16  1  0
 16 17  2  0
 17 18  1  0
 18 19  2  0
 19 20  1  0
 19 21  1  0
 21 22  2  0
 22 23  1  0
 23 24  2  0
 13  7  1  0
 24 14  1  0
 23 17  1  0
  3 25  1  0
  4 26  1  0
  4 27  1  0
  8 28  1  0
  8 29  1  0
  9 30  1  0
  9 31  1  0
 10 32  1  1
 11 33  1  0
 11 34  1  0
 12 35  1  0
 13 36  1  0
 13 37  1  0
 15 38  1  0
 16 39  1  0
 18 40  1  0
 21 41  1  0
 22 42  1  0
M  END
>  <smiles>  (34) 
O=C(NCC(=O)N1CC[C@H](CO)C1)c1ccc2cc(F)ccc2n1

>  <score_type>  (34) 
oracle

>  <origin>  (34) 
autodockgpu

>  <m_score__min__energy>  (34) 
-7.7199999999999998

>  <m_primary>  (34) 
energy

>  <rmsd>  (34) 
3.230088766986979

>  <m_score__min__rmsd>  (34) 
3.230088766986979

>  <meeko>  (34) 
{"free_energy": -7.43, "intermolecular_energy": -9.22, "internal_energy": -0.73, "cluster_size": 29, "cluster_id": 1, "rank_in_cluster": 9}

>  <energy>  (34) 
-7.45

>  <cluster_rmsd>  (34) 
0.17

>  <cluster>  (34) 
2

$$$$

     RDKit          3D

 42 44  0  0  0  0  0  0  0  0999 V2000
  138.2090   72.2540  222.2280 O   0  0  0  0  0  0  0  0  0  0  0  0
  139.3250   72.0990  222.7970 C   0  0  0  0  0  0  0  0  0  0  0  0
  140.4080   72.8830  222.3410 N   0  0  0  0  0  0  0  0  0  0  0  0
  140.1800   73.8060  221.2660 C   0  0  0  0  0  0  0  0  0  0  0  0
  141.2030   74.8830  221.2160 C   0  0  0  0  0  0  0  0  0  0  0  0
  142.4000   74.6880  220.8850 O   0  0  0  0  0  0  0  0  0  0  0  0
  140.8010   76.2020  221.5620 N   0  0  0  0  0  0  0  0  0  0  0  0
  139.6030   76.4780  222.3330 C   0  0  0  0  0  0  0  0  0  0  0  0
  139.6740   77.9460  222.6950 C   0  0  0  0  0  0  0  0  0  0  0  0
  141.1550   78.2290  222.5480 C   0  0  2  0  0  0  0  0  0  0  0  0
  141.4510   79.6950  222.4150 C   0  0  0  0  0  0  0  0  0  0  0  0
  142.7960   79.8750  222.6590 O   0  0  0  0  0  0  0  0  0  0  0  0
  141.4410   77.4600  221.2510 C   0  0  0  0  0  0  0  0  0  0  0  0
  139.5390   71.1560  223.8870 C   0  0  0  0  0  0  0  0  0  0  0  0
  139.1690   69.8280  223.7330 C   0  0  0  0  0  0  0  0  0  0  0  0
  139.3460   68.8900  224.7250 C   0  0  0  0  0  0  0  0  0  0  0  0
  139.9150   69.3040  225.9200 C   0  0  0  0  0  0  0  0  0  0  0  0
  140.1350   68.4400  226.9780 C   0  0  0  0  0  0  0  0  0  0  0  0
  140.7040   68.9300  228.1310 C   0  0  0  0  0  0  0  0  0  0  0  0
  140.9100   68.0750  229.1500 F   0  0  0  0  0  0  0  0  0  0  0  0
  141.0670   70.2540  228.2720 C   0  0  0  0  0  0  0  0  0  0  0  0
  140.8440   71.0900  227.2180 C   0  0  0  0  0  0  0  0  0  0  0  0
  140.2730   70.6210  226.0530 C   0  0  0  0  0  0  0  0  0  0  0  0
  140.0900   71.5300  225.0610 N   0  0  0  0  0  0  0  0  0  0  0  0
  141.3640   72.8170  222.7560 H   0  0  0  0  0  0  0  0  0  0  0  0
  140.2025   73.2532  220.3153 H   0  0  0  0  0  0  0  0  0  0  0  0
  139.2019   74.2806  221.4338 H   0  0  0  0  0  0  0  0  0  0  0  0
  138.7050   76.2750  221.7310 H   0  0  0  0  0  0  0  0  0  0  0  0
  139.5431   75.8427  223.2290 H   0  0  0  0  0  0  0  0  0  0  0  0
  139.0783   78.5588  222.0024 H   0  0  0  0  0  0  0  0  0  0  0  0
  139.2723   78.1793  223.6921 H   0  0  0  0  0  0  0  0  0  0  0  0
  141.7681   77.9313  223.4114 H   0  0  0  0  0  0  0  0  0  0  0  0
  141.2058   80.0360  221.3983 H   0  0  0  0  0  0  0  0  0  0  0  0
  140.8488   80.2759  223.1291 H   0  0  0  0  0  0  0  0  0  0  0  0
  143.3320   79.3800  221.9750 H   0  0  0  0  0  0  0  0  0  0  0  0
  140.9825   77.9469  220.3776 H   0  0  0  0  0  0  0  0  0  0  0  0
  142.5045   77.3855  220.9802 H   0  0  0  0  0  0  0  0  0  0  0  0
  138.7167   69.5122  222.7814 H   0  0  0  0  0  0  0  0  0  0  0  0
  139.0449   67.8428  224.5742 H   0  0  0  0  0  0  0  0  0  0  0  0
  139.8594   67.3781  226.8986 H   0  0  0  0  0  0  0  0  0  0  0  0
  141.5211   70.6227  229.2036 H   0  0  0  0  0  0  0  0  0  0  0  0
  141.1227   72.1511  227.2977 H   0  0  0  0  0  0  0  0  0  0  0  0
  1  2  2  0
  2  3  1  0
  3  4  1  0
  4  5  1  0
  5  6  2  0
  5  7  1  0
  7  8  1  0
  8  9  1  0
  9 10  1  0
 10 11  1  0
 11 12  1  0
 10 13  1  0
  2 14  1  0
 14 15  2  0
 15 16  1  0
 16 17  2  0
 17 18  1  0
 18 19  2  0
 19 20  1  0
 19 21  1  0
 21 22  2  0
 22 23  1  0
 23 24  2  0
 13  7  1  0
 24 14  1  0
 23 17  1  0
  3 25  1  0
  4 26  1  0
  4 27  1  0
  8 28  1  0
  8 29  1  0
  9 30  1  0
  9 31  1  0
 10 32  1  1
 11 33  1  0
 11 34  1  0
 12 35  1  0
 13 36  1  0
 13 37  1  0
 15 38  1  0
 16 39  1  0
 18 40  1  0
 21 41  1  0
 22 42  1  0
M  END
>  <smiles>  (35) 
O=C(NCC(=O)N1CC[C@H](CO)C1)c1ccc2cc(F)ccc2n1

>  <score_type>  (35) 
oracle

>  <origin>  (35) 
autodockgpu

>  <m_score__min__energy>  (35) 
-7.7199999999999998

>  <m_primary>  (35) 
energy

>  <rmsd>  (35) 
3.470048486747863

>  <m_score__min__rmsd>  (35) 
3.470048486747863

>  <meeko>  (35) 
{"free_energy": -6.66, "intermolecular_energy": -8.45, "internal_energy": -0.82, "cluster_size": 12, "cluster_id": 2, "rank_in_cluster": 11}

>  <energy>  (35) 
-7.43

>  <cluster_rmsd>  (35) 
0.27

>  <cluster>  (35) 
2

$$$$

     RDKit          3D

 42 44  0  0  0  0  0  0  0  0999 V2000
  140.2640   70.8190  221.3770 O   0  0  0  0  0  0  0  0  0  0  0  0
  140.0300   71.3310  222.5070 C   0  0  0  0  0  0  0  0  0  0  0  0
  139.8280   72.7280  222.5660 N   0  0  0  0  0  0  0  0  0  0  0  0
  139.8990   73.4810  221.3470 C   0  0  0  0  0  0  0  0  0  0  0  0
  140.9410   74.5400  221.3940 C   0  0  0  0  0  0  0  0  0  0  0  0
  140.8120   75.6120  222.0370 O   0  0  0  0  0  0  0  0  0  0  0  0
  142.1460   74.3230  220.6720 N   0  0  0  0  0  0  0  0  0  0  0  0
  142.6260   75.2410  219.6570 C   0  0  0  0  0  0  0  0  0  0  0  0
  144.0320   74.7910  219.3230 C   0  0  0  0  0  0  0  0  0  0  0  0
  144.4010   73.9910  220.5560 C   0  0  2  0  0  0  0  0  0  0  0  0
  145.5590   73.0650  220.3180 C   0  0  0  0  0  0  0  0  0  0  0  0
  145.9520   73.2130  219.0060 O   0  0  0  0  0  0  0  0  0  0  0  0
  143.0860   73.2300  220.7770 C   0  0  0  0  0  0  0  0  0  0  0  0
  139.9620   70.5500  223.7360 C   0  0  0  0  0  0  0  0  0  0  0  0
  139.3010   69.3300  223.7420 C   0  0  0  0  0  0  0  0  0  0  0  0
  139.2030   68.5480  224.8710 C   0  0  0  0  0  0  0  0  0  0  0  0
  139.7900   69.0100  226.0390 C   0  0  0  0  0  0  0  0  0  0  0  0
  139.7470   68.2990  227.2250 C   0  0  0  0  0  0  0  0  0  0  0  0
  140.3550   68.8270  228.3400 C   0  0  0  0  0  0  0  0  0  0  0  0
  140.3020   68.1220  229.4860 F   0  0  0  0  0  0  0  0  0  0  0  0
  141.0080   70.0420  228.3210 C   0  0  0  0  0  0  0  0  0  0  0  0
  141.0410   70.7280  227.1430 C   0  0  0  0  0  0  0  0  0  0  0  0
  140.4380   70.2180  226.0120 C   0  0  0  0  0  0  0  0  0  0  0  0
  140.5240   70.9750  224.8870 N   0  0  0  0  0  0  0  0  0  0  0  0
  139.6290   73.2300  223.4600 H   0  0  0  0  0  0  0  0  0  0  0  0
  140.1313   72.7935  220.5203 H   0  0  0  0  0  0  0  0  0  0  0  0
  138.9266   73.9740  221.2007 H   0  0  0  0  0  0  0  0  0  0  0  0
  141.9862   75.1923  218.7635 H   0  0  0  0  0  0  0  0  0  0  0  0
  142.6086   76.2818  220.0127 H   0  0  0  0  0  0  0  0  0  0  0  0
  144.0481   74.1644  218.4191 H   0  0  0  0  0  0  0  0  0  0  0  0
  144.7244   75.6171  219.1036 H   0  0  0  0  0  0  0  0  0  0  0  0
  144.7405   74.5942  221.4109 H   0  0  0  0  0  0  0  0  0  0  0  0
  146.3905   73.3250  220.9896 H   0  0  0  0  0  0  0  0  0  0  0  0
  145.2661   72.0235  220.5169 H   0  0  0  0  0  0  0  0  0  0  0  0
  146.3590   74.1180  218.8760 H   0  0  0  0  0  0  0  0  0  0  0  0
  142.9179   72.4702  219.9995 H   0  0  0  0  0  0  0  0  0  0  0  0
  143.0318   72.6594  221.7159 H   0  0  0  0  0  0  0  0  0  0  0  0
  138.8379   68.9743  222.8098 H   0  0  0  0  0  0  0  0  0  0  0  0
  138.6739   67.5839  224.8470 H   0  0  0  0  0  0  0  0  0  0  0  0
  139.2347   67.3269  227.2755 H   0  0  0  0  0  0  0  0  0  0  0  0
  141.4863   70.4442  229.2263 H   0  0  0  0  0  0  0  0  0  0  0  0
  141.5545   71.6995  227.0940 H   0  0  0  0  0  0  0  0  0  0  0  0
  1  2  2  0
  2  3  1  0
  3  4  1  0
  4  5  1  0
  5  6  2  0
  5  7  1  0
  7  8  1  0
  8  9  1  0
  9 10  1  0
 10 11  1  0
 11 12  1  0
 10 13  1  0
  2 14  1  0
 14 15  2  0
 15 16  1  0
 16 17  2  0
 17 18  1  0
 18 19  2  0
 19 20  1  0
 19 21  1  0
 21 22  2  0
 22 23  1  0
 23 24  2  0
 13  7  1  0
 24 14  1  0
 23 17  1  0
  3 25  1  0
  4 26  1  0
  4 27  1  0
  8 28  1  0
  8 29  1  0
  9 30  1  0
  9 31  1  0
 10 32  1  1
 11 33  1  0
 11 34  1  0
 12 35  1  0
 13 36  1  0
 13 37  1  0
 15 38  1  0
 16 39  1  0
 18 40  1  0
 21 41  1  0
 22 42  1  0
M  END
>  <smiles>  (36) 
O=C(NCC(=O)N1CC[C@H](CO)C1)c1ccc2cc(F)ccc2n1

>  <score_type>  (36) 
oracle

>  <origin>  (36) 
autodockgpu

>  <m_score__min__energy>  (36) 
-7.7199999999999998

>  <m_primary>  (36) 
energy

>  <rmsd>  (36) 
3.0244503733434884

>  <m_score__min__rmsd>  (36) 
3.0244503733434884

>  <meeko>  (36) 
{"free_energy": -7.65, "intermolecular_energy": -9.44, "internal_energy": -0.91, "cluster_size": 29, "cluster_id": 1, "rank_in_cluster": 3}

>  <energy>  (36) 
-7.17

>  <cluster_rmsd>  (36) 
0.35

>  <cluster>  (36) 
2

$$$$

     RDKit          3D

 42 44  0  0  0  0  0  0  0  0999 V2000
  140.8740   71.6170  221.3330 O   0  0  0  0  0  0  0  0  0  0  0  0
  140.2870   72.0210  222.3740 C   0  0  0  0  0  0  0  0  0  0  0  0
  139.7660   73.3350  222.3650 N   0  0  0  0  0  0  0  0  0  0  0  0
  139.9320   74.1280  221.1820 C   0  0  0  0  0  0  0  0  0  0  0  0
  141.1920   74.9170  221.2000 C   0  0  0  0  0  0  0  0  0  0  0  0
  141.3430   75.9670  221.8740 O   0  0  0  0  0  0  0  0  0  0  0  0
  142.2800   74.4550  220.4100 N   0  0  0  0  0  0  0  0  0  0  0  0
  142.7450   75.1600  219.2300 C   0  0  0  0  0  0  0  0  0  0  0  0
  144.0480   74.4970  218.8390 C   0  0  0  0  0  0  0  0  0  0  0  0
  144.4580   73.8330  220.1370 C   0  0  2  0  0  0  0  0  0  0  0  0
  145.4750   72.7460  219.9340 C   0  0  0  0  0  0  0  0  0  0  0  0
  146.3200   73.1460  218.9220 O   0  0  0  0  0  0  0  0  0  0  0  0
  143.1000   73.2790  220.5880 C   0  0  0  0  0  0  0  0  0  0  0  0
  140.1280   71.2010  223.5690 C   0  0  0  0  0  0  0  0  0  0  0  0
  139.4680   69.9830  223.4860 C   0  0  0  0  0  0  0  0  0  0  0  0
  139.2860   69.1650  224.5770 C   0  0  0  0  0  0  0  0  0  0  0  0
  139.7850   69.5870  225.8010 C   0  0  0  0  0  0  0  0  0  0  0  0
  139.6530   68.8390  226.9560 C   0  0  0  0  0  0  0  0  0  0  0  0
  140.1760   69.3280  228.1300 C   0  0  0  0  0  0  0  0  0  0  0  0
  140.0390   68.5870  229.2450 F   0  0  0  0  0  0  0  0  0  0  0  0
  140.8290   70.5420  228.2000 C   0  0  0  0  0  0  0  0  0  0  0  0
  140.9490   71.2660  227.0500 C   0  0  0  0  0  0  0  0  0  0  0  0
  140.4320   70.7940  225.8610 C   0  0  0  0  0  0  0  0  0  0  0  0
  140.6020   71.5870  224.7710 N   0  0  0  0  0  0  0  0  0  0  0  0
  139.2670   73.7470  223.1850 H   0  0  0  0  0  0  0  0  0  0  0  0
  139.9461   73.4600  220.3082 H   0  0  0  0  0  0  0  0  0  0  0  0
  139.0929   74.8376  221.1338 H   0  0  0  0  0  0  0  0  0  0  0  0
  142.0105   75.0703  218.4161 H   0  0  0  0  0  0  0  0  0  0  0  0
  142.8808   76.2336  219.4276 H   0  0  0  0  0  0  0  0  0  0  0  0
  143.8967   73.7561  218.0402 H   0  0  0  0  0  0  0  0  0  0  0  0
  144.7994   75.1927  218.4372 H   0  0  0  0  0  0  0  0  0  0  0  0
  144.9525   74.5004  220.8582 H   0  0  0  0  0  0  0  0  0  0  0  0
  146.0474   72.5908  220.8605 H   0  0  0  0  0  0  0  0  0  0  0  0
  144.9798   71.7997  219.6707 H   0  0  0  0  0  0  0  0  0  0  0  0
  146.4290   74.1400  218.9480 H   0  0  0  0  0  0  0  0  0  0  0  0
  142.7657   72.4475  219.9502 H   0  0  0  0  0  0  0  0  0  0  0  0
  143.0862   72.8527  221.6020 H   0  0  0  0  0  0  0  0  0  0  0  0
  139.0755   69.6593  222.5107 H   0  0  0  0  0  0  0  0  0  0  0  0
  138.7598   68.2037  224.4817 H   0  0  0  0  0  0  0  0  0  0  0  0
  139.1375   67.8675  226.9362 H   0  0  0  0  0  0  0  0  0  0  0  0
  141.2388   70.9132  229.1509 H   0  0  0  0  0  0  0  0  0  0  0  0
  141.4641   72.2377  227.0709 H   0  0  0  0  0  0  0  0  0  0  0  0
  1  2  2  0
  2  3  1  0
  3  4  1  0
  4  5  1  0
  5  6  2  0
  5  7  1  0
  7  8  1  0
  8  9  1  0
  9 10  1  0
 10 11  1  0
 11 12  1  0
 10 13  1  0
  2 14  1  0
 14 15  2  0
 15 16  1  0
 16 17  2  0
 17 18  1  0
 18 19  2  0
 19 20  1  0
 19 21  1  0
 21 22  2  0
 22 23  1  0
 23 24  2  0
 13  7  1  0
 24 14  1  0
 23 17  1  0
  3 25  1  0
  4 26  1  0
  4 27  1  0
  8 28  1  0
  8 29  1  0
  9 30  1  0
  9 31  1  0
 10 32  1  1
 11 33  1  0
 11 34  1  0
 12 35  1  0
 13 36  1  0
 13 37  1  0
 15 38  1  0
 16 39  1  0
 18 40  1  0
 21 41  1  0
 22 42  1  0
M  END
>  <smiles>  (37) 
O=C(NCC(=O)N1CC[C@H](CO)C1)c1ccc2cc(F)ccc2n1

>  <score_type>  (37) 
oracle

>  <origin>  (37) 
autodockgpu

>  <m_score__min__energy>  (37) 
-7.7199999999999998

>  <m_primary>  (37) 
energy

>  <rmsd>  (37) 
3.058407729977958

>  <m_score__min__rmsd>  (37) 
3.058407729977958

>  <meeko>  (37) 
{"free_energy": -7.67, "intermolecular_energy": -9.46, "internal_energy": -0.87, "cluster_size": 29, "cluster_id": 1, "rank_in_cluster": 2}

>  <energy>  (37) 
-6.86

>  <cluster_rmsd>  (37) 
1.91

>  <cluster>  (37) 
2

$$$$

     RDKit          3D

 42 44  0  0  0  0  0  0  0  0999 V2000
  139.3830   70.6750  221.4840 O   0  0  0  0  0  0  0  0  0  0  0  0
  139.6120   71.1570  222.6280 C   0  0  0  0  0  0  0  0  0  0  0  0
  139.8000   72.5540  222.7250 N   0  0  0  0  0  0  0  0  0  0  0  0
  139.7200   73.3400  221.5280 C   0  0  0  0  0  0  0  0  0  0  0  0
  140.5960   74.5410  221.5780 C   0  0  0  0  0  0  0  0  0  0  0  0
  140.3370   75.5590  222.2670 O   0  0  0  0  0  0  0  0  0  0  0  0
  141.7880   74.5300  220.8030 N   0  0  0  0  0  0  0  0  0  0  0  0
  142.2980   75.7120  220.1350 C   0  0  0  0  0  0  0  0  0  0  0  0
  143.6840   75.3470  219.6490 C   0  0  0  0  0  0  0  0  0  0  0  0
  144.0270   74.1760  220.5460 C   0  0  2  0  0  0  0  0  0  0  0  0
  145.1480   73.3390  220.0000 C   0  0  0  0  0  0  0  0  0  0  0  0
  145.9940   73.0370  221.0450 O   0  0  0  0  0  0  0  0  0  0  0  0
  142.6860   73.4310  220.5300 C   0  0  0  0  0  0  0  0  0  0  0  0
  139.6900   70.3430  223.8340 C   0  0  0  0  0  0  0  0  0  0  0  0
  139.1550   69.0630  223.8380 C   0  0  0  0  0  0  0  0  0  0  0  0
  139.1970   68.2470  224.9450 C   0  0  0  0  0  0  0  0  0  0  0  0
  139.8000   68.7360  226.0950 C   0  0  0  0  0  0  0  0  0  0  0  0
  139.8940   67.9950  227.2590 C   0  0  0  0  0  0  0  0  0  0  0  0
  140.5070   68.5530  228.3560 C   0  0  0  0  0  0  0  0  0  0  0  0
  140.5890   67.8180  229.4810 F   0  0  0  0  0  0  0  0  0  0  0  0
  141.0350   69.8280  228.3390 C   0  0  0  0  0  0  0  0  0  0  0  0
  140.9340   70.5430  227.1820 C   0  0  0  0  0  0  0  0  0  0  0  0
  140.3220   70.0030  226.0700 C   0  0  0  0  0  0  0  0  0  0  0  0
  140.2700   70.7930  224.9660 N   0  0  0  0  0  0  0  0  0  0  0  0
  139.9940   73.0330  223.6330 H   0  0  0  0  0  0  0  0  0  0  0  0
  140.0245   72.7160  220.6748 H   0  0  0  0  0  0  0  0  0  0  0  0
  138.6814   73.6869  221.4237 H   0  0  0  0  0  0  0  0  0  0  0  0
  141.6527   75.9800  219.2854 H   0  0  0  0  0  0  0  0  0  0  0  0
  142.3220   76.5796  220.8108 H   0  0  0  0  0  0  0  0  0  0  0  0
  143.6721   75.0504  218.5898 H   0  0  0  0  0  0  0  0  0  0  0  0
  144.4068   76.1746  219.7001 H   0  0  0  0  0  0  0  0  0  0  0  0
  144.3931   74.4549  221.5451 H   0  0  0  0  0  0  0  0  0  0  0  0
  144.7457   72.4126  219.5642 H   0  0  0  0  0  0  0  0  0  0  0  0
  145.6883   73.8855  219.2130 H   0  0  0  0  0  0  0  0  0  0  0  0
  145.6530   72.2330  221.5320 H   0  0  0  0  0  0  0  0  0  0  0  0
  142.4849   72.9725  219.5505 H   0  0  0  0  0  0  0  0  0  0  0  0
  142.6149   72.5877  221.2328 H   0  0  0  0  0  0  0  0  0  0  0  0
  138.6789   68.6860  222.9208 H   0  0  0  0  0  0  0  0  0  0  0  0
  138.7649   67.2358  224.9191 H   0  0  0  0  0  0  0  0  0  0  0  0
  139.4847   66.9751  227.3064 H   0  0  0  0  0  0  0  0  0  0  0  0
  141.5212   70.2535  229.2292 H   0  0  0  0  0  0  0  0  0  0  0  0
  141.3454   71.5621  227.1351 H   0  0  0  0  0  0  0  0  0  0  0  0
  1  2  2  0
  2  3  1  0
  3  4  1  0
  4  5  1  0
  5  6  2  0
  5  7  1  0
  7  8  1  0
  8  9  1  0
  9 10  1  0
 10 11  1  0
 11 12  1  0
 10 13  1  0
  2 14  1  0
 14 15  2  0
 15 16  1  0
 16 17  2  0
 17 18  1  0
 18 19  2  0
 19 20  1  0
 19 21  1  0
 21 22  2  0
 22 23  1  0
 23 24  2  0
 13  7  1  0
 24 14  1  0
 23 17  1  0
  3 25  1  0
  4 26  1  0
  4 27  1  0
  8 28  1  0
  8 29  1  0
  9 30  1  0
  9 31  1  0
 10 32  1  1
 11 33  1  0
 11 34  1  0
 12 35  1  0
 13 36  1  0
 13 37  1  0
 15 38  1  0
 16 39  1  0
 18 40  1  0
 21 41  1  0
 22 42  1  0
M  END
>  <smiles>  (38) 
O=C(NCC(=O)N1CC[C@H](CO)C1)c1ccc2cc(F)ccc2n1

>  <score_type>  (38) 
oracle

>  <origin>  (38) 
autodockgpu

>  <m_score__min__energy>  (38) 
-7.7199999999999998

>  <m_primary>  (38) 
energy

>  <rmsd>  (38) 
3.0242272094260487

>  <m_score__min__rmsd>  (38) 
3.0242272094260487

>  <meeko>  (38) 
{"free_energy": -7.22, "intermolecular_energy": -9.01, "internal_energy": -0.95, "cluster_size": 29, "cluster_id": 1, "rank_in_cluster": 15}

>  <energy>  (38) 
-6.76

>  <cluster_rmsd>  (38) 
1.9

>  <cluster>  (38) 
2

$$$$

     RDKit          3D

 42 44  0  0  0  0  0  0  0  0999 V2000
  139.5320   70.9150  221.4430 O   0  0  0  0  0  0  0  0  0  0  0  0
  139.6900   71.4040  222.5960 C   0  0  0  0  0  0  0  0  0  0  0  0
  139.7960   72.8090  222.7030 N   0  0  0  0  0  0  0  0  0  0  0  0
  139.7180   73.5950  221.5050 C   0  0  0  0  0  0  0  0  0  0  0  0
  140.6730   74.7340  221.5110 C   0  0  0  0  0  0  0  0  0  0  0  0
  140.4940   75.7850  222.1760 O   0  0  0  0  0  0  0  0  0  0  0  0
  141.8490   74.6230  220.7200 N   0  0  0  0  0  0  0  0  0  0  0  0
  142.3060   75.6860  219.8440 C   0  0  0  0  0  0  0  0  0  0  0  0
  143.6940   75.2820  219.3940 C   0  0  0  0  0  0  0  0  0  0  0  0
  144.0930   74.2960  220.4710 C   0  0  2  0  0  0  0  0  0  0  0  0
  145.2300   73.4090  220.0500 C   0  0  0  0  0  0  0  0  0  0  0  0
  144.9360   72.1270  220.4590 O   0  0  0  0  0  0  0  0  0  0  0  0
  142.7780   73.5200  220.6180 C   0  0  0  0  0  0  0  0  0  0  0  0
  139.7670   70.5910  223.8030 C   0  0  0  0  0  0  0  0  0  0  0  0
  139.2470   69.3050  223.8010 C   0  0  0  0  0  0  0  0  0  0  0  0
  139.2900   68.4880  224.9090 C   0  0  0  0  0  0  0  0  0  0  0  0
  139.8760   68.9850  226.0640 C   0  0  0  0  0  0  0  0  0  0  0  0
  139.9680   68.2450  227.2290 C   0  0  0  0  0  0  0  0  0  0  0  0
  140.5650   68.8100  228.3310 C   0  0  0  0  0  0  0  0  0  0  0  0
  140.6460   68.0760  229.4570 F   0  0  0  0  0  0  0  0  0  0  0  0
  141.0780   70.0920  228.3200 C   0  0  0  0  0  0  0  0  0  0  0  0
  140.9780   70.8060  227.1620 C   0  0  0  0  0  0  0  0  0  0  0  0
  140.3830   70.2580  226.0440 C   0  0  0  0  0  0  0  0  0  0  0  0
  140.3310   71.0480  224.9400 N   0  0  0  0  0  0  0  0  0  0  0  0
  139.9280   73.2950  223.6180 H   0  0  0  0  0  0  0  0  0  0  0  0
  139.9438   72.9493  220.6436 H   0  0  0  0  0  0  0  0  0  0  0  0
  138.7013   74.0103  221.4421 H   0  0  0  0  0  0  0  0  0  0  0  0
  141.6355   75.7830  218.9774 H   0  0  0  0  0  0  0  0  0  0  0  0
  142.3142   76.6585  220.3579 H   0  0  0  0  0  0  0  0  0  0  0  0
  143.6710   74.8053  218.4029 H   0  0  0  0  0  0  0  0  0  0  0  0
  144.3900   76.1265  219.2827 H   0  0  0  0  0  0  0  0  0  0  0  0
  144.4691   74.7558  221.3968 H   0  0  0  0  0  0  0  0  0  0  0  0
  145.3413   73.4367  218.9560 H   0  0  0  0  0  0  0  0  0  0  0  0
  146.1725   73.7507  220.5026 H   0  0  0  0  0  0  0  0  0  0  0  0
  145.6170   71.8210  221.1240 H   0  0  0  0  0  0  0  0  0  0  0  0
  142.5729   72.8929  219.7378 H   0  0  0  0  0  0  0  0  0  0  0  0
  142.7493   72.8095  221.4573 H   0  0  0  0  0  0  0  0  0  0  0  0
  138.7828   68.9233  222.8797 H   0  0  0  0  0  0  0  0  0  0  0  0
  138.8718   67.4710  224.8789 H   0  0  0  0  0  0  0  0  0  0  0  0
  139.5697   67.2206  227.2730 H   0  0  0  0  0  0  0  0  0  0  0  0
  141.5512   70.5228  229.2147 H   0  0  0  0  0  0  0  0  0  0  0  0
  141.3763   71.8305  227.1189 H   0  0  0  0  0  0  0  0  0  0  0  0
  1  2  2  0
  2  3  1  0
  3  4  1  0
  4  5  1  0
  5  6  2  0
  5  7  1  0
  7  8  1  0
  8  9  1  0
  9 10  1  0
 10 11  1  0
 11 12  1  0
 10 13  1  0
  2 14  1  0
 14 15  2  0
 15 16  1  0
 16 17  2  0
 17 18  1  0
 18 19  2  0
 19 20  1  0
 19 21  1  0
 21 22  2  0
 22 23  1  0
 23 24  2  0
 13  7  1  0
 24 14  1  0
 23 17  1  0
  3 25  1  0
  4 26  1  0
  4 27  1  0
  8 28  1  0
  8 29  1  0
  9 30  1  0
  9 31  1  0
 10 32  1  1
 11 33  1  0
 11 34  1  0
 12 35  1  0
 13 36  1  0
 13 37  1  0
 15 38  1  0
 16 39  1  0
 18 40  1  0
 21 41  1  0
 22 42  1  0
M  END
>  <smiles>  (39) 
O=C(NCC(=O)N1CC[C@H](CO)C1)c1ccc2cc(F)ccc2n1

>  <score_type>  (39) 
oracle

>  <origin>  (39) 
autodockgpu

>  <m_score__min__energy>  (39) 
-7.7199999999999998

>  <m_primary>  (39) 
energy

>  <rmsd>  (39) 
2.9731864009447264

>  <m_score__min__rmsd>  (39) 
2.9731864009447264

>  <meeko>  (39) 
{"free_energy": -6.97, "intermolecular_energy": -8.76, "internal_energy": -0.96, "cluster_size": 29, "cluster_id": 1, "rank_in_cluster": 20}

>  <energy>  (39) 
-6.7

>  <cluster_rmsd>  (39) 
1.88

>  <cluster>  (39) 
2

$$$$

     RDKit          3D

 42 44  0  0  0  0  0  0  0  0999 V2000
  141.0080   71.9200  221.1940 O   0  0  0  0  0  0  0  0  0  0  0  0
  140.4530   72.3450  222.2450 C   0  0  0  0  0  0  0  0  0  0  0  0
  140.0210   73.6890  222.2620 N   0  0  0  0  0  0  0  0  0  0  0  0
  140.2340   74.4910  221.0910 C   0  0  0  0  0  0  0  0  0  0  0  0
  140.6740   75.8720  221.4210 C   0  0  0  0  0  0  0  0  0  0  0  0
  140.4170   76.4390  222.5130 O   0  0  0  0  0  0  0  0  0  0  0  0
  141.4250   76.5840  220.4470 N   0  0  0  0  0  0  0  0  0  0  0  0
  142.5910   76.0200  219.7920 C   0  0  0  0  0  0  0  0  0  0  0  0
  142.9350   76.9740  218.6690 C   0  0  0  0  0  0  0  0  0  0  0  0
  141.6220   77.7020  218.4680 C   0  0  2  0  0  0  0  0  0  0  0  0
  141.7890   78.9990  217.7290 C   0  0  0  0  0  0  0  0  0  0  0  0
  142.9810   79.5610  218.1300 O   0  0  0  0  0  0  0  0  0  0  0  0
  141.2160   77.9180  219.9320 C   0  0  0  0  0  0  0  0  0  0  0  0
  140.2450   71.5160  223.4270 C   0  0  0  0  0  0  0  0  0  0  0  0
  139.5710   70.3090  223.3120 C   0  0  0  0  0  0  0  0  0  0  0  0
  139.3440   69.4830  224.3890 C   0  0  0  0  0  0  0  0  0  0  0  0
  139.8100   69.8870  225.6310 C   0  0  0  0  0  0  0  0  0  0  0  0
  139.6330   69.1300  226.7750 C   0  0  0  0  0  0  0  0  0  0  0  0
  140.1260   69.6010  227.9690 C   0  0  0  0  0  0  0  0  0  0  0  0
  139.9440   68.8510  229.0720 F   0  0  0  0  0  0  0  0  0  0  0  0
  140.7940   70.8040  228.0700 C   0  0  0  0  0  0  0  0  0  0  0  0
  140.9600   71.5360  226.9320 C   0  0  0  0  0  0  0  0  0  0  0  0
  140.4740   71.0830  225.7230 C   0  0  0  0  0  0  0  0  0  0  0  0
  140.6880   71.8840  224.6470 N   0  0  0  0  0  0  0  0  0  0  0  0
  139.5530   74.1190  223.0910 H   0  0  0  0  0  0  0  0  0  0  0  0
  141.0069   74.0128  220.4714 H   0  0  0  0  0  0  0  0  0  0  0  0
  139.2756   74.5637  220.5560 H   0  0  0  0  0  0  0  0  0  0  0  0
  143.4291   75.9442  220.5004 H   0  0  0  0  0  0  0  0  0  0  0  0
  142.3926   75.0058  219.4151 H   0  0  0  0  0  0  0  0  0  0  0  0
  143.7364   77.6674  218.9638 H   0  0  0  0  0  0  0  0  0  0  0  0
  143.3126   76.4778  217.7628 H   0  0  0  0  0  0  0  0  0  0  0  0
  140.8860   77.1618  217.8544 H   0  0  0  0  0  0  0  0  0  0  0  0
  141.8091   78.8123  216.6451 H   0  0  0  0  0  0  0  0  0  0  0  0
  140.9512   79.6772  217.9484 H   0  0  0  0  0  0  0  0  0  0  0  0
  143.6140   79.5970  217.3570 H   0  0  0  0  0  0  0  0  0  0  0  0
  141.8627   78.6547  220.4310 H   0  0  0  0  0  0  0  0  0  0  0  0
  140.2021   78.3187  220.0784 H   0  0  0  0  0  0  0  0  0  0  0  0
  139.2040   70.0003  222.3220 H   0  0  0  0  0  0  0  0  0  0  0  0
  138.8084   68.5298  224.2682 H   0  0  0  0  0  0  0  0  0  0  0  0
  139.1057   68.1656  226.7302 H   0  0  0  0  0  0  0  0  0  0  0  0
  141.1797   71.1605  229.0365 H   0  0  0  0  0  0  0  0  0  0  0  0
  141.4881   72.4999  226.9784 H   0  0  0  0  0  0  0  0  0  0  0  0
  1  2  2  0
  2  3  1  0
  3  4  1  0
  4  5  1  0
  5  6  2  0
  5  7  1  0
  7  8  1  0
  8  9  1  0
  9 10  1  0
 10 11  1  0
 11 12  1  0
 10 13  1  0
  2 14  1  0
 14 15  2  0
 15 16  1  0
 16 17  2  0
 17 18  1  0
 18 19  2  0
 19 20  1  0
 19 21  1  0
 21 22  2  0
 22 23  1  0
 23 24  2  0
 13  7  1  0
 24 14  1  0
 23 17  1  0
  3 25  1  0
  4 26  1  0
  4 27  1  0
  8 28  1  0
  8 29  1  0
  9 30  1  0
  9 31  1  0
 10 32  1  6
 11 33  1  0
 11 34  1  0
 12 35  1  0
 13 36  1  0
 13 37  1  0
 15 38  1  0
 16 39  1  0
 18 40  1  0
 21 41  1  0
 22 42  1  0
M  END
>  <smiles>  (40) 
O=C(NCC(=O)N1CC[C@H](CO)C1)c1ccc2cc(F)ccc2n1

>  <score_type>  (40) 
oracle

>  <origin>  (40) 
autodockgpu

>  <m_score__min__energy>  (40) 
-7.7199999999999998

>  <m_primary>  (40) 
energy

>  <rmsd>  (40) 
2.354195967539821

>  <m_score__min__rmsd>  (40) 
2.354195967539821

>  <meeko>  (40) 
{"free_energy": -6.86, "intermolecular_energy": -8.65, "internal_energy": -0.97, "cluster_size": 12, "cluster_id": 2, "rank_in_cluster": 8}

>  <energy>  (40) 
-6.66

>  <cluster_rmsd>  (40) 
1.03

>  <cluster>  (40) 
2

$$$$

     RDKit          3D

 42 44  0  0  0  0  0  0  0  0999 V2000
  141.1420   71.9860  221.3290 O   0  0  0  0  0  0  0  0  0  0  0  0
  140.4780   72.3410  222.3420 C   0  0  0  0  0  0  0  0  0  0  0  0
  139.9180   73.6380  222.3380 N   0  0  0  0  0  0  0  0  0  0  0  0
  140.1330   74.4720  221.1910 C   0  0  0  0  0  0  0  0  0  0  0  0
  139.9730   75.9170  221.5020 C   0  0  0  0  0  0  0  0  0  0  0  0
  139.3350   76.3460  222.4960 O   0  0  0  0  0  0  0  0  0  0  0  0
  140.5770   76.8600  220.6260 N   0  0  0  0  0  0  0  0  0  0  0  0
  140.9910   78.1800  221.0620 C   0  0  0  0  0  0  0  0  0  0  0  0
  141.8000   78.7570  219.9200 C   0  0  0  0  0  0  0  0  0  0  0  0
  142.2090   77.5070  219.1680 C   0  0  2  0  0  0  0  0  0  0  0  0
  142.6410   77.7970  217.7590 C   0  0  0  0  0  0  0  0  0  0  0  0
  142.7930   79.1610  217.6390 O   0  0  0  0  0  0  0  0  0  0  0  0
  140.8880   76.7270  219.2210 C   0  0  0  0  0  0  0  0  0  0  0  0
  140.2700   71.4800  223.5000 C   0  0  0  0  0  0  0  0  0  0  0  0
  139.6150   70.2660  223.3470 C   0  0  0  0  0  0  0  0  0  0  0  0
  139.3890   69.4100  224.4010 C   0  0  0  0  0  0  0  0  0  0  0  0
  139.8360   69.7890  225.6580 C   0  0  0  0  0  0  0  0  0  0  0  0
  139.6570   69.0010  226.7800 C   0  0  0  0  0  0  0  0  0  0  0  0
  140.1300   69.4490  227.9910 C   0  0  0  0  0  0  0  0  0  0  0  0
  139.9470   68.6700  229.0730 F   0  0  0  0  0  0  0  0  0  0  0  0
  140.7790   70.6600  228.1300 C   0  0  0  0  0  0  0  0  0  0  0  0
  140.9460   71.4230  227.0120 C   0  0  0  0  0  0  0  0  0  0  0  0
  140.4790   70.9930  225.7870 C   0  0  0  0  0  0  0  0  0  0  0  0
  140.6930   71.8230  224.7340 N   0  0  0  0  0  0  0  0  0  0  0  0
  139.3550   74.0100  223.1360 H   0  0  0  0  0  0  0  0  0  0  0  0
  141.1535   74.3021  220.8172 H   0  0  0  0  0  0  0  0  0  0  0  0
  139.3776   74.2059  220.4369 H   0  0  0  0  0  0  0  0  0  0  0  0
  140.1120   78.8095  221.2651 H   0  0  0  0  0  0  0  0  0  0  0  0
  141.5781   78.1337  221.9910 H   0  0  0  0  0  0  0  0  0  0  0  0
  141.1885   79.4208  219.2911 H   0  0  0  0  0  0  0  0  0  0  0  0
  142.6471   79.3795  220.2439 H   0  0  0  0  0  0  0  0  0  0  0  0
  143.0788   76.9808  219.5882 H   0  0  0  0  0  0  0  0  0  0  0  0
  143.5964   77.2938  217.5492 H   0  0  0  0  0  0  0  0  0  0  0  0
  141.8914   77.4288  217.0431 H   0  0  0  0  0  0  0  0  0  0  0  0
  143.6650   79.3640  217.1920 H   0  0  0  0  0  0  0  0  0  0  0  0
  140.1162   77.1868  218.5863 H   0  0  0  0  0  0  0  0  0  0  0  0
  140.9452   75.6915  218.8542 H   0  0  0  0  0  0  0  0  0  0  0  0
  139.2632   69.9770  222.3457 H   0  0  0  0  0  0  0  0  0  0  0  0
  138.8687   68.4526  224.2506 H   0  0  0  0  0  0  0  0  0  0  0  0
  139.1442   68.0308  226.7050 H   0  0  0  0  0  0  0  0  0  0  0  0
  141.1488   70.9978  229.1094 H   0  0  0  0  0  0  0  0  0  0  0  0
  141.4592   72.3930  227.0878 H   0  0  0  0  0  0  0  0  0  0  0  0
  1  2  2  0
  2  3  1  0
  3  4  1  0
  4  5  1  0
  5  6  2  0
  5  7  1  0
  7  8  1  0
  8  9  1  0
  9 10  1  0
 10 11  1  0
 11 12  1  0
 10 13  1  0
  2 14  1  0
 14 15  2  0
 15 16  1  0
 16 17  2  0
 17 18  1  0
 18 19  2  0
 19 20  1  0
 19 21  1  0
 21 22  2  0
 22 23  1  0
 23 24  2  0
 13  7  1  0
 24 14  1  0
 23 17  1  0
  3 25  1  0
  4 26  1  0
  4 27  1  0
  8 28  1  0
  8 29  1  0
  9 30  1  0
  9 31  1  0
 10 32  1  1
 11 33  1  0
 11 34  1  0
 12 35  1  0
 13 36  1  0
 13 37  1  0
 15 38  1  0
 16 39  1  0
 18 40  1  0
 21 41  1  0
 22 42  1  0
M  END
>  <smiles>  (41) 
O=C(NCC(=O)N1CC[C@H](CO)C1)c1ccc2cc(F)ccc2n1

>  <score_type>  (41) 
oracle

>  <origin>  (41) 
autodockgpu

>  <m_score__min__energy>  (41) 
-7.7199999999999998

>  <m_primary>  (41) 
energy

>  <rmsd>  (41) 
2.2137155064321163

>  <m_score__min__rmsd>  (41) 
2.2137155064321163

>  <meeko>  (41) 
{"free_energy": -6.76, "intermolecular_energy": -8.55, "internal_energy": -1.04, "cluster_size": 12, "cluster_id": 2, "rank_in_cluster": 9}

>  <energy>  (41) 
-6.54

>  <cluster_rmsd>  (41) 
1.89

>  <cluster>  (41) 
2

$$$$

     RDKit          3D

 42 44  0  0  0  0  0  0  0  0999 V2000
  139.3030   70.8010  221.5920 O   0  0  0  0  0  0  0  0  0  0  0  0
  139.5840   71.5630  222.5580 C   0  0  0  0  0  0  0  0  0  0  0  0
  139.5300   72.9560  222.3310 N   0  0  0  0  0  0  0  0  0  0  0  0
  139.1630   73.4230  221.0250 C   0  0  0  0  0  0  0  0  0  0  0  0
  140.2840   74.1090  220.3310 C   0  0  0  0  0  0  0  0  0  0  0  0
  140.1330   75.1180  219.5980 O   0  0  0  0  0  0  0  0  0  0  0  0
  141.5970   73.5910  220.5110 N   0  0  0  0  0  0  0  0  0  0  0  0
  141.8990   72.1760  220.4110 C   0  0  0  0  0  0  0  0  0  0  0  0
  143.4100   72.0760  220.4110 C   0  0  0  0  0  0  0  0  0  0  0  0
  143.8110   73.4700  219.9770 C   0  0  2  0  0  0  0  0  0  0  0  0
  145.2400   73.7900  220.3130 C   0  0  0  0  0  0  0  0  0  0  0  0
  146.0360   73.2270  219.3390 O   0  0  0  0  0  0  0  0  0  0  0  0
  142.8220   74.2980  220.8080 C   0  0  0  0  0  0  0  0  0  0  0  0
  139.9560   71.0710  223.8780 C   0  0  0  0  0  0  0  0  0  0  0  0
  140.6550   71.8950  224.7490 C   0  0  0  0  0  0  0  0  0  0  0  0
  141.0350   71.4880  226.0080 C   0  0  0  0  0  0  0  0  0  0  0  0
  140.7000   70.2030  226.4080 C   0  0  0  0  0  0  0  0  0  0  0  0
  141.0360   69.7000  227.6520 C   0  0  0  0  0  0  0  0  0  0  0  0
  140.6670   68.4140  227.9720 C   0  0  0  0  0  0  0  0  0  0  0  0
  141.0020   67.9410  229.1860 F   0  0  0  0  0  0  0  0  0  0  0  0
  139.9720   67.6050  227.0960 C   0  0  0  0  0  0  0  0  0  0  0  0
  139.6490   68.1180  225.8750 C   0  0  0  0  0  0  0  0  0  0  0  0
  140.0100   69.4050  225.5330 C   0  0  0  0  0  0  0  0  0  0  0  0
  139.6440   69.8260  224.2940 N   0  0  0  0  0  0  0  0  0  0  0  0
  139.7480   73.6560  223.0760 H   0  0  0  0  0  0  0  0  0  0  0  0
  138.8465   72.5618  220.4183 H   0  0  0  0  0  0  0  0  0  0  0  0
  138.3486   74.1523  221.1470 H   0  0  0  0  0  0  0  0  0  0  0  0
  141.4791   71.6330  221.2705 H   0  0  0  0  0  0  0  0  0  0  0  0
  141.4637   71.7321  219.5035 H   0  0  0  0  0  0  0  0  0  0  0  0
  143.7962   71.8419  221.4140 H   0  0  0  0  0  0  0  0  0  0  0  0
  143.8042   71.2772  219.7657 H   0  0  0  0  0  0  0  0  0  0  0  0
  143.7680   73.6434  218.8916 H   0  0  0  0  0  0  0  0  0  0  0  0
  145.3853   74.8802  220.3316 H   0  0  0  0  0  0  0  0  0  0  0  0
  145.5018   73.3893  221.3034 H   0  0  0  0  0  0  0  0  0  0  0  0
  146.3340   73.9350  218.6980 H   0  0  0  0  0  0  0  0  0  0  0  0
  143.0626   74.2662  221.8809 H   0  0  0  0  0  0  0  0  0  0  0  0
  142.8061   75.3731  220.5760 H   0  0  0  0  0  0  0  0  0  0  0  0
  140.9153   72.9121  224.4208 H   0  0  0  0  0  0  0  0  0  0  0  0
  141.5885   72.1627  226.6776 H   0  0  0  0  0  0  0  0  0  0  0  0
  141.5895   70.3185  228.3739 H   0  0  0  0  0  0  0  0  0  0  0  0
  139.6879   66.5794  227.3741 H   0  0  0  0  0  0  0  0  0  0  0  0
  139.0944   67.4990  225.1544 H   0  0  0  0  0  0  0  0  0  0  0  0
  1  2  2  0
  2  3  1  0
  3  4  1  0
  4  5  1  0
  5  6  2  0
  5  7  1  0
  7  8  1  0
  8  9  1  0
  9 10  1  0
 10 11  1  0
 11 12  1  0
 10 13  1  0
  2 14  1  0
 14 15  2  0
 15 16  1  0
 16 17  2  0
 17 18  1  0
 18 19  2  0
 19 20  1  0
 19 21  1  0
 21 22  2  0
 22 23  1  0
 23 24  2  0
 13  7  1  0
 24 14  1  0
 23 17  1  0
  3 25  1  0
  4 26  1  0
  4 27  1  0
  8 28  1  0
  8 29  1  0
  9 30  1  0
  9 31  1  0
 10 32  1  6
 11 33  1  0
 11 34  1  0
 12 35  1  0
 13 36  1  0
 13 37  1  0
 15 38  1  0
 16 39  1  0
 18 40  1  0
 21 41  1  0
 22 42  1  0
M  END
>  <smiles>  (42) 
O=C(NCC(=O)N1CC[C@H](CO)C1)c1ccc2cc(F)ccc2n1

>  <score_type>  (42) 
oracle

>  <origin>  (42) 
autodockgpu

>  <m_score__min__energy>  (42) 
-7.7199999999999998

>  <m_primary>  (42) 
energy

>  <rmsd>  (42) 
3.9390337544362537

>  <m_score__min__rmsd>  (42) 
3.9390337544362537

>  <meeko>  (42) 
{"free_energy": -6.8, "intermolecular_energy": -8.59, "internal_energy": -0.93, "cluster_size": 29, "cluster_id": 1, "rank_in_cluster": 24}

>  <energy>  (42) 
-7.07

>  <cluster_rmsd>  (42) 
0.0

>  <cluster>  (42) 
3

$$$$

     RDKit          3D

 42 44  0  0  0  0  0  0  0  0999 V2000
  141.3030   71.9770  221.3940 O   0  0  0  0  0  0  0  0  0  0  0  0
  140.6140   72.3840  222.3700 C   0  0  0  0  0  0  0  0  0  0  0  0
  140.1270   73.7090  222.3220 N   0  0  0  0  0  0  0  0  0  0  0  0
  140.4400   74.5120  221.1750 C   0  0  0  0  0  0  0  0  0  0  0  0
  140.8790   75.8830  221.5440 C   0  0  0  0  0  0  0  0  0  0  0  0
  140.6120   76.4240  222.6470 O   0  0  0  0  0  0  0  0  0  0  0  0
  141.6410   76.6190  220.5950 N   0  0  0  0  0  0  0  0  0  0  0  0
  142.4650   75.9770  219.5880 C   0  0  0  0  0  0  0  0  0  0  0  0
  142.8920   77.0780  218.6410 C   0  0  0  0  0  0  0  0  0  0  0  0
  141.8400   78.1360  218.9030 C   0  0  2  0  0  0  0  0  0  0  0  0
  142.2630   79.4990  218.4340 C   0  0  0  0  0  0  0  0  0  0  0  0
  142.3810   79.4520  217.0620 O   0  0  0  0  0  0  0  0  0  0  0  0
  141.7570   78.0500  220.4330 C   0  0  0  0  0  0  0  0  0  0  0  0
  140.3070   71.5550  223.5290 C   0  0  0  0  0  0  0  0  0  0  0  0
  139.5810   70.3830  223.3650 C   0  0  0  0  0  0  0  0  0  0  0  0
  139.2600   69.5590  224.4190 C   0  0  0  0  0  0  0  0  0  0  0  0
  139.6820   69.9270  225.6880 C   0  0  0  0  0  0  0  0  0  0  0  0
  139.4100   69.1680  226.8120 C   0  0  0  0  0  0  0  0  0  0  0  0
  139.8640   69.6020  228.0350 C   0  0  0  0  0  0  0  0  0  0  0  0
  139.5900   68.8510  229.1180 F   0  0  0  0  0  0  0  0  0  0  0  0
  140.5840   70.7700  228.1840 C   0  0  0  0  0  0  0  0  0  0  0  0
  140.8430   71.5040  227.0650 C   0  0  0  0  0  0  0  0  0  0  0  0
  140.3970   71.0880  225.8280 C   0  0  0  0  0  0  0  0  0  0  0  0
  140.7040   71.8880  224.7740 N   0  0  0  0  0  0  0  0  0  0  0  0
  139.5500   74.1240  223.0880 H   0  0  0  0  0  0  0  0  0  0  0  0
  141.2478   74.0225  220.6113 H   0  0  0  0  0  0  0  0  0  0  0  0
  139.5250   74.6046  220.5715 H   0  0  0  0  0  0  0  0  0  0  0  0
  143.3451   75.5099  220.0541 H   0  0  0  0  0  0  0  0  0  0  0  0
  141.9160   75.1816  219.0627 H   0  0  0  0  0  0  0  0  0  0  0  0
  143.8998   77.4464  218.8832 H   0  0  0  0  0  0  0  0  0  0  0  0
  142.9544   76.7621  217.5892 H   0  0  0  0  0  0  0  0  0  0  0  0
  140.8882   77.9782  218.3746 H   0  0  0  0  0  0  0  0  0  0  0  0
  141.5067   80.2449  218.7196 H   0  0  0  0  0  0  0  0  0  0  0  0
  143.2208   79.7845  218.8935 H   0  0  0  0  0  0  0  0  0  0  0  0
  143.3250   79.6560  216.7990 H   0  0  0  0  0  0  0  0  0  0  0  0
  142.6644   78.4436  220.9143 H   0  0  0  0  0  0  0  0  0  0  0  0
  140.9449   78.6362  220.8878 H   0  0  0  0  0  0  0  0  0  0  0  0
  139.2499   70.1026  222.3542 H   0  0  0  0  0  0  0  0  0  0  0  0
  138.6851   68.6348  224.2599 H   0  0  0  0  0  0  0  0  0  0  0  0
  138.8391   68.2314  226.7286 H   0  0  0  0  0  0  0  0  0  0  0  0
  140.9371   71.0977  229.1729 H   0  0  0  0  0  0  0  0  0  0  0  0
  141.4149   72.4398  227.1496 H   0  0  0  0  0  0  0  0  0  0  0  0
  1  2  2  0
  2  3  1  0
  3  4  1  0
  4  5  1  0
  5  6  2  0
  5  7  1  0
  7  8  1  0
  8  9  1  0
  9 10  1  0
 10 11  1  0
 11 12  1  0
 10 13  1  0
  2 14  1  0
 14 15  2  0
 15 16  1  0
 16 17  2  0
 17 18  1  0
 18 19  2  0
 19 20  1  0
 19 21  1  0
 21 22  2  0
 22 23  1  0
 23 24  2  0
 13  7  1  0
 24 14  1  0
 23 17  1  0
  3 25  1  0
  4 26  1  0
  4 27  1  0
  8 28  1  0
  8 29  1  0
  9 30  1  0
  9 31  1  0
 10 32  1  6
 11 33  1  0
 11 34  1  0
 12 35  1  0
 13 36  1  0
 13 37  1  0
 15 38  1  0
 16 39  1  0
 18 40  1  0
 21 41  1  0
 22 42  1  0
M  END
>  <smiles>  (43) 
O=C(NCC(=O)N1CC[C@H](CO)C1)c1ccc2cc(F)ccc2n1

>  <score_type>  (43) 
oracle

>  <origin>  (43) 
autodockgpu

>  <m_score__min__energy>  (43) 
-7.7199999999999998

>  <m_primary>  (43) 
energy

>  <rmsd>  (43) 
2.5289434129606354

>  <m_score__min__rmsd>  (43) 
2.5289434129606354

>  <meeko>  (43) 
{"free_energy": -6.9, "intermolecular_energy": -8.69, "internal_energy": -0.93, "cluster_size": 2, "cluster_id": 3, "rank_in_cluster": 2}

>  <energy>  (43) 
-6.9

>  <cluster_rmsd>  (43) 
0.23

>  <cluster>  (43) 
3

$$$$

     RDKit          3D

 42 44  0  0  0  0  0  0  0  0999 V2000
  140.5650   71.1180  221.4190 O   0  0  0  0  0  0  0  0  0  0  0  0
  140.1720   71.5700  222.5300 C   0  0  0  0  0  0  0  0  0  0  0  0
  139.8010   72.9320  222.5900 N   0  0  0  0  0  0  0  0  0  0  0  0
  139.8890   73.7180  221.3940 C   0  0  0  0  0  0  0  0  0  0  0  0
  141.0480   74.6490  221.4110 C   0  0  0  0  0  0  0  0  0  0  0  0
  141.0570   75.7340  222.0450 O   0  0  0  0  0  0  0  0  0  0  0  0
  142.2060   74.2880  220.6690 N   0  0  0  0  0  0  0  0  0  0  0  0
  142.7160   75.0920  219.5740 C   0  0  0  0  0  0  0  0  0  0  0  0
  144.0700   74.5100  219.2310 C   0  0  0  0  0  0  0  0  0  0  0  0
  144.4220   73.7730  220.5060 C   0  0  2  0  0  0  0  0  0  0  0  0
  145.4970   72.7440  220.3010 C   0  0  0  0  0  0  0  0  0  0  0  0
  146.3120   73.1870  219.2810 O   0  0  0  0  0  0  0  0  0  0  0  0
  143.0630   73.1350  220.8240 C   0  0  0  0  0  0  0  0  0  0  0  0
  140.0900   70.7560  223.7370 C   0  0  0  0  0  0  0  0  0  0  0  0
  139.4570   69.5220  223.6930 C   0  0  0  0  0  0  0  0  0  0  0  0
  139.3470   68.7080  224.7980 C   0  0  0  0  0  0  0  0  0  0  0  0
  139.8920   69.1520  225.9930 C   0  0  0  0  0  0  0  0  0  0  0  0
  139.8330   68.4100  227.1590 C   0  0  0  0  0  0  0  0  0  0  0  0
  140.3980   68.9220  228.3040 C   0  0  0  0  0  0  0  0  0  0  0  0
  140.3320   68.1870  229.4290 F   0  0  0  0  0  0  0  0  0  0  0  0
  141.0240   70.1520  228.3340 C   0  0  0  0  0  0  0  0  0  0  0  0
  141.0720   70.8690  227.1750 C   0  0  0  0  0  0  0  0  0  0  0  0
  140.5120   70.3750  226.0150 C   0  0  0  0  0  0  0  0  0  0  0  0
  140.6100   71.1630  224.9130 N   0  0  0  0  0  0  0  0  0  0  0  0
  139.4660   73.3840  223.4700 H   0  0  0  0  0  0  0  0  0  0  0  0
  139.9925   73.0409  220.5333 H   0  0  0  0  0  0  0  0  0  0  0  0
  138.9736   74.3237  221.3229 H   0  0  0  0  0  0  0  0  0  0  0  0
  142.0418   75.0303  218.7071 H   0  0  0  0  0  0  0  0  0  0  0  0
  142.7903   76.1538  219.8517 H   0  0  0  0  0  0  0  0  0  0  0  0
  144.0051   73.8217  218.3754 H   0  0  0  0  0  0  0  0  0  0  0  0
  144.8149   75.2616  218.9306 H   0  0  0  0  0  0  0  0  0  0  0  0
  144.8377   74.4073  221.3028 H   0  0  0  0  0  0  0  0  0  0  0  0
  146.0831   72.6254  221.2243 H   0  0  0  0  0  0  0  0  0  0  0  0
  145.0544   71.7700  220.0452 H   0  0  0  0  0  0  0  0  0  0  0  0
  146.4410   74.1760  219.3570 H   0  0  0  0  0  0  0  0  0  0  0  0
  142.8087   72.3377  220.1102 H   0  0  0  0  0  0  0  0  0  0  0  0
  143.0008   72.6381  221.8034 H   0  0  0  0  0  0  0  0  0  0  0  0
  139.0270   69.1813  222.7396 H   0  0  0  0  0  0  0  0  0  0  0  0
  138.8412   67.7333  224.7345 H   0  0  0  0  0  0  0  0  0  0  0  0
  139.3419   67.4258  227.1704 H   0  0  0  0  0  0  0  0  0  0  0  0
  141.4692   70.5407  229.2617 H   0  0  0  0  0  0  0  0  0  0  0  0
  141.5632   71.8532  227.1649 H   0  0  0  0  0  0  0  0  0  0  0  0
  1  2  2  0
  2  3  1  0
  3  4  1  0
  4  5  1  0
  5  6  2  0
  5  7  1  0
  7  8  1  0
  8  9  1  0
  9 10  1  0
 10 11  1  0
 11 12  1  0
 10 13  1  0
  2 14  1  0
 14 15  2  0
 15 16  1  0
 16 17  2  0
 17 18  1  0
 18 19  2  0
 19 20  1  0
 19 21  1  0
 21 22  2  0
 22 23  1  0
 23 24  2  0
 13  7  1  0
 24 14  1  0
 23 17  1  0
  3 25  1  0
  4 26  1  0
  4 27  1  0
  8 28  1  0
  8 29  1  0
  9 30  1  0
  9 31  1  0
 10 32  1  1
 11 33  1  0
 11 34  1  0
 12 35  1  0
 13 36  1  0
 13 37  1  0
 15 38  1  0
 16 39  1  0
 18 40  1  0
 21 41  1  0
 22 42  1  0
M  END
>  <smiles>  (44) 
O=C(NCC(=O)N1CC[C@H](CO)C1)c1ccc2cc(F)ccc2n1

>  <score_type>  (44) 
oracle

>  <origin>  (44) 
autodockgpu

>  <m_score__min__energy>  (44) 
-7.7199999999999998

>  <m_primary>  (44) 
energy

>  <rmsd>  (44) 
3.109436218772348

>  <m_score__min__rmsd>  (44) 
3.109436218772348

>  <meeko>  (44) 
{"free_energy": -7.72, "intermolecular_energy": -9.51, "internal_energy": -0.91, "cluster_size": 29, "cluster_id": 1, "rank_in_cluster": 1}

>  <energy>  (44) 
-6.93

>  <cluster_rmsd>  (44) 
0.0

>  <cluster>  (44) 
4

$$$$

     RDKit          3D

 42 44  0  0  0  0  0  0  0  0999 V2000
  140.5140   73.3900  222.6770 O   0  0  0  0  0  0  0  0  0  0  0  0
  140.0080   72.2350  222.6210 C   0  0  0  0  0  0  0  0  0  0  0  0
  139.4030   71.8420  221.4070 N   0  0  0  0  0  0  0  0  0  0  0  0
  139.3980   72.7710  220.3130 C   0  0  0  0  0  0  0  0  0  0  0  0
  140.5400   72.5610  219.3850 C   0  0  0  0  0  0  0  0  0  0  0  0
  140.4040   72.3820  218.1480 O   0  0  0  0  0  0  0  0  0  0  0  0
  141.8530   72.5650  219.9300 N   0  0  0  0  0  0  0  0  0  0  0  0
  142.4800   71.3710  220.4660 C   0  0  0  0  0  0  0  0  0  0  0  0
  143.9300   71.7370  220.7020 C   0  0  0  0  0  0  0  0  0  0  0  0
  144.1000   72.9320  219.7860 C   0  0  2  0  0  0  0  0  0  0  0  0
  145.2970   73.7660  220.1410 C   0  0  0  0  0  0  0  0  0  0  0  0
  146.3430   73.3600  219.3410 O   0  0  0  0  0  0  0  0  0  0  0  0
  142.7800   73.6650  220.0640 C   0  0  0  0  0  0  0  0  0  0  0  0
  140.0220   71.3040  223.7430 C   0  0  0  0  0  0  0  0  0  0  0  0
  139.5160   70.0220  223.5800 C   0  0  0  0  0  0  0  0  0  0  0  0
  139.5010   69.0980  224.6010 C   0  0  0  0  0  0  0  0  0  0  0  0
  140.0140   69.4770  225.8320 C   0  0  0  0  0  0  0  0  0  0  0  0
  140.0440   68.6230  226.9200 C   0  0  0  0  0  0  0  0  0  0  0  0
  140.5700   69.0760  228.1080 C   0  0  0  0  0  0  0  0  0  0  0  0
  140.5910   68.2320  229.1560 F   0  0  0  0  0  0  0  0  0  0  0  0
  141.0700   70.3530  228.2560 C   0  0  0  0  0  0  0  0  0  0  0  0
  141.0320   71.1810  227.1720 C   0  0  0  0  0  0  0  0  0  0  0  0
  140.5090   70.7480  225.9710 C   0  0  0  0  0  0  0  0  0  0  0  0
  140.5140   71.6450  224.9520 N   0  0  0  0  0  0  0  0  0  0  0  0
  138.9620   70.9040  221.2760 H   0  0  0  0  0  0  0  0  0  0  0  0
  138.4599   72.6502  219.7515 H   0  0  0  0  0  0  0  0  0  0  0  0
  139.4894   73.7836  220.7329 H   0  0  0  0  0  0  0  0  0  0  0  0
  142.0002   71.0779  221.4114 H   0  0  0  0  0  0  0  0  0  0  0  0
  142.3845   70.5193  219.7765 H   0  0  0  0  0  0  0  0  0  0  0  0
  144.1087   72.0089  221.7528 H   0  0  0  0  0  0  0  0  0  0  0  0
  144.6352   70.9171  220.5008 H   0  0  0  0  0  0  0  0  0  0  0  0
  144.2805   72.6798  218.7306 H   0  0  0  0  0  0  0  0  0  0  0  0
  145.0792   74.8292  219.9619 H   0  0  0  0  0  0  0  0  0  0  0  0
  145.5530   73.6397  221.2033 H   0  0  0  0  0  0  0  0  0  0  0  0
  146.7280   74.1500  218.8630 H   0  0  0  0  0  0  0  0  0  0  0  0
  142.7577   74.0975  221.0751 H   0  0  0  0  0  0  0  0  0  0  0  0
  142.5788   74.5247  219.4079 H   0  0  0  0  0  0  0  0  0  0  0  0
  139.1118   69.7332  222.5986 H   0  0  0  0  0  0  0  0  0  0  0  0
  139.0937   68.0883  224.4444 H   0  0  0  0  0  0  0  0  0  0  0  0
  139.6535   67.5980  226.8366 H   0  0  0  0  0  0  0  0  0  0  0  0
  141.4857   70.6927  229.2161 H   0  0  0  0  0  0  0  0  0  0  0  0
  141.4229   72.2057  227.2567 H   0  0  0  0  0  0  0  0  0  0  0  0
  1  2  2  0
  2  3  1  0
  3  4  1  0
  4  5  1  0
  5  6  2  0
  5  7  1  0
  7  8  1  0
  8  9  1  0
  9 10  1  0
 10 11  1  0
 11 12  1  0
 10 13  1  0
  2 14  1  0
 14 15  2  0
 15 16  1  0
 16 17  2  0
 17 18  1  0
 18 19  2  0
 19 20  1  0
 19 21  1  0
 21 22  2  0
 22 23  1  0
 23 24  2  0
 13  7  1  0
 24 14  1  0
 23 17  1  0
  3 25  1  0
  4 26  1  0
  4 27  1  0
  8 28  1  0
  8 29  1  0
  9 30  1  0
  9 31  1  0
 10 32  1  6
 11 33  1  0
 11 34  1  0
 12 35  1  0
 13 36  1  0
 13 37  1  0
 15 38  1  0
 16 39  1  0
 18 40  1  0
 21 41  1  0
 22 42  1  0
M  END
>  <smiles>  (45) 
O=C(NCC(=O)N1CC[C@H](CO)C1)c1ccc2cc(F)ccc2n1

>  <score_type>  (45) 
oracle

>  <origin>  (45) 
autodockgpu

>  <m_score__min__energy>  (45) 
-7.7199999999999998

>  <m_primary>  (45) 
energy

>  <rmsd>  (45) 
3.6621804204480526

>  <m_score__min__rmsd>  (45) 
3.6621804204480526

>  <meeko>  (45) 
{"free_energy": -6.82, "intermolecular_energy": -8.61, "internal_energy": -0.98, "cluster_size": 29, "cluster_id": 1, "rank_in_cluster": 22}

>  <energy>  (45) 
-6.93

>  <cluster_rmsd>  (45) 
0.13

>  <cluster>  (45) 
4

$$$$

     RDKit          3D

 42 44  0  0  0  0  0  0  0  0999 V2000
  141.1070   72.2120  221.4180 O   0  0  0  0  0  0  0  0  0  0  0  0
  140.3300   72.4450  222.3850 C   0  0  0  0  0  0  0  0  0  0  0  0
  139.5500   73.6220  222.3300 N   0  0  0  0  0  0  0  0  0  0  0  0
  139.6830   74.4780  221.1870 C   0  0  0  0  0  0  0  0  0  0  0  0
  140.8850   75.3490  221.2670 C   0  0  0  0  0  0  0  0  0  0  0  0
  142.0520   74.9440  221.0340 O   0  0  0  0  0  0  0  0  0  0  0  0
  140.6980   76.7120  221.6260 N   0  0  0  0  0  0  0  0  0  0  0  0
  139.5630   77.1670  222.4070 C   0  0  0  0  0  0  0  0  0  0  0  0
  139.8680   78.6020  222.7810 C   0  0  0  0  0  0  0  0  0  0  0  0
  141.3730   78.6490  222.6260 C   0  0  2  0  0  0  0  0  0  0  0  0
  141.8980   80.0510  222.5020 C   0  0  0  0  0  0  0  0  0  0  0  0
  143.2570   80.0120  222.7240 O   0  0  0  0  0  0  0  0  0  0  0  0
  141.5270   77.8560  221.3210 C   0  0  0  0  0  0  0  0  0  0  0  0
  140.2080   71.5640  223.5400 C   0  0  0  0  0  0  0  0  0  0  0  0
  139.5820   70.3340  223.4050 C   0  0  0  0  0  0  0  0  0  0  0  0
  139.4350   69.4590  224.4580 C   0  0  0  0  0  0  0  0  0  0  0  0
  139.9370   69.8350  225.6940 C   0  0  0  0  0  0  0  0  0  0  0  0
  139.8410   69.0280  226.8140 C   0  0  0  0  0  0  0  0  0  0  0  0
  140.3650   69.4740  228.0040 C   0  0  0  0  0  0  0  0  0  0  0  0
  140.2620   68.6760  229.0830 F   0  0  0  0  0  0  0  0  0  0  0  0
  140.9850   70.7010  228.1250 C   0  0  0  0  0  0  0  0  0  0  0  0
  141.0710   71.4830  227.0110 C   0  0  0  0  0  0  0  0  0  0  0  0
  140.5530   71.0550  225.8060 C   0  0  0  0  0  0  0  0  0  0  0  0
  140.6870   71.9040  224.7550 N   0  0  0  0  0  0  0  0  0  0  0  0
  138.8830   73.8900  223.0890 H   0  0  0  0  0  0  0  0  0  0  0  0
  139.7591   73.8532  220.2849 H   0  0  0  0  0  0  0  0  0  0  0  0
  138.7981   75.1306  221.1524 H   0  0  0  0  0  0  0  0  0  0  0  0
  138.6411   77.1147  221.8092 H   0  0  0  0  0  0  0  0  0  0  0  0
  139.4076   76.5408  223.2979 H   0  0  0  0  0  0  0  0  0  0  0  0
  139.3727   79.3079  222.0980 H   0  0  0  0  0  0  0  0  0  0  0  0
  139.5142   78.8861  223.7831 H   0  0  0  0  0  0  0  0  0  0  0  0
  141.9352   78.2508  223.4836 H   0  0  0  0  0  0  0  0  0  0  0  0
  141.6945   80.4391  221.4931 H   0  0  0  0  0  0  0  0  0  0  0  0
  141.4077   80.7113  223.2325 H   0  0  0  0  0  0  0  0  0  0  0  0
  143.6880   79.3930  222.0670 H   0  0  0  0  0  0  0  0  0  0  0  0
  141.1466   78.4170  220.4546 H   0  0  0  0  0  0  0  0  0  0  0  0
  142.5640   77.6169  221.0427 H   0  0  0  0  0  0  0  0  0  0  0  0
  139.1879   70.0464  222.4191 H   0  0  0  0  0  0  0  0  0  0  0  0
  138.9335   68.4894  224.3221 H   0  0  0  0  0  0  0  0  0  0  0  0
  139.3526   68.0442  226.7530 H   0  0  0  0  0  0  0  0  0  0  0  0
  141.3963   71.0372  229.0882 H   0  0  0  0  0  0  0  0  0  0  0  0
  141.5592   72.4667  227.0740 H   0  0  0  0  0  0  0  0  0  0  0  0
  1  2  2  0
  2  3  1  0
  3  4  1  0
  4  5  1  0
  5  6  2  0
  5  7  1  0
  7  8  1  0
  8  9  1  0
  9 10  1  0
 10 11  1  0
 11 12  1  0
 10 13  1  0
  2 14  1  0
 14 15  2  0
 15 16  1  0
 16 17  2  0
 17 18  1  0
 18 19  2  0
 19 20  1  0
 19 21  1  0
 21 22  2  0
 22 23  1  0
 23 24  2  0
 13  7  1  0
 24 14  1  0
 23 17  1  0
  3 25  1  0
  4 26  1  0
  4 27  1  0
  8 28  1  0
  8 29  1  0
  9 30  1  0
  9 31  1  0
 10 32  1  1
 11 33  1  0
 11 34  1  0
 12 35  1  0
 13 36  1  0
 13 37  1  0
 15 38  1  0
 16 39  1  0
 18 40  1  0
 21 41  1  0
 22 42  1  0
M  END
>  <smiles>  (46) 
O=C(NCC(=O)N1CC[C@H](CO)C1)c1ccc2cc(F)ccc2n1

>  <score_type>  (46) 
oracle

>  <origin>  (46) 
autodockgpu

>  <m_score__min__energy>  (46) 
-7.7199999999999998

>  <m_primary>  (46) 
energy

>  <rmsd>  (46) 
3.5880529623414166

>  <m_score__min__rmsd>  (46) 
3.5880529623414166

>  <meeko>  (46) 
{"free_energy": -7.56, "intermolecular_energy": -9.35, "internal_energy": -0.71, "cluster_size": 12, "cluster_id": 2, "rank_in_cluster": 1}

>  <energy>  (46) 
-6.88

>  <cluster_rmsd>  (46) 
0.13

>  <cluster>  (46) 
4

$$$$

     RDKit          3D

 42 44  0  0  0  0  0  0  0  0999 V2000
  141.2520   71.8620  221.6690 O   0  0  0  0  0  0  0  0  0  0  0  0
  140.3720   72.0670  222.5500 C   0  0  0  0  0  0  0  0  0  0  0  0
  139.5110   73.1740  222.3720 N   0  0  0  0  0  0  0  0  0  0  0  0
  139.6840   73.9950  221.2090 C   0  0  0  0  0  0  0  0  0  0  0  0
  140.8410   74.9200  221.3340 C   0  0  0  0  0  0  0  0  0  0  0  0
  140.9490   75.7750  222.2490 O   0  0  0  0  0  0  0  0  0  0  0  0
  141.8770   74.8280  220.3650 N   0  0  0  0  0  0  0  0  0  0  0  0
  142.5180   75.9960  219.7920 C   0  0  0  0  0  0  0  0  0  0  0  0
  143.7100   75.4750  219.0170 C   0  0  0  0  0  0  0  0  0  0  0  0
  143.9300   74.1230  219.6620 C   0  0  2  0  0  0  0  0  0  0  0  0
  144.7580   73.2040  218.8100 C   0  0  0  0  0  0  0  0  0  0  0  0
  146.0600   73.2810  219.2530 O   0  0  0  0  0  0  0  0  0  0  0  0
  142.4750   73.6490  219.7810 C   0  0  0  0  0  0  0  0  0  0  0  0
  140.2100   71.2220  223.7270 C   0  0  0  0  0  0  0  0  0  0  0  0
  139.5430   70.0110  223.6190 C   0  0  0  0  0  0  0  0  0  0  0  0
  139.3590   69.1700  224.6930 C   0  0  0  0  0  0  0  0  0  0  0  0
  139.8630   69.5620  225.9240 C   0  0  0  0  0  0  0  0  0  0  0  0
  139.7310   68.7890  227.0630 C   0  0  0  0  0  0  0  0  0  0  0  0
  140.2600   69.2500  228.2460 C   0  0  0  0  0  0  0  0  0  0  0  0
  140.1210   68.4850  229.3450 F   0  0  0  0  0  0  0  0  0  0  0  0
  140.9210   70.4580  228.3400 C   0  0  0  0  0  0  0  0  0  0  0  0
  141.0420   71.2060  227.2060 C   0  0  0  0  0  0  0  0  0  0  0  0
  140.5190   70.7630  226.0090 C   0  0  0  0  0  0  0  0  0  0  0  0
  140.6900   71.5790  224.9360 N   0  0  0  0  0  0  0  0  0  0  0  0
  138.7570   73.4140  223.0540 H   0  0  0  0  0  0  0  0  0  0  0  0
  139.8455   73.3433  220.3377 H   0  0  0  0  0  0  0  0  0  0  0  0
  138.7772   74.6067  221.0930 H   0  0  0  0  0  0  0  0  0  0  0  0
  141.8245   76.5222  219.1196 H   0  0  0  0  0  0  0  0  0  0  0  0
  142.8226   76.7124  220.5692 H   0  0  0  0  0  0  0  0  0  0  0  0
  143.4793   75.3754  217.9461 H   0  0  0  0  0  0  0  0  0  0  0  0
  144.5891   76.1351  219.0539 H   0  0  0  0  0  0  0  0  0  0  0  0
  144.4901   74.1516  220.6083 H   0  0  0  0  0  0  0  0  0  0  0  0
  144.3902   72.1717  218.9057 H   0  0  0  0  0  0  0  0  0  0  0  0
  144.6933   73.4975  217.7518 H   0  0  0  0  0  0  0  0  0  0  0  0
  146.4670   74.1460  218.9570 H   0  0  0  0  0  0  0  0  0  0  0  0
  142.0400   73.4141  218.7984 H   0  0  0  0  0  0  0  0  0  0  0  0
  142.3340   72.7227  220.3573 H   0  0  0  0  0  0  0  0  0  0  0  0
  139.1460   69.7112  222.6380 H   0  0  0  0  0  0  0  0  0  0  0  0
  138.8272   68.2140  224.5781 H   0  0  0  0  0  0  0  0  0  0  0  0
  139.2110   67.8205  227.0236 H   0  0  0  0  0  0  0  0  0  0  0  0
  141.3363   70.8058  229.2974 H   0  0  0  0  0  0  0  0  0  0  0  0
  141.5629   72.1740  227.2464 H   0  0  0  0  0  0  0  0  0  0  0  0
  1  2  2  0
  2  3  1  0
  3  4  1  0
  4  5  1  0
  5  6  2  0
  5  7  1  0
  7  8  1  0
  8  9  1  0
  9 10  1  0
 10 11  1  0
 11 12  1  0
 10 13  1  0
  2 14  1  0
 14 15  2  0
 15 16  1  0
 16 17  2  0
 17 18  1  0
 18 19  2  0
 19 20  1  0
 19 21  1  0
 21 22  2  0
 22 23  1  0
 23 24  2  0
 13  7  1  0
 24 14  1  0
 23 17  1  0
  3 25  1  0
  4 26  1  0
  4 27  1  0
  8 28  1  0
  8 29  1  0
  9 30  1  0
  9 31  1  0
 10 32  1  1
 11 33  1  0
 11 34  1  0
 12 35  1  0
 13 36  1  0
 13 37  1  0
 15 38  1  0
 16 39  1  0
 18 40  1  0
 21 41  1  0
 22 42  1  0
M  END
>  <smiles>  (47) 
O=C(NCC(=O)N1CC[C@H](CO)C1)c1ccc2cc(F)ccc2n1

>  <score_type>  (47) 
oracle

>  <origin>  (47) 
autodockgpu

>  <m_score__min__energy>  (47) 
-7.7199999999999998

>  <m_primary>  (47) 
energy

>  <rmsd>  (47) 
2.6759708383242544

>  <m_score__min__rmsd>  (47) 
2.6759708383242544

>  <meeko>  (47) 
{"free_energy": -7.49, "intermolecular_energy": -9.27, "internal_energy": -0.82, "cluster_size": 29, "cluster_id": 1, "rank_in_cluster": 7}

>  <energy>  (47) 
-6.73

>  <cluster_rmsd>  (47) 
1.04

>  <cluster>  (47) 
4

$$$$

     RDKit          3D

 42 44  0  0  0  0  0  0  0  0999 V2000
  140.7450   71.9360  221.1860 O   0  0  0  0  0  0  0  0  0  0  0  0
  140.2240   72.3370  222.2640 C   0  0  0  0  0  0  0  0  0  0  0  0
  139.7430   73.6640  222.3060 N   0  0  0  0  0  0  0  0  0  0  0  0
  139.8730   74.4770  221.1310 C   0  0  0  0  0  0  0  0  0  0  0  0
  141.1630   75.2140  221.0910 C   0  0  0  0  0  0  0  0  0  0  0  0
  141.3410   76.3310  221.6390 O   0  0  0  0  0  0  0  0  0  0  0  0
  142.2500   74.6200  220.3920 N   0  0  0  0  0  0  0  0  0  0  0  0
  142.6150   75.0030  219.0410 C   0  0  0  0  0  0  0  0  0  0  0  0
  143.9460   74.3360  218.7690 C   0  0  0  0  0  0  0  0  0  0  0  0
  144.4550   74.0770  220.1720 C   0  0  2  0  0  0  0  0  0  0  0  0
  145.5390   73.0380  220.2100 C   0  0  0  0  0  0  0  0  0  0  0  0
  146.2730   73.1550  219.0500 O   0  0  0  0  0  0  0  0  0  0  0  0
  143.1590   73.5870  220.8340 C   0  0  0  0  0  0  0  0  0  0  0  0
  140.1010   71.4970  223.4490 C   0  0  0  0  0  0  0  0  0  0  0  0
  139.4790   70.2600  223.3560 C   0  0  0  0  0  0  0  0  0  0  0  0
  139.3330   69.4230  224.4390 C   0  0  0  0  0  0  0  0  0  0  0  0
  139.8290   69.8460  225.6630 C   0  0  0  0  0  0  0  0  0  0  0  0
  139.7310   69.0790  226.8100 C   0  0  0  0  0  0  0  0  0  0  0  0
  140.2480   69.5700  227.9860 C   0  0  0  0  0  0  0  0  0  0  0  0
  140.1440   68.8110  229.0930 F   0  0  0  0  0  0  0  0  0  0  0  0
  140.8640   70.8030  228.0650 C   0  0  0  0  0  0  0  0  0  0  0  0
  140.9510   71.5440  226.9240 C   0  0  0  0  0  0  0  0  0  0  0  0
  140.4390   71.0710  225.7330 C   0  0  0  0  0  0  0  0  0  0  0  0
  140.5730   71.8830  224.6520 N   0  0  0  0  0  0  0  0  0  0  0  0
  139.2990   74.0740  223.1580 H   0  0  0  0  0  0  0  0  0  0  0  0
  139.8089   73.8291  220.2444 H   0  0  0  0  0  0  0  0  0  0  0  0
  139.0626   75.2206  221.1467 H   0  0  0  0  0  0  0  0  0  0  0  0
  141.8571   74.6518  218.3253 H   0  0  0  0  0  0  0  0  0  0  0  0
  142.6802   76.0958  218.9335 H   0  0  0  0  0  0  0  0  0  0  0  0
  143.8169   73.3974  218.2101 H   0  0  0  0  0  0  0  0  0  0  0  0
  144.6284   74.9386  218.1516 H   0  0  0  0  0  0  0  0  0  0  0  0
  144.9280   74.9437  220.6568 H   0  0  0  0  0  0  0  0  0  0  0  0
  146.1879   73.2055  221.0823 H   0  0  0  0  0  0  0  0  0  0  0  0
  145.1042   72.0308  220.2906 H   0  0  0  0  0  0  0  0  0  0  0  0
  146.3750   74.1210  218.8120 H   0  0  0  0  0  0  0  0  0  0  0  0
  142.8610   72.5946  220.4646 H   0  0  0  0  0  0  0  0  0  0  0  0
  143.2158   73.4531  221.9243 H   0  0  0  0  0  0  0  0  0  0  0  0
  139.0880   69.9362  222.3802 H   0  0  0  0  0  0  0  0  0  0  0  0
  138.8371   68.4465  224.3365 H   0  0  0  0  0  0  0  0  0  0  0  0
  139.2470   68.0916  226.7819 H   0  0  0  0  0  0  0  0  0  0  0  0
  141.2710   71.1751  229.0168 H   0  0  0  0  0  0  0  0  0  0  0  0
  141.4354   72.5312  226.9531 H   0  0  0  0  0  0  0  0  0  0  0  0
  1  2  2  0
  2  3  1  0
  3  4  1  0
  4  5  1  0
  5  6  2  0
  5  7  1  0
  7  8  1  0
  8  9  1  0
  9 10  1  0
 10 11  1  0
 11 12  1  0
 10 13  1  0
  2 14  1  0
 14 15  2  0
 15 16  1  0
 16 17  2  0
 17 18  1  0
 18 19  2  0
 19 20  1  0
 19 21  1  0
 21 22  2  0
 22 23  1  0
 23 24  2  0
 13  7  1  0
 24 14  1  0
 23 17  1  0
  3 25  1  0
  4 26  1  0
  4 27  1  0
  8 28  1  0
  8 29  1  0
  9 30  1  0
  9 31  1  0
 10 32  1  1
 11 33  1  0
 11 34  1  0
 12 35  1  0
 13 36  1  0
 13 37  1  0
 15 38  1  0
 16 39  1  0
 18 40  1  0
 21 41  1  0
 22 42  1  0
M  END
>  <smiles>  (48) 
O=C(NCC(=O)N1CC[C@H](CO)C1)c1ccc2cc(F)ccc2n1

>  <score_type>  (48) 
oracle

>  <origin>  (48) 
autodockgpu

>  <m_score__min__energy>  (48) 
-7.7199999999999998

>  <m_primary>  (48) 
energy

>  <rmsd>  (48) 
3.095731973983235

>  <m_score__min__rmsd>  (48) 
3.095731973983235

>  <meeko>  (48) 
{"free_energy": -7.64, "intermolecular_energy": -9.43, "internal_energy": -0.93, "cluster_size": 29, "cluster_id": 1, "rank_in_cluster": 4}

>  <energy>  (48) 
-6.56

>  <cluster_rmsd>  (48) 
0.96

>  <cluster>  (48) 
4

$$$$

     RDKit          3D

 42 44  0  0  0  0  0  0  0  0999 V2000
  139.2000   71.3410  221.0970 O   0  0  0  0  0  0  0  0  0  0  0  0
  139.4910   71.8300  222.2230 C   0  0  0  0  0  0  0  0  0  0  0  0
  139.7130   73.2240  222.2950 N   0  0  0  0  0  0  0  0  0  0  0  0
  139.5960   73.9980  221.0930 C   0  0  0  0  0  0  0  0  0  0  0  0
  140.5460   73.5550  220.0380 C   0  0  0  0  0  0  0  0  0  0  0  0
  140.2420   73.4730  218.8210 O   0  0  0  0  0  0  0  0  0  0  0  0
  141.8670   73.2070  220.4320 N   0  0  0  0  0  0  0  0  0  0  0  0
  142.2590   71.8440  220.7360 C   0  0  0  0  0  0  0  0  0  0  0  0
  143.7680   71.8650  220.8580 C   0  0  0  0  0  0  0  0  0  0  0  0
  144.1210   73.1230  220.0920 C   0  0  2  0  0  0  0  0  0  0  0  0
  145.4960   73.6310  220.4190 C   0  0  0  0  0  0  0  0  0  0  0  0
  146.3270   73.2970  219.3720 O   0  0  0  0  0  0  0  0  0  0  0  0
  143.0200   74.0610  220.6050 C   0  0  0  0  0  0  0  0  0  0  0  0
  139.6060   71.0280  223.4350 C   0  0  0  0  0  0  0  0  0  0  0  0
  139.1220   69.7280  223.4490 C   0  0  0  0  0  0  0  0  0  0  0  0
  139.2020   68.9210  224.5620 C   0  0  0  0  0  0  0  0  0  0  0  0
  139.7890   69.4420  225.7050 C   0  0  0  0  0  0  0  0  0  0  0  0
  139.9170   68.7140  226.8740 C   0  0  0  0  0  0  0  0  0  0  0  0
  140.5120   69.3030  227.9650 C   0  0  0  0  0  0  0  0  0  0  0  0
  140.6270   68.5800  229.0940 F   0  0  0  0  0  0  0  0  0  0  0  0
  140.9890   70.5980  227.9370 C   0  0  0  0  0  0  0  0  0  0  0  0
  140.8550   71.3000  226.7760 C   0  0  0  0  0  0  0  0  0  0  0  0
  140.2610   70.7290  225.6700 C   0  0  0  0  0  0  0  0  0  0  0  0
  140.1730   71.5090  224.5610 N   0  0  0  0  0  0  0  0  0  0  0  0
  139.9580   73.7080  223.1870 H   0  0  0  0  0  0  0  0  0  0  0  0
  138.5702   73.8999  220.7083 H   0  0  0  0  0  0  0  0  0  0  0  0
  139.8352   75.0423  221.3423 H   0  0  0  0  0  0  0  0  0  0  0  0
  141.8030   71.5164  221.6819 H   0  0  0  0  0  0  0  0  0  0  0  0
  141.9261   71.1439  219.9556 H   0  0  0  0  0  0  0  0  0  0  0  0
  144.0843   71.9337  221.9093 H   0  0  0  0  0  0  0  0  0  0  0  0
  144.2593   70.9576  220.4768 H   0  0  0  0  0  0  0  0  0  0  0  0
  144.1571   73.0002  218.9995 H   0  0  0  0  0  0  0  0  0  0  0  0
  145.4716   74.7236  220.5439 H   0  0  0  0  0  0  0  0  0  0  0  0
  145.8588   73.1835  221.3561 H   0  0  0  0  0  0  0  0  0  0  0  0
  146.6610   74.1290  218.9280 H   0  0  0  0  0  0  0  0  0  0  0  0
  143.1730   74.3326  221.6599 H   0  0  0  0  0  0  0  0  0  0  0  0
  142.9603   75.0320  220.0916 H   0  0  0  0  0  0  0  0  0  0  0  0
  138.6567   69.3266  222.5366 H   0  0  0  0  0  0  0  0  0  0  0  0
  138.8115   67.8928  224.5447 H   0  0  0  0  0  0  0  0  0  0  0  0
  139.5483   67.6791  226.9302 H   0  0  0  0  0  0  0  0  0  0  0  0
  141.4616   71.0487  228.8222 H   0  0  0  0  0  0  0  0  0  0  0  0
  141.2251   72.3344  226.7207 H   0  0  0  0  0  0  0  0  0  0  0  0
  1  2  2  0
  2  3  1  0
  3  4  1  0
  4  5  1  0
  5  6  2  0
  5  7  1  0
  7  8  1  0
  8  9  1  0
  9 10  1  0
 10 11  1  0
 11 12  1  0
 10 13  1  0
  2 14  1  0
 14 15  2  0
 15 16  1  0
 16 17  2  0
 17 18  1  0
 18 19  2  0
 19 20  1  0
 19 21  1  0
 21 22  2  0
 22 23  1  0
 23 24  2  0
 13  7  1  0
 24 14  1  0
 23 17  1  0
  3 25  1  0
  4 26  1  0
  4 27  1  0
  8 28  1  0
  8 29  1  0
  9 30  1  0
  9 31  1  0
 10 32  1  6
 11 33  1  0
 11 34  1  0
 12 35  1  0
 13 36  1  0
 13 37  1  0
 15 38  1  0
 16 39  1  0
 18 40  1  0
 21 41  1  0
 22 42  1  0
M  END
>  <smiles>  (49) 
O=C(NCC(=O)N1CC[C@H](CO)C1)c1ccc2cc(F)ccc2n1

>  <score_type>  (49) 
oracle

>  <origin>  (49) 
autodockgpu

>  <m_score__min__energy>  (49) 
-7.7199999999999998

>  <m_primary>  (49) 
energy

>  <rmsd>  (49) 
3.5345211714399314

>  <m_score__min__rmsd>  (49) 
3.5345211714399314

>  <meeko>  (49) 
{"free_energy": -6.81, "intermolecular_energy": -8.6, "internal_energy": -1.1, "cluster_size": 29, "cluster_id": 1, "rank_in_cluster": 23}

>  <energy>  (49) 
-6.65

>  <cluster_rmsd>  (49) 
0.0

>  <cluster>  (49) 
5

$$$$

     RDKit          3D

 42 44  0  0  0  0  0  0  0  0999 V2000
  140.6480   71.9230  221.1660 O   0  0  0  0  0  0  0  0  0  0  0  0
  140.1870   72.3270  222.2690 C   0  0  0  0  0  0  0  0  0  0  0  0
  139.7270   73.6610  222.3390 N   0  0  0  0  0  0  0  0  0  0  0  0
  139.8070   74.4750  221.1600 C   0  0  0  0  0  0  0  0  0  0  0  0
  141.1390   75.1130  221.0010 C   0  0  0  0  0  0  0  0  0  0  0  0
  141.4180   76.2570  221.4410 O   0  0  0  0  0  0  0  0  0  0  0  0
  142.1500   74.3870  220.3120 N   0  0  0  0  0  0  0  0  0  0  0  0
  142.2990   74.4310  218.8700 C   0  0  0  0  0  0  0  0  0  0  0  0
  143.6150   73.7450  218.5700 C   0  0  0  0  0  0  0  0  0  0  0  0
  144.3290   73.8510  219.9020 C   0  0  2  0  0  0  0  0  0  0  0  0
  145.4650   72.8770  220.0270 C   0  0  0  0  0  0  0  0  0  0  0  0
  146.3190   73.0890  218.9660 O   0  0  0  0  0  0  0  0  0  0  0  0
  143.1690   73.5140  220.8480 C   0  0  0  0  0  0  0  0  0  0  0  0
  140.1140   71.4870  223.4580 C   0  0  0  0  0  0  0  0  0  0  0  0
  139.5130   70.2380  223.3830 C   0  0  0  0  0  0  0  0  0  0  0  0
  139.4130   69.3990  224.4700 C   0  0  0  0  0  0  0  0  0  0  0  0
  139.9360   69.8320  225.6790 C   0  0  0  0  0  0  0  0  0  0  0  0
  139.8850   69.0640  226.8290 C   0  0  0  0  0  0  0  0  0  0  0  0
  140.4270   69.5660  227.9890 C   0  0  0  0  0  0  0  0  0  0  0  0
  140.3690   68.8060  229.0980 F   0  0  0  0  0  0  0  0  0  0  0  0
  141.0220   70.8100  228.0500 C   0  0  0  0  0  0  0  0  0  0  0  0
  141.0630   71.5520  226.9060 C   0  0  0  0  0  0  0  0  0  0  0  0
  140.5250   71.0690  225.7320 C   0  0  0  0  0  0  0  0  0  0  0  0
  140.6140   71.8820  224.6470 N   0  0  0  0  0  0  0  0  0  0  0  0
  139.3310   74.0740  223.2130 H   0  0  0  0  0  0  0  0  0  0  0  0
  139.6107   73.8436  220.2809 H   0  0  0  0  0  0  0  0  0  0  0  0
  139.0604   75.2772  221.2553 H   0  0  0  0  0  0  0  0  0  0  0  0
  141.4693   73.8978  218.3828 H   0  0  0  0  0  0  0  0  0  0  0  0
  142.2860   75.4643  218.4930 H   0  0  0  0  0  0  0  0  0  0  0  0
  143.4625   72.6951  218.2795 H   0  0  0  0  0  0  0  0  0  0  0  0
  144.1689   74.1904  217.7305 H   0  0  0  0  0  0  0  0  0  0  0  0
  144.8153   74.8201  220.0873 H   0  0  0  0  0  0  0  0  0  0  0  0
  145.9975   73.0426  220.9751 H   0  0  0  0  0  0  0  0  0  0  0  0
  145.0885   71.8435  220.0173 H   0  0  0  0  0  0  0  0  0  0  0  0
  146.3490   74.0650  218.7480 H   0  0  0  0  0  0  0  0  0  0  0  0
  142.8786   72.4554  220.7776 H   0  0  0  0  0  0  0  0  0  0  0  0
  143.3858   73.6549  221.9172 H   0  0  0  0  0  0  0  0  0  0  0  0
  139.1011   69.9060  222.4186 H   0  0  0  0  0  0  0  0  0  0  0  0
  138.9321   68.4136  224.3819 H   0  0  0  0  0  0  0  0  0  0  0  0
  139.4184   68.0680  226.8155 H   0  0  0  0  0  0  0  0  0  0  0  0
  141.4489   71.1904  228.9897 H   0  0  0  0  0  0  0  0  0  0  0  0
  141.5308   72.5475  226.9203 H   0  0  0  0  0  0  0  0  0  0  0  0
  1  2  2  0
  2  3  1  0
  3  4  1  0
  4  5  1  0
  5  6  2  0
  5  7  1  0
  7  8  1  0
  8  9  1  0
  9 10  1  0
 10 11  1  0
 11 12  1  0
 10 13  1  0
  2 14  1  0
 14 15  2  0
 15 16  1  0
 16 17  2  0
 17 18  1  0
 18 19  2  0
 19 20  1  0
 19 21  1  0
 21 22  2  0
 22 23  1  0
 23 24  2  0
 13  7  1  0
 24 14  1  0
 23 17  1  0
  3 25  1  0
  4 26  1  0
  4 27  1  0
  8 28  1  0
  8 29  1  0
  9 30  1  0
  9 31  1  0
 10 32  1  1
 11 33  1  0
 11 34  1  0
 12 35  1  0
 13 36  1  0
 13 37  1  0
 15 38  1  0
 16 39  1  0
 18 40  1  0
 21 41  1  0
 22 42  1  0
M  END
>  <smiles>  (50) 
O=C(NCC(=O)N1CC[C@H](CO)C1)c1ccc2cc(F)ccc2n1

>  <score_type>  (50) 
oracle

>  <origin>  (50) 
autodockgpu

>  <m_score__min__energy>  (50) 
-7.7199999999999998

>  <m_primary>  (50) 
energy

>  <rmsd>  (50) 
3.118350560462472

>  <m_score__min__rmsd>  (50) 
3.118350560462472

>  <meeko>  (50) 
{"free_energy": -7.39, "intermolecular_energy": -9.18, "internal_energy": -0.98, "cluster_size": 29, "cluster_id": 1, "rank_in_cluster": 10}

>  <energy>  (50) 
-6.51

>  <cluster_rmsd>  (50) 
0.0

>  <cluster>  (50) 
6

$$$$
