
     RDKit          3D

 49 52  0  0  0  0  0  0  0  0999 V2000
  137.3150   70.1780  222.1350 O   0  0  0  0  0  0  0  0  0  0  0  0
  138.0450   70.8570  222.9340 C   0  0  0  0  0  0  0  0  0  0  0  0
  138.2390   72.2500  222.7290 N   0  0  0  0  0  0  0  0  0  0  0  0
  137.6420   72.9700  221.6330 C   0  0  0  0  0  0  0  0  0  0  0  0
  137.5710   74.4370  221.9260 C   0  0  0  0  0  0  0  0  0  0  0  0
  136.5390   74.8940  222.4830 O   0  0  0  0  0  0  0  0  0  0  0  0
  138.6840   75.2400  221.5560 N   0  0  0  0  0  0  0  0  0  0  0  0
  139.6450   75.0040  220.4950 C   0  0  0  0  0  0  0  0  0  0  0  0
  140.8020   75.8950  220.8990 C   0  0  2  0  0  0  0  0  0  0  0  0
  141.4450   75.2590  221.9600 O   0  0  0  0  0  0  0  0  0  0  0  0
  140.0390   77.1210  221.3490 C   0  0  2  0  0  0  0  0  0  0  0  0
  140.8690   78.1450  221.9920 C   0  0  0  0  0  0  0  0  0  0  0  0
  141.1500   78.1890  223.3450 C   0  0  0  0  0  0  0  0  0  0  0  0
  141.9480   79.1880  223.9000 C   0  0  0  0  0  0  0  0  0  0  0  0
  142.4610   80.1530  223.0510 C   0  0  0  0  0  0  0  0  0  0  0  0
  142.2070   80.1500  221.6930 C   0  0  0  0  0  0  0  0  0  0  0  0
  141.4120   79.1420  221.1810 C   0  0  0  0  0  0  0  0  0  0  0  0
  139.0140   76.4870  222.2550 C   0  0  0  0  0  0  0  0  0  0  0  0
  138.6930   70.1950  224.0830 C   0  0  0  0  0  0  0  0  0  0  0  0
  138.6630   68.8170  224.1580 C   0  0  0  0  0  0  0  0  0  0  0  0
  139.2870   68.2340  225.2590 C   0  0  0  0  0  0  0  0  0  0  0  0
  139.9070   69.0210  226.2290 C   0  0  0  0  0  0  0  0  0  0  0  0
  140.5270   68.4480  227.3220 C   0  0  0  0  0  0  0  0  0  0  0  0
  141.1300   69.2500  228.2620 C   0  0  0  0  0  0  0  0  0  0  0  0
  141.1400   70.6390  228.1520 C   0  0  0  0  0  0  0  0  0  0  0  0
  140.5130   71.1840  227.0480 C   0  0  0  0  0  0  0  0  0  0  0  0
  139.9050   70.3900  226.1010 C   0  0  0  0  0  0  0  0  0  0  0  0
  139.2940   70.9280  225.0260 N   0  0  0  0  0  0  0  0  0  0  0  0
  138.8580   72.7470  223.4350 H   0  0  0  0  0  0  0  0  0  0  0  0
  138.2475   72.8134  220.7281 H   0  0  0  0  0  0  0  0  0  0  0  0
  136.6191   72.5938  221.4840 H   0  0  0  0  0  0  0  0  0  0  0  0
  139.9493   73.9475  220.4616 H   0  0  0  0  0  0  0  0  0  0  0  0
  139.2528   75.2218  219.4906 H   0  0  0  0  0  0  0  0  0  0  0  0
  141.5708   76.1177  220.1444 H   0  0  0  0  0  0  0  0  0  0  0  0
  142.3390   75.6530  222.0680 H   0  0  0  0  0  0  0  0  0  0  0  0
  139.6065   77.7110  220.5276 H   0  0  0  0  0  0  0  0  0  0  0  0
  140.7315   77.4129  224.0027 H   0  0  0  0  0  0  0  0  0  0  0  0
  142.1632   79.2087  224.9785 H   0  0  0  0  0  0  0  0  0  0  0  0
  143.0924   80.9494  223.4717 H   0  0  0  0  0  0  0  0  0  0  0  0
  142.6257   80.9280  221.0377 H   0  0  0  0  0  0  0  0  0  0  0  0
  141.2010   79.1253  220.1016 H   0  0  0  0  0  0  0  0  0  0  0  0
  139.4374   76.2829  223.2495 H   0  0  0  0  0  0  0  0  0  0  0  0
  138.1386   77.1281  222.4356 H   0  0  0  0  0  0  0  0  0  0  0  0
  138.1701   68.2083  223.3856 H   0  0  0  0  0  0  0  0  0  0  0  0
  139.2906   67.1391  225.3644 H   0  0  0  0  0  0  0  0  0  0  0  0
  140.5383   67.3544  227.4400 H   0  0  0  0  0  0  0  0  0  0  0  0
  141.6198   68.7805  229.1278 H   0  0  0  0  0  0  0  0  0  0  0  0
  141.6248   71.2726  228.9093 H   0  0  0  0  0  0  0  0  0  0  0  0
  140.4991   72.2767  226.9226 H   0  0  0  0  0  0  0  0  0  0  0  0
  1  2  2  0
  2  3  1  0
  3  4  1  0
  4  5  1  0
  5  6  2  0
  5  7  1  0
  7  8  1  0
  8  9  1  0
  9 10  1  0
  9 11  1  0
 11 12  1  0
 12 13  2  0
 13 14  1  0
 14 15  2  0
 15 16  1  0
 16 17  2  0
 11 18  1  0
  2 19  1  0
 19 20  2  0
 20 21  1  0
 21 22  2  0
 22 23  1  0
 23 24  2  0
 24 25  1  0
 25 26  2  0
 26 27  1  0
 27 28  2  0
 18  7  1  0
 28 19  1  0
 17 12  1  0
 27 22  1  0
  3 29  1  0
  4 30  1  0
  4 31  1  0
  8 32  1  0
  8 33  1  0
  9 34  1  6
 10 35  1  0
 11 36  1  6
 13 37  1  0
 14 38  1  0
 15 39  1  0
 16 40  1  0
 17 41  1  0
 18 42  1  0
 18 43  1  0
 20 44  1  0
 21 45  1  0
 23 46  1  0
 24 47  1  0
 25 48  1  0
 26 49  1  0
M  END
>  <smiles>  (1) 
O=C(NCC(=O)N1C[C@H](O)[C@H](c2ccccc2)C1)c1ccc2ccccc2n1

>  <score_type>  (1) 
oracle

>  <origin>  (1) 
autodockgpu

>  <m_score__min__energy>  (1) 
-9.0199999999999996

>  <m_primary>  (1) 
energy

>  <rmsd>  (1) 
2.871724650366203

>  <m_score__min__rmsd>  (1) 
2.871724650366203

>  <meeko>  (1) 
{"free_energy": -8.66, "intermolecular_energy": -10.45, "internal_energy": -1.38, "cluster_size": 18, "cluster_id": 2, "rank_in_cluster": 14}

>  <energy>  (1) 
-9.02

>  <cluster_rmsd>  (1) 
0.0

>  <cluster>  (1) 
1

$$$$

     RDKit          3D

 49 52  0  0  0  0  0  0  0  0999 V2000
  139.8640   70.7130  221.4110 O   0  0  0  0  0  0  0  0  0  0  0  0
  139.7050   71.2450  222.5620 C   0  0  0  0  0  0  0  0  0  0  0  0
  139.4900   72.6430  222.6900 N   0  0  0  0  0  0  0  0  0  0  0  0
  139.4370   73.5330  221.5570 C   0  0  0  0  0  0  0  0  0  0  0  0
  140.8030   74.0330  221.2000 C   0  0  0  0  0  0  0  0  0  0  0  0
  141.7600   73.2170  221.1850 O   0  0  0  0  0  0  0  0  0  0  0  0
  140.9420   75.4150  220.8950 N   0  0  0  0  0  0  0  0  0  0  0  0
  140.9910   76.0420  219.5880 C   0  0  0  0  0  0  0  0  0  0  0  0
  141.6120   77.3900  219.8970 C   0  0  2  0  0  0  0  0  0  0  0  0
  142.9700   77.1640  220.1130 O   0  0  0  0  0  0  0  0  0  0  0  0
  140.8800   77.7240  221.1790 C   0  0  2  0  0  0  0  0  0  0  0  0
  141.3840   78.9160  221.8670 C   0  0  0  0  0  0  0  0  0  0  0  0
  141.5060   80.1640  221.2830 C   0  0  0  0  0  0  0  0  0  0  0  0
  141.9920   81.2630  221.9890 C   0  0  0  0  0  0  0  0  0  0  0  0
  142.3560   81.0750  223.3110 C   0  0  0  0  0  0  0  0  0  0  0  0
  142.2520   79.8460  223.9360 C   0  0  0  0  0  0  0  0  0  0  0  0
  141.7650   78.7810  223.2020 C   0  0  0  0  0  0  0  0  0  0  0  0
  141.0640   76.4360  221.9400 C   0  0  0  0  0  0  0  0  0  0  0  0
  139.7440   70.4020  223.7740 C   0  0  0  0  0  0  0  0  0  0  0  0
  139.1810   69.1430  223.7250 C   0  0  0  0  0  0  0  0  0  0  0  0
  139.2410   68.3820  224.8910 C   0  0  0  0  0  0  0  0  0  0  0  0
  139.8450   68.8860  226.0430 C   0  0  0  0  0  0  0  0  0  0  0  0
  139.9070   68.1360  227.2000 C   0  0  0  0  0  0  0  0  0  0  0  0
  140.5100   68.6590  228.3200 C   0  0  0  0  0  0  0  0  0  0  0  0
  141.0680   69.9350  228.3310 C   0  0  0  0  0  0  0  0  0  0  0  0
  140.9920   70.6620  227.1580 C   0  0  0  0  0  0  0  0  0  0  0  0
  140.3900   70.1480  226.0310 C   0  0  0  0  0  0  0  0  0  0  0  0
  140.3190   70.8630  224.8900 N   0  0  0  0  0  0  0  0  0  0  0  0
  139.3660   73.0110  223.6780 H   0  0  0  0  0  0  0  0  0  0  0  0
  139.0154   72.9938  220.6959 H   0  0  0  0  0  0  0  0  0  0  0  0
  138.8067   74.3955  221.8193 H   0  0  0  0  0  0  0  0  0  0  0  0
  141.6184   75.4647  218.8929 H   0  0  0  0  0  0  0  0  0  0  0  0
  140.0091   76.1125  219.0971 H   0  0  0  0  0  0  0  0  0  0  0  0
  141.5346   78.1812  219.1368 H   0  0  0  0  0  0  0  0  0  0  0  0
  143.4800   77.9050  219.7160 H   0  0  0  0  0  0  0  0  0  0  0  0
  139.8283   78.0141  221.0380 H   0  0  0  0  0  0  0  0  0  0  0  0
  141.2109   80.2927  220.2312 H   0  0  0  0  0  0  0  0  0  0  0  0
  142.0835   82.2492  221.5104 H   0  0  0  0  0  0  0  0  0  0  0  0
  142.7408   81.9318  223.8835 H   0  0  0  0  0  0  0  0  0  0  0  0
  142.5485   79.7195  224.9877 H   0  0  0  0  0  0  0  0  0  0  0  0
  141.6751   77.7970  223.6853 H   0  0  0  0  0  0  0  0  0  0  0  0
  142.0543   76.3968  222.4173 H   0  0  0  0  0  0  0  0  0  0  0  0
  140.3391   76.3083  222.7575 H   0  0  0  0  0  0  0  0  0  0  0  0
  138.7076   68.7585  222.8095 H   0  0  0  0  0  0  0  0  0  0  0  0
  138.8067   67.3714  224.9031 H   0  0  0  0  0  0  0  0  0  0  0  0
  139.4760   67.1243  227.2262 H   0  0  0  0  0  0  0  0  0  0  0  0
  140.5529   68.0506  229.2355 H   0  0  0  0  0  0  0  0  0  0  0  0
  141.5473   70.3454  229.2320 H   0  0  0  0  0  0  0  0  0  0  0  0
  141.4220   71.6739  227.1238 H   0  0  0  0  0  0  0  0  0  0  0  0
  1  2  2  0
  2  3  1  0
  3  4  1  0
  4  5  1  0
  5  6  2  0
  5  7  1  0
  7  8  1  0
  8  9  1  0
  9 10  1  0
  9 11  1  0
 11 12  1  0
 12 13  2  0
 13 14  1  0
 14 15  2  0
 15 16  1  0
 16 17  2  0
 11 18  1  0
  2 19  1  0
 19 20  2  0
 20 21  1  0
 21 22  2  0
 22 23  1  0
 23 24  2  0
 24 25  1  0
 25 26  2  0
 26 27  1  0
 27 28  2  0
 18  7  1  0
 28 19  1  0
 17 12  1  0
 27 22  1  0
  3 29  1  0
  4 30  1  0
  4 31  1  0
  8 32  1  0
  8 33  1  0
  9 34  1  6
 10 35  1  0
 11 36  1  6
 13 37  1  0
 14 38  1  0
 15 39  1  0
 16 40  1  0
 17 41  1  0
 18 42  1  0
 18 43  1  0
 20 44  1  0
 21 45  1  0
 23 46  1  0
 24 47  1  0
 25 48  1  0
 26 49  1  0
M  END
>  <smiles>  (2) 
O=C(NCC(=O)N1C[C@H](O)[C@H](c2ccccc2)C1)c1ccc2ccccc2n1

>  <score_type>  (2) 
oracle

>  <origin>  (2) 
autodockgpu

>  <m_score__min__energy>  (2) 
-9.0199999999999996

>  <m_primary>  (2) 
energy

>  <rmsd>  (2) 
2.6654927793234795

>  <m_score__min__rmsd>  (2) 
2.6654927793234795

>  <meeko>  (2) 
{"free_energy": -8.88, "intermolecular_energy": -10.67, "internal_energy": -1.19, "cluster_size": 18, "cluster_id": 2, "rank_in_cluster": 7}

>  <energy>  (2) 
-8.83

>  <cluster_rmsd>  (2) 
1.45

>  <cluster>  (2) 
1

$$$$

     RDKit          3D

 49 52  0  0  0  0  0  0  0  0999 V2000
  139.5370   74.4430  222.3520 O   0  0  0  0  0  0  0  0  0  0  0  0
  140.4310   75.2720  221.9700 C   0  0  0  0  0  0  0  0  0  0  0  0
  141.5260   74.8390  221.1740 N   0  0  0  0  0  0  0  0  0  0  0  0
  141.6950   73.4700  220.7550 C   0  0  0  0  0  0  0  0  0  0  0  0
  140.3770   72.7640  220.6720 C   0  0  0  0  0  0  0  0  0  0  0  0
  139.6620   72.9360  219.6510 O   0  0  0  0  0  0  0  0  0  0  0  0
  140.0030   71.9310  221.7620 N   0  0  0  0  0  0  0  0  0  0  0  0
  138.9370   70.9490  221.8130 C   0  0  0  0  0  0  0  0  0  0  0  0
  138.7370   70.7630  223.3040 C   0  0  2  0  0  0  0  0  0  0  0  0
  138.0560   71.8910  223.7590 O   0  0  0  0  0  0  0  0  0  0  0  0
  140.1800   70.7480  223.7590 C   0  0  2  0  0  0  0  0  0  0  0  0
  140.3540   70.7640  225.2140 C   0  0  0  0  0  0  0  0  0  0  0  0
  140.8650   71.8320  225.9290 C   0  0  0  0  0  0  0  0  0  0  0  0
  141.0070   71.7900  227.3150 C   0  0  0  0  0  0  0  0  0  0  0  0
  140.6170   70.6360  227.9710 C   0  0  0  0  0  0  0  0  0  0  0  0
  140.1010   69.5440  227.2990 C   0  0  0  0  0  0  0  0  0  0  0  0
  139.9760   69.6250  225.9250 C   0  0  0  0  0  0  0  0  0  0  0  0
  140.7010   71.9730  223.0510 C   0  0  0  0  0  0  0  0  0  0  0  0
  140.3310   76.6930  222.3550 C   0  0  0  0  0  0  0  0  0  0  0  0
  139.0790   77.2520  222.5090 C   0  0  0  0  0  0  0  0  0  0  0  0
  139.0310   78.5960  222.8740 C   0  0  0  0  0  0  0  0  0  0  0  0
  140.2040   79.3260  223.0690 C   0  0  0  0  0  0  0  0  0  0  0  0
  140.1610   80.6580  223.4310 C   0  0  0  0  0  0  0  0  0  0  0  0
  141.3350   81.3510  223.6170 C   0  0  0  0  0  0  0  0  0  0  0  0
  142.5810   80.7520  223.4530 C   0  0  0  0  0  0  0  0  0  0  0  0
  142.5920   79.4180  223.0920 C   0  0  0  0  0  0  0  0  0  0  0  0
  141.4240   78.7140  222.9020 C   0  0  0  0  0  0  0  0  0  0  0  0
  141.4410   77.4130  222.5490 N   0  0  0  0  0  0  0  0  0  0  0  0
  142.2280   75.5850  220.8940 H   0  0  0  0  0  0  0  0  0  0  0  0
  142.1739   73.4540  219.7648 H   0  0  0  0  0  0  0  0  0  0  0  0
  142.3218   72.9529  221.4965 H   0  0  0  0  0  0  0  0  0  0  0  0
  138.0229   71.3287  221.3332 H   0  0  0  0  0  0  0  0  0  0  0  0
  139.1735   70.0155  221.2814 H   0  0  0  0  0  0  0  0  0  0  0  0
  138.1683   69.8848  223.6436 H   0  0  0  0  0  0  0  0  0  0  0  0
  138.4380   72.6860  223.3250 H   0  0  0  0  0  0  0  0  0  0  0  0
  140.7228   69.8237  223.5121 H   0  0  0  0  0  0  0  0  0  0  0  0
  141.1681   72.7407  225.3883 H   0  0  0  0  0  0  0  0  0  0  0  0
  141.4162   72.6473  227.8697 H   0  0  0  0  0  0  0  0  0  0  0  0
  140.7212   70.5859  229.0649 H   0  0  0  0  0  0  0  0  0  0  0  0
  139.7985   68.6365  227.8421 H   0  0  0  0  0  0  0  0  0  0  0  0
  139.5659   68.7650  225.3753 H   0  0  0  0  0  0  0  0  0  0  0  0
  140.4494   72.8881  223.6072 H   0  0  0  0  0  0  0  0  0  0  0  0
  141.7964   71.9826  222.9506 H   0  0  0  0  0  0  0  0  0  0  0  0
  138.1624   76.6647  222.3512 H   0  0  0  0  0  0  0  0  0  0  0  0
  138.0564   79.0875  223.0100 H   0  0  0  0  0  0  0  0  0  0  0  0
  139.1933   81.1623  223.5699 H   0  0  0  0  0  0  0  0  0  0  0  0
  141.2876   82.4117  223.9043 H   0  0  0  0  0  0  0  0  0  0  0  0
  143.5140   81.3147  223.6039 H   0  0  0  0  0  0  0  0  0  0  0  0
  143.5561   78.9068  222.9532 H   0  0  0  0  0  0  0  0  0  0  0  0
  1  2  2  0
  2  3  1  0
  3  4  1  0
  4  5  1  0
  5  6  2  0
  5  7  1  0
  7  8  1  0
  8  9  1  0
  9 10  1  0
  9 11  1  0
 11 12  1  0
 12 13  2  0
 13 14  1  0
 14 15  2  0
 15 16  1  0
 16 17  2  0
 11 18  1  0
  2 19  1  0
 19 20  2  0
 20 21  1  0
 21 22  2  0
 22 23  1  0
 23 24  2  0
 24 25  1  0
 25 26  2  0
 26 27  1  0
 27 28  2  0
 18  7  1  0
 28 19  1  0
 17 12  1  0
 27 22  1  0
  3 29  1  0
  4 30  1  0
  4 31  1  0
  8 32  1  0
  8 33  1  0
  9 34  1  6
 10 35  1  0
 11 36  1  6
 13 37  1  0
 14 38  1  0
 15 39  1  0
 16 40  1  0
 17 41  1  0
 18 42  1  0
 18 43  1  0
 20 44  1  0
 21 45  1  0
 23 46  1  0
 24 47  1  0
 25 48  1  0
 26 49  1  0
M  END
>  <smiles>  (3) 
O=C(NCC(=O)N1C[C@H](O)[C@H](c2ccccc2)C1)c1ccc2ccccc2n1

>  <score_type>  (3) 
oracle

>  <origin>  (3) 
autodockgpu

>  <m_score__min__energy>  (3) 
-9.0199999999999996

>  <m_primary>  (3) 
energy

>  <rmsd>  (3) 
8.164339005018027

>  <m_score__min__rmsd>  (3) 
8.164339005018027

>  <meeko>  (3) 
{"free_energy": -8.83, "intermolecular_energy": -10.62, "internal_energy": -1.61, "cluster_size": 21, "cluster_id": 1, "rank_in_cluster": 2}

>  <energy>  (3) 
-8.83

>  <cluster_rmsd>  (3) 
0.94

>  <cluster>  (3) 
1

$$$$

     RDKit          3D

 49 52  0  0  0  0  0  0  0  0999 V2000
  137.7230   75.9470  222.3930 O   0  0  0  0  0  0  0  0  0  0  0  0
  138.9650   76.2340  222.3160 C   0  0  0  0  0  0  0  0  0  0  0  0
  139.9000   75.2760  221.8400 N   0  0  0  0  0  0  0  0  0  0  0  0
  139.5190   73.9500  221.4240 C   0  0  0  0  0  0  0  0  0  0  0  0
  140.5020   72.9290  221.9080 C   0  0  0  0  0  0  0  0  0  0  0  0
  141.7120   73.0560  221.5900 O   0  0  0  0  0  0  0  0  0  0  0  0
  140.0070   71.8620  222.7070 N   0  0  0  0  0  0  0  0  0  0  0  0
  138.8960   70.9740  222.4260 C   0  0  0  0  0  0  0  0  0  0  0  0
  138.5740   70.4110  223.7960 C   0  0  2  0  0  0  0  0  0  0  0  0
  137.9130   71.4180  224.4970 O   0  0  0  0  0  0  0  0  0  0  0  0
  139.9750   70.1810  224.3180 C   0  0  2  0  0  0  0  0  0  0  0  0
  140.0370   69.7980  225.7310 C   0  0  0  0  0  0  0  0  0  0  0  0
  139.8580   68.5100  226.2020 C   0  0  0  0  0  0  0  0  0  0  0  0
  139.9300   68.2050  227.5600 C   0  0  0  0  0  0  0  0  0  0  0  0
  140.1880   69.2390  228.4430 C   0  0  0  0  0  0  0  0  0  0  0  0
  140.3730   70.5420  228.0190 C   0  0  0  0  0  0  0  0  0  0  0  0
  140.2950   70.8030  226.6640 C   0  0  0  0  0  0  0  0  0  0  0  0
  140.6060   71.5140  224.0010 C   0  0  0  0  0  0  0  0  0  0  0  0
  139.4390   77.5720  222.7220 C   0  0  0  0  0  0  0  0  0  0  0  0
  138.5080   78.5220  223.0910 C   0  0  0  0  0  0  0  0  0  0  0  0
  138.9980   79.7700  223.4670 C   0  0  0  0  0  0  0  0  0  0  0  0
  140.3690   80.0300  223.4650 C   0  0  0  0  0  0  0  0  0  0  0  0
  140.8600   81.2650  223.8370 C   0  0  0  0  0  0  0  0  0  0  0  0
  142.2170   81.4910  223.8250 C   0  0  0  0  0  0  0  0  0  0  0  0
  143.1270   80.5070  223.4470 C   0  0  0  0  0  0  0  0  0  0  0  0
  142.6060   79.2800  223.0800 C   0  0  0  0  0  0  0  0  0  0  0  0
  141.2490   79.0430  223.0870 C   0  0  0  0  0  0  0  0  0  0  0  0
  140.7480   77.8440  222.7290 N   0  0  0  0  0  0  0  0  0  0  0  0
  140.9150   75.5880  221.8040 H   0  0  0  0  0  0  0  0  0  0  0  0
  138.5261   73.7159  221.8355 H   0  0  0  0  0  0  0  0  0  0  0  0
  139.4988   73.9214  220.3246 H   0  0  0  0  0  0  0  0  0  0  0  0
  138.0399   71.5267  222.0117 H   0  0  0  0  0  0  0  0  0  0  0  0
  139.1289   70.2022  221.6776 H   0  0  0  0  0  0  0  0  0  0  0  0
  137.9408   69.5131  223.8492 H   0  0  0  0  0  0  0  0  0  0  0  0
  137.9850   72.2560  223.9860 H   0  0  0  0  0  0  0  0  0  0  0  0
  140.4914   69.3222  223.8643 H   0  0  0  0  0  0  0  0  0  0  0  0
  139.6528   67.7026  225.4837 H   0  0  0  0  0  0  0  0  0  0  0  0
  139.7863   67.1751  227.9186 H   0  0  0  0  0  0  0  0  0  0  0  0
  140.2479   69.0167  229.5186 H   0  0  0  0  0  0  0  0  0  0  0  0
  140.5764   71.3479  228.7395 H   0  0  0  0  0  0  0  0  0  0  0  0
  140.4407   71.8343  226.3103 H   0  0  0  0  0  0  0  0  0  0  0  0
  140.3553   72.2625  224.7671 H   0  0  0  0  0  0  0  0  0  0  0  0
  141.7051   71.4787  223.9750 H   0  0  0  0  0  0  0  0  0  0  0  0
  137.4299   78.3035  223.0882 H   0  0  0  0  0  0  0  0  0  0  0  0
  138.2956   80.5607  223.7693 H   0  0  0  0  0  0  0  0  0  0  0  0
  140.1694   82.0651  224.1418 H   0  0  0  0  0  0  0  0  0  0  0  0
  142.5950   82.4800  224.1233 H   0  0  0  0  0  0  0  0  0  0  0  0
  144.2104   80.6972  223.4407 H   0  0  0  0  0  0  0  0  0  0  0  0
  143.2907   78.4747  222.7755 H   0  0  0  0  0  0  0  0  0  0  0  0
  1  2  2  0
  2  3  1  0
  3  4  1  0
  4  5  1  0
  5  6  2  0
  5  7  1  0
  7  8  1  0
  8  9  1  0
  9 10  1  0
  9 11  1  0
 11 12  1  0
 12 13  2  0
 13 14  1  0
 14 15  2  0
 15 16  1  0
 16 17  2  0
 11 18  1  0
  2 19  1  0
 19 20  2  0
 20 21  1  0
 21 22  2  0
 22 23  1  0
 23 24  2  0
 24 25  1  0
 25 26  2  0
 26 27  1  0
 27 28  2  0
 18  7  1  0
 28 19  1  0
 17 12  1  0
 27 22  1  0
  3 29  1  0
  4 30  1  0
  4 31  1  0
  8 32  1  0
  8 33  1  0
  9 34  1  6
 10 35  1  0
 11 36  1  6
 13 37  1  0
 14 38  1  0
 15 39  1  0
 16 40  1  0
 17 41  1  0
 18 42  1  0
 18 43  1  0
 20 44  1  0
 21 45  1  0
 23 46  1  0
 24 47  1  0
 25 48  1  0
 26 49  1  0
M  END
>  <smiles>  (4) 
O=C(NCC(=O)N1C[C@H](O)[C@H](c2ccccc2)C1)c1ccc2ccccc2n1

>  <score_type>  (4) 
oracle

>  <origin>  (4) 
autodockgpu

>  <m_score__min__energy>  (4) 
-9.0199999999999996

>  <m_primary>  (4) 
energy

>  <rmsd>  (4) 
8.840056972539186

>  <m_score__min__rmsd>  (4) 
8.840056972539186

>  <meeko>  (4) 
{"free_energy": -8.83, "intermolecular_energy": -10.62, "internal_energy": -1.58, "cluster_size": 21, "cluster_id": 1, "rank_in_cluster": 3}

>  <energy>  (4) 
-8.82

>  <cluster_rmsd>  (4) 
0.95

>  <cluster>  (4) 
1

$$$$

     RDKit          3D

 49 52  0  0  0  0  0  0  0  0999 V2000
  139.9300   73.6250  222.6520 O   0  0  0  0  0  0  0  0  0  0  0  0
  140.0920   72.3620  222.5560 C   0  0  0  0  0  0  0  0  0  0  0  0
  140.3980   71.7650  221.3030 N   0  0  0  0  0  0  0  0  0  0  0  0
  140.5420   72.5260  220.0880 C   0  0  0  0  0  0  0  0  0  0  0  0
  141.7990   73.3410  220.1070 C   0  0  0  0  0  0  0  0  0  0  0  0
  142.9040   72.7460  220.1930 O   0  0  0  0  0  0  0  0  0  0  0  0
  141.6720   74.7550  220.0270 N   0  0  0  0  0  0  0  0  0  0  0  0
  141.6070   75.5820  218.8370 C   0  0  0  0  0  0  0  0  0  0  0  0
  141.9550   76.9550  219.3760 C   0  0  2  0  0  0  0  0  0  0  0  0
  143.3300   76.9590  219.6050 O   0  0  0  0  0  0  0  0  0  0  0  0
  141.1640   76.9350  220.6660 C   0  0  2  0  0  0  0  0  0  0  0  0
  141.4240   78.0750  221.5500 C   0  0  0  0  0  0  0  0  0  0  0  0
  141.8230   79.3260  221.1180 C   0  0  0  0  0  0  0  0  0  0  0  0
  142.0550   80.3740  222.0070 C   0  0  0  0  0  0  0  0  0  0  0  0
  141.8740   80.1290  223.3570 C   0  0  0  0  0  0  0  0  0  0  0  0
  141.4780   78.8950  223.8360 C   0  0  0  0  0  0  0  0  0  0  0  0
  141.2570   77.8820  222.9220 C   0  0  0  0  0  0  0  0  0  0  0  0
  141.5870   75.6000  221.2230 C   0  0  0  0  0  0  0  0  0  0  0  0
  139.9630   71.5090  223.7540 C   0  0  0  0  0  0  0  0  0  0  0  0
  139.2520   70.3310  223.6570 C   0  0  0  0  0  0  0  0  0  0  0  0
  139.1550   69.5570  224.8120 C   0  0  0  0  0  0  0  0  0  0  0  0
  139.7560   69.9700  226.0010 C   0  0  0  0  0  0  0  0  0  0  0  0
  139.6640   69.2070  227.1480 C   0  0  0  0  0  0  0  0  0  0  0  0
  140.2670   69.6410  228.3050 C   0  0  0  0  0  0  0  0  0  0  0  0
  140.9780   70.8370  228.3650 C   0  0  0  0  0  0  0  0  0  0  0  0
  141.0550   71.5790  227.2020 C   0  0  0  0  0  0  0  0  0  0  0  0
  140.4530   71.1550  226.0370 C   0  0  0  0  0  0  0  0  0  0  0  0
  140.5320   71.8840  224.9050 N   0  0  0  0  0  0  0  0  0  0  0  0
  140.5200   70.7090  221.3030 H   0  0  0  0  0  0  0  0  0  0  0  0
  140.5751   71.8347  219.2330 H   0  0  0  0  0  0  0  0  0  0  0  0
  139.6843   73.2092  220.0003 H   0  0  0  0  0  0  0  0  0  0  0  0
  142.3378   75.2533  218.0834 H   0  0  0  0  0  0  0  0  0  0  0  0
  140.6328   75.5436  218.3276 H   0  0  0  0  0  0  0  0  0  0  0  0
  141.7318   77.8285  218.7458 H   0  0  0  0  0  0  0  0  0  0  0  0
  143.6390   77.8910  219.6500 H   0  0  0  0  0  0  0  0  0  0  0  0
  140.0772   77.0401  220.5328 H   0  0  0  0  0  0  0  0  0  0  0  0
  141.9615   79.4995  220.0406 H   0  0  0  0  0  0  0  0  0  0  0  0
  142.3718   81.3640  221.6472 H   0  0  0  0  0  0  0  0  0  0  0  0
  142.0515   80.9447  224.0733 H   0  0  0  0  0  0  0  0  0  0  0  0
  141.3425   78.7236  224.9141 H   0  0  0  0  0  0  0  0  0  0  0  0
  140.9400   76.8940  223.2870 H   0  0  0  0  0  0  0  0  0  0  0  0
  142.5627   75.6727  221.7258 H   0  0  0  0  0  0  0  0  0  0  0  0
  140.8942   75.2080  221.9822 H   0  0  0  0  0  0  0  0  0  0  0  0
  138.7836   70.0172  222.7125 H   0  0  0  0  0  0  0  0  0  0  0  0
  138.5977   68.6090  224.7856 H   0  0  0  0  0  0  0  0  0  0  0  0
  139.1108   68.2563  227.1363 H   0  0  0  0  0  0  0  0  0  0  0  0
  140.1852   69.0240  229.2120 H   0  0  0  0  0  0  0  0  0  0  0  0
  141.4565   71.1755  229.2959 H   0  0  0  0  0  0  0  0  0  0  0  0
  141.6091   72.5293  227.2060 H   0  0  0  0  0  0  0  0  0  0  0  0
  1  2  2  0
  2  3  1  0
  3  4  1  0
  4  5  1  0
  5  6  2  0
  5  7  1  0
  7  8  1  0
  8  9  1  0
  9 10  1  0
  9 11  1  0
 11 12  1  0
 12 13  2  0
 13 14  1  0
 14 15  2  0
 15 16  1  0
 16 17  2  0
 11 18  1  0
  2 19  1  0
 19 20  2  0
 20 21  1  0
 21 22  2  0
 22 23  1  0
 23 24  2  0
 24 25  1  0
 25 26  2  0
 26 27  1  0
 27 28  2  0
 18  7  1  0
 28 19  1  0
 17 12  1  0
 27 22  1  0
  3 29  1  0
  4 30  1  0
  4 31  1  0
  8 32  1  0
  8 33  1  0
  9 34  1  6
 10 35  1  0
 11 36  1  6
 13 37  1  0
 14 38  1  0
 15 39  1  0
 16 40  1  0
 17 41  1  0
 18 42  1  0
 18 43  1  0
 20 44  1  0
 21 45  1  0
 23 46  1  0
 24 47  1  0
 25 48  1  0
 26 49  1  0
M  END
>  <smiles>  (5) 
O=C(NCC(=O)N1C[C@H](O)[C@H](c2ccccc2)C1)c1ccc2ccccc2n1

>  <score_type>  (5) 
oracle

>  <origin>  (5) 
autodockgpu

>  <m_score__min__energy>  (5) 
-9.0199999999999996

>  <m_primary>  (5) 
energy

>  <rmsd>  (5) 
2.72873698422416

>  <m_score__min__rmsd>  (5) 
2.72873698422416

>  <meeko>  (5) 
{"free_energy": -8.79, "intermolecular_energy": -10.58, "internal_energy": -1.2, "cluster_size": 18, "cluster_id": 2, "rank_in_cluster": 11}

>  <energy>  (5) 
-8.8

>  <cluster_rmsd>  (5) 
0.99

>  <cluster>  (5) 
1

$$$$

     RDKit          3D

 49 52  0  0  0  0  0  0  0  0999 V2000
  137.3630   76.3180  222.2650 O   0  0  0  0  0  0  0  0  0  0  0  0
  138.6340   76.4190  222.3440 C   0  0  0  0  0  0  0  0  0  0  0  0
  139.4680   75.3050  222.0580 N   0  0  0  0  0  0  0  0  0  0  0  0
  138.9470   74.0180  221.6690 C   0  0  0  0  0  0  0  0  0  0  0  0
  139.9890   72.9510  221.8080 C   0  0  0  0  0  0  0  0  0  0  0  0
  141.0770   73.0840  221.1910 O   0  0  0  0  0  0  0  0  0  0  0  0
  139.6870   71.8350  222.6360 N   0  0  0  0  0  0  0  0  0  0  0  0
  138.7480   70.7590  222.3800 C   0  0  0  0  0  0  0  0  0  0  0  0
  138.5260   70.1850  223.7650 C   0  0  2  0  0  0  0  0  0  0  0  0
  137.6970   71.0800  224.4400 O   0  0  0  0  0  0  0  0  0  0  0  0
  139.9450   70.2180  224.2900 C   0  0  2  0  0  0  0  0  0  0  0  0
  140.0690   69.8890  225.7130 C   0  0  0  0  0  0  0  0  0  0  0  0
  140.3300   70.8120  226.7090 C   0  0  0  0  0  0  0  0  0  0  0  0
  140.4370   70.4400  228.0480 C   0  0  0  0  0  0  0  0  0  0  0  0
  140.2730   69.1020  228.3640 C   0  0  0  0  0  0  0  0  0  0  0  0
  140.0120   68.1450  227.4020 C   0  0  0  0  0  0  0  0  0  0  0  0
  139.9130   68.5540  226.0850 C   0  0  0  0  0  0  0  0  0  0  0  0
  140.3330   71.6310  223.9370 C   0  0  0  0  0  0  0  0  0  0  0  0
  139.2480   77.7040  222.7360 C   0  0  0  0  0  0  0  0  0  0  0  0
  138.4240   78.7510  223.0930 C   0  0  0  0  0  0  0  0  0  0  0  0
  139.0450   79.9450  223.4550 C   0  0  0  0  0  0  0  0  0  0  0  0
  140.4350   80.0570  223.4510 C   0  0  0  0  0  0  0  0  0  0  0  0
  141.0560   81.2370  223.8090 C   0  0  0  0  0  0  0  0  0  0  0  0
  142.4290   81.3170  223.7960 C   0  0  0  0  0  0  0  0  0  0  0  0
  143.2280   80.2370  223.4290 C   0  0  0  0  0  0  0  0  0  0  0  0
  142.5800   79.0690  223.0770 C   0  0  0  0  0  0  0  0  0  0  0  0
  141.2050   78.9780  223.0860 C   0  0  0  0  0  0  0  0  0  0  0  0
  140.5790   77.8350  222.7400 N   0  0  0  0  0  0  0  0  0  0  0  0
  140.5140   75.4660  222.1450 H   0  0  0  0  0  0  0  0  0  0  0  0
  138.0893   73.7685  222.3109 H   0  0  0  0  0  0  0  0  0  0  0  0
  138.6381   74.0699  220.6146 H   0  0  0  0  0  0  0  0  0  0  0  0
  137.8097   71.1427  221.9531 H   0  0  0  0  0  0  0  0  0  0  0  0
  139.1136   70.0205  221.6514 H   0  0  0  0  0  0  0  0  0  0  0  0
  138.0596   69.1919  223.8439 H   0  0  0  0  0  0  0  0  0  0  0  0
  137.9510   71.9950  224.1870 H   0  0  0  0  0  0  0  0  0  0  0  0
  140.6054   69.4517  223.8580 H   0  0  0  0  0  0  0  0  0  0  0  0
  140.4568   71.8702  226.4368 H   0  0  0  0  0  0  0  0  0  0  0  0
  140.6452   71.1860  228.8291 H   0  0  0  0  0  0  0  0  0  0  0  0
  140.3531   68.7904  229.4159 H   0  0  0  0  0  0  0  0  0  0  0  0
  139.8865   67.0872  227.6764 H   0  0  0  0  0  0  0  0  0  0  0  0
  139.7050   67.8042  225.3075 H   0  0  0  0  0  0  0  0  0  0  0  0
  139.9525   72.3437  224.6835 H   0  0  0  0  0  0  0  0  0  0  0  0
  141.4214   71.7879  223.9100 H   0  0  0  0  0  0  0  0  0  0  0  0
  137.3288   78.6484  223.0920 H   0  0  0  0  0  0  0  0  0  0  0  0
  138.4312   80.8097  223.7475 H   0  0  0  0  0  0  0  0  0  0  0  0
  140.4549   82.1099  224.1035 H   0  0  0  0  0  0  0  0  0  0  0  0
  142.9107   82.2630  224.0843 H   0  0  0  0  0  0  0  0  0  0  0  0
  144.3255   80.3107  223.4199 H   0  0  0  0  0  0  0  0  0  0  0  0
  143.1749   78.1918  222.7829 H   0  0  0  0  0  0  0  0  0  0  0  0
  1  2  2  0
  2  3  1  0
  3  4  1  0
  4  5  1  0
  5  6  2  0
  5  7  1  0
  7  8  1  0
  8  9  1  0
  9 10  1  0
  9 11  1  0
 11 12  1  0
 12 13  2  0
 13 14  1  0
 14 15  2  0
 15 16  1  0
 16 17  2  0
 11 18  1  0
  2 19  1  0
 19 20  2  0
 20 21  1  0
 21 22  2  0
 22 23  1  0
 23 24  2  0
 24 25  1  0
 25 26  2  0
 26 27  1  0
 27 28  2  0
 18  7  1  0
 28 19  1  0
 17 12  1  0
 27 22  1  0
  3 29  1  0
  4 30  1  0
  4 31  1  0
  8 32  1  0
  8 33  1  0
  9 34  1  6
 10 35  1  0
 11 36  1  6
 13 37  1  0
 14 38  1  0
 15 39  1  0
 16 40  1  0
 17 41  1  0
 18 42  1  0
 18 43  1  0
 20 44  1  0
 21 45  1  0
 23 46  1  0
 24 47  1  0
 25 48  1  0
 26 49  1  0
M  END
>  <smiles>  (6) 
O=C(NCC(=O)N1C[C@H](O)[C@H](c2ccccc2)C1)c1ccc2ccccc2n1

>  <score_type>  (6) 
oracle

>  <origin>  (6) 
autodockgpu

>  <m_score__min__energy>  (6) 
-9.0199999999999996

>  <m_primary>  (6) 
energy

>  <rmsd>  (6) 
8.683667710969056

>  <m_score__min__rmsd>  (6) 
8.683667710969056

>  <meeko>  (6) 
{"free_energy": -8.68, "intermolecular_energy": -10.47, "internal_energy": -1.54, "cluster_size": 21, "cluster_id": 1, "rank_in_cluster": 15}

>  <energy>  (6) 
-8.8

>  <cluster_rmsd>  (6) 
0.99

>  <cluster>  (6) 
1

$$$$

     RDKit          3D

 49 52  0  0  0  0  0  0  0  0999 V2000
  139.5740   74.2700  222.5000 O   0  0  0  0  0  0  0  0  0  0  0  0
  139.9650   74.7880  221.4000 C   0  0  0  0  0  0  0  0  0  0  0  0
  139.8590   74.0640  220.1820 N   0  0  0  0  0  0  0  0  0  0  0  0
  139.3170   72.7300  220.1090 C   0  0  0  0  0  0  0  0  0  0  0  0
  140.2400   71.7370  220.7460 C   0  0  0  0  0  0  0  0  0  0  0  0
  141.2930   71.4140  220.1370 O   0  0  0  0  0  0  0  0  0  0  0  0
  139.8720   71.2100  222.0130 N   0  0  0  0  0  0  0  0  0  0  0  0
  138.7620   70.3300  222.3280 C   0  0  0  0  0  0  0  0  0  0  0  0
  138.6140   70.5160  223.8260 C   0  0  2  0  0  0  0  0  0  0  0  0
  138.0080   71.7560  224.0170 O   0  0  0  0  0  0  0  0  0  0  0  0
  140.0720   70.5270  224.2300 C   0  0  2  0  0  0  0  0  0  0  0  0
  140.3060   70.8790  225.6330 C   0  0  0  0  0  0  0  0  0  0  0  0
  141.0490   71.9680  226.0540 C   0  0  0  0  0  0  0  0  0  0  0  0
  141.2360   72.2530  227.4050 C   0  0  0  0  0  0  0  0  0  0  0  0
  140.6520   71.4090  228.3330 C   0  0  0  0  0  0  0  0  0  0  0  0
  139.9030   70.3090  227.9600 C   0  0  0  0  0  0  0  0  0  0  0  0
  139.7400   70.0600  226.6100 C   0  0  0  0  0  0  0  0  0  0  0  0
  140.6230   71.5170  223.2350 C   0  0  0  0  0  0  0  0  0  0  0  0
  140.5320   76.1510  221.3880 C   0  0  0  0  0  0  0  0  0  0  0  0
  140.8260   76.7360  220.1730 C   0  0  0  0  0  0  0  0  0  0  0  0
  141.3590   78.0230  220.2080 C   0  0  0  0  0  0  0  0  0  0  0  0
  141.5770   78.6730  221.4230 C   0  0  0  0  0  0  0  0  0  0  0  0
  142.1050   79.9490  221.4630 C   0  0  0  0  0  0  0  0  0  0  0  0
  142.3080   80.5650  222.6760 C   0  0  0  0  0  0  0  0  0  0  0  0
  141.9980   79.9420  223.8820 C   0  0  0  0  0  0  0  0  0  0  0  0
  141.4710   78.6660  223.8110 C   0  0  0  0  0  0  0  0  0  0  0  0
  141.2630   78.0390  222.6020 C   0  0  0  0  0  0  0  0  0  0  0  0
  140.7490   76.7950  222.5390 N   0  0  0  0  0  0  0  0  0  0  0  0
  140.2040   74.5610  219.3080 H   0  0  0  0  0  0  0  0  0  0  0  0
  138.3488   72.7066  220.6307 H   0  0  0  0  0  0  0  0  0  0  0  0
  139.1922   72.4612  219.0497 H   0  0  0  0  0  0  0  0  0  0  0  0
  137.8486   70.6358  221.7968 H   0  0  0  0  0  0  0  0  0  0  0  0
  138.9312   69.2849  222.0294 H   0  0  0  0  0  0  0  0  0  0  0  0
  138.0172   69.7779  224.3820 H   0  0  0  0  0  0  0  0  0  0  0  0
  138.4870   72.4270  223.4800 H   0  0  0  0  0  0  0  0  0  0  0  0
  140.5582   69.5409  224.1961 H   0  0  0  0  0  0  0  0  0  0  0  0
  141.5049   72.6273  225.3007 H   0  0  0  0  0  0  0  0  0  0  0  0
  141.8297   73.1223  227.7241 H   0  0  0  0  0  0  0  0  0  0  0  0
  140.7885   71.6207  229.4038 H   0  0  0  0  0  0  0  0  0  0  0  0
  139.4496   69.6506  228.7156 H   0  0  0  0  0  0  0  0  0  0  0  0
  139.1456   69.1891  226.2966 H   0  0  0  0  0  0  0  0  0  0  0  0
  140.4391   72.5508  223.5628 H   0  0  0  0  0  0  0  0  0  0  0  0
  141.7126   71.4398  223.1049 H   0  0  0  0  0  0  0  0  0  0  0  0
  140.6481   76.2114  219.2226 H   0  0  0  0  0  0  0  0  0  0  0  0
  141.6109   78.5326  219.2663 H   0  0  0  0  0  0  0  0  0  0  0  0
  142.3619   80.4701  220.5289 H   0  0  0  0  0  0  0  0  0  0  0  0
  142.7283   81.5814  222.6938 H   0  0  0  0  0  0  0  0  0  0  0  0
  142.1649   80.4424  224.8473 H   0  0  0  0  0  0  0  0  0  0  0  0
  141.2117   78.1392  224.7412 H   0  0  0  0  0  0  0  0  0  0  0  0
  1  2  2  0
  2  3  1  0
  3  4  1  0
  4  5  1  0
  5  6  2  0
  5  7  1  0
  7  8  1  0
  8  9  1  0
  9 10  1  0
  9 11  1  0
 11 12  1  0
 12 13  2  0
 13 14  1  0
 14 15  2  0
 15 16  1  0
 16 17  2  0
 11 18  1  0
  2 19  1  0
 19 20  2  0
 20 21  1  0
 21 22  2  0
 22 23  1  0
 23 24  2  0
 24 25  1  0
 25 26  2  0
 26 27  1  0
 27 28  2  0
 18  7  1  0
 28 19  1  0
 17 12  1  0
 27 22  1  0
  3 29  1  0
  4 30  1  0
  4 31  1  0
  8 32  1  0
  8 33  1  0
  9 34  1  1
 10 35  1  0
 11 36  1  6
 13 37  1  0
 14 38  1  0
 15 39  1  0
 16 40  1  0
 17 41  1  0
 18 42  1  0
 18 43  1  0
 20 44  1  0
 21 45  1  0
 23 46  1  0
 24 47  1  0
 25 48  1  0
 26 49  1  0
M  END
>  <smiles>  (7) 
O=C(NCC(=O)N1C[C@H](O)[C@H](c2ccccc2)C1)c1ccc2ccccc2n1

>  <score_type>  (7) 
oracle

>  <origin>  (7) 
autodockgpu

>  <m_score__min__energy>  (7) 
-9.0199999999999996

>  <m_primary>  (7) 
energy

>  <rmsd>  (7) 
8.079763622733958

>  <m_score__min__rmsd>  (7) 
8.079763622733958

>  <meeko>  (7) 
{"free_energy": -8.38, "intermolecular_energy": -10.17, "internal_energy": -1.78, "cluster_size": 21, "cluster_id": 1, "rank_in_cluster": 18}

>  <energy>  (7) 
-8.77

>  <cluster_rmsd>  (7) 
0.91

>  <cluster>  (7) 
1

$$$$

     RDKit          3D

 49 52  0  0  0  0  0  0  0  0999 V2000
  138.2000   67.7710  222.9970 O   0  0  0  0  0  0  0  0  0  0  0  0
  138.7340   68.9050  223.2450 C   0  0  0  0  0  0  0  0  0  0  0  0
  138.7860   69.9140  222.2470 N   0  0  0  0  0  0  0  0  0  0  0  0
  138.2530   69.7310  220.9200 C   0  0  0  0  0  0  0  0  0  0  0  0
  138.8620   70.7010  219.9550 C   0  0  0  0  0  0  0  0  0  0  0  0
  138.6770   70.5240  218.7230 O   0  0  0  0  0  0  0  0  0  0  0  0
  139.6220   71.7770  220.4890 N   0  0  0  0  0  0  0  0  0  0  0  0
  140.9830   71.7490  220.9890 C   0  0  0  0  0  0  0  0  0  0  0  0
  141.0480   73.0110  221.8260 C   0  0  2  0  0  0  0  0  0  0  0  0
  140.3490   72.7460  223.0020 O   0  0  0  0  0  0  0  0  0  0  0  0
  140.2980   73.9620  220.9200 C   0  0  2  0  0  0  0  0  0  0  0  0
  140.0110   75.2670  221.5210 C   0  0  0  0  0  0  0  0  0  0  0  0
  138.7710   75.6530  221.9990 C   0  0  0  0  0  0  0  0  0  0  0  0
  138.5580   76.9100  222.5620 C   0  0  0  0  0  0  0  0  0  0  0  0
  139.6330   77.7790  222.6350 C   0  0  0  0  0  0  0  0  0  0  0  0
  140.8890   77.4370  222.1700 C   0  0  0  0  0  0  0  0  0  0  0  0
  141.0600   76.1810  221.6190 C   0  0  0  0  0  0  0  0  0  0  0  0
  139.0780   73.1340  220.6060 C   0  0  0  0  0  0  0  0  0  0  0  0
  139.3030   69.1740  224.5810 C   0  0  0  0  0  0  0  0  0  0  0  0
  139.2790   68.1700  225.5270 C   0  0  0  0  0  0  0  0  0  0  0  0
  139.8260   68.4680  226.7740 C   0  0  0  0  0  0  0  0  0  0  0  0
  140.3700   69.7260  227.0340 C   0  0  0  0  0  0  0  0  0  0  0  0
  140.9140   70.0260  228.2670 C   0  0  0  0  0  0  0  0  0  0  0  0
  141.4420   71.2750  228.4930 C   0  0  0  0  0  0  0  0  0  0  0  0
  141.4490   72.2640  227.5120 C   0  0  0  0  0  0  0  0  0  0  0  0
  140.8990   71.9350  226.2880 C   0  0  0  0  0  0  0  0  0  0  0  0
  140.3660   70.6870  226.0500 C   0  0  0  0  0  0  0  0  0  0  0  0
  139.8300   70.3730  224.8530 N   0  0  0  0  0  0  0  0  0  0  0  0
  139.2450   70.8300  222.5280 H   0  0  0  0  0  0  0  0  0  0  0  0
  138.4698   68.7062  220.5841 H   0  0  0  0  0  0  0  0  0  0  0  0
  137.1675   69.9061  220.9526 H   0  0  0  0  0  0  0  0  0  0  0  0
  141.1630   70.8544  221.6032 H   0  0  0  0  0  0  0  0  0  0  0  0
  141.7425   71.7089  220.1943 H   0  0  0  0  0  0  0  0  0  0  0  0
  142.0396   73.3865  222.1189 H   0  0  0  0  0  0  0  0  0  0  0  0
  140.4780   71.8010  223.2400 H   0  0  0  0  0  0  0  0  0  0  0  0
  140.8630   74.2807  220.0316 H   0  0  0  0  0  0  0  0  0  0  0  0
  137.9295   74.9476  221.9327 H   0  0  0  0  0  0  0  0  0  0  0  0
  137.5661   77.2026  222.9368 H   0  0  0  0  0  0  0  0  0  0  0  0
  139.4828   78.7747  223.0777 H   0  0  0  0  0  0  0  0  0  0  0  0
  141.7287   78.1444  222.2366 H   0  0  0  0  0  0  0  0  0  0  0  0
  142.0541   75.8933  221.2463 H   0  0  0  0  0  0  0  0  0  0  0  0
  138.3389   73.1950  221.4184 H   0  0  0  0  0  0  0  0  0  0  0  0
  138.5480   73.4682  219.7019 H   0  0  0  0  0  0  0  0  0  0  0  0
  138.8488   67.1817  225.3077 H   0  0  0  0  0  0  0  0  0  0  0  0
  139.8287   67.7015  227.5630 H   0  0  0  0  0  0  0  0  0  0  0  0
  140.9249   69.2690  229.0650 H   0  0  0  0  0  0  0  0  0  0  0  0
  141.8726   71.5006  229.4798 H   0  0  0  0  0  0  0  0  0  0  0  0
  141.8729   73.2609  227.7030 H   0  0  0  0  0  0  0  0  0  0  0  0
  140.8864   72.6867  225.4850 H   0  0  0  0  0  0  0  0  0  0  0  0
  1  2  2  0
  2  3  1  0
  3  4  1  0
  4  5  1  0
  5  6  2  0
  5  7  1  0
  7  8  1  0
  8  9  1  0
  9 10  1  0
  9 11  1  0
 11 12  1  0
 12 13  2  0
 13 14  1  0
 14 15  2  0
 15 16  1  0
 16 17  2  0
 11 18  1  0
  2 19  1  0
 19 20  2  0
 20 21  1  0
 21 22  2  0
 22 23  1  0
 23 24  2  0
 24 25  1  0
 25 26  2  0
 26 27  1  0
 27 28  2  0
 18  7  1  0
 28 19  1  0
 17 12  1  0
 27 22  1  0
  3 29  1  0
  4 30  1  0
  4 31  1  0
  8 32  1  0
  8 33  1  0
  9 34  1  1
 10 35  1  0
 11 36  1  6
 13 37  1  0
 14 38  1  0
 15 39  1  0
 16 40  1  0
 17 41  1  0
 18 42  1  0
 18 43  1  0
 20 44  1  0
 21 45  1  0
 23 46  1  0
 24 47  1  0
 25 48  1  0
 26 49  1  0
M  END
>  <smiles>  (8) 
O=C(NCC(=O)N1C[C@H](O)[C@H](c2ccccc2)C1)c1ccc2ccccc2n1

>  <score_type>  (8) 
oracle

>  <origin>  (8) 
autodockgpu

>  <m_score__min__energy>  (8) 
-9.0199999999999996

>  <m_primary>  (8) 
energy

>  <rmsd>  (8) 
3.6745408212673114

>  <m_score__min__rmsd>  (8) 
3.6745408212673114

>  <meeko>  (8) 
{"free_energy": -6.93, "intermolecular_energy": -8.72, "internal_energy": -2.98, "cluster_size": 2, "cluster_id": 4, "rank_in_cluster": 2}

>  <energy>  (8) 
-8.75

>  <cluster_rmsd>  (8) 
0.94

>  <cluster>  (8) 
1

$$$$

     RDKit          3D

 49 52  0  0  0  0  0  0  0  0999 V2000
  138.4950   67.6140  223.0020 O   0  0  0  0  0  0  0  0  0  0  0  0
  138.8240   68.8100  223.3050 C   0  0  0  0  0  0  0  0  0  0  0  0
  138.6810   69.8610  222.3600 N   0  0  0  0  0  0  0  0  0  0  0  0
  138.1680   69.6520  221.0290 C   0  0  0  0  0  0  0  0  0  0  0  0
  138.7810   70.6130  220.0570 C   0  0  0  0  0  0  0  0  0  0  0  0
  138.5740   70.4440  218.8270 O   0  0  0  0  0  0  0  0  0  0  0  0
  139.5710   71.6720  220.5820 N   0  0  0  0  0  0  0  0  0  0  0  0
  140.9270   71.6080  221.0940 C   0  0  0  0  0  0  0  0  0  0  0  0
  141.0260   72.8790  221.9140 C   0  0  2  0  0  0  0  0  0  0  0  0
  140.3090   72.6530  223.0880 O   0  0  0  0  0  0  0  0  0  0  0  0
  140.3140   73.8400  220.9880 C   0  0  2  0  0  0  0  0  0  0  0  0
  140.0630   75.1620  221.5690 C   0  0  0  0  0  0  0  0  0  0  0  0
  141.0260   76.1430  221.7280 C   0  0  0  0  0  0  0  0  0  0  0  0
  140.7280   77.3840  222.2870 C   0  0  0  0  0  0  0  0  0  0  0  0
  139.4240   77.6180  222.6880 C   0  0  0  0  0  0  0  0  0  0  0  0
  138.4290   76.6680  222.5500 C   0  0  0  0  0  0  0  0  0  0  0  0
  138.7650   75.4500  221.9900 C   0  0  0  0  0  0  0  0  0  0  0  0
  139.0700   73.0470  220.6760 C   0  0  0  0  0  0  0  0  0  0  0  0
  139.3570   69.1090  224.6480 C   0  0  0  0  0  0  0  0  0  0  0  0
  139.3010   68.1290  225.6180 C   0  0  0  0  0  0  0  0  0  0  0  0
  139.8150   68.4540  226.8710 C   0  0  0  0  0  0  0  0  0  0  0  0
  140.3580   69.7160  227.1160 C   0  0  0  0  0  0  0  0  0  0  0  0
  140.8690   70.0420  228.3560 C   0  0  0  0  0  0  0  0  0  0  0  0
  141.3980   71.2950  228.5670 C   0  0  0  0  0  0  0  0  0  0  0  0
  141.4380   72.2590  227.5630 C   0  0  0  0  0  0  0  0  0  0  0  0
  140.9190   71.9030  226.3320 C   0  0  0  0  0  0  0  0  0  0  0  0
  140.3870   70.6520  226.1100 C   0  0  0  0  0  0  0  0  0  0  0  0
  139.8830   70.3110  224.9070 N   0  0  0  0  0  0  0  0  0  0  0  0
  138.9750   70.8290  222.6850 H   0  0  0  0  0  0  0  0  0  0  0  0
  138.3992   68.6243  220.7123 H   0  0  0  0  0  0  0  0  0  0  0  0
  137.0805   69.8168  221.0441 H   0  0  0  0  0  0  0  0  0  0  0  0
  141.0735   70.7169  221.7220 H   0  0  0  0  0  0  0  0  0  0  0  0
  141.6910   71.5328  220.3062 H   0  0  0  0  0  0  0  0  0  0  0  0
  142.0266   73.2270  222.2103 H   0  0  0  0  0  0  0  0  0  0  0  0
  140.4870   71.7360  223.3940 H   0  0  0  0  0  0  0  0  0  0  0  0
  140.8961   74.1272  220.1000 H   0  0  0  0  0  0  0  0  0  0  0  0
  142.0567   75.9371  221.4036 H   0  0  0  0  0  0  0  0  0  0  0  0
  141.5047   78.1537  222.4059 H   0  0  0  0  0  0  0  0  0  0  0  0
  139.1709   78.5924  223.1313 H   0  0  0  0  0  0  0  0  0  0  0  0
  137.3993   76.8757  222.8766 H   0  0  0  0  0  0  0  0  0  0  0  0
  137.9844   74.6839  221.8727 H   0  0  0  0  0  0  0  0  0  0  0  0
  138.3273   73.1431  221.4817 H   0  0  0  0  0  0  0  0  0  0  0  0
  138.5576   73.3852  219.7633 H   0  0  0  0  0  0  0  0  0  0  0  0
  138.8707   67.1380  225.4113 H   0  0  0  0  0  0  0  0  0  0  0  0
  139.7927   67.7065  227.6777 H   0  0  0  0  0  0  0  0  0  0  0  0
  140.8536   69.3040  229.1716 H   0  0  0  0  0  0  0  0  0  0  0  0
  141.8018   71.5426  229.5598 H   0  0  0  0  0  0  0  0  0  0  0  0
  141.8630   73.2578  227.7411 H   0  0  0  0  0  0  0  0  0  0  0  0
  140.9312   72.6353  225.5113 H   0  0  0  0  0  0  0  0  0  0  0  0
  1  2  2  0
  2  3  1  0
  3  4  1  0
  4  5  1  0
  5  6  2  0
  5  7  1  0
  7  8  1  0
  8  9  1  0
  9 10  1  0
  9 11  1  0
 11 12  1  0
 12 13  2  0
 13 14  1  0
 14 15  2  0
 15 16  1  0
 16 17  2  0
 11 18  1  0
  2 19  1  0
 19 20  2  0
 20 21  1  0
 21 22  2  0
 22 23  1  0
 23 24  2  0
 24 25  1  0
 25 26  2  0
 26 27  1  0
 27 28  2  0
 18  7  1  0
 28 19  1  0
 17 12  1  0
 27 22  1  0
  3 29  1  0
  4 30  1  0
  4 31  1  0
  8 32  1  0
  8 33  1  0
  9 34  1  1
 10 35  1  0
 11 36  1  6
 13 37  1  0
 14 38  1  0
 15 39  1  0
 16 40  1  0
 17 41  1  0
 18 42  1  0
 18 43  1  0
 20 44  1  0
 21 45  1  0
 23 46  1  0
 24 47  1  0
 25 48  1  0
 26 49  1  0
M  END
>  <smiles>  (9) 
O=C(NCC(=O)N1C[C@H](O)[C@H](c2ccccc2)C1)c1ccc2ccccc2n1

>  <score_type>  (9) 
oracle

>  <origin>  (9) 
autodockgpu

>  <m_score__min__energy>  (9) 
-9.0199999999999996

>  <m_primary>  (9) 
energy

>  <rmsd>  (9) 
3.639803838841936

>  <m_score__min__rmsd>  (9) 
3.639803838841936

>  <meeko>  (9) 
{"free_energy": -6.97, "intermolecular_energy": -8.76, "internal_energy": -3.04, "cluster_size": 2, "cluster_id": 4, "rank_in_cluster": 1}

>  <energy>  (9) 
-8.75

>  <cluster_rmsd>  (9) 
0.94

>  <cluster>  (9) 
1

$$$$

     RDKit          3D

 49 52  0  0  0  0  0  0  0  0999 V2000
  136.8450   76.3780  222.1620 O   0  0  0  0  0  0  0  0  0  0  0  0
  136.8180   75.2270  222.7140 C   0  0  0  0  0  0  0  0  0  0  0  0
  137.7540   74.2240  222.3440 N   0  0  0  0  0  0  0  0  0  0  0  0
  138.7710   74.4340  221.3450 C   0  0  0  0  0  0  0  0  0  0  0  0
  139.8000   73.3460  221.3850 C   0  0  0  0  0  0  0  0  0  0  0  0
  140.7950   73.4270  220.6190 O   0  0  0  0  0  0  0  0  0  0  0  0
  139.5930   72.2730  222.2940 N   0  0  0  0  0  0  0  0  0  0  0  0
  138.7100   71.1320  222.1460 C   0  0  0  0  0  0  0  0  0  0  0  0
  138.5720   70.6400  223.5730 C   0  0  2  0  0  0  0  0  0  0  0  0
  137.7180   71.5300  224.2220 O   0  0  0  0  0  0  0  0  0  0  0  0
  140.0050   70.7850  224.0360 C   0  0  2  0  0  0  0  0  0  0  0  0
  140.2000   70.5590  225.4710 C   0  0  0  0  0  0  0  0  0  0  0  0
  140.7280   71.4910  226.3460 C   0  0  0  0  0  0  0  0  0  0  0  0
  140.8890   71.2190  227.7030 C   0  0  0  0  0  0  0  0  0  0  0  0
  140.5030   69.9730  228.1650 C   0  0  0  0  0  0  0  0  0  0  0  0
  139.9720   69.0090  227.3280 C   0  0  0  0  0  0  0  0  0  0  0  0
  139.8270   69.3180  225.9880 C   0  0  0  0  0  0  0  0  0  0  0  0
  140.2980   72.1920  223.5780 C   0  0  0  0  0  0  0  0  0  0  0  0
  135.8080   74.9300  223.7490 C   0  0  0  0  0  0  0  0  0  0  0  0
  135.0860   75.9750  224.2910 C   0  0  0  0  0  0  0  0  0  0  0  0
  134.1440   75.6500  225.2640 C   0  0  0  0  0  0  0  0  0  0  0  0
  133.9520   74.3260  225.6590 C   0  0  0  0  0  0  0  0  0  0  0  0
  133.0180   73.9990  226.6230 C   0  0  0  0  0  0  0  0  0  0  0  0
  132.8520   72.6850  226.9920 C   0  0  0  0  0  0  0  0  0  0  0  0
  133.5990   71.6560  226.4220 C   0  0  0  0  0  0  0  0  0  0  0  0
  134.5250   72.0140  225.4600 C   0  0  0  0  0  0  0  0  0  0  0  0
  134.7010   73.3270  225.0830 C   0  0  0  0  0  0  0  0  0  0  0  0
  135.6050   73.6690  224.1440 N   0  0  0  0  0  0  0  0  0  0  0  0
  137.6700   73.2920  222.8480 H   0  0  0  0  0  0  0  0  0  0  0  0
  138.3005   74.4470  220.3508 H   0  0  0  0  0  0  0  0  0  0  0  0
  139.2690   75.3932  221.5500 H   0  0  0  0  0  0  0  0  0  0  0  0
  137.7360   71.4335  221.7330 H   0  0  0  0  0  0  0  0  0  0  0  0
  139.0915   70.3680  221.4526 H   0  0  0  0  0  0  0  0  0  0  0  0
  138.1664   69.6304  223.7349 H   0  0  0  0  0  0  0  0  0  0  0  0
  137.6510   72.3500  223.6840 H   0  0  0  0  0  0  0  0  0  0  0  0
  140.6914   70.0290  223.6270 H   0  0  0  0  0  0  0  0  0  0  0  0
  141.0296   72.4756  225.9593 H   0  0  0  0  0  0  0  0  0  0  0  0
  141.3100   71.9715  228.3860 H   0  0  0  0  0  0  0  0  0  0  0  0
  140.6226   69.7418  229.2337 H   0  0  0  0  0  0  0  0  0  0  0  0
  139.6734   68.0244  227.7170 H   0  0  0  0  0  0  0  0  0  0  0  0
  139.4048   68.5625  225.3091 H   0  0  0  0  0  0  0  0  0  0  0  0
  139.9051   72.9305  224.2923 H   0  0  0  0  0  0  0  0  0  0  0  0
  141.3737   72.4070  223.4969 H   0  0  0  0  0  0  0  0  0  0  0  0
  135.2472   77.0146  223.9696 H   0  0  0  0  0  0  0  0  0  0  0  0
  133.5439   76.4473  225.7268 H   0  0  0  0  0  0  0  0  0  0  0  0
  132.4101   74.7861  227.0931 H   0  0  0  0  0  0  0  0  0  0  0  0
  132.1058   72.4382  227.7616 H   0  0  0  0  0  0  0  0  0  0  0  0
  133.4584   70.6075  226.7235 H   0  0  0  0  0  0  0  0  0  0  0  0
  135.1354   71.2321  224.9846 H   0  0  0  0  0  0  0  0  0  0  0  0
  1  2  2  0
  2  3  1  0
  3  4  1  0
  4  5  1  0
  5  6  2  0
  5  7  1  0
  7  8  1  0
  8  9  1  0
  9 10  1  0
  9 11  1  0
 11 12  1  0
 12 13  2  0
 13 14  1  0
 14 15  2  0
 15 16  1  0
 16 17  2  0
 11 18  1  0
  2 19  1  0
 19 20  2  0
 20 21  1  0
 21 22  2  0
 22 23  1  0
 23 24  2  0
 24 25  1  0
 25 26  2  0
 26 27  1  0
 27 28  2  0
 18  7  1  0
 28 19  1  0
 17 12  1  0
 27 22  1  0
  3 29  1  0
  4 30  1  0
  4 31  1  0
  8 32  1  0
  8 33  1  0
  9 34  1  6
 10 35  1  0
 11 36  1  6
 13 37  1  0
 14 38  1  0
 15 39  1  0
 16 40  1  0
 17 41  1  0
 18 42  1  0
 18 43  1  0
 20 44  1  0
 21 45  1  0
 23 46  1  0
 24 47  1  0
 25 48  1  0
 26 49  1  0
M  END
>  <smiles>  (10) 
O=C(NCC(=O)N1C[C@H](O)[C@H](c2ccccc2)C1)c1ccc2ccccc2n1

>  <score_type>  (10) 
oracle

>  <origin>  (10) 
autodockgpu

>  <m_score__min__energy>  (10) 
-9.0199999999999996

>  <m_primary>  (10) 
energy

>  <rmsd>  (10) 
7.0696692236388685

>  <m_score__min__rmsd>  (10) 
7.0696692236388685

>  <meeko>  (10) 
{"free_energy": -7.31, "intermolecular_energy": -9.1, "internal_energy": -2.63, "cluster_size": 9, "cluster_id": 3, "rank_in_cluster": 8}

>  <energy>  (10) 
-8.74

>  <cluster_rmsd>  (10) 
0.92

>  <cluster>  (10) 
1

$$$$

     RDKit          3D

 49 52  0  0  0  0  0  0  0  0999 V2000
  138.9930   70.6530  221.5300 O   0  0  0  0  0  0  0  0  0  0  0  0
  139.2610   71.2300  222.6380 C   0  0  0  0  0  0  0  0  0  0  0  0
  139.3720   72.6450  222.7090 N   0  0  0  0  0  0  0  0  0  0  0  0
  139.1920   73.5020  221.5640 C   0  0  0  0  0  0  0  0  0  0  0  0
  140.5110   73.9680  221.0270 C   0  0  0  0  0  0  0  0  0  0  0  0
  141.3890   73.1100  220.7530 O   0  0  0  0  0  0  0  0  0  0  0  0
  140.6980   75.3660  220.8550 N   0  0  0  0  0  0  0  0  0  0  0  0
  140.7100   76.1230  219.6170 C   0  0  0  0  0  0  0  0  0  0  0  0
  141.4070   77.4050  220.0260 C   0  0  2  0  0  0  0  0  0  0  0  0
  142.7620   77.1030  220.1430 O   0  0  0  0  0  0  0  0  0  0  0  0
  140.7570   77.6350  221.3730 C   0  0  2  0  0  0  0  0  0  0  0  0
  141.3480   78.7290  222.1490 C   0  0  0  0  0  0  0  0  0  0  0  0
  141.6230   78.6680  223.5030 C   0  0  0  0  0  0  0  0  0  0  0  0
  142.1880   79.7420  224.1890 C   0  0  0  0  0  0  0  0  0  0  0  0
  142.4740   80.8900  223.4720 C   0  0  0  0  0  0  0  0  0  0  0  0
  142.2160   80.9970  222.1180 C   0  0  0  0  0  0  0  0  0  0  0  0
  141.6560   79.9100  221.4740 C   0  0  0  0  0  0  0  0  0  0  0  0
  140.9190   76.2690  221.9900 C   0  0  0  0  0  0  0  0  0  0  0  0
  139.4590   70.4240  223.8590 C   0  0  0  0  0  0  0  0  0  0  0  0
  139.0370   69.1100  223.8620 C   0  0  0  0  0  0  0  0  0  0  0  0
  139.2430   68.3870  225.0350 C   0  0  0  0  0  0  0  0  0  0  0  0
  139.8500   68.9790  226.1430 C   0  0  0  0  0  0  0  0  0  0  0  0
  140.0570   68.2650  227.3070 C   0  0  0  0  0  0  0  0  0  0  0  0
  140.6580   68.8760  228.3830 C   0  0  0  0  0  0  0  0  0  0  0  0
  141.0720   70.2060  228.3410 C   0  0  0  0  0  0  0  0  0  0  0  0
  140.8530   70.8930  227.1630 C   0  0  0  0  0  0  0  0  0  0  0  0
  140.2510   70.2920  226.0800 C   0  0  0  0  0  0  0  0  0  0  0  0
  140.0400   70.9690  224.9330 N   0  0  0  0  0  0  0  0  0  0  0  0
  139.5970   73.0510  223.6640 H   0  0  0  0  0  0  0  0  0  0  0  0
  138.6606   72.9450  220.7782 H   0  0  0  0  0  0  0  0  0  0  0  0
  138.6101   74.3824  221.8743 H   0  0  0  0  0  0  0  0  0  0  0  0
  141.2743   75.5958  218.8337 H   0  0  0  0  0  0  0  0  0  0  0  0
  139.7089   76.2839  219.1906 H   0  0  0  0  0  0  0  0  0  0  0  0
  141.3278   78.2729  219.3548 H   0  0  0  0  0  0  0  0  0  0  0  0
  142.9070   76.6340  220.9950 H   0  0  0  0  0  0  0  0  0  0  0  0
  139.7141   77.9807  221.3192 H   0  0  0  0  0  0  0  0  0  0  0  0
  141.3892   77.7454  224.0545 H   0  0  0  0  0  0  0  0  0  0  0  0
  142.3998   79.6786  225.2666 H   0  0  0  0  0  0  0  0  0  0  0  0
  142.9218   81.7467  223.9970 H   0  0  0  0  0  0  0  0  0  0  0  0
  142.4498   81.9210  221.5689 H   0  0  0  0  0  0  0  0  0  0  0  0
  141.4468   79.9783  220.3962 H   0  0  0  0  0  0  0  0  0  0  0  0
  141.9289   76.1406  222.4066 H   0  0  0  0  0  0  0  0  0  0  0  0
  140.2307   76.0877  222.8287 H   0  0  0  0  0  0  0  0  0  0  0  0
  138.5609   68.6554  222.9807 H   0  0  0  0  0  0  0  0  0  0  0  0
  138.9229   67.3359  225.0882 H   0  0  0  0  0  0  0  0  0  0  0  0
  139.7428   67.2129  227.3733 H   0  0  0  0  0  0  0  0  0  0  0  0
  140.8167   68.2971  229.3048 H   0  0  0  0  0  0  0  0  0  0  0  0
  141.5513   70.6867  229.2065 H   0  0  0  0  0  0  0  0  0  0  0  0
  141.1667   71.9447  227.0881 H   0  0  0  0  0  0  0  0  0  0  0  0
  1  2  2  0
  2  3  1  0
  3  4  1  0
  4  5  1  0
  5  6  2  0
  5  7  1  0
  7  8  1  0
  8  9  1  0
  9 10  1  0
  9 11  1  0
 11 12  1  0
 12 13  2  0
 13 14  1  0
 14 15  2  0
 15 16  1  0
 16 17  2  0
 11 18  1  0
  2 19  1  0
 19 20  2  0
 20 21  1  0
 21 22  2  0
 22 23  1  0
 23 24  2  0
 24 25  1  0
 25 26  2  0
 26 27  1  0
 27 28  2  0
 18  7  1  0
 28 19  1  0
 17 12  1  0
 27 22  1  0
  3 29  1  0
  4 30  1  0
  4 31  1  0
  8 32  1  0
  8 33  1  0
  9 34  1  6
 10 35  1  0
 11 36  1  6
 13 37  1  0
 14 38  1  0
 15 39  1  0
 16 40  1  0
 17 41  1  0
 18 42  1  0
 18 43  1  0
 20 44  1  0
 21 45  1  0
 23 46  1  0
 24 47  1  0
 25 48  1  0
 26 49  1  0
M  END
>  <smiles>  (11) 
O=C(NCC(=O)N1C[C@H](O)[C@H](c2ccccc2)C1)c1ccc2ccccc2n1

>  <score_type>  (11) 
oracle

>  <origin>  (11) 
autodockgpu

>  <m_score__min__energy>  (11) 
-9.0199999999999996

>  <m_primary>  (11) 
energy

>  <rmsd>  (11) 
2.7236058519909

>  <m_score__min__rmsd>  (11) 
2.7236058519909

>  <meeko>  (11) 
{"free_energy": -8.79, "intermolecular_energy": -10.58, "internal_energy": -1.31, "cluster_size": 18, "cluster_id": 2, "rank_in_cluster": 10}

>  <energy>  (11) 
-8.72

>  <cluster_rmsd>  (11) 
0.93

>  <cluster>  (11) 
1

$$$$

     RDKit          3D

 49 52  0  0  0  0  0  0  0  0999 V2000
  137.4250   76.1720  222.3830 O   0  0  0  0  0  0  0  0  0  0  0  0
  138.6840   76.3590  222.2760 C   0  0  0  0  0  0  0  0  0  0  0  0
  139.5260   75.3370  221.7610 N   0  0  0  0  0  0  0  0  0  0  0  0
  139.0280   74.0530  221.3360 C   0  0  0  0  0  0  0  0  0  0  0  0
  140.0480   72.9780  221.5560 C   0  0  0  0  0  0  0  0  0  0  0  0
  141.1400   73.0450  220.9350 O   0  0  0  0  0  0  0  0  0  0  0  0
  139.7220   71.9330  222.4620 N   0  0  0  0  0  0  0  0  0  0  0  0
  138.7400   70.8780  222.2960 C   0  0  0  0  0  0  0  0  0  0  0  0
  138.5250   70.4060  223.7200 C   0  0  2  0  0  0  0  0  0  0  0  0
  137.7430   71.3740  224.3480 O   0  0  0  0  0  0  0  0  0  0  0  0
  139.9550   70.4200  224.2160 C   0  0  2  0  0  0  0  0  0  0  0  0
  140.0960   70.1820  225.6550 C   0  0  0  0  0  0  0  0  0  0  0  0
  140.4710   71.1440  226.5750 C   0  0  0  0  0  0  0  0  0  0  0  0
  140.5880   70.8590  227.9340 C   0  0  0  0  0  0  0  0  0  0  0  0
  140.3160   69.5670  228.3500 C   0  0  0  0  0  0  0  0  0  0  0  0
  139.9390   68.5730  227.4680 C   0  0  0  0  0  0  0  0  0  0  0  0
  139.8340   68.8960  226.1280 C   0  0  0  0  0  0  0  0  0  0  0  0
  140.3870   71.7910  223.7620 C   0  0  0  0  0  0  0  0  0  0  0  0
  139.2750   77.6470  222.6880 C   0  0  0  0  0  0  0  0  0  0  0  0
  138.4340   78.6660  223.0860 C   0  0  0  0  0  0  0  0  0  0  0  0
  139.0330   79.8650  223.4670 C   0  0  0  0  0  0  0  0  0  0  0  0
  140.4210   80.0090  223.4420 C   0  0  0  0  0  0  0  0  0  0  0  0
  141.0200   81.1950  223.8190 C   0  0  0  0  0  0  0  0  0  0  0  0
  142.3910   81.3070  223.7840 C   0  0  0  0  0  0  0  0  0  0  0  0
  143.2080   80.2550  223.3780 C   0  0  0  0  0  0  0  0  0  0  0  0
  142.5800   79.0810  223.0070 C   0  0  0  0  0  0  0  0  0  0  0  0
  141.2090   78.9580  223.0370 C   0  0  0  0  0  0  0  0  0  0  0  0
  140.6020   77.8090  222.6740 N   0  0  0  0  0  0  0  0  0  0  0  0
  140.5620   75.5660  221.7010 H   0  0  0  0  0  0  0  0  0  0  0  0
  138.1218   73.8112  221.9107 H   0  0  0  0  0  0  0  0  0  0  0  0
  138.8021   74.1049  220.2607 H   0  0  0  0  0  0  0  0  0  0  0  0
  137.8077   71.2671  221.8608 H   0  0  0  0  0  0  0  0  0  0  0  0
  139.0644   70.0794  221.6127 H   0  0  0  0  0  0  0  0  0  0  0  0
  138.0242   69.4388  223.8738 H   0  0  0  0  0  0  0  0  0  0  0  0
  137.8850   72.2350  223.8950 H   0  0  0  0  0  0  0  0  0  0  0  0
  140.5779   69.6022  223.8246 H   0  0  0  0  0  0  0  0  0  0  0  0
  140.6832   72.1645  226.2236 H   0  0  0  0  0  0  0  0  0  0  0  0
  140.8869   71.6358  228.6532 H   0  0  0  0  0  0  0  0  0  0  0  0
  140.4030   69.3236  229.4192 H   0  0  0  0  0  0  0  0  0  0  0  0
  139.7282   67.5531  227.8220 H   0  0  0  0  0  0  0  0  0  0  0  0
  139.5348   68.1154  225.4131 H   0  0  0  0  0  0  0  0  0  0  0  0
  140.0484   72.5655  224.4659 H   0  0  0  0  0  0  0  0  0  0  0  0
  141.4796   71.9043  223.7046 H   0  0  0  0  0  0  0  0  0  0  0  0
  137.3416   78.5378  223.1018 H   0  0  0  0  0  0  0  0  0  0  0  0
  138.4047   80.7077  223.7912 H   0  0  0  0  0  0  0  0  0  0  0  0
  140.4041   82.0459  224.1456 H   0  0  0  0  0  0  0  0  0  0  0  0
  142.8560   82.2570  224.0861 H   0  0  0  0  0  0  0  0  0  0  0  0
  144.3033   80.3538  223.3537 H   0  0  0  0  0  0  0  0  0  0  0  0
  143.1894   78.2255  222.6803 H   0  0  0  0  0  0  0  0  0  0  0  0
  1  2  2  0
  2  3  1  0
  3  4  1  0
  4  5  1  0
  5  6  2  0
  5  7  1  0
  7  8  1  0
  8  9  1  0
  9 10  1  0
  9 11  1  0
 11 12  1  0
 12 13  2  0
 13 14  1  0
 14 15  2  0
 15 16  1  0
 16 17  2  0
 11 18  1  0
  2 19  1  0
 19 20  2  0
 20 21  1  0
 21 22  2  0
 22 23  1  0
 23 24  2  0
 24 25  1  0
 25 26  2  0
 26 27  1  0
 27 28  2  0
 18  7  1  0
 28 19  1  0
 17 12  1  0
 27 22  1  0
  3 29  1  0
  4 30  1  0
  4 31  1  0
  8 32  1  0
  8 33  1  0
  9 34  1  6
 10 35  1  0
 11 36  1  6
 13 37  1  0
 14 38  1  0
 15 39  1  0
 16 40  1  0
 17 41  1  0
 18 42  1  0
 18 43  1  0
 20 44  1  0
 21 45  1  0
 23 46  1  0
 24 47  1  0
 25 48  1  0
 26 49  1  0
M  END
>  <smiles>  (12) 
O=C(NCC(=O)N1C[C@H](O)[C@H](c2ccccc2)C1)c1ccc2ccccc2n1

>  <score_type>  (12) 
oracle

>  <origin>  (12) 
autodockgpu

>  <m_score__min__energy>  (12) 
-9.0199999999999996

>  <m_primary>  (12) 
energy

>  <rmsd>  (12) 
8.584198855963447

>  <m_score__min__rmsd>  (12) 
8.584198855963447

>  <meeko>  (12) 
{"free_energy": -8.69, "intermolecular_energy": -10.48, "internal_energy": -1.54, "cluster_size": 21, "cluster_id": 1, "rank_in_cluster": 13}

>  <energy>  (12) 
-8.72

>  <cluster_rmsd>  (12) 
0.9

>  <cluster>  (12) 
1

$$$$

     RDKit          3D

 49 52  0  0  0  0  0  0  0  0999 V2000
  136.2940   71.0170  222.6300 O   0  0  0  0  0  0  0  0  0  0  0  0
  136.2220   72.1840  223.1440 C   0  0  0  0  0  0  0  0  0  0  0  0
  137.0770   73.2260  222.6960 N   0  0  0  0  0  0  0  0  0  0  0  0
  138.0590   73.0410  221.6580 C   0  0  0  0  0  0  0  0  0  0  0  0
  139.4040   72.7250  222.2370 C   0  0  0  0  0  0  0  0  0  0  0  0
  140.3530   73.5260  222.0350 O   0  0  0  0  0  0  0  0  0  0  0  0
  139.5350   71.5260  222.9890 N   0  0  0  0  0  0  0  0  0  0  0  0
  139.1330   70.1840  222.6120 C   0  0  0  0  0  0  0  0  0  0  0  0
  139.0850   69.4710  223.9480 C   0  0  2  0  0  0  0  0  0  0  0  0
  137.9270   69.9040  224.5910 O   0  0  0  0  0  0  0  0  0  0  0  0
  140.3350   70.0340  224.5880 C   0  0  2  0  0  0  0  0  0  0  0  0
  140.5010   69.6820  226.0010 C   0  0  0  0  0  0  0  0  0  0  0  0
  140.5380   68.3870  226.4850 C   0  0  0  0  0  0  0  0  0  0  0  0
  140.6990   68.1120  227.8420 C   0  0  0  0  0  0  0  0  0  0  0  0
  140.8230   69.1840  228.7100 C   0  0  0  0  0  0  0  0  0  0  0  0
  140.7910   70.4940  228.2710 C   0  0  0  0  0  0  0  0  0  0  0  0
  140.6300   70.7250  226.9180 C   0  0  0  0  0  0  0  0  0  0  0  0
  140.1330   71.5060  224.3280 C   0  0  0  0  0  0  0  0  0  0  0  0
  135.2410   72.4590  224.2130 C   0  0  0  0  0  0  0  0  0  0  0  0
  134.5430   71.4010  224.7600 C   0  0  0  0  0  0  0  0  0  0  0  0
  133.6280   71.7050  225.7660 C   0  0  0  0  0  0  0  0  0  0  0  0
  133.4400   73.0220  226.1870 C   0  0  0  0  0  0  0  0  0  0  0  0
  132.5350   73.3280  227.1840 C   0  0  0  0  0  0  0  0  0  0  0  0
  132.3730   74.6360  227.5790 C   0  0  0  0  0  0  0  0  0  0  0  0
  133.0970   75.6770  227.0030 C   0  0  0  0  0  0  0  0  0  0  0  0
  133.9960   75.3400  226.0090 C   0  0  0  0  0  0  0  0  0  0  0  0
  134.1660   74.0340  225.6050 C   0  0  0  0  0  0  0  0  0  0  0  0
  135.0450   73.7120  224.6350 N   0  0  0  0  0  0  0  0  0  0  0  0
  136.9580   74.1690  223.1710 H   0  0  0  0  0  0  0  0  0  0  0  0
  137.7434   72.2109  221.0089 H   0  0  0  0  0  0  0  0  0  0  0  0
  138.1377   73.9746  221.0816 H   0  0  0  0  0  0  0  0  0  0  0  0
  138.1460   70.1859  222.1263 H   0  0  0  0  0  0  0  0  0  0  0  0
  139.8095   69.7105  221.8853 H   0  0  0  0  0  0  0  0  0  0  0  0
  139.0594   68.3713  223.9455 H   0  0  0  0  0  0  0  0  0  0  0  0
  137.2420   70.0950  223.9110 H   0  0  0  0  0  0  0  0  0  0  0  0
  141.2735   69.6311  224.1794 H   0  0  0  0  0  0  0  0  0  0  0  0
  140.4374   67.5498  225.7787 H   0  0  0  0  0  0  0  0  0  0  0  0
  140.7267   67.0764  228.2117 H   0  0  0  0  0  0  0  0  0  0  0  0
  140.9512   68.9862  229.7845 H   0  0  0  0  0  0  0  0  0  0  0  0
  140.8909   71.3299  228.9790 H   0  0  0  0  0  0  0  0  0  0  0  0
  140.6028   71.7624  226.5534 H   0  0  0  0  0  0  0  0  0  0  0  0
  139.4535   71.9490  225.0710 H   0  0  0  0  0  0  0  0  0  0  0  0
  141.0629   72.0896  224.3960 H   0  0  0  0  0  0  0  0  0  0  0  0
  134.7015   70.3676  224.4181 H   0  0  0  0  0  0  0  0  0  0  0  0
  133.0468   70.8968  226.2340 H   0  0  0  0  0  0  0  0  0  0  0  0
  131.9464   72.5299  227.6601 H   0  0  0  0  0  0  0  0  0  0  0  0
  131.6491   74.8667  228.3745 H   0  0  0  0  0  0  0  0  0  0  0  0
  132.9595   76.7199  227.3246 H   0  0  0  0  0  0  0  0  0  0  0  0
  134.5893   76.1325  225.5295 H   0  0  0  0  0  0  0  0  0  0  0  0
  1  2  2  0
  2  3  1  0
  3  4  1  0
  4  5  1  0
  5  6  2  0
  5  7  1  0
  7  8  1  0
  8  9  1  0
  9 10  1  0
  9 11  1  0
 11 12  1  0
 12 13  2  0
 13 14  1  0
 14 15  2  0
 15 16  1  0
 16 17  2  0
 11 18  1  0
  2 19  1  0
 19 20  2  0
 20 21  1  0
 21 22  2  0
 22 23  1  0
 23 24  2  0
 24 25  1  0
 25 26  2  0
 26 27  1  0
 27 28  2  0
 18  7  1  0
 28 19  1  0
 17 12  1  0
 27 22  1  0
  3 29  1  0
  4 30  1  0
  4 31  1  0
  8 32  1  0
  8 33  1  0
  9 34  1  6
 10 35  1  0
 11 36  1  6
 13 37  1  0
 14 38  1  0
 15 39  1  0
 16 40  1  0
 17 41  1  0
 18 42  1  0
 18 43  1  0
 20 44  1  0
 21 45  1  0
 23 46  1  0
 24 47  1  0
 25 48  1  0
 26 49  1  0
M  END
>  <smiles>  (13) 
O=C(NCC(=O)N1C[C@H](O)[C@H](c2ccccc2)C1)c1ccc2ccccc2n1

>  <score_type>  (13) 
oracle

>  <origin>  (13) 
autodockgpu

>  <m_score__min__energy>  (13) 
-9.0199999999999996

>  <m_primary>  (13) 
energy

>  <rmsd>  (13) 
7.4397965718165

>  <m_score__min__rmsd>  (13) 
7.4397965718165

>  <meeko>  (13) 
{"free_energy": -7.62, "intermolecular_energy": -9.41, "internal_energy": -2.52, "cluster_size": 9, "cluster_id": 3, "rank_in_cluster": 5}

>  <energy>  (13) 
-8.69

>  <cluster_rmsd>  (13) 
0.95

>  <cluster>  (13) 
1

$$$$

     RDKit          3D

 49 52  0  0  0  0  0  0  0  0999 V2000
  136.3070   71.1550  222.5590 O   0  0  0  0  0  0  0  0  0  0  0  0
  136.2390   72.3020  223.1170 C   0  0  0  0  0  0  0  0  0  0  0  0
  137.0920   73.3600  222.7040 N   0  0  0  0  0  0  0  0  0  0  0  0
  138.0680   73.2130  221.6540 C   0  0  0  0  0  0  0  0  0  0  0  0
  139.4200   72.8950  222.2140 C   0  0  0  0  0  0  0  0  0  0  0  0
  140.3710   73.6880  221.9860 O   0  0  0  0  0  0  0  0  0  0  0  0
  139.5570   71.7040  222.9780 N   0  0  0  0  0  0  0  0  0  0  0  0
  139.1480   70.3590  222.6190 C   0  0  0  0  0  0  0  0  0  0  0  0
  139.1120   69.6610  223.9640 C   0  0  2  0  0  0  0  0  0  0  0  0
  137.9600   70.1030  224.6120 O   0  0  0  0  0  0  0  0  0  0  0  0
  140.3680   70.2300  224.5860 C   0  0  2  0  0  0  0  0  0  0  0  0
  140.5460   69.8930  226.0010 C   0  0  0  0  0  0  0  0  0  0  0  0
  140.7140   70.8220  227.0120 C   0  0  0  0  0  0  0  0  0  0  0  0
  140.8780   70.4410  228.3420 C   0  0  0  0  0  0  0  0  0  0  0  0
  140.8700   69.0880  228.6350 C   0  0  0  0  0  0  0  0  0  0  0  0
  140.7070   68.1240  227.6580 C   0  0  0  0  0  0  0  0  0  0  0  0
  140.5460   68.5420  226.3500 C   0  0  0  0  0  0  0  0  0  0  0  0
  140.1670   71.6990  224.3120 C   0  0  0  0  0  0  0  0  0  0  0  0
  135.2640   72.5370  224.2020 C   0  0  0  0  0  0  0  0  0  0  0  0
  134.5950   71.4550  224.7380 C   0  0  0  0  0  0  0  0  0  0  0  0
  133.6860   71.7210  225.7590 C   0  0  0  0  0  0  0  0  0  0  0  0
  133.4740   73.0260  226.2050 C   0  0  0  0  0  0  0  0  0  0  0  0
  132.5740   73.2950  227.2170 C   0  0  0  0  0  0  0  0  0  0  0  0
  132.3880   74.5920  227.6360 C   0  0  0  0  0  0  0  0  0  0  0  0
  133.0820   75.6590  227.0710 C   0  0  0  0  0  0  0  0  0  0  0  0
  133.9770   75.3590  226.0610 C   0  0  0  0  0  0  0  0  0  0  0  0
  134.1710   74.0640  225.6330 C   0  0  0  0  0  0  0  0  0  0  0  0
  135.0460   73.7780  224.6470 N   0  0  0  0  0  0  0  0  0  0  0  0
  136.9760   74.2850  223.2150 H   0  0  0  0  0  0  0  0  0  0  0  0
  137.7556   72.3976  220.9850 H   0  0  0  0  0  0  0  0  0  0  0  0
  138.1332   74.1626  221.1027 H   0  0  0  0  0  0  0  0  0  0  0  0
  138.1562   70.3581  222.1433 H   0  0  0  0  0  0  0  0  0  0  0  0
  139.8156   69.8759  221.8904 H   0  0  0  0  0  0  0  0  0  0  0  0
  139.0858   68.5614  223.9747 H   0  0  0  0  0  0  0  0  0  0  0  0
  137.2510   70.2310  223.9430 H   0  0  0  0  0  0  0  0  0  0  0  0
  141.3020   69.8217  224.1727 H   0  0  0  0  0  0  0  0  0  0  0  0
  140.7182   71.8924  226.7586 H   0  0  0  0  0  0  0  0  0  0  0  0
  141.0098   71.1920  229.1348 H   0  0  0  0  0  0  0  0  0  0  0  0
  140.9976   68.7695  229.6801 H   0  0  0  0  0  0  0  0  0  0  0  0
  140.7054   67.0542  227.9140 H   0  0  0  0  0  0  0  0  0  0  0  0
  140.4140   67.7870  225.5610 H   0  0  0  0  0  0  0  0  0  0  0  0
  139.4951   72.1519  225.0559 H   0  0  0  0  0  0  0  0  0  0  0  0
  141.0983   72.2819  224.3656 H   0  0  0  0  0  0  0  0  0  0  0  0
  134.7715   70.4314  224.3759 H   0  0  0  0  0  0  0  0  0  0  0  0
  133.1283   70.8922  226.2195 H   0  0  0  0  0  0  0  0  0  0  0  0
  132.0085   72.4762  227.6859 H   0  0  0  0  0  0  0  0  0  0  0  0
  131.6681   74.7927  228.4431 H   0  0  0  0  0  0  0  0  0  0  0  0
  132.9253   76.6928  227.4126 H   0  0  0  0  0  0  0  0  0  0  0  0
  134.5470   76.1725  225.5885 H   0  0  0  0  0  0  0  0  0  0  0  0
  1  2  2  0
  2  3  1  0
  3  4  1  0
  4  5  1  0
  5  6  2  0
  5  7  1  0
  7  8  1  0
  8  9  1  0
  9 10  1  0
  9 11  1  0
 11 12  1  0
 12 13  2  0
 13 14  1  0
 14 15  2  0
 15 16  1  0
 16 17  2  0
 11 18  1  0
  2 19  1  0
 19 20  2  0
 20 21  1  0
 21 22  2  0
 22 23  1  0
 23 24  2  0
 24 25  1  0
 25 26  2  0
 26 27  1  0
 27 28  2  0
 18  7  1  0
 28 19  1  0
 17 12  1  0
 27 22  1  0
  3 29  1  0
  4 30  1  0
  4 31  1  0
  8 32  1  0
  8 33  1  0
  9 34  1  6
 10 35  1  0
 11 36  1  6
 13 37  1  0
 14 38  1  0
 15 39  1  0
 16 40  1  0
 17 41  1  0
 18 42  1  0
 18 43  1  0
 20 44  1  0
 21 45  1  0
 23 46  1  0
 24 47  1  0
 25 48  1  0
 26 49  1  0
M  END
>  <smiles>  (14) 
O=C(NCC(=O)N1C[C@H](O)[C@H](c2ccccc2)C1)c1ccc2ccccc2n1

>  <score_type>  (14) 
oracle

>  <origin>  (14) 
autodockgpu

>  <m_score__min__energy>  (14) 
-9.0199999999999996

>  <m_primary>  (14) 
energy

>  <rmsd>  (14) 
7.2067502782359005

>  <m_score__min__rmsd>  (14) 
7.2067502782359005

>  <meeko>  (14) 
{"free_energy": -7.62, "intermolecular_energy": -9.41, "internal_energy": -2.5, "cluster_size": 9, "cluster_id": 3, "rank_in_cluster": 4}

>  <energy>  (14) 
-8.69

>  <cluster_rmsd>  (14) 
0.91

>  <cluster>  (14) 
1

$$$$

     RDKit          3D

 49 52  0  0  0  0  0  0  0  0999 V2000
  137.5190   76.0710  222.3690 O   0  0  0  0  0  0  0  0  0  0  0  0
  138.7810   76.2710  222.3630 C   0  0  0  0  0  0  0  0  0  0  0  0
  139.6770   75.2230  222.0200 N   0  0  0  0  0  0  0  0  0  0  0  0
  139.2340   73.8980  221.6660 C   0  0  0  0  0  0  0  0  0  0  0  0
  140.2940   72.8800  221.9510 C   0  0  0  0  0  0  0  0  0  0  0  0
  141.4370   73.0410  221.4510 O   0  0  0  0  0  0  0  0  0  0  0  0
  139.9470   71.7770  222.7790 N   0  0  0  0  0  0  0  0  0  0  0  0
  139.0090   70.7070  222.4970 C   0  0  0  0  0  0  0  0  0  0  0  0
  138.7250   70.1520  223.8790 C   0  0  2  0  0  0  0  0  0  0  0  0
  137.8780   71.0620  224.5080 O   0  0  0  0  0  0  0  0  0  0  0  0
  140.1210   70.1770  224.4610 C   0  0  2  0  0  0  0  0  0  0  0  0
  140.1830   69.8640  225.8910 C   0  0  0  0  0  0  0  0  0  0  0  0
  140.3320   70.8070  226.8930 C   0  0  0  0  0  0  0  0  0  0  0  0
  140.3840   70.4490  228.2390 C   0  0  0  0  0  0  0  0  0  0  0  0
  140.2820   69.1060  228.5560 C   0  0  0  0  0  0  0  0  0  0  0  0
  140.1340   68.1290  227.5900 C   0  0  0  0  0  0  0  0  0  0  0  0
  140.0860   68.5250  226.2660 C   0  0  0  0  0  0  0  0  0  0  0  0
  140.5370   71.5830  224.1080 C   0  0  0  0  0  0  0  0  0  0  0  0
  139.3170   77.6010  222.7130 C   0  0  0  0  0  0  0  0  0  0  0  0
  138.4320   78.6180  223.0030 C   0  0  0  0  0  0  0  0  0  0  0  0
  138.9810   79.8570  223.3280 C   0  0  0  0  0  0  0  0  0  0  0  0
  140.3640   80.0400  223.3540 C   0  0  0  0  0  0  0  0  0  0  0  0
  140.9130   81.2660  223.6760 C   0  0  0  0  0  0  0  0  0  0  0  0
  142.2800   81.4160  223.6930 C   0  0  0  0  0  0  0  0  0  0  0  0
  143.1440   80.3640  223.3950 C   0  0  0  0  0  0  0  0  0  0  0  0
  142.5650   79.1500  223.0770 C   0  0  0  0  0  0  0  0  0  0  0  0
  141.1970   78.9880  223.0560 C   0  0  0  0  0  0  0  0  0  0  0  0
  140.6390   77.8010  222.7450 N   0  0  0  0  0  0  0  0  0  0  0  0
  140.7120   75.4660  222.0360 H   0  0  0  0  0  0  0  0  0  0  0  0
  138.3343   73.6524  222.2493 H   0  0  0  0  0  0  0  0  0  0  0  0
  139.0137   73.8800  220.5884 H   0  0  0  0  0  0  0  0  0  0  0  0
  138.0927   71.0942  222.0274 H   0  0  0  0  0  0  0  0  0  0  0  0
  139.3966   69.9564  221.7925 H   0  0  0  0  0  0  0  0  0  0  0  0
  138.2461   69.1643  223.9508 H   0  0  0  0  0  0  0  0  0  0  0  0
  138.0850   71.9650  224.1780 H   0  0  0  0  0  0  0  0  0  0  0  0
  140.7908   69.3993  224.0654 H   0  0  0  0  0  0  0  0  0  0  0  0
  140.4117   71.8694  226.6193 H   0  0  0  0  0  0  0  0  0  0  0  0
  140.5024   71.2100  229.0244 H   0  0  0  0  0  0  0  0  0  0  0  0
  140.3200   68.8057  229.6135 H   0  0  0  0  0  0  0  0  0  0  0  0
  140.0566   67.0671  227.8663 H   0  0  0  0  0  0  0  0  0  0  0  0
  139.9676   67.7598  225.4847 H   0  0  0  0  0  0  0  0  0  0  0  0
  140.1328   72.3080  224.8298 H   0  0  0  0  0  0  0  0  0  0  0  0
  141.6270   71.7299  224.1244 H   0  0  0  0  0  0  0  0  0  0  0  0
  137.3439   78.4588  222.9789 H   0  0  0  0  0  0  0  0  0  0  0  0
  138.3164   80.7004  223.5668 H   0  0  0  0  0  0  0  0  0  0  0  0
  140.2603   82.1178  223.9175 H   0  0  0  0  0  0  0  0  0  0  0  0
  142.7049   82.3976  223.9500 H   0  0  0  0  0  0  0  0  0  0  0  0
  144.2362   80.4938  223.4121 H   0  0  0  0  0  0  0  0  0  0  0  0
  143.2113   78.2934  222.8351 H   0  0  0  0  0  0  0  0  0  0  0  0
  1  2  2  0
  2  3  1  0
  3  4  1  0
  4  5  1  0
  5  6  2  0
  5  7  1  0
  7  8  1  0
  8  9  1  0
  9 10  1  0
  9 11  1  0
 11 12  1  0
 12 13  2  0
 13 14  1  0
 14 15  2  0
 15 16  1  0
 16 17  2  0
 11 18  1  0
  2 19  1  0
 19 20  2  0
 20 21  1  0
 21 22  2  0
 22 23  1  0
 23 24  2  0
 24 25  1  0
 25 26  2  0
 26 27  1  0
 27 28  2  0
 18  7  1  0
 28 19  1  0
 17 12  1  0
 27 22  1  0
  3 29  1  0
  4 30  1  0
  4 31  1  0
  8 32  1  0
  8 33  1  0
  9 34  1  6
 10 35  1  0
 11 36  1  6
 13 37  1  0
 14 38  1  0
 15 39  1  0
 16 40  1  0
 17 41  1  0
 18 42  1  0
 18 43  1  0
 20 44  1  0
 21 45  1  0
 23 46  1  0
 24 47  1  0
 25 48  1  0
 26 49  1  0
M  END
>  <smiles>  (15) 
O=C(NCC(=O)N1C[C@H](O)[C@H](c2ccccc2)C1)c1ccc2ccccc2n1

>  <score_type>  (15) 
oracle

>  <origin>  (15) 
autodockgpu

>  <m_score__min__energy>  (15) 
-9.0199999999999996

>  <m_primary>  (15) 
energy

>  <rmsd>  (15) 
8.724703774413834

>  <m_score__min__rmsd>  (15) 
8.724703774413834

>  <meeko>  (15) 
{"free_energy": -8.72, "intermolecular_energy": -10.51, "internal_energy": -1.57, "cluster_size": 21, "cluster_id": 1, "rank_in_cluster": 12}

>  <energy>  (15) 
-8.68

>  <cluster_rmsd>  (15) 
0.89

>  <cluster>  (15) 
1

$$$$

     RDKit          3D

 49 52  0  0  0  0  0  0  0  0999 V2000
  139.2120   70.7580  221.4840 O   0  0  0  0  0  0  0  0  0  0  0  0
  139.4320   71.3030  222.6180 C   0  0  0  0  0  0  0  0  0  0  0  0
  139.5560   72.7140  222.7320 N   0  0  0  0  0  0  0  0  0  0  0  0
  139.4450   73.6020  221.6020 C   0  0  0  0  0  0  0  0  0  0  0  0
  140.7370   74.3150  221.3460 C   0  0  0  0  0  0  0  0  0  0  0  0
  141.7920   73.6360  221.2500 O   0  0  0  0  0  0  0  0  0  0  0  0
  140.6990   75.7300  221.2260 N   0  0  0  0  0  0  0  0  0  0  0  0
  140.3250   76.5210  220.0680 C   0  0  0  0  0  0  0  0  0  0  0  0
  140.9290   77.8740  220.3890 C   0  0  2  0  0  0  0  0  0  0  0  0
  142.3010   77.7590  220.1760 O   0  0  0  0  0  0  0  0  0  0  0  0
  140.5870   77.9670  221.8600 C   0  0  2  0  0  0  0  0  0  0  0  0
  141.1990   79.1070  222.5490 C   0  0  0  0  0  0  0  0  0  0  0  0
  142.5540   79.2340  222.8010 C   0  0  0  0  0  0  0  0  0  0  0  0
  143.0790   80.3430  223.4610 C   0  0  0  0  0  0  0  0  0  0  0  0
  142.2000   81.3320  223.8670 C   0  0  0  0  0  0  0  0  0  0  0  0
  140.8390   81.2480  223.6390 C   0  0  0  0  0  0  0  0  0  0  0  0
  140.3570   80.1320  222.9800 C   0  0  0  0  0  0  0  0  0  0  0  0
  141.0620   76.6180  222.3360 C   0  0  0  0  0  0  0  0  0  0  0  0
  139.5590   70.4640  223.8260 C   0  0  0  0  0  0  0  0  0  0  0  0
  139.0770   69.1710  223.7900 C   0  0  0  0  0  0  0  0  0  0  0  0
  139.2170   68.4140  224.9510 C   0  0  0  0  0  0  0  0  0  0  0  0
  139.8190   68.9550  226.0880 C   0  0  0  0  0  0  0  0  0  0  0  0
  139.9610   68.2090  227.2410 C   0  0  0  0  0  0  0  0  0  0  0  0
  140.5590   68.7690  228.3460 C   0  0  0  0  0  0  0  0  0  0  0  0
  141.0340   70.0780  228.3450 C   0  0  0  0  0  0  0  0  0  0  0  0
  140.8790   70.8000  227.1760 C   0  0  0  0  0  0  0  0  0  0  0  0
  140.2810   70.2490  226.0640 C   0  0  0  0  0  0  0  0  0  0  0  0
  140.1330   70.9590  224.9280 N   0  0  0  0  0  0  0  0  0  0  0  0
  139.7380   73.0930  223.7070 H   0  0  0  0  0  0  0  0  0  0  0  0
  139.1752   73.0167  220.7106 H   0  0  0  0  0  0  0  0  0  0  0  0
  138.6706   74.3516  221.8221 H   0  0  0  0  0  0  0  0  0  0  0  0
  140.7534   76.1028  219.1452 H   0  0  0  0  0  0  0  0  0  0  0  0
  139.2399   76.5550  219.8908 H   0  0  0  0  0  0  0  0  0  0  0  0
  140.5857   78.7442  219.8103 H   0  0  0  0  0  0  0  0  0  0  0  0
  142.6930   77.2460  220.9180 H   0  0  0  0  0  0  0  0  0  0  0  0
  139.5249   78.1651  222.0665 H   0  0  0  0  0  0  0  0  0  0  0  0
  143.2359   78.4365  222.4707 H   0  0  0  0  0  0  0  0  0  0  0  0
  144.1585   80.4299  223.6534 H   0  0  0  0  0  0  0  0  0  0  0  0
  142.5978   82.2149  224.3888 H   0  0  0  0  0  0  0  0  0  0  0  0
  140.1591   82.0460  223.9722 H   0  0  0  0  0  0  0  0  0  0  0  0
  139.2766   80.0501  222.7899 H   0  0  0  0  0  0  0  0  0  0  0  0
  142.1492   76.6180  222.5031 H   0  0  0  0  0  0  0  0  0  0  0  0
  140.6179   76.3159  223.2960 H   0  0  0  0  0  0  0  0  0  0  0  0
  138.6044   68.7577  222.8867 H   0  0  0  0  0  0  0  0  0  0  0  0
  138.8487   67.3777  224.9719 H   0  0  0  0  0  0  0  0  0  0  0  0
  139.5975   67.1714  227.2759 H   0  0  0  0  0  0  0  0  0  0  0  0
  140.6653   68.1641  229.2586 H   0  0  0  0  0  0  0  0  0  0  0  0
  141.5107   70.5175  229.2336 H   0  0  0  0  0  0  0  0  0  0  0  0
  141.2413   71.8377  227.1330 H   0  0  0  0  0  0  0  0  0  0  0  0
  1  2  2  0
  2  3  1  0
  3  4  1  0
  4  5  1  0
  5  6  2  0
  5  7  1  0
  7  8  1  0
  8  9  1  0
  9 10  1  0
  9 11  1  0
 11 12  1  0
 12 13  2  0
 13 14  1  0
 14 15  2  0
 15 16  1  0
 16 17  2  0
 11 18  1  0
  2 19  1  0
 19 20  2  0
 20 21  1  0
 21 22  2  0
 22 23  1  0
 23 24  2  0
 24 25  1  0
 25 26  2  0
 26 27  1  0
 27 28  2  0
 18  7  1  0
 28 19  1  0
 17 12  1  0
 27 22  1  0
  3 29  1  0
  4 30  1  0
  4 31  1  0
  8 32  1  0
  8 33  1  0
  9 34  1  6
 10 35  1  0
 11 36  1  6
 13 37  1  0
 14 38  1  0
 15 39  1  0
 16 40  1  0
 17 41  1  0
 18 42  1  0
 18 43  1  0
 20 44  1  0
 21 45  1  0
 23 46  1  0
 24 47  1  0
 25 48  1  0
 26 49  1  0
M  END
>  <smiles>  (16) 
O=C(NCC(=O)N1C[C@H](O)[C@H](c2ccccc2)C1)c1ccc2ccccc2n1

>  <score_type>  (16) 
oracle

>  <origin>  (16) 
autodockgpu

>  <m_score__min__energy>  (16) 
-9.0199999999999996

>  <m_primary>  (16) 
energy

>  <rmsd>  (16) 
2.9057637493931603

>  <m_score__min__rmsd>  (16) 
2.9057637493931603

>  <meeko>  (16) 
{"free_energy": -8.96, "intermolecular_energy": -10.75, "internal_energy": -1.28, "cluster_size": 18, "cluster_id": 2, "rank_in_cluster": 3}

>  <energy>  (16) 
-8.67

>  <cluster_rmsd>  (16) 
0.91

>  <cluster>  (16) 
1

$$$$

     RDKit          3D

 49 52  0  0  0  0  0  0  0  0999 V2000
  137.4750   76.0870  222.4670 O   0  0  0  0  0  0  0  0  0  0  0  0
  138.7340   76.2950  222.4000 C   0  0  0  0  0  0  0  0  0  0  0  0
  139.6180   75.2580  222.0010 N   0  0  0  0  0  0  0  0  0  0  0  0
  139.1660   73.9330  221.6560 C   0  0  0  0  0  0  0  0  0  0  0  0
  140.2170   72.9090  221.9540 C   0  0  0  0  0  0  0  0  0  0  0  0
  141.3730   73.0760  221.4860 O   0  0  0  0  0  0  0  0  0  0  0  0
  139.8460   71.7950  222.7550 N   0  0  0  0  0  0  0  0  0  0  0  0
  138.8450   70.7830  222.4730 C   0  0  0  0  0  0  0  0  0  0  0  0
  138.5860   70.1910  223.8440 C   0  0  2  0  0  0  0  0  0  0  0  0
  137.8120   71.1180  224.5400 O   0  0  0  0  0  0  0  0  0  0  0  0
  140.0030   70.1250  224.3700 C   0  0  2  0  0  0  0  0  0  0  0  0
  140.1050   69.7560  225.7850 C   0  0  0  0  0  0  0  0  0  0  0  0
  140.3340   70.6520  226.8130 C   0  0  0  0  0  0  0  0  0  0  0  0
  140.4200   70.2420  228.1420 C   0  0  0  0  0  0  0  0  0  0  0  0
  140.2690   68.8930  228.4150 C   0  0  0  0  0  0  0  0  0  0  0  0
  140.0400   67.9610  227.4200 C   0  0  0  0  0  0  0  0  0  0  0  0
  139.9600   68.4090  226.1140 C   0  0  0  0  0  0  0  0  0  0  0  0
  140.4770   71.5210  224.0510 C   0  0  0  0  0  0  0  0  0  0  0  0
  139.2790   77.6250  222.7370 C   0  0  0  0  0  0  0  0  0  0  0  0
  138.4000   78.6470  223.0360 C   0  0  0  0  0  0  0  0  0  0  0  0
  138.9580   79.8850  223.3480 C   0  0  0  0  0  0  0  0  0  0  0  0
  140.3420   80.0650  223.3530 C   0  0  0  0  0  0  0  0  0  0  0  0
  140.8990   81.2900  223.6610 C   0  0  0  0  0  0  0  0  0  0  0  0
  142.2670   81.4360  223.6590 C   0  0  0  0  0  0  0  0  0  0  0  0
  143.1220   80.3810  223.3520 C   0  0  0  0  0  0  0  0  0  0  0  0
  142.5360   79.1670  223.0470 C   0  0  0  0  0  0  0  0  0  0  0  0
  141.1670   79.0090  223.0470 C   0  0  0  0  0  0  0  0  0  0  0  0
  140.6020   77.8220  222.7490 N   0  0  0  0  0  0  0  0  0  0  0  0
  140.6510   75.5070  221.9680 H   0  0  0  0  0  0  0  0  0  0  0  0
  138.2619   73.6993  222.2374 H   0  0  0  0  0  0  0  0  0  0  0  0
  138.9502   73.9078  220.5777 H   0  0  0  0  0  0  0  0  0  0  0  0
  137.9322   71.2319  222.0544 H   0  0  0  0  0  0  0  0  0  0  0  0
  139.1676   70.0412  221.7276 H   0  0  0  0  0  0  0  0  0  0  0  0
  138.0598   69.2266  223.8988 H   0  0  0  0  0  0  0  0  0  0  0  0
  138.0380   72.0200  224.2210 H   0  0  0  0  0  0  0  0  0  0  0  0
  140.6156   69.3300  223.9199 H   0  0  0  0  0  0  0  0  0  0  0  0
  140.4517   71.7194  226.5748 H   0  0  0  0  0  0  0  0  0  0  0  0
  140.6021   70.9672  228.9488 H   0  0  0  0  0  0  0  0  0  0  0  0
  140.3334   68.5514  229.4586 H   0  0  0  0  0  0  0  0  0  0  0  0
  139.9247   66.8937  227.6601 H   0  0  0  0  0  0  0  0  0  0  0  0
  139.7764   67.6805  225.3105 H   0  0  0  0  0  0  0  0  0  0  0  0
  140.1395   72.2374  224.8145 H   0  0  0  0  0  0  0  0  0  0  0  0
  141.5730   71.6122  224.0277 H   0  0  0  0  0  0  0  0  0  0  0  0
  137.3111   78.4912  223.0282 H   0  0  0  0  0  0  0  0  0  0  0  0
  138.2994   80.7312  223.5935 H   0  0  0  0  0  0  0  0  0  0  0  0
  140.2522   82.1452  223.9068 H   0  0  0  0  0  0  0  0  0  0  0  0
  142.6986   82.4167  223.9077 H   0  0  0  0  0  0  0  0  0  0  0  0
  144.2146   80.5079  223.3522 H   0  0  0  0  0  0  0  0  0  0  0  0
  143.1765   78.3079  222.7987 H   0  0  0  0  0  0  0  0  0  0  0  0
  1  2  2  0
  2  3  1  0
  3  4  1  0
  4  5  1  0
  5  6  2  0
  5  7  1  0
  7  8  1  0
  8  9  1  0
  9 10  1  0
  9 11  1  0
 11 12  1  0
 12 13  2  0
 13 14  1  0
 14 15  2  0
 15 16  1  0
 16 17  2  0
 11 18  1  0
  2 19  1  0
 19 20  2  0
 20 21  1  0
 21 22  2  0
 22 23  1  0
 23 24  2  0
 24 25  1  0
 25 26  2  0
 26 27  1  0
 27 28  2  0
 18  7  1  0
 28 19  1  0
 17 12  1  0
 27 22  1  0
  3 29  1  0
  4 30  1  0
  4 31  1  0
  8 32  1  0
  8 33  1  0
  9 34  1  6
 10 35  1  0
 11 36  1  6
 13 37  1  0
 14 38  1  0
 15 39  1  0
 16 40  1  0
 17 41  1  0
 18 42  1  0
 18 43  1  0
 20 44  1  0
 21 45  1  0
 23 46  1  0
 24 47  1  0
 25 48  1  0
 26 49  1  0
M  END
>  <smiles>  (17) 
O=C(NCC(=O)N1C[C@H](O)[C@H](c2ccccc2)C1)c1ccc2ccccc2n1

>  <score_type>  (17) 
oracle

>  <origin>  (17) 
autodockgpu

>  <m_score__min__energy>  (17) 
-9.0199999999999996

>  <m_primary>  (17) 
energy

>  <rmsd>  (17) 
8.739318807411564

>  <m_score__min__rmsd>  (17) 
8.739318807411564

>  <meeko>  (17) 
{"free_energy": -8.67, "intermolecular_energy": -10.46, "internal_energy": -1.59, "cluster_size": 21, "cluster_id": 1, "rank_in_cluster": 16}

>  <energy>  (17) 
-8.67

>  <cluster_rmsd>  (17) 
0.92

>  <cluster>  (17) 
1

$$$$

     RDKit          3D

 49 52  0  0  0  0  0  0  0  0999 V2000
  137.5310   76.0640  222.4180 O   0  0  0  0  0  0  0  0  0  0  0  0
  138.7890   76.2820  222.3670 C   0  0  0  0  0  0  0  0  0  0  0  0
  139.6840   75.2600  221.9530 N   0  0  0  0  0  0  0  0  0  0  0  0
  139.2440   73.9410  221.5730 C   0  0  0  0  0  0  0  0  0  0  0  0
  140.2730   72.9080  221.9170 C   0  0  0  0  0  0  0  0  0  0  0  0
  141.4470   73.0600  221.4900 O   0  0  0  0  0  0  0  0  0  0  0  0
  139.8620   71.8040  222.7120 N   0  0  0  0  0  0  0  0  0  0  0  0
  138.8270   70.8290  222.4230 C   0  0  0  0  0  0  0  0  0  0  0  0
  138.5440   70.2400  223.7900 C   0  0  2  0  0  0  0  0  0  0  0  0
  137.7990   71.1900  224.4870 O   0  0  0  0  0  0  0  0  0  0  0  0
  139.9560   70.1240  224.3200 C   0  0  2  0  0  0  0  0  0  0  0  0
  140.0400   69.7450  225.7340 C   0  0  0  0  0  0  0  0  0  0  0  0
  139.8660   68.4590  226.2120 C   0  0  0  0  0  0  0  0  0  0  0  0
  139.9590   68.1590  227.5690 C   0  0  0  0  0  0  0  0  0  0  0  0
  140.2340   69.1950  228.4450 C   0  0  0  0  0  0  0  0  0  0  0  0
  140.4150   70.4960  228.0130 C   0  0  0  0  0  0  0  0  0  0  0  0
  140.3150   70.7530  226.6590 C   0  0  0  0  0  0  0  0  0  0  0  0
  140.4780   71.5040  224.0080 C   0  0  0  0  0  0  0  0  0  0  0  0
  139.3230   77.6070  222.7400 C   0  0  0  0  0  0  0  0  0  0  0  0
  138.4350   78.6110  223.0700 C   0  0  0  0  0  0  0  0  0  0  0  0
  138.9810   79.8450  223.4150 C   0  0  0  0  0  0  0  0  0  0  0  0
  140.3630   80.0390  223.4220 C   0  0  0  0  0  0  0  0  0  0  0  0
  140.9090   81.2600  223.7630 C   0  0  0  0  0  0  0  0  0  0  0  0
  142.2760   81.4200  223.7610 C   0  0  0  0  0  0  0  0  0  0  0  0
  143.1410   80.3820  223.4220 C   0  0  0  0  0  0  0  0  0  0  0  0
  142.5650   79.1720  223.0850 C   0  0  0  0  0  0  0  0  0  0  0  0
  141.1980   79.0000  223.0830 C   0  0  0  0  0  0  0  0  0  0  0  0
  140.6430   77.8170  222.7540 N   0  0  0  0  0  0  0  0  0  0  0  0
  140.7150   75.5160  221.9360 H   0  0  0  0  0  0  0  0  0  0  0  0
  138.3093   73.7075  222.1039 H   0  0  0  0  0  0  0  0  0  0  0  0
  139.0852   73.9263  220.4846 H   0  0  0  0  0  0  0  0  0  0  0  0
  137.9315   71.3115  222.0044 H   0  0  0  0  0  0  0  0  0  0  0  0
  139.1255   70.0799  221.6749 H   0  0  0  0  0  0  0  0  0  0  0  0
  137.9859   69.2934  223.8394 H   0  0  0  0  0  0  0  0  0  0  0  0
  138.0170   72.0810  224.1350 H   0  0  0  0  0  0  0  0  0  0  0  0
  140.5436   69.3110  223.8687 H   0  0  0  0  0  0  0  0  0  0  0  0
  139.6478   67.6495  225.4999 H   0  0  0  0  0  0  0  0  0  0  0  0
  139.8183   67.1307  227.9333 H   0  0  0  0  0  0  0  0  0  0  0  0
  140.3111   68.9760  229.5202 H   0  0  0  0  0  0  0  0  0  0  0  0
  140.6325   71.3038  228.7272 H   0  0  0  0  0  0  0  0  0  0  0  0
  140.4564   71.7829  226.2995 H   0  0  0  0  0  0  0  0  0  0  0  0
  140.1622   72.2285  224.7731 H   0  0  0  0  0  0  0  0  0  0  0  0
  141.5765   71.5580  223.9888 H   0  0  0  0  0  0  0  0  0  0  0  0
  137.3477   78.4444  223.0609 H   0  0  0  0  0  0  0  0  0  0  0  0
  138.3145   80.6772  223.6854 H   0  0  0  0  0  0  0  0  0  0  0  0
  140.2546   82.1013  224.0351 H   0  0  0  0  0  0  0  0  0  0  0  0
  142.6986   82.3978  224.0356 H   0  0  0  0  0  0  0  0  0  0  0  0
  144.2324   80.5193  223.4225 H   0  0  0  0  0  0  0  0  0  0  0  0
  143.2131   78.3262  222.8119 H   0  0  0  0  0  0  0  0  0  0  0  0
  1  2  2  0
  2  3  1  0
  3  4  1  0
  4  5  1  0
  5  6  2  0
  5  7  1  0
  7  8  1  0
  8  9  1  0
  9 10  1  0
  9 11  1  0
 11 12  1  0
 12 13  2  0
 13 14  1  0
 14 15  2  0
 15 16  1  0
 16 17  2  0
 11 18  1  0
  2 19  1  0
 19 20  2  0
 20 21  1  0
 21 22  2  0
 22 23  1  0
 23 24  2  0
 24 25  1  0
 25 26  2  0
 26 27  1  0
 27 28  2  0
 18  7  1  0
 28 19  1  0
 17 12  1  0
 27 22  1  0
  3 29  1  0
  4 30  1  0
  4 31  1  0
  8 32  1  0
  8 33  1  0
  9 34  1  6
 10 35  1  0
 11 36  1  6
 13 37  1  0
 14 38  1  0
 15 39  1  0
 16 40  1  0
 17 41  1  0
 18 42  1  0
 18 43  1  0
 20 44  1  0
 21 45  1  0
 23 46  1  0
 24 47  1  0
 25 48  1  0
 26 49  1  0
M  END
>  <smiles>  (18) 
O=C(NCC(=O)N1C[C@H](O)[C@H](c2ccccc2)C1)c1ccc2ccccc2n1

>  <score_type>  (18) 
oracle

>  <origin>  (18) 
autodockgpu

>  <m_score__min__energy>  (18) 
-9.0199999999999996

>  <m_primary>  (18) 
energy

>  <rmsd>  (18) 
8.855273091110242

>  <m_score__min__rmsd>  (18) 
8.855273091110242

>  <meeko>  (18) 
{"free_energy": -8.77, "intermolecular_energy": -10.56, "internal_energy": -1.59, "cluster_size": 21, "cluster_id": 1, "rank_in_cluster": 7}

>  <energy>  (18) 
-8.38

>  <cluster_rmsd>  (18) 
1.67

>  <cluster>  (18) 
1

$$$$

     RDKit          3D

 49 52  0  0  0  0  0  0  0  0999 V2000
  137.3530   76.2900  222.4180 O   0  0  0  0  0  0  0  0  0  0  0  0
  138.6200   76.4400  222.3500 C   0  0  0  0  0  0  0  0  0  0  0  0
  139.4530   75.3720  221.9210 N   0  0  0  0  0  0  0  0  0  0  0  0
  138.9360   74.0810  221.5420 C   0  0  0  0  0  0  0  0  0  0  0  0
  139.9780   73.0150  221.7000 C   0  0  0  0  0  0  0  0  0  0  0  0
  141.0620   73.1320  221.0730 O   0  0  0  0  0  0  0  0  0  0  0  0
  139.6800   71.9210  222.5570 N   0  0  0  0  0  0  0  0  0  0  0  0
  138.7390   70.8400  222.3340 C   0  0  0  0  0  0  0  0  0  0  0  0
  138.5250   70.3000  223.7350 C   0  0  2  0  0  0  0  0  0  0  0  0
  137.7020   71.2120  224.3930 O   0  0  0  0  0  0  0  0  0  0  0  0
  139.9480   70.3440  224.2490 C   0  0  2  0  0  0  0  0  0  0  0  0
  140.0810   70.0500  225.6780 C   0  0  0  0  0  0  0  0  0  0  0  0
  140.3620   70.9950  226.6490 C   0  0  0  0  0  0  0  0  0  0  0  0
  140.4760   70.6560  227.9960 C   0  0  0  0  0  0  0  0  0  0  0  0
  140.3000   69.3290  228.3470 C   0  0  0  0  0  0  0  0  0  0  0  0
  140.0200   68.3500  227.4120 C   0  0  0  0  0  0  0  0  0  0  0  0
  139.9130   68.7270  226.0860 C   0  0  0  0  0  0  0  0  0  0  0  0
  140.3350   71.7480  223.8580 C   0  0  0  0  0  0  0  0  0  0  0  0
  139.2300   77.7330  222.7200 C   0  0  0  0  0  0  0  0  0  0  0  0
  138.4020   78.7820  223.0640 C   0  0  0  0  0  0  0  0  0  0  0  0
  139.0200   79.9840  223.4060 C   0  0  0  0  0  0  0  0  0  0  0  0
  140.4100   80.1010  223.3950 C   0  0  0  0  0  0  0  0  0  0  0  0
  141.0260   81.2900  223.7330 C   0  0  0  0  0  0  0  0  0  0  0  0
  142.3990   81.3750  223.7130 C   0  0  0  0  0  0  0  0  0  0  0  0
  143.2020   80.2930  223.3600 C   0  0  0  0  0  0  0  0  0  0  0  0
  142.5570   79.1170  223.0270 C   0  0  0  0  0  0  0  0  0  0  0  0
  141.1830   79.0200  223.0430 C   0  0  0  0  0  0  0  0  0  0  0  0
  140.5600   77.8700  222.7170 N   0  0  0  0  0  0  0  0  0  0  0  0
  140.4960   75.5720  221.8900 H   0  0  0  0  0  0  0  0  0  0  0  0
  138.0736   73.8379  222.1801 H   0  0  0  0  0  0  0  0  0  0  0  0
  138.6352   74.1217  220.4847 H   0  0  0  0  0  0  0  0  0  0  0  0
  137.7982   71.2138  221.9036 H   0  0  0  0  0  0  0  0  0  0  0  0
  139.0997   70.0833  221.6218 H   0  0  0  0  0  0  0  0  0  0  0  0
  138.0577   69.3099  223.8417 H   0  0  0  0  0  0  0  0  0  0  0  0
  137.9100   72.1160  224.0680 H   0  0  0  0  0  0  0  0  0  0  0  0
  140.6049   69.5667  223.8316 H   0  0  0  0  0  0  0  0  0  0  0  0
  140.4994   72.0443  226.3490 H   0  0  0  0  0  0  0  0  0  0  0  0
  140.6988   71.4192  228.7562 H   0  0  0  0  0  0  0  0  0  0  0  0
  140.3858   69.0435  229.4058 H   0  0  0  0  0  0  0  0  0  0  0  0
  139.8861   67.3009  227.7143 H   0  0  0  0  0  0  0  0  0  0  0  0
  139.6885   67.9602  225.3300 H   0  0  0  0  0  0  0  0  0  0  0  0
  139.9607   72.4794  224.5894 H   0  0  0  0  0  0  0  0  0  0  0  0
  141.4234   71.9026  223.8192 H   0  0  0  0  0  0  0  0  0  0  0  0
  137.3072   78.6750  223.0682 H   0  0  0  0  0  0  0  0  0  0  0  0
  138.4040   80.8507  223.6880 H   0  0  0  0  0  0  0  0  0  0  0  0
  140.4220   82.1645  224.0167 H   0  0  0  0  0  0  0  0  0  0  0  0
  142.8777   82.3275  223.9843 H   0  0  0  0  0  0  0  0  0  0  0  0
  144.2992   80.3710  223.3469 H   0  0  0  0  0  0  0  0  0  0  0  0
  143.1545   78.2383  222.7426 H   0  0  0  0  0  0  0  0  0  0  0  0
  1  2  2  0
  2  3  1  0
  3  4  1  0
  4  5  1  0
  5  6  2  0
  5  7  1  0
  7  8  1  0
  8  9  1  0
  9 10  1  0
  9 11  1  0
 11 12  1  0
 12 13  2  0
 13 14  1  0
 14 15  2  0
 15 16  1  0
 16 17  2  0
 11 18  1  0
  2 19  1  0
 19 20  2  0
 20 21  1  0
 21 22  2  0
 22 23  1  0
 23 24  2  0
 24 25  1  0
 25 26  2  0
 26 27  1  0
 27 28  2  0
 18  7  1  0
 28 19  1  0
 17 12  1  0
 27 22  1  0
  3 29  1  0
  4 30  1  0
  4 31  1  0
  8 32  1  0
  8 33  1  0
  9 34  1  6
 10 35  1  0
 11 36  1  6
 13 37  1  0
 14 38  1  0
 15 39  1  0
 16 40  1  0
 17 41  1  0
 18 42  1  0
 18 43  1  0
 20 44  1  0
 21 45  1  0
 23 46  1  0
 24 47  1  0
 25 48  1  0
 26 49  1  0
M  END
>  <smiles>  (19) 
O=C(NCC(=O)N1C[C@H](O)[C@H](c2ccccc2)C1)c1ccc2ccccc2n1

>  <score_type>  (19) 
oracle

>  <origin>  (19) 
autodockgpu

>  <m_score__min__energy>  (19) 
-9.0199999999999996

>  <m_primary>  (19) 
energy

>  <rmsd>  (19) 
8.66813343342274

>  <m_score__min__rmsd>  (19) 
8.66813343342274

>  <meeko>  (19) 
{"free_energy": -8.67, "intermolecular_energy": -10.46, "internal_energy": -1.56, "cluster_size": 21, "cluster_id": 1, "rank_in_cluster": 17}

>  <energy>  (19) 
-8.33

>  <cluster_rmsd>  (19) 
1.34

>  <cluster>  (19) 
1

$$$$

     RDKit          3D

 49 52  0  0  0  0  0  0  0  0999 V2000
  137.6320   76.1890  222.2740 O   0  0  0  0  0  0  0  0  0  0  0  0
  138.8940   76.3860  222.2500 C   0  0  0  0  0  0  0  0  0  0  0  0
  139.7770   75.3660  221.8050 N   0  0  0  0  0  0  0  0  0  0  0  0
  139.3190   74.0740  221.3620 C   0  0  0  0  0  0  0  0  0  0  0  0
  140.3330   73.0110  221.6590 C   0  0  0  0  0  0  0  0  0  0  0  0
  141.4770   73.1060  221.1440 O   0  0  0  0  0  0  0  0  0  0  0  0
  139.9420   71.9450  222.5140 N   0  0  0  0  0  0  0  0  0  0  0  0
  138.9520   70.9140  222.2640 C   0  0  0  0  0  0  0  0  0  0  0  0
  138.6550   70.4030  223.6600 C   0  0  2  0  0  0  0  0  0  0  0  0
  137.8590   71.3660  224.2770 O   0  0  0  0  0  0  0  0  0  0  0  0
  140.0570   70.3750  224.2290 C   0  0  2  0  0  0  0  0  0  0  0  0
  140.1190   70.0910  225.6650 C   0  0  0  0  0  0  0  0  0  0  0  0
  140.3660   71.0390  226.6410 C   0  0  0  0  0  0  0  0  0  0  0  0
  140.4120   70.7090  227.9950 C   0  0  0  0  0  0  0  0  0  0  0  0
  140.2010   69.3870  228.3460 C   0  0  0  0  0  0  0  0  0  0  0  0
  139.9520   68.4050  227.4060 C   0  0  0  0  0  0  0  0  0  0  0  0
  139.9140   68.7730  226.0740 C   0  0  0  0  0  0  0  0  0  0  0  0
  140.5360   71.7510  223.8410 C   0  0  0  0  0  0  0  0  0  0  0  0
  139.4450   77.6850  222.6870 C   0  0  0  0  0  0  0  0  0  0  0  0
  138.5720   78.6680  223.1050 C   0  0  0  0  0  0  0  0  0  0  0  0
  139.1350   79.8780  223.5090 C   0  0  0  0  0  0  0  0  0  0  0  0
  140.5170   80.0660  223.4850 C   0  0  0  0  0  0  0  0  0  0  0  0
  141.0790   81.2620  223.8840 C   0  0  0  0  0  0  0  0  0  0  0  0
  142.4450   81.4180  223.8500 C   0  0  0  0  0  0  0  0  0  0  0  0
  143.2950   80.4010  223.4220 C   0  0  0  0  0  0  0  0  0  0  0  0
  142.7030   79.2150  223.0290 C   0  0  0  0  0  0  0  0  0  0  0  0
  141.3360   79.0480  223.0590 C   0  0  0  0  0  0  0  0  0  0  0  0
  140.7660   77.8880  222.6740 N   0  0  0  0  0  0  0  0  0  0  0  0
  140.8120   75.6050  221.8130 H   0  0  0  0  0  0  0  0  0  0  0  0
  138.3797   73.8290  221.8794 H   0  0  0  0  0  0  0  0  0  0  0  0
  139.1623   74.1131  220.2739 H   0  0  0  0  0  0  0  0  0  0  0  0
  138.0505   71.3336  221.7936 H   0  0  0  0  0  0  0  0  0  0  0  0
  139.2977   70.1307  221.5734 H   0  0  0  0  0  0  0  0  0  0  0  0
  138.1301   69.4412  223.7573 H   0  0  0  0  0  0  0  0  0  0  0  0
  138.0310   72.2360  223.8520 H   0  0  0  0  0  0  0  0  0  0  0  0
  140.6849   69.5577  223.8446 H   0  0  0  0  0  0  0  0  0  0  0  0
  140.5310   72.0842  226.3404 H   0  0  0  0  0  0  0  0  0  0  0  0
  140.6096   71.4748  228.7596 H   0  0  0  0  0  0  0  0  0  0  0  0
  140.2326   69.1083  229.4096 H   0  0  0  0  0  0  0  0  0  0  0  0
  139.7887   67.3603  227.7091 H   0  0  0  0  0  0  0  0  0  0  0  0
  139.7161   68.0033  225.3135 H   0  0  0  0  0  0  0  0  0  0  0  0
  140.1749   72.5100  224.5506 H   0  0  0  0  0  0  0  0  0  0  0  0
  141.6320   71.8452  223.8434 H   0  0  0  0  0  0  0  0  0  0  0  0
  137.4842   78.5051  223.1189 H   0  0  0  0  0  0  0  0  0  0  0  0
  138.4814   80.6941  223.8508 H   0  0  0  0  0  0  0  0  0  0  0  0
  140.4372   82.0866  224.2276 H   0  0  0  0  0  0  0  0  0  0  0  0
  142.8799   82.3760  224.1709 H   0  0  0  0  0  0  0  0  0  0  0  0
  144.3865   80.5352  223.3978 H   0  0  0  0  0  0  0  0  0  0  0  0
  143.3382   78.3857  222.6845 H   0  0  0  0  0  0  0  0  0  0  0  0
  1  2  2  0
  2  3  1  0
  3  4  1  0
  4  5  1  0
  5  6  2  0
  5  7  1  0
  7  8  1  0
  8  9  1  0
  9 10  1  0
  9 11  1  0
 11 12  1  0
 12 13  2  0
 13 14  1  0
 14 15  2  0
 15 16  1  0
 16 17  2  0
 11 18  1  0
  2 19  1  0
 19 20  2  0
 20 21  1  0
 21 22  2  0
 22 23  1  0
 23 24  2  0
 24 25  1  0
 25 26  2  0
 26 27  1  0
 27 28  2  0
 18  7  1  0
 28 19  1  0
 17 12  1  0
 27 22  1  0
  3 29  1  0
  4 30  1  0
  4 31  1  0
  8 32  1  0
  8 33  1  0
  9 34  1  6
 10 35  1  0
 11 36  1  6
 13 37  1  0
 14 38  1  0
 15 39  1  0
 16 40  1  0
 17 41  1  0
 18 42  1  0
 18 43  1  0
 20 44  1  0
 21 45  1  0
 23 46  1  0
 24 47  1  0
 25 48  1  0
 26 49  1  0
M  END
>  <smiles>  (20) 
O=C(NCC(=O)N1C[C@H](O)[C@H](c2ccccc2)C1)c1ccc2ccccc2n1

>  <score_type>  (20) 
oracle

>  <origin>  (20) 
autodockgpu

>  <m_score__min__energy>  (20) 
-9.0199999999999996

>  <m_primary>  (20) 
energy

>  <rmsd>  (20) 
8.636507355491943

>  <m_score__min__rmsd>  (20) 
8.636507355491943

>  <meeko>  (20) 
{"free_energy": -8.74, "intermolecular_energy": -10.53, "internal_energy": -1.55, "cluster_size": 21, "cluster_id": 1, "rank_in_cluster": 10}

>  <energy>  (20) 
-8.2

>  <cluster_rmsd>  (20) 
1.36

>  <cluster>  (20) 
1

$$$$

     RDKit          3D

 49 52  0  0  0  0  0  0  0  0999 V2000
  139.3930   70.5240  221.4130 O   0  0  0  0  0  0  0  0  0  0  0  0
  139.4580   71.1710  222.5130 C   0  0  0  0  0  0  0  0  0  0  0  0
  139.4320   72.5920  222.5190 N   0  0  0  0  0  0  0  0  0  0  0  0
  139.3340   73.3770  221.3150 C   0  0  0  0  0  0  0  0  0  0  0  0
  140.6720   73.9140  220.9090 C   0  0  0  0  0  0  0  0  0  0  0  0
  141.6210   73.1050  220.7400 O   0  0  0  0  0  0  0  0  0  0  0  0
  140.7970   75.3190  220.7360 N   0  0  0  0  0  0  0  0  0  0  0  0
  140.7380   76.0780  219.5020 C   0  0  0  0  0  0  0  0  0  0  0  0
  141.3960   77.3870  219.8920 C   0  0  2  0  0  0  0  0  0  0  0  0
  142.7650   77.1400  219.9640 O   0  0  0  0  0  0  0  0  0  0  0  0
  140.7810   77.5870  221.2600 C   0  0  2  0  0  0  0  0  0  0  0  0
  141.3530   78.7020  222.0200 C   0  0  0  0  0  0  0  0  0  0  0  0
  141.7540   79.9040  221.4650 C   0  0  0  0  0  0  0  0  0  0  0  0
  142.2910   80.9300  222.2400 C   0  0  0  0  0  0  0  0  0  0  0  0
  142.4170   80.7160  223.6020 C   0  0  0  0  0  0  0  0  0  0  0  0
  142.0310   79.5310  224.2000 C   0  0  0  0  0  0  0  0  0  0  0  0
  141.5020   78.5380  223.3970 C   0  0  0  0  0  0  0  0  0  0  0  0
  141.0180   76.2270  221.8670 C   0  0  0  0  0  0  0  0  0  0  0  0
  139.5590   70.4410  223.7920 C   0  0  0  0  0  0  0  0  0  0  0  0
  139.0700   69.1530  223.8620 C   0  0  0  0  0  0  0  0  0  0  0  0
  139.1870   68.5010  225.0870 C   0  0  0  0  0  0  0  0  0  0  0  0
  139.7730   69.1370  226.1820 C   0  0  0  0  0  0  0  0  0  0  0  0
  139.8910   68.4950  227.3990 C   0  0  0  0  0  0  0  0  0  0  0  0
  140.4740   69.1480  228.4600 C   0  0  0  0  0  0  0  0  0  0  0  0
  140.9570   70.4500  228.3520 C   0  0  0  0  0  0  0  0  0  0  0  0
  140.8260   71.0660  227.1210 C   0  0  0  0  0  0  0  0  0  0  0  0
  140.2430   70.4220  226.0520 C   0  0  0  0  0  0  0  0  0  0  0  0
  140.1180   71.0300  224.8550 N   0  0  0  0  0  0  0  0  0  0  0  0
  139.4890   73.0590  223.4710 H   0  0  0  0  0  0  0  0  0  0  0  0
  138.9402   72.7449  220.5054 H   0  0  0  0  0  0  0  0  0  0  0  0
  138.6610   74.2259  221.5061 H   0  0  0  0  0  0  0  0  0  0  0  0
  141.2970   75.5756  218.6988 H   0  0  0  0  0  0  0  0  0  0  0  0
  139.7176   76.1993  219.1094 H   0  0  0  0  0  0  0  0  0  0  0  0
  141.2604   78.2524  219.2266 H   0  0  0  0  0  0  0  0  0  0  0  0
  143.2340   77.9970  220.0750 H   0  0  0  0  0  0  0  0  0  0  0  0
  139.7237   77.8899  221.2411 H   0  0  0  0  0  0  0  0  0  0  0  0
  141.6458   80.0542  220.3807 H   0  0  0  0  0  0  0  0  0  0  0  0
  142.6050   81.8804  221.7838 H   0  0  0  0  0  0  0  0  0  0  0  0
  142.8383   81.5155  224.2291 H   0  0  0  0  0  0  0  0  0  0  0  0
  142.1417   79.3824  225.2843 H   0  0  0  0  0  0  0  0  0  0  0  0
  141.1890   77.5896  223.8580 H   0  0  0  0  0  0  0  0  0  0  0  0
  142.0452   76.1385  222.2504 H   0  0  0  0  0  0  0  0  0  0  0  0
  140.3653   76.0159  222.7269 H   0  0  0  0  0  0  0  0  0  0  0  0
  138.6093   68.6639  222.9911 H   0  0  0  0  0  0  0  0  0  0  0  0
  138.8128   67.4720  225.1927 H   0  0  0  0  0  0  0  0  0  0  0  0
  139.5205   67.4663  227.5193 H   0  0  0  0  0  0  0  0  0  0  0  0
  140.5615   68.6256  229.4241 H   0  0  0  0  0  0  0  0  0  0  0  0
  141.4211   70.9643  229.2064 H   0  0  0  0  0  0  0  0  0  0  0  0
  141.1959   72.0939  226.9924 H   0  0  0  0  0  0  0  0  0  0  0  0
  1  2  2  0
  2  3  1  0
  3  4  1  0
  4  5  1  0
  5  6  2  0
  5  7  1  0
  7  8  1  0
  8  9  1  0
  9 10  1  0
  9 11  1  0
 11 12  1  0
 12 13  2  0
 13 14  1  0
 14 15  2  0
 15 16  1  0
 16 17  2  0
 11 18  1  0
  2 19  1  0
 19 20  2  0
 20 21  1  0
 21 22  2  0
 22 23  1  0
 23 24  2  0
 24 25  1  0
 25 26  2  0
 26 27  1  0
 27 28  2  0
 18  7  1  0
 28 19  1  0
 17 12  1  0
 27 22  1  0
  3 29  1  0
  4 30  1  0
  4 31  1  0
  8 32  1  0
  8 33  1  0
  9 34  1  6
 10 35  1  0
 11 36  1  6
 13 37  1  0
 14 38  1  0
 15 39  1  0
 16 40  1  0
 17 41  1  0
 18 42  1  0
 18 43  1  0
 20 44  1  0
 21 45  1  0
 23 46  1  0
 24 47  1  0
 25 48  1  0
 26 49  1  0
M  END
>  <smiles>  (21) 
O=C(NCC(=O)N1C[C@H](O)[C@H](c2ccccc2)C1)c1ccc2ccccc2n1

>  <score_type>  (21) 
oracle

>  <origin>  (21) 
autodockgpu

>  <m_score__min__energy>  (21) 
-9.0199999999999996

>  <m_primary>  (21) 
energy

>  <rmsd>  (21) 
2.618693346428081

>  <m_score__min__rmsd>  (21) 
2.618693346428081

>  <meeko>  (21) 
{"free_energy": -8.85, "intermolecular_energy": -10.64, "internal_energy": -1.27, "cluster_size": 18, "cluster_id": 2, "rank_in_cluster": 8}

>  <energy>  (21) 
-7.81

>  <cluster_rmsd>  (21) 
1.37

>  <cluster>  (21) 
1

$$$$

     RDKit          3D

 49 52  0  0  0  0  0  0  0  0999 V2000
  137.5450   76.1660  222.4520 O   0  0  0  0  0  0  0  0  0  0  0  0
  138.7960   76.3810  222.3160 C   0  0  0  0  0  0  0  0  0  0  0  0
  139.6480   75.3790  221.7800 N   0  0  0  0  0  0  0  0  0  0  0  0
  139.1690   74.0850  221.3640 C   0  0  0  0  0  0  0  0  0  0  0  0
  140.1870   73.0200  221.6340 C   0  0  0  0  0  0  0  0  0  0  0  0
  141.3150   73.1090  221.0840 O   0  0  0  0  0  0  0  0  0  0  0  0
  139.8190   71.9580  222.5040 N   0  0  0  0  0  0  0  0  0  0  0  0
  138.8250   70.9240  222.2830 C   0  0  0  0  0  0  0  0  0  0  0  0
  138.5620   70.4210  223.6890 C   0  0  2  0  0  0  0  0  0  0  0  0
  137.7790   71.3860  224.3190 O   0  0  0  0  0  0  0  0  0  0  0  0
  139.9770   70.3980  224.2240 C   0  0  2  0  0  0  0  0  0  0  0  0
  140.0730   70.1220  225.6610 C   0  0  0  0  0  0  0  0  0  0  0  0
  140.3650   71.0720  226.6230 C   0  0  0  0  0  0  0  0  0  0  0  0
  140.4430   70.7500  227.9760 C   0  0  0  0  0  0  0  0  0  0  0  0
  140.2170   69.4340  228.3430 C   0  0  0  0  0  0  0  0  0  0  0  0
  139.9240   68.4510  227.4180 C   0  0  0  0  0  0  0  0  0  0  0  0
  139.8550   68.8110  226.0850 C   0  0  0  0  0  0  0  0  0  0  0  0
  140.4440   71.7720  223.8180 C   0  0  0  0  0  0  0  0  0  0  0  0
  139.3680   77.6820  222.7160 C   0  0  0  0  0  0  0  0  0  0  0  0
  138.5100   78.7010  223.0790 C   0  0  0  0  0  0  0  0  0  0  0  0
  139.0920   79.9110  223.4500 C   0  0  0  0  0  0  0  0  0  0  0  0
  140.4780   80.0670  223.4490 C   0  0  0  0  0  0  0  0  0  0  0  0
  141.0600   81.2650  223.8160 C   0  0  0  0  0  0  0  0  0  0  0  0
  142.4300   81.3890  223.8060 C   0  0  0  0  0  0  0  0  0  0  0  0
  143.2640   80.3370  223.4340 C   0  0  0  0  0  0  0  0  0  0  0  0
  142.6540   79.1510  223.0720 C   0  0  0  0  0  0  0  0  0  0  0  0
  141.2830   79.0160  223.0780 C   0  0  0  0  0  0  0  0  0  0  0  0
  140.6940   77.8560  222.7250 N   0  0  0  0  0  0  0  0  0  0  0  0
  140.6770   75.6320  221.6960 H   0  0  0  0  0  0  0  0  0  0  0  0
  138.2472   73.8489  221.9158 H   0  0  0  0  0  0  0  0  0  0  0  0
  138.9750   74.1160  220.2817 H   0  0  0  0  0  0  0  0  0  0  0  0
  137.9120   71.3394  221.8315 H   0  0  0  0  0  0  0  0  0  0  0  0
  139.1554   70.1372  221.5889 H   0  0  0  0  0  0  0  0  0  0  0  0
  138.0409   69.4592  223.8048 H   0  0  0  0  0  0  0  0  0  0  0  0
  137.9440   72.2550  223.8900 H   0  0  0  0  0  0  0  0  0  0  0  0
  140.5970   69.5799  223.8288 H   0  0  0  0  0  0  0  0  0  0  0  0
  140.5407   72.1119  226.3105 H   0  0  0  0  0  0  0  0  0  0  0  0
  140.6767   71.5169  228.7291 H   0  0  0  0  0  0  0  0  0  0  0  0
  140.2727   69.1622  229.4074 H   0  0  0  0  0  0  0  0  0  0  0  0
  139.7505   67.4114  227.7330 H   0  0  0  0  0  0  0  0  0  0  0  0
  139.6211   68.0402  225.3359 H   0  0  0  0  0  0  0  0  0  0  0  0
  140.0980   72.5341  224.5318 H   0  0  0  0  0  0  0  0  0  0  0  0
  141.5395   71.8681  223.7945 H   0  0  0  0  0  0  0  0  0  0  0  0
  137.4186   78.5639  223.0754 H   0  0  0  0  0  0  0  0  0  0  0  0
  138.4506   80.7538  223.7474 H   0  0  0  0  0  0  0  0  0  0  0  0
  140.4306   82.1161  224.1149 H   0  0  0  0  0  0  0  0  0  0  0  0
  142.8807   82.3482  224.1008 H   0  0  0  0  0  0  0  0  0  0  0  0
  144.3586   80.4455  223.4287 H   0  0  0  0  0  0  0  0  0  0  0  0
  143.2772   78.2955  222.7723 H   0  0  0  0  0  0  0  0  0  0  0  0
  1  2  2  0
  2  3  1  0
  3  4  1  0
  4  5  1  0
  5  6  2  0
  5  7  1  0
  7  8  1  0
  8  9  1  0
  9 10  1  0
  9 11  1  0
 11 12  1  0
 12 13  2  0
 13 14  1  0
 14 15  2  0
 15 16  1  0
 16 17  2  0
 11 18  1  0
  2 19  1  0
 19 20  2  0
 20 21  1  0
 21 22  2  0
 22 23  1  0
 23 24  2  0
 24 25  1  0
 25 26  2  0
 26 27  1  0
 27 28  2  0
 18  7  1  0
 28 19  1  0
 17 12  1  0
 27 22  1  0
  3 29  1  0
  4 30  1  0
  4 31  1  0
  8 32  1  0
  8 33  1  0
  9 34  1  6
 10 35  1  0
 11 36  1  6
 13 37  1  0
 14 38  1  0
 15 39  1  0
 16 40  1  0
 17 41  1  0
 18 42  1  0
 18 43  1  0
 20 44  1  0
 21 45  1  0
 23 46  1  0
 24 47  1  0
 25 48  1  0
 26 49  1  0
M  END
>  <smiles>  (22) 
O=C(NCC(=O)N1C[C@H](O)[C@H](c2ccccc2)C1)c1ccc2ccccc2n1

>  <score_type>  (22) 
oracle

>  <origin>  (22) 
autodockgpu

>  <m_score__min__energy>  (22) 
-9.0199999999999996

>  <m_primary>  (22) 
energy

>  <rmsd>  (22) 
8.626313149422327

>  <m_score__min__rmsd>  (22) 
8.626313149422327

>  <meeko>  (22) 
{"free_energy": -8.75, "intermolecular_energy": -10.54, "internal_energy": -1.55, "cluster_size": 21, "cluster_id": 1, "rank_in_cluster": 8}

>  <energy>  (22) 
-9.01

>  <cluster_rmsd>  (22) 
0.0

>  <cluster>  (22) 
2

$$$$

     RDKit          3D

 49 52  0  0  0  0  0  0  0  0999 V2000
  136.8840   76.1790  221.8190 O   0  0  0  0  0  0  0  0  0  0  0  0
  136.8660   75.1230  222.5380 C   0  0  0  0  0  0  0  0  0  0  0  0
  137.8350   74.1010  222.3480 N   0  0  0  0  0  0  0  0  0  0  0  0
  138.8760   74.1850  221.3550 C   0  0  0  0  0  0  0  0  0  0  0  0
  139.8950   73.1050  221.5480 C   0  0  0  0  0  0  0  0  0  0  0  0
  140.9700   73.1640  220.8960 O   0  0  0  0  0  0  0  0  0  0  0  0
  139.5880   72.0630  222.4660 N   0  0  0  0  0  0  0  0  0  0  0  0
  138.5650   71.0420  222.3500 C   0  0  0  0  0  0  0  0  0  0  0  0
  138.4170   70.5660  223.7820 C   0  0  2  0  0  0  0  0  0  0  0  0
  137.7050   71.5530  224.4600 O   0  0  0  0  0  0  0  0  0  0  0  0
  139.8730   70.5300  224.1940 C   0  0  2  0  0  0  0  0  0  0  0  0
  140.0890   70.2770  225.6220 C   0  0  0  0  0  0  0  0  0  0  0  0
  140.4270   71.2480  226.5470 C   0  0  0  0  0  0  0  0  0  0  0  0
  140.6190   70.9470  227.8940 C   0  0  0  0  0  0  0  0  0  0  0  0
  140.4610   69.6310  228.2920 C   0  0  0  0  0  0  0  0  0  0  0  0
  140.1250   68.6270  227.4040 C   0  0  0  0  0  0  0  0  0  0  0  0
  139.9420   68.9660  226.0760 C   0  0  0  0  0  0  0  0  0  0  0  0
  140.3220   71.8910  223.7240 C   0  0  0  0  0  0  0  0  0  0  0  0
  135.8320   74.9590  223.5790 C   0  0  0  0  0  0  0  0  0  0  0  0
  135.1380   76.0730  224.0060 C   0  0  0  0  0  0  0  0  0  0  0  0
  134.1710   75.8730  224.9890 C   0  0  0  0  0  0  0  0  0  0  0  0
  133.9310   74.5990  225.5070 C   0  0  0  0  0  0  0  0  0  0  0  0
  132.9740   74.3960  226.4810 C   0  0  0  0  0  0  0  0  0  0  0  0
  132.7600   73.1290  226.9720 C   0  0  0  0  0  0  0  0  0  0  0  0
  133.4820   72.0280  226.5160 C   0  0  0  0  0  0  0  0  0  0  0  0
  134.4320   72.2620  225.5400 C   0  0  0  0  0  0  0  0  0  0  0  0
  134.6550   73.5270  225.0420 C   0  0  0  0  0  0  0  0  0  0  0  0
  135.5840   73.7490  224.0900 N   0  0  0  0  0  0  0  0  0  0  0  0
  137.7560   73.2540  222.9840 H   0  0  0  0  0  0  0  0  0  0  0  0
  138.4281   74.0816  220.3556 H   0  0  0  0  0  0  0  0  0  0  0  0
  139.3767   75.1592  221.4560 H   0  0  0  0  0  0  0  0  0  0  0  0
  137.6224   71.4642  221.9714 H   0  0  0  0  0  0  0  0  0  0  0  0
  138.8233   70.2389  221.6441 H   0  0  0  0  0  0  0  0  0  0  0  0
  137.8944   69.6144  223.9588 H   0  0  0  0  0  0  0  0  0  0  0  0
  137.3760   72.2090  223.8050 H   0  0  0  0  0  0  0  0  0  0  0  0
  140.4453   69.6957  223.7621 H   0  0  0  0  0  0  0  0  0  0  0  0
  140.5478   72.2880  226.2097 H   0  0  0  0  0  0  0  0  0  0  0  0
  140.8876   71.7305  228.6179 H   0  0  0  0  0  0  0  0  0  0  0  0
  140.6079   69.3754  229.3518 H   0  0  0  0  0  0  0  0  0  0  0  0
  140.0065   67.5876  227.7439 H   0  0  0  0  0  0  0  0  0  0  0  0
  139.6726   68.1789  225.3564 H   0  0  0  0  0  0  0  0  0  0  0  0
  140.0493   72.6703  224.4508 H   0  0  0  0  0  0  0  0  0  0  0  0
  141.4126   71.9709  223.6045 H   0  0  0  0  0  0  0  0  0  0  0  0
  135.3388   77.0713  223.5900 H   0  0  0  0  0  0  0  0  0  0  0  0
  133.5896   76.7293  225.3614 H   0  0  0  0  0  0  0  0  0  0  0  0
  132.3854   75.2433  226.8626 H   0  0  0  0  0  0  0  0  0  0  0  0
  131.9953   72.9804  227.7486 H   0  0  0  0  0  0  0  0  0  0  0  0
  133.3039   71.0184  226.9148 H   0  0  0  0  0  0  0  0  0  0  0  0
  135.0233   71.4194  225.1521 H   0  0  0  0  0  0  0  0  0  0  0  0
  1  2  2  0
  2  3  1  0
  3  4  1  0
  4  5  1  0
  5  6  2  0
  5  7  1  0
  7  8  1  0
  8  9  1  0
  9 10  1  0
  9 11  1  0
 11 12  1  0
 12 13  2  0
 13 14  1  0
 14 15  2  0
 15 16  1  0
 16 17  2  0
 11 18  1  0
  2 19  1  0
 19 20  2  0
 20 21  1  0
 21 22  2  0
 22 23  1  0
 23 24  2  0
 24 25  1  0
 25 26  2  0
 26 27  1  0
 27 28  2  0
 18  7  1  0
 28 19  1  0
 17 12  1  0
 27 22  1  0
  3 29  1  0
  4 30  1  0
  4 31  1  0
  8 32  1  0
  8 33  1  0
  9 34  1  6
 10 35  1  0
 11 36  1  6
 13 37  1  0
 14 38  1  0
 15 39  1  0
 16 40  1  0
 17 41  1  0
 18 42  1  0
 18 43  1  0
 20 44  1  0
 21 45  1  0
 23 46  1  0
 24 47  1  0
 25 48  1  0
 26 49  1  0
M  END
>  <smiles>  (23) 
O=C(NCC(=O)N1C[C@H](O)[C@H](c2ccccc2)C1)c1ccc2ccccc2n1

>  <score_type>  (23) 
oracle

>  <origin>  (23) 
autodockgpu

>  <m_score__min__energy>  (23) 
-9.0199999999999996

>  <m_primary>  (23) 
energy

>  <rmsd>  (23) 
7.23670669096074

>  <m_score__min__rmsd>  (23) 
7.23670669096074

>  <meeko>  (23) 
{"free_energy": -7.24, "intermolecular_energy": -9.03, "internal_energy": -2.73, "cluster_size": 9, "cluster_id": 3, "rank_in_cluster": 9}

>  <energy>  (23) 
-9.01

>  <cluster_rmsd>  (23) 
0.16

>  <cluster>  (23) 
2

$$$$

     RDKit          3D

 49 52  0  0  0  0  0  0  0  0999 V2000
  139.5330   74.5050  222.7200 O   0  0  0  0  0  0  0  0  0  0  0  0
  139.7510   75.4210  221.8570 C   0  0  0  0  0  0  0  0  0  0  0  0
  139.8620   75.1040  220.4770 N   0  0  0  0  0  0  0  0  0  0  0  0
  139.7380   73.7600  219.9710 C   0  0  0  0  0  0  0  0  0  0  0  0
  140.7000   72.8360  220.6530 C   0  0  0  0  0  0  0  0  0  0  0  0
  141.9120   72.8680  220.3160 O   0  0  0  0  0  0  0  0  0  0  0  0
  140.1850   71.9650  221.6520 N   0  0  0  0  0  0  0  0  0  0  0  0
  139.0860   71.0250  221.5400 C   0  0  0  0  0  0  0  0  0  0  0  0
  138.7240   70.7730  222.9900 C   0  0  2  0  0  0  0  0  0  0  0  0
  138.0380   71.9030  223.4330 O   0  0  0  0  0  0  0  0  0  0  0  0
  140.1090   70.6770  223.5900 C   0  0  2  0  0  0  0  0  0  0  0  0
  140.1290   70.6140  225.0540 C   0  0  0  0  0  0  0  0  0  0  0  0
  139.5560   69.6020  225.8020 C   0  0  0  0  0  0  0  0  0  0  0  0
  139.6070   69.5950  227.1950 C   0  0  0  0  0  0  0  0  0  0  0  0
  140.2570   70.6430  227.8240 C   0  0  0  0  0  0  0  0  0  0  0  0
  140.8440   71.6760  227.1190 C   0  0  0  0  0  0  0  0  0  0  0  0
  140.7710   71.6460  225.7390 C   0  0  0  0  0  0  0  0  0  0  0  0
  140.7440   71.9150  223.0070 C   0  0  0  0  0  0  0  0  0  0  0  0
  139.8890   76.8250  222.2930 C   0  0  0  0  0  0  0  0  0  0  0  0
  138.7490   77.5430  222.5880 C   0  0  0  0  0  0  0  0  0  0  0  0
  138.9250   78.8640  222.9950 C   0  0  0  0  0  0  0  0  0  0  0  0
  140.2020   79.4170  223.0940 C   0  0  0  0  0  0  0  0  0  0  0  0
  140.3830   80.7250  223.4970 C   0  0  0  0  0  0  0  0  0  0  0  0
  141.6540   81.2420  223.5860 C   0  0  0  0  0  0  0  0  0  0  0  0
  142.7830   80.4850  223.2800 C   0  0  0  0  0  0  0  0  0  0  0  0
  142.5710   79.1790  222.8800 C   0  0  0  0  0  0  0  0  0  0  0  0
  141.3020   78.6510  222.7870 C   0  0  0  0  0  0  0  0  0  0  0  0
  141.1030   77.3760  222.3960 N   0  0  0  0  0  0  0  0  0  0  0  0
  140.0420   75.9190  219.8200 H   0  0  0  0  0  0  0  0  0  0  0  0
  138.7122   73.4035  220.1458 H   0  0  0  0  0  0  0  0  0  0  0  0
  139.9659   73.7694  218.8949 H   0  0  0  0  0  0  0  0  0  0  0  0
  138.2411   71.4644  220.9895 H   0  0  0  0  0  0  0  0  0  0  0  0
  139.3447   70.1104  220.9863 H   0  0  0  0  0  0  0  0  0  0  0  0
  138.0925   69.9025  223.2209 H   0  0  0  0  0  0  0  0  0  0  0  0
  138.5270   72.7030  223.1390 H   0  0  0  0  0  0  0  0  0  0  0  0
  140.6421   69.7450  223.3509 H   0  0  0  0  0  0  0  0  0  0  0  0
  139.0448   68.7781  225.2825 H   0  0  0  0  0  0  0  0  0  0  0  0
  139.1455   68.7828  227.7758 H   0  0  0  0  0  0  0  0  0  0  0  0
  140.3079   70.6536  228.9228 H   0  0  0  0  0  0  0  0  0  0  0  0
  141.3547   72.4987  227.6409 H   0  0  0  0  0  0  0  0  0  0  0  0
  141.2334   72.4611  225.1630 H   0  0  0  0  0  0  0  0  0  0  0  0
  140.4664   72.8103  223.5826 H   0  0  0  0  0  0  0  0  0  0  0  0
  141.8435   71.8865  223.0218 H   0  0  0  0  0  0  0  0  0  0  0  0
  137.7481   77.0941  222.5059 H   0  0  0  0  0  0  0  0  0  0  0  0
  138.0464   79.4783  223.2412 H   0  0  0  0  0  0  0  0  0  0  0  0
  139.5136   81.3513  223.7460 H   0  0  0  0  0  0  0  0  0  0  0  0
  141.7835   82.2856  223.9088 H   0  0  0  0  0  0  0  0  0  0  0  0
  143.7961   80.9071  223.3533 H   0  0  0  0  0  0  0  0  0  0  0  0
  143.4356   78.5466  222.6301 H   0  0  0  0  0  0  0  0  0  0  0  0
  1  2  2  0
  2  3  1  0
  3  4  1  0
  4  5  1  0
  5  6  2  0
  5  7  1  0
  7  8  1  0
  8  9  1  0
  9 10  1  0
  9 11  1  0
 11 12  1  0
 12 13  2  0
 13 14  1  0
 14 15  2  0
 15 16  1  0
 16 17  2  0
 11 18  1  0
  2 19  1  0
 19 20  2  0
 20 21  1  0
 21 22  2  0
 22 23  1  0
 23 24  2  0
 24 25  1  0
 25 26  2  0
 26 27  1  0
 27 28  2  0
 18  7  1  0
 28 19  1  0
 17 12  1  0
 27 22  1  0
  3 29  1  0
  4 30  1  0
  4 31  1  0
  8 32  1  0
  8 33  1  0
  9 34  1  6
 10 35  1  0
 11 36  1  6
 13 37  1  0
 14 38  1  0
 15 39  1  0
 16 40  1  0
 17 41  1  0
 18 42  1  0
 18 43  1  0
 20 44  1  0
 21 45  1  0
 23 46  1  0
 24 47  1  0
 25 48  1  0
 26 49  1  0
M  END
>  <smiles>  (24) 
O=C(NCC(=O)N1C[C@H](O)[C@H](c2ccccc2)C1)c1ccc2ccccc2n1

>  <score_type>  (24) 
oracle

>  <origin>  (24) 
autodockgpu

>  <m_score__min__energy>  (24) 
-9.0199999999999996

>  <m_primary>  (24) 
energy

>  <rmsd>  (24) 
8.272978373134423

>  <m_score__min__rmsd>  (24) 
8.272978373134423

>  <meeko>  (24) 
{"free_energy": -8.33, "intermolecular_energy": -10.12, "internal_energy": -1.99, "cluster_size": 21, "cluster_id": 1, "rank_in_cluster": 19}

>  <energy>  (24) 
-8.96

>  <cluster_rmsd>  (24) 
0.54

>  <cluster>  (24) 
2

$$$$

     RDKit          3D

 49 52  0  0  0  0  0  0  0  0999 V2000
  137.7990   75.8710  222.5690 O   0  0  0  0  0  0  0  0  0  0  0  0
  138.9980   76.2300  222.3130 C   0  0  0  0  0  0  0  0  0  0  0  0
  139.8890   75.3530  221.6380 N   0  0  0  0  0  0  0  0  0  0  0  0
  139.5080   74.0320  221.2060 C   0  0  0  0  0  0  0  0  0  0  0  0
  140.5140   73.0110  221.6400 C   0  0  0  0  0  0  0  0  0  0  0  0
  141.6970   73.1150  221.2240 O   0  0  0  0  0  0  0  0  0  0  0  0
  140.0730   71.9730  222.5040 N   0  0  0  0  0  0  0  0  0  0  0  0
  139.0400   70.9840  222.2600 C   0  0  0  0  0  0  0  0  0  0  0  0
  138.7140   70.5020  223.6600 C   0  0  2  0  0  0  0  0  0  0  0  0
  137.9570   71.5060  224.2620 O   0  0  0  0  0  0  0  0  0  0  0  0
  140.1100   70.4190  224.2370 C   0  0  2  0  0  0  0  0  0  0  0  0
  140.1520   70.1480  225.6770 C   0  0  0  0  0  0  0  0  0  0  0  0
  140.3780   71.1070  226.6470 C   0  0  0  0  0  0  0  0  0  0  0  0
  140.4060   70.7900  228.0040 C   0  0  0  0  0  0  0  0  0  0  0  0
  140.1990   69.4700  228.3650 C   0  0  0  0  0  0  0  0  0  0  0  0
  139.9710   68.4770  227.4310 C   0  0  0  0  0  0  0  0  0  0  0  0
  139.9500   68.8330  226.0950 C   0  0  0  0  0  0  0  0  0  0  0  0
  140.6510   71.7680  223.8360 C   0  0  0  0  0  0  0  0  0  0  0  0
  139.4680   77.5690  222.7210 C   0  0  0  0  0  0  0  0  0  0  0  0
  138.5340   78.5180  223.0860 C   0  0  0  0  0  0  0  0  0  0  0  0
  139.0210   79.7670  223.4640 C   0  0  0  0  0  0  0  0  0  0  0  0
  140.3920   80.0290  223.4680 C   0  0  0  0  0  0  0  0  0  0  0  0
  140.8790   81.2650  223.8420 C   0  0  0  0  0  0  0  0  0  0  0  0
  142.2360   81.4930  223.8360 C   0  0  0  0  0  0  0  0  0  0  0  0
  143.1490   80.5100  223.4620 C   0  0  0  0  0  0  0  0  0  0  0  0
  142.6310   79.2820  223.0940 C   0  0  0  0  0  0  0  0  0  0  0  0
  141.2750   79.0430  223.0950 C   0  0  0  0  0  0  0  0  0  0  0  0
  140.7770   77.8430  222.7340 N   0  0  0  0  0  0  0  0  0  0  0  0
  140.8690   75.7230  221.4600 H   0  0  0  0  0  0  0  0  0  0  0  0
  138.5298   73.7800  221.6414 H   0  0  0  0  0  0  0  0  0  0  0  0
  139.4558   74.0255  220.1073 H   0  0  0  0  0  0  0  0  0  0  0  0
  138.1601   71.4375  221.7803 H   0  0  0  0  0  0  0  0  0  0  0  0
  139.3543   70.1787  221.5798 H   0  0  0  0  0  0  0  0  0  0  0  0
  138.1473   69.5651  223.7650 H   0  0  0  0  0  0  0  0  0  0  0  0
  138.1000   72.3450  223.7700 H   0  0  0  0  0  0  0  0  0  0  0  0
  140.7038   69.5708  223.8655 H   0  0  0  0  0  0  0  0  0  0  0  0
  140.5404   72.1504  226.3388 H   0  0  0  0  0  0  0  0  0  0  0  0
  140.5869   71.5644  228.7640 H   0  0  0  0  0  0  0  0  0  0  0  0
  140.2165   69.2020  229.4317 H   0  0  0  0  0  0  0  0  0  0  0  0
  139.8109   67.4339  227.7414 H   0  0  0  0  0  0  0  0  0  0  0  0
  139.7684   68.0551  225.3388 H   0  0  0  0  0  0  0  0  0  0  0  0
  140.3203   72.5502  224.5351 H   0  0  0  0  0  0  0  0  0  0  0  0
  141.7500   71.8137  223.8432 H   0  0  0  0  0  0  0  0  0  0  0  0
  137.4562   78.2981  223.0786 H   0  0  0  0  0  0  0  0  0  0  0  0
  138.3163   80.5569  223.7631 H   0  0  0  0  0  0  0  0  0  0  0  0
  140.1857   82.0640  224.1434 H   0  0  0  0  0  0  0  0  0  0  0  0
  142.6114   82.4825  224.1359 H   0  0  0  0  0  0  0  0  0  0  0  0
  144.2322   80.7017  223.4595 H   0  0  0  0  0  0  0  0  0  0  0  0
  143.3181   78.4773  222.7934 H   0  0  0  0  0  0  0  0  0  0  0  0
  1  2  2  0
  2  3  1  0
  3  4  1  0
  4  5  1  0
  5  6  2  0
  5  7  1  0
  7  8  1  0
  8  9  1  0
  9 10  1  0
  9 11  1  0
 11 12  1  0
 12 13  2  0
 13 14  1  0
 14 15  2  0
 15 16  1  0
 16 17  2  0
 11 18  1  0
  2 19  1  0
 19 20  2  0
 20 21  1  0
 21 22  2  0
 22 23  1  0
 23 24  2  0
 24 25  1  0
 25 26  2  0
 26 27  1  0
 27 28  2  0
 18  7  1  0
 28 19  1  0
 17 12  1  0
 27 22  1  0
  3 29  1  0
  4 30  1  0
  4 31  1  0
  8 32  1  0
  8 33  1  0
  9 34  1  6
 10 35  1  0
 11 36  1  6
 13 37  1  0
 14 38  1  0
 15 39  1  0
 16 40  1  0
 17 41  1  0
 18 42  1  0
 18 43  1  0
 20 44  1  0
 21 45  1  0
 23 46  1  0
 24 47  1  0
 25 48  1  0
 26 49  1  0
M  END
>  <smiles>  (25) 
O=C(NCC(=O)N1C[C@H](O)[C@H](c2ccccc2)C1)c1ccc2ccccc2n1

>  <score_type>  (25) 
oracle

>  <origin>  (25) 
autodockgpu

>  <m_score__min__energy>  (25) 
-9.0199999999999996

>  <m_primary>  (25) 
energy

>  <rmsd>  (25) 
8.603441471435932

>  <m_score__min__rmsd>  (25) 
8.603441471435932

>  <meeko>  (25) 
{"free_energy": -8.8, "intermolecular_energy": -10.59, "internal_energy": -1.52, "cluster_size": 21, "cluster_id": 1, "rank_in_cluster": 5}

>  <energy>  (25) 
-8.95

>  <cluster_rmsd>  (25) 
1.6

>  <cluster>  (25) 
2

$$$$

     RDKit          3D

 49 52  0  0  0  0  0  0  0  0999 V2000
  140.6040   73.0620  222.6020 O   0  0  0  0  0  0  0  0  0  0  0  0
  139.7810   72.1960  223.0560 C   0  0  0  0  0  0  0  0  0  0  0  0
  138.5190   72.0020  222.4330 N   0  0  0  0  0  0  0  0  0  0  0  0
  138.0930   72.7500  221.2770 C   0  0  0  0  0  0  0  0  0  0  0  0
  137.9150   74.2000  221.6080 C   0  0  0  0  0  0  0  0  0  0  0  0
  136.8560   74.5630  222.1810 O   0  0  0  0  0  0  0  0  0  0  0  0
  138.9620   75.0930  221.2520 N   0  0  0  0  0  0  0  0  0  0  0  0
  139.9230   74.9610  220.1730 C   0  0  0  0  0  0  0  0  0  0  0  0
  141.0190   75.9210  220.5940 C   0  0  2  0  0  0  0  0  0  0  0  0
  141.7190   75.3000  221.6260 O   0  0  0  0  0  0  0  0  0  0  0  0
  140.1750   77.0740  221.0920 C   0  0  2  0  0  0  0  0  0  0  0  0
  140.9370   78.1340  221.7590 C   0  0  0  0  0  0  0  0  0  0  0  0
  141.4970   79.2200  221.1120 C   0  0  0  0  0  0  0  0  0  0  0  0
  142.2110   80.2000  221.8000 C   0  0  0  0  0  0  0  0  0  0  0  0
  142.3500   80.0580  223.1700 C   0  0  0  0  0  0  0  0  0  0  0  0
  141.8090   78.9890  223.8590 C   0  0  0  0  0  0  0  0  0  0  0  0
  141.1070   78.0390  223.1400 C   0  0  0  0  0  0  0  0  0  0  0  0
  139.2100   76.3380  221.9870 C   0  0  0  0  0  0  0  0  0  0  0  0
  140.1400   71.3870  224.2370 C   0  0  0  0  0  0  0  0  0  0  0  0
  141.0680   71.8880  225.1280 C   0  0  0  0  0  0  0  0  0  0  0  0
  141.3770   71.0920  226.2280 C   0  0  0  0  0  0  0  0  0  0  0  0
  140.7680   69.8490  226.4050 C   0  0  0  0  0  0  0  0  0  0  0  0
  141.0710   69.0570  227.4940 C   0  0  0  0  0  0  0  0  0  0  0  0
  140.4530   67.8370  227.6420 C   0  0  0  0  0  0  0  0  0  0  0  0
  139.5200   67.3640  226.7220 C   0  0  0  0  0  0  0  0  0  0  0  0
  139.2370   68.1790  225.6430 C   0  0  0  0  0  0  0  0  0  0  0  0
  139.8500   69.4030  225.4840 C   0  0  0  0  0  0  0  0  0  0  0  0
  139.5680   70.1930  224.4290 N   0  0  0  0  0  0  0  0  0  0  0  0
  137.8890   71.2640  222.8670 H   0  0  0  0  0  0  0  0  0  0  0  0
  138.8517   72.6525  220.4865 H   0  0  0  0  0  0  0  0  0  0  0  0
  137.1269   72.3481  220.9376 H   0  0  0  0  0  0  0  0  0  0  0  0
  140.3021   73.9309  220.1015 H   0  0  0  0  0  0  0  0  0  0  0  0
  139.5028   75.1815  219.1807 H   0  0  0  0  0  0  0  0  0  0  0  0
  141.7601   76.2228  219.8392 H   0  0  0  0  0  0  0  0  0  0  0  0
  141.2280   74.4930  221.8990 H   0  0  0  0  0  0  0  0  0  0  0  0
  139.6904   77.6576  220.2954 H   0  0  0  0  0  0  0  0  0  0  0  0
  141.3756   79.3135  220.0227 H   0  0  0  0  0  0  0  0  0  0  0  0
  142.6500   81.0588  221.2711 H   0  0  0  0  0  0  0  0  0  0  0  0
  142.9101   80.8219  223.7292 H   0  0  0  0  0  0  0  0  0  0  0  0
  141.9333   78.8965  224.9480 H   0  0  0  0  0  0  0  0  0  0  0  0
  140.6694   77.1824  223.6735 H   0  0  0  0  0  0  0  0  0  0  0  0
  139.6596   76.1339  222.9700 H   0  0  0  0  0  0  0  0  0  0  0  0
  138.2926   76.9077  222.1966 H   0  0  0  0  0  0  0  0  0  0  0  0
  141.5409   72.8695  224.9762 H   0  0  0  0  0  0  0  0  0  0  0  0
  142.1104   71.4475  226.9667 H   0  0  0  0  0  0  0  0  0  0  0  0
  141.8031   69.3997  228.2400 H   0  0  0  0  0  0  0  0  0  0  0  0
  140.7034   67.2153  228.5143 H   0  0  0  0  0  0  0  0  0  0  0  0
  139.0312   66.3868  226.8488 H   0  0  0  0  0  0  0  0  0  0  0  0
  138.5054   67.8432  224.8934 H   0  0  0  0  0  0  0  0  0  0  0  0
  1  2  2  0
  2  3  1  0
  3  4  1  0
  4  5  1  0
  5  6  2  0
  5  7  1  0
  7  8  1  0
  8  9  1  0
  9 10  1  0
  9 11  1  0
 11 12  1  0
 12 13  2  0
 13 14  1  0
 14 15  2  0
 15 16  1  0
 16 17  2  0
 11 18  1  0
  2 19  1  0
 19 20  2  0
 20 21  1  0
 21 22  2  0
 22 23  1  0
 23 24  2  0
 24 25  1  0
 25 26  2  0
 26 27  1  0
 27 28  2  0
 18  7  1  0
 28 19  1  0
 17 12  1  0
 27 22  1  0
  3 29  1  0
  4 30  1  0
  4 31  1  0
  8 32  1  0
  8 33  1  0
  9 34  1  6
 10 35  1  0
 11 36  1  6
 13 37  1  0
 14 38  1  0
 15 39  1  0
 16 40  1  0
 17 41  1  0
 18 42  1  0
 18 43  1  0
 20 44  1  0
 21 45  1  0
 23 46  1  0
 24 47  1  0
 25 48  1  0
 26 49  1  0
M  END
>  <smiles>  (26) 
O=C(NCC(=O)N1C[C@H](O)[C@H](c2ccccc2)C1)c1ccc2ccccc2n1

>  <score_type>  (26) 
oracle

>  <origin>  (26) 
autodockgpu

>  <m_score__min__energy>  (26) 
-9.0199999999999996

>  <m_primary>  (26) 
energy

>  <rmsd>  (26) 
3.5122360336067344

>  <m_score__min__rmsd>  (26) 
3.5122360336067344

>  <meeko>  (26) 
{"free_energy": -7.86, "intermolecular_energy": -9.65, "internal_energy": -2.32, "cluster_size": 18, "cluster_id": 2, "rank_in_cluster": 18}

>  <energy>  (26) 
-8.93

>  <cluster_rmsd>  (26) 
0.86

>  <cluster>  (26) 
2

$$$$

     RDKit          3D

 49 52  0  0  0  0  0  0  0  0999 V2000
  135.9480   72.0000  222.8070 O   0  0  0  0  0  0  0  0  0  0  0  0
  136.1510   73.1980  223.2000 C   0  0  0  0  0  0  0  0  0  0  0  0
  137.1910   73.9810  222.6300 N   0  0  0  0  0  0  0  0  0  0  0  0
  138.0640   73.4870  221.5960 C   0  0  0  0  0  0  0  0  0  0  0  0
  139.3770   73.0430  222.1650 C   0  0  0  0  0  0  0  0  0  0  0  0
  140.3900   73.7680  221.9830 O   0  0  0  0  0  0  0  0  0  0  0  0
  139.4060   71.8180  222.8840 N   0  0  0  0  0  0  0  0  0  0  0  0
  138.7790   70.5580  222.5310 C   0  0  0  0  0  0  0  0  0  0  0  0
  138.7590   69.8230  223.8570 C   0  0  2  0  0  0  0  0  0  0  0  0
  137.7430   70.3990  224.6180 O   0  0  0  0  0  0  0  0  0  0  0  0
  140.1340   70.1850  224.3750 C   0  0  2  0  0  0  0  0  0  0  0  0
  140.3830   69.7740  225.7590 C   0  0  0  0  0  0  0  0  0  0  0  0
  140.3740   68.4630  226.2010 C   0  0  0  0  0  0  0  0  0  0  0  0
  140.6200   68.1320  227.5320 C   0  0  0  0  0  0  0  0  0  0  0  0
  140.8780   69.1630  228.4190 C   0  0  0  0  0  0  0  0  0  0  0  0
  140.8970   70.4870  228.0240 C   0  0  0  0  0  0  0  0  0  0  0  0
  140.6490   70.7740  226.6940 C   0  0  0  0  0  0  0  0  0  0  0  0
  140.1230   71.6770  224.1560 C   0  0  0  0  0  0  0  0  0  0  0  0
  135.2990   73.7810  224.2560 C   0  0  0  0  0  0  0  0  0  0  0  0
  135.4240   75.1250  224.5430 C   0  0  0  0  0  0  0  0  0  0  0  0
  134.6010   75.6330  225.5460 C   0  0  0  0  0  0  0  0  0  0  0  0
  133.6990   74.8070  226.2170 C   0  0  0  0  0  0  0  0  0  0  0  0
  132.8810   75.3060  227.2120 C   0  0  0  0  0  0  0  0  0  0  0  0
  132.0010   74.4670  227.8550 C   0  0  0  0  0  0  0  0  0  0  0  0
  131.9030   73.1140  227.5370 C   0  0  0  0  0  0  0  0  0  0  0  0
  132.7330   72.6440  226.5370 C   0  0  0  0  0  0  0  0  0  0  0  0
  133.6190   73.4750  225.8870 C   0  0  0  0  0  0  0  0  0  0  0  0
  134.4260   73.0100  224.9120 N   0  0  0  0  0  0  0  0  0  0  0  0
  137.2970   74.9680  223.0080 H   0  0  0  0  0  0  0  0  0  0  0  0
  137.5821   72.6337  221.0963 H   0  0  0  0  0  0  0  0  0  0  0  0
  138.2510   74.2999  220.8789 H   0  0  0  0  0  0  0  0  0  0  0  0
  137.7601   70.7141  222.1469 H   0  0  0  0  0  0  0  0  0  0  0  0
  139.3053   70.0128  221.7336 H   0  0  0  0  0  0  0  0  0  0  0  0
  138.5750   68.7386  223.8439 H   0  0  0  0  0  0  0  0  0  0  0  0
  137.4260   71.2080  224.1580 H   0  0  0  0  0  0  0  0  0  0  0  0
  140.9604   69.6648  223.8686 H   0  0  0  0  0  0  0  0  0  0  0  0
  140.1665   67.6582  225.4804 H   0  0  0  0  0  0  0  0  0  0  0  0
  140.6095   67.0844  227.8673 H   0  0  0  0  0  0  0  0  0  0  0  0
  141.0745   68.9201  229.4737 H   0  0  0  0  0  0  0  0  0  0  0  0
  141.1035   71.2900  228.7469 H   0  0  0  0  0  0  0  0  0  0  0  0
  140.6620   71.8231  226.3635 H   0  0  0  0  0  0  0  0  0  0  0  0
  139.5907   72.1921  224.9692 H   0  0  0  0  0  0  0  0  0  0  0  0
  141.1296   72.1201  224.1379 H   0  0  0  0  0  0  0  0  0  0  0  0
  136.1393   75.7648  224.0055 H   0  0  0  0  0  0  0  0  0  0  0  0
  134.6633   76.6985  225.8120 H   0  0  0  0  0  0  0  0  0  0  0  0
  132.9331   76.3693  227.4888 H   0  0  0  0  0  0  0  0  0  0  0  0
  131.3545   74.8769  228.6449 H   0  0  0  0  0  0  0  0  0  0  0  0
  131.1973   72.4503  228.0581 H   0  0  0  0  0  0  0  0  0  0  0  0
  132.6852   71.5822  226.2536 H   0  0  0  0  0  0  0  0  0  0  0  0
  1  2  2  0
  2  3  1  0
  3  4  1  0
  4  5  1  0
  5  6  2  0
  5  7  1  0
  7  8  1  0
  8  9  1  0
  9 10  1  0
  9 11  1  0
 11 12  1  0
 12 13  2  0
 13 14  1  0
 14 15  2  0
 15 16  1  0
 16 17  2  0
 11 18  1  0
  2 19  1  0
 19 20  2  0
 20 21  1  0
 21 22  2  0
 22 23  1  0
 23 24  2  0
 24 25  1  0
 25 26  2  0
 26 27  1  0
 27 28  2  0
 18  7  1  0
 28 19  1  0
 17 12  1  0
 27 22  1  0
  3 29  1  0
  4 30  1  0
  4 31  1  0
  8 32  1  0
  8 33  1  0
  9 34  1  6
 10 35  1  0
 11 36  1  6
 13 37  1  0
 14 38  1  0
 15 39  1  0
 16 40  1  0
 17 41  1  0
 18 42  1  0
 18 43  1  0
 20 44  1  0
 21 45  1  0
 23 46  1  0
 24 47  1  0
 25 48  1  0
 26 49  1  0
M  END
>  <smiles>  (27) 
O=C(NCC(=O)N1C[C@H](O)[C@H](c2ccccc2)C1)c1ccc2ccccc2n1

>  <score_type>  (27) 
oracle

>  <origin>  (27) 
autodockgpu

>  <m_score__min__energy>  (27) 
-9.0199999999999996

>  <m_primary>  (27) 
energy

>  <rmsd>  (27) 
7.794607350878097

>  <m_score__min__rmsd>  (27) 
7.794607350878097

>  <meeko>  (27) 
{"free_energy": -7.72, "intermolecular_energy": -9.51, "internal_energy": -2.06, "cluster_size": 9, "cluster_id": 3, "rank_in_cluster": 1}

>  <energy>  (27) 
-8.88

>  <cluster_rmsd>  (27) 
1.11

>  <cluster>  (27) 
2

$$$$

     RDKit          3D

 49 52  0  0  0  0  0  0  0  0999 V2000
  137.7720   75.8660  222.5720 O   0  0  0  0  0  0  0  0  0  0  0  0
  138.9710   76.2270  222.3160 C   0  0  0  0  0  0  0  0  0  0  0  0
  139.8610   75.3510  221.6400 N   0  0  0  0  0  0  0  0  0  0  0  0
  139.4810   74.0290  221.2080 C   0  0  0  0  0  0  0  0  0  0  0  0
  140.4880   73.0090  221.6440 C   0  0  0  0  0  0  0  0  0  0  0  0
  141.6720   73.1140  221.2310 O   0  0  0  0  0  0  0  0  0  0  0  0
  140.0460   71.9690  222.5070 N   0  0  0  0  0  0  0  0  0  0  0  0
  139.0130   70.9810  222.2610 C   0  0  0  0  0  0  0  0  0  0  0  0
  138.6850   70.4980  223.6600 C   0  0  2  0  0  0  0  0  0  0  0  0
  137.9290   71.5010  224.2630 O   0  0  0  0  0  0  0  0  0  0  0  0
  140.0810   70.4130  224.2380 C   0  0  2  0  0  0  0  0  0  0  0  0
  140.1220   70.1410  225.6770 C   0  0  0  0  0  0  0  0  0  0  0  0
  140.3370   71.1010  226.6500 C   0  0  0  0  0  0  0  0  0  0  0  0
  140.3650   70.7820  228.0060 C   0  0  0  0  0  0  0  0  0  0  0  0
  140.1690   69.4590  228.3650 C   0  0  0  0  0  0  0  0  0  0  0  0
  139.9520   68.4660  227.4280 C   0  0  0  0  0  0  0  0  0  0  0  0
  139.9310   68.8230  226.0930 C   0  0  0  0  0  0  0  0  0  0  0  0
  140.6230   71.7630  223.8390 C   0  0  0  0  0  0  0  0  0  0  0  0
  139.4390   77.5670  222.7230 C   0  0  0  0  0  0  0  0  0  0  0  0
  138.5040   78.5150  223.0850 C   0  0  0  0  0  0  0  0  0  0  0  0
  138.9900   79.7650  223.4620 C   0  0  0  0  0  0  0  0  0  0  0  0
  140.3610   80.0270  223.4680 C   0  0  0  0  0  0  0  0  0  0  0  0
  140.8470   81.2640  223.8410 C   0  0  0  0  0  0  0  0  0  0  0  0
  142.2040   81.4930  223.8370 C   0  0  0  0  0  0  0  0  0  0  0  0
  143.1180   80.5100  223.4650 C   0  0  0  0  0  0  0  0  0  0  0  0
  142.6010   79.2820  223.0970 C   0  0  0  0  0  0  0  0  0  0  0  0
  141.2450   79.0420  223.0970 C   0  0  0  0  0  0  0  0  0  0  0  0
  140.7480   77.8410  222.7370 N   0  0  0  0  0  0  0  0  0  0  0  0
  140.8410   75.7220  221.4610 H   0  0  0  0  0  0  0  0  0  0  0  0
  138.5025   73.7764  221.6425 H   0  0  0  0  0  0  0  0  0  0  0  0
  139.4295   74.0218  220.1092 H   0  0  0  0  0  0  0  0  0  0  0  0
  138.1340   71.4354  221.7806 H   0  0  0  0  0  0  0  0  0  0  0  0
  139.3277   70.1760  221.5806 H   0  0  0  0  0  0  0  0  0  0  0  0
  138.1168   69.5618  223.7630 H   0  0  0  0  0  0  0  0  0  0  0  0
  138.0680   72.3400  223.7690 H   0  0  0  0  0  0  0  0  0  0  0  0
  140.6741   69.5646  223.8659 H   0  0  0  0  0  0  0  0  0  0  0  0
  140.4903   72.1464  226.3441 H   0  0  0  0  0  0  0  0  0  0  0  0
  140.5374   71.5568  228.7675 H   0  0  0  0  0  0  0  0  0  0  0  0
  140.1866   69.1892  229.4313 H   0  0  0  0  0  0  0  0  0  0  0  0
  139.8003   67.4210  227.7363 H   0  0  0  0  0  0  0  0  0  0  0  0
  139.7585   68.0444  225.3354 H   0  0  0  0  0  0  0  0  0  0  0  0
  140.2918   72.5446  224.5386 H   0  0  0  0  0  0  0  0  0  0  0  0
  141.7220   71.8088  223.8473 H   0  0  0  0  0  0  0  0  0  0  0  0
  137.4264   78.2943  223.0763 H   0  0  0  0  0  0  0  0  0  0  0  0
  138.2846   80.5552  223.7586 H   0  0  0  0  0  0  0  0  0  0  0  0
  140.1527   82.0631  224.1401 H   0  0  0  0  0  0  0  0  0  0  0  0
  142.5784   82.4829  224.1369 H   0  0  0  0  0  0  0  0  0  0  0  0
  144.2011   80.7020  223.4641 H   0  0  0  0  0  0  0  0  0  0  0  0
  143.2888   78.4777  222.7971 H   0  0  0  0  0  0  0  0  0  0  0  0
  1  2  2  0
  2  3  1  0
  3  4  1  0
  4  5  1  0
  5  6  2  0
  5  7  1  0
  7  8  1  0
  8  9  1  0
  9 10  1  0
  9 11  1  0
 11 12  1  0
 12 13  2  0
 13 14  1  0
 14 15  2  0
 15 16  1  0
 16 17  2  0
 11 18  1  0
  2 19  1  0
 19 20  2  0
 20 21  1  0
 21 22  2  0
 22 23  1  0
 23 24  2  0
 24 25  1  0
 25 26  2  0
 26 27  1  0
 27 28  2  0
 18  7  1  0
 28 19  1  0
 17 12  1  0
 27 22  1  0
  3 29  1  0
  4 30  1  0
  4 31  1  0
  8 32  1  0
  8 33  1  0
  9 34  1  6
 10 35  1  0
 11 36  1  6
 13 37  1  0
 14 38  1  0
 15 39  1  0
 16 40  1  0
 17 41  1  0
 18 42  1  0
 18 43  1  0
 20 44  1  0
 21 45  1  0
 23 46  1  0
 24 47  1  0
 25 48  1  0
 26 49  1  0
M  END
>  <smiles>  (28) 
O=C(NCC(=O)N1C[C@H](O)[C@H](c2ccccc2)C1)c1ccc2ccccc2n1

>  <score_type>  (28) 
oracle

>  <origin>  (28) 
autodockgpu

>  <m_score__min__energy>  (28) 
-9.0199999999999996

>  <m_primary>  (28) 
energy

>  <rmsd>  (28) 
8.602772895609299

>  <m_score__min__rmsd>  (28) 
8.602772895609299

>  <meeko>  (28) 
{"free_energy": -8.8, "intermolecular_energy": -10.59, "internal_energy": -1.52, "cluster_size": 21, "cluster_id": 1, "rank_in_cluster": 6}

>  <energy>  (28) 
-8.88

>  <cluster_rmsd>  (28) 
0.7

>  <cluster>  (28) 
2

$$$$

     RDKit          3D

 49 52  0  0  0  0  0  0  0  0999 V2000
  140.3350   75.8900  220.4570 O   0  0  0  0  0  0  0  0  0  0  0  0
  139.8150   76.1950  221.5830 C   0  0  0  0  0  0  0  0  0  0  0  0
  138.9850   75.2690  222.2710 N   0  0  0  0  0  0  0  0  0  0  0  0
  138.6840   73.9560  221.7570 C   0  0  0  0  0  0  0  0  0  0  0  0
  139.8360   73.0200  221.9600 C   0  0  0  0  0  0  0  0  0  0  0  0
  140.9450   73.3040  221.4380 O   0  0  0  0  0  0  0  0  0  0  0  0
  139.6090   71.8520  222.7370 N   0  0  0  0  0  0  0  0  0  0  0  0
  138.7200   70.7420  222.4470 C   0  0  0  0  0  0  0  0  0  0  0  0
  138.5590   70.0910  223.8060 C   0  0  2  0  0  0  0  0  0  0  0  0
  137.7020   70.9070  224.5410 O   0  0  0  0  0  0  0  0  0  0  0  0
  139.9860   70.1710  224.3030 C   0  0  2  0  0  0  0  0  0  0  0  0
  140.1590   69.7800  225.7050 C   0  0  0  0  0  0  0  0  0  0  0  0
  140.0580   68.4830  226.1740 C   0  0  0  0  0  0  0  0  0  0  0  0
  140.2340   68.1710  227.5210 C   0  0  0  0  0  0  0  0  0  0  0  0
  140.5170   69.2070  228.3940 C   0  0  0  0  0  0  0  0  0  0  0  0
  140.6260   70.5180  227.9710 C   0  0  0  0  0  0  0  0  0  0  0  0
  140.4460   70.7860  226.6270 C   0  0  0  0  0  0  0  0  0  0  0  0
  140.2940   71.6180  224.0130 C   0  0  0  0  0  0  0  0  0  0  0  0
  140.0740   77.5200  222.1800 C   0  0  0  0  0  0  0  0  0  0  0  0
  139.0000   78.2950  222.5680 C   0  0  0  0  0  0  0  0  0  0  0  0
  139.2910   79.5380  223.1270 C   0  0  0  0  0  0  0  0  0  0  0  0
  140.6110   79.9620  223.2780 C   0  0  0  0  0  0  0  0  0  0  0  0
  140.9040   81.1930  223.8310 C   0  0  0  0  0  0  0  0  0  0  0  0
  142.2160   81.5840  223.9680 C   0  0  0  0  0  0  0  0  0  0  0  0
  143.2750   80.7730  223.5640 C   0  0  0  0  0  0  0  0  0  0  0  0
  142.9500   79.5470  223.0150 C   0  0  0  0  0  0  0  0  0  0  0  0
  141.6400   79.1460  222.8720 C   0  0  0  0  0  0  0  0  0  0  0  0
  141.3310   77.9480  222.3360 N   0  0  0  0  0  0  0  0  0  0  0  0
  138.5900   75.5940  223.2020 H   0  0  0  0  0  0  0  0  0  0  0  0
  137.8019   73.5588  222.2805 H   0  0  0  0  0  0  0  0  0  0  0  0
  138.4880   74.0398  220.6779 H   0  0  0  0  0  0  0  0  0  0  0  0
  137.7539   71.0968  222.0586 H   0  0  0  0  0  0  0  0  0  0  0  0
  139.1060   70.0595  221.6755 H   0  0  0  0  0  0  0  0  0  0  0  0
  138.1452   69.0726  223.8448 H   0  0  0  0  0  0  0  0  0  0  0  0
  137.9080   71.8460  224.3350 H   0  0  0  0  0  0  0  0  0  0  0  0
  140.6740   69.4614  223.8201 H   0  0  0  0  0  0  0  0  0  0  0  0
  139.8322   67.6742  225.4635 H   0  0  0  0  0  0  0  0  0  0  0  0
  140.1506   67.1342  227.8789 H   0  0  0  0  0  0  0  0  0  0  0  0
  140.6600   68.9791  229.4606 H   0  0  0  0  0  0  0  0  0  0  0  0
  140.8497   71.3255  228.6837 H   0  0  0  0  0  0  0  0  0  0  0  0
  140.5317   71.8243  226.2740 H   0  0  0  0  0  0  0  0  0  0  0  0
  139.8952   72.2729  224.8017 H   0  0  0  0  0  0  0  0  0  0  0  0
  141.3722   71.8318  223.9717 H   0  0  0  0  0  0  0  0  0  0  0  0
  137.9637   77.9482  222.4420 H   0  0  0  0  0  0  0  0  0  0  0  0
  138.4694   80.1927  223.4531 H   0  0  0  0  0  0  0  0  0  0  0  0
  140.0921   81.8580  224.1605 H   0  0  0  0  0  0  0  0  0  0  0  0
  142.4359   82.5670  224.4100 H   0  0  0  0  0  0  0  0  0  0  0  0
  144.3211   81.0939  223.6769 H   0  0  0  0  0  0  0  0  0  0  0  0
  143.7563   78.8757  222.6845 H   0  0  0  0  0  0  0  0  0  0  0  0
  1  2  2  0
  2  3  1  0
  3  4  1  0
  4  5  1  0
  5  6  2  0
  5  7  1  0
  7  8  1  0
  8  9  1  0
  9 10  1  0
  9 11  1  0
 11 12  1  0
 12 13  2  0
 13 14  1  0
 14 15  2  0
 15 16  1  0
 16 17  2  0
 11 18  1  0
  2 19  1  0
 19 20  2  0
 20 21  1  0
 21 22  2  0
 22 23  1  0
 23 24  2  0
 24 25  1  0
 25 26  2  0
 26 27  1  0
 27 28  2  0
 18  7  1  0
 28 19  1  0
 17 12  1  0
 27 22  1  0
  3 29  1  0
  4 30  1  0
  4 31  1  0
  8 32  1  0
  8 33  1  0
  9 34  1  6
 10 35  1  0
 11 36  1  6
 13 37  1  0
 14 38  1  0
 15 39  1  0
 16 40  1  0
 17 41  1  0
 18 42  1  0
 18 43  1  0
 20 44  1  0
 21 45  1  0
 23 46  1  0
 24 47  1  0
 25 48  1  0
 26 49  1  0
M  END
>  <smiles>  (29) 
O=C(NCC(=O)N1C[C@H](O)[C@H](c2ccccc2)C1)c1ccc2ccccc2n1

>  <score_type>  (29) 
oracle

>  <origin>  (29) 
autodockgpu

>  <m_score__min__energy>  (29) 
-9.0199999999999996

>  <m_primary>  (29) 
energy

>  <rmsd>  (29) 
8.833301045848716

>  <m_score__min__rmsd>  (29) 
8.833301045848716

>  <meeko>  (29) 
{"free_energy": -9.02, "intermolecular_energy": -10.81, "internal_energy": -1.02, "cluster_size": 21, "cluster_id": 1, "rank_in_cluster": 1}

>  <energy>  (29) 
-8.85

>  <cluster_rmsd>  (29) 
0.79

>  <cluster>  (29) 
2

$$$$

     RDKit          3D

 49 52  0  0  0  0  0  0  0  0999 V2000
  137.8000   75.8670  222.4760 O   0  0  0  0  0  0  0  0  0  0  0  0
  139.0250   76.1960  222.3230 C   0  0  0  0  0  0  0  0  0  0  0  0
  139.9560   75.2790  221.7670 N   0  0  0  0  0  0  0  0  0  0  0  0
  139.5910   73.9490  221.3480 C   0  0  0  0  0  0  0  0  0  0  0  0
  140.5700   72.9350  221.8540 C   0  0  0  0  0  0  0  0  0  0  0  0
  141.7840   73.0630  221.5490 O   0  0  0  0  0  0  0  0  0  0  0  0
  140.0690   71.8760  222.6590 N   0  0  0  0  0  0  0  0  0  0  0  0
  138.9490   70.9960  222.3830 C   0  0  0  0  0  0  0  0  0  0  0  0
  138.6260   70.4410  223.7560 C   0  0  2  0  0  0  0  0  0  0  0  0
  137.9750   71.4560  224.4540 O   0  0  0  0  0  0  0  0  0  0  0  0
  140.0270   70.2010  224.2750 C   0  0  2  0  0  0  0  0  0  0  0  0
  140.0890   69.8230  225.6900 C   0  0  0  0  0  0  0  0  0  0  0  0
  139.9050   68.5370  226.1650 C   0  0  0  0  0  0  0  0  0  0  0  0
  139.9770   68.2370  227.5240 C   0  0  0  0  0  0  0  0  0  0  0  0
  140.2420   69.2730  228.4030 C   0  0  0  0  0  0  0  0  0  0  0  0
  140.4310   70.5730  227.9750 C   0  0  0  0  0  0  0  0  0  0  0  0
  140.3530   70.8300  226.6190 C   0  0  0  0  0  0  0  0  0  0  0  0
  140.6670   71.5270  223.9520 C   0  0  0  0  0  0  0  0  0  0  0  0
  139.4810   77.5410  222.7260 C   0  0  0  0  0  0  0  0  0  0  0  0
  138.5380   78.4820  223.0850 C   0  0  0  0  0  0  0  0  0  0  0  0
  139.0130   79.7370  223.4590 C   0  0  0  0  0  0  0  0  0  0  0  0
  140.3810   80.0120  223.4630 C   0  0  0  0  0  0  0  0  0  0  0  0
  140.8560   81.2550  223.8320 C   0  0  0  0  0  0  0  0  0  0  0  0
  142.2100   81.4950  223.8270 C   0  0  0  0  0  0  0  0  0  0  0  0
  143.1330   80.5190  223.4580 C   0  0  0  0  0  0  0  0  0  0  0  0
  142.6280   79.2850  223.0940 C   0  0  0  0  0  0  0  0  0  0  0  0
  141.2730   79.0330  223.0950 C   0  0  0  0  0  0  0  0  0  0  0  0
  140.7870   77.8270  222.7390 N   0  0  0  0  0  0  0  0  0  0  0  0
  140.9560   75.6250  221.6700 H   0  0  0  0  0  0  0  0  0  0  0  0
  138.5917   73.7104  221.7410 H   0  0  0  0  0  0  0  0  0  0  0  0
  139.5927   73.9170  220.2485 H   0  0  0  0  0  0  0  0  0  0  0  0
  138.0966   71.5545  221.9688 H   0  0  0  0  0  0  0  0  0  0  0  0
  139.1731   70.2198  221.6365 H   0  0  0  0  0  0  0  0  0  0  0  0
  137.9856   69.5486  223.8150 H   0  0  0  0  0  0  0  0  0  0  0  0
  138.0130   72.2800  223.9190 H   0  0  0  0  0  0  0  0  0  0  0  0
  140.5354   69.3365  223.8231 H   0  0  0  0  0  0  0  0  0  0  0  0
  139.6959   67.7280  225.4496 H   0  0  0  0  0  0  0  0  0  0  0  0
  139.8280   67.2093  227.8868 H   0  0  0  0  0  0  0  0  0  0  0  0
  140.3042   69.0537  229.4791 H   0  0  0  0  0  0  0  0  0  0  0  0
  140.6377   71.3805  228.6928 H   0  0  0  0  0  0  0  0  0  0  0  0
  140.5036   71.8594  226.2616 H   0  0  0  0  0  0  0  0  0  0  0  0
  140.4238   72.2799  224.7161 H   0  0  0  0  0  0  0  0  0  0  0  0
  141.7657   71.4824  223.9234 H   0  0  0  0  0  0  0  0  0  0  0  0
  137.4623   78.2522  223.0763 H   0  0  0  0  0  0  0  0  0  0  0  0
  138.3006   80.5212  223.7549 H   0  0  0  0  0  0  0  0  0  0  0  0
  140.1549   82.0491  224.1284 H   0  0  0  0  0  0  0  0  0  0  0  0
  142.5759   82.4890  224.1237 H   0  0  0  0  0  0  0  0  0  0  0  0
  144.2143   80.7212  223.4564 H   0  0  0  0  0  0  0  0  0  0  0  0
  143.3232   78.4860  222.7968 H   0  0  0  0  0  0  0  0  0  0  0  0
  1  2  2  0
  2  3  1  0
  3  4  1  0
  4  5  1  0
  5  6  2  0
  5  7  1  0
  7  8  1  0
  8  9  1  0
  9 10  1  0
  9 11  1  0
 11 12  1  0
 12 13  2  0
 13 14  1  0
 14 15  2  0
 15 16  1  0
 16 17  2  0
 11 18  1  0
  2 19  1  0
 19 20  2  0
 20 21  1  0
 21 22  2  0
 22 23  1  0
 23 24  2  0
 24 25  1  0
 25 26  2  0
 26 27  1  0
 27 28  2  0
 18  7  1  0
 28 19  1  0
 17 12  1  0
 27 22  1  0
  3 29  1  0
  4 30  1  0
  4 31  1  0
  8 32  1  0
  8 33  1  0
  9 34  1  6
 10 35  1  0
 11 36  1  6
 13 37  1  0
 14 38  1  0
 15 39  1  0
 16 40  1  0
 17 41  1  0
 18 42  1  0
 18 43  1  0
 20 44  1  0
 21 45  1  0
 23 46  1  0
 24 47  1  0
 25 48  1  0
 26 49  1  0
M  END
>  <smiles>  (30) 
O=C(NCC(=O)N1C[C@H](O)[C@H](c2ccccc2)C1)c1ccc2ccccc2n1

>  <score_type>  (30) 
oracle

>  <origin>  (30) 
autodockgpu

>  <m_score__min__energy>  (30) 
-9.0199999999999996

>  <m_primary>  (30) 
energy

>  <rmsd>  (30) 
8.816342799924719

>  <m_score__min__rmsd>  (30) 
8.816342799924719

>  <meeko>  (30) 
{"free_energy": -8.82, "intermolecular_energy": -10.61, "internal_energy": -1.56, "cluster_size": 21, "cluster_id": 1, "rank_in_cluster": 4}

>  <energy>  (30) 
-8.82

>  <cluster_rmsd>  (30) 
0.88

>  <cluster>  (30) 
2

$$$$

     RDKit          3D

 49 52  0  0  0  0  0  0  0  0999 V2000
  138.6610   70.5300  221.5340 O   0  0  0  0  0  0  0  0  0  0  0  0
  138.9740   71.2320  222.5550 C   0  0  0  0  0  0  0  0  0  0  0  0
  138.9550   72.6510  222.4900 N   0  0  0  0  0  0  0  0  0  0  0  0
  138.5900   73.3750  221.2980 C   0  0  0  0  0  0  0  0  0  0  0  0
  138.1690   74.7750  221.6250 C   0  0  0  0  0  0  0  0  0  0  0  0
  137.0450   74.9600  222.1590 O   0  0  0  0  0  0  0  0  0  0  0  0
  139.0720   75.8270  221.3100 N   0  0  0  0  0  0  0  0  0  0  0  0
  139.7520   76.0770  220.0530 C   0  0  0  0  0  0  0  0  0  0  0  0
  140.8840   76.9940  220.4730 C   0  0  2  0  0  0  0  0  0  0  0  0
  141.8310   76.1940  221.1110 O   0  0  0  0  0  0  0  0  0  0  0  0
  140.1470   77.8880  221.4450 C   0  0  2  0  0  0  0  0  0  0  0  0
  141.0100   78.8040  222.1950 C   0  0  0  0  0  0  0  0  0  0  0  0
  141.3780   78.6280  223.5170 C   0  0  0  0  0  0  0  0  0  0  0  0
  142.2040   79.5340  224.1790 C   0  0  0  0  0  0  0  0  0  0  0  0
  142.6560   80.6350  223.4720 C   0  0  0  0  0  0  0  0  0  0  0  0
  142.3140   80.8530  222.1510 C   0  0  0  0  0  0  0  0  0  0  0  0
  141.4930   79.9310  221.5290 C   0  0  0  0  0  0  0  0  0  0  0  0
  139.4470   76.8530  222.2890 C   0  0  0  0  0  0  0  0  0  0  0  0
  139.3580   70.5680  223.8160 C   0  0  0  0  0  0  0  0  0  0  0  0
  139.1970   69.2010  223.9220 C   0  0  0  0  0  0  0  0  0  0  0  0
  139.5730   68.6150  225.1290 C   0  0  0  0  0  0  0  0  0  0  0  0
  140.0860   69.3890  226.1690 C   0  0  0  0  0  0  0  0  0  0  0  0
  140.4600   68.8140  227.3670 C   0  0  0  0  0  0  0  0  0  0  0  0
  140.9640   69.6030  228.3750 C   0  0  0  0  0  0  0  0  0  0  0  0
  141.1140   70.9800  228.2310 C   0  0  0  0  0  0  0  0  0  0  0  0
  140.7310   71.5280  227.0210 C   0  0  0  0  0  0  0  0  0  0  0  0
  140.2250   70.7470  226.0050 C   0  0  0  0  0  0  0  0  0  0  0  0
  139.8540   71.2880  224.8270 N   0  0  0  0  0  0  0  0  0  0  0  0
  139.2260   73.1660  223.3790 H   0  0  0  0  0  0  0  0  0  0  0  0
  139.4551   73.4092  220.6194 H   0  0  0  0  0  0  0  0  0  0  0  0
  137.7443   72.8584  220.8206 H   0  0  0  0  0  0  0  0  0  0  0  0
  140.1369   75.1437  219.6161 H   0  0  0  0  0  0  0  0  0  0  0  0
  139.1006   76.5085  219.2787 H   0  0  0  0  0  0  0  0  0  0  0  0
  141.4130   77.5542  219.6879 H   0  0  0  0  0  0  0  0  0  0  0  0
  142.1770   76.6800  221.8920 H   0  0  0  0  0  0  0  0  0  0  0  0
  139.4683   78.6113  220.9694 H   0  0  0  0  0  0  0  0  0  0  0  0
  141.0076   77.7469  224.0615 H   0  0  0  0  0  0  0  0  0  0  0  0
  142.4880   79.3793  225.2304 H   0  0  0  0  0  0  0  0  0  0  0  0
  143.3093   81.3606  223.9787 H   0  0  0  0  0  0  0  0  0  0  0  0
  142.6848   81.7357  221.6094 H   0  0  0  0  0  0  0  0  0  0  0  0
  141.2121   80.0906  220.4775 H   0  0  0  0  0  0  0  0  0  0  0  0
  140.1238   76.4421  223.0526 H   0  0  0  0  0  0  0  0  0  0  0  0
  138.5877   77.2562  222.8449 H   0  0  0  0  0  0  0  0  0  0  0  0
  138.7911   68.6027  223.0929 H   0  0  0  0  0  0  0  0  0  0  0  0
  139.4638   67.5287  225.2629 H   0  0  0  0  0  0  0  0  0  0  0  0
  140.3554   67.7290  227.5151 H   0  0  0  0  0  0  0  0  0  0  0  0
  141.2577   69.1314  229.3244 H   0  0  0  0  0  0  0  0  0  0  0  0
  141.5185   71.6028  229.0425 H   0  0  0  0  0  0  0  0  0  0  0  0
  140.8325   72.6123  226.8658 H   0  0  0  0  0  0  0  0  0  0  0  0
  1  2  2  0
  2  3  1  0
  3  4  1  0
  4  5  1  0
  5  6  2  0
  5  7  1  0
  7  8  1  0
  8  9  1  0
  9 10  1  0
  9 11  1  0
 11 12  1  0
 12 13  2  0
 13 14  1  0
 14 15  2  0
 15 16  1  0
 16 17  2  0
 11 18  1  0
  2 19  1  0
 19 20  2  0
 20 21  1  0
 21 22  2  0
 22 23  1  0
 23 24  2  0
 24 25  1  0
 25 26  2  0
 26 27  1  0
 27 28  2  0
 18  7  1  0
 28 19  1  0
 17 12  1  0
 27 22  1  0
  3 29  1  0
  4 30  1  0
  4 31  1  0
  8 32  1  0
  8 33  1  0
  9 34  1  6
 10 35  1  0
 11 36  1  6
 13 37  1  0
 14 38  1  0
 15 39  1  0
 16 40  1  0
 17 41  1  0
 18 42  1  0
 18 43  1  0
 20 44  1  0
 21 45  1  0
 23 46  1  0
 24 47  1  0
 25 48  1  0
 26 49  1  0
M  END
>  <smiles>  (31) 
O=C(NCC(=O)N1C[C@H](O)[C@H](c2ccccc2)C1)c1ccc2ccccc2n1

>  <score_type>  (31) 
oracle

>  <origin>  (31) 
autodockgpu

>  <m_score__min__energy>  (31) 
-9.0199999999999996

>  <m_primary>  (31) 
energy

>  <rmsd>  (31) 
2.8579233241116087

>  <m_score__min__rmsd>  (31) 
2.8579233241116087

>  <meeko>  (31) 
{"free_energy": -8.68, "intermolecular_energy": -10.47, "internal_energy": -1.36, "cluster_size": 18, "cluster_id": 2, "rank_in_cluster": 12}

>  <energy>  (31) 
-8.79

>  <cluster_rmsd>  (31) 
0.75

>  <cluster>  (31) 
2

$$$$

     RDKit          3D

 49 52  0  0  0  0  0  0  0  0999 V2000
  138.1680   74.5850  222.3410 O   0  0  0  0  0  0  0  0  0  0  0  0
  139.0920   75.2880  221.8100 C   0  0  0  0  0  0  0  0  0  0  0  0
  139.8910   74.7590  220.7610 N   0  0  0  0  0  0  0  0  0  0  0  0
  139.7170   73.4260  220.2410 C   0  0  0  0  0  0  0  0  0  0  0  0
  140.6480   72.4610  220.9060 C   0  0  0  0  0  0  0  0  0  0  0  0
  141.8170   72.3400  220.4560 O   0  0  0  0  0  0  0  0  0  0  0  0
  140.1550   71.7260  222.0190 N   0  0  0  0  0  0  0  0  0  0  0  0
  139.0560   70.7800  222.0510 C   0  0  0  0  0  0  0  0  0  0  0  0
  138.7240   70.7170  223.5290 C   0  0  2  0  0  0  0  0  0  0  0  0
  138.0440   71.8950  223.8350 O   0  0  0  0  0  0  0  0  0  0  0  0
  140.1210   70.7000  224.1080 C   0  0  2  0  0  0  0  0  0  0  0  0
  140.1700   70.8270  225.5680 C   0  0  0  0  0  0  0  0  0  0  0  0
  140.7460   71.8880  226.2420 C   0  0  0  0  0  0  0  0  0  0  0  0
  140.7610   71.9550  227.6340 C   0  0  0  0  0  0  0  0  0  0  0  0
  140.1770   70.9170  228.3390 C   0  0  0  0  0  0  0  0  0  0  0  0
  139.5910   69.8360  227.7080 C   0  0  0  0  0  0  0  0  0  0  0  0
  139.5960   69.8070  226.3260 C   0  0  0  0  0  0  0  0  0  0  0  0
  140.7410   71.8520  223.3580 C   0  0  0  0  0  0  0  0  0  0  0  0
  139.3360   76.6650  222.2850 C   0  0  0  0  0  0  0  0  0  0  0  0
  138.2610   77.4240  222.6980 C   0  0  0  0  0  0  0  0  0  0  0  0
  138.5360   78.7170  223.1390 C   0  0  0  0  0  0  0  0  0  0  0  0
  139.8430   79.2040  223.1540 C   0  0  0  0  0  0  0  0  0  0  0  0
  140.1210   80.4840  223.5900 C   0  0  0  0  0  0  0  0  0  0  0  0
  141.4210   80.9360  223.5930 C   0  0  0  0  0  0  0  0  0  0  0  0
  142.4810   80.1390  223.1680 C   0  0  0  0  0  0  0  0  0  0  0  0
  142.1720   78.8620  222.7380 C   0  0  0  0  0  0  0  0  0  0  0  0
  140.8750   78.4000  222.7300 C   0  0  0  0  0  0  0  0  0  0  0  0
  140.5810   77.1530  222.3090 N   0  0  0  0  0  0  0  0  0  0  0  0
  140.6400   75.4040  220.3690 H   0  0  0  0  0  0  0  0  0  0  0  0
  138.6801   73.1042  220.4177 H   0  0  0  0  0  0  0  0  0  0  0  0
  139.9400   73.4399  219.1639 H   0  0  0  0  0  0  0  0  0  0  0  0
  138.1992   71.1454  221.4658 H   0  0  0  0  0  0  0  0  0  0  0  0
  139.3052   69.8016  221.6143 H   0  0  0  0  0  0  0  0  0  0  0  0
  138.1002   69.8834  223.8838 H   0  0  0  0  0  0  0  0  0  0  0  0
  138.3760   72.6110  223.2500 H   0  0  0  0  0  0  0  0  0  0  0  0
  140.6519   69.7451  223.9801 H   0  0  0  0  0  0  0  0  0  0  0  0
  141.2056   72.7026  225.6630 H   0  0  0  0  0  0  0  0  0  0  0  0
  141.2225   72.8062  228.1560 H   0  0  0  0  0  0  0  0  0  0  0  0
  140.1793   70.9536  229.4384 H   0  0  0  0  0  0  0  0  0  0  0  0
  139.1336   69.0217  228.2891 H   0  0  0  0  0  0  0  0  0  0  0  0
  139.1333   68.9536  225.8087 H   0  0  0  0  0  0  0  0  0  0  0  0
  140.4723   72.8142  223.8184 H   0  0  0  0  0  0  0  0  0  0  0  0
  141.8407   71.8261  223.3547 H   0  0  0  0  0  0  0  0  0  0  0  0
  137.2351   77.0275  222.6801 H   0  0  0  0  0  0  0  0  0  0  0  0
  137.7122   79.3615  223.4795 H   0  0  0  0  0  0  0  0  0  0  0  0
  139.3073   81.1397  223.9334 H   0  0  0  0  0  0  0  0  0  0  0  0
  141.6291   81.9582  223.9418 H   0  0  0  0  0  0  0  0  0  0  0  0
  143.5170   80.5088  223.1742 H   0  0  0  0  0  0  0  0  0  0  0  0
  142.9806   78.2000  222.3945 H   0  0  0  0  0  0  0  0  0  0  0  0
  1  2  2  0
  2  3  1  0
  3  4  1  0
  4  5  1  0
  5  6  2  0
  5  7  1  0
  7  8  1  0
  8  9  1  0
  9 10  1  0
  9 11  1  0
 11 12  1  0
 12 13  2  0
 13 14  1  0
 14 15  2  0
 15 16  1  0
 16 17  2  0
 11 18  1  0
  2 19  1  0
 19 20  2  0
 20 21  1  0
 21 22  2  0
 22 23  1  0
 23 24  2  0
 24 25  1  0
 25 26  2  0
 26 27  1  0
 27 28  2  0
 18  7  1  0
 28 19  1  0
 17 12  1  0
 27 22  1  0
  3 29  1  0
  4 30  1  0
  4 31  1  0
  8 32  1  0
  8 33  1  0
  9 34  1  6
 10 35  1  0
 11 36  1  1
 13 37  1  0
 14 38  1  0
 15 39  1  0
 16 40  1  0
 17 41  1  0
 18 42  1  0
 18 43  1  0
 20 44  1  0
 21 45  1  0
 23 46  1  0
 24 47  1  0
 25 48  1  0
 26 49  1  0
M  END
>  <smiles>  (32) 
O=C(NCC(=O)N1C[C@H](O)[C@H](c2ccccc2)C1)c1ccc2ccccc2n1

>  <score_type>  (32) 
oracle

>  <origin>  (32) 
autodockgpu

>  <m_score__min__energy>  (32) 
-9.0199999999999996

>  <m_primary>  (32) 
energy

>  <rmsd>  (32) 
8.073047154790288

>  <m_score__min__rmsd>  (32) 
8.073047154790288

>  <meeko>  (32) 
{"free_energy": -7.81, "intermolecular_energy": -9.6, "internal_energy": -2.2, "cluster_size": 21, "cluster_id": 1, "rank_in_cluster": 21}

>  <energy>  (32) 
-8.79

>  <cluster_rmsd>  (32) 
1.57

>  <cluster>  (32) 
2

$$$$

     RDKit          3D

 49 52  0  0  0  0  0  0  0  0999 V2000
  136.3410   71.0700  222.6220 O   0  0  0  0  0  0  0  0  0  0  0  0
  136.2550   72.2290  223.1510 C   0  0  0  0  0  0  0  0  0  0  0  0
  137.0940   73.2890  222.7130 N   0  0  0  0  0  0  0  0  0  0  0  0
  138.0740   73.1300  221.6680 C   0  0  0  0  0  0  0  0  0  0  0  0
  139.4230   72.8100  222.2360 C   0  0  0  0  0  0  0  0  0  0  0  0
  140.3670   73.6190  222.0430 O   0  0  0  0  0  0  0  0  0  0  0  0
  139.5620   71.6000  222.9690 N   0  0  0  0  0  0  0  0  0  0  0  0
  139.2510   70.2510  222.5370 C   0  0  0  0  0  0  0  0  0  0  0  0
  139.1490   69.5030  223.8510 C   0  0  2  0  0  0  0  0  0  0  0  0
  137.9310   69.8650  224.4230 O   0  0  0  0  0  0  0  0  0  0  0  0
  140.3250   70.1090  224.5860 C   0  0  2  0  0  0  0  0  0  0  0  0
  140.4130   69.7290  225.9990 C   0  0  0  0  0  0  0  0  0  0  0  0
  140.4880   68.4260  226.4560 C   0  0  0  0  0  0  0  0  0  0  0  0
  140.5710   68.1260  227.8140 C   0  0  0  0  0  0  0  0  0  0  0  0
  140.5770   69.1800  228.7120 C   0  0  0  0  0  0  0  0  0  0  0  0
  140.5040   70.4970  228.3010 C   0  0  0  0  0  0  0  0  0  0  0  0
  140.4230   70.7540  226.9450 C   0  0  0  0  0  0  0  0  0  0  0  0
  140.0700   71.5750  224.3450 C   0  0  0  0  0  0  0  0  0  0  0  0
  135.2760   72.4770  224.2280 C   0  0  0  0  0  0  0  0  0  0  0  0
  134.6110   71.4010  224.7800 C   0  0  0  0  0  0  0  0  0  0  0  0
  133.6960   71.6800  225.7930 C   0  0  0  0  0  0  0  0  0  0  0  0
  133.4760   72.9910  226.2160 C   0  0  0  0  0  0  0  0  0  0  0  0
  132.5700   73.2720  227.2200 C   0  0  0  0  0  0  0  0  0  0  0  0
  132.3740   74.5750  227.6160 C   0  0  0  0  0  0  0  0  0  0  0  0
  133.0650   75.6360  227.0340 C   0  0  0  0  0  0  0  0  0  0  0  0
  133.9650   75.3230  226.0330 C   0  0  0  0  0  0  0  0  0  0  0  0
  134.1680   74.0220  225.6280 C   0  0  0  0  0  0  0  0  0  0  0  0
  135.0480   73.7250  224.6510 N   0  0  0  0  0  0  0  0  0  0  0  0
  136.9640   74.2240  223.2000 H   0  0  0  0  0  0  0  0  0  0  0  0
  137.7608   72.3112  221.0036 H   0  0  0  0  0  0  0  0  0  0  0  0
  138.1457   74.0754  221.1102 H   0  0  0  0  0  0  0  0  0  0  0  0
  138.2994   70.2191  221.9862 H   0  0  0  0  0  0  0  0  0  0  0  0
  139.9963   69.8279  221.8475 H   0  0  0  0  0  0  0  0  0  0  0  0
  139.1773   68.4037  223.8233 H   0  0  0  0  0  0  0  0  0  0  0  0
  137.3040   70.1040  223.7040 H   0  0  0  0  0  0  0  0  0  0  0  0
  141.3074   69.7622  224.2330 H   0  0  0  0  0  0  0  0  0  0  0  0
  140.4820   67.6028  225.7264 H   0  0  0  0  0  0  0  0  0  0  0  0
  140.6299   67.0842  228.1620 H   0  0  0  0  0  0  0  0  0  0  0  0
  140.6420   68.9615  229.7881 H   0  0  0  0  0  0  0  0  0  0  0  0
  140.5102   71.3185  229.0325 H   0  0  0  0  0  0  0  0  0  0  0  0
  140.3647   71.7975  226.6020 H   0  0  0  0  0  0  0  0  0  0  0  0
  139.3220   71.9672  225.0497 H   0  0  0  0  0  0  0  0  0  0  0  0
  140.9640   72.1997  224.4883 H   0  0  0  0  0  0  0  0  0  0  0  0
  134.7946   70.3722  224.4366 H   0  0  0  0  0  0  0  0  0  0  0  0
  133.1403   70.8564  226.2650 H   0  0  0  0  0  0  0  0  0  0  0  0
  132.0078   72.4579  227.7007 H   0  0  0  0  0  0  0  0  0  0  0  0
  131.6496   74.7857  228.4166 H   0  0  0  0  0  0  0  0  0  0  0  0
  132.9016   76.6749  227.3565 H   0  0  0  0  0  0  0  0  0  0  0  0
  134.5323   76.1313  225.5485 H   0  0  0  0  0  0  0  0  0  0  0  0
  1  2  2  0
  2  3  1  0
  3  4  1  0
  4  5  1  0
  5  6  2  0
  5  7  1  0
  7  8  1  0
  8  9  1  0
  9 10  1  0
  9 11  1  0
 11 12  1  0
 12 13  2  0
 13 14  1  0
 14 15  2  0
 15 16  1  0
 16 17  2  0
 11 18  1  0
  2 19  1  0
 19 20  2  0
 20 21  1  0
 21 22  2  0
 22 23  1  0
 23 24  2  0
 24 25  1  0
 25 26  2  0
 26 27  1  0
 27 28  2  0
 18  7  1  0
 28 19  1  0
 17 12  1  0
 27 22  1  0
  3 29  1  0
  4 30  1  0
  4 31  1  0
  8 32  1  0
  8 33  1  0
  9 34  1  6
 10 35  1  0
 11 36  1  6
 13 37  1  0
 14 38  1  0
 15 39  1  0
 16 40  1  0
 17 41  1  0
 18 42  1  0
 18 43  1  0
 20 44  1  0
 21 45  1  0
 23 46  1  0
 24 47  1  0
 25 48  1  0
 26 49  1  0
M  END
>  <smiles>  (33) 
O=C(NCC(=O)N1C[C@H](O)[C@H](c2ccccc2)C1)c1ccc2ccccc2n1

>  <score_type>  (33) 
oracle

>  <origin>  (33) 
autodockgpu

>  <m_score__min__energy>  (33) 
-9.0199999999999996

>  <m_primary>  (33) 
energy

>  <rmsd>  (33) 
7.3980145519010865

>  <m_score__min__rmsd>  (33) 
7.3980145519010865

>  <meeko>  (33) 
{"free_energy": -7.6, "intermolecular_energy": -9.39, "internal_energy": -2.55, "cluster_size": 9, "cluster_id": 3, "rank_in_cluster": 6}

>  <energy>  (33) 
-8.68

>  <cluster_rmsd>  (33) 
1.35

>  <cluster>  (33) 
2

$$$$

     RDKit          3D

 49 52  0  0  0  0  0  0  0  0999 V2000
  140.6910   71.1970  221.5960 O   0  0  0  0  0  0  0  0  0  0  0  0
  139.9860   71.5520  222.6000 C   0  0  0  0  0  0  0  0  0  0  0  0
  139.2870   72.7890  222.5920 N   0  0  0  0  0  0  0  0  0  0  0  0
  139.3270   73.7030  221.4790 C   0  0  0  0  0  0  0  0  0  0  0  0
  140.6380   74.4250  221.4190 C   0  0  0  0  0  0  0  0  0  0  0  0
  141.7000   73.7550  221.4910 O   0  0  0  0  0  0  0  0  0  0  0  0
  140.6090   75.8390  221.2840 N   0  0  0  0  0  0  0  0  0  0  0  0
  140.2430   76.6200  220.1180 C   0  0  0  0  0  0  0  0  0  0  0  0
  140.8530   77.9730  220.4270 C   0  0  2  0  0  0  0  0  0  0  0  0
  142.2260   77.8480  220.2190 O   0  0  0  0  0  0  0  0  0  0  0  0
  140.5080   78.0830  221.8960 C   0  0  2  0  0  0  0  0  0  0  0  0
  141.1250   79.2260  222.5750 C   0  0  0  0  0  0  0  0  0  0  0  0
  142.0650   79.1220  223.5840 C   0  0  0  0  0  0  0  0  0  0  0  0
  142.6180   80.2470  224.1940 C   0  0  0  0  0  0  0  0  0  0  0  0
  142.1980   81.4920  223.7600 C   0  0  0  0  0  0  0  0  0  0  0  0
  141.2600   81.6450  222.7560 C   0  0  0  0  0  0  0  0  0  0  0  0
  140.7360   80.5050  222.1760 C   0  0  0  0  0  0  0  0  0  0  0  0
  140.9730   76.7360  222.3870 C   0  0  0  0  0  0  0  0  0  0  0  0
  139.8910   70.6720  223.7820 C   0  0  0  0  0  0  0  0  0  0  0  0
  139.1950   69.4860  223.6720 C   0  0  0  0  0  0  0  0  0  0  0  0
  139.1310   68.6860  224.8110 C   0  0  0  0  0  0  0  0  0  0  0  0
  139.7490   69.0820  225.9970 C   0  0  0  0  0  0  0  0  0  0  0  0
  139.6890   68.2920  227.1290 C   0  0  0  0  0  0  0  0  0  0  0  0
  140.3080   68.7090  228.2840 C   0  0  0  0  0  0  0  0  0  0  0  0
  141.0030   69.9140  228.3570 C   0  0  0  0  0  0  0  0  0  0  0  0
  141.0470   70.6820  227.2090 C   0  0  0  0  0  0  0  0  0  0  0  0
  140.4300   70.2750  226.0460 C   0  0  0  0  0  0  0  0  0  0  0  0
  140.4760   71.0290  224.9300 N   0  0  0  0  0  0  0  0  0  0  0  0
  138.7220   73.0150  223.4630 H   0  0  0  0  0  0  0  0  0  0  0  0
  139.1850   73.1385  220.5456 H   0  0  0  0  0  0  0  0  0  0  0  0
  138.5257   74.4454  221.6085 H   0  0  0  0  0  0  0  0  0  0  0  0
  140.6719   76.1903  219.2007 H   0  0  0  0  0  0  0  0  0  0  0  0
  139.1586   76.6580  219.9375 H   0  0  0  0  0  0  0  0  0  0  0  0
  140.5156   78.8390  219.8386 H   0  0  0  0  0  0  0  0  0  0  0  0
  142.5960   77.2570  220.9120 H   0  0  0  0  0  0  0  0  0  0  0  0
  139.4466   78.2898  222.0976 H   0  0  0  0  0  0  0  0  0  0  0  0
  142.3855   78.1231  223.9147 H   0  0  0  0  0  0  0  0  0  0  0  0
  143.3650   80.1480  224.9954 H   0  0  0  0  0  0  0  0  0  0  0  0
  142.6249   82.3904  224.2297 H   0  0  0  0  0  0  0  0  0  0  0  0
  140.9399   82.6450  222.4282 H   0  0  0  0  0  0  0  0  0  0  0  0
  139.9892   80.6094  221.3751 H   0  0  0  0  0  0  0  0  0  0  0  0
  142.0596   76.7312  222.5584 H   0  0  0  0  0  0  0  0  0  0  0  0
  140.5233   76.4460  223.3481 H   0  0  0  0  0  0  0  0  0  0  0  0
  138.7133   69.1861  222.7296 H   0  0  0  0  0  0  0  0  0  0  0  0
  138.5866   67.7308  224.7744 H   0  0  0  0  0  0  0  0  0  0  0  0
  139.1487   67.3341  227.1064 H   0  0  0  0  0  0  0  0  0  0  0  0
  140.2526   68.0710  229.1783 H   0  0  0  0  0  0  0  0  0  0  0  0
  141.4943   70.2393  229.2859 H   0  0  0  0  0  0  0  0  0  0  0  0
  141.5870   71.6402  227.2239 H   0  0  0  0  0  0  0  0  0  0  0  0
  1  2  2  0
  2  3  1  0
  3  4  1  0
  4  5  1  0
  5  6  2  0
  5  7  1  0
  7  8  1  0
  8  9  1  0
  9 10  1  0
  9 11  1  0
 11 12  1  0
 12 13  2  0
 13 14  1  0
 14 15  2  0
 15 16  1  0
 16 17  2  0
 11 18  1  0
  2 19  1  0
 19 20  2  0
 20 21  1  0
 21 22  2  0
 22 23  1  0
 23 24  2  0
 24 25  1  0
 25 26  2  0
 26 27  1  0
 27 28  2  0
 18  7  1  0
 28 19  1  0
 17 12  1  0
 27 22  1  0
  3 29  1  0
  4 30  1  0
  4 31  1  0
  8 32  1  0
  8 33  1  0
  9 34  1  6
 10 35  1  0
 11 36  1  6
 13 37  1  0
 14 38  1  0
 15 39  1  0
 16 40  1  0
 17 41  1  0
 18 42  1  0
 18 43  1  0
 20 44  1  0
 21 45  1  0
 23 46  1  0
 24 47  1  0
 25 48  1  0
 26 49  1  0
M  END
>  <smiles>  (34) 
O=C(NCC(=O)N1C[C@H](O)[C@H](c2ccccc2)C1)c1ccc2ccccc2n1

>  <score_type>  (34) 
oracle

>  <origin>  (34) 
autodockgpu

>  <m_score__min__energy>  (34) 
-9.0199999999999996

>  <m_primary>  (34) 
energy

>  <rmsd>  (34) 
2.985319683578433

>  <m_score__min__rmsd>  (34) 
2.985319683578433

>  <meeko>  (34) 
{"free_energy": -9.01, "intermolecular_energy": -10.8, "internal_energy": -1.02, "cluster_size": 18, "cluster_id": 2, "rank_in_cluster": 1}

>  <energy>  (34) 
-8.66

>  <cluster_rmsd>  (34) 
0.99

>  <cluster>  (34) 
2

$$$$

     RDKit          3D

 49 52  0  0  0  0  0  0  0  0999 V2000
  140.0870   71.3790  221.2330 O   0  0  0  0  0  0  0  0  0  0  0  0
  139.9110   72.0040  222.3340 C   0  0  0  0  0  0  0  0  0  0  0  0
  139.6710   73.4040  222.3410 N   0  0  0  0  0  0  0  0  0  0  0  0
  139.6100   74.1930  221.1370 C   0  0  0  0  0  0  0  0  0  0  0  0
  138.4090   75.0890  221.1390 C   0  0  0  0  0  0  0  0  0  0  0  0
  137.3500   74.6810  220.5960 O   0  0  0  0  0  0  0  0  0  0  0  0
  138.5350   76.3620  221.7580 N   0  0  0  0  0  0  0  0  0  0  0  0
  137.4790   77.2870  222.1230 C   0  0  0  0  0  0  0  0  0  0  0  0
  138.2320   78.5940  222.2790 C   0  0  2  0  0  0  0  0  0  0  0  0
  138.5200   79.0440  220.9920 O   0  0  0  0  0  0  0  0  0  0  0  0
  139.4670   78.0980  222.9980 C   0  0  2  0  0  0  0  0  0  0  0  0
  140.5210   79.1040  223.1490 C   0  0  0  0  0  0  0  0  0  0  0  0
  140.2990   80.4270  223.4840 C   0  0  0  0  0  0  0  0  0  0  0  0
  141.3440   81.3400  223.6140 C   0  0  0  0  0  0  0  0  0  0  0  0
  142.6330   80.8850  223.3970 C   0  0  0  0  0  0  0  0  0  0  0  0
  142.9030   79.5720  223.0600 C   0  0  0  0  0  0  0  0  0  0  0  0
  141.8390   78.6980  222.9410 C   0  0  0  0  0  0  0  0  0  0  0  0
  139.8380   76.9270  222.1240 C   0  0  0  0  0  0  0  0  0  0  0  0
  139.9580   71.2680  223.6130 C   0  0  0  0  0  0  0  0  0  0  0  0
  139.5220   69.9590  223.6420 C   0  0  0  0  0  0  0  0  0  0  0  0
  139.5830   69.3030  224.8690 C   0  0  0  0  0  0  0  0  0  0  0  0
  140.0650   69.9550  226.0050 C   0  0  0  0  0  0  0  0  0  0  0  0
  140.1280   69.3090  227.2240 C   0  0  0  0  0  0  0  0  0  0  0  0
  140.6080   69.9770  228.3260 C   0  0  0  0  0  0  0  0  0  0  0  0
  141.0400   71.3000  228.2580 C   0  0  0  0  0  0  0  0  0  0  0  0
  140.9660   71.9200  227.0250 C   0  0  0  0  0  0  0  0  0  0  0  0
  140.4860   71.2600  225.9150 C   0  0  0  0  0  0  0  0  0  0  0  0
  140.4160   71.8710  224.7150 N   0  0  0  0  0  0  0  0  0  0  0  0
  139.5340   73.8520  223.2940 H   0  0  0  0  0  0  0  0  0  0  0  0
  140.5181   74.8097  221.0653 H   0  0  0  0  0  0  0  0  0  0  0  0
  139.5360   73.5118  220.2765 H   0  0  0  0  0  0  0  0  0  0  0  0
  136.7196   77.3572  221.3303 H   0  0  0  0  0  0  0  0  0  0  0  0
  136.9248   76.9882  223.0250 H   0  0  0  0  0  0  0  0  0  0  0  0
  137.7302   79.4201  222.8042 H   0  0  0  0  0  0  0  0  0  0  0  0
  138.4290   78.2910  220.3670 H   0  0  0  0  0  0  0  0  0  0  0  0
  139.3016   77.8343  224.0531 H   0  0  0  0  0  0  0  0  0  0  0  0
  139.2672   80.7690  223.6529 H   0  0  0  0  0  0  0  0  0  0  0  0
  141.1504   82.3894  223.8807 H   0  0  0  0  0  0  0  0  0  0  0  0
  143.4702   81.5916  223.4960 H   0  0  0  0  0  0  0  0  0  0  0  0
  143.9355   79.2323  222.8913 H   0  0  0  0  0  0  0  0  0  0  0  0
  142.0378   77.6496  222.6739 H   0  0  0  0  0  0  0  0  0  0  0  0
  140.3896   77.2587  221.2320 H   0  0  0  0  0  0  0  0  0  0  0  0
  140.4983   76.2041  222.6254 H   0  0  0  0  0  0  0  0  0  0  0  0
  139.1442   69.4575  222.7388 H   0  0  0  0  0  0  0  0  0  0  0  0
  139.2472   68.2582  224.9437 H   0  0  0  0  0  0  0  0  0  0  0  0
  139.7955   68.2642  227.3131 H   0  0  0  0  0  0  0  0  0  0  0  0
  140.6523   69.4507  229.2909 H   0  0  0  0  0  0  0  0  0  0  0  0
  141.4223   71.8267  229.1448 H   0  0  0  0  0  0  0  0  0  0  0  0
  141.2979   72.9642  226.9277 H   0  0  0  0  0  0  0  0  0  0  0  0
  1  2  2  0
  2  3  1  0
  3  4  1  0
  4  5  1  0
  5  6  2  0
  5  7  1  0
  7  8  1  0
  8  9  1  0
  9 10  1  0
  9 11  1  0
 11 12  1  0
 12 13  2  0
 13 14  1  0
 14 15  2  0
 15 16  1  0
 16 17  2  0
 11 18  1  0
  2 19  1  0
 19 20  2  0
 20 21  1  0
 21 22  2  0
 22 23  1  0
 23 24  2  0
 24 25  1  0
 25 26  2  0
 26 27  1  0
 27 28  2  0
 18  7  1  0
 28 19  1  0
 17 12  1  0
 27 22  1  0
  3 29  1  0
  4 30  1  0
  4 31  1  0
  8 32  1  0
  8 33  1  0
  9 34  1  1
 10 35  1  0
 11 36  1  1
 13 37  1  0
 14 38  1  0
 15 39  1  0
 16 40  1  0
 17 41  1  0
 18 42  1  0
 18 43  1  0
 20 44  1  0
 21 45  1  0
 23 46  1  0
 24 47  1  0
 25 48  1  0
 26 49  1  0
M  END
>  <smiles>  (35) 
O=C(NCC(=O)N1C[C@H](O)[C@H](c2ccccc2)C1)c1ccc2ccccc2n1

>  <score_type>  (35) 
oracle

>  <origin>  (35) 
autodockgpu

>  <m_score__min__energy>  (35) 
-9.0199999999999996

>  <m_primary>  (35) 
energy

>  <rmsd>  (35) 
3.54400345856729

>  <m_score__min__rmsd>  (35) 
3.54400345856729

>  <meeko>  (35) 
{"free_energy": -8.41, "intermolecular_energy": -10.2, "internal_energy": -1.31, "cluster_size": 18, "cluster_id": 2, "rank_in_cluster": 15}

>  <energy>  (35) 
-8.66

>  <cluster_rmsd>  (35) 
1.73

>  <cluster>  (35) 
2

$$$$

     RDKit          3D

 49 52  0  0  0  0  0  0  0  0999 V2000
  137.4240   76.1710  222.4630 O   0  0  0  0  0  0  0  0  0  0  0  0
  138.6860   76.3510  222.3810 C   0  0  0  0  0  0  0  0  0  0  0  0
  139.5420   75.2980  221.9590 N   0  0  0  0  0  0  0  0  0  0  0  0
  139.0540   73.9890  221.6030 C   0  0  0  0  0  0  0  0  0  0  0  0
  140.1030   72.9430  221.8240 C   0  0  0  0  0  0  0  0  0  0  0  0
  141.2260   73.0880  221.2730 O   0  0  0  0  0  0  0  0  0  0  0  0
  139.7700   71.8360  222.6500 N   0  0  0  0  0  0  0  0  0  0  0  0
  138.8130   70.7780  222.3850 C   0  0  0  0  0  0  0  0  0  0  0  0
  138.5640   70.2110  223.7690 C   0  0  2  0  0  0  0  0  0  0  0  0
  137.7450   71.1230  224.4320 O   0  0  0  0  0  0  0  0  0  0  0  0
  139.9770   70.2170  224.3090 C   0  0  2  0  0  0  0  0  0  0  0  0
  140.0790   69.8880  225.7340 C   0  0  0  0  0  0  0  0  0  0  0  0
  140.3290   70.8100  226.7340 C   0  0  0  0  0  0  0  0  0  0  0  0
  140.4140   70.4390  228.0750 C   0  0  0  0  0  0  0  0  0  0  0  0
  140.2390   69.1020  228.3890 C   0  0  0  0  0  0  0  0  0  0  0  0
  139.9870   68.1450  227.4240 C   0  0  0  0  0  0  0  0  0  0  0  0
  139.9100   68.5540  226.1050 C   0  0  0  0  0  0  0  0  0  0  0  0
  140.3970   71.6220  223.9580 C   0  0  0  0  0  0  0  0  0  0  0  0
  139.2670   77.6630  222.7280 C   0  0  0  0  0  0  0  0  0  0  0  0
  138.4160   78.7050  223.0360 C   0  0  0  0  0  0  0  0  0  0  0  0
  139.0060   79.9250  223.3570 C   0  0  0  0  0  0  0  0  0  0  0  0
  140.3940   80.0690  223.3620 C   0  0  0  0  0  0  0  0  0  0  0  0
  140.9840   81.2760  223.6790 C   0  0  0  0  0  0  0  0  0  0  0  0
  142.3550   81.3870  223.6750 C   0  0  0  0  0  0  0  0  0  0  0  0
  143.1820   80.3120  223.3590 C   0  0  0  0  0  0  0  0  0  0  0  0
  142.5640   79.1160  223.0460 C   0  0  0  0  0  0  0  0  0  0  0  0
  141.1910   78.9940  223.0460 C   0  0  0  0  0  0  0  0  0  0  0  0
  140.5950   77.8250  222.7400 N   0  0  0  0  0  0  0  0  0  0  0  0
  140.5790   75.5230  221.9160 H   0  0  0  0  0  0  0  0  0  0  0  0
  138.1755   73.7528  222.2214 H   0  0  0  0  0  0  0  0  0  0  0  0
  138.7861   73.9947  220.5361 H   0  0  0  0  0  0  0  0  0  0  0  0
  137.8873   71.1792  221.9467 H   0  0  0  0  0  0  0  0  0  0  0  0
  139.1723   70.0310  221.6618 H   0  0  0  0  0  0  0  0  0  0  0  0
  138.0775   69.2274  223.8453 H   0  0  0  0  0  0  0  0  0  0  0  0
  138.0030   72.0320  224.1620 H   0  0  0  0  0  0  0  0  0  0  0  0
  140.6267   69.4371  223.8852 H   0  0  0  0  0  0  0  0  0  0  0  0
  140.4648   71.8675  226.4632 H   0  0  0  0  0  0  0  0  0  0  0  0
  140.6137   71.1847  228.8586 H   0  0  0  0  0  0  0  0  0  0  0  0
  140.3027   68.7908  229.4421 H   0  0  0  0  0  0  0  0  0  0  0  0
  139.8515   67.0881  227.6973 H   0  0  0  0  0  0  0  0  0  0  0  0
  139.7095   67.8047  225.3250 H   0  0  0  0  0  0  0  0  0  0  0  0
  140.0223   72.3435  224.6989 H   0  0  0  0  0  0  0  0  0  0  0  0
  141.4885   71.7575  223.9431 H   0  0  0  0  0  0  0  0  0  0  0  0
  137.3234   78.5779  223.0283 H   0  0  0  0  0  0  0  0  0  0  0  0
  138.3698   80.7860  223.6098 H   0  0  0  0  0  0  0  0  0  0  0  0
  140.3603   82.1455  223.9338 H   0  0  0  0  0  0  0  0  0  0  0  0
  142.8122   82.3546  223.9292 H   0  0  0  0  0  0  0  0  0  0  0  0
  144.2776   80.4103  223.3585 H   0  0  0  0  0  0  0  0  0  0  0  0
  143.1815   78.2421  222.7912 H   0  0  0  0  0  0  0  0  0  0  0  0
  1  2  2  0
  2  3  1  0
  3  4  1  0
  4  5  1  0
  5  6  2  0
  5  7  1  0
  7  8  1  0
  8  9  1  0
  9 10  1  0
  9 11  1  0
 11 12  1  0
 12 13  2  0
 13 14  1  0
 14 15  2  0
 15 16  1  0
 16 17  2  0
 11 18  1  0
  2 19  1  0
 19 20  2  0
 20 21  1  0
 21 22  2  0
 22 23  1  0
 23 24  2  0
 24 25  1  0
 25 26  2  0
 26 27  1  0
 27 28  2  0
 18  7  1  0
 28 19  1  0
 17 12  1  0
 27 22  1  0
  3 29  1  0
  4 30  1  0
  4 31  1  0
  8 32  1  0
  8 33  1  0
  9 34  1  6
 10 35  1  0
 11 36  1  6
 13 37  1  0
 14 38  1  0
 15 39  1  0
 16 40  1  0
 17 41  1  0
 18 42  1  0
 18 43  1  0
 20 44  1  0
 21 45  1  0
 23 46  1  0
 24 47  1  0
 25 48  1  0
 26 49  1  0
M  END
>  <smiles>  (36) 
O=C(NCC(=O)N1C[C@H](O)[C@H](c2ccccc2)C1)c1ccc2ccccc2n1

>  <score_type>  (36) 
oracle

>  <origin>  (36) 
autodockgpu

>  <m_score__min__energy>  (36) 
-9.0199999999999996

>  <m_primary>  (36) 
energy

>  <rmsd>  (36) 
8.69919155628448

>  <m_score__min__rmsd>  (36) 
8.69919155628448

>  <meeko>  (36) 
{"free_energy": -8.69, "intermolecular_energy": -10.48, "internal_energy": -1.57, "cluster_size": 21, "cluster_id": 1, "rank_in_cluster": 14}

>  <energy>  (36) 
-8.41

>  <cluster_rmsd>  (36) 
1.81

>  <cluster>  (36) 
2

$$$$

     RDKit          3D

 49 52  0  0  0  0  0  0  0  0999 V2000
  140.7430   71.2580  221.6320 O   0  0  0  0  0  0  0  0  0  0  0  0
  139.9960   71.5710  222.6190 C   0  0  0  0  0  0  0  0  0  0  0  0
  139.2500   72.7800  222.6080 N   0  0  0  0  0  0  0  0  0  0  0  0
  139.2870   73.7120  221.5090 C   0  0  0  0  0  0  0  0  0  0  0  0
  140.5930   74.4430  221.4650 C   0  0  0  0  0  0  0  0  0  0  0  0
  141.6580   73.7870  221.6010 O   0  0  0  0  0  0  0  0  0  0  0  0
  140.5570   75.8510  221.2700 N   0  0  0  0  0  0  0  0  0  0  0  0
  140.2370   76.5780  220.0570 C   0  0  0  0  0  0  0  0  0  0  0  0
  140.8210   77.9490  220.3360 C   0  0  2  0  0  0  0  0  0  0  0  0
  142.2020   77.8320  220.1970 O   0  0  0  0  0  0  0  0  0  0  0  0
  140.4070   78.1170  221.7820 C   0  0  2  0  0  0  0  0  0  0  0  0
  140.9820   79.2930  222.4410 C   0  0  0  0  0  0  0  0  0  0  0  0
  140.4410   80.5650  222.3830 C   0  0  0  0  0  0  0  0  0  0  0  0
  141.0320   81.6470  223.0320 C   0  0  0  0  0  0  0  0  0  0  0  0
  142.1940   81.4170  223.7480 C   0  0  0  0  0  0  0  0  0  0  0  0
  142.7710   80.1640  223.8340 C   0  0  0  0  0  0  0  0  0  0  0  0
  142.1540   79.1160  223.1760 C   0  0  0  0  0  0  0  0  0  0  0  0
  140.8620   76.7960  222.3500 C   0  0  0  0  0  0  0  0  0  0  0  0
  139.9010   70.6700  223.7850 C   0  0  0  0  0  0  0  0  0  0  0  0
  139.2010   69.4880  223.6550 C   0  0  0  0  0  0  0  0  0  0  0  0
  139.1370   68.6680  224.7800 C   0  0  0  0  0  0  0  0  0  0  0  0
  139.7580   69.0410  225.9720 C   0  0  0  0  0  0  0  0  0  0  0  0
  139.6980   68.2310  227.0890 C   0  0  0  0  0  0  0  0  0  0  0  0
  140.3200   68.6260  228.2510 C   0  0  0  0  0  0  0  0  0  0  0  0
  141.0190   69.8270  228.3440 C   0  0  0  0  0  0  0  0  0  0  0  0
  141.0620   70.6160  227.2100 C   0  0  0  0  0  0  0  0  0  0  0  0
  140.4420   70.2310  226.0410 C   0  0  0  0  0  0  0  0  0  0  0  0
  140.4890   71.0050  224.9380 N   0  0  0  0  0  0  0  0  0  0  0  0
  138.6510   72.9710  223.4650 H   0  0  0  0  0  0  0  0  0  0  0  0
  139.1517   73.1613  220.5664 H   0  0  0  0  0  0  0  0  0  0  0  0
  138.4802   74.4468  221.6471 H   0  0  0  0  0  0  0  0  0  0  0  0
  140.7105   76.1149  219.1788 H   0  0  0  0  0  0  0  0  0  0  0  0
  139.1616   76.5968  219.8264 H   0  0  0  0  0  0  0  0  0  0  0  0
  140.5038   78.7853  219.6957 H   0  0  0  0  0  0  0  0  0  0  0  0
  142.5440   77.2600  220.9200 H   0  0  0  0  0  0  0  0  0  0  0  0
  139.3356   78.3212  221.9250 H   0  0  0  0  0  0  0  0  0  0  0  0
  139.5174   80.7268  221.8078 H   0  0  0  0  0  0  0  0  0  0  0  0
  140.5891   82.6524  222.9771 H   0  0  0  0  0  0  0  0  0  0  0  0
  142.6745   82.2600  224.2661 H   0  0  0  0  0  0  0  0  0  0  0  0
  143.6948   80.0050  224.4096 H   0  0  0  0  0  0  0  0  0  0  0  0
  142.6010   78.1126  223.2340 H   0  0  0  0  0  0  0  0  0  0  0  0
  141.9396   76.8104  222.5705 H   0  0  0  0  0  0  0  0  0  0  0  0
  140.3719   76.5408  223.3012 H   0  0  0  0  0  0  0  0  0  0  0  0
  138.7166   69.2064  222.7084 H   0  0  0  0  0  0  0  0  0  0  0  0
  138.5901   67.7150  224.7273 H   0  0  0  0  0  0  0  0  0  0  0  0
  139.1556   67.2748  227.0499 H   0  0  0  0  0  0  0  0  0  0  0  0
  140.2634   67.9727  229.1342 H   0  0  0  0  0  0  0  0  0  0  0  0
  141.5142   70.1336  229.2772 H   0  0  0  0  0  0  0  0  0  0  0  0
  141.6034   71.5730  227.2413 H   0  0  0  0  0  0  0  0  0  0  0  0
  1  2  2  0
  2  3  1  0
  3  4  1  0
  4  5  1  0
  5  6  2  0
  5  7  1  0
  7  8  1  0
  8  9  1  0
  9 10  1  0
  9 11  1  0
 11 12  1  0
 12 13  2  0
 13 14  1  0
 14 15  2  0
 15 16  1  0
 16 17  2  0
 11 18  1  0
  2 19  1  0
 19 20  2  0
 20 21  1  0
 21 22  2  0
 22 23  1  0
 23 24  2  0
 24 25  1  0
 25 26  2  0
 26 27  1  0
 27 28  2  0
 18  7  1  0
 28 19  1  0
 17 12  1  0
 27 22  1  0
  3 29  1  0
  4 30  1  0
  4 31  1  0
  8 32  1  0
  8 33  1  0
  9 34  1  6
 10 35  1  0
 11 36  1  6
 13 37  1  0
 14 38  1  0
 15 39  1  0
 16 40  1  0
 17 41  1  0
 18 42  1  0
 18 43  1  0
 20 44  1  0
 21 45  1  0
 23 46  1  0
 24 47  1  0
 25 48  1  0
 26 49  1  0
M  END
>  <smiles>  (37) 
O=C(NCC(=O)N1C[C@H](O)[C@H](c2ccccc2)C1)c1ccc2ccccc2n1

>  <score_type>  (37) 
oracle

>  <origin>  (37) 
autodockgpu

>  <m_score__min__energy>  (37) 
-9.0199999999999996

>  <m_primary>  (37) 
energy

>  <rmsd>  (37) 
3.0035035109427493

>  <m_score__min__rmsd>  (37) 
3.0035035109427493

>  <meeko>  (37) 
{"free_energy": -9.01, "intermolecular_energy": -10.8, "internal_energy": -1.01, "cluster_size": 18, "cluster_id": 2, "rank_in_cluster": 2}

>  <energy>  (37) 
-8.33

>  <cluster_rmsd>  (37) 
1.18

>  <cluster>  (37) 
2

$$$$

     RDKit          3D

 49 52  0  0  0  0  0  0  0  0999 V2000
  139.6500   70.9270  221.3470 O   0  0  0  0  0  0  0  0  0  0  0  0
  139.7640   71.5330  222.4660 C   0  0  0  0  0  0  0  0  0  0  0  0
  139.8350   72.9510  222.5170 N   0  0  0  0  0  0  0  0  0  0  0  0
  139.7840   73.7800  221.3390 C   0  0  0  0  0  0  0  0  0  0  0  0
  138.9940   75.0270  221.5900 C   0  0  0  0  0  0  0  0  0  0  0  0
  137.8230   74.9210  222.0390 O   0  0  0  0  0  0  0  0  0  0  0  0
  139.6160   76.2730  221.3050 N   0  0  0  0  0  0  0  0  0  0  0  0
  140.0410   76.7870  220.0170 C   0  0  0  0  0  0  0  0  0  0  0  0
  141.0200   77.8760  220.4080 C   0  0  2  0  0  0  0  0  0  0  0  0
  142.1890   77.2350  220.8160 O   0  0  0  0  0  0  0  0  0  0  0  0
  140.2730   78.4900  221.5720 C   0  0  2  0  0  0  0  0  0  0  0  0
  141.0420   79.4880  222.3220 C   0  0  0  0  0  0  0  0  0  0  0  0
  141.0660   80.8400  222.0290 C   0  0  0  0  0  0  0  0  0  0  0  0
  141.8160   81.7430  222.7800 C   0  0  0  0  0  0  0  0  0  0  0  0
  142.5490   81.2480  223.8450 C   0  0  0  0  0  0  0  0  0  0  0  0
  142.5560   79.9060  224.1750 C   0  0  0  0  0  0  0  0  0  0  0  0
  141.7980   79.0430  223.4060 C   0  0  0  0  0  0  0  0  0  0  0  0
  139.9230   77.2510  222.3550 C   0  0  0  0  0  0  0  0  0  0  0  0
  139.8220   70.7570  223.7200 C   0  0  0  0  0  0  0  0  0  0  0  0
  139.3400   69.4640  223.7240 C   0  0  0  0  0  0  0  0  0  0  0  0
  139.4140   68.7680  224.9290 C   0  0  0  0  0  0  0  0  0  0  0  0
  139.9540   69.3670  226.0670 C   0  0  0  0  0  0  0  0  0  0  0  0
  140.0290   68.6820  227.2640 C   0  0  0  0  0  0  0  0  0  0  0  0
  140.5670   69.2980  228.3690 C   0  0  0  0  0  0  0  0  0  0  0  0
  141.0450   70.6060  228.3270 C   0  0  0  0  0  0  0  0  0  0  0  0
  140.9560   71.2660  227.1160 C   0  0  0  0  0  0  0  0  0  0  0  0
  140.4190   70.6590  226.0030 C   0  0  0  0  0  0  0  0  0  0  0  0
  140.3360   71.3090  224.8250 N   0  0  0  0  0  0  0  0  0  0  0  0
  139.9280   73.3820  223.4840 H   0  0  0  0  0  0  0  0  0  0  0  0
  140.8087   74.0562  221.0497 H   0  0  0  0  0  0  0  0  0  0  0  0
  139.2941   73.2126  220.5340 H   0  0  0  0  0  0  0  0  0  0  0  0
  140.5330   76.0055  219.4193 H   0  0  0  0  0  0  0  0  0  0  0  0
  139.2106   77.1465  219.3915 H   0  0  0  0  0  0  0  0  0  0  0  0
  141.3068   78.6118  219.6423 H   0  0  0  0  0  0  0  0  0  0  0  0
  142.9440   77.8530  220.6980 H   0  0  0  0  0  0  0  0  0  0  0  0
  139.4023   79.0964  221.2818 H   0  0  0  0  0  0  0  0  0  0  0  0
  140.4760   81.2128  221.1787 H   0  0  0  0  0  0  0  0  0  0  0  0
  141.8253   82.8152  222.5344 H   0  0  0  0  0  0  0  0  0  0  0  0
  143.1463   81.9467  224.4492 H   0  0  0  0  0  0  0  0  0  0  0  0
  143.1477   79.5353  225.0250 H   0  0  0  0  0  0  0  0  0  0  0  0
  141.7909   77.9720  223.6569 H   0  0  0  0  0  0  0  0  0  0  0  0
  140.7728   76.9182  222.9691 H   0  0  0  0  0  0  0  0  0  0  0  0
  139.0934   77.4041  223.0609 H   0  0  0  0  0  0  0  0  0  0  0  0
  138.9172   69.0043  222.8185 H   0  0  0  0  0  0  0  0  0  0  0  0
  139.0422   67.7342  224.9833 H   0  0  0  0  0  0  0  0  0  0  0  0
  139.6599   67.6481  227.3329 H   0  0  0  0  0  0  0  0  0  0  0  0
  140.6218   68.7408  229.3159 H   0  0  0  0  0  0  0  0  0  0  0  0
  141.4734   71.0910  229.2165 H   0  0  0  0  0  0  0  0  0  0  0  0
  141.3227   72.3003  227.0396 H   0  0  0  0  0  0  0  0  0  0  0  0
  1  2  2  0
  2  3  1  0
  3  4  1  0
  4  5  1  0
  5  6  2  0
  5  7  1  0
  7  8  1  0
  8  9  1  0
  9 10  1  0
  9 11  1  0
 11 12  1  0
 12 13  2  0
 13 14  1  0
 14 15  2  0
 15 16  1  0
 16 17  2  0
 11 18  1  0
  2 19  1  0
 19 20  2  0
 20 21  1  0
 21 22  2  0
 22 23  1  0
 23 24  2  0
 24 25  1  0
 25 26  2  0
 26 27  1  0
 27 28  2  0
 18  7  1  0
 28 19  1  0
 17 12  1  0
 27 22  1  0
  3 29  1  0
  4 30  1  0
  4 31  1  0
  8 32  1  0
  8 33  1  0
  9 34  1  6
 10 35  1  0
 11 36  1  6
 13 37  1  0
 14 38  1  0
 15 39  1  0
 16 40  1  0
 17 41  1  0
 18 42  1  0
 18 43  1  0
 20 44  1  0
 21 45  1  0
 23 46  1  0
 24 47  1  0
 25 48  1  0
 26 49  1  0
M  END
>  <smiles>  (38) 
O=C(NCC(=O)N1C[C@H](O)[C@H](c2ccccc2)C1)c1ccc2ccccc2n1

>  <score_type>  (38) 
oracle

>  <origin>  (38) 
autodockgpu

>  <m_score__min__energy>  (38) 
-9.0199999999999996

>  <m_primary>  (38) 
energy

>  <rmsd>  (38) 
3.0484887093695776

>  <m_score__min__rmsd>  (38) 
3.0484887093695776

>  <meeko>  (38) 
{"free_energy": -8.66, "intermolecular_energy": -10.45, "internal_energy": -1.33, "cluster_size": 18, "cluster_id": 2, "rank_in_cluster": 13}

>  <energy>  (38) 
-7.87

>  <cluster_rmsd>  (38) 
1.84

>  <cluster>  (38) 
2

$$$$

     RDKit          3D

 49 52  0  0  0  0  0  0  0  0999 V2000
  136.3180   71.1720  222.7770 O   0  0  0  0  0  0  0  0  0  0  0  0
  136.2300   72.3670  223.2210 C   0  0  0  0  0  0  0  0  0  0  0  0
  137.0730   73.3910  222.7120 N   0  0  0  0  0  0  0  0  0  0  0  0
  138.0590   73.1560  221.6870 C   0  0  0  0  0  0  0  0  0  0  0  0
  139.4020   72.8690  222.2850 C   0  0  0  0  0  0  0  0  0  0  0  0
  140.3210   73.7160  222.1400 O   0  0  0  0  0  0  0  0  0  0  0  0
  139.5650   71.6450  222.9900 N   0  0  0  0  0  0  0  0  0  0  0  0
  139.2950   70.3000  222.5200 C   0  0  0  0  0  0  0  0  0  0  0  0
  139.1980   69.5170  223.8150 C   0  0  2  0  0  0  0  0  0  0  0  0
  137.9640   69.8320  224.3800 O   0  0  0  0  0  0  0  0  0  0  0  0
  140.3490   70.1350  224.5780 C   0  0  2  0  0  0  0  0  0  0  0  0
  140.4310   69.7230  225.9820 C   0  0  0  0  0  0  0  0  0  0  0  0
  140.0460   68.4820  226.4580 C   0  0  0  0  0  0  0  0  0  0  0  0
  140.1490   68.1460  227.8060 C   0  0  0  0  0  0  0  0  0  0  0  0
  140.6520   69.0990  228.6750 C   0  0  0  0  0  0  0  0  0  0  0  0
  141.0480   70.3510  228.2460 C   0  0  0  0  0  0  0  0  0  0  0  0
  140.9320   70.6460  226.9000 C   0  0  0  0  0  0  0  0  0  0  0  0
  140.0570   71.6000  224.3710 C   0  0  0  0  0  0  0  0  0  0  0  0
  135.2450   72.6920  224.2710 C   0  0  0  0  0  0  0  0  0  0  0  0
  134.4760   71.6740  224.7970 C   0  0  0  0  0  0  0  0  0  0  0  0
  133.5590   72.0250  225.7860 C   0  0  0  0  0  0  0  0  0  0  0  0
  133.4390   73.3490  226.2110 C   0  0  0  0  0  0  0  0  0  0  0  0
  132.5320   73.7020  227.1910 C   0  0  0  0  0  0  0  0  0  0  0  0
  132.4370   75.0150  227.5900 C   0  0  0  0  0  0  0  0  0  0  0  0
  133.2310   76.0150  227.0350 C   0  0  0  0  0  0  0  0  0  0  0  0
  134.1300   75.6320  226.0580 C   0  0  0  0  0  0  0  0  0  0  0  0
  134.2330   74.3200  225.6500 C   0  0  0  0  0  0  0  0  0  0  0  0
  135.1120   73.9530  224.6960 N   0  0  0  0  0  0  0  0  0  0  0  0
  136.9420   74.3590  223.1300 H   0  0  0  0  0  0  0  0  0  0  0  0
  137.7457   72.2952  221.0780 H   0  0  0  0  0  0  0  0  0  0  0  0
  138.1395   74.0605  221.0662 H   0  0  0  0  0  0  0  0  0  0  0  0
  138.3509   70.2570  221.9571 H   0  0  0  0  0  0  0  0  0  0  0  0
  140.0586   69.9140  221.8287 H   0  0  0  0  0  0  0  0  0  0  0  0
  139.2561   68.4198  223.7617 H   0  0  0  0  0  0  0  0  0  0  0  0
  137.4280   70.3190  223.7150 H   0  0  0  0  0  0  0  0  0  0  0  0
  141.3439   69.8229  224.2276 H   0  0  0  0  0  0  0  0  0  0  0  0
  139.6471   67.7393  225.7515 H   0  0  0  0  0  0  0  0  0  0  0  0
  139.8403   67.1544  228.1686 H   0  0  0  0  0  0  0  0  0  0  0  0
  140.7393   68.8510  229.7431 H   0  0  0  0  0  0  0  0  0  0  0  0
  141.4445   71.0925  228.9552 H   0  0  0  0  0  0  0  0  0  0  0  0
  141.2442   71.6383  226.5425 H   0  0  0  0  0  0  0  0  0  0  0  0
  139.2903   71.9540  225.0758 H   0  0  0  0  0  0  0  0  0  0  0  0
  140.9315   72.2452  224.5415 H   0  0  0  0  0  0  0  0  0  0  0  0
  134.5818   70.6349  224.4520 H   0  0  0  0  0  0  0  0  0  0  0  0
  132.9224   71.2495  226.2369 H   0  0  0  0  0  0  0  0  0  0  0  0
  131.8887   72.9369  227.6502 H   0  0  0  0  0  0  0  0  0  0  0  0
  131.7112   75.2832  228.3718 H   0  0  0  0  0  0  0  0  0  0  0  0
  133.1465   77.0626  227.3596 H   0  0  0  0  0  0  0  0  0  0  0  0
  134.7778   76.3914  225.5957 H   0  0  0  0  0  0  0  0  0  0  0  0
  1  2  2  0
  2  3  1  0
  3  4  1  0
  4  5  1  0
  5  6  2  0
  5  7  1  0
  7  8  1  0
  8  9  1  0
  9 10  1  0
  9 11  1  0
 11 12  1  0
 12 13  2  0
 13 14  1  0
 14 15  2  0
 15 16  1  0
 16 17  2  0
 11 18  1  0
  2 19  1  0
 19 20  2  0
 20 21  1  0
 21 22  2  0
 22 23  1  0
 23 24  2  0
 24 25  1  0
 25 26  2  0
 26 27  1  0
 27 28  2  0
 18  7  1  0
 28 19  1  0
 17 12  1  0
 27 22  1  0
  3 29  1  0
  4 30  1  0
  4 31  1  0
  8 32  1  0
  8 33  1  0
  9 34  1  6
 10 35  1  0
 11 36  1  6
 13 37  1  0
 14 38  1  0
 15 39  1  0
 16 40  1  0
 17 41  1  0
 18 42  1  0
 18 43  1  0
 20 44  1  0
 21 45  1  0
 23 46  1  0
 24 47  1  0
 25 48  1  0
 26 49  1  0
M  END
>  <smiles>  (39) 
O=C(NCC(=O)N1C[C@H](O)[C@H](c2ccccc2)C1)c1ccc2ccccc2n1

>  <score_type>  (39) 
oracle

>  <origin>  (39) 
autodockgpu

>  <m_score__min__energy>  (39) 
-9.0199999999999996

>  <m_primary>  (39) 
energy

>  <rmsd>  (39) 
7.459669201609422

>  <m_score__min__rmsd>  (39) 
7.459669201609422

>  <meeko>  (39) 
{"free_energy": -7.56, "intermolecular_energy": -9.35, "internal_energy": -2.53, "cluster_size": 9, "cluster_id": 3, "rank_in_cluster": 7}

>  <energy>  (39) 
-7.86

>  <cluster_rmsd>  (39) 
1.68

>  <cluster>  (39) 
2

$$$$

     RDKit          3D

 49 52  0  0  0  0  0  0  0  0999 V2000
  140.3300   72.9390  222.5490 O   0  0  0  0  0  0  0  0  0  0  0  0
  139.5310   72.0890  223.0710 C   0  0  0  0  0  0  0  0  0  0  0  0
  138.2490   71.8590  222.5050 N   0  0  0  0  0  0  0  0  0  0  0  0
  137.7750   72.5520  221.3330 C   0  0  0  0  0  0  0  0  0  0  0  0
  137.4460   73.9790  221.6460 C   0  0  0  0  0  0  0  0  0  0  0  0
  136.3030   74.2510  222.0980 O   0  0  0  0  0  0  0  0  0  0  0  0
  138.4510   74.9560  221.4130 N   0  0  0  0  0  0  0  0  0  0  0  0
  139.4910   74.9460  220.4010 C   0  0  0  0  0  0  0  0  0  0  0  0
  140.4860   75.9510  220.9480 C   0  0  2  0  0  0  0  0  0  0  0  0
  141.1550   75.3200  221.9960 O   0  0  0  0  0  0  0  0  0  0  0  0
  139.5330   77.0170  221.4420 C   0  0  2  0  0  0  0  0  0  0  0  0
  140.1730   78.0860  222.2140 C   0  0  0  0  0  0  0  0  0  0  0  0
  139.5190   78.8870  223.1330 C   0  0  0  0  0  0  0  0  0  0  0  0
  140.1810   79.8890  223.8400 C   0  0  0  0  0  0  0  0  0  0  0  0
  141.5320   80.0680  223.5980 C   0  0  0  0  0  0  0  0  0  0  0  0
  142.2270   79.2930  222.6890 C   0  0  0  0  0  0  0  0  0  0  0  0
  141.5340   78.3090  222.0080 C   0  0  0  0  0  0  0  0  0  0  0  0
  138.5620   76.1720  222.2260 C   0  0  0  0  0  0  0  0  0  0  0  0
  139.9410   71.3360  224.2730 C   0  0  0  0  0  0  0  0  0  0  0  0
  140.8360   71.9170  225.1470 C   0  0  0  0  0  0  0  0  0  0  0  0
  141.1950   71.1720  226.2680 C   0  0  0  0  0  0  0  0  0  0  0  0
  140.6640   69.8990  226.4800 C   0  0  0  0  0  0  0  0  0  0  0  0
  141.0160   69.1560  227.5890 C   0  0  0  0  0  0  0  0  0  0  0  0
  140.4750   67.9050  227.7710 C   0  0  0  0  0  0  0  0  0  0  0  0
  139.5730   67.3500  226.8660 C   0  0  0  0  0  0  0  0  0  0  0  0
  139.2390   68.1180  225.7660 C   0  0  0  0  0  0  0  0  0  0  0  0
  139.7750   69.3720  225.5730 C   0  0  0  0  0  0  0  0  0  0  0  0
  139.4440   70.1150  224.4970 N   0  0  0  0  0  0  0  0  0  0  0  0
  137.6420   71.1370  222.9940 H   0  0  0  0  0  0  0  0  0  0  0  0
  138.5563   72.5250  220.5592 H   0  0  0  0  0  0  0  0  0  0  0  0
  136.8614   72.0529  220.9779 H   0  0  0  0  0  0  0  0  0  0  0  0
  139.9443   73.9483  220.3059 H   0  0  0  0  0  0  0  0  0  0  0  0
  139.1262   75.1922  219.3929 H   0  0  0  0  0  0  0  0  0  0  0  0
  141.2540   76.3422  220.2646 H   0  0  0  0  0  0  0  0  0  0  0  0
  140.9340   74.3620  221.9790 H   0  0  0  0  0  0  0  0  0  0  0  0
  139.0648   77.6112  220.6434 H   0  0  0  0  0  0  0  0  0  0  0  0
  138.4451   78.7284  223.3108 H   0  0  0  0  0  0  0  0  0  0  0  0
  139.6467   80.5178  224.5674 H   0  0  0  0  0  0  0  0  0  0  0  0
  142.0708   80.8538  224.1479 H   0  0  0  0  0  0  0  0  0  0  0  0
  143.3007   79.4543  222.5122 H   0  0  0  0  0  0  0  0  0  0  0  0
  142.0729   77.6830  221.2815 H   0  0  0  0  0  0  0  0  0  0  0  0
  138.9558   75.9434  223.2273 H   0  0  0  0  0  0  0  0  0  0  0  0
  137.5955   76.6685  222.3972 H   0  0  0  0  0  0  0  0  0  0  0  0
  141.2470   72.9214  224.9673 H   0  0  0  0  0  0  0  0  0  0  0  0
  141.9057   71.5922  226.9949 H   0  0  0  0  0  0  0  0  0  0  0  0
  141.7262   69.5630  228.3239 H   0  0  0  0  0  0  0  0  0  0  0  0
  140.7636   67.3241  228.6594 H   0  0  0  0  0  0  0  0  0  0  0  0
  139.1465   66.3477  227.0194 H   0  0  0  0  0  0  0  0  0  0  0  0
  138.5285   67.7182  225.0276 H   0  0  0  0  0  0  0  0  0  0  0  0
  1  2  2  0
  2  3  1  0
  3  4  1  0
  4  5  1  0
  5  6  2  0
  5  7  1  0
  7  8  1  0
  8  9  1  0
  9 10  1  0
  9 11  1  0
 11 12  1  0
 12 13  2  0
 13 14  1  0
 14 15  2  0
 15 16  1  0
 16 17  2  0
 11 18  1  0
  2 19  1  0
 19 20  2  0
 20 21  1  0
 21 22  2  0
 22 23  1  0
 23 24  2  0
 24 25  1  0
 25 26  2  0
 26 27  1  0
 27 28  2  0
 18  7  1  0
 28 19  1  0
 17 12  1  0
 27 22  1  0
  3 29  1  0
  4 30  1  0
  4 31  1  0
  8 32  1  0
  8 33  1  0
  9 34  1  6
 10 35  1  0
 11 36  1  6
 13 37  1  0
 14 38  1  0
 15 39  1  0
 16 40  1  0
 17 41  1  0
 18 42  1  0
 18 43  1  0
 20 44  1  0
 21 45  1  0
 23 46  1  0
 24 47  1  0
 25 48  1  0
 26 49  1  0
M  END
>  <smiles>  (40) 
O=C(NCC(=O)N1C[C@H](O)[C@H](c2ccccc2)C1)c1ccc2ccccc2n1

>  <score_type>  (40) 
oracle

>  <origin>  (40) 
autodockgpu

>  <m_score__min__energy>  (40) 
-9.0199999999999996

>  <m_primary>  (40) 
energy

>  <rmsd>  (40) 
3.7461716557736384

>  <m_score__min__rmsd>  (40) 
3.7461716557736384

>  <meeko>  (40) 
{"free_energy": -7.87, "intermolecular_energy": -9.66, "internal_energy": -2.25, "cluster_size": 18, "cluster_id": 2, "rank_in_cluster": 17}

>  <energy>  (40) 
-7.72

>  <cluster_rmsd>  (40) 
0.0

>  <cluster>  (40) 
3

$$$$

     RDKit          3D

 49 52  0  0  0  0  0  0  0  0999 V2000
  136.2400   71.1570  222.6180 O   0  0  0  0  0  0  0  0  0  0  0  0
  136.2030   72.3160  223.1520 C   0  0  0  0  0  0  0  0  0  0  0  0
  137.0890   73.3400  222.7200 N   0  0  0  0  0  0  0  0  0  0  0  0
  138.0630   73.1430  221.6770 C   0  0  0  0  0  0  0  0  0  0  0  0
  139.4050   72.8020  222.2480 C   0  0  0  0  0  0  0  0  0  0  0  0
  140.3670   73.5860  222.0400 O   0  0  0  0  0  0  0  0  0  0  0  0
  139.5180   71.6020  223.0010 N   0  0  0  0  0  0  0  0  0  0  0  0
  139.0400   70.2780  222.6510 C   0  0  0  0  0  0  0  0  0  0  0  0
  139.0220   69.5730  223.9930 C   0  0  2  0  0  0  0  0  0  0  0  0
  137.9150   70.0600  224.6850 O   0  0  0  0  0  0  0  0  0  0  0  0
  140.3240   70.0840  224.5720 C   0  0  2  0  0  0  0  0  0  0  0  0
  140.5380   69.7310  225.9780 C   0  0  0  0  0  0  0  0  0  0  0  0
  140.5840   68.4360  226.4610 C   0  0  0  0  0  0  0  0  0  0  0  0
  140.7920   68.1600  227.8120 C   0  0  0  0  0  0  0  0  0  0  0  0
  140.9560   69.2310  228.6730 C   0  0  0  0  0  0  0  0  0  0  0  0
  140.9170   70.5420  228.2360 C   0  0  0  0  0  0  0  0  0  0  0  0
  140.7090   70.7730  226.8890 C   0  0  0  0  0  0  0  0  0  0  0  0
  140.1750   71.5620  224.3120 C   0  0  0  0  0  0  0  0  0  0  0  0
  135.2330   72.6020  224.2280 C   0  0  0  0  0  0  0  0  0  0  0  0
  134.5210   71.5530  224.7740 C   0  0  0  0  0  0  0  0  0  0  0  0
  133.6170   71.8670  225.7870 C   0  0  0  0  0  0  0  0  0  0  0  0
  133.4520   73.1850  226.2150 C   0  0  0  0  0  0  0  0  0  0  0  0
  132.5570   73.5010  227.2180 C   0  0  0  0  0  0  0  0  0  0  0  0
  132.4180   74.8100  227.6180 C   0  0  0  0  0  0  0  0  0  0  0  0
  133.1550   75.8420  227.0430 C   0  0  0  0  0  0  0  0  0  0  0  0
  134.0420   75.4950  226.0420 C   0  0  0  0  0  0  0  0  0  0  0  0
  134.1900   74.1880  225.6320 C   0  0  0  0  0  0  0  0  0  0  0  0
  135.0590   73.8560  224.6550 N   0  0  0  0  0  0  0  0  0  0  0  0
  136.9980   74.2780  223.2110 H   0  0  0  0  0  0  0  0  0  0  0  0
  137.7305   72.3211  221.0259 H   0  0  0  0  0  0  0  0  0  0  0  0
  138.1549   74.0778  221.1045 H   0  0  0  0  0  0  0  0  0  0  0  0
  138.0328   70.3220  222.2111 H   0  0  0  0  0  0  0  0  0  0  0  0
  139.6606   69.7718  221.8969 H   0  0  0  0  0  0  0  0  0  0  0  0
  138.9482   68.4755  223.9988 H   0  0  0  0  0  0  0  0  0  0  0  0
  137.1970   70.2450  224.0390 H   0  0  0  0  0  0  0  0  0  0  0  0
  141.2246   69.6391  224.1237 H   0  0  0  0  0  0  0  0  0  0  0  0
  140.4527   67.5993  225.7591 H   0  0  0  0  0  0  0  0  0  0  0  0
  140.8247   67.1244  228.1814 H   0  0  0  0  0  0  0  0  0  0  0  0
  141.1231   69.0323  229.7419 H   0  0  0  0  0  0  0  0  0  0  0  0
  141.0477   71.3772  228.9398 H   0  0  0  0  0  0  0  0  0  0  0  0
  140.6774   71.8104  226.5246 H   0  0  0  0  0  0  0  0  0  0  0  0
  139.5500   72.0378  225.0821 H   0  0  0  0  0  0  0  0  0  0  0  0
  141.1316   72.1046  224.3341 H   0  0  0  0  0  0  0  0  0  0  0  0
  134.6605   70.5188  224.4262 H   0  0  0  0  0  0  0  0  0  0  0  0
  133.0261   71.0659  226.2551 H   0  0  0  0  0  0  0  0  0  0  0  0
  131.9586   72.7105  227.6945 H   0  0  0  0  0  0  0  0  0  0  0  0
  131.7016   75.0490  228.4178 H   0  0  0  0  0  0  0  0  0  0  0  0
  133.0365   76.8854  227.3705 H   0  0  0  0  0  0  0  0  0  0  0  0
  134.6439   76.2803  225.5614 H   0  0  0  0  0  0  0  0  0  0  0  0
  1  2  2  0
  2  3  1  0
  3  4  1  0
  4  5  1  0
  5  6  2  0
  5  7  1  0
  7  8  1  0
  8  9  1  0
  9 10  1  0
  9 11  1  0
 11 12  1  0
 12 13  2  0
 13 14  1  0
 14 15  2  0
 15 16  1  0
 16 17  2  0
 11 18  1  0
  2 19  1  0
 19 20  2  0
 20 21  1  0
 21 22  2  0
 22 23  1  0
 23 24  2  0
 24 25  1  0
 25 26  2  0
 26 27  1  0
 27 28  2  0
 18  7  1  0
 28 19  1  0
 17 12  1  0
 27 22  1  0
  3 29  1  0
  4 30  1  0
  4 31  1  0
  8 32  1  0
  8 33  1  0
  9 34  1  6
 10 35  1  0
 11 36  1  6
 13 37  1  0
 14 38  1  0
 15 39  1  0
 16 40  1  0
 17 41  1  0
 18 42  1  0
 18 43  1  0
 20 44  1  0
 21 45  1  0
 23 46  1  0
 24 47  1  0
 25 48  1  0
 26 49  1  0
M  END
>  <smiles>  (41) 
O=C(NCC(=O)N1C[C@H](O)[C@H](c2ccccc2)C1)c1ccc2ccccc2n1

>  <score_type>  (41) 
oracle

>  <origin>  (41) 
autodockgpu

>  <m_score__min__energy>  (41) 
-9.0199999999999996

>  <m_primary>  (41) 
energy

>  <rmsd>  (41) 
7.453207725599054

>  <m_score__min__rmsd>  (41) 
7.453207725599054

>  <meeko>  (41) 
{"free_energy": -7.63, "intermolecular_energy": -9.42, "internal_energy": -2.5, "cluster_size": 9, "cluster_id": 3, "rank_in_cluster": 3}

>  <energy>  (41) 
-7.66

>  <cluster_rmsd>  (41) 
0.74

>  <cluster>  (41) 
3

$$$$

     RDKit          3D

 49 52  0  0  0  0  0  0  0  0999 V2000
  139.9590   71.8180  221.7150 O   0  0  0  0  0  0  0  0  0  0  0  0
  139.1580   71.8430  222.7090 C   0  0  0  0  0  0  0  0  0  0  0  0
  137.9910   72.6540  222.6780 N   0  0  0  0  0  0  0  0  0  0  0  0
  137.6440   73.4820  221.5510 C   0  0  0  0  0  0  0  0  0  0  0  0
  137.5880   74.9270  221.9390 C   0  0  0  0  0  0  0  0  0  0  0  0
  136.5470   75.3650  222.4930 O   0  0  0  0  0  0  0  0  0  0  0  0
  138.7250   75.7320  221.6560 N   0  0  0  0  0  0  0  0  0  0  0  0
  139.7880   75.4760  220.7020 C   0  0  0  0  0  0  0  0  0  0  0  0
  140.8920   76.3920  221.1910 C   0  0  2  0  0  0  0  0  0  0  0  0
  141.4320   75.7950  222.3290 O   0  0  0  0  0  0  0  0  0  0  0  0
  140.0780   77.6220  221.5270 C   0  0  2  0  0  0  0  0  0  0  0  0
  140.8310   78.6740  222.2170 C   0  0  0  0  0  0  0  0  0  0  0  0
  142.1760   78.9310  222.0200 C   0  0  0  0  0  0  0  0  0  0  0  0
  142.8390   79.9470  222.7050 C   0  0  0  0  0  0  0  0  0  0  0  0
  142.1100   80.7060  223.6050 C   0  0  0  0  0  0  0  0  0  0  0  0
  140.7650   80.4840  223.8350 C   0  0  0  0  0  0  0  0  0  0  0  0
  140.1430   79.4680  223.1350 C   0  0  0  0  0  0  0  0  0  0  0  0
  138.9740   77.0030  222.3460 C   0  0  0  0  0  0  0  0  0  0  0  0
  139.4410   71.0240  223.9040 C   0  0  0  0  0  0  0  0  0  0  0  0
  139.0990   69.6870  223.8880 C   0  0  0  0  0  0  0  0  0  0  0  0
  139.3840   68.9510  225.0360 C   0  0  0  0  0  0  0  0  0  0  0  0
  139.9870   69.5540  226.1400 C   0  0  0  0  0  0  0  0  0  0  0  0
  140.2710   68.8290  227.2800 C   0  0  0  0  0  0  0  0  0  0  0  0
  140.8670   69.4510  228.3530 C   0  0  0  0  0  0  0  0  0  0  0  0
  141.1980   70.8040  228.3320 C   0  0  0  0  0  0  0  0  0  0  0  0
  140.9010   71.5040  227.1780 C   0  0  0  0  0  0  0  0  0  0  0  0
  140.3050   70.8910  226.0980 C   0  0  0  0  0  0  0  0  0  0  0  0
  140.0190   71.5790  224.9750 N   0  0  0  0  0  0  0  0  0  0  0  0
  137.3730   72.6220  223.5420 H   0  0  0  0  0  0  0  0  0  0  0  0
  138.4001   73.3509  220.7629 H   0  0  0  0  0  0  0  0  0  0  0  0
  136.6504   73.1794  221.1887 H   0  0  0  0  0  0  0  0  0  0  0  0
  140.1032   74.4225  220.7306 H   0  0  0  0  0  0  0  0  0  0  0  0
  139.4949   75.6596  219.6578 H   0  0  0  0  0  0  0  0  0  0  0  0
  141.7294   76.6012  220.5091 H   0  0  0  0  0  0  0  0  0  0  0  0
  142.2000   76.3300  222.6310 H   0  0  0  0  0  0  0  0  0  0  0  0
  139.7241   78.1830  220.6495 H   0  0  0  0  0  0  0  0  0  0  0  0
  142.7380   78.3156  221.3021 H   0  0  0  0  0  0  0  0  0  0  0  0
  143.9086   80.1403  222.5361 H   0  0  0  0  0  0  0  0  0  0  0  0
  142.6178   81.5120  224.1550 H   0  0  0  0  0  0  0  0  0  0  0  0
  140.2056   81.0991  224.5552 H   0  0  0  0  0  0  0  0  0  0  0  0
  139.0730   79.2795  223.3067 H   0  0  0  0  0  0  0  0  0  0  0  0
  139.2987   76.8330  223.3831 H   0  0  0  0  0  0  0  0  0  0  0  0
  138.0796   77.6391  222.4196 H   0  0  0  0  0  0  0  0  0  0  0  0
  138.6239   69.2244  223.0103 H   0  0  0  0  0  0  0  0  0  0  0  0
  139.1304   67.8812  225.0723 H   0  0  0  0  0  0  0  0  0  0  0  0
  140.0219   67.7588  227.3304 H   0  0  0  0  0  0  0  0  0  0  0  0
  141.0889   68.8618  229.2550 H   0  0  0  0  0  0  0  0  0  0  0  0
  141.6741   71.2930  229.1947 H   0  0  0  0  0  0  0  0  0  0  0  0
  141.1461   72.5748  227.1206 H   0  0  0  0  0  0  0  0  0  0  0  0
  1  2  2  0
  2  3  1  0
  3  4  1  0
  4  5  1  0
  5  6  2  0
  5  7  1  0
  7  8  1  0
  8  9  1  0
  9 10  1  0
  9 11  1  0
 11 12  1  0
 12 13  2  0
 13 14  1  0
 14 15  2  0
 15 16  1  0
 16 17  2  0
 11 18  1  0
  2 19  1  0
 19 20  2  0
 20 21  1  0
 21 22  2  0
 22 23  1  0
 23 24  2  0
 24 25  1  0
 25 26  2  0
 26 27  1  0
 27 28  2  0
 18  7  1  0
 28 19  1  0
 17 12  1  0
 27 22  1  0
  3 29  1  0
  4 30  1  0
  4 31  1  0
  8 32  1  0
  8 33  1  0
  9 34  1  6
 10 35  1  0
 11 36  1  6
 13 37  1  0
 14 38  1  0
 15 39  1  0
 16 40  1  0
 17 41  1  0
 18 42  1  0
 18 43  1  0
 20 44  1  0
 21 45  1  0
 23 46  1  0
 24 47  1  0
 25 48  1  0
 26 49  1  0
M  END
>  <smiles>  (42) 
O=C(NCC(=O)N1C[C@H](O)[C@H](c2ccccc2)C1)c1ccc2ccccc2n1

>  <score_type>  (42) 
oracle

>  <origin>  (42) 
autodockgpu

>  <m_score__min__energy>  (42) 
-9.0199999999999996

>  <m_primary>  (42) 
energy

>  <rmsd>  (42) 
2.9343420273024514

>  <m_score__min__rmsd>  (42) 
2.9343420273024514

>  <meeko>  (42) 
{"free_energy": -8.95, "intermolecular_energy": -10.74, "internal_energy": -1.19, "cluster_size": 18, "cluster_id": 2, "rank_in_cluster": 4}

>  <energy>  (42) 
-7.63

>  <cluster_rmsd>  (42) 
0.78

>  <cluster>  (42) 
3

$$$$

     RDKit          3D

 49 52  0  0  0  0  0  0  0  0999 V2000
  139.0610   70.6490  221.3440 O   0  0  0  0  0  0  0  0  0  0  0  0
  139.3710   71.3490  222.3670 C   0  0  0  0  0  0  0  0  0  0  0  0
  139.4960   72.7610  222.2660 N   0  0  0  0  0  0  0  0  0  0  0  0
  139.2880   73.4790  221.0340 C   0  0  0  0  0  0  0  0  0  0  0  0
  140.3000   74.5710  220.8680 C   0  0  0  0  0  0  0  0  0  0  0  0
  141.3620   74.3200  220.2400 O   0  0  0  0  0  0  0  0  0  0  0  0
  140.0030   75.8400  221.4330 N   0  0  0  0  0  0  0  0  0  0  0  0
  138.7120   76.4940  221.5360 C   0  0  0  0  0  0  0  0  0  0  0  0
  139.0970   77.9410  221.7680 C   0  0  2  0  0  0  0  0  0  0  0  0
  139.5300   78.4410  220.5410 O   0  0  0  0  0  0  0  0  0  0  0  0
  140.2410   77.7520  222.7410 C   0  0  2  0  0  0  0  0  0  0  0  0
  140.9840   78.9780  223.0440 C   0  0  0  0  0  0  0  0  0  0  0  0
  140.4160   80.1330  223.5490 C   0  0  0  0  0  0  0  0  0  0  0  0
  141.1750   81.2700  223.8190 C   0  0  0  0  0  0  0  0  0  0  0  0
  142.5340   81.2170  223.5650 C   0  0  0  0  0  0  0  0  0  0  0  0
  143.1460   80.0860  223.0600 C   0  0  0  0  0  0  0  0  0  0  0  0
  142.3590   78.9780  222.8060 C   0  0  0  0  0  0  0  0  0  0  0  0
  141.0400   76.6960  222.0190 C   0  0  0  0  0  0  0  0  0  0  0  0
  139.6000   70.6910  223.6680 C   0  0  0  0  0  0  0  0  0  0  0  0
  139.2640   69.3600  223.8070 C   0  0  0  0  0  0  0  0  0  0  0  0
  139.4970   68.7780  225.0510 C   0  0  0  0  0  0  0  0  0  0  0  0
  140.0450   69.5230  226.0960 C   0  0  0  0  0  0  0  0  0  0  0  0
  140.2790   68.9510  227.3320 C   0  0  0  0  0  0  0  0  0  0  0  0
  140.8210   69.7100  228.3420 C   0  0  0  0  0  0  0  0  0  0  0  0
  141.1480   71.0530  228.1650 C   0  0  0  0  0  0  0  0  0  0  0  0
  140.9040   71.5970  226.9180 C   0  0  0  0  0  0  0  0  0  0  0  0
  140.3610   70.8460  225.8990 C   0  0  0  0  0  0  0  0  0  0  0  0
  140.1250   71.3830  224.6850 N   0  0  0  0  0  0  0  0  0  0  0  0
  139.7550   73.2750  223.1590 H   0  0  0  0  0  0  0  0  0  0  0  0
  139.3745   72.7780  220.1908 H   0  0  0  0  0  0  0  0  0  0  0  0
  138.2861   73.9324  221.0590 H   0  0  0  0  0  0  0  0  0  0  0  0
  138.1332   76.3803  220.6075 H   0  0  0  0  0  0  0  0  0  0  0  0
  138.0707   76.0779  222.3270 H   0  0  0  0  0  0  0  0  0  0  0  0
  138.3229   78.6282  222.1402 H   0  0  0  0  0  0  0  0  0  0  0  0
  139.8200   77.6880  219.9790 H   0  0  0  0  0  0  0  0  0  0  0  0
  139.9293   77.4621  223.7553 H   0  0  0  0  0  0  0  0  0  0  0  0
  139.3335   80.1550  223.7433 H   0  0  0  0  0  0  0  0  0  0  0  0
  140.7083   82.1811  224.2215 H   0  0  0  0  0  0  0  0  0  0  0  0
  143.1482   82.1057  223.7722 H   0  0  0  0  0  0  0  0  0  0  0  0
  144.2285   80.0676  222.8655 H   0  0  0  0  0  0  0  0  0  0  0  0
  142.8309   78.0692  222.4042 H   0  0  0  0  0  0  0  0  0  0  0  0
  141.6713   77.1436  221.2373 H   0  0  0  0  0  0  0  0  0  0  0  0
  141.7314   76.1500  222.6777 H   0  0  0  0  0  0  0  0  0  0  0  0
  138.8323   68.7853  222.9744 H   0  0  0  0  0  0  0  0  0  0  0  0
  139.2461   67.7191  225.2114 H   0  0  0  0  0  0  0  0  0  0  0  0
  140.0327   67.8933  227.5069 H   0  0  0  0  0  0  0  0  0  0  0  0
  141.0023   69.2423  229.3210 H   0  0  0  0  0  0  0  0  0  0  0  0
  141.5802   71.6524  228.9798 H   0  0  0  0  0  0  0  0  0  0  0  0
  141.1490   72.6537  226.7352 H   0  0  0  0  0  0  0  0  0  0  0  0
  1  2  2  0
  2  3  1  0
  3  4  1  0
  4  5  1  0
  5  6  2  0
  5  7  1  0
  7  8  1  0
  8  9  1  0
  9 10  1  0
  9 11  1  0
 11 12  1  0
 12 13  2  0
 13 14  1  0
 14 15  2  0
 15 16  1  0
 16 17  2  0
 11 18  1  0
  2 19  1  0
 19 20  2  0
 20 21  1  0
 21 22  2  0
 22 23  1  0
 23 24  2  0
 24 25  1  0
 25 26  2  0
 26 27  1  0
 27 28  2  0
 18  7  1  0
 28 19  1  0
 17 12  1  0
 27 22  1  0
  3 29  1  0
  4 30  1  0
  4 31  1  0
  8 32  1  0
  8 33  1  0
  9 34  1  1
 10 35  1  0
 11 36  1  1
 13 37  1  0
 14 38  1  0
 15 39  1  0
 16 40  1  0
 17 41  1  0
 18 42  1  0
 18 43  1  0
 20 44  1  0
 21 45  1  0
 23 46  1  0
 24 47  1  0
 25 48  1  0
 26 49  1  0
M  END
>  <smiles>  (43) 
O=C(NCC(=O)N1C[C@H](O)[C@H](c2ccccc2)C1)c1ccc2ccccc2n1

>  <score_type>  (43) 
oracle

>  <origin>  (43) 
autodockgpu

>  <m_score__min__energy>  (43) 
-9.0199999999999996

>  <m_primary>  (43) 
energy

>  <rmsd>  (43) 
3.2194330780626568

>  <m_score__min__rmsd>  (43) 
3.2194330780626568

>  <meeko>  (43) 
{"free_energy": -8.33, "intermolecular_energy": -10.12, "internal_energy": -1.4, "cluster_size": 18, "cluster_id": 2, "rank_in_cluster": 16}

>  <energy>  (43) 
-7.62

>  <cluster_rmsd>  (43) 
0.79

>  <cluster>  (43) 
3

$$$$

     RDKit          3D

 49 52  0  0  0  0  0  0  0  0999 V2000
  139.3450   74.6630  222.7080 O   0  0  0  0  0  0  0  0  0  0  0  0
  139.6260   75.5740  221.8580 C   0  0  0  0  0  0  0  0  0  0  0  0
  139.7300   75.2650  220.4750 N   0  0  0  0  0  0  0  0  0  0  0  0
  139.5310   73.9360  219.9530 C   0  0  0  0  0  0  0  0  0  0  0  0
  140.5580   72.9860  220.4890 C   0  0  0  0  0  0  0  0  0  0  0  0
  141.7150   73.0050  219.9960 O   0  0  0  0  0  0  0  0  0  0  0  0
  140.1630   72.1070  221.5350 N   0  0  0  0  0  0  0  0  0  0  0  0
  139.1700   71.0510  221.4890 C   0  0  0  0  0  0  0  0  0  0  0  0
  138.8710   70.8220  222.9570 C   0  0  2  0  0  0  0  0  0  0  0  0
  138.0770   71.8890  223.3740 O   0  0  0  0  0  0  0  0  0  0  0  0
  140.2720   70.9010  223.5220 C   0  0  2  0  0  0  0  0  0  0  0  0
  140.3320   70.9010  224.9870 C   0  0  0  0  0  0  0  0  0  0  0  0
  141.0100   71.8400  225.7420 C   0  0  0  0  0  0  0  0  0  0  0  0
  141.0310   71.7890  227.1350 C   0  0  0  0  0  0  0  0  0  0  0  0
  140.3460   70.7590  227.7560 C   0  0  0  0  0  0  0  0  0  0  0  0
  139.6560   69.7980  227.0430 C   0  0  0  0  0  0  0  0  0  0  0  0
  139.6590   69.8830  225.6630 C   0  0  0  0  0  0  0  0  0  0  0  0
  140.7560   72.1740  222.8750 C   0  0  0  0  0  0  0  0  0  0  0  0
  139.8440   76.9620  222.3110 C   0  0  0  0  0  0  0  0  0  0  0  0
  138.7500   77.7210  222.6730 C   0  0  0  0  0  0  0  0  0  0  0  0
  139.0010   79.0250  223.0940 C   0  0  0  0  0  0  0  0  0  0  0  0
  140.3040   79.5230  223.1410 C   0  0  0  0  0  0  0  0  0  0  0  0
  140.5580   80.8140  223.5570 C   0  0  0  0  0  0  0  0  0  0  0  0
  141.8530   81.2760  223.5930 C   0  0  0  0  0  0  0  0  0  0  0  0
  142.9330   80.4800  223.2200 C   0  0  0  0  0  0  0  0  0  0  0  0
  142.6480   79.1910  222.8080 C   0  0  0  0  0  0  0  0  0  0  0  0
  141.3550   78.7180  222.7680 C   0  0  0  0  0  0  0  0  0  0  0  0
  141.0840   77.4600  222.3650 N   0  0  0  0  0  0  0  0  0  0  0  0
  139.9660   76.0750  219.8290 H   0  0  0  0  0  0  0  0  0  0  0  0
  138.5299   73.5830  220.2415 H   0  0  0  0  0  0  0  0  0  0  0  0
  139.6275   73.9730  218.8579 H   0  0  0  0  0  0  0  0  0  0  0  0
  138.2701   71.3742  220.9452 H   0  0  0  0  0  0  0  0  0  0  0  0
  139.5131   70.1473  220.9640 H   0  0  0  0  0  0  0  0  0  0  0  0
  138.3434   69.8989  223.2390 H   0  0  0  0  0  0  0  0  0  0  0  0
  138.5370   72.7290  223.1520 H   0  0  0  0  0  0  0  0  0  0  0  0
  140.8976   70.0228  223.3041 H   0  0  0  0  0  0  0  0  0  0  0  0
  141.5483   72.6505  225.2289 H   0  0  0  0  0  0  0  0  0  0  0  0
  141.5749   72.5436  227.7221 H   0  0  0  0  0  0  0  0  0  0  0  0
  140.3512   70.7039  228.8546 H   0  0  0  0  0  0  0  0  0  0  0  0
  139.1193   68.9880  227.5586 H   0  0  0  0  0  0  0  0  0  0  0  0
  139.1144   69.1252  225.0806 H   0  0  0  0  0  0  0  0  0  0  0  0
  140.3969   73.0577  223.4229 H   0  0  0  0  0  0  0  0  0  0  0  0
  141.8522   72.2643  222.8607 H   0  0  0  0  0  0  0  0  0  0  0  0
  137.7283   77.3157  222.6312 H   0  0  0  0  0  0  0  0  0  0  0  0
  138.1618   79.6702  223.3931 H   0  0  0  0  0  0  0  0  0  0  0  0
  139.7286   81.4706  223.8585 H   0  0  0  0  0  0  0  0  0  0  0  0
  142.0415   82.3070  223.9270 H   0  0  0  0  0  0  0  0  0  0  0  0
  143.9652   80.8590  223.2516 H   0  0  0  0  0  0  0  0  0  0  0  0
  143.4724   78.5286  222.5054 H   0  0  0  0  0  0  0  0  0  0  0  0
  1  2  2  0
  2  3  1  0
  3  4  1  0
  4  5  1  0
  5  6  2  0
  5  7  1  0
  7  8  1  0
  8  9  1  0
  9 10  1  0
  9 11  1  0
 11 12  1  0
 12 13  2  0
 13 14  1  0
 14 15  2  0
 15 16  1  0
 16 17  2  0
 11 18  1  0
  2 19  1  0
 19 20  2  0
 20 21  1  0
 21 22  2  0
 22 23  1  0
 23 24  2  0
 24 25  1  0
 25 26  2  0
 26 27  1  0
 27 28  2  0
 18  7  1  0
 28 19  1  0
 17 12  1  0
 27 22  1  0
  3 29  1  0
  4 30  1  0
  4 31  1  0
  8 32  1  0
  8 33  1  0
  9 34  1  6
 10 35  1  0
 11 36  1  6
 13 37  1  0
 14 38  1  0
 15 39  1  0
 16 40  1  0
 17 41  1  0
 18 42  1  0
 18 43  1  0
 20 44  1  0
 21 45  1  0
 23 46  1  0
 24 47  1  0
 25 48  1  0
 26 49  1  0
M  END
>  <smiles>  (44) 
O=C(NCC(=O)N1C[C@H](O)[C@H](c2ccccc2)C1)c1ccc2ccccc2n1

>  <score_type>  (44) 
oracle

>  <origin>  (44) 
autodockgpu

>  <m_score__min__energy>  (44) 
-9.0199999999999996

>  <m_primary>  (44) 
energy

>  <rmsd>  (44) 
8.101932117751888

>  <m_score__min__rmsd>  (44) 
8.101932117751888

>  <meeko>  (44) 
{"free_energy": -8.2, "intermolecular_energy": -9.99, "internal_energy": -2.01, "cluster_size": 21, "cluster_id": 1, "rank_in_cluster": 20}

>  <energy>  (44) 
-7.62

>  <cluster_rmsd>  (44) 
0.83

>  <cluster>  (44) 
3

$$$$

     RDKit          3D

 49 52  0  0  0  0  0  0  0  0999 V2000
  139.5590   70.8010  221.2990 O   0  0  0  0  0  0  0  0  0  0  0  0
  139.5430   71.4490  222.3990 C   0  0  0  0  0  0  0  0  0  0  0  0
  139.3900   72.8620  222.4040 N   0  0  0  0  0  0  0  0  0  0  0  0
  139.2470   73.6370  221.1980 C   0  0  0  0  0  0  0  0  0  0  0  0
  140.5820   74.0590  220.6660 C   0  0  0  0  0  0  0  0  0  0  0  0
  141.4210   73.1700  220.3660 O   0  0  0  0  0  0  0  0  0  0  0  0
  140.8300   75.4520  220.5280 N   0  0  0  0  0  0  0  0  0  0  0  0
  141.0080   76.2120  219.3060 C   0  0  0  0  0  0  0  0  0  0  0  0
  141.6900   77.4710  219.8030 C   0  0  2  0  0  0  0  0  0  0  0  0
  143.0130   77.1280  220.0740 O   0  0  0  0  0  0  0  0  0  0  0  0
  140.8950   77.7150  221.0670 C   0  0  2  0  0  0  0  0  0  0  0  0
  141.4250   78.7870  221.9150 C   0  0  0  0  0  0  0  0  0  0  0  0
  141.6980   78.6550  223.2640 C   0  0  0  0  0  0  0  0  0  0  0  0
  142.2020   79.7110  224.0210 C   0  0  0  0  0  0  0  0  0  0  0  0
  142.4290   80.9160  223.3800 C   0  0  0  0  0  0  0  0  0  0  0  0
  142.1720   81.0950  222.0340 C   0  0  0  0  0  0  0  0  0  0  0  0
  141.6720   80.0230  221.3180 C   0  0  0  0  0  0  0  0  0  0  0  0
  140.9440   76.3420  221.6880 C   0  0  0  0  0  0  0  0  0  0  0  0
  139.6830   70.7300  223.6810 C   0  0  0  0  0  0  0  0  0  0  0  0
  139.2680   69.4150  223.7520 C   0  0  0  0  0  0  0  0  0  0  0  0
  139.4180   68.7740  224.9800 C   0  0  0  0  0  0  0  0  0  0  0  0
  139.9640   69.4450  226.0750 C   0  0  0  0  0  0  0  0  0  0  0  0
  140.1160   68.8140  227.2940 C   0  0  0  0  0  0  0  0  0  0  0  0
  140.6580   69.5020  228.3540 C   0  0  0  0  0  0  0  0  0  0  0  0
  141.0660   70.8290  228.2440 C   0  0  0  0  0  0  0  0  0  0  0  0
  140.9030   71.4340  227.0120 C   0  0  0  0  0  0  0  0  0  0  0  0
  140.3610   70.7550  225.9430 C   0  0  0  0  0  0  0  0  0  0  0  0
  140.2050   71.3510  224.7430 N   0  0  0  0  0  0  0  0  0  0  0  0
  139.3850   73.3310  223.3580 H   0  0  0  0  0  0  0  0  0  0  0  0
  138.7339   73.0285  220.4388 H   0  0  0  0  0  0  0  0  0  0  0  0
  138.6626   74.5395  221.4302 H   0  0  0  0  0  0  0  0  0  0  0  0
  141.6439   75.6710  218.5898 H   0  0  0  0  0  0  0  0  0  0  0  0
  140.0686   76.4042  218.7669 H   0  0  0  0  0  0  0  0  0  0  0  0
  141.7147   78.3437  219.1338 H   0  0  0  0  0  0  0  0  0  0  0  0
  143.6010   77.8310  219.7160 H   0  0  0  0  0  0  0  0  0  0  0  0
  139.8762   78.0925  220.8953 H   0  0  0  0  0  0  0  0  0  0  0  0
  141.5119   77.6880  223.7542 H   0  0  0  0  0  0  0  0  0  0  0  0
  142.4126   79.5904  225.0939 H   0  0  0  0  0  0  0  0  0  0  0  0
  142.8276   81.7603  223.9616 H   0  0  0  0  0  0  0  0  0  0  0  0
  142.3599   82.0628  221.5461 H   0  0  0  0  0  0  0  0  0  0  0  0
  141.4628   80.1488  220.2454 H   0  0  0  0  0  0  0  0  0  0  0  0
  141.8945   76.1813  222.2179 H   0  0  0  0  0  0  0  0  0  0  0  0
  140.1581   76.1776  222.4399 H   0  0  0  0  0  0  0  0  0  0  0  0
  138.8394   68.8981  222.8807 H   0  0  0  0  0  0  0  0  0  0  0  0
  139.1021   67.7259  225.0877 H   0  0  0  0  0  0  0  0  0  0  0  0
  139.8049   67.7660  227.4164 H   0  0  0  0  0  0  0  0  0  0  0  0
  140.7730   68.9879  229.3196 H   0  0  0  0  0  0  0  0  0  0  0  0
  141.4981   71.3707  229.0983 H   0  0  0  0  0  0  0  0  0  0  0  0
  141.2131   72.4814  226.8822 H   0  0  0  0  0  0  0  0  0  0  0  0
  1  2  2  0
  2  3  1  0
  3  4  1  0
  4  5  1  0
  5  6  2  0
  5  7  1  0
  7  8  1  0
  8  9  1  0
  9 10  1  0
  9 11  1  0
 11 12  1  0
 12 13  2  0
 13 14  1  0
 14 15  2  0
 15 16  1  0
 16 17  2  0
 11 18  1  0
  2 19  1  0
 19 20  2  0
 20 21  1  0
 21 22  2  0
 22 23  1  0
 23 24  2  0
 24 25  1  0
 25 26  2  0
 26 27  1  0
 27 28  2  0
 18  7  1  0
 28 19  1  0
 17 12  1  0
 27 22  1  0
  3 29  1  0
  4 30  1  0
  4 31  1  0
  8 32  1  0
  8 33  1  0
  9 34  1  6
 10 35  1  0
 11 36  1  6
 13 37  1  0
 14 38  1  0
 15 39  1  0
 16 40  1  0
 17 41  1  0
 18 42  1  0
 18 43  1  0
 20 44  1  0
 21 45  1  0
 23 46  1  0
 24 47  1  0
 25 48  1  0
 26 49  1  0
M  END
>  <smiles>  (45) 
O=C(NCC(=O)N1C[C@H](O)[C@H](c2ccccc2)C1)c1ccc2ccccc2n1

>  <score_type>  (45) 
oracle

>  <origin>  (45) 
autodockgpu

>  <m_score__min__energy>  (45) 
-9.0199999999999996

>  <m_primary>  (45) 
energy

>  <rmsd>  (45) 
2.584165765982937

>  <m_score__min__rmsd>  (45) 
2.584165765982937

>  <meeko>  (45) 
{"free_energy": -8.93, "intermolecular_energy": -10.72, "internal_energy": -1.26, "cluster_size": 18, "cluster_id": 2, "rank_in_cluster": 5}

>  <energy>  (45) 
-7.6

>  <cluster_rmsd>  (45) 
0.83

>  <cluster>  (45) 
3

$$$$

     RDKit          3D

 49 52  0  0  0  0  0  0  0  0999 V2000
  138.8190   70.8620  221.4350 O   0  0  0  0  0  0  0  0  0  0  0  0
  139.1570   71.5820  222.4350 C   0  0  0  0  0  0  0  0  0  0  0  0
  139.2230   72.9960  222.3180 N   0  0  0  0  0  0  0  0  0  0  0  0
  138.9200   73.6960  221.0950 C   0  0  0  0  0  0  0  0  0  0  0  0
  140.1680   73.9920  220.3200 C   0  0  0  0  0  0  0  0  0  0  0  0
  140.7750   73.0390  219.7660 O   0  0  0  0  0  0  0  0  0  0  0  0
  140.6000   75.3440  220.2540 N   0  0  0  0  0  0  0  0  0  0  0  0
  141.0100   76.0960  219.0840 C   0  0  0  0  0  0  0  0  0  0  0  0
  141.7820   77.2510  219.6930 C   0  0  2  0  0  0  0  0  0  0  0  0
  143.0120   76.7380  220.1000 O   0  0  0  0  0  0  0  0  0  0  0  0
  140.8820   77.5720  220.8660 C   0  0  2  0  0  0  0  0  0  0  0  0
  141.4400   78.5540  221.8010 C   0  0  0  0  0  0  0  0  0  0  0  0
  142.0620   79.7300  221.4230 C   0  0  0  0  0  0  0  0  0  0  0  0
  142.5720   80.6270  222.3590 C   0  0  0  0  0  0  0  0  0  0  0  0
  142.4410   80.3100  223.6990 C   0  0  0  0  0  0  0  0  0  0  0  0
  141.8280   79.1460  224.1250 C   0  0  0  0  0  0  0  0  0  0  0  0
  141.3340   78.2820  223.1650 C   0  0  0  0  0  0  0  0  0  0  0  0
  140.6890   76.1940  221.4460 C   0  0  0  0  0  0  0  0  0  0  0  0
  139.4820   70.9440  223.7260 C   0  0  0  0  0  0  0  0  0  0  0  0
  139.2470   69.5920  223.8760 C   0  0  0  0  0  0  0  0  0  0  0  0
  139.5680   69.0310  225.1100 C   0  0  0  0  0  0  0  0  0  0  0  0
  140.1010   69.8140  226.1340 C   0  0  0  0  0  0  0  0  0  0  0  0
  140.4220   69.2630  227.3590 C   0  0  0  0  0  0  0  0  0  0  0  0
  140.9460   70.0600  228.3490 C   0  0  0  0  0  0  0  0  0  0  0  0
  141.1700   71.4220  228.1600 C   0  0  0  0  0  0  0  0  0  0  0  0
  140.8400   71.9450  226.9240 C   0  0  0  0  0  0  0  0  0  0  0  0
  140.3140   71.1560  225.9260 C   0  0  0  0  0  0  0  0  0  0  0  0
  139.9950   71.6740  224.7220 N   0  0  0  0  0  0  0  0  0  0  0  0
  139.5100   73.5270  223.1930 H   0  0  0  0  0  0  0  0  0  0  0  0
  138.2542   73.0729  220.4798 H   0  0  0  0  0  0  0  0  0  0  0  0
  138.4320   74.6485  221.3491 H   0  0  0  0  0  0  0  0  0  0  0  0
  141.6519   75.4909  218.4268 H   0  0  0  0  0  0  0  0  0  0  0  0
  140.1696   76.4149  218.4499 H   0  0  0  0  0  0  0  0  0  0  0  0
  141.9926   78.1247  219.0588 H   0  0  0  0  0  0  0  0  0  0  0  0
  143.6210   77.4880  220.2810 H   0  0  0  0  0  0  0  0  0  0  0  0
  139.9440   78.0773  220.5925 H   0  0  0  0  0  0  0  0  0  0  0  0
  142.1567   79.9639  220.3523 H   0  0  0  0  0  0  0  0  0  0  0  0
  143.0637   81.5586  222.0422 H   0  0  0  0  0  0  0  0  0  0  0  0
  142.8379   81.0075  224.4513 H   0  0  0  0  0  0  0  0  0  0  0  0
  141.7360   78.9141  225.1963 H   0  0  0  0  0  0  0  0  0  0  0  0
  140.8425   77.3520  223.4867 H   0  0  0  0  0  0  0  0  0  0  0  0
  141.5449   75.9059  222.0740 H   0  0  0  0  0  0  0  0  0  0  0  0
  139.8073   76.1182  222.0994 H   0  0  0  0  0  0  0  0  0  0  0  0
  138.8262   68.9864  223.0598 H   0  0  0  0  0  0  0  0  0  0  0  0
  139.3991   67.9573  225.2790 H   0  0  0  0  0  0  0  0  0  0  0  0
  140.2590   68.1906  227.5418 H   0  0  0  0  0  0  0  0  0  0  0  0
  141.1961   69.6084  229.3203 H   0  0  0  0  0  0  0  0  0  0  0  0
  141.5902   72.0521  228.9578 H   0  0  0  0  0  0  0  0  0  0  0  0
  141.0013   73.0163  226.7333 H   0  0  0  0  0  0  0  0  0  0  0  0
  1  2  2  0
  2  3  1  0
  3  4  1  0
  4  5  1  0
  5  6  2  0
  5  7  1  0
  7  8  1  0
  8  9  1  0
  9 10  1  0
  9 11  1  0
 11 12  1  0
 12 13  2  0
 13 14  1  0
 14 15  2  0
 15 16  1  0
 16 17  2  0
 11 18  1  0
  2 19  1  0
 19 20  2  0
 20 21  1  0
 21 22  2  0
 22 23  1  0
 23 24  2  0
 24 25  1  0
 25 26  2  0
 26 27  1  0
 27 28  2  0
 18  7  1  0
 28 19  1  0
 17 12  1  0
 27 22  1  0
  3 29  1  0
  4 30  1  0
  4 31  1  0
  8 32  1  0
  8 33  1  0
  9 34  1  6
 10 35  1  0
 11 36  1  6
 13 37  1  0
 14 38  1  0
 15 39  1  0
 16 40  1  0
 17 41  1  0
 18 42  1  0
 18 43  1  0
 20 44  1  0
 21 45  1  0
 23 46  1  0
 24 47  1  0
 25 48  1  0
 26 49  1  0
M  END
>  <smiles>  (46) 
O=C(NCC(=O)N1C[C@H](O)[C@H](c2ccccc2)C1)c1ccc2ccccc2n1

>  <score_type>  (46) 
oracle

>  <origin>  (46) 
autodockgpu

>  <m_score__min__energy>  (46) 
-9.0199999999999996

>  <m_primary>  (46) 
energy

>  <rmsd>  (46) 
2.5150196123339965

>  <m_score__min__rmsd>  (46) 
2.5150196123339965

>  <meeko>  (46) 
{"free_energy": -8.88, "intermolecular_energy": -10.67, "internal_energy": -1.38, "cluster_size": 18, "cluster_id": 2, "rank_in_cluster": 6}

>  <energy>  (46) 
-7.56

>  <cluster_rmsd>  (46) 
0.79

>  <cluster>  (46) 
3

$$$$

     RDKit          3D

 49 52  0  0  0  0  0  0  0  0999 V2000
  137.6460   76.0010  222.3960 O   0  0  0  0  0  0  0  0  0  0  0  0
  138.8990   76.2450  222.3440 C   0  0  0  0  0  0  0  0  0  0  0  0
  139.8150   75.2420  221.9260 N   0  0  0  0  0  0  0  0  0  0  0  0
  139.4010   73.9160  221.5420 C   0  0  0  0  0  0  0  0  0  0  0  0
  140.4120   72.8930  221.9590 C   0  0  0  0  0  0  0  0  0  0  0  0
  141.6080   73.0440  221.5990 O   0  0  0  0  0  0  0  0  0  0  0  0
  139.9600   71.7970  222.7430 N   0  0  0  0  0  0  0  0  0  0  0  0
  138.8710   70.8820  222.4600 C   0  0  0  0  0  0  0  0  0  0  0  0
  138.5850   70.2840  223.8230 C   0  0  2  0  0  0  0  0  0  0  0  0
  137.9040   71.2590  224.5510 O   0  0  0  0  0  0  0  0  0  0  0  0
  139.9990   70.0860  224.3210 C   0  0  2  0  0  0  0  0  0  0  0  0
  140.0920   69.6790  225.7260 C   0  0  0  0  0  0  0  0  0  0  0  0
  140.3250   70.5450  226.7790 C   0  0  0  0  0  0  0  0  0  0  0  0
  140.4030   70.0990  228.0970 C   0  0  0  0  0  0  0  0  0  0  0  0
  140.2370   68.7460  228.3330 C   0  0  0  0  0  0  0  0  0  0  0  0
  140.0030   67.8420  227.3140 C   0  0  0  0  0  0  0  0  0  0  0  0
  139.9330   68.3250  226.0200 C   0  0  0  0  0  0  0  0  0  0  0  0
  140.5860   71.4420  224.0220 C   0  0  0  0  0  0  0  0  0  0  0  0
  139.4060   77.5800  222.7200 C   0  0  0  0  0  0  0  0  0  0  0  0
  138.4980   78.5660  223.0450 C   0  0  0  0  0  0  0  0  0  0  0  0
  139.0200   79.8100  223.3940 C   0  0  0  0  0  0  0  0  0  0  0  0
  140.3970   80.0290  223.4080 C   0  0  0  0  0  0  0  0  0  0  0  0
  140.9190   81.2600  223.7530 C   0  0  0  0  0  0  0  0  0  0  0  0
  142.2820   81.4460  223.7580 C   0  0  0  0  0  0  0  0  0  0  0  0
  143.1680   80.4240  223.4240 C   0  0  0  0  0  0  0  0  0  0  0  0
  142.6170   79.2030  223.0830 C   0  0  0  0  0  0  0  0  0  0  0  0
  141.2540   79.0070  223.0740 C   0  0  0  0  0  0  0  0  0  0  0  0
  140.7220   77.8130  222.7420 N   0  0  0  0  0  0  0  0  0  0  0  0
  140.8400   75.5200  221.9070 H   0  0  0  0  0  0  0  0  0  0  0  0
  138.4387   73.6868  222.0231 H   0  0  0  0  0  0  0  0  0  0  0  0
  139.3034   73.8842  220.4468 H   0  0  0  0  0  0  0  0  0  0  0  0
  137.9934   71.4171  222.0682 H   0  0  0  0  0  0  0  0  0  0  0  0
  139.1156   70.1317  221.6937 H   0  0  0  0  0  0  0  0  0  0  0  0
  137.9796   69.3667  223.8686 H   0  0  0  0  0  0  0  0  0  0  0  0
  138.0460   72.1300  224.1190 H   0  0  0  0  0  0  0  0  0  0  0  0
  140.5335   69.2517  223.8434 H   0  0  0  0  0  0  0  0  0  0  0  0
  140.4525   71.6174  226.5700 H   0  0  0  0  0  0  0  0  0  0  0  0
  140.5906   70.8004  228.9233 H   0  0  0  0  0  0  0  0  0  0  0  0
  140.2932   68.3768  229.3677 H   0  0  0  0  0  0  0  0  0  0  0  0
  139.8762   66.7701  227.5260 H   0  0  0  0  0  0  0  0  0  0  0  0
  139.7461   67.6193  225.1971 H   0  0  0  0  0  0  0  0  0  0  0  0
  140.3238   72.1680  224.8057 H   0  0  0  0  0  0  0  0  0  0  0  0
  141.6852   71.4395  223.9811 H   0  0  0  0  0  0  0  0  0  0  0  0
  137.4141   78.3794  223.0295 H   0  0  0  0  0  0  0  0  0  0  0  0
  138.3371   80.6297  223.6619 H   0  0  0  0  0  0  0  0  0  0  0  0
  140.2476   82.0885  224.0228 H   0  0  0  0  0  0  0  0  0  0  0  0
  142.6846   82.4317  224.0341 H   0  0  0  0  0  0  0  0  0  0  0  0
  144.2566   80.5816  223.4313 H   0  0  0  0  0  0  0  0  0  0  0  0
  143.2820   78.3695  222.8128 H   0  0  0  0  0  0  0  0  0  0  0  0
  1  2  2  0
  2  3  1  0
  3  4  1  0
  4  5  1  0
  5  6  2  0
  5  7  1  0
  7  8  1  0
  8  9  1  0
  9 10  1  0
  9 11  1  0
 11 12  1  0
 12 13  2  0
 13 14  1  0
 14 15  2  0
 15 16  1  0
 16 17  2  0
 11 18  1  0
  2 19  1  0
 19 20  2  0
 20 21  1  0
 21 22  2  0
 22 23  1  0
 23 24  2  0
 24 25  1  0
 25 26  2  0
 26 27  1  0
 27 28  2  0
 18  7  1  0
 28 19  1  0
 17 12  1  0
 27 22  1  0
  3 29  1  0
  4 30  1  0
  4 31  1  0
  8 32  1  0
  8 33  1  0
  9 34  1  6
 10 35  1  0
 11 36  1  6
 13 37  1  0
 14 38  1  0
 15 39  1  0
 16 40  1  0
 17 41  1  0
 18 42  1  0
 18 43  1  0
 20 44  1  0
 21 45  1  0
 23 46  1  0
 24 47  1  0
 25 48  1  0
 26 49  1  0
M  END
>  <smiles>  (47) 
O=C(NCC(=O)N1C[C@H](O)[C@H](c2ccccc2)C1)c1ccc2ccccc2n1

>  <score_type>  (47) 
oracle

>  <origin>  (47) 
autodockgpu

>  <m_score__min__energy>  (47) 
-9.0199999999999996

>  <m_primary>  (47) 
energy

>  <rmsd>  (47) 
8.723085243131413

>  <m_score__min__rmsd>  (47) 
8.723085243131413

>  <meeko>  (47) 
{"free_energy": -8.72, "intermolecular_energy": -10.51, "internal_energy": -1.58, "cluster_size": 21, "cluster_id": 1, "rank_in_cluster": 11}

>  <energy>  (47) 
-7.31

>  <cluster_rmsd>  (47) 
1.35

>  <cluster>  (47) 
3

$$$$

     RDKit          3D

 49 52  0  0  0  0  0  0  0  0999 V2000
  137.6770   76.1770  222.2650 O   0  0  0  0  0  0  0  0  0  0  0  0
  138.9350   76.3910  222.2300 C   0  0  0  0  0  0  0  0  0  0  0  0
  139.8280   75.3870  221.7680 N   0  0  0  0  0  0  0  0  0  0  0  0
  139.3830   74.0920  221.3190 C   0  0  0  0  0  0  0  0  0  0  0  0
  140.3890   73.0320  221.6490 C   0  0  0  0  0  0  0  0  0  0  0  0
  141.5420   73.1170  221.1510 O   0  0  0  0  0  0  0  0  0  0  0  0
  139.9820   71.9790  222.5130 N   0  0  0  0  0  0  0  0  0  0  0  0
  138.9750   70.9630  222.2720 C   0  0  0  0  0  0  0  0  0  0  0  0
  138.6710   70.4680  223.6720 C   0  0  2  0  0  0  0  0  0  0  0  0
  137.8900   71.4490  224.2810 O   0  0  0  0  0  0  0  0  0  0  0  0
  140.0720   70.4220  224.2410 C   0  0  2  0  0  0  0  0  0  0  0  0
  140.1300   70.1490  225.6800 C   0  0  0  0  0  0  0  0  0  0  0  0
  140.3740   71.1050  226.6490 C   0  0  0  0  0  0  0  0  0  0  0  0
  140.4160   70.7860  228.0050 C   0  0  0  0  0  0  0  0  0  0  0  0
  140.2050   69.4660  228.3670 C   0  0  0  0  0  0  0  0  0  0  0  0
  139.9590   68.4770  227.4340 C   0  0  0  0  0  0  0  0  0  0  0  0
  139.9240   68.8340  226.0990 C   0  0  0  0  0  0  0  0  0  0  0  0
  140.5730   71.7870  223.8420 C   0  0  0  0  0  0  0  0  0  0  0  0
  139.4730   77.6940  222.6710 C   0  0  0  0  0  0  0  0  0  0  0  0
  138.5920   78.6640  223.1030 C   0  0  0  0  0  0  0  0  0  0  0  0
  139.1420   79.8770  223.5100 C   0  0  0  0  0  0  0  0  0  0  0  0
  140.5210   80.0830  223.4770 C   0  0  0  0  0  0  0  0  0  0  0  0
  141.0710   81.2840  223.8800 C   0  0  0  0  0  0  0  0  0  0  0  0
  142.4350   81.4570  223.8360 C   0  0  0  0  0  0  0  0  0  0  0  0
  143.2940   80.4540  223.3940 C   0  0  0  0  0  0  0  0  0  0  0  0
  142.7150   79.2630  222.9980 C   0  0  0  0  0  0  0  0  0  0  0  0
  141.3500   79.0790  223.0370 C   0  0  0  0  0  0  0  0  0  0  0  0
  140.7920   77.9140  222.6490 N   0  0  0  0  0  0  0  0  0  0  0  0
  140.8600   75.6390  221.7670 H   0  0  0  0  0  0  0  0  0  0  0  0
  138.4300   73.8488  221.8117 H   0  0  0  0  0  0  0  0  0  0  0  0
  139.2560   74.1254  220.2269 H   0  0  0  0  0  0  0  0  0  0  0  0
  138.0802   71.3938  221.7991 H   0  0  0  0  0  0  0  0  0  0  0  0
  139.3070   70.1687  221.5873 H   0  0  0  0  0  0  0  0  0  0  0  0
  138.1314   69.5153  223.7774 H   0  0  0  0  0  0  0  0  0  0  0  0
  138.0470   72.3050  223.8240 H   0  0  0  0  0  0  0  0  0  0  0  0
  140.6862   69.5914  223.8631 H   0  0  0  0  0  0  0  0  0  0  0  0
  140.5398   72.1477  226.3405 H   0  0  0  0  0  0  0  0  0  0  0  0
  140.6106   71.5583  228.7638 H   0  0  0  0  0  0  0  0  0  0  0  0
  140.2342   69.1959  229.4329 H   0  0  0  0  0  0  0  0  0  0  0  0
  139.7956   67.4346  227.7449 H   0  0  0  0  0  0  0  0  0  0  0  0
  139.7279   68.0582  225.3443 H   0  0  0  0  0  0  0  0  0  0  0  0
  140.2239   72.5575  224.5451 H   0  0  0  0  0  0  0  0  0  0  0  0
  141.6703   71.8641  223.8441 H   0  0  0  0  0  0  0  0  0  0  0  0
  137.5065   78.4876  223.1249 H   0  0  0  0  0  0  0  0  0  0  0  0
  138.4807   80.6825  223.8618 H   0  0  0  0  0  0  0  0  0  0  0  0
  140.4217   82.0981  224.2344 H   0  0  0  0  0  0  0  0  0  0  0  0
  142.8607   82.4181  224.1602 H   0  0  0  0  0  0  0  0  0  0  0  0
  144.3834   80.6027  223.3615 H   0  0  0  0  0  0  0  0  0  0  0  0
  143.3582   78.4439  222.6439 H   0  0  0  0  0  0  0  0  0  0  0  0
  1  2  2  0
  2  3  1  0
  3  4  1  0
  4  5  1  0
  5  6  2  0
  5  7  1  0
  7  8  1  0
  8  9  1  0
  9 10  1  0
  9 11  1  0
 11 12  1  0
 12 13  2  0
 13 14  1  0
 14 15  2  0
 15 16  1  0
 16 17  2  0
 11 18  1  0
  2 19  1  0
 19 20  2  0
 20 21  1  0
 21 22  2  0
 22 23  1  0
 23 24  2  0
 24 25  1  0
 25 26  2  0
 26 27  1  0
 27 28  2  0
 18  7  1  0
 28 19  1  0
 17 12  1  0
 27 22  1  0
  3 29  1  0
  4 30  1  0
  4 31  1  0
  8 32  1  0
  8 33  1  0
  9 34  1  6
 10 35  1  0
 11 36  1  6
 13 37  1  0
 14 38  1  0
 15 39  1  0
 16 40  1  0
 17 41  1  0
 18 42  1  0
 18 43  1  0
 20 44  1  0
 21 45  1  0
 23 46  1  0
 24 47  1  0
 25 48  1  0
 26 49  1  0
M  END
>  <smiles>  (48) 
O=C(NCC(=O)N1C[C@H](O)[C@H](c2ccccc2)C1)c1ccc2ccccc2n1

>  <score_type>  (48) 
oracle

>  <origin>  (48) 
autodockgpu

>  <m_score__min__energy>  (48) 
-9.0199999999999996

>  <m_primary>  (48) 
energy

>  <rmsd>  (48) 
8.640947750456096

>  <m_score__min__rmsd>  (48) 
8.640947750456096

>  <meeko>  (48) 
{"free_energy": -8.75, "intermolecular_energy": -10.54, "internal_energy": -1.55, "cluster_size": 21, "cluster_id": 1, "rank_in_cluster": 9}

>  <energy>  (48) 
-7.24

>  <cluster_rmsd>  (48) 
1.27

>  <cluster>  (48) 
3

$$$$

     RDKit          3D

 49 52  0  0  0  0  0  0  0  0999 V2000
  136.2460   71.2340  222.6630 O   0  0  0  0  0  0  0  0  0  0  0  0
  136.1880   72.4090  223.1600 C   0  0  0  0  0  0  0  0  0  0  0  0
  137.0560   73.4340  222.6970 N   0  0  0  0  0  0  0  0  0  0  0  0
  138.0350   73.2210  221.6620 C   0  0  0  0  0  0  0  0  0  0  0  0
  139.3840   72.9320  222.2460 C   0  0  0  0  0  0  0  0  0  0  0  0
  140.3180   73.7520  222.0460 O   0  0  0  0  0  0  0  0  0  0  0  0
  139.5360   71.7370  223.0000 N   0  0  0  0  0  0  0  0  0  0  0  0
  139.1270   70.3930  222.6400 C   0  0  0  0  0  0  0  0  0  0  0  0
  139.1130   69.6870  223.9810 C   0  0  2  0  0  0  0  0  0  0  0  0
  137.9710   70.1220  224.6510 O   0  0  0  0  0  0  0  0  0  0  0  0
  140.3780   70.2560  224.5860 C   0  0  2  0  0  0  0  0  0  0  0  0
  140.5800   69.9100  225.9960 C   0  0  0  0  0  0  0  0  0  0  0  0
  140.7930   70.8320  227.0050 C   0  0  0  0  0  0  0  0  0  0  0  0
  140.9780   70.4440  228.3310 C   0  0  0  0  0  0  0  0  0  0  0  0
  140.9440   69.0910  228.6200 C   0  0  0  0  0  0  0  0  0  0  0  0
  140.7350   68.1340  227.6450 C   0  0  0  0  0  0  0  0  0  0  0  0
  140.5550   68.5600  226.3430 C   0  0  0  0  0  0  0  0  0  0  0  0
  140.1680   71.7250  224.3240 C   0  0  0  0  0  0  0  0  0  0  0  0
  135.2110   72.7110  224.2250 C   0  0  0  0  0  0  0  0  0  0  0  0
  134.4650   71.6770  224.7530 C   0  0  0  0  0  0  0  0  0  0  0  0
  133.5550   72.0060  225.7560 C   0  0  0  0  0  0  0  0  0  0  0  0
  133.4180   73.3240  226.1920 C   0  0  0  0  0  0  0  0  0  0  0  0
  132.5180   73.6550  227.1860 C   0  0  0  0  0  0  0  0  0  0  0  0
  132.4070   74.9640  227.5950 C   0  0  0  0  0  0  0  0  0  0  0  0
  133.1780   75.9810  227.0380 C   0  0  0  0  0  0  0  0  0  0  0  0
  134.0700   75.6190  226.0460 C   0  0  0  0  0  0  0  0  0  0  0  0
  134.1900   74.3120  225.6280 C   0  0  0  0  0  0  0  0  0  0  0  0
  135.0630   73.9660  224.6600 N   0  0  0  0  0  0  0  0  0  0  0  0
  136.9480   74.3850  223.1580 H   0  0  0  0  0  0  0  0  0  0  0  0
  137.7220   72.3683  221.0416 H   0  0  0  0  0  0  0  0  0  0  0  0
  138.1060   74.1356  221.0550 H   0  0  0  0  0  0  0  0  0  0  0  0
  138.1284   70.3910  222.1788 H   0  0  0  0  0  0  0  0  0  0  0  0
  139.7860   69.9166  221.8993 H   0  0  0  0  0  0  0  0  0  0  0  0
  139.0885   68.5873  223.9851 H   0  0  0  0  0  0  0  0  0  0  0  0
  137.6670   70.9620  224.2410 H   0  0  0  0  0  0  0  0  0  0  0  0
  141.3068   69.8536  224.1554 H   0  0  0  0  0  0  0  0  0  0  0  0
  140.8171   71.9026  226.7536 H   0  0  0  0  0  0  0  0  0  0  0  0
  141.1456   71.1894  229.1224 H   0  0  0  0  0  0  0  0  0  0  0  0
  141.0882   68.7663  229.6610 H   0  0  0  0  0  0  0  0  0  0  0  0
  140.7126   67.0638  227.8983 H   0  0  0  0  0  0  0  0  0  0  0  0
  140.3867   67.8105  225.5556 H   0  0  0  0  0  0  0  0  0  0  0  0
  139.5070   72.1712  225.0817 H   0  0  0  0  0  0  0  0  0  0  0  0
  141.0985   72.3101  224.3655 H   0  0  0  0  0  0  0  0  0  0  0  0
  134.5830   70.6422  224.3990 H   0  0  0  0  0  0  0  0  0  0  0  0
  132.9373   71.2168  226.2093 H   0  0  0  0  0  0  0  0  0  0  0  0
  131.8934   72.8764  227.6481 H   0  0  0  0  0  0  0  0  0  0  0  0
  131.6863   75.2151  228.3872 H   0  0  0  0  0  0  0  0  0  0  0  0
  133.0816   77.0246  227.3721 H   0  0  0  0  0  0  0  0  0  0  0  0
  134.6983   76.3923  225.5798 H   0  0  0  0  0  0  0  0  0  0  0  0
  1  2  2  0
  2  3  1  0
  3  4  1  0
  4  5  1  0
  5  6  2  0
  5  7  1  0
  7  8  1  0
  8  9  1  0
  9 10  1  0
  9 11  1  0
 11 12  1  0
 12 13  2  0
 13 14  1  0
 14 15  2  0
 15 16  1  0
 16 17  2  0
 11 18  1  0
  2 19  1  0
 19 20  2  0
 20 21  1  0
 21 22  2  0
 22 23  1  0
 23 24  2  0
 24 25  1  0
 25 26  2  0
 26 27  1  0
 27 28  2  0
 18  7  1  0
 28 19  1  0
 17 12  1  0
 27 22  1  0
  3 29  1  0
  4 30  1  0
  4 31  1  0
  8 32  1  0
  8 33  1  0
  9 34  1  6
 10 35  1  0
 11 36  1  6
 13 37  1  0
 14 38  1  0
 15 39  1  0
 16 40  1  0
 17 41  1  0
 18 42  1  0
 18 43  1  0
 20 44  1  0
 21 45  1  0
 23 46  1  0
 24 47  1  0
 25 48  1  0
 26 49  1  0
M  END
>  <smiles>  (49) 
O=C(NCC(=O)N1C[C@H](O)[C@H](c2ccccc2)C1)c1ccc2ccccc2n1

>  <score_type>  (49) 
oracle

>  <origin>  (49) 
autodockgpu

>  <m_score__min__energy>  (49) 
-9.0199999999999996

>  <m_primary>  (49) 
energy

>  <rmsd>  (49) 
7.265978597625422

>  <m_score__min__rmsd>  (49) 
7.265978597625422

>  <meeko>  (49) 
{"free_energy": -7.66, "intermolecular_energy": -9.45, "internal_energy": -2.47, "cluster_size": 9, "cluster_id": 3, "rank_in_cluster": 2}

>  <energy>  (49) 
-6.97

>  <cluster_rmsd>  (49) 
0.0

>  <cluster>  (49) 
4

$$$$

     RDKit          3D

 49 52  0  0  0  0  0  0  0  0999 V2000
  139.1940   70.7350  221.3190 O   0  0  0  0  0  0  0  0  0  0  0  0
  139.3690   71.4140  222.3870 C   0  0  0  0  0  0  0  0  0  0  0  0
  139.3800   72.8340  222.3470 N   0  0  0  0  0  0  0  0  0  0  0  0
  139.1980   73.5840  221.1300 C   0  0  0  0  0  0  0  0  0  0  0  0
  140.5140   74.0340  220.5720 C   0  0  0  0  0  0  0  0  0  0  0  0
  141.3510   73.1630  220.2220 O   0  0  0  0  0  0  0  0  0  0  0  0
  140.7440   75.4330  220.4680 N   0  0  0  0  0  0  0  0  0  0  0  0
  140.8530   76.2350  219.2650 C   0  0  0  0  0  0  0  0  0  0  0  0
  141.5520   77.4830  219.7670 C   0  0  2  0  0  0  0  0  0  0  0  0
  142.8900   77.1410  219.9570 O   0  0  0  0  0  0  0  0  0  0  0  0
  140.8240   77.6780  221.0790 C   0  0  2  0  0  0  0  0  0  0  0  0
  141.3900   78.7250  221.9330 C   0  0  0  0  0  0  0  0  0  0  0  0
  141.8730   79.9360  221.4720 C   0  0  0  0  0  0  0  0  0  0  0  0
  142.4010   80.8950  222.3340 C   0  0  0  0  0  0  0  0  0  0  0  0
  142.4320   80.6040  223.6860 C   0  0  0  0  0  0  0  0  0  0  0  0
  141.9630   79.4070  224.1930 C   0  0  0  0  0  0  0  0  0  0  0  0
  141.4460   78.4810  223.3060 C   0  0  0  0  0  0  0  0  0  0  0  0
  140.9140   76.2850  221.6500 C   0  0  0  0  0  0  0  0  0  0  0  0
  139.5620   70.7220  223.6770 C   0  0  0  0  0  0  0  0  0  0  0  0
  139.1880   69.3980  223.7810 C   0  0  0  0  0  0  0  0  0  0  0  0
  139.3880   68.7840  225.0160 C   0  0  0  0  0  0  0  0  0  0  0  0
  139.9410   69.4900  226.0850 C   0  0  0  0  0  0  0  0  0  0  0  0
  140.1410   68.8860  227.3100 C   0  0  0  0  0  0  0  0  0  0  0  0
  140.6880   69.6090  228.3450 C   0  0  0  0  0  0  0  0  0  0  0  0
  141.0540   70.9450  228.2010 C   0  0  0  0  0  0  0  0  0  0  0  0
  140.8420   71.5220  226.9630 C   0  0  0  0  0  0  0  0  0  0  0  0
  140.2940   70.8090  225.9200 C   0  0  0  0  0  0  0  0  0  0  0  0
  140.0910   71.3780  224.7150 N   0  0  0  0  0  0  0  0  0  0  0  0
  139.5310   73.3290  223.2750 H   0  0  0  0  0  0  0  0  0  0  0  0
  138.6918   72.9484  220.3885 H   0  0  0  0  0  0  0  0  0  0  0  0
  138.5913   74.4735  221.3551 H   0  0  0  0  0  0  0  0  0  0  0  0
  141.4540   75.7233  218.4989 H   0  0  0  0  0  0  0  0  0  0  0  0
  139.8852   76.4375  218.7830 H   0  0  0  0  0  0  0  0  0  0  0  0
  141.5353   78.3775  219.1270 H   0  0  0  0  0  0  0  0  0  0  0  0
  143.0030   76.8070  220.8750 H   0  0  0  0  0  0  0  0  0  0  0  0
  139.7952   78.0528  220.9742 H   0  0  0  0  0  0  0  0  0  0  0  0
  141.8394   80.1484  220.3932 H   0  0  0  0  0  0  0  0  0  0  0  0
  142.7813   81.8536  221.9513 H   0  0  0  0  0  0  0  0  0  0  0  0
  142.8439   81.3506  224.3810 H   0  0  0  0  0  0  0  0  0  0  0  0
  142.0000   79.1968  225.2721 H   0  0  0  0  0  0  0  0  0  0  0  0
  141.0676   77.5237  223.6939 H   0  0  0  0  0  0  0  0  0  0  0  0
  141.8921   76.1141  222.1234 H   0  0  0  0  0  0  0  0  0  0  0  0
  140.1699   76.0896  222.4362 H   0  0  0  0  0  0  0  0  0  0  0  0
  138.7529   68.8533  222.9301 H   0  0  0  0  0  0  0  0  0  0  0  0
  139.1063   67.7291  225.1498 H   0  0  0  0  0  0  0  0  0  0  0  0
  139.8644   67.8317  227.4580 H   0  0  0  0  0  0  0  0  0  0  0  0
  140.8410   69.1164  229.3166 H   0  0  0  0  0  0  0  0  0  0  0  0
  141.4916   71.5147  229.0340 H   0  0  0  0  0  0  0  0  0  0  0  0
  141.1175   72.5755  226.8072 H   0  0  0  0  0  0  0  0  0  0  0  0
  1  2  2  0
  2  3  1  0
  3  4  1  0
  4  5  1  0
  5  6  2  0
  5  7  1  0
  7  8  1  0
  8  9  1  0
  9 10  1  0
  9 11  1  0
 11 12  1  0
 12 13  2  0
 13 14  1  0
 14 15  2  0
 15 16  1  0
 16 17  2  0
 11 18  1  0
  2 19  1  0
 19 20  2  0
 20 21  1  0
 21 22  2  0
 22 23  1  0
 23 24  2  0
 24 25  1  0
 25 26  2  0
 26 27  1  0
 27 28  2  0
 18  7  1  0
 28 19  1  0
 17 12  1  0
 27 22  1  0
  3 29  1  0
  4 30  1  0
  4 31  1  0
  8 32  1  0
  8 33  1  0
  9 34  1  6
 10 35  1  0
 11 36  1  6
 13 37  1  0
 14 38  1  0
 15 39  1  0
 16 40  1  0
 17 41  1  0
 18 42  1  0
 18 43  1  0
 20 44  1  0
 21 45  1  0
 23 46  1  0
 24 47  1  0
 25 48  1  0
 26 49  1  0
M  END
>  <smiles>  (50) 
O=C(NCC(=O)N1C[C@H](O)[C@H](c2ccccc2)C1)c1ccc2ccccc2n1

>  <score_type>  (50) 
oracle

>  <origin>  (50) 
autodockgpu

>  <m_score__min__energy>  (50) 
-9.0199999999999996

>  <m_primary>  (50) 
energy

>  <rmsd>  (50) 
2.5890596034791358

>  <m_score__min__rmsd>  (50) 
2.5890596034791358

>  <meeko>  (50) 
{"free_energy": -8.82, "intermolecular_energy": -10.61, "internal_energy": -1.31, "cluster_size": 18, "cluster_id": 2, "rank_in_cluster": 9}

>  <energy>  (50) 
-6.93

>  <cluster_rmsd>  (50) 
0.17

>  <cluster>  (50) 
4

$$$$
