
     RDKit          3D

 53 56  0  0  0  0  0  0  0  0999 V2000
  140.7830   71.6500  221.3620 O   0  0  0  0  0  0  0  0  0  0  0  0
  140.3300   72.1800  222.4150 C   0  0  0  0  0  0  0  0  0  0  0  0
  139.9520   73.5500  222.3110 N   0  0  0  0  0  0  0  0  0  0  0  0
  140.0750   74.3040  221.0680 C   0  0  0  0  0  0  0  0  0  0  0  0
  140.2880   75.7090  221.4020 C   0  0  0  0  0  0  0  0  0  0  0  0
  140.1260   76.1940  222.5730 O   0  0  0  0  0  0  0  0  0  0  0  0
  140.7030   76.6550  220.4170 N   0  0  0  0  0  0  0  0  0  0  0  0
  140.2650   76.7670  219.0310 C   0  0  0  0  0  0  0  0  0  0  0  0
  141.3950   77.5560  218.3580 C   0  0  0  0  0  0  0  0  0  0  0  0
  142.5200   77.5150  219.4110 C   0  0  0  0  0  0  0  0  0  0  0  0
  141.7110   77.7540  220.6580 C   0  0  1  0  0  0  0  0  0  0  0  0
  141.0080   79.0400  220.7760 C   0  0  0  0  0  0  0  0  0  0  0  0
  141.5110   79.9630  221.7100 N   0  0  0  0  0  0  0  0  0  0  0  0
  140.6950   80.6760  222.5930 C   0  0  0  0  0  0  0  0  0  0  0  0
  141.7240   81.3380  223.5460 C   0  0  0  0  0  0  0  0  0  0  0  0
  142.6200   80.1560  223.8240 C   0  0  0  0  0  0  0  0  0  0  0  0
  142.5430   79.3560  222.5640 C   0  0  0  0  0  0  0  0  0  0  0  0
  140.2070   71.4170  223.6570 C   0  0  0  0  0  0  0  0  0  0  0  0
  139.5370   70.1910  223.5880 C   0  0  0  0  0  0  0  0  0  0  0  0
  139.4040   69.4540  224.7570 C   0  0  0  0  0  0  0  0  0  0  0  0
  139.9020   69.8860  225.9620 C   0  0  0  0  0  0  0  0  0  0  0  0
  139.7500   69.1330  227.0890 C   0  0  0  0  0  0  0  0  0  0  0  0
  140.2480   69.5700  228.2890 C   0  0  0  0  0  0  0  0  0  0  0  0
  140.9120   70.7910  228.3470 C   0  0  0  0  0  0  0  0  0  0  0  0
  141.0580   71.5470  227.1820 C   0  0  0  0  0  0  0  0  0  0  0  0
  140.5530   71.1060  225.9660 C   0  0  0  0  0  0  0  0  0  0  0  0
  140.6970   71.8470  224.8320 N   0  0  0  0  0  0  0  0  0  0  0  0
  139.5760   73.9940  223.1850 H   0  0  0  0  0  0  0  0  0  0  0  0
  140.9294   73.9263  220.4871 H   0  0  0  0  0  0  0  0  0  0  0  0
  139.1614   74.1924  220.4656 H   0  0  0  0  0  0  0  0  0  0  0  0
  140.1531   75.7732  218.5730 H   0  0  0  0  0  0  0  0  0  0  0  0
  139.2844   77.2553  218.9309 H   0  0  0  0  0  0  0  0  0  0  0  0
  141.7117   77.0729  217.4219 H   0  0  0  0  0  0  0  0  0  0  0  0
  141.1021   78.5780  218.0756 H   0  0  0  0  0  0  0  0  0  0  0  0
  143.0255   76.5383  219.4320 H   0  0  0  0  0  0  0  0  0  0  0  0
  143.3403   78.2286  219.2441 H   0  0  0  0  0  0  0  0  0  0  0  0
  142.3232   77.7657  221.5718 H   0  0  0  0  0  0  0  0  0  0  0  0
  141.0321   79.5225  219.7877 H   0  0  0  0  0  0  0  0  0  0  0  0
  140.0040   78.7821  221.1440 H   0  0  0  0  0  0  0  0  0  0  0  0
  140.1017   81.4342  222.0609 H   0  0  0  0  0  0  0  0  0  0  0  0
  139.9590   80.0459  223.1138 H   0  0  0  0  0  0  0  0  0  0  0  0
  142.2690   82.1567  223.0535 H   0  0  0  0  0  0  0  0  0  0  0  0
  141.2909   81.8119  224.4392 H   0  0  0  0  0  0  0  0  0  0  0  0
  143.6520   80.4824  224.0201 H   0  0  0  0  0  0  0  0  0  0  0  0
  142.3133   79.5856  224.7131 H   0  0  0  0  0  0  0  0  0  0  0  0
  143.5145   79.3751  222.0484 H   0  0  0  0  0  0  0  0  0  0  0  0
  142.2904   78.3091  222.7878 H   0  0  0  0  0  0  0  0  0  0  0  0
  139.1278   69.8219  222.6360 H   0  0  0  0  0  0  0  0  0  0  0  0
  138.8801   68.4876  224.7167 H   0  0  0  0  0  0  0  0  0  0  0  0
  139.2242   68.1684  227.0346 H   0  0  0  0  0  0  0  0  0  0  0  0
  140.1238   68.9614  229.1968 H   0  0  0  0  0  0  0  0  0  0  0  0
  141.3181   71.1575  229.3013 H   0  0  0  0  0  0  0  0  0  0  0  0
  141.5840   72.5120  227.2286 H   0  0  0  0  0  0  0  0  0  0  0  0
  1  2  2  0
  2  3  1  0
  3  4  1  0
  4  5  1  0
  5  6  2  0
  5  7  1  0
  7  8  1  0
  8  9  1  0
  9 10  1  0
 10 11  1  0
 11 12  1  0
 12 13  1  0
 13 14  1  0
 14 15  1  0
 15 16  1  0
 16 17  1  0
  2 18  1  0
 18 19  2  0
 19 20  1  0
 20 21  2  0
 21 22  1  0
 22 23  2  0
 23 24  1  0
 24 25  2  0
 25 26  1  0
 26 27  2  0
 11  7  1  0
 17 13  1  0
 27 18  1  0
 26 21  1  0
  3 28  1  0
  4 29  1  0
  4 30  1  0
  8 31  1  0
  8 32  1  0
  9 33  1  0
  9 34  1  0
 10 35  1  0
 10 36  1  0
 11 37  1  1
 12 38  1  0
 12 39  1  0
 14 40  1  0
 14 41  1  0
 15 42  1  0
 15 43  1  0
 16 44  1  0
 16 45  1  0
 17 46  1  0
 17 47  1  0
 19 48  1  0
 20 49  1  0
 22 50  1  0
 23 51  1  0
 24 52  1  0
 25 53  1  0
M  END
>  <smiles>  (1) 
O=C(NCC(=O)N1CCC[C@H]1CN1CCCC1)c1ccc2ccccc2n1

>  <score_type>  (1) 
oracle

>  <origin>  (1) 
autodockgpu

>  <m_score__min__energy>  (1) 
-8.3499999999999996

>  <m_primary>  (1) 
energy

>  <rmsd>  (1) 
2.1415709267091265

>  <m_score__min__rmsd>  (1) 
2.1415709267091265

>  <meeko>  (1) 
{"free_energy": -8.14, "intermolecular_energy": -9.93, "internal_energy": -1.7, "cluster_size": 29, "cluster_id": 1, "rank_in_cluster": 16}

>  <energy>  (1) 
-8.35

>  <cluster_rmsd>  (1) 
0.0

>  <cluster>  (1) 
1

$$$$

     RDKit          3D

 53 56  0  0  0  0  0  0  0  0999 V2000
  139.7800   70.9060  221.3830 O   0  0  0  0  0  0  0  0  0  0  0  0
  139.7980   71.4840  222.5050 C   0  0  0  0  0  0  0  0  0  0  0  0
  139.7780   72.9080  222.4740 N   0  0  0  0  0  0  0  0  0  0  0  0
  139.7360   73.6630  221.2260 C   0  0  0  0  0  0  0  0  0  0  0  0
  139.9940   75.0680  221.5310 C   0  0  0  0  0  0  0  0  0  0  0  0
  139.8250   75.5890  222.6850 O   0  0  0  0  0  0  0  0  0  0  0  0
  140.4670   75.9720  220.5320 N   0  0  0  0  0  0  0  0  0  0  0  0
  140.1260   76.0120  219.1160 C   0  0  0  0  0  0  0  0  0  0  0  0
  141.2920   76.7850  218.4850 C   0  0  0  0  0  0  0  0  0  0  0  0
  142.3400   76.8100  219.6150 C   0  0  0  0  0  0  0  0  0  0  0  0
  141.4430   77.0960  220.7900 C   0  0  1  0  0  0  0  0  0  0  0  0
  140.7190   78.3750  220.7960 C   0  0  0  0  0  0  0  0  0  0  0  0
  141.0060   79.2690  221.8440 N   0  0  0  0  0  0  0  0  0  0  0  0
  141.1960   78.8590  223.1670 C   0  0  0  0  0  0  0  0  0  0  0  0
  141.7190   80.1490  223.8510 C   0  0  0  0  0  0  0  0  0  0  0  0
  142.7450   80.5850  222.8330 C   0  0  0  0  0  0  0  0  0  0  0  0
  142.1820   80.0970  221.5370 C   0  0  0  0  0  0  0  0  0  0  0  0
  139.8370   70.7200  223.7530 C   0  0  0  0  0  0  0  0  0  0  0  0
  139.2400   69.4550  223.7440 C   0  0  0  0  0  0  0  0  0  0  0  0
  139.2610   68.7170  224.9190 C   0  0  0  0  0  0  0  0  0  0  0  0
  139.8400   69.1840  226.0740 C   0  0  0  0  0  0  0  0  0  0  0  0
  139.8400   68.4270  227.2100 C   0  0  0  0  0  0  0  0  0  0  0  0
  140.4190   68.8990  228.3590 C   0  0  0  0  0  0  0  0  0  0  0  0
  141.0100   70.1580  228.3560 C   0  0  0  0  0  0  0  0  0  0  0  0
  141.0010   70.9170  227.1840 C   0  0  0  0  0  0  0  0  0  0  0  0
  140.4140   70.4400  226.0190 C   0  0  0  0  0  0  0  0  0  0  0  0
  140.4070   71.1850  224.8780 N   0  0  0  0  0  0  0  0  0  0  0  0
  139.7940   73.3920  223.4060 H   0  0  0  0  0  0  0  0  0  0  0  0
  140.5050   73.2848  220.5364 H   0  0  0  0  0  0  0  0  0  0  0  0
  138.7505   73.5534  220.7497 H   0  0  0  0  0  0  0  0  0  0  0  0
  140.0575   74.9961  218.6998 H   0  0  0  0  0  0  0  0  0  0  0  0
  139.1495   76.4809  218.9249 H   0  0  0  0  0  0  0  0  0  0  0  0
  141.6791   76.2626  217.5977 H   0  0  0  0  0  0  0  0  0  0  0  0
  141.0085   77.7879  218.1331 H   0  0  0  0  0  0  0  0  0  0  0  0
  142.8535   75.8427  219.7182 H   0  0  0  0  0  0  0  0  0  0  0  0
  143.1618   77.5270  219.4716 H   0  0  0  0  0  0  0  0  0  0  0  0
  141.9891   77.1601  221.7427 H   0  0  0  0  0  0  0  0  0  0  0  0
  140.9464   78.8889  219.8504 H   0  0  0  0  0  0  0  0  0  0  0  0
  139.6622   78.1032  220.9352 H   0  0  0  0  0  0  0  0  0  0  0  0
  140.2501   78.5258  223.6189 H   0  0  0  0  0  0  0  0  0  0  0  0
  141.8810   78.0040  223.2653 H   0  0  0  0  0  0  0  0  0  0  0  0
  140.9225   80.8975  223.9749 H   0  0  0  0  0  0  0  0  0  0  0  0
  142.1071   80.0091  224.8707 H   0  0  0  0  0  0  0  0  0  0  0  0
  142.8524   81.6797  222.8274 H   0  0  0  0  0  0  0  0  0  0  0  0
  143.7493   80.1869  223.0402 H   0  0  0  0  0  0  0  0  0  0  0  0
  141.8853   80.9520  220.9118 H   0  0  0  0  0  0  0  0  0  0  0  0
  142.9330   79.5108  220.9871 H   0  0  0  0  0  0  0  0  0  0  0  0
  138.7683   69.0574  222.8333 H   0  0  0  0  0  0  0  0  0  0  0  0
  138.7963   67.7200  224.9259 H   0  0  0  0  0  0  0  0  0  0  0  0
  139.3721   67.4315  227.2031 H   0  0  0  0  0  0  0  0  0  0  0  0
  140.4164   68.2885  229.2740 H   0  0  0  0  0  0  0  0  0  0  0  0
  141.4803   70.5523  229.2688 H   0  0  0  0  0  0  0  0  0  0  0  0
  141.4683   71.9128  227.1833 H   0  0  0  0  0  0  0  0  0  0  0  0
  1  2  2  0
  2  3  1  0
  3  4  1  0
  4  5  1  0
  5  6  2  0
  5  7  1  0
  7  8  1  0
  8  9  1  0
  9 10  1  0
 10 11  1  0
 11 12  1  0
 12 13  1  0
 13 14  1  0
 14 15  1  0
 15 16  1  0
 16 17  1  0
  2 18  1  0
 18 19  2  0
 19 20  1  0
 20 21  2  0
 21 22  1  0
 22 23  2  0
 23 24  1  0
 24 25  2  0
 25 26  1  0
 26 27  2  0
 11  7  1  0
 17 13  1  0
 27 18  1  0
 26 21  1  0
  3 28  1  0
  4 29  1  0
  4 30  1  0
  8 31  1  0
  8 32  1  0
  9 33  1  0
  9 34  1  0
 10 35  1  0
 10 36  1  0
 11 37  1  1
 12 38  1  0
 12 39  1  0
 14 40  1  0
 14 41  1  0
 15 42  1  0
 15 43  1  0
 16 44  1  0
 16 45  1  0
 17 46  1  0
 17 47  1  0
 19 48  1  0
 20 49  1  0
 22 50  1  0
 23 51  1  0
 24 52  1  0
 25 53  1  0
M  END
>  <smiles>  (2) 
O=C(NCC(=O)N1CCC[C@H]1CN1CCCC1)c1ccc2ccccc2n1

>  <score_type>  (2) 
oracle

>  <origin>  (2) 
autodockgpu

>  <m_score__min__energy>  (2) 
-8.3499999999999996

>  <m_primary>  (2) 
energy

>  <rmsd>  (2) 
1.6009494329609524

>  <m_score__min__rmsd>  (2) 
1.6009494329609524

>  <meeko>  (2) 
{"free_energy": -7.9, "intermolecular_energy": -9.69, "internal_energy": -1.82, "cluster_size": 29, "cluster_id": 1, "rank_in_cluster": 25}

>  <energy>  (2) 
-8.33

>  <cluster_rmsd>  (2) 
0.3

>  <cluster>  (2) 
1

$$$$

     RDKit          3D

 53 56  0  0  0  0  0  0  0  0999 V2000
  140.3850   71.4490  221.3090 O   0  0  0  0  0  0  0  0  0  0  0  0
  140.1020   72.0280  222.3950 C   0  0  0  0  0  0  0  0  0  0  0  0
  139.7900   73.4140  222.3000 N   0  0  0  0  0  0  0  0  0  0  0  0
  139.7920   74.1320  221.0300 C   0  0  0  0  0  0  0  0  0  0  0  0
  140.2770   75.4890  221.2700 C   0  0  0  0  0  0  0  0  0  0  0  0
  140.1750   76.0930  222.3900 O   0  0  0  0  0  0  0  0  0  0  0  0
  140.9150   76.2440  220.2400 N   0  0  0  0  0  0  0  0  0  0  0  0
  140.6090   76.2670  218.8150 C   0  0  0  0  0  0  0  0  0  0  0  0
  141.9020   76.7940  218.1770 C   0  0  0  0  0  0  0  0  0  0  0  0
  142.9200   76.6980  219.3300 C   0  0  0  0  0  0  0  0  0  0  0  0
  142.0660   77.1960  220.4670 C   0  0  1  0  0  0  0  0  0  0  0  0
  141.5740   78.5780  220.3920 C   0  0  0  0  0  0  0  0  0  0  0  0
  141.3740   79.2550  221.6090 N   0  0  0  0  0  0  0  0  0  0  0  0
  141.5440   78.6470  222.8560 C   0  0  0  0  0  0  0  0  0  0  0  0
  141.4560   79.8480  223.8340 C   0  0  0  0  0  0  0  0  0  0  0  0
  142.3560   80.8290  223.1230 C   0  0  0  0  0  0  0  0  0  0  0  0
  142.1790   80.4840  221.6800 C   0  0  0  0  0  0  0  0  0  0  0  0
  140.0990   71.3010  223.6650 C   0  0  0  0  0  0  0  0  0  0  0  0
  139.5650   70.0080  223.6580 C   0  0  0  0  0  0  0  0  0  0  0  0
  139.5470   69.3040  224.8540 C   0  0  0  0  0  0  0  0  0  0  0  0
  140.0320   69.8300  226.0270 C   0  0  0  0  0  0  0  0  0  0  0  0
  139.9960   69.1050  227.1830 C   0  0  0  0  0  0  0  0  0  0  0  0
  140.4800   69.6360  228.3500 C   0  0  0  0  0  0  0  0  0  0  0  0
  141.0100   70.9220  228.3460 C   0  0  0  0  0  0  0  0  0  0  0  0
  141.0380   71.6470  227.1530 C   0  0  0  0  0  0  0  0  0  0  0  0
  140.5470   71.1110  225.9690 C   0  0  0  0  0  0  0  0  0  0  0  0
  140.5760   71.8230  224.8080 N   0  0  0  0  0  0  0  0  0  0  0  0
  139.5550   73.8990  223.2020 H   0  0  0  0  0  0  0  0  0  0  0  0
  140.4543   73.6215  220.3153 H   0  0  0  0  0  0  0  0  0  0  0  0
  138.7756   74.1619  220.6103 H   0  0  0  0  0  0  0  0  0  0  0  0
  140.3728   75.2574  218.4476 H   0  0  0  0  0  0  0  0  0  0  0  0
  139.7313   76.8856  218.5761 H   0  0  0  0  0  0  0  0  0  0  0  0
  142.2075   76.1670  217.3264 H   0  0  0  0  0  0  0  0  0  0  0  0
  141.8019   77.8110  217.7700 H   0  0  0  0  0  0  0  0  0  0  0  0
  143.2566   75.6636  219.4936 H   0  0  0  0  0  0  0  0  0  0  0  0
  143.8559   77.2541  219.1723 H   0  0  0  0  0  0  0  0  0  0  0  0
  142.5993   77.2159  221.4289 H   0  0  0  0  0  0  0  0  0  0  0  0
  142.3028   79.1577  219.8065 H   0  0  0  0  0  0  0  0  0  0  0  0
  140.5730   78.4992  219.9428 H   0  0  0  0  0  0  0  0  0  0  0  0
  140.7465   77.9155  223.0530 H   0  0  0  0  0  0  0  0  0  0  0  0
  142.4834   78.0812  222.9420 H   0  0  0  0  0  0  0  0  0  0  0  0
  140.4275   80.2277  223.9232 H   0  0  0  0  0  0  0  0  0  0  0  0
  141.7428   79.6232  224.8719 H   0  0  0  0  0  0  0  0  0  0  0  0
  142.0424   81.8646  223.3208 H   0  0  0  0  0  0  0  0  0  0  0  0
  143.4035   80.7655  223.4528 H   0  0  0  0  0  0  0  0  0  0  0  0
  141.6596   81.3025  221.1602 H   0  0  0  0  0  0  0  0  0  0  0  0
  143.1560   80.3328  221.1976 H   0  0  0  0  0  0  0  0  0  0  0  0
  139.1712   69.5627  222.7325 H   0  0  0  0  0  0  0  0  0  0  0  0
  139.1287   68.2867  224.8631 H   0  0  0  0  0  0  0  0  0  0  0  0
  139.5760   68.0884  227.1778 H   0  0  0  0  0  0  0  0  0  0  0  0
  140.4496   69.0508  229.2809 H   0  0  0  0  0  0  0  0  0  0  0  0
  141.4032   71.3635  229.2736 H   0  0  0  0  0  0  0  0  0  0  0  0
  141.4576   72.6638  227.1505 H   0  0  0  0  0  0  0  0  0  0  0  0
  1  2  2  0
  2  3  1  0
  3  4  1  0
  4  5  1  0
  5  6  2  0
  5  7  1  0
  7  8  1  0
  8  9  1  0
  9 10  1  0
 10 11  1  0
 11 12  1  0
 12 13  1  0
 13 14  1  0
 14 15  1  0
 15 16  1  0
 16 17  1  0
  2 18  1  0
 18 19  2  0
 19 20  1  0
 20 21  2  0
 21 22  1  0
 22 23  2  0
 23 24  1  0
 24 25  2  0
 25 26  1  0
 26 27  2  0
 11  7  1  0
 17 13  1  0
 27 18  1  0
 26 21  1  0
  3 28  1  0
  4 29  1  0
  4 30  1  0
  8 31  1  0
  8 32  1  0
  9 33  1  0
  9 34  1  0
 10 35  1  0
 10 36  1  0
 11 37  1  1
 12 38  1  0
 12 39  1  0
 14 40  1  0
 14 41  1  0
 15 42  1  0
 15 43  1  0
 16 44  1  0
 16 45  1  0
 17 46  1  0
 17 47  1  0
 19 48  1  0
 20 49  1  0
 22 50  1  0
 23 51  1  0
 24 52  1  0
 25 53  1  0
M  END
>  <smiles>  (3) 
O=C(NCC(=O)N1CCC[C@H]1CN1CCCC1)c1ccc2ccccc2n1

>  <score_type>  (3) 
oracle

>  <origin>  (3) 
autodockgpu

>  <m_score__min__energy>  (3) 
-8.3499999999999996

>  <m_primary>  (3) 
energy

>  <rmsd>  (3) 
1.7799417247028329

>  <m_score__min__rmsd>  (3) 
1.7799417247028329

>  <meeko>  (3) 
{"free_energy": -8.24, "intermolecular_energy": -10.03, "internal_energy": -1.68, "cluster_size": 29, "cluster_id": 1, "rank_in_cluster": 4}

>  <energy>  (3) 
-8.26

>  <cluster_rmsd>  (3) 
1.69

>  <cluster>  (3) 
1

$$$$

     RDKit          3D

 53 56  0  0  0  0  0  0  0  0999 V2000
  140.6650   71.6360  221.3080 O   0  0  0  0  0  0  0  0  0  0  0  0
  140.2540   72.1700  222.3750 C   0  0  0  0  0  0  0  0  0  0  0  0
  139.8710   73.5390  222.2810 N   0  0  0  0  0  0  0  0  0  0  0  0
  139.9440   74.2880  221.0310 C   0  0  0  0  0  0  0  0  0  0  0  0
  140.5520   75.5870  221.3090 C   0  0  0  0  0  0  0  0  0  0  0  0
  140.2770   76.2960  222.3360 O   0  0  0  0  0  0  0  0  0  0  0  0
  141.5200   76.1600  220.4300 N   0  0  0  0  0  0  0  0  0  0  0  0
  141.8520   77.5660  220.2460 C   0  0  0  0  0  0  0  0  0  0  0  0
  142.5160   77.6030  218.8630 C   0  0  0  0  0  0  0  0  0  0  0  0
  142.1760   76.2170  218.2810 C   0  0  0  0  0  0  0  0  0  0  0  0
  142.4070   75.3640  219.5010 C   0  0  1  0  0  0  0  0  0  0  0  0
  143.7690   75.3190  220.0510 C   0  0  0  0  0  0  0  0  0  0  0  0
  144.5170   74.1510  219.8180 N   0  0  0  0  0  0  0  0  0  0  0  0
  145.5990   73.7660  220.6150 C   0  0  0  0  0  0  0  0  0  0  0  0
  145.9010   72.3320  220.1100 C   0  0  0  0  0  0  0  0  0  0  0  0
  144.5000   71.7690  220.0710 C   0  0  0  0  0  0  0  0  0  0  0  0
  143.6530   72.9620  219.7630 C   0  0  0  0  0  0  0  0  0  0  0  0
  140.1800   71.4110  223.6250 C   0  0  0  0  0  0  0  0  0  0  0  0
  139.6120   70.1340  223.5620 C   0  0  0  0  0  0  0  0  0  0  0  0
  139.5270   69.4000  224.7370 C   0  0  0  0  0  0  0  0  0  0  0  0
  139.9770   69.8830  225.9420 C   0  0  0  0  0  0  0  0  0  0  0  0
  139.8750   69.1310  227.0760 C   0  0  0  0  0  0  0  0  0  0  0  0
  140.3250   69.6180  228.2750 C   0  0  0  0  0  0  0  0  0  0  0  0
  140.8890   70.8890  228.3260 C   0  0  0  0  0  0  0  0  0  0  0  0
  140.9850   71.6430  227.1550 C   0  0  0  0  0  0  0  0  0  0  0  0
  140.5290   71.1510  225.9390 C   0  0  0  0  0  0  0  0  0  0  0  0
  140.6240   71.8910  224.7990 N   0  0  0  0  0  0  0  0  0  0  0  0
  139.5290   73.9860  223.1680 H   0  0  0  0  0  0  0  0  0  0  0  0
  140.5585   73.7379  220.3032 H   0  0  0  0  0  0  0  0  0  0  0  0
  138.9363   74.4234  220.6111 H   0  0  0  0  0  0  0  0  0  0  0  0
  140.9455   78.1889  220.2631 H   0  0  0  0  0  0  0  0  0  0  0  0
  142.5013   77.9592  221.0421 H   0  0  0  0  0  0  0  0  0  0  0  0
  142.0937   78.4072  218.2426 H   0  0  0  0  0  0  0  0  0  0  0  0
  143.5968   77.8034  218.9051 H   0  0  0  0  0  0  0  0  0  0  0  0
  141.1331   76.1629  217.9353 H   0  0  0  0  0  0  0  0  0  0  0  0
  142.7592   75.9286  217.3940 H   0  0  0  0  0  0  0  0  0  0  0  0
  142.2194   74.2952  219.3207 H   0  0  0  0  0  0  0  0  0  0  0  0
  144.3284   76.1621  219.6194 H   0  0  0  0  0  0  0  0  0  0  0  0
  143.6361   75.3581  221.1422 H   0  0  0  0  0  0  0  0  0  0  0  0
  146.4617   74.4308  220.4607 H   0  0  0  0  0  0  0  0  0  0  0  0
  145.3856   73.8132  221.6931 H   0  0  0  0  0  0  0  0  0  0  0  0
  146.3662   72.3394  219.1132 H   0  0  0  0  0  0  0  0  0  0  0  0
  146.6126   71.7632  220.7266 H   0  0  0  0  0  0  0  0  0  0  0  0
  144.4048   71.0056  219.2848 H   0  0  0  0  0  0  0  0  0  0  0  0
  144.2126   71.2699  221.0081 H   0  0  0  0  0  0  0  0  0  0  0  0
  143.2168   72.8622  218.7581 H   0  0  0  0  0  0  0  0  0  0  0  0
  142.8318   73.0490  220.4896 H   0  0  0  0  0  0  0  0  0  0  0  0
  139.2439   69.7240  222.6100 H   0  0  0  0  0  0  0  0  0  0  0  0
  139.0828   68.3943  224.7022 H   0  0  0  0  0  0  0  0  0  0  0  0
  139.4284   68.1269  227.0272 H   0  0  0  0  0  0  0  0  0  0  0  0
  140.2412   69.0103  229.1881 H   0  0  0  0  0  0  0  0  0  0  0  0
  141.2558   71.2958  229.2799 H   0  0  0  0  0  0  0  0  0  0  0  0
  141.4311   72.6476  227.1963 H   0  0  0  0  0  0  0  0  0  0  0  0
  1  2  2  0
  2  3  1  0
  3  4  1  0
  4  5  1  0
  5  6  2  0
  5  7  1  0
  7  8  1  0
  8  9  1  0
  9 10  1  0
 10 11  1  0
 11 12  1  0
 12 13  1  0
 13 14  1  0
 14 15  1  0
 15 16  1  0
 16 17  1  0
  2 18  1  0
 18 19  2  0
 19 20  1  0
 20 21  2  0
 21 22  1  0
 22 23  2  0
 23 24  1  0
 24 25  2  0
 25 26  1  0
 26 27  2  0
 11  7  1  0
 17 13  1  0
 27 18  1  0
 26 21  1  0
  3 28  1  0
  4 29  1  0
  4 30  1  0
  8 31  1  0
  8 32  1  0
  9 33  1  0
  9 34  1  0
 10 35  1  0
 10 36  1  0
 11 37  1  6
 12 38  1  0
 12 39  1  0
 14 40  1  0
 14 41  1  0
 15 42  1  0
 15 43  1  0
 16 44  1  0
 16 45  1  0
 17 46  1  0
 17 47  1  0
 19 48  1  0
 20 49  1  0
 22 50  1  0
 23 51  1  0
 24 52  1  0
 25 53  1  0
M  END
>  <smiles>  (4) 
O=C(NCC(=O)N1CCC[C@H]1CN1CCCC1)c1ccc2ccccc2n1

>  <score_type>  (4) 
oracle

>  <origin>  (4) 
autodockgpu

>  <m_score__min__energy>  (4) 
-8.3499999999999996

>  <m_primary>  (4) 
energy

>  <rmsd>  (4) 
4.3523966506306815

>  <m_score__min__rmsd>  (4) 
4.3523966506306815

>  <meeko>  (4) 
{"free_energy": -7.96, "intermolecular_energy": -9.75, "internal_energy": -1.75, "cluster_size": 17, "cluster_id": 2, "rank_in_cluster": 6}

>  <energy>  (4) 
-8.24

>  <cluster_rmsd>  (4) 
1.68

>  <cluster>  (4) 
1

$$$$

     RDKit          3D

 53 56  0  0  0  0  0  0  0  0999 V2000
  140.9060   71.5840  221.3610 O   0  0  0  0  0  0  0  0  0  0  0  0
  140.3910   72.1140  222.3840 C   0  0  0  0  0  0  0  0  0  0  0  0
  140.0020   73.4780  222.2520 N   0  0  0  0  0  0  0  0  0  0  0  0
  140.1800   74.2260  221.0120 C   0  0  0  0  0  0  0  0  0  0  0  0
  140.6340   75.5720  221.3490 C   0  0  0  0  0  0  0  0  0  0  0  0
  140.3360   76.1730  222.4360 O   0  0  0  0  0  0  0  0  0  0  0  0
  141.4640   76.3220  220.4610 N   0  0  0  0  0  0  0  0  0  0  0  0
  141.7070   77.7590  220.4500 C   0  0  0  0  0  0  0  0  0  0  0  0
  142.2010   78.0300  219.0220 C   0  0  0  0  0  0  0  0  0  0  0  0
  141.8600   76.7200  218.2850 C   0  0  0  0  0  0  0  0  0  0  0  0
  142.2710   75.7220  219.3340 C   0  0  1  0  0  0  0  0  0  0  0  0
  143.6890   75.6860  219.7190 C   0  0  0  0  0  0  0  0  0  0  0  0
  144.2900   74.4190  219.8350 N   0  0  0  0  0  0  0  0  0  0  0  0
  145.3850   74.1670  220.6680 C   0  0  0  0  0  0  0  0  0  0  0  0
  145.4940   72.6210  220.6270 C   0  0  0  0  0  0  0  0  0  0  0  0
  144.0440   72.2520  220.8230 C   0  0  0  0  0  0  0  0  0  0  0  0
  143.3060   73.3870  220.1910 C   0  0  0  0  0  0  0  0  0  0  0  0
  140.2120   71.3570  223.6240 C   0  0  0  0  0  0  0  0  0  0  0  0
  139.5550   70.1260  223.5290 C   0  0  0  0  0  0  0  0  0  0  0  0
  139.3700   69.3950  224.6950 C   0  0  0  0  0  0  0  0  0  0  0  0
  139.8060   69.8370  225.9200 C   0  0  0  0  0  0  0  0  0  0  0  0
  139.6040   69.0890  227.0430 C   0  0  0  0  0  0  0  0  0  0  0  0
  140.0400   69.5360  228.2630 C   0  0  0  0  0  0  0  0  0  0  0  0
  140.6930   70.7620  228.3460 C   0  0  0  0  0  0  0  0  0  0  0  0
  140.8900   71.5130  227.1850 C   0  0  0  0  0  0  0  0  0  0  0  0
  140.4480   71.0610  225.9490 C   0  0  0  0  0  0  0  0  0  0  0  0
  140.6420   71.7980  224.8190 N   0  0  0  0  0  0  0  0  0  0  0  0
  139.5740   73.9230  223.1020 H   0  0  0  0  0  0  0  0  0  0  0  0
  140.9308   73.7273  220.3814 H   0  0  0  0  0  0  0  0  0  0  0  0
  139.2303   74.2740  220.4590 H   0  0  0  0  0  0  0  0  0  0  0  0
  140.7812   78.3156  220.6577 H   0  0  0  0  0  0  0  0  0  0  0  0
  142.4264   78.0770  221.2190 H   0  0  0  0  0  0  0  0  0  0  0  0
  141.6714   78.8846  218.5756 H   0  0  0  0  0  0  0  0  0  0  0  0
  143.2687   78.2901  218.9739 H   0  0  0  0  0  0  0  0  0  0  0  0
  140.7875   76.6494  218.0510 H   0  0  0  0  0  0  0  0  0  0  0  0
  142.3483   76.5953  217.3073 H   0  0  0  0  0  0  0  0  0  0  0  0
  142.1126   74.6795  219.0209 H   0  0  0  0  0  0  0  0  0  0  0  0
  144.2522   76.2518  218.9623 H   0  0  0  0  0  0  0  0  0  0  0  0
  143.7190   76.1090  220.7339 H   0  0  0  0  0  0  0  0  0  0  0  0
  146.2981   74.6398  220.2771 H   0  0  0  0  0  0  0  0  0  0  0  0
  145.2628   74.5697  221.6843 H   0  0  0  0  0  0  0  0  0  0  0  0
  145.8792   72.2642  219.6604 H   0  0  0  0  0  0  0  0  0  0  0  0
  146.1869   72.1853  221.3619 H   0  0  0  0  0  0  0  0  0  0  0  0
  143.8088   71.3020  220.3208 H   0  0  0  0  0  0  0  0  0  0  0  0
  143.7788   72.1048  221.8804 H   0  0  0  0  0  0  0  0  0  0  0  0
  142.7858   73.0380  219.2868 H   0  0  0  0  0  0  0  0  0  0  0  0
  142.5570   73.7935  220.8865 H   0  0  0  0  0  0  0  0  0  0  0  0
  139.1958   69.7485  222.5603 H   0  0  0  0  0  0  0  0  0  0  0  0
  138.8546   68.4250  224.6352 H   0  0  0  0  0  0  0  0  0  0  0  0
  139.0877   68.1205  226.9687 H   0  0  0  0  0  0  0  0  0  0  0  0
  139.8754   68.9318  229.1674 H   0  0  0  0  0  0  0  0  0  0  0  0
  141.0506   71.1361  229.3167 H   0  0  0  0  0  0  0  0  0  0  0  0
  141.4058   72.4823  227.2513 H   0  0  0  0  0  0  0  0  0  0  0  0
  1  2  2  0
  2  3  1  0
  3  4  1  0
  4  5  1  0
  5  6  2  0
  5  7  1  0
  7  8  1  0
  8  9  1  0
  9 10  1  0
 10 11  1  0
 11 12  1  0
 12 13  1  0
 13 14  1  0
 14 15  1  0
 15 16  1  0
 16 17  1  0
  2 18  1  0
 18 19  2  0
 19 20  1  0
 20 21  2  0
 21 22  1  0
 22 23  2  0
 23 24  1  0
 24 25  2  0
 25 26  1  0
 26 27  2  0
 11  7  1  0
 17 13  1  0
 27 18  1  0
 26 21  1  0
  3 28  1  0
  4 29  1  0
  4 30  1  0
  8 31  1  0
  8 32  1  0
  9 33  1  0
  9 34  1  0
 10 35  1  0
 10 36  1  0
 11 37  1  6
 12 38  1  0
 12 39  1  0
 14 40  1  0
 14 41  1  0
 15 42  1  0
 15 43  1  0
 16 44  1  0
 16 45  1  0
 17 46  1  0
 17 47  1  0
 19 48  1  0
 20 49  1  0
 22 50  1  0
 23 51  1  0
 24 52  1  0
 25 53  1  0
M  END
>  <smiles>  (5) 
O=C(NCC(=O)N1CCC[C@H]1CN1CCCC1)c1ccc2ccccc2n1

>  <score_type>  (5) 
oracle

>  <origin>  (5) 
autodockgpu

>  <m_score__min__energy>  (5) 
-8.3499999999999996

>  <m_primary>  (5) 
energy

>  <rmsd>  (5) 
4.199212338176345

>  <m_score__min__rmsd>  (5) 
4.199212338176345

>  <meeko>  (5) 
{"free_energy": -8.01, "intermolecular_energy": -9.8, "internal_energy": -1.94, "cluster_size": 17, "cluster_id": 2, "rank_in_cluster": 4}

>  <energy>  (5) 
-8.24

>  <cluster_rmsd>  (5) 
0.74

>  <cluster>  (5) 
1

$$$$

     RDKit          3D

 53 56  0  0  0  0  0  0  0  0999 V2000
  140.6360   71.5690  221.3090 O   0  0  0  0  0  0  0  0  0  0  0  0
  140.2550   72.1350  222.3720 C   0  0  0  0  0  0  0  0  0  0  0  0
  139.9030   73.5100  222.2540 N   0  0  0  0  0  0  0  0  0  0  0  0
  139.9710   74.2300  220.9870 C   0  0  0  0  0  0  0  0  0  0  0  0
  140.5860   75.5320  221.2310 C   0  0  0  0  0  0  0  0  0  0  0  0
  140.8780   75.9740  222.3930 O   0  0  0  0  0  0  0  0  0  0  0  0
  140.9120   76.4150  220.1570 N   0  0  0  0  0  0  0  0  0  0  0  0
  140.2520   76.5470  218.8650 C   0  0  0  0  0  0  0  0  0  0  0  0
  141.3190   77.2070  217.9810 C   0  0  0  0  0  0  0  0  0  0  0  0
  142.6010   77.0690  218.8260 C   0  0  0  0  0  0  0  0  0  0  0  0
  142.0490   77.4100  220.1850 C   0  0  1  0  0  0  0  0  0  0  0  0
  141.5040   78.7610  220.3780 C   0  0  0  0  0  0  0  0  0  0  0  0
  141.9810   79.4940  221.4800 N   0  0  0  0  0  0  0  0  0  0  0  0
  141.5510   80.7900  221.7790 C   0  0  0  0  0  0  0  0  0  0  0  0
  142.1660   81.0370  223.1810 C   0  0  0  0  0  0  0  0  0  0  0  0
  141.8060   79.7350  223.8560 C   0  0  0  0  0  0  0  0  0  0  0  0
  141.8150   78.7460  222.7350 C   0  0  0  0  0  0  0  0  0  0  0  0
  140.1870   71.4050  223.6390 C   0  0  0  0  0  0  0  0  0  0  0  0
  139.5810   70.1450  223.6160 C   0  0  0  0  0  0  0  0  0  0  0  0
  139.5010   69.4390  224.8080 C   0  0  0  0  0  0  0  0  0  0  0  0
  139.9900   69.9340  225.9930 C   0  0  0  0  0  0  0  0  0  0  0  0
  139.8910   69.2090  227.1450 C   0  0  0  0  0  0  0  0  0  0  0  0
  140.3800   69.7080  228.3240 C   0  0  0  0  0  0  0  0  0  0  0  0
  140.9810   70.9630  228.3350 C   0  0  0  0  0  0  0  0  0  0  0  0
  141.0740   71.6890  227.1450 C   0  0  0  0  0  0  0  0  0  0  0  0
  140.5770   71.1850  225.9510 C   0  0  0  0  0  0  0  0  0  0  0  0
  140.6690   71.8970  224.7930 N   0  0  0  0  0  0  0  0  0  0  0  0
  139.5870   73.9840  223.1360 H   0  0  0  0  0  0  0  0  0  0  0  0
  140.5784   73.6608  220.2680 H   0  0  0  0  0  0  0  0  0  0  0  0
  138.9611   74.3603  220.5708 H   0  0  0  0  0  0  0  0  0  0  0  0
  139.9667   75.5619  218.4672 H   0  0  0  0  0  0  0  0  0  0  0  0
  139.3205   77.1297  218.9182 H   0  0  0  0  0  0  0  0  0  0  0  0
  141.4192   76.6793  217.0211 H   0  0  0  0  0  0  0  0  0  0  0  0
  141.0819   78.2487  217.7189 H   0  0  0  0  0  0  0  0  0  0  0  0
  143.0047   76.0463  218.7931 H   0  0  0  0  0  0  0  0  0  0  0  0
  143.4452   77.6925  218.4965 H   0  0  0  0  0  0  0  0  0  0  0  0
  142.8097   77.3754  220.9788 H   0  0  0  0  0  0  0  0  0  0  0  0
  141.7294   79.3417  219.4714 H   0  0  0  0  0  0  0  0  0  0  0  0
  140.4333   78.6094  220.5796 H   0  0  0  0  0  0  0  0  0  0  0  0
  141.9333   81.5143  221.0447 H   0  0  0  0  0  0  0  0  0  0  0  0
  140.4571   80.9038  221.7555 H   0  0  0  0  0  0  0  0  0  0  0  0
  143.2550   81.1830  223.1295 H   0  0  0  0  0  0  0  0  0  0  0  0
  141.8049   81.9408  223.6935 H   0  0  0  0  0  0  0  0  0  0  0  0
  142.5510   79.4694  224.6205 H   0  0  0  0  0  0  0  0  0  0  0  0
  140.8407   79.7777  224.3816 H   0  0  0  0  0  0  0  0  0  0  0  0
  142.6495   78.0410  222.8641 H   0  0  0  0  0  0  0  0  0  0  0  0
  140.8767   78.1721  222.7201 H   0  0  0  0  0  0  0  0  0  0  0  0
  139.1798   69.7261  222.6813 H   0  0  0  0  0  0  0  0  0  0  0  0
  139.0284   68.4457  224.8042 H   0  0  0  0  0  0  0  0  0  0  0  0
  139.4154   68.2173  227.1271 H   0  0  0  0  0  0  0  0  0  0  0  0
  140.2983   69.1227  229.2518 H   0  0  0  0  0  0  0  0  0  0  0  0
  141.3792   71.3796  229.2720 H   0  0  0  0  0  0  0  0  0  0  0  0
  141.5508   72.6802  227.1545 H   0  0  0  0  0  0  0  0  0  0  0  0
  1  2  2  0
  2  3  1  0
  3  4  1  0
  4  5  1  0
  5  6  2  0
  5  7  1  0
  7  8  1  0
  8  9  1  0
  9 10  1  0
 10 11  1  0
 11 12  1  0
 12 13  1  0
 13 14  1  0
 14 15  1  0
 15 16  1  0
 16 17  1  0
  2 18  1  0
 18 19  2  0
 19 20  1  0
 20 21  2  0
 21 22  1  0
 22 23  2  0
 23 24  1  0
 24 25  2  0
 25 26  1  0
 26 27  2  0
 11  7  1  0
 17 13  1  0
 27 18  1  0
 26 21  1  0
  3 28  1  0
  4 29  1  0
  4 30  1  0
  8 31  1  0
  8 32  1  0
  9 33  1  0
  9 34  1  0
 10 35  1  0
 10 36  1  0
 11 37  1  1
 12 38  1  0
 12 39  1  0
 14 40  1  0
 14 41  1  0
 15 42  1  0
 15 43  1  0
 16 44  1  0
 16 45  1  0
 17 46  1  0
 17 47  1  0
 19 48  1  0
 20 49  1  0
 22 50  1  0
 23 51  1  0
 24 52  1  0
 25 53  1  0
M  END
>  <smiles>  (6) 
O=C(NCC(=O)N1CCC[C@H]1CN1CCCC1)c1ccc2ccccc2n1

>  <score_type>  (6) 
oracle

>  <origin>  (6) 
autodockgpu

>  <m_score__min__energy>  (6) 
-8.3499999999999996

>  <m_primary>  (6) 
energy

>  <rmsd>  (6) 
2.180157849453822

>  <m_score__min__rmsd>  (6) 
2.180157849453822

>  <meeko>  (6) 
{"free_energy": -8.15, "intermolecular_energy": -9.94, "internal_energy": -1.58, "cluster_size": 29, "cluster_id": 1, "rank_in_cluster": 15}

>  <energy>  (6) 
-8.23

>  <cluster_rmsd>  (6) 
0.55

>  <cluster>  (6) 
1

$$$$

     RDKit          3D

 53 56  0  0  0  0  0  0  0  0999 V2000
  141.0080   71.4810  221.4130 O   0  0  0  0  0  0  0  0  0  0  0  0
  140.4530   72.0240  222.4080 C   0  0  0  0  0  0  0  0  0  0  0  0
  140.0440   73.3780  222.2330 N   0  0  0  0  0  0  0  0  0  0  0  0
  140.2470   74.1000  220.9810 C   0  0  0  0  0  0  0  0  0  0  0  0
  140.2790   75.5300  221.2770 C   0  0  0  0  0  0  0  0  0  0  0  0
  139.9820   76.0280  222.4160 O   0  0  0  0  0  0  0  0  0  0  0  0
  140.6570   76.4870  220.2870 N   0  0  0  0  0  0  0  0  0  0  0  0
  140.0920   76.6830  218.9580 C   0  0  0  0  0  0  0  0  0  0  0  0
  141.2010   77.4260  218.2010 C   0  0  0  0  0  0  0  0  0  0  0  0
  142.4190   77.2700  219.1320 C   0  0  0  0  0  0  0  0  0  0  0  0
  141.7560   77.5090  220.4630 C   0  0  1  0  0  0  0  0  0  0  0  0
  141.1560   78.8310  220.6950 C   0  0  0  0  0  0  0  0  0  0  0  0
  141.3000   79.3830  221.9810 N   0  0  0  0  0  0  0  0  0  0  0  0
  141.4800   78.6060  223.1290 C   0  0  0  0  0  0  0  0  0  0  0  0
  141.8290   79.6670  224.2050 C   0  0  0  0  0  0  0  0  0  0  0  0
  142.8420   80.4870  223.4440 C   0  0  0  0  0  0  0  0  0  0  0  0
  142.3890   80.3700  222.0240 C   0  0  0  0  0  0  0  0  0  0  0  0
  140.2500   71.2920  223.6600 C   0  0  0  0  0  0  0  0  0  0  0  0
  139.5100   70.1080  223.5910 C   0  0  0  0  0  0  0  0  0  0  0  0
  139.3010   69.4010  224.7680 C   0  0  0  0  0  0  0  0  0  0  0  0
  139.7920   69.8240  225.9790 C   0  0  0  0  0  0  0  0  0  0  0  0
  139.5640   69.1020  227.1140 C   0  0  0  0  0  0  0  0  0  0  0  0
  140.0550   69.5290  228.3200 C   0  0  0  0  0  0  0  0  0  0  0  0
  140.7910   70.7090  228.3760 C   0  0  0  0  0  0  0  0  0  0  0  0
  141.0140   71.4330  227.2040 C   0  0  0  0  0  0  0  0  0  0  0  0
  140.5160   71.0020  225.9810 C   0  0  0  0  0  0  0  0  0  0  0  0
  140.7350   71.7130  224.8400 N   0  0  0  0  0  0  0  0  0  0  0  0
  139.5830   73.8340  223.0590 H   0  0  0  0  0  0  0  0  0  0  0  0
  141.1997   73.7931  220.5247 H   0  0  0  0  0  0  0  0  0  0  0  0
  139.4313   73.8764  220.2777 H   0  0  0  0  0  0  0  0  0  0  0  0
  139.8686   75.7179  218.4798 H   0  0  0  0  0  0  0  0  0  0  0  0
  139.1412   77.2360  218.9748 H   0  0  0  0  0  0  0  0  0  0  0  0
  141.3900   76.9628  217.2214 H   0  0  0  0  0  0  0  0  0  0  0  0
  140.9512   78.4753  217.9853 H   0  0  0  0  0  0  0  0  0  0  0  0
  142.8567   76.2628  219.0679 H   0  0  0  0  0  0  0  0  0  0  0  0
  143.2650   77.9361  218.9072 H   0  0  0  0  0  0  0  0  0  0  0  0
  142.4549   77.4445  221.3100 H   0  0  0  0  0  0  0  0  0  0  0  0
  141.6121   79.5320  219.9805 H   0  0  0  0  0  0  0  0  0  0  0  0
  140.0738   78.6784  220.5702 H   0  0  0  0  0  0  0  0  0  0  0  0
  140.5591   78.0640  223.3899 H   0  0  0  0  0  0  0  0  0  0  0  0
  142.2503   77.8291  223.0149 H   0  0  0  0  0  0  0  0  0  0  0  0
  140.9504   80.2646  224.4893 H   0  0  0  0  0  0  0  0  0  0  0  0
  142.1877   79.2575  225.1609 H   0  0  0  0  0  0  0  0  0  0  0  0
  142.8285   81.5356  223.7760 H   0  0  0  0  0  0  0  0  0  0  0  0
  143.8748   80.1397  223.5945 H   0  0  0  0  0  0  0  0  0  0  0  0
  142.0257   81.3444  221.6654 H   0  0  0  0  0  0  0  0  0  0  0  0
  143.2218   80.0525  221.3793 H   0  0  0  0  0  0  0  0  0  0  0  0
  139.1056   69.7473  222.6337 H   0  0  0  0  0  0  0  0  0  0  0  0
  138.7206   68.4674  224.7289 H   0  0  0  0  0  0  0  0  0  0  0  0
  138.9817   68.1703  227.0606 H   0  0  0  0  0  0  0  0  0  0  0  0
  139.8695   68.9455  229.2339 H   0  0  0  0  0  0  0  0  0  0  0  0
  141.1931   71.0675  229.3351 H   0  0  0  0  0  0  0  0  0  0  0  0
  141.5966   72.3649  227.2497 H   0  0  0  0  0  0  0  0  0  0  0  0
  1  2  2  0
  2  3  1  0
  3  4  1  0
  4  5  1  0
  5  6  2  0
  5  7  1  0
  7  8  1  0
  8  9  1  0
  9 10  1  0
 10 11  1  0
 11 12  1  0
 12 13  1  0
 13 14  1  0
 14 15  1  0
 15 16  1  0
 16 17  1  0
  2 18  1  0
 18 19  2  0
 19 20  1  0
 20 21  2  0
 21 22  1  0
 22 23  2  0
 23 24  1  0
 24 25  2  0
 25 26  1  0
 26 27  2  0
 11  7  1  0
 17 13  1  0
 27 18  1  0
 26 21  1  0
  3 28  1  0
  4 29  1  0
  4 30  1  0
  8 31  1  0
  8 32  1  0
  9 33  1  0
  9 34  1  0
 10 35  1  0
 10 36  1  0
 11 37  1  1
 12 38  1  0
 12 39  1  0
 14 40  1  0
 14 41  1  0
 15 42  1  0
 15 43  1  0
 16 44  1  0
 16 45  1  0
 17 46  1  0
 17 47  1  0
 19 48  1  0
 20 49  1  0
 22 50  1  0
 23 51  1  0
 24 52  1  0
 25 53  1  0
M  END
>  <smiles>  (7) 
O=C(NCC(=O)N1CCC[C@H]1CN1CCCC1)c1ccc2ccccc2n1

>  <score_type>  (7) 
oracle

>  <origin>  (7) 
autodockgpu

>  <m_score__min__energy>  (7) 
-8.3499999999999996

>  <m_primary>  (7) 
energy

>  <rmsd>  (7) 
1.8896571580507042

>  <m_score__min__rmsd>  (7) 
1.8896571580507042

>  <meeko>  (7) 
{"free_energy": -8.06, "intermolecular_energy": -9.85, "internal_energy": -1.75, "cluster_size": 29, "cluster_id": 1, "rank_in_cluster": 21}

>  <energy>  (7) 
-8.21

>  <cluster_rmsd>  (7) 
0.59

>  <cluster>  (7) 
1

$$$$

     RDKit          3D

 53 56  0  0  0  0  0  0  0  0999 V2000
  140.2620   71.4700  221.3010 O   0  0  0  0  0  0  0  0  0  0  0  0
  140.0380   72.0560  222.3960 C   0  0  0  0  0  0  0  0  0  0  0  0
  139.7720   73.4530  222.3130 N   0  0  0  0  0  0  0  0  0  0  0  0
  139.7540   74.1730  221.0440 C   0  0  0  0  0  0  0  0  0  0  0  0
  140.2630   75.5220  221.2740 C   0  0  0  0  0  0  0  0  0  0  0  0
  140.1790   76.1340  222.3930 O   0  0  0  0  0  0  0  0  0  0  0  0
  140.9060   76.2630  220.2360 N   0  0  0  0  0  0  0  0  0  0  0  0
  140.6570   76.2100  218.8010 C   0  0  0  0  0  0  0  0  0  0  0  0
  141.9480   76.7710  218.1900 C   0  0  0  0  0  0  0  0  0  0  0  0
  142.9220   76.7740  219.3840 C   0  0  0  0  0  0  0  0  0  0  0  0
  142.0010   77.2780  220.4640 C   0  0  1  0  0  0  0  0  0  0  0  0
  141.4480   78.6310  220.3080 C   0  0  0  0  0  0  0  0  0  0  0  0
  141.2150   79.3670  221.4840 N   0  0  0  0  0  0  0  0  0  0  0  0
  140.1430   79.1110  222.3450 C   0  0  0  0  0  0  0  0  0  0  0  0
  140.4740   79.9980  223.5730 C   0  0  0  0  0  0  0  0  0  0  0  0
  141.9360   79.6650  223.7480 C   0  0  0  0  0  0  0  0  0  0  0  0
  142.3990   79.3800  222.3550 C   0  0  0  0  0  0  0  0  0  0  0  0
  140.0540   71.3280  223.6650 C   0  0  0  0  0  0  0  0  0  0  0  0
  139.5420   70.0260  223.6590 C   0  0  0  0  0  0  0  0  0  0  0  0
  139.5430   69.3200  224.8540 C   0  0  0  0  0  0  0  0  0  0  0  0
  140.0230   69.8530  226.0250 C   0  0  0  0  0  0  0  0  0  0  0  0
  140.0060   69.1260  227.1800 C   0  0  0  0  0  0  0  0  0  0  0  0
  140.4860   69.6630  228.3460 C   0  0  0  0  0  0  0  0  0  0  0  0
  140.9930   70.9590  228.3410 C   0  0  0  0  0  0  0  0  0  0  0  0
  141.0030   71.6860  227.1490 C   0  0  0  0  0  0  0  0  0  0  0  0
  140.5160   71.1430  225.9670 C   0  0  0  0  0  0  0  0  0  0  0  0
  140.5270   71.8570  224.8070 N   0  0  0  0  0  0  0  0  0  0  0  0
  139.5860   73.9450  223.2230 H   0  0  0  0  0  0  0  0  0  0  0  0
  140.3920   73.6544  220.3133 H   0  0  0  0  0  0  0  0  0  0  0  0
  138.7285   74.2176  220.6485 H   0  0  0  0  0  0  0  0  0  0  0  0
  140.4833   75.1753  218.4704 H   0  0  0  0  0  0  0  0  0  0  0  0
  139.7617   76.7745  218.5013 H   0  0  0  0  0  0  0  0  0  0  0  0
  142.3164   76.1237  217.3806 H   0  0  0  0  0  0  0  0  0  0  0  0
  141.8169   77.7635  217.7343 H   0  0  0  0  0  0  0  0  0  0  0  0
  143.2999   75.7652  219.6064 H   0  0  0  0  0  0  0  0  0  0  0  0
  143.8363   77.3677  219.2374 H   0  0  0  0  0  0  0  0  0  0  0  0
  142.4936   77.3647  221.4437 H   0  0  0  0  0  0  0  0  0  0  0  0
  142.1520   79.2076  219.6901 H   0  0  0  0  0  0  0  0  0  0  0  0
  140.4530   78.4825  219.8631 H   0  0  0  0  0  0  0  0  0  0  0  0
  139.1873   79.4070  221.8877 H   0  0  0  0  0  0  0  0  0  0  0  0
  140.0274   78.0458  222.5940 H   0  0  0  0  0  0  0  0  0  0  0  0
  140.3211   81.0660  223.3586 H   0  0  0  0  0  0  0  0  0  0  0  0
  139.8475   79.8167  224.4588 H   0  0  0  0  0  0  0  0  0  0  0  0
  142.4843   80.5162  224.1780 H   0  0  0  0  0  0  0  0  0  0  0  0
  142.1040   78.8231  224.4357 H   0  0  0  0  0  0  0  0  0  0  0  0
  143.0981   80.1626  222.0251 H   0  0  0  0  0  0  0  0  0  0  0  0
  142.9190   78.4116  222.3126 H   0  0  0  0  0  0  0  0  0  0  0  0
  139.1505   69.5754  222.7351 H   0  0  0  0  0  0  0  0  0  0  0  0
  139.1442   68.2949  224.8634 H   0  0  0  0  0  0  0  0  0  0  0  0
  139.6043   68.1020  227.1750 H   0  0  0  0  0  0  0  0  0  0  0  0
  140.4707   69.0758  229.2760 H   0  0  0  0  0  0  0  0  0  0  0  0
  141.3822   71.4064  229.2675 H   0  0  0  0  0  0  0  0  0  0  0  0
  141.4049   72.7100  227.1460 H   0  0  0  0  0  0  0  0  0  0  0  0
  1  2  2  0
  2  3  1  0
  3  4  1  0
  4  5  1  0
  5  6  2  0
  5  7  1  0
  7  8  1  0
  8  9  1  0
  9 10  1  0
 10 11  1  0
 11 12  1  0
 12 13  1  0
 13 14  1  0
 14 15  1  0
 15 16  1  0
 16 17  1  0
  2 18  1  0
 18 19  2  0
 19 20  1  0
 20 21  2  0
 21 22  1  0
 22 23  2  0
 23 24  1  0
 24 25  2  0
 25 26  1  0
 26 27  2  0
 11  7  1  0
 17 13  1  0
 27 18  1  0
 26 21  1  0
  3 28  1  0
  4 29  1  0
  4 30  1  0
  8 31  1  0
  8 32  1  0
  9 33  1  0
  9 34  1  0
 10 35  1  0
 10 36  1  0
 11 37  1  1
 12 38  1  0
 12 39  1  0
 14 40  1  0
 14 41  1  0
 15 42  1  0
 15 43  1  0
 16 44  1  0
 16 45  1  0
 17 46  1  0
 17 47  1  0
 19 48  1  0
 20 49  1  0
 22 50  1  0
 23 51  1  0
 24 52  1  0
 25 53  1  0
M  END
>  <smiles>  (8) 
O=C(NCC(=O)N1CCC[C@H]1CN1CCCC1)c1ccc2ccccc2n1

>  <score_type>  (8) 
oracle

>  <origin>  (8) 
autodockgpu

>  <m_score__min__energy>  (8) 
-8.3499999999999996

>  <m_primary>  (8) 
energy

>  <rmsd>  (8) 
1.9860181431993817

>  <m_score__min__rmsd>  (8) 
1.9860181431993817

>  <meeko>  (8) 
{"free_energy": -8.0, "intermolecular_energy": -9.79, "internal_energy": -1.81, "cluster_size": 29, "cluster_id": 1, "rank_in_cluster": 24}

>  <energy>  (8) 
-8.2

>  <cluster_rmsd>  (8) 
1.68

>  <cluster>  (8) 
1

$$$$

     RDKit          3D

 53 56  0  0  0  0  0  0  0  0999 V2000
  141.1580   71.9510  221.4880 O   0  0  0  0  0  0  0  0  0  0  0  0
  140.4230   72.3200  222.4460 C   0  0  0  0  0  0  0  0  0  0  0  0
  139.7710   73.5760  222.2840 N   0  0  0  0  0  0  0  0  0  0  0  0
  139.9320   74.3940  221.0870 C   0  0  0  0  0  0  0  0  0  0  0  0
  140.5610   75.6540  221.4720 C   0  0  0  0  0  0  0  0  0  0  0  0
  140.4450   76.1830  222.6290 O   0  0  0  0  0  0  0  0  0  0  0  0
  141.3690   76.3940  220.5560 N   0  0  0  0  0  0  0  0  0  0  0  0
  141.7870   77.7870  220.6420 C   0  0  0  0  0  0  0  0  0  0  0  0
  142.1410   78.1480  219.1940 C   0  0  0  0  0  0  0  0  0  0  0  0
  141.5560   76.9690  218.3920 C   0  0  0  0  0  0  0  0  0  0  0  0
  141.9580   75.8260  219.2860 C   0  0  1  0  0  0  0  0  0  0  0  0
  143.3960   75.5900  219.4820 C   0  0  0  0  0  0  0  0  0  0  0  0
  143.7640   74.4510  220.2200 N   0  0  0  0  0  0  0  0  0  0  0  0
  143.5190   73.1460  219.7820 C   0  0  0  0  0  0  0  0  0  0  0  0
  144.3190   72.2910  220.7990 C   0  0  0  0  0  0  0  0  0  0  0  0
  145.6180   73.0590  220.8200 C   0  0  0  0  0  0  0  0  0  0  0  0
  145.1950   74.4680  220.5580 C   0  0  0  0  0  0  0  0  0  0  0  0
  140.2640   71.4940  223.6440 C   0  0  0  0  0  0  0  0  0  0  0  0
  139.5870   70.2790  223.4930 C   0  0  0  0  0  0  0  0  0  0  0  0
  139.4200   69.4830  224.6180 C   0  0  0  0  0  0  0  0  0  0  0  0
  139.8910   69.8460  225.8560 C   0  0  0  0  0  0  0  0  0  0  0  0
  139.7060   69.0360  226.9380 C   0  0  0  0  0  0  0  0  0  0  0  0
  140.1780   69.4040  228.1700 C   0  0  0  0  0  0  0  0  0  0  0  0
  140.8500   70.6150  228.3090 C   0  0  0  0  0  0  0  0  0  0  0  0
  141.0310   71.4300  227.1890 C   0  0  0  0  0  0  0  0  0  0  0  0
  140.5520   71.0580  225.9400 C   0  0  0  0  0  0  0  0  0  0  0  0
  140.7290   71.8570  224.8510 N   0  0  0  0  0  0  0  0  0  0  0  0
  139.1590   73.8870  223.0800 H   0  0  0  0  0  0  0  0  0  0  0  0
  140.5683   73.8679  220.3601 H   0  0  0  0  0  0  0  0  0  0  0  0
  138.9522   74.5859  220.6254 H   0  0  0  0  0  0  0  0  0  0  0  0
  140.9688   78.4201  221.0157 H   0  0  0  0  0  0  0  0  0  0  0  0
  142.6256   77.9392  221.3374 H   0  0  0  0  0  0  0  0  0  0  0  0
  141.6737   79.0987  218.8977 H   0  0  0  0  0  0  0  0  0  0  0  0
  143.2199   78.2898  219.0331 H   0  0  0  0  0  0  0  0  0  0  0  0
  140.4632   77.0449  218.2915 H   0  0  0  0  0  0  0  0  0  0  0  0
  141.9085   76.8929  217.3528 H   0  0  0  0  0  0  0  0  0  0  0  0
  141.6352   74.8464  218.9038 H   0  0  0  0  0  0  0  0  0  0  0  0
  143.8560   75.5027  218.4866 H   0  0  0  0  0  0  0  0  0  0  0  0
  143.7448   76.4429  220.0827 H   0  0  0  0  0  0  0  0  0  0  0  0
  142.4456   72.9089  219.8217 H   0  0  0  0  0  0  0  0  0  0  0  0
  143.8151   72.9728  218.7368 H   0  0  0  0  0  0  0  0  0  0  0  0
  143.8375   72.2757  221.7879 H   0  0  0  0  0  0  0  0  0  0  0  0
  144.4135   71.2267  220.5374 H   0  0  0  0  0  0  0  0  0  0  0  0
  146.1102   72.9721  221.7999 H   0  0  0  0  0  0  0  0  0  0  0  0
  146.3473   72.6871  220.0853 H   0  0  0  0  0  0  0  0  0  0  0  0
  145.3604   75.0817  221.4558 H   0  0  0  0  0  0  0  0  0  0  0  0
  145.7804   74.8981  219.7320 H   0  0  0  0  0  0  0  0  0  0  0  0
  139.1990   69.9642  222.5130 H   0  0  0  0  0  0  0  0  0  0  0  0
  138.8901   68.5247  224.5139 H   0  0  0  0  0  0  0  0  0  0  0  0
  139.1739   68.0805  226.8202 H   0  0  0  0  0  0  0  0  0  0  0  0
  140.0275   68.7491  229.0409 H   0  0  0  0  0  0  0  0  0  0  0  0
  141.2348   70.9272  229.2911 H   0  0  0  0  0  0  0  0  0  0  0  0
  141.5639   72.3860  227.2988 H   0  0  0  0  0  0  0  0  0  0  0  0
  1  2  2  0
  2  3  1  0
  3  4  1  0
  4  5  1  0
  5  6  2  0
  5  7  1  0
  7  8  1  0
  8  9  1  0
  9 10  1  0
 10 11  1  0
 11 12  1  0
 12 13  1  0
 13 14  1  0
 14 15  1  0
 15 16  1  0
 16 17  1  0
  2 18  1  0
 18 19  2  0
 19 20  1  0
 20 21  2  0
 21 22  1  0
 22 23  2  0
 23 24  1  0
 24 25  2  0
 25 26  1  0
 26 27  2  0
 11  7  1  0
 17 13  1  0
 27 18  1  0
 26 21  1  0
  3 28  1  0
  4 29  1  0
  4 30  1  0
  8 31  1  0
  8 32  1  0
  9 33  1  0
  9 34  1  0
 10 35  1  0
 10 36  1  0
 11 37  1  6
 12 38  1  0
 12 39  1  0
 14 40  1  0
 14 41  1  0
 15 42  1  0
 15 43  1  0
 16 44  1  0
 16 45  1  0
 17 46  1  0
 17 47  1  0
 19 48  1  0
 20 49  1  0
 22 50  1  0
 23 51  1  0
 24 52  1  0
 25 53  1  0
M  END
>  <smiles>  (9) 
O=C(NCC(=O)N1CCC[C@H]1CN1CCCC1)c1ccc2ccccc2n1

>  <score_type>  (9) 
oracle

>  <origin>  (9) 
autodockgpu

>  <m_score__min__energy>  (9) 
-8.3499999999999996

>  <m_primary>  (9) 
energy

>  <rmsd>  (9) 
4.094282848455298

>  <m_score__min__rmsd>  (9) 
4.094282848455298

>  <meeko>  (9) 
{"free_energy": -7.96, "intermolecular_energy": -9.75, "internal_energy": -1.8, "cluster_size": 17, "cluster_id": 2, "rank_in_cluster": 7}

>  <energy>  (9) 
-8.19

>  <cluster_rmsd>  (9) 
1.66

>  <cluster>  (9) 
1

$$$$

     RDKit          3D

 53 56  0  0  0  0  0  0  0  0999 V2000
  141.1040   72.7280  222.0500 O   0  0  0  0  0  0  0  0  0  0  0  0
  140.0320   72.5190  222.6840 C   0  0  0  0  0  0  0  0  0  0  0  0
  138.8870   73.2310  222.2240 N   0  0  0  0  0  0  0  0  0  0  0  0
  138.9380   74.1460  221.0880 C   0  0  0  0  0  0  0  0  0  0  0  0
  139.7660   75.2910  221.4580 C   0  0  0  0  0  0  0  0  0  0  0  0
  139.9390   75.6850  222.6600 O   0  0  0  0  0  0  0  0  0  0  0  0
  140.4540   76.0610  220.4720 N   0  0  0  0  0  0  0  0  0  0  0  0
  140.2650   76.0560  219.0270 C   0  0  0  0  0  0  0  0  0  0  0  0
  141.5820   76.6290  218.4880 C   0  0  0  0  0  0  0  0  0  0  0  0
  142.5060   76.5870  219.7210 C   0  0  0  0  0  0  0  0  0  0  0  0
  141.5440   77.0620  220.7780 C   0  0  1  0  0  0  0  0  0  0  0  0
  141.0050   78.4220  220.6440 C   0  0  0  0  0  0  0  0  0  0  0  0
  141.1370   79.2770  221.7540 N   0  0  0  0  0  0  0  0  0  0  0  0
  141.3280   78.8100  223.0580 C   0  0  0  0  0  0  0  0  0  0  0  0
  141.6580   80.1080  223.8380 C   0  0  0  0  0  0  0  0  0  0  0  0
  142.6580   80.7330  222.8950 C   0  0  0  0  0  0  0  0  0  0  0  0
  142.2090   80.2620  221.5490 C   0  0  0  0  0  0  0  0  0  0  0  0
  139.9880   71.5980  223.8200 C   0  0  0  0  0  0  0  0  0  0  0  0
  139.3070   70.3910  223.6340 C   0  0  0  0  0  0  0  0  0  0  0  0
  139.2480   69.5050  224.7020 C   0  0  0  0  0  0  0  0  0  0  0  0
  139.8290   69.7750  225.9170 C   0  0  0  0  0  0  0  0  0  0  0  0
  139.7480   68.8790  226.9430 C   0  0  0  0  0  0  0  0  0  0  0  0
  140.3290   69.1540  228.1530 C   0  0  0  0  0  0  0  0  0  0  0  0
  141.0040   70.3580  228.3270 C   0  0  0  0  0  0  0  0  0  0  0  0
  141.0760   71.2620  227.2650 C   0  0  0  0  0  0  0  0  0  0  0  0
  140.4870   70.9840  226.0380 C   0  0  0  0  0  0  0  0  0  0  0  0
  140.5600   71.8700  225.0060 N   0  0  0  0  0  0  0  0  0  0  0  0
  137.9930   73.0610  222.7490 H   0  0  0  0  0  0  0  0  0  0  0  0
  139.3770   73.6351  220.2184 H   0  0  0  0  0  0  0  0  0  0  0  0
  137.9237   74.4810  220.8254 H   0  0  0  0  0  0  0  0  0  0  0  0
  140.1008   75.0335  218.6561 H   0  0  0  0  0  0  0  0  0  0  0  0
  139.3855   76.6353  218.7093 H   0  0  0  0  0  0  0  0  0  0  0  0
  141.9805   76.0064  217.6734 H   0  0  0  0  0  0  0  0  0  0  0  0
  141.4744   77.6366  218.0599 H   0  0  0  0  0  0  0  0  0  0  0  0
  142.8689   75.5690  219.9258 H   0  0  0  0  0  0  0  0  0  0  0  0
  143.4287   77.1791  219.6315 H   0  0  0  0  0  0  0  0  0  0  0  0
  141.9961   77.1143  221.7794 H   0  0  0  0  0  0  0  0  0  0  0  0
  141.5173   78.8992  219.7956 H   0  0  0  0  0  0  0  0  0  0  0  0
  139.9208   78.2867  220.5168 H   0  0  0  0  0  0  0  0  0  0  0  0
  140.4156   78.3343  223.4469 H   0  0  0  0  0  0  0  0  0  0  0  0
  142.1111   78.0415  223.1368 H   0  0  0  0  0  0  0  0  0  0  0  0
  140.7691   80.7424  223.9696 H   0  0  0  0  0  0  0  0  0  0  0  0
  142.0231   79.9521  224.8639 H   0  0  0  0  0  0  0  0  0  0  0  0
  142.6257   81.8307  222.9585 H   0  0  0  0  0  0  0  0  0  0  0  0
  143.6966   80.4514  223.1233 H   0  0  0  0  0  0  0  0  0  0  0  0
  141.8297   81.1116  220.9622 H   0  0  0  0  0  0  0  0  0  0  0  0
  143.0479   79.8094  221.0000 H   0  0  0  0  0  0  0  0  0  0  0  0
  138.8325   70.1505  222.6712 H   0  0  0  0  0  0  0  0  0  0  0  0
  138.7160   68.5513  224.5699 H   0  0  0  0  0  0  0  0  0  0  0  0
  139.2125   67.9292  226.7976 H   0  0  0  0  0  0  0  0  0  0  0  0
  140.2624   68.4301  228.9786 H   0  0  0  0  0  0  0  0  0  0  0  0
  141.4763   70.5956  229.2916 H   0  0  0  0  0  0  0  0  0  0  0  0
  141.6101   72.2137  227.4029 H   0  0  0  0  0  0  0  0  0  0  0  0
  1  2  2  0
  2  3  1  0
  3  4  1  0
  4  5  1  0
  5  6  2  0
  5  7  1  0
  7  8  1  0
  8  9  1  0
  9 10  1  0
 10 11  1  0
 11 12  1  0
 12 13  1  0
 13 14  1  0
 14 15  1  0
 15 16  1  0
 16 17  1  0
  2 18  1  0
 18 19  2  0
 19 20  1  0
 20 21  2  0
 21 22  1  0
 22 23  2  0
 23 24  1  0
 24 25  2  0
 25 26  1  0
 26 27  2  0
 11  7  1  0
 17 13  1  0
 27 18  1  0
 26 21  1  0
  3 28  1  0
  4 29  1  0
  4 30  1  0
  8 31  1  0
  8 32  1  0
  9 33  1  0
  9 34  1  0
 10 35  1  0
 10 36  1  0
 11 37  1  1
 12 38  1  0
 12 39  1  0
 14 40  1  0
 14 41  1  0
 15 42  1  0
 15 43  1  0
 16 44  1  0
 16 45  1  0
 17 46  1  0
 17 47  1  0
 19 48  1  0
 20 49  1  0
 22 50  1  0
 23 51  1  0
 24 52  1  0
 25 53  1  0
M  END
>  <smiles>  (10) 
O=C(NCC(=O)N1CCC[C@H]1CN1CCCC1)c1ccc2ccccc2n1

>  <score_type>  (10) 
oracle

>  <origin>  (10) 
autodockgpu

>  <m_score__min__energy>  (10) 
-8.3499999999999996

>  <m_primary>  (10) 
energy

>  <rmsd>  (10) 
1.7031458901596086

>  <m_score__min__rmsd>  (10) 
1.7031458901596086

>  <meeko>  (10) 
{"free_energy": -8.09, "intermolecular_energy": -9.88, "internal_energy": -1.36, "cluster_size": 29, "cluster_id": 1, "rank_in_cluster": 19}

>  <energy>  (10) 
-8.18

>  <cluster_rmsd>  (10) 
1.08

>  <cluster>  (10) 
1

$$$$

     RDKit          3D

 53 56  0  0  0  0  0  0  0  0999 V2000
  138.7610   71.1500  221.6320 O   0  0  0  0  0  0  0  0  0  0  0  0
  139.2540   71.5990  222.7030 C   0  0  0  0  0  0  0  0  0  0  0  0
  139.5650   72.9890  222.7130 N   0  0  0  0  0  0  0  0  0  0  0  0
  139.3270   73.8530  221.5610 C   0  0  0  0  0  0  0  0  0  0  0  0
  139.8390   75.1850  221.8720 C   0  0  0  0  0  0  0  0  0  0  0  0
  141.0620   75.4310  222.1460 O   0  0  0  0  0  0  0  0  0  0  0  0
  138.9810   76.3270  221.8900 N   0  0  0  0  0  0  0  0  0  0  0  0
  137.5320   76.3660  222.0340 C   0  0  0  0  0  0  0  0  0  0  0  0
  137.1480   77.7320  221.4510 C   0  0  0  0  0  0  0  0  0  0  0  0
  138.4380   78.1770  220.7340 C   0  0  0  0  0  0  0  0  0  0  0  0
  139.4580   77.7540  221.7590 C   0  0  1  0  0  0  0  0  0  0  0  0
  139.4070   78.4040  223.0760 C   0  0  0  0  0  0  0  0  0  0  0  0
  140.5040   79.2080  223.4370 N   0  0  0  0  0  0  0  0  0  0  0  0
  141.8330   78.8190  223.2420 C   0  0  0  0  0  0  0  0  0  0  0  0
  142.6180   80.1180  223.5590 C   0  0  0  0  0  0  0  0  0  0  0  0
  141.7950   81.1160  222.7820 C   0  0  0  0  0  0  0  0  0  0  0  0
  140.4140   80.5450  222.8310 C   0  0  0  0  0  0  0  0  0  0  0  0
  139.4870   70.7280  223.8560 C   0  0  0  0  0  0  0  0  0  0  0  0
  139.0590   69.4010  223.7480 C   0  0  0  0  0  0  0  0  0  0  0  0
  139.2640   68.5590  224.8330 C   0  0  0  0  0  0  0  0  0  0  0  0
  139.8660   68.9850  225.9920 C   0  0  0  0  0  0  0  0  0  0  0  0
  140.0490   68.1260  227.0380 C   0  0  0  0  0  0  0  0  0  0  0  0
  140.6490   68.5560  228.1920 C   0  0  0  0  0  0  0  0  0  0  0  0
  141.0710   69.8790  228.2890 C   0  0  0  0  0  0  0  0  0  0  0  0
  140.8750   70.7410  227.2080 C   0  0  0  0  0  0  0  0  0  0  0  0
  140.2660   70.3070  226.0380 C   0  0  0  0  0  0  0  0  0  0  0  0
  140.0770   71.1520  224.9870 N   0  0  0  0  0  0  0  0  0  0  0  0
  139.9770   73.3660  223.6030 H   0  0  0  0  0  0  0  0  0  0  0  0
  139.8488   73.4504  220.6803 H   0  0  0  0  0  0  0  0  0  0  0  0
  138.2503   73.9031  221.3414 H   0  0  0  0  0  0  0  0  0  0  0  0
  137.0590   75.5503  221.4676 H   0  0  0  0  0  0  0  0  0  0  0  0
  137.2025   76.2380  223.0756 H   0  0  0  0  0  0  0  0  0  0  0  0
  136.3130   77.6384  220.7410 H   0  0  0  0  0  0  0  0  0  0  0  0
  136.8059   78.4481  222.2127 H   0  0  0  0  0  0  0  0  0  0  0  0
  138.5767   77.6518  219.7775 H   0  0  0  0  0  0  0  0  0  0  0  0
  138.4723   79.2402  220.4538 H   0  0  0  0  0  0  0  0  0  0  0  0
  140.4913   77.9770  221.4547 H   0  0  0  0  0  0  0  0  0  0  0  0
  138.5093   79.0393  223.0974 H   0  0  0  0  0  0  0  0  0  0  0  0
  139.4091   77.5773  223.8016 H   0  0  0  0  0  0  0  0  0  0  0  0
  142.1139   78.0078  223.9298 H   0  0  0  0  0  0  0  0  0  0  0  0
  142.0293   78.4252  222.2338 H   0  0  0  0  0  0  0  0  0  0  0  0
  142.6206   80.3411  224.6361 H   0  0  0  0  0  0  0  0  0  0  0  0
  143.6854   80.0911  223.2947 H   0  0  0  0  0  0  0  0  0  0  0  0
  141.8275   82.1073  223.2577 H   0  0  0  0  0  0  0  0  0  0  0  0
  142.1603   81.2648  221.7552 H   0  0  0  0  0  0  0  0  0  0  0  0
  139.7636   81.1895  223.4405 H   0  0  0  0  0  0  0  0  0  0  0  0
  139.9874   80.4813  221.8191 H   0  0  0  0  0  0  0  0  0  0  0  0
  138.5744   69.0351  222.8308 H   0  0  0  0  0  0  0  0  0  0  0  0
  138.9322   67.5126  224.7618 H   0  0  0  0  0  0  0  0  0  0  0  0
  139.7124   67.0822  226.9532 H   0  0  0  0  0  0  0  0  0  0  0  0
  140.7958   67.8629  229.0334 H   0  0  0  0  0  0  0  0  0  0  0  0
  141.5541   70.2419  229.2082 H   0  0  0  0  0  0  0  0  0  0  0  0
  141.2101   71.7859  227.2849 H   0  0  0  0  0  0  0  0  0  0  0  0
  1  2  2  0
  2  3  1  0
  3  4  1  0
  4  5  1  0
  5  6  2  0
  5  7  1  0
  7  8  1  0
  8  9  1  0
  9 10  1  0
 10 11  1  0
 11 12  1  0
 12 13  1  0
 13 14  1  0
 14 15  1  0
 15 16  1  0
 16 17  1  0
  2 18  1  0
 18 19  2  0
 19 20  1  0
 20 21  2  0
 21 22  1  0
 22 23  2  0
 23 24  1  0
 24 25  2  0
 25 26  1  0
 26 27  2  0
 11  7  1  0
 17 13  1  0
 27 18  1  0
 26 21  1  0
  3 28  1  0
  4 29  1  0
  4 30  1  0
  8 31  1  0
  8 32  1  0
  9 33  1  0
  9 34  1  0
 10 35  1  0
 10 36  1  0
 11 37  1  6
 12 38  1  0
 12 39  1  0
 14 40  1  0
 14 41  1  0
 15 42  1  0
 15 43  1  0
 16 44  1  0
 16 45  1  0
 17 46  1  0
 17 47  1  0
 19 48  1  0
 20 49  1  0
 22 50  1  0
 23 51  1  0
 24 52  1  0
 25 53  1  0
M  END
>  <smiles>  (11) 
O=C(NCC(=O)N1CCC[C@H]1CN1CCCC1)c1ccc2ccccc2n1

>  <score_type>  (11) 
oracle

>  <origin>  (11) 
autodockgpu

>  <m_score__min__energy>  (11) 
-8.3499999999999996

>  <m_primary>  (11) 
energy

>  <rmsd>  (11) 
2.4764205405528807

>  <m_score__min__rmsd>  (11) 
2.4764205405528807

>  <meeko>  (11) 
{"free_energy": -7.81, "intermolecular_energy": -9.6, "internal_energy": -1.54, "cluster_size": 29, "cluster_id": 1, "rank_in_cluster": 27}

>  <energy>  (11) 
-8.16

>  <cluster_rmsd>  (11) 
0.63

>  <cluster>  (11) 
1

$$$$

     RDKit          3D

 53 56  0  0  0  0  0  0  0  0999 V2000
  140.9200   71.5240  221.3620 O   0  0  0  0  0  0  0  0  0  0  0  0
  140.4000   72.0610  222.3790 C   0  0  0  0  0  0  0  0  0  0  0  0
  140.0190   73.4260  222.2380 N   0  0  0  0  0  0  0  0  0  0  0  0
  140.2110   74.1680  220.9960 C   0  0  0  0  0  0  0  0  0  0  0  0
  140.5600   75.5450  221.3340 C   0  0  0  0  0  0  0  0  0  0  0  0
  140.1410   76.1500  222.3780 O   0  0  0  0  0  0  0  0  0  0  0  0
  141.4150   76.3240  220.4960 N   0  0  0  0  0  0  0  0  0  0  0  0
  141.6410   77.7630  220.5250 C   0  0  0  0  0  0  0  0  0  0  0  0
  142.1870   78.0710  219.1250 C   0  0  0  0  0  0  0  0  0  0  0  0
  141.8910   76.7740  218.3460 C   0  0  0  0  0  0  0  0  0  0  0  0
  142.2720   75.7570  219.3890 C   0  0  1  0  0  0  0  0  0  0  0  0
  143.6740   75.7280  219.8290 C   0  0  0  0  0  0  0  0  0  0  0  0
  144.3030   74.4700  219.8850 N   0  0  0  0  0  0  0  0  0  0  0  0
  145.3320   74.1710  220.7840 C   0  0  0  0  0  0  0  0  0  0  0  0
  145.4920   72.6380  220.6180 C   0  0  0  0  0  0  0  0  0  0  0  0
  144.0430   72.2180  220.6570 C   0  0  0  0  0  0  0  0  0  0  0  0
  143.3250   73.3880  220.0650 C   0  0  0  0  0  0  0  0  0  0  0  0
  140.2080   71.3090  223.6210 C   0  0  0  0  0  0  0  0  0  0  0  0
  139.5140   70.0980  223.5310 C   0  0  0  0  0  0  0  0  0  0  0  0
  139.3160   69.3730  224.6980 C   0  0  0  0  0  0  0  0  0  0  0  0
  139.7730   69.8030  225.9200 C   0  0  0  0  0  0  0  0  0  0  0  0
  139.5570   69.0610  227.0450 C   0  0  0  0  0  0  0  0  0  0  0  0
  140.0150   69.4950  228.2620 C   0  0  0  0  0  0  0  0  0  0  0  0
  140.7050   70.7020  228.3390 C   0  0  0  0  0  0  0  0  0  0  0  0
  140.9160   71.4450  227.1770 C   0  0  0  0  0  0  0  0  0  0  0  0
  140.4520   71.0070  225.9430 C   0  0  0  0  0  0  0  0  0  0  0  0
  140.6600   71.7370  224.8120 N   0  0  0  0  0  0  0  0  0  0  0  0
  139.5870   73.8760  223.0830 H   0  0  0  0  0  0  0  0  0  0  0  0
  141.0232   73.7112  220.4115 H   0  0  0  0  0  0  0  0  0  0  0  0
  139.2896   74.1470  220.3956 H   0  0  0  0  0  0  0  0  0  0  0  0
  140.7011   78.3045  220.7078 H   0  0  0  0  0  0  0  0  0  0  0  0
  142.3261   78.0718  221.3283 H   0  0  0  0  0  0  0  0  0  0  0  0
  141.6652   78.9295  218.6769 H   0  0  0  0  0  0  0  0  0  0  0  0
  143.2526   78.3438  219.1250 H   0  0  0  0  0  0  0  0  0  0  0  0
  140.8296   76.6969  218.0678 H   0  0  0  0  0  0  0  0  0  0  0  0
  142.4191   76.6767  217.3860 H   0  0  0  0  0  0  0  0  0  0  0  0
  142.1377   74.7200  219.0475 H   0  0  0  0  0  0  0  0  0  0  0  0
  144.2519   76.3567  219.1356 H   0  0  0  0  0  0  0  0  0  0  0  0
  143.6526   76.0818  220.8703 H   0  0  0  0  0  0  0  0  0  0  0  0
  146.2593   74.6983  220.5156 H   0  0  0  0  0  0  0  0  0  0  0  0
  145.1131   74.4785  221.8172 H   0  0  0  0  0  0  0  0  0  0  0  0
  145.9667   72.3784  219.6603 H   0  0  0  0  0  0  0  0  0  0  0  0
  146.1349   72.1551  221.3687 H   0  0  0  0  0  0  0  0  0  0  0  0
  143.8800   71.3113  220.0558 H   0  0  0  0  0  0  0  0  0  0  0  0
  143.6957   71.9702  221.6709 H   0  0  0  0  0  0  0  0  0  0  0  0
  142.8923   73.1089  219.0929 H   0  0  0  0  0  0  0  0  0  0  0  0
  142.5089   73.7134  220.7268 H   0  0  0  0  0  0  0  0  0  0  0  0
  139.1367   69.7314  222.5650 H   0  0  0  0  0  0  0  0  0  0  0  0
  138.7727   68.4182  224.6422 H   0  0  0  0  0  0  0  0  0  0  0  0
  139.0117   68.1083  226.9747 H   0  0  0  0  0  0  0  0  0  0  0  0
  139.8393   68.8962  229.1679 H   0  0  0  0  0  0  0  0  0  0  0  0
  141.0802   71.0663  229.3067 H   0  0  0  0  0  0  0  0  0  0  0  0
  141.4615   72.3982  227.2394 H   0  0  0  0  0  0  0  0  0  0  0  0
  1  2  2  0
  2  3  1  0
  3  4  1  0
  4  5  1  0
  5  6  2  0
  5  7  1  0
  7  8  1  0
  8  9  1  0
  9 10  1  0
 10 11  1  0
 11 12  1  0
 12 13  1  0
 13 14  1  0
 14 15  1  0
 15 16  1  0
 16 17  1  0
  2 18  1  0
 18 19  2  0
 19 20  1  0
 20 21  2  0
 21 22  1  0
 22 23  2  0
 23 24  1  0
 24 25  2  0
 25 26  1  0
 26 27  2  0
 11  7  1  0
 17 13  1  0
 27 18  1  0
 26 21  1  0
  3 28  1  0
  4 29  1  0
  4 30  1  0
  8 31  1  0
  8 32  1  0
  9 33  1  0
  9 34  1  0
 10 35  1  0
 10 36  1  0
 11 37  1  6
 12 38  1  0
 12 39  1  0
 14 40  1  0
 14 41  1  0
 15 42  1  0
 15 43  1  0
 16 44  1  0
 16 45  1  0
 17 46  1  0
 17 47  1  0
 19 48  1  0
 20 49  1  0
 22 50  1  0
 23 51  1  0
 24 52  1  0
 25 53  1  0
M  END
>  <smiles>  (12) 
O=C(NCC(=O)N1CCC[C@H]1CN1CCCC1)c1ccc2ccccc2n1

>  <score_type>  (12) 
oracle

>  <origin>  (12) 
autodockgpu

>  <m_score__min__energy>  (12) 
-8.3499999999999996

>  <m_primary>  (12) 
energy

>  <rmsd>  (12) 
4.186866496265376

>  <m_score__min__rmsd>  (12) 
4.186866496265376

>  <meeko>  (12) 
{"free_energy": -7.95, "intermolecular_energy": -9.74, "internal_energy": -1.94, "cluster_size": 17, "cluster_id": 2, "rank_in_cluster": 9}

>  <energy>  (12) 
-8.16

>  <cluster_rmsd>  (12) 
1.12

>  <cluster>  (12) 
1

$$$$

     RDKit          3D

 53 56  0  0  0  0  0  0  0  0999 V2000
  141.4280   72.5460  221.8800 O   0  0  0  0  0  0  0  0  0  0  0  0
  140.4030   72.5350  222.6170 C   0  0  0  0  0  0  0  0  0  0  0  0
  139.4340   73.5450  222.3530 N   0  0  0  0  0  0  0  0  0  0  0  0
  139.6030   74.5350  221.2940 C   0  0  0  0  0  0  0  0  0  0  0  0
  139.9000   75.8240  221.9130 C   0  0  0  0  0  0  0  0  0  0  0  0
  141.0730   76.1950  222.2550 O   0  0  0  0  0  0  0  0  0  0  0  0
  138.8700   76.7760  222.1810 N   0  0  0  0  0  0  0  0  0  0  0  0
  137.5440   76.5390  222.7380 C   0  0  0  0  0  0  0  0  0  0  0  0
  136.7420   77.7710  222.2960 C   0  0  0  0  0  0  0  0  0  0  0  0
  137.6590   78.4180  221.2400 C   0  0  0  0  0  0  0  0  0  0  0  0
  138.9910   78.2600  221.9250 C   0  0  1  0  0  0  0  0  0  0  0  0
  139.1850   78.9580  223.2030 C   0  0  0  0  0  0  0  0  0  0  0  0
  140.3940   79.6570  223.3750 N   0  0  0  0  0  0  0  0  0  0  0  0
  141.5710   79.0470  223.8160 C   0  0  0  0  0  0  0  0  0  0  0  0
  142.6320   80.1570  223.5960 C   0  0  0  0  0  0  0  0  0  0  0  0
  142.2560   80.6040  222.2040 C   0  0  0  0  0  0  0  0  0  0  0  0
  140.7810   80.3720  222.1490 C   0  0  0  0  0  0  0  0  0  0  0  0
  140.2380   71.5380  223.6760 C   0  0  0  0  0  0  0  0  0  0  0  0
  139.5800   70.3520  223.3350 C   0  0  0  0  0  0  0  0  0  0  0  0
  139.4080   69.3950  224.3260 C   0  0  0  0  0  0  0  0  0  0  0  0
  139.8580   69.5750  225.6120 C   0  0  0  0  0  0  0  0  0  0  0  0
  139.6690   68.6100  226.5580 C   0  0  0  0  0  0  0  0  0  0  0  0
  140.1180   68.7960  227.8390 C   0  0  0  0  0  0  0  0  0  0  0  0
  140.7720   69.9800  228.1660 C   0  0  0  0  0  0  0  0  0  0  0  0
  140.9570   70.9550  227.1840 C   0  0  0  0  0  0  0  0  0  0  0  0
  140.5010   70.7680  225.8860 C   0  0  0  0  0  0  0  0  0  0  0  0
  140.6820   71.7220  224.9310 N   0  0  0  0  0  0  0  0  0  0  0  0
  138.5800   73.5400  222.9650 H   0  0  0  0  0  0  0  0  0  0  0  0
  140.4335   74.2381  220.6366 H   0  0  0  0  0  0  0  0  0  0  0  0
  138.6847   74.6065  220.6926 H   0  0  0  0  0  0  0  0  0  0  0  0
  137.1051   75.6170  222.3289 H   0  0  0  0  0  0  0  0  0  0  0  0
  137.5563   76.4059  223.8299 H   0  0  0  0  0  0  0  0  0  0  0  0
  135.7771   77.4783  221.8563 H   0  0  0  0  0  0  0  0  0  0  0  0
  136.4915   78.4472  223.1267 H   0  0  0  0  0  0  0  0  0  0  0  0
  137.6249   77.8776  220.2825 H   0  0  0  0  0  0  0  0  0  0  0  0
  137.3965   79.4505  220.9660 H   0  0  0  0  0  0  0  0  0  0  0  0
  139.8281   78.6645  221.3371 H   0  0  0  0  0  0  0  0  0  0  0  0
  138.3648   79.6828  223.3124 H   0  0  0  0  0  0  0  0  0  0  0  0
  139.2066   78.1616  223.9615 H   0  0  0  0  0  0  0  0  0  0  0  0
  141.5006   78.7702  224.8783 H   0  0  0  0  0  0  0  0  0  0  0  0
  141.8023   78.1104  223.2875 H   0  0  0  0  0  0  0  0  0  0  0  0
  142.5292   80.9713  224.3283 H   0  0  0  0  0  0  0  0  0  0  0  0
  143.6760   79.8307  223.7125 H   0  0  0  0  0  0  0  0  0  0  0  0
  142.4924   81.6680  222.0555 H   0  0  0  0  0  0  0  0  0  0  0  0
  142.8040   80.0636  221.4181 H   0  0  0  0  0  0  0  0  0  0  0  0
  140.2522   81.3350  222.0943 H   0  0  0  0  0  0  0  0  0  0  0  0
  140.5171   79.7814  221.2593 H   0  0  0  0  0  0  0  0  0  0  0  0
  139.2101   70.1826  222.3130 H   0  0  0  0  0  0  0  0  0  0  0  0
  138.8920   68.4572  224.0723 H   0  0  0  0  0  0  0  0  0  0  0  0
  139.1526   67.6763  226.2903 H   0  0  0  0  0  0  0  0  0  0  0  0
  139.9632   68.0178  228.6008 H   0  0  0  0  0  0  0  0  0  0  0  0
  141.1400   70.1463  229.1892 H   0  0  0  0  0  0  0  0  0  0  0  0
  141.4745   71.8902  227.4439 H   0  0  0  0  0  0  0  0  0  0  0  0
  1  2  2  0
  2  3  1  0
  3  4  1  0
  4  5  1  0
  5  6  2  0
  5  7  1  0
  7  8  1  0
  8  9  1  0
  9 10  1  0
 10 11  1  0
 11 12  1  0
 12 13  1  0
 13 14  1  0
 14 15  1  0
 15 16  1  0
 16 17  1  0
  2 18  1  0
 18 19  2  0
 19 20  1  0
 20 21  2  0
 21 22  1  0
 22 23  2  0
 23 24  1  0
 24 25  2  0
 25 26  1  0
 26 27  2  0
 11  7  1  0
 17 13  1  0
 27 18  1  0
 26 21  1  0
  3 28  1  0
  4 29  1  0
  4 30  1  0
  8 31  1  0
  8 32  1  0
  9 33  1  0
  9 34  1  0
 10 35  1  0
 10 36  1  0
 11 37  1  6
 12 38  1  0
 12 39  1  0
 14 40  1  0
 14 41  1  0
 15 42  1  0
 15 43  1  0
 16 44  1  0
 16 45  1  0
 17 46  1  0
 17 47  1  0
 19 48  1  0
 20 49  1  0
 22 50  1  0
 23 51  1  0
 24 52  1  0
 25 53  1  0
M  END
>  <smiles>  (13) 
O=C(NCC(=O)N1CCC[C@H]1CN1CCCC1)c1ccc2ccccc2n1

>  <score_type>  (13) 
oracle

>  <origin>  (13) 
autodockgpu

>  <m_score__min__energy>  (13) 
-8.3499999999999996

>  <m_primary>  (13) 
energy

>  <rmsd>  (13) 
2.8464058465731363

>  <m_score__min__rmsd>  (13) 
2.8464058465731363

>  <meeko>  (13) 
{"free_energy": -8.21, "intermolecular_energy": -10.0, "internal_energy": -1.36, "cluster_size": 29, "cluster_id": 1, "rank_in_cluster": 7}

>  <energy>  (13) 
-8.16

>  <cluster_rmsd>  (13) 
1.67

>  <cluster>  (13) 
1

$$$$

     RDKit          3D

 53 56  0  0  0  0  0  0  0  0999 V2000
  140.9080   71.6620  221.3660 O   0  0  0  0  0  0  0  0  0  0  0  0
  140.3880   72.1700  222.3980 C   0  0  0  0  0  0  0  0  0  0  0  0
  139.9420   73.5180  222.2720 N   0  0  0  0  0  0  0  0  0  0  0  0
  140.0720   74.2730  221.0310 C   0  0  0  0  0  0  0  0  0  0  0  0
  140.5680   75.6080  221.3540 C   0  0  0  0  0  0  0  0  0  0  0  0
  140.2370   76.2540  222.4050 O   0  0  0  0  0  0  0  0  0  0  0  0
  141.4800   76.2920  220.4950 N   0  0  0  0  0  0  0  0  0  0  0  0
  141.7110   77.7260  220.3820 C   0  0  0  0  0  0  0  0  0  0  0  0
  142.3490   77.8800  218.9940 C   0  0  0  0  0  0  0  0  0  0  0  0
  142.0980   76.5050  218.3440 C   0  0  0  0  0  0  0  0  0  0  0  0
  142.4060   75.6090  219.5150 C   0  0  1  0  0  0  0  0  0  0  0  0
  143.7760   75.6320  220.0470 C   0  0  0  0  0  0  0  0  0  0  0  0
  144.5100   74.4340  219.9780 N   0  0  0  0  0  0  0  0  0  0  0  0
  145.5760   74.1420  220.8350 C   0  0  0  0  0  0  0  0  0  0  0  0
  145.8640   72.6510  220.5220 C   0  0  0  0  0  0  0  0  0  0  0  0
  144.4570   72.1050  220.5340 C   0  0  0  0  0  0  0  0  0  0  0  0
  143.6310   73.2590  220.0620 C   0  0  0  0  0  0  0  0  0  0  0  0
  140.2590   71.4060  223.6390 C   0  0  0  0  0  0  0  0  0  0  0  0
  139.6220   70.1640  223.5590 C   0  0  0  0  0  0  0  0  0  0  0  0
  139.4830   69.4250  224.7260 C   0  0  0  0  0  0  0  0  0  0  0  0
  139.9460   69.8720  225.9400 C   0  0  0  0  0  0  0  0  0  0  0  0
  139.7900   69.1170  227.0660 C   0  0  0  0  0  0  0  0  0  0  0  0
  140.2530   69.5670  228.2740 C   0  0  0  0  0  0  0  0  0  0  0  0
  140.8860   70.8050  228.3430 C   0  0  0  0  0  0  0  0  0  0  0  0
  141.0360   71.5620  227.1800 C   0  0  0  0  0  0  0  0  0  0  0  0
  140.5670   71.1070  225.9550 C   0  0  0  0  0  0  0  0  0  0  0  0
  140.7150   71.8510  224.8230 N   0  0  0  0  0  0  0  0  0  0  0  0
  139.5100   73.9450  223.1290 H   0  0  0  0  0  0  0  0  0  0  0  0
  140.7806   73.7656  220.3599 H   0  0  0  0  0  0  0  0  0  0  0  0
  139.0966   74.3436  220.5274 H   0  0  0  0  0  0  0  0  0  0  0  0
  140.7641   78.2825  220.4431 H   0  0  0  0  0  0  0  0  0  0  0  0
  142.3437   78.1222  221.1899 H   0  0  0  0  0  0  0  0  0  0  0  0
  141.8617   78.6830  218.4216 H   0  0  0  0  0  0  0  0  0  0  0  0
  143.4137   78.1534  219.0337 H   0  0  0  0  0  0  0  0  0  0  0  0
  141.0565   76.3953  218.0076 H   0  0  0  0  0  0  0  0  0  0  0  0
  142.6867   76.3044  217.4367 H   0  0  0  0  0  0  0  0  0  0  0  0
  142.2904   74.5405  219.2807 H   0  0  0  0  0  0  0  0  0  0  0  0
  144.3358   76.3964  219.4881 H   0  0  0  0  0  0  0  0  0  0  0  0
  143.6606   75.8337  221.1222 H   0  0  0  0  0  0  0  0  0  0  0  0
  146.4500   74.7709  220.6099 H   0  0  0  0  0  0  0  0  0  0  0  0
  145.3492   74.3304  221.8948 H   0  0  0  0  0  0  0  0  0  0  0  0
  146.3426   72.5250  219.5396 H   0  0  0  0  0  0  0  0  0  0  0  0
  146.5589   72.1572  221.2172 H   0  0  0  0  0  0  0  0  0  0  0  0
  144.3619   71.2480  219.8510 H   0  0  0  0  0  0  0  0  0  0  0  0
  144.1497   71.7341  221.5229 H   0  0  0  0  0  0  0  0  0  0  0  0
  143.2078   73.0363  219.0714 H   0  0  0  0  0  0  0  0  0  0  0  0
  142.8008   73.4484  220.7583 H   0  0  0  0  0  0  0  0  0  0  0  0
  139.2420   69.7835  222.5994 H   0  0  0  0  0  0  0  0  0  0  0  0
  138.9840   68.4459  224.6770 H   0  0  0  0  0  0  0  0  0  0  0  0
  139.2887   68.1399  227.0030 H   0  0  0  0  0  0  0  0  0  0  0  0
  140.1260   68.9565  229.1802 H   0  0  0  0  0  0  0  0  0  0  0  0
  141.2641   71.1828  229.3044 H   0  0  0  0  0  0  0  0  0  0  0  0
  141.5365   72.5400  227.2352 H   0  0  0  0  0  0  0  0  0  0  0  0
  1  2  2  0
  2  3  1  0
  3  4  1  0
  4  5  1  0
  5  6  2  0
  5  7  1  0
  7  8  1  0
  8  9  1  0
  9 10  1  0
 10 11  1  0
 11 12  1  0
 12 13  1  0
 13 14  1  0
 14 15  1  0
 15 16  1  0
 16 17  1  0
  2 18  1  0
 18 19  2  0
 19 20  1  0
 20 21  2  0
 21 22  1  0
 22 23  2  0
 23 24  1  0
 24 25  2  0
 25 26  1  0
 26 27  2  0
 11  7  1  0
 17 13  1  0
 27 18  1  0
 26 21  1  0
  3 28  1  0
  4 29  1  0
  4 30  1  0
  8 31  1  0
  8 32  1  0
  9 33  1  0
  9 34  1  0
 10 35  1  0
 10 36  1  0
 11 37  1  6
 12 38  1  0
 12 39  1  0
 14 40  1  0
 14 41  1  0
 15 42  1  0
 15 43  1  0
 16 44  1  0
 16 45  1  0
 17 46  1  0
 17 47  1  0
 19 48  1  0
 20 49  1  0
 22 50  1  0
 23 51  1  0
 24 52  1  0
 25 53  1  0
M  END
>  <smiles>  (14) 
O=C(NCC(=O)N1CCC[C@H]1CN1CCCC1)c1ccc2ccccc2n1

>  <score_type>  (14) 
oracle

>  <origin>  (14) 
autodockgpu

>  <m_score__min__energy>  (14) 
-8.3499999999999996

>  <m_primary>  (14) 
energy

>  <rmsd>  (14) 
4.253321389654045

>  <m_score__min__rmsd>  (14) 
4.253321389654045

>  <meeko>  (14) 
{"free_energy": -8.04, "intermolecular_energy": -9.83, "internal_energy": -1.81, "cluster_size": 17, "cluster_id": 2, "rank_in_cluster": 2}

>  <energy>  (14) 
-8.15

>  <cluster_rmsd>  (14) 
1.63

>  <cluster>  (14) 
1

$$$$

     RDKit          3D

 53 56  0  0  0  0  0  0  0  0999 V2000
  141.3750   72.4140  221.9470 O   0  0  0  0  0  0  0  0  0  0  0  0
  140.3440   72.3840  222.6760 C   0  0  0  0  0  0  0  0  0  0  0  0
  139.3230   73.3220  222.3510 N   0  0  0  0  0  0  0  0  0  0  0  0
  139.4480   74.2630  221.2430 C   0  0  0  0  0  0  0  0  0  0  0  0
  139.9420   75.5320  221.7710 C   0  0  0  0  0  0  0  0  0  0  0  0
  141.1770   75.7840  221.9760 O   0  0  0  0  0  0  0  0  0  0  0  0
  139.0520   76.5990  222.0990 N   0  0  0  0  0  0  0  0  0  0  0  0
  137.7190   76.5170  222.6820 C   0  0  0  0  0  0  0  0  0  0  0  0
  137.0770   77.8590  222.3040 C   0  0  0  0  0  0  0  0  0  0  0  0
  138.0470   78.4210  221.2470 C   0  0  0  0  0  0  0  0  0  0  0  0
  139.3610   78.0630  221.8910 C   0  0  1  0  0  0  0  0  0  0  0  0
  139.6730   78.6820  223.1880 C   0  0  0  0  0  0  0  0  0  0  0  0
  140.9660   79.2110  223.3510 N   0  0  0  0  0  0  0  0  0  0  0  0
  141.9340   79.1850  222.3440 C   0  0  0  0  0  0  0  0  0  0  0  0
  143.0520   80.0900  222.9230 C   0  0  0  0  0  0  0  0  0  0  0  0
  142.2210   81.2500  223.4130 C   0  0  0  0  0  0  0  0  0  0  0  0
  140.9210   80.6140  223.7890 C   0  0  0  0  0  0  0  0  0  0  0  0
  140.2240   71.4350  223.7840 C   0  0  0  0  0  0  0  0  0  0  0  0
  139.5650   70.2310  223.5220 C   0  0  0  0  0  0  0  0  0  0  0  0
  139.4350   69.3190  224.5610 C   0  0  0  0  0  0  0  0  0  0  0  0
  139.9270   69.5620  225.8200 C   0  0  0  0  0  0  0  0  0  0  0  0
  139.7780   68.6400  226.8160 C   0  0  0  0  0  0  0  0  0  0  0  0
  140.2710   68.8880  228.0710 C   0  0  0  0  0  0  0  0  0  0  0  0
  140.9260   70.0900  228.3200 C   0  0  0  0  0  0  0  0  0  0  0  0
  141.0680   71.0200  227.2880 C   0  0  0  0  0  0  0  0  0  0  0  0
  140.5690   70.7700  226.0170 C   0  0  0  0  0  0  0  0  0  0  0  0
  140.7100   71.6810  225.0130 N   0  0  0  0  0  0  0  0  0  0  0  0
  138.4640   73.3010  222.9560 H   0  0  0  0  0  0  0  0  0  0  0  0
  140.1560   73.8692  220.4989 H   0  0  0  0  0  0  0  0  0  0  0  0
  138.4713   74.4092  220.7586 H   0  0  0  0  0  0  0  0  0  0  0  0
  137.1537   75.6765  222.2531 H   0  0  0  0  0  0  0  0  0  0  0  0
  137.7372   76.3426  223.7679 H   0  0  0  0  0  0  0  0  0  0  0  0
  136.0726   77.7115  221.8803 H   0  0  0  0  0  0  0  0  0  0  0  0
  136.9365   78.5301  223.1641 H   0  0  0  0  0  0  0  0  0  0  0  0
  137.9210   77.9272  220.2721 H   0  0  0  0  0  0  0  0  0  0  0  0
  137.9169   79.4886  221.0162 H   0  0  0  0  0  0  0  0  0  0  0  0
  140.2311   78.3756  221.2951 H   0  0  0  0  0  0  0  0  0  0  0  0
  138.9572   79.5025  223.3444 H   0  0  0  0  0  0  0  0  0  0  0  0
  139.6070   77.8618  223.9180 H   0  0  0  0  0  0  0  0  0  0  0  0
  142.3006   78.1622  222.1724 H   0  0  0  0  0  0  0  0  0  0  0  0
  141.5580   79.5257  221.3680 H   0  0  0  0  0  0  0  0  0  0  0  0
  143.5911   79.5975  223.7457 H   0  0  0  0  0  0  0  0  0  0  0  0
  143.8474   80.3571  222.2116 H   0  0  0  0  0  0  0  0  0  0  0  0
  142.6906   81.7297  224.2844 H   0  0  0  0  0  0  0  0  0  0  0  0
  142.1076   82.0439  222.6601 H   0  0  0  0  0  0  0  0  0  0  0  0
  140.7821   80.6618  224.8792 H   0  0  0  0  0  0  0  0  0  0  0  0
  140.0821   81.1402  223.3101 H   0  0  0  0  0  0  0  0  0  0  0  0
  139.1612   70.0122  222.5225 H   0  0  0  0  0  0  0  0  0  0  0  0
  138.9189   68.3668  224.3686 H   0  0  0  0  0  0  0  0  0  0  0  0
  139.2591   67.6922  226.6101 H   0  0  0  0  0  0  0  0  0  0  0  0
  140.1500   68.1445  228.8726 H   0  0  0  0  0  0  0  0  0  0  0  0
  141.3284   70.3058  229.3208 H   0  0  0  0  0  0  0  0  0  0  0  0
  141.5858   71.9700  227.4863 H   0  0  0  0  0  0  0  0  0  0  0  0
  1  2  2  0
  2  3  1  0
  3  4  1  0
  4  5  1  0
  5  6  2  0
  5  7  1  0
  7  8  1  0
  8  9  1  0
  9 10  1  0
 10 11  1  0
 11 12  1  0
 12 13  1  0
 13 14  1  0
 14 15  1  0
 15 16  1  0
 16 17  1  0
  2 18  1  0
 18 19  2  0
 19 20  1  0
 20 21  2  0
 21 22  1  0
 22 23  2  0
 23 24  1  0
 24 25  2  0
 25 26  1  0
 26 27  2  0
 11  7  1  0
 17 13  1  0
 27 18  1  0
 26 21  1  0
  3 28  1  0
  4 29  1  0
  4 30  1  0
  8 31  1  0
  8 32  1  0
  9 33  1  0
  9 34  1  0
 10 35  1  0
 10 36  1  0
 11 37  1  6
 12 38  1  0
 12 39  1  0
 14 40  1  0
 14 41  1  0
 15 42  1  0
 15 43  1  0
 16 44  1  0
 16 45  1  0
 17 46  1  0
 17 47  1  0
 19 48  1  0
 20 49  1  0
 22 50  1  0
 23 51  1  0
 24 52  1  0
 25 53  1  0
M  END
>  <smiles>  (15) 
O=C(NCC(=O)N1CCC[C@H]1CN1CCCC1)c1ccc2ccccc2n1

>  <score_type>  (15) 
oracle

>  <origin>  (15) 
autodockgpu

>  <m_score__min__energy>  (15) 
-8.3499999999999996

>  <m_primary>  (15) 
energy

>  <rmsd>  (15) 
2.940510158136522

>  <m_score__min__rmsd>  (15) 
2.940510158136522

>  <meeko>  (15) 
{"free_energy": -8.35, "intermolecular_energy": -10.14, "internal_energy": -1.27, "cluster_size": 29, "cluster_id": 1, "rank_in_cluster": 1}

>  <energy>  (15) 
-8.15

>  <cluster_rmsd>  (15) 
1.72

>  <cluster>  (15) 
1

$$$$

     RDKit          3D

 53 56  0  0  0  0  0  0  0  0999 V2000
  141.5120   72.2260  221.7700 O   0  0  0  0  0  0  0  0  0  0  0  0
  140.5260   72.4570  222.5240 C   0  0  0  0  0  0  0  0  0  0  0  0
  139.7050   73.5620  222.1560 N   0  0  0  0  0  0  0  0  0  0  0  0
  139.9770   74.3820  220.9800 C   0  0  0  0  0  0  0  0  0  0  0  0
  140.7060   75.5730  221.4090 C   0  0  0  0  0  0  0  0  0  0  0  0
  140.7130   76.0080  222.6100 O   0  0  0  0  0  0  0  0  0  0  0  0
  141.4780   76.3450  220.4900 N   0  0  0  0  0  0  0  0  0  0  0  0
  141.6620   77.7900  220.4560 C   0  0  0  0  0  0  0  0  0  0  0  0
  142.1020   78.0640  219.0120 C   0  0  0  0  0  0  0  0  0  0  0  0
  141.7930   76.7330  218.2980 C   0  0  0  0  0  0  0  0  0  0  0  0
  142.2760   75.7640  219.3450 C   0  0  1  0  0  0  0  0  0  0  0  0
  143.7040   75.7900  219.6880 C   0  0  0  0  0  0  0  0  0  0  0  0
  144.3690   74.5520  219.7590 N   0  0  0  0  0  0  0  0  0  0  0  0
  145.2370   74.2110  220.8010 C   0  0  0  0  0  0  0  0  0  0  0  0
  145.4940   72.7030  220.5490 C   0  0  0  0  0  0  0  0  0  0  0  0
  144.0800   72.2370  220.2970 C   0  0  0  0  0  0  0  0  0  0  0  0
  143.4240   73.4290  219.6780 C   0  0  0  0  0  0  0  0  0  0  0  0
  140.2570   71.6280  223.7000 C   0  0  0  0  0  0  0  0  0  0  0  0
  139.4130   70.5270  223.5230 C   0  0  0  0  0  0  0  0  0  0  0  0
  139.1410   69.7310  224.6280 C   0  0  0  0  0  0  0  0  0  0  0  0
  139.6670   69.9900  225.8700 C   0  0  0  0  0  0  0  0  0  0  0  0
  139.3740   69.1840  226.9320 C   0  0  0  0  0  0  0  0  0  0  0  0
  139.9010   69.4470  228.1690 C   0  0  0  0  0  0  0  0  0  0  0  0
  140.7400   70.5450  228.3330 C   0  0  0  0  0  0  0  0  0  0  0  0
  141.0280   71.3570  227.2350 C   0  0  0  0  0  0  0  0  0  0  0  0
  140.4930   71.0920  225.9810 C   0  0  0  0  0  0  0  0  0  0  0  0
  140.7770   71.8880  224.9120 N   0  0  0  0  0  0  0  0  0  0  0  0
  138.8840   73.7580  222.7810 H   0  0  0  0  0  0  0  0  0  0  0  0
  140.5853   73.8123  220.2621 H   0  0  0  0  0  0  0  0  0  0  0  0
  139.0338   74.6703  220.4930 H   0  0  0  0  0  0  0  0  0  0  0  0
  140.7209   78.3112  220.6854 H   0  0  0  0  0  0  0  0  0  0  0  0
  142.3905   78.1456  221.1995 H   0  0  0  0  0  0  0  0  0  0  0  0
  141.5253   78.8915  218.5730 H   0  0  0  0  0  0  0  0  0  0  0  0
  143.1565   78.3660  218.9296 H   0  0  0  0  0  0  0  0  0  0  0  0
  140.7178   76.6163  218.0971 H   0  0  0  0  0  0  0  0  0  0  0  0
  142.2564   76.6174  217.3071 H   0  0  0  0  0  0  0  0  0  0  0  0
  142.1516   74.7123  219.0475 H   0  0  0  0  0  0  0  0  0  0  0  0
  144.2163   76.3982  218.9279 H   0  0  0  0  0  0  0  0  0  0  0  0
  143.7436   76.1933  220.7107 H   0  0  0  0  0  0  0  0  0  0  0  0
  146.1718   74.7879  220.7437 H   0  0  0  0  0  0  0  0  0  0  0  0
  144.8263   74.4235  221.7991 H   0  0  0  0  0  0  0  0  0  0  0  0
  146.1403   72.5393  219.6740 H   0  0  0  0  0  0  0  0  0  0  0  0
  146.0174   72.1791  221.3623 H   0  0  0  0  0  0  0  0  0  0  0  0
  144.0657   71.3789  219.6089 H   0  0  0  0  0  0  0  0  0  0  0  0
  143.5724   71.8955  221.2112 H   0  0  0  0  0  0  0  0  0  0  0  0
  143.1813   73.2188  218.6259 H   0  0  0  0  0  0  0  0  0  0  0  0
  142.4904   73.6725  220.2063 H   0  0  0  0  0  0  0  0  0  0  0  0
  138.9780   70.2985  222.5388 H   0  0  0  0  0  0  0  0  0  0  0  0
  138.4797   68.8608  224.5039 H   0  0  0  0  0  0  0  0  0  0  0  0
  138.7104   68.3177  226.7937 H   0  0  0  0  0  0  0  0  0  0  0  0
  139.6633   68.7968  229.0239 H   0  0  0  0  0  0  0  0  0  0  0  0
  141.1723   70.7709  229.3190 H   0  0  0  0  0  0  0  0  0  0  0  0
  141.6920   72.2242  227.3654 H   0  0  0  0  0  0  0  0  0  0  0  0
  1  2  2  0
  2  3  1  0
  3  4  1  0
  4  5  1  0
  5  6  2  0
  5  7  1  0
  7  8  1  0
  8  9  1  0
  9 10  1  0
 10 11  1  0
 11 12  1  0
 12 13  1  0
 13 14  1  0
 14 15  1  0
 15 16  1  0
 16 17  1  0
  2 18  1  0
 18 19  2  0
 19 20  1  0
 20 21  2  0
 21 22  1  0
 22 23  2  0
 23 24  1  0
 24 25  2  0
 25 26  1  0
 26 27  2  0
 11  7  1  0
 17 13  1  0
 27 18  1  0
 26 21  1  0
  3 28  1  0
  4 29  1  0
  4 30  1  0
  8 31  1  0
  8 32  1  0
  9 33  1  0
  9 34  1  0
 10 35  1  0
 10 36  1  0
 11 37  1  6
 12 38  1  0
 12 39  1  0
 14 40  1  0
 14 41  1  0
 15 42  1  0
 15 43  1  0
 16 44  1  0
 16 45  1  0
 17 46  1  0
 17 47  1  0
 19 48  1  0
 20 49  1  0
 22 50  1  0
 23 51  1  0
 24 52  1  0
 25 53  1  0
M  END
>  <smiles>  (16) 
O=C(NCC(=O)N1CCC[C@H]1CN1CCCC1)c1ccc2ccccc2n1

>  <score_type>  (16) 
oracle

>  <origin>  (16) 
autodockgpu

>  <m_score__min__energy>  (16) 
-8.3499999999999996

>  <m_primary>  (16) 
energy

>  <rmsd>  (16) 
4.190564275221271

>  <m_score__min__rmsd>  (16) 
4.190564275221271

>  <meeko>  (16) 
{"free_energy": -7.89, "intermolecular_energy": -9.68, "internal_energy": -1.69, "cluster_size": 17, "cluster_id": 2, "rank_in_cluster": 10}

>  <energy>  (16) 
-8.14

>  <cluster_rmsd>  (16) 
1.54

>  <cluster>  (16) 
1

$$$$

     RDKit          3D

 53 56  0  0  0  0  0  0  0  0999 V2000
  140.9480   71.5980  221.3630 O   0  0  0  0  0  0  0  0  0  0  0  0
  140.4250   72.1210  222.3860 C   0  0  0  0  0  0  0  0  0  0  0  0
  140.0400   73.4870  222.2610 N   0  0  0  0  0  0  0  0  0  0  0  0
  140.2310   74.2440  221.0280 C   0  0  0  0  0  0  0  0  0  0  0  0
  140.7320   75.5710  221.3780 C   0  0  0  0  0  0  0  0  0  0  0  0
  140.5260   76.1360  222.5050 O   0  0  0  0  0  0  0  0  0  0  0  0
  141.5070   76.3400  220.4580 N   0  0  0  0  0  0  0  0  0  0  0  0
  141.7360   77.7790  220.4520 C   0  0  0  0  0  0  0  0  0  0  0  0
  142.1510   78.0730  219.0040 C   0  0  0  0  0  0  0  0  0  0  0  0
  141.7840   76.7700  218.2690 C   0  0  0  0  0  0  0  0  0  0  0  0
  142.2590   75.7620  219.2820 C   0  0  1  0  0  0  0  0  0  0  0  0
  143.6960   75.7360  219.5910 C   0  0  0  0  0  0  0  0  0  0  0  0
  144.2870   74.4740  219.7840 N   0  0  0  0  0  0  0  0  0  0  0  0
  145.2320   74.2190  220.7830 C   0  0  0  0  0  0  0  0  0  0  0  0
  145.3690   72.6750  220.7340 C   0  0  0  0  0  0  0  0  0  0  0  0
  143.9120   72.2850  220.6810 C   0  0  0  0  0  0  0  0  0  0  0  0
  143.2720   73.4240  219.9540 C   0  0  0  0  0  0  0  0  0  0  0  0
  140.2340   71.3540  223.6180 C   0  0  0  0  0  0  0  0  0  0  0  0
  139.5540   70.1370  223.5110 C   0  0  0  0  0  0  0  0  0  0  0  0
  139.3570   69.3970  224.6690 C   0  0  0  0  0  0  0  0  0  0  0  0
  139.8020   69.8180  225.8980 C   0  0  0  0  0  0  0  0  0  0  0  0
  139.5880   69.0620  227.0140 C   0  0  0  0  0  0  0  0  0  0  0  0
  140.0340   69.4880  228.2380 C   0  0  0  0  0  0  0  0  0  0  0  0
  140.7090   70.7010  228.3320 C   0  0  0  0  0  0  0  0  0  0  0  0
  140.9190   71.4600  227.1790 C   0  0  0  0  0  0  0  0  0  0  0  0
  140.4670   71.0300  225.9390 C   0  0  0  0  0  0  0  0  0  0  0  0
  140.6740   71.7740  224.8170 N   0  0  0  0  0  0  0  0  0  0  0  0
  139.6060   73.9260  223.1110 H   0  0  0  0  0  0  0  0  0  0  0  0
  140.9595   73.7291  220.3844 H   0  0  0  0  0  0  0  0  0  0  0  0
  139.2787   74.3295  220.4841 H   0  0  0  0  0  0  0  0  0  0  0  0
  140.8175   78.3238  220.7155 H   0  0  0  0  0  0  0  0  0  0  0  0
  142.4926   78.0942  221.1856 H   0  0  0  0  0  0  0  0  0  0  0  0
  141.5906   78.9278  218.5976 H   0  0  0  0  0  0  0  0  0  0  0  0
  143.2122   78.3443  218.9030 H   0  0  0  0  0  0  0  0  0  0  0  0
  140.7014   76.6919  218.0907 H   0  0  0  0  0  0  0  0  0  0  0  0
  142.2214   76.6628  217.2654 H   0  0  0  0  0  0  0  0  0  0  0  0
  142.0937   74.7219  218.9643 H   0  0  0  0  0  0  0  0  0  0  0  0
  144.2229   76.2249  218.7584 H   0  0  0  0  0  0  0  0  0  0  0  0
  143.7877   76.2448  220.5619 H   0  0  0  0  0  0  0  0  0  0  0  0
  146.1902   74.7099  220.5576 H   0  0  0  0  0  0  0  0  0  0  0  0
  144.9369   74.6006  221.7716 H   0  0  0  0  0  0  0  0  0  0  0  0
  145.9138   72.3416  219.8384 H   0  0  0  0  0  0  0  0  0  0  0  0
  145.9372   72.2333  221.5659 H   0  0  0  0  0  0  0  0  0  0  0  0
  143.7772   71.3420  220.1309 H   0  0  0  0  0  0  0  0  0  0  0  0
  143.4777   72.1144  221.6771 H   0  0  0  0  0  0  0  0  0  0  0  0
  142.9140   73.0864  218.9702 H   0  0  0  0  0  0  0  0  0  0  0  0
  142.4120   73.8085  220.5220 H   0  0  0  0  0  0  0  0  0  0  0  0
  139.1863   69.7768  222.5389 H   0  0  0  0  0  0  0  0  0  0  0  0
  138.8243   68.4371  224.5994 H   0  0  0  0  0  0  0  0  0  0  0  0
  139.0538   68.1040  226.9305 H   0  0  0  0  0  0  0  0  0  0  0  0
  139.8602   68.8775  229.1364 H   0  0  0  0  0  0  0  0  0  0  0  0
  141.0740   71.0589  229.3060 H   0  0  0  0  0  0  0  0  0  0  0  0
  141.4536   72.4184  227.2549 H   0  0  0  0  0  0  0  0  0  0  0  0
  1  2  2  0
  2  3  1  0
  3  4  1  0
  4  5  1  0
  5  6  2  0
  5  7  1  0
  7  8  1  0
  8  9  1  0
  9 10  1  0
 10 11  1  0
 11 12  1  0
 12 13  1  0
 13 14  1  0
 14 15  1  0
 15 16  1  0
 16 17  1  0
  2 18  1  0
 18 19  2  0
 19 20  1  0
 20 21  2  0
 21 22  1  0
 22 23  2  0
 23 24  1  0
 24 25  2  0
 25 26  1  0
 26 27  2  0
 11  7  1  0
 17 13  1  0
 27 18  1  0
 26 21  1  0
  3 28  1  0
  4 29  1  0
  4 30  1  0
  8 31  1  0
  8 32  1  0
  9 33  1  0
  9 34  1  0
 10 35  1  0
 10 36  1  0
 11 37  1  6
 12 38  1  0
 12 39  1  0
 14 40  1  0
 14 41  1  0
 15 42  1  0
 15 43  1  0
 16 44  1  0
 16 45  1  0
 17 46  1  0
 17 47  1  0
 19 48  1  0
 20 49  1  0
 22 50  1  0
 23 51  1  0
 24 52  1  0
 25 53  1  0
M  END
>  <smiles>  (17) 
O=C(NCC(=O)N1CCC[C@H]1CN1CCCC1)c1ccc2ccccc2n1

>  <score_type>  (17) 
oracle

>  <origin>  (17) 
autodockgpu

>  <m_score__min__energy>  (17) 
-8.3499999999999996

>  <m_primary>  (17) 
energy

>  <rmsd>  (17) 
4.171813359384167

>  <m_score__min__rmsd>  (17) 
4.171813359384167

>  <meeko>  (17) 
{"free_energy": -7.88, "intermolecular_energy": -9.67, "internal_energy": -1.97, "cluster_size": 17, "cluster_id": 2, "rank_in_cluster": 11}

>  <energy>  (17) 
-8.12

>  <cluster_rmsd>  (17) 
1.06

>  <cluster>  (17) 
1

$$$$

     RDKit          3D

 53 56  0  0  0  0  0  0  0  0999 V2000
  140.7110   71.4500  221.3410 O   0  0  0  0  0  0  0  0  0  0  0  0
  140.2990   72.0090  222.3950 C   0  0  0  0  0  0  0  0  0  0  0  0
  139.9480   73.3840  222.2760 N   0  0  0  0  0  0  0  0  0  0  0  0
  140.0530   74.1120  221.0150 C   0  0  0  0  0  0  0  0  0  0  0  0
  140.3190   75.5160  221.3170 C   0  0  0  0  0  0  0  0  0  0  0  0
  140.1690   76.0360  222.4740 O   0  0  0  0  0  0  0  0  0  0  0  0
  140.7790   76.4190  220.3110 N   0  0  0  0  0  0  0  0  0  0  0  0
  140.3520   76.5170  218.9210 C   0  0  0  0  0  0  0  0  0  0  0  0
  141.5180   77.2410  218.2350 C   0  0  0  0  0  0  0  0  0  0  0  0
  142.6350   77.1760  219.2950 C   0  0  0  0  0  0  0  0  0  0  0  0
  141.8320   77.4800  220.5320 C   0  0  1  0  0  0  0  0  0  0  0  0
  141.1840   78.7960  220.6150 C   0  0  0  0  0  0  0  0  0  0  0  0
  141.7300   79.7230  221.5230 N   0  0  0  0  0  0  0  0  0  0  0  0
  141.0370   80.8530  221.9680 C   0  0  0  0  0  0  0  0  0  0  0  0
  141.9470   81.3820  223.1070 C   0  0  0  0  0  0  0  0  0  0  0  0
  142.2300   80.0910  223.8360 C   0  0  0  0  0  0  0  0  0  0  0  0
  142.1950   79.0630  222.7510 C   0  0  0  0  0  0  0  0  0  0  0  0
  140.1940   71.2720  223.6550 C   0  0  0  0  0  0  0  0  0  0  0  0
  139.5340   70.0390  223.6190 C   0  0  0  0  0  0  0  0  0  0  0  0
  139.4190   69.3260  224.8050 C   0  0  0  0  0  0  0  0  0  0  0  0
  139.9250   69.7890  225.9950 C   0  0  0  0  0  0  0  0  0  0  0  0
  139.7900   69.0590  227.1400 C   0  0  0  0  0  0  0  0  0  0  0  0
  140.2960   69.5260  228.3250 C   0  0  0  0  0  0  0  0  0  0  0  0
  140.9510   70.7530  228.3500 C   0  0  0  0  0  0  0  0  0  0  0  0
  141.0790   71.4850  227.1680 C   0  0  0  0  0  0  0  0  0  0  0  0
  140.5660   71.0130  225.9660 C   0  0  0  0  0  0  0  0  0  0  0  0
  140.6930   71.7320  224.8160 N   0  0  0  0  0  0  0  0  0  0  0  0
  139.6060   73.8530  223.1510 H   0  0  0  0  0  0  0  0  0  0  0  0
  140.8763   73.6983  220.4141 H   0  0  0  0  0  0  0  0  0  0  0  0
  139.1176   74.0177  220.4439 H   0  0  0  0  0  0  0  0  0  0  0  0
  140.1993   75.5184  218.4858 H   0  0  0  0  0  0  0  0  0  0  0  0
  139.3938   77.0445  218.8046 H   0  0  0  0  0  0  0  0  0  0  0  0
  141.8176   76.7228  217.3121 H   0  0  0  0  0  0  0  0  0  0  0  0
  141.2709   78.2676  217.9267 H   0  0  0  0  0  0  0  0  0  0  0  0
  143.0970   76.1788  219.3419 H   0  0  0  0  0  0  0  0  0  0  0  0
  143.4864   77.8491  219.1158 H   0  0  0  0  0  0  0  0  0  0  0  0
  142.4401   77.4884  221.4486 H   0  0  0  0  0  0  0  0  0  0  0  0
  141.2249   79.2494  219.6136 H   0  0  0  0  0  0  0  0  0  0  0  0
  140.1709   78.5914  220.9915 H   0  0  0  0  0  0  0  0  0  0  0  0
  140.9335   81.5971  221.1646 H   0  0  0  0  0  0  0  0  0  0  0  0
  140.0095   80.6352  222.2947 H   0  0  0  0  0  0  0  0  0  0  0  0
  142.8672   81.8399  222.7152 H   0  0  0  0  0  0  0  0  0  0  0  0
  141.5021   82.1757  223.7252 H   0  0  0  0  0  0  0  0  0  0  0  0
  143.2182   80.1202  224.3183 H   0  0  0  0  0  0  0  0  0  0  0  0
  141.5102   79.8876  224.6425 H   0  0  0  0  0  0  0  0  0  0  0  0
  143.2021   78.6488  222.5951 H   0  0  0  0  0  0  0  0  0  0  0  0
  141.5199   78.2386  223.0239 H   0  0  0  0  0  0  0  0  0  0  0  0
  139.1186   69.6461  222.6793 H   0  0  0  0  0  0  0  0  0  0  0  0
  138.9036   68.3543  224.7909 H   0  0  0  0  0  0  0  0  0  0  0  0
  139.2716   68.0892  227.1117 H   0  0  0  0  0  0  0  0  0  0  0  0
  140.1853   68.9365  229.2471 H   0  0  0  0  0  0  0  0  0  0  0  0
  141.3641   71.1428  229.2920 H   0  0  0  0  0  0  0  0  0  0  0  0
  141.5966   72.4554  227.1887 H   0  0  0  0  0  0  0  0  0  0  0  0
  1  2  2  0
  2  3  1  0
  3  4  1  0
  4  5  1  0
  5  6  2  0
  5  7  1  0
  7  8  1  0
  8  9  1  0
  9 10  1  0
 10 11  1  0
 11 12  1  0
 12 13  1  0
 13 14  1  0
 14 15  1  0
 15 16  1  0
 16 17  1  0
  2 18  1  0
 18 19  2  0
 19 20  1  0
 20 21  2  0
 21 22  1  0
 22 23  2  0
 23 24  1  0
 24 25  2  0
 25 26  1  0
 26 27  2  0
 11  7  1  0
 17 13  1  0
 27 18  1  0
 26 21  1  0
  3 28  1  0
  4 29  1  0
  4 30  1  0
  8 31  1  0
  8 32  1  0
  9 33  1  0
  9 34  1  0
 10 35  1  0
 10 36  1  0
 11 37  1  1
 12 38  1  0
 12 39  1  0
 14 40  1  0
 14 41  1  0
 15 42  1  0
 15 43  1  0
 16 44  1  0
 16 45  1  0
 17 46  1  0
 17 47  1  0
 19 48  1  0
 20 49  1  0
 22 50  1  0
 23 51  1  0
 24 52  1  0
 25 53  1  0
M  END
>  <smiles>  (18) 
O=C(NCC(=O)N1CCC[C@H]1CN1CCCC1)c1ccc2ccccc2n1

>  <score_type>  (18) 
oracle

>  <origin>  (18) 
autodockgpu

>  <m_score__min__energy>  (18) 
-8.3499999999999996

>  <m_primary>  (18) 
energy

>  <rmsd>  (18) 
2.14979163825798

>  <m_score__min__rmsd>  (18) 
2.14979163825798

>  <meeko>  (18) 
{"free_energy": -8.15, "intermolecular_energy": -9.94, "internal_energy": -1.69, "cluster_size": 29, "cluster_id": 1, "rank_in_cluster": 14}

>  <energy>  (18) 
-8.11

>  <cluster_rmsd>  (18) 
1.1

>  <cluster>  (18) 
1

$$$$

     RDKit          3D

 53 56  0  0  0  0  0  0  0  0999 V2000
  141.0770   71.9910  221.4750 O   0  0  0  0  0  0  0  0  0  0  0  0
  140.3290   72.3260  222.4350 C   0  0  0  0  0  0  0  0  0  0  0  0
  139.6010   73.5390  222.2650 N   0  0  0  0  0  0  0  0  0  0  0  0
  139.7040   74.3510  221.0570 C   0  0  0  0  0  0  0  0  0  0  0  0
  139.5060   75.7500  221.4260 C   0  0  0  0  0  0  0  0  0  0  0  0
  138.9160   76.1280  222.4940 O   0  0  0  0  0  0  0  0  0  0  0  0
  139.9740   76.8130  220.5960 N   0  0  0  0  0  0  0  0  0  0  0  0
  139.2480   77.9920  220.1420 C   0  0  0  0  0  0  0  0  0  0  0  0
  140.0350   78.4480  218.9060 C   0  0  0  0  0  0  0  0  0  0  0  0
  140.9540   77.2440  218.6190 C   0  0  0  0  0  0  0  0  0  0  0  0
  141.3700   76.8990  220.0250 C   0  0  1  0  0  0  0  0  0  0  0  0
  142.1380   77.9050  220.7720 C   0  0  0  0  0  0  0  0  0  0  0  0
  141.4590   78.6100  221.7820 N   0  0  0  0  0  0  0  0  0  0  0  0
  141.4380   78.1980  223.1180 C   0  0  0  0  0  0  0  0  0  0  0  0
  140.7950   79.4110  223.8380 C   0  0  0  0  0  0  0  0  0  0  0  0
  141.5750   80.5350  223.2020 C   0  0  0  0  0  0  0  0  0  0  0  0
  141.8800   80.0180  221.8330 C   0  0  0  0  0  0  0  0  0  0  0  0
  140.2280   71.5050  223.6430 C   0  0  0  0  0  0  0  0  0  0  0  0
  139.6010   70.2620  223.5160 C   0  0  0  0  0  0  0  0  0  0  0  0
  139.4890   69.4700  224.6510 C   0  0  0  0  0  0  0  0  0  0  0  0
  139.9690   69.8650  225.8760 C   0  0  0  0  0  0  0  0  0  0  0  0
  139.8400   69.0580  226.9690 C   0  0  0  0  0  0  0  0  0  0  0  0
  140.3200   69.4580  228.1890 C   0  0  0  0  0  0  0  0  0  0  0  0
  140.9430   70.6970  228.3030 C   0  0  0  0  0  0  0  0  0  0  0  0
  141.0660   71.5080  227.1730 C   0  0  0  0  0  0  0  0  0  0  0  0
  140.5790   71.1040  225.9370 C   0  0  0  0  0  0  0  0  0  0  0  0
  140.7010   71.9000  224.8370 N   0  0  0  0  0  0  0  0  0  0  0  0
  138.9790   73.8220  223.0630 H   0  0  0  0  0  0  0  0  0  0  0  0
  140.6992   74.2226  220.6064 H   0  0  0  0  0  0  0  0  0  0  0  0
  138.9428   74.0407  220.3260 H   0  0  0  0  0  0  0  0  0  0  0  0
  138.2119   77.7365  219.8754 H   0  0  0  0  0  0  0  0  0  0  0  0
  139.1755   78.7723  220.9139 H   0  0  0  0  0  0  0  0  0  0  0  0
  139.3619   78.6430  218.0581 H   0  0  0  0  0  0  0  0  0  0  0  0
  140.5859   79.3869  219.0640 H   0  0  0  0  0  0  0  0  0  0  0  0
  140.4084   76.4180  218.1394 H   0  0  0  0  0  0  0  0  0  0  0  0
  141.7828   77.4461  217.9246 H   0  0  0  0  0  0  0  0  0  0  0  0
  142.0518   76.0371  220.0724 H   0  0  0  0  0  0  0  0  0  0  0  0
  142.9889   77.3903  221.2421 H   0  0  0  0  0  0  0  0  0  0  0  0
  142.4092   78.6670  220.0265 H   0  0  0  0  0  0  0  0  0  0  0  0
  140.8270   77.2921  223.2443 H   0  0  0  0  0  0  0  0  0  0  0  0
  142.4316   77.9343  223.5094 H   0  0  0  0  0  0  0  0  0  0  0  0
  139.7187   79.4890  223.6248 H   0  0  0  0  0  0  0  0  0  0  0  0
  140.8425   79.3770  224.9364 H   0  0  0  0  0  0  0  0  0  0  0  0
  140.9706   81.4526  223.1500 H   0  0  0  0  0  0  0  0  0  0  0  0
  142.4783   80.8039  223.7692 H   0  0  0  0  0  0  0  0  0  0  0  0
  141.3285   80.6013  221.0809 H   0  0  0  0  0  0  0  0  0  0  0  0
  142.9554   80.1063  221.6189 H   0  0  0  0  0  0  0  0  0  0  0  0
  139.2083   69.9217  222.5465 H   0  0  0  0  0  0  0  0  0  0  0  0
  138.9975   68.4896  224.5660 H   0  0  0  0  0  0  0  0  0  0  0  0
  139.3473   68.0795  226.8702 H   0  0  0  0  0  0  0  0  0  0  0  0
  140.2138   68.8063  229.0688 H   0  0  0  0  0  0  0  0  0  0  0  0
  141.3348   71.0343  229.2739 H   0  0  0  0  0  0  0  0  0  0  0  0
  141.5589   72.4872  227.2638 H   0  0  0  0  0  0  0  0  0  0  0  0
  1  2  2  0
  2  3  1  0
  3  4  1  0
  4  5  1  0
  5  6  2  0
  5  7  1  0
  7  8  1  0
  8  9  1  0
  9 10  1  0
 10 11  1  0
 11 12  1  0
 12 13  1  0
 13 14  1  0
 14 15  1  0
 15 16  1  0
 16 17  1  0
  2 18  1  0
 18 19  2  0
 19 20  1  0
 20 21  2  0
 21 22  1  0
 22 23  2  0
 23 24  1  0
 24 25  2  0
 25 26  1  0
 26 27  2  0
 11  7  1  0
 17 13  1  0
 27 18  1  0
 26 21  1  0
  3 28  1  0
  4 29  1  0
  4 30  1  0
  8 31  1  0
  8 32  1  0
  9 33  1  0
  9 34  1  0
 10 35  1  0
 10 36  1  0
 11 37  1  6
 12 38  1  0
 12 39  1  0
 14 40  1  0
 14 41  1  0
 15 42  1  0
 15 43  1  0
 16 44  1  0
 16 45  1  0
 17 46  1  0
 17 47  1  0
 19 48  1  0
 20 49  1  0
 22 50  1  0
 23 51  1  0
 24 52  1  0
 25 53  1  0
M  END
>  <smiles>  (19) 
O=C(NCC(=O)N1CCC[C@H]1CN1CCCC1)c1ccc2ccccc2n1

>  <score_type>  (19) 
oracle

>  <origin>  (19) 
autodockgpu

>  <m_score__min__energy>  (19) 
-8.3499999999999996

>  <m_primary>  (19) 
energy

>  <rmsd>  (19) 
1.9539519622188952

>  <m_score__min__rmsd>  (19) 
1.9539519622188952

>  <meeko>  (19) 
{"free_energy": -7.55, "intermolecular_energy": -9.34, "internal_energy": -1.76, "cluster_size": 29, "cluster_id": 1, "rank_in_cluster": 29}

>  <energy>  (19) 
-8.09

>  <cluster_rmsd>  (19) 
1.47

>  <cluster>  (19) 
1

$$$$

     RDKit          3D

 53 56  0  0  0  0  0  0  0  0999 V2000
  137.9460   71.0880  222.0460 O   0  0  0  0  0  0  0  0  0  0  0  0
  138.8080   71.4110  222.9100 C   0  0  0  0  0  0  0  0  0  0  0  0
  139.3860   72.7040  222.7610 N   0  0  0  0  0  0  0  0  0  0  0  0
  139.0100   73.6100  221.6800 C   0  0  0  0  0  0  0  0  0  0  0  0
  139.7620   74.8520  221.8400 C   0  0  0  0  0  0  0  0  0  0  0  0
  141.0300   74.9020  221.9860 O   0  0  0  0  0  0  0  0  0  0  0  0
  139.1100   76.1220  221.8410 N   0  0  0  0  0  0  0  0  0  0  0  0
  137.7110   76.4190  222.1180 C   0  0  0  0  0  0  0  0  0  0  0  0
  137.4950   77.7890  221.4610 C   0  0  0  0  0  0  0  0  0  0  0  0
  138.7560   77.9550  220.5900 C   0  0  0  0  0  0  0  0  0  0  0  0
  139.7970   77.4350  221.5450 C   0  0  1  0  0  0  0  0  0  0  0  0
  139.9960   78.1720  222.8010 C   0  0  0  0  0  0  0  0  0  0  0  0
  140.7840   79.3360  222.7440 N   0  0  0  0  0  0  0  0  0  0  0  0
  140.5110   80.4800  223.5000 C   0  0  0  0  0  0  0  0  0  0  0  0
  141.7760   81.3470  223.2720 C   0  0  0  0  0  0  0  0  0  0  0  0
  142.8480   80.3050  223.4760 C   0  0  0  0  0  0  0  0  0  0  0  0
  142.1990   79.0410  223.0110 C   0  0  0  0  0  0  0  0  0  0  0  0
  139.1780   70.4980  223.9930 C   0  0  0  0  0  0  0  0  0  0  0  0
  138.8640   69.1460  223.8210 C   0  0  0  0  0  0  0  0  0  0  0  0
  139.2010   68.2650  224.8390 C   0  0  0  0  0  0  0  0  0  0  0  0
  139.8230   68.6750  225.9930 C   0  0  0  0  0  0  0  0  0  0  0  0
  140.1380   67.7770  226.9720 C   0  0  0  0  0  0  0  0  0  0  0  0
  140.7570   68.1920  228.1220 C   0  0  0  0  0  0  0  0  0  0  0  0
  141.0650   69.5390  228.2820 C   0  0  0  0  0  0  0  0  0  0  0  0
  140.7360   70.4420  227.2690 C   0  0  0  0  0  0  0  0  0  0  0  0
  140.1070   70.0230  226.1040 C   0  0  0  0  0  0  0  0  0  0  0  0
  139.7870   70.9080  225.1190 N   0  0  0  0  0  0  0  0  0  0  0  0
  140.1050   72.9760  223.4770 H   0  0  0  0  0  0  0  0  0  0  0  0
  139.2512   73.1515  220.7096 H   0  0  0  0  0  0  0  0  0  0  0  0
  137.9296   73.8139  221.7149 H   0  0  0  0  0  0  0  0  0  0  0  0
  137.0524   75.6605  221.6698 H   0  0  0  0  0  0  0  0  0  0  0  0
  137.4794   76.4198  223.1933 H   0  0  0  0  0  0  0  0  0  0  0  0
  136.5843   77.7930  220.8440 H   0  0  0  0  0  0  0  0  0  0  0  0
  137.3586   78.6031  222.1881 H   0  0  0  0  0  0  0  0  0  0  0  0
  138.7027   77.3493  219.6733 H   0  0  0  0  0  0  0  0  0  0  0  0
  138.9337   78.9748  220.2180 H   0  0  0  0  0  0  0  0  0  0  0  0
  140.8140   77.4571  221.1264 H   0  0  0  0  0  0  0  0  0  0  0  0
  139.0033   78.4621  223.1756 H   0  0  0  0  0  0  0  0  0  0  0  0
  140.5551   77.4818  223.4499 H   0  0  0  0  0  0  0  0  0  0  0  0
  139.6082   80.9912  223.1345 H   0  0  0  0  0  0  0  0  0  0  0  0
  140.3130   80.2661  224.5607 H   0  0  0  0  0  0  0  0  0  0  0  0
  141.8044   81.7685  222.2564 H   0  0  0  0  0  0  0  0  0  0  0  0
  141.8570   82.2289  223.9244 H   0  0  0  0  0  0  0  0  0  0  0  0
  143.7390   80.5343  222.8731 H   0  0  0  0  0  0  0  0  0  0  0  0
  143.1983   80.2489  224.5172 H   0  0  0  0  0  0  0  0  0  0  0  0
  142.6874   78.6856  222.0917 H   0  0  0  0  0  0  0  0  0  0  0  0
  142.2908   78.2569  223.7770 H   0  0  0  0  0  0  0  0  0  0  0  0
  138.3652   68.7918  222.9068 H   0  0  0  0  0  0  0  0  0  0  0  0
  138.9610   67.1984  224.7172 H   0  0  0  0  0  0  0  0  0  0  0  0
  139.8932   66.7131  226.8367 H   0  0  0  0  0  0  0  0  0  0  0  0
  141.0078   67.4673  228.9106 H   0  0  0  0  0  0  0  0  0  0  0  0
  141.5631   69.8896  229.1980 H   0  0  0  0  0  0  0  0  0  0  0  0
  140.9800   71.5070  227.3964 H   0  0  0  0  0  0  0  0  0  0  0  0
  1  2  2  0
  2  3  1  0
  3  4  1  0
  4  5  1  0
  5  6  2  0
  5  7  1  0
  7  8  1  0
  8  9  1  0
  9 10  1  0
 10 11  1  0
 11 12  1  0
 12 13  1  0
 13 14  1  0
 14 15  1  0
 15 16  1  0
 16 17  1  0
  2 18  1  0
 18 19  2  0
 19 20  1  0
 20 21  2  0
 21 22  1  0
 22 23  2  0
 23 24  1  0
 24 25  2  0
 25 26  1  0
 26 27  2  0
 11  7  1  0
 17 13  1  0
 27 18  1  0
 26 21  1  0
  3 28  1  0
  4 29  1  0
  4 30  1  0
  8 31  1  0
  8 32  1  0
  9 33  1  0
  9 34  1  0
 10 35  1  0
 10 36  1  0
 11 37  1  6
 12 38  1  0
 12 39  1  0
 14 40  1  0
 14 41  1  0
 15 42  1  0
 15 43  1  0
 16 44  1  0
 16 45  1  0
 17 46  1  0
 17 47  1  0
 19 48  1  0
 20 49  1  0
 22 50  1  0
 23 51  1  0
 24 52  1  0
 25 53  1  0
M  END
>  <smiles>  (20) 
O=C(NCC(=O)N1CCC[C@H]1CN1CCCC1)c1ccc2ccccc2n1

>  <score_type>  (20) 
oracle

>  <origin>  (20) 
autodockgpu

>  <m_score__min__energy>  (20) 
-8.3499999999999996

>  <m_primary>  (20) 
energy

>  <rmsd>  (20) 
2.5300331260588917

>  <m_score__min__rmsd>  (20) 
2.5300331260588917

>  <meeko>  (20) 
{"free_energy": -7.82, "intermolecular_energy": -9.61, "internal_energy": -1.48, "cluster_size": 29, "cluster_id": 1, "rank_in_cluster": 26}

>  <energy>  (20) 
-8.07

>  <cluster_rmsd>  (20) 
1.63

>  <cluster>  (20) 
1

$$$$

     RDKit          3D

 53 56  0  0  0  0  0  0  0  0999 V2000
  140.9430   71.6250  221.3580 O   0  0  0  0  0  0  0  0  0  0  0  0
  140.4200   72.1480  222.3800 C   0  0  0  0  0  0  0  0  0  0  0  0
  140.0180   73.5080  222.2490 N   0  0  0  0  0  0  0  0  0  0  0  0
  140.1920   74.2600  221.0100 C   0  0  0  0  0  0  0  0  0  0  0  0
  140.6610   75.6010  221.3490 C   0  0  0  0  0  0  0  0  0  0  0  0
  140.3800   76.1980  222.4430 O   0  0  0  0  0  0  0  0  0  0  0  0
  141.4880   76.3480  220.4570 N   0  0  0  0  0  0  0  0  0  0  0  0
  141.7230   77.7860  220.4340 C   0  0  0  0  0  0  0  0  0  0  0  0
  142.2160   78.0480  219.0050 C   0  0  0  0  0  0  0  0  0  0  0  0
  141.8840   76.7310  218.2780 C   0  0  0  0  0  0  0  0  0  0  0  0
  142.3000   75.7430  219.3350 C   0  0  1  0  0  0  0  0  0  0  0  0
  143.7170   75.7180  219.7220 C   0  0  0  0  0  0  0  0  0  0  0  0
  144.3280   74.4560  219.8410 N   0  0  0  0  0  0  0  0  0  0  0  0
  145.3610   74.1900  220.7450 C   0  0  0  0  0  0  0  0  0  0  0  0
  145.4970   72.6480  220.6610 C   0  0  0  0  0  0  0  0  0  0  0  0
  144.0420   72.2530  220.7350 C   0  0  0  0  0  0  0  0  0  0  0  0
  143.3360   73.4000  220.0870 C   0  0  0  0  0  0  0  0  0  0  0  0
  140.2460   71.3870  223.6190 C   0  0  0  0  0  0  0  0  0  0  0  0
  139.5800   70.1600  223.5230 C   0  0  0  0  0  0  0  0  0  0  0  0
  139.3990   69.4260  224.6870 C   0  0  0  0  0  0  0  0  0  0  0  0
  139.8470   69.8600  225.9110 C   0  0  0  0  0  0  0  0  0  0  0  0
  139.6480   69.1090  227.0330 C   0  0  0  0  0  0  0  0  0  0  0  0
  140.0960   69.5480  228.2510 C   0  0  0  0  0  0  0  0  0  0  0  0
  140.7580   70.7700  228.3340 C   0  0  0  0  0  0  0  0  0  0  0  0
  140.9520   71.5230  227.1750 C   0  0  0  0  0  0  0  0  0  0  0  0
  140.4970   71.0800  225.9400 C   0  0  0  0  0  0  0  0  0  0  0  0
  140.6880   71.8200  224.8120 N   0  0  0  0  0  0  0  0  0  0  0  0
  139.5840   73.9470  223.0980 H   0  0  0  0  0  0  0  0  0  0  0  0
  140.9329   73.7574  220.3709 H   0  0  0  0  0  0  0  0  0  0  0  0
  139.2381   74.3187  220.4654 H   0  0  0  0  0  0  0  0  0  0  0  0
  140.7940   78.3391  220.6366 H   0  0  0  0  0  0  0  0  0  0  0  0
  142.4403   78.1142  221.2006 H   0  0  0  0  0  0  0  0  0  0  0  0
  141.6816   78.8957  218.5514 H   0  0  0  0  0  0  0  0  0  0  0  0
  143.2823   78.3139  218.9558 H   0  0  0  0  0  0  0  0  0  0  0  0
  140.8122   76.6521  218.0435 H   0  0  0  0  0  0  0  0  0  0  0  0
  142.3743   76.6020  217.3018 H   0  0  0  0  0  0  0  0  0  0  0  0
  142.1482   74.6972  219.0295 H   0  0  0  0  0  0  0  0  0  0  0  0
  144.2770   76.2870  218.9653 H   0  0  0  0  0  0  0  0  0  0  0  0
  143.7418   76.1424  220.7365 H   0  0  0  0  0  0  0  0  0  0  0  0
  146.2933   74.6878  220.4400 H   0  0  0  0  0  0  0  0  0  0  0  0
  145.1567   74.5559  221.7620 H   0  0  0  0  0  0  0  0  0  0  0  0
  145.9589   72.3297  219.7148 H   0  0  0  0  0  0  0  0  0  0  0  0
  146.1397   72.1966  221.4312 H   0  0  0  0  0  0  0  0  0  0  0  0
  143.8600   71.3179  220.1851 H   0  0  0  0  0  0  0  0  0  0  0  0
  143.7006   72.0656  221.7637 H   0  0  0  0  0  0  0  0  0  0  0  0
  142.8905   73.0757  219.1350 H   0  0  0  0  0  0  0  0  0  0  0  0
  142.5307   73.7727  220.7371 H   0  0  0  0  0  0  0  0  0  0  0  0
  139.2115   69.7889  222.5553 H   0  0  0  0  0  0  0  0  0  0  0  0
  138.8768   68.4597  224.6271 H   0  0  0  0  0  0  0  0  0  0  0  0
  139.1243   68.1445  226.9589 H   0  0  0  0  0  0  0  0  0  0  0  0
  139.9343   68.9412  229.1541 H   0  0  0  0  0  0  0  0  0  0  0  0
  141.1245   71.1384  229.3035 H   0  0  0  0  0  0  0  0  0  0  0  0
  141.4764   72.4877  227.2412 H   0  0  0  0  0  0  0  0  0  0  0  0
  1  2  2  0
  2  3  1  0
  3  4  1  0
  4  5  1  0
  5  6  2  0
  5  7  1  0
  7  8  1  0
  8  9  1  0
  9 10  1  0
 10 11  1  0
 11 12  1  0
 12 13  1  0
 13 14  1  0
 14 15  1  0
 15 16  1  0
 16 17  1  0
  2 18  1  0
 18 19  2  0
 19 20  1  0
 20 21  2  0
 21 22  1  0
 22 23  2  0
 23 24  1  0
 24 25  2  0
 25 26  1  0
 26 27  2  0
 11  7  1  0
 17 13  1  0
 27 18  1  0
 26 21  1  0
  3 28  1  0
  4 29  1  0
  4 30  1  0
  8 31  1  0
  8 32  1  0
  9 33  1  0
  9 34  1  0
 10 35  1  0
 10 36  1  0
 11 37  1  6
 12 38  1  0
 12 39  1  0
 14 40  1  0
 14 41  1  0
 15 42  1  0
 15 43  1  0
 16 44  1  0
 16 45  1  0
 17 46  1  0
 17 47  1  0
 19 48  1  0
 20 49  1  0
 22 50  1  0
 23 51  1  0
 24 52  1  0
 25 53  1  0
M  END
>  <smiles>  (21) 
O=C(NCC(=O)N1CCC[C@H]1CN1CCCC1)c1ccc2ccccc2n1

>  <score_type>  (21) 
oracle

>  <origin>  (21) 
autodockgpu

>  <m_score__min__energy>  (21) 
-8.3499999999999996

>  <m_primary>  (21) 
energy

>  <rmsd>  (21) 
4.1966322219678185

>  <m_score__min__rmsd>  (21) 
4.1966322219678185

>  <meeko>  (21) 
{"free_energy": -8.01, "intermolecular_energy": -9.8, "internal_energy": -1.94, "cluster_size": 17, "cluster_id": 2, "rank_in_cluster": 3}

>  <energy>  (21) 
-8.06

>  <cluster_rmsd>  (21) 
1.6

>  <cluster>  (21) 
1

$$$$

     RDKit          3D

 53 56  0  0  0  0  0  0  0  0999 V2000
  137.4910   75.9600  222.1690 O   0  0  0  0  0  0  0  0  0  0  0  0
  138.7340   76.0860  222.3540 C   0  0  0  0  0  0  0  0  0  0  0  0
  139.5050   74.8930  222.2440 N   0  0  0  0  0  0  0  0  0  0  0  0
  138.9060   73.6000  221.9340 C   0  0  0  0  0  0  0  0  0  0  0  0
  139.8090   72.5510  222.4020 C   0  0  0  0  0  0  0  0  0  0  0  0
  141.0460   72.7400  222.6600 O   0  0  0  0  0  0  0  0  0  0  0  0
  139.3540   71.2140  222.6090 N   0  0  0  0  0  0  0  0  0  0  0  0
  139.5300   70.0560  221.7430 C   0  0  0  0  0  0  0  0  0  0  0  0
  138.4180   69.0980  222.1900 C   0  0  0  0  0  0  0  0  0  0  0  0
  137.5210   69.9950  223.0650 C   0  0  0  0  0  0  0  0  0  0  0  0
  138.5790   70.7540  223.8220 C   0  0  1  0  0  0  0  0  0  0  0  0
  139.4690   69.9830  224.7020 C   0  0  0  0  0  0  0  0  0  0  0  0
  139.8060   70.5610  225.9390 N   0  0  0  0  0  0  0  0  0  0  0  0
  140.3720   69.8350  226.9910 C   0  0  0  0  0  0  0  0  0  0  0  0
  140.7730   70.9470  227.9950 C   0  0  0  0  0  0  0  0  0  0  0  0
  141.4300   71.9250  227.0510 C   0  0  0  0  0  0  0  0  0  0  0  0
  140.6920   71.7210  225.7670 C   0  0  0  0  0  0  0  0  0  0  0  0
  139.3280   77.3880  222.6630 C   0  0  0  0  0  0  0  0  0  0  0  0
  138.4480   78.4490  222.9010 C   0  0  0  0  0  0  0  0  0  0  0  0
  138.9920   79.6930  223.1890 C   0  0  0  0  0  0  0  0  0  0  0  0
  140.3470   79.9110  223.2460 C   0  0  0  0  0  0  0  0  0  0  0  0
  140.8430   81.1500  223.5320 C   0  0  0  0  0  0  0  0  0  0  0  0
  142.1960   81.3610  223.5860 C   0  0  0  0  0  0  0  0  0  0  0  0
  143.0610   80.2980  223.3480 C   0  0  0  0  0  0  0  0  0  0  0  0
  142.5350   79.0380  223.0580 C   0  0  0  0  0  0  0  0  0  0  0  0
  141.1640   78.8230  223.0010 C   0  0  0  0  0  0  0  0  0  0  0  0
  140.6560   77.5910  222.7170 N   0  0  0  0  0  0  0  0  0  0  0  0
  140.5390   74.9940  222.3990 H   0  0  0  0  0  0  0  0  0  0  0  0
  137.9349   73.5087  222.4425 H   0  0  0  0  0  0  0  0  0  0  0  0
  138.7470   73.5067  220.8496 H   0  0  0  0  0  0  0  0  0  0  0  0
  139.4072   70.3340  220.6858 H   0  0  0  0  0  0  0  0  0  0  0  0
  140.5334   69.6122  221.8219 H   0  0  0  0  0  0  0  0  0  0  0  0
  137.8623   68.7060  221.3254 H   0  0  0  0  0  0  0  0  0  0  0  0
  138.7959   68.2119  222.7211 H   0  0  0  0  0  0  0  0  0  0  0  0
  136.8937   70.6636  222.4572 H   0  0  0  0  0  0  0  0  0  0  0  0
  136.7954   69.4569  223.6926 H   0  0  0  0  0  0  0  0  0  0  0  0
  138.1608   71.4821  224.5327 H   0  0  0  0  0  0  0  0  0  0  0  0
  138.9779   69.0207  224.9089 H   0  0  0  0  0  0  0  0  0  0  0  0
  140.4196   69.9120  224.1531 H   0  0  0  0  0  0  0  0  0  0  0  0
  139.6401   69.1444  227.4353 H   0  0  0  0  0  0  0  0  0  0  0  0
  141.2163   69.2020  226.6802 H   0  0  0  0  0  0  0  0  0  0  0  0
  139.8947   71.3854  228.4914 H   0  0  0  0  0  0  0  0  0  0  0  0
  141.4054   70.6120  228.8304 H   0  0  0  0  0  0  0  0  0  0  0  0
  141.3137   72.9578  227.4114 H   0  0  0  0  0  0  0  0  0  0  0  0
  142.5135   71.7631  226.9525 H   0  0  0  0  0  0  0  0  0  0  0  0
  140.0965   72.6153  225.5312 H   0  0  0  0  0  0  0  0  0  0  0  0
  141.3975   71.5472  224.9411 H   0  0  0  0  0  0  0  0  0  0  0  0
  137.3586   78.3020  222.8612 H   0  0  0  0  0  0  0  0  0  0  0  0
  138.3121   80.5366  223.3788 H   0  0  0  0  0  0  0  0  0  0  0  0
  140.1520   81.9849  223.7204 H   0  0  0  0  0  0  0  0  0  0  0  0
  142.5938   82.3606  223.8152 H   0  0  0  0  0  0  0  0  0  0  0  0
  144.1499   80.4490  223.3880 H   0  0  0  0  0  0  0  0  0  0  0  0
  143.2203   78.1982  222.8708 H   0  0  0  0  0  0  0  0  0  0  0  0
  1  2  2  0
  2  3  1  0
  3  4  1  0
  4  5  1  0
  5  6  2  0
  5  7  1  0
  7  8  1  0
  8  9  1  0
  9 10  1  0
 10 11  1  0
 11 12  1  0
 12 13  1  0
 13 14  1  0
 14 15  1  0
 15 16  1  0
 16 17  1  0
  2 18  1  0
 18 19  2  0
 19 20  1  0
 20 21  2  0
 21 22  1  0
 22 23  2  0
 23 24  1  0
 24 25  2  0
 25 26  1  0
 26 27  2  0
 11  7  1  0
 17 13  1  0
 27 18  1  0
 26 21  1  0
  3 28  1  0
  4 29  1  0
  4 30  1  0
  8 31  1  0
  8 32  1  0
  9 33  1  0
  9 34  1  0
 10 35  1  0
 10 36  1  0
 11 37  1  1
 12 38  1  0
 12 39  1  0
 14 40  1  0
 14 41  1  0
 15 42  1  0
 15 43  1  0
 16 44  1  0
 16 45  1  0
 17 46  1  0
 17 47  1  0
 19 48  1  0
 20 49  1  0
 22 50  1  0
 23 51  1  0
 24 52  1  0
 25 53  1  0
M  END
>  <smiles>  (22) 
O=C(NCC(=O)N1CCC[C@H]1CN1CCCC1)c1ccc2ccccc2n1

>  <score_type>  (22) 
oracle

>  <origin>  (22) 
autodockgpu

>  <m_score__min__energy>  (22) 
-8.3499999999999996

>  <m_primary>  (22) 
energy

>  <rmsd>  (22) 
8.927331105298576

>  <m_score__min__rmsd>  (22) 
8.927331105298576

>  <meeko>  (22) 
{"free_energy": -7.48, "intermolecular_energy": -9.27, "internal_energy": -1.93, "cluster_size": 3, "cluster_id": 3, "rank_in_cluster": 3}

>  <energy>  (22) 
-8.04

>  <cluster_rmsd>  (22) 
1.67

>  <cluster>  (22) 
1

$$$$

     RDKit          3D

 53 56  0  0  0  0  0  0  0  0999 V2000
  137.5050   75.9300  222.2280 O   0  0  0  0  0  0  0  0  0  0  0  0
  138.7520   76.0730  222.3630 C   0  0  0  0  0  0  0  0  0  0  0  0
  139.5360   74.8920  222.2220 N   0  0  0  0  0  0  0  0  0  0  0  0
  138.9430   73.5900  221.9350 C   0  0  0  0  0  0  0  0  0  0  0  0
  139.8260   72.5560  222.4700 C   0  0  0  0  0  0  0  0  0  0  0  0
  141.0660   72.7370  222.7150 O   0  0  0  0  0  0  0  0  0  0  0  0
  139.3440   71.2440  222.7620 N   0  0  0  0  0  0  0  0  0  0  0  0
  139.2350   70.1010  221.8640 C   0  0  0  0  0  0  0  0  0  0  0  0
  138.1980   69.2020  222.5500 C   0  0  0  0  0  0  0  0  0  0  0  0
  137.5930   70.1280  223.6230 C   0  0  0  0  0  0  0  0  0  0  0  0
  138.8480   70.7990  224.1180 C   0  0  1  0  0  0  0  0  0  0  0  0
  139.8670   69.9500  224.7520 C   0  0  0  0  0  0  0  0  0  0  0  0
  140.5940   70.5100  225.8180 N   0  0  0  0  0  0  0  0  0  0  0  0
  140.8390   71.8810  225.9380 C   0  0  0  0  0  0  0  0  0  0  0  0
  141.4360   71.9960  227.3650 C   0  0  0  0  0  0  0  0  0  0  0  0
  140.4590   71.1330  228.1270 C   0  0  0  0  0  0  0  0  0  0  0  0
  140.0320   70.1160  227.1180 C   0  0  0  0  0  0  0  0  0  0  0  0
  139.3400   77.3830  222.6480 C   0  0  0  0  0  0  0  0  0  0  0  0
  138.4550   78.4460  222.8560 C   0  0  0  0  0  0  0  0  0  0  0  0
  138.9910   79.6990  223.1220 C   0  0  0  0  0  0  0  0  0  0  0  0
  140.3450   79.9220  223.1850 C   0  0  0  0  0  0  0  0  0  0  0  0
  140.8340   81.1690  223.4490 C   0  0  0  0  0  0  0  0  0  0  0  0
  142.1860   81.3860  223.5100 C   0  0  0  0  0  0  0  0  0  0  0  0
  143.0570   80.3210  223.3020 C   0  0  0  0  0  0  0  0  0  0  0  0
  142.5370   79.0530  223.0350 C   0  0  0  0  0  0  0  0  0  0  0  0
  141.1680   78.8320  222.9710 C   0  0  0  0  0  0  0  0  0  0  0  0
  140.6660   77.5930  222.7090 N   0  0  0  0  0  0  0  0  0  0  0  0
  140.5730   75.0080  222.3360 H   0  0  0  0  0  0  0  0  0  0  0  0
  137.9544   73.5182  222.4120 H   0  0  0  0  0  0  0  0  0  0  0  0
  138.8210   73.4599  220.8495 H   0  0  0  0  0  0  0  0  0  0  0  0
  138.8861   70.4148  220.8691 H   0  0  0  0  0  0  0  0  0  0  0  0
  140.1971   69.5944  221.6977 H   0  0  0  0  0  0  0  0  0  0  0  0
  137.4299   68.8687  221.8366 H   0  0  0  0  0  0  0  0  0  0  0  0
  138.6307   68.2804  222.9664 H   0  0  0  0  0  0  0  0  0  0  0  0
  136.8865   70.8507  223.1888 H   0  0  0  0  0  0  0  0  0  0  0  0
  137.0007   69.6187  224.3974 H   0  0  0  0  0  0  0  0  0  0  0  0
  138.6585   71.5311  224.9168 H   0  0  0  0  0  0  0  0  0  0  0  0
  139.3596   69.0514  225.1328 H   0  0  0  0  0  0  0  0  0  0  0  0
  140.6128   69.7643  223.9651 H   0  0  0  0  0  0  0  0  0  0  0  0
  141.5572   72.2237  225.1786 H   0  0  0  0  0  0  0  0  0  0  0  0
  139.9420   72.4999  225.7885 H   0  0  0  0  0  0  0  0  0  0  0  0
  142.4591   71.5949  227.4132 H   0  0  0  0  0  0  0  0  0  0  0  0
  141.5396   73.0238  227.7429 H   0  0  0  0  0  0  0  0  0  0  0  0
  140.9470   70.6523  228.9877 H   0  0  0  0  0  0  0  0  0  0  0  0
  139.6161   71.7044  228.5429 H   0  0  0  0  0  0  0  0  0  0  0  0
  140.4102   69.1234  227.4039 H   0  0  0  0  0  0  0  0  0  0  0  0
  138.9345   70.0661  227.0632 H   0  0  0  0  0  0  0  0  0  0  0  0
  137.3665   78.2938  222.8102 H   0  0  0  0  0  0  0  0  0  0  0  0
  138.3064   80.5438  223.2883 H   0  0  0  0  0  0  0  0  0  0  0  0
  140.1384   82.0051  223.6139 H   0  0  0  0  0  0  0  0  0  0  0  0
  142.5784   82.3917  223.7212 H   0  0  0  0  0  0  0  0  0  0  0  0
  144.1450   80.4766  223.3475 H   0  0  0  0  0  0  0  0  0  0  0  0
  143.2265   78.2116  222.8720 H   0  0  0  0  0  0  0  0  0  0  0  0
  1  2  2  0
  2  3  1  0
  3  4  1  0
  4  5  1  0
  5  6  2  0
  5  7  1  0
  7  8  1  0
  8  9  1  0
  9 10  1  0
 10 11  1  0
 11 12  1  0
 12 13  1  0
 13 14  1  0
 14 15  1  0
 15 16  1  0
 16 17  1  0
  2 18  1  0
 18 19  2  0
 19 20  1  0
 20 21  2  0
 21 22  1  0
 22 23  2  0
 23 24  1  0
 24 25  2  0
 25 26  1  0
 26 27  2  0
 11  7  1  0
 17 13  1  0
 27 18  1  0
 26 21  1  0
  3 28  1  0
  4 29  1  0
  4 30  1  0
  8 31  1  0
  8 32  1  0
  9 33  1  0
  9 34  1  0
 10 35  1  0
 10 36  1  0
 11 37  1  1
 12 38  1  0
 12 39  1  0
 14 40  1  0
 14 41  1  0
 15 42  1  0
 15 43  1  0
 16 44  1  0
 16 45  1  0
 17 46  1  0
 17 47  1  0
 19 48  1  0
 20 49  1  0
 22 50  1  0
 23 51  1  0
 24 52  1  0
 25 53  1  0
M  END
>  <smiles>  (23) 
O=C(NCC(=O)N1CCC[C@H]1CN1CCCC1)c1ccc2ccccc2n1

>  <score_type>  (23) 
oracle

>  <origin>  (23) 
autodockgpu

>  <m_score__min__energy>  (23) 
-8.3499999999999996

>  <m_primary>  (23) 
energy

>  <rmsd>  (23) 
9.11767641213235

>  <m_score__min__rmsd>  (23) 
9.11767641213235

>  <meeko>  (23) 
{"free_energy": -7.61, "intermolecular_energy": -9.4, "internal_energy": -1.92, "cluster_size": 3, "cluster_id": 3, "rank_in_cluster": 2}

>  <energy>  (23) 
-8.02

>  <cluster_rmsd>  (23) 
1.26

>  <cluster>  (23) 
1

$$$$

     RDKit          3D

 53 56  0  0  0  0  0  0  0  0999 V2000
  141.2630   72.3130  221.5970 O   0  0  0  0  0  0  0  0  0  0  0  0
  140.3160   72.4280  222.4240 C   0  0  0  0  0  0  0  0  0  0  0  0
  139.3640   73.4500  222.1440 N   0  0  0  0  0  0  0  0  0  0  0  0
  139.4660   74.3160  220.9740 C   0  0  0  0  0  0  0  0  0  0  0  0
  140.5440   75.2740  221.2030 C   0  0  0  0  0  0  0  0  0  0  0  0
  141.0980   75.4630  222.3390 O   0  0  0  0  0  0  0  0  0  0  0  0
  141.0630   76.0790  220.1450 N   0  0  0  0  0  0  0  0  0  0  0  0
  140.7080   76.0510  218.7320 C   0  0  0  0  0  0  0  0  0  0  0  0
  141.9150   76.7040  218.0440 C   0  0  0  0  0  0  0  0  0  0  0  0
  142.9760   76.7310  219.1620 C   0  0  0  0  0  0  0  0  0  0  0  0
  142.1130   77.1500  220.3230 C   0  0  1  0  0  0  0  0  0  0  0  0
  141.4740   78.4720  220.2520 C   0  0  0  0  0  0  0  0  0  0  0  0
  141.0920   79.0650  221.4690 N   0  0  0  0  0  0  0  0  0  0  0  0
  140.1990   78.4660  222.3620 C   0  0  0  0  0  0  0  0  0  0  0  0
  140.3100   79.3750  223.6140 C   0  0  0  0  0  0  0  0  0  0  0  0
  141.8110   79.5020  223.7110 C   0  0  0  0  0  0  0  0  0  0  0  0
  142.2610   79.4150  222.2880 C   0  0  0  0  0  0  0  0  0  0  0  0
  140.2190   71.5540  223.5940 C   0  0  0  0  0  0  0  0  0  0  0  0
  139.5760   70.3250  223.4190 C   0  0  0  0  0  0  0  0  0  0  0  0
  139.4680   69.4840  224.5180 C   0  0  0  0  0  0  0  0  0  0  0  0
  139.9650   69.8180  225.7540 C   0  0  0  0  0  0  0  0  0  0  0  0
  139.8370   68.9640  226.8110 C   0  0  0  0  0  0  0  0  0  0  0  0
  140.3340   69.3030  228.0420 C   0  0  0  0  0  0  0  0  0  0  0  0
  140.9720   70.5290  228.2050 C   0  0  0  0  0  0  0  0  0  0  0  0
  141.0930   71.3890  227.1120 C   0  0  0  0  0  0  0  0  0  0  0  0
  140.5890   71.0470  225.8640 C   0  0  0  0  0  0  0  0  0  0  0  0
  140.7080   71.8900  224.8010 N   0  0  0  0  0  0  0  0  0  0  0  0
  138.5750   73.5500  222.8310 H   0  0  0  0  0  0  0  0  0  0  0  0
  139.6892   73.7115  220.0825 H   0  0  0  0  0  0  0  0  0  0  0  0
  138.5162   74.8469  220.8124 H   0  0  0  0  0  0  0  0  0  0  0  0
  140.5683   75.0174  218.3825 H   0  0  0  0  0  0  0  0  0  0  0  0
  139.7618   76.5698  218.5185 H   0  0  0  0  0  0  0  0  0  0  0  0
  142.2564   76.1022  217.1889 H   0  0  0  0  0  0  0  0  0  0  0  0
  141.6936   77.6993  217.6313 H   0  0  0  0  0  0  0  0  0  0  0  0
  143.4260   75.7403  219.3232 H   0  0  0  0  0  0  0  0  0  0  0  0
  143.8416   77.3811  218.9668 H   0  0  0  0  0  0  0  0  0  0  0  0
  142.6732   77.2385  221.2655 H   0  0  0  0  0  0  0  0  0  0  0  0
  142.1802   79.1553  219.7576 H   0  0  0  0  0  0  0  0  0  0  0  0
  140.5321   78.3041  219.7091 H   0  0  0  0  0  0  0  0  0  0  0  0
  139.1750   78.4672  221.9601 H   0  0  0  0  0  0  0  0  0  0  0  0
  140.4282   77.4099  222.5669 H   0  0  0  0  0  0  0  0  0  0  0  0
  139.8269   80.3503  223.4549 H   0  0  0  0  0  0  0  0  0  0  0  0
  139.8181   78.9836  224.5167 H   0  0  0  0  0  0  0  0  0  0  0  0
  142.0961   80.4671  224.1553 H   0  0  0  0  0  0  0  0  0  0  0  0
  142.2657   78.7324  224.3521 H   0  0  0  0  0  0  0  0  0  0  0  0
  142.6684   80.3841  221.9642 H   0  0  0  0  0  0  0  0  0  0  0  0
  143.0485   78.6547  222.1793 H   0  0  0  0  0  0  0  0  0  0  0  0
  139.1680   70.0333  222.4400 H   0  0  0  0  0  0  0  0  0  0  0  0
  138.9654   68.5134  224.3943 H   0  0  0  0  0  0  0  0  0  0  0  0
  139.3313   67.9968  226.6736 H   0  0  0  0  0  0  0  0  0  0  0  0
  140.2298   68.6133  228.8926 H   0  0  0  0  0  0  0  0  0  0  0  0
  141.3772   70.8178  229.1860 H   0  0  0  0  0  0  0  0  0  0  0  0
  141.5980   72.3575  227.2420 H   0  0  0  0  0  0  0  0  0  0  0  0
  1  2  2  0
  2  3  1  0
  3  4  1  0
  4  5  1  0
  5  6  2  0
  5  7  1  0
  7  8  1  0
  8  9  1  0
  9 10  1  0
 10 11  1  0
 11 12  1  0
 12 13  1  0
 13 14  1  0
 14 15  1  0
 15 16  1  0
 16 17  1  0
  2 18  1  0
 18 19  2  0
 19 20  1  0
 20 21  2  0
 21 22  1  0
 22 23  2  0
 23 24  1  0
 24 25  2  0
 25 26  1  0
 26 27  2  0
 11  7  1  0
 17 13  1  0
 27 18  1  0
 26 21  1  0
  3 28  1  0
  4 29  1  0
  4 30  1  0
  8 31  1  0
  8 32  1  0
  9 33  1  0
  9 34  1  0
 10 35  1  0
 10 36  1  0
 11 37  1  1
 12 38  1  0
 12 39  1  0
 14 40  1  0
 14 41  1  0
 15 42  1  0
 15 43  1  0
 16 44  1  0
 16 45  1  0
 17 46  1  0
 17 47  1  0
 19 48  1  0
 20 49  1  0
 22 50  1  0
 23 51  1  0
 24 52  1  0
 25 53  1  0
M  END
>  <smiles>  (24) 
O=C(NCC(=O)N1CCC[C@H]1CN1CCCC1)c1ccc2ccccc2n1

>  <score_type>  (24) 
oracle

>  <origin>  (24) 
autodockgpu

>  <m_score__min__energy>  (24) 
-8.3499999999999996

>  <m_primary>  (24) 
energy

>  <rmsd>  (24) 
1.9553026690666977

>  <m_score__min__rmsd>  (24) 
1.9553026690666977

>  <meeko>  (24) 
{"free_energy": -8.04, "intermolecular_energy": -9.83, "internal_energy": -1.5, "cluster_size": 29, "cluster_id": 1, "rank_in_cluster": 22}

>  <energy>  (24) 
-8.0

>  <cluster_rmsd>  (24) 
1.68

>  <cluster>  (24) 
1

$$$$

     RDKit          3D

 53 56  0  0  0  0  0  0  0  0999 V2000
  140.7770   72.4980  221.7830 O   0  0  0  0  0  0  0  0  0  0  0  0
  139.8310   72.3760  222.6100 C   0  0  0  0  0  0  0  0  0  0  0  0
  138.6690   73.1570  222.3490 N   0  0  0  0  0  0  0  0  0  0  0  0
  138.5660   74.0450  221.1960 C   0  0  0  0  0  0  0  0  0  0  0  0
  138.3800   75.4100  221.6830 C   0  0  0  0  0  0  0  0  0  0  0  0
  137.4530   75.7560  222.4910 O   0  0  0  0  0  0  0  0  0  0  0  0
  139.2460   76.4700  221.2780 N   0  0  0  0  0  0  0  0  0  0  0  0
  139.3520   77.0990  219.9680 C   0  0  0  0  0  0  0  0  0  0  0  0
  140.7460   77.7400  219.9870 C   0  0  0  0  0  0  0  0  0  0  0  0
  141.4030   77.1010  221.2260 C   0  0  0  0  0  0  0  0  0  0  0  0
  140.2430   77.1530  222.1850 C   0  0  1  0  0  0  0  0  0  0  0  0
  139.7280   78.4780  222.5590 C   0  0  0  0  0  0  0  0  0  0  0  0
  140.6550   79.4040  223.0720 N   0  0  0  0  0  0  0  0  0  0  0  0
  141.8120   79.0250  223.7600 C   0  0  0  0  0  0  0  0  0  0  0  0
  142.5880   80.3610  223.8820 C   0  0  0  0  0  0  0  0  0  0  0  0
  142.4450   80.8760  222.4700 C   0  0  0  0  0  0  0  0  0  0  0  0
  141.1260   80.3280  222.0300 C   0  0  0  0  0  0  0  0  0  0  0  0
  139.9410   71.4800  223.7630 C   0  0  0  0  0  0  0  0  0  0  0  0
  139.5000   70.1640  223.5900 C   0  0  0  0  0  0  0  0  0  0  0  0
  139.5890   69.3000  224.6730 C   0  0  0  0  0  0  0  0  0  0  0  0
  140.0900   69.6920  225.8900 C   0  0  0  0  0  0  0  0  0  0  0  0
  140.1600   68.8130  226.9310 C   0  0  0  0  0  0  0  0  0  0  0  0
  140.6590   69.2100  228.1440 C   0  0  0  0  0  0  0  0  0  0  0  0
  141.0950   70.5220  228.3040 C   0  0  0  0  0  0  0  0  0  0  0  0
  141.0150   71.4070  227.2270 C   0  0  0  0  0  0  0  0  0  0  0  0
  140.5090   71.0050  225.9980 C   0  0  0  0  0  0  0  0  0  0  0  0
  140.4320   71.8730  224.9500 N   0  0  0  0  0  0  0  0  0  0  0  0
  137.8810   73.0580  223.0360 H   0  0  0  0  0  0  0  0  0  0  0  0
  139.4871   73.9859  220.5976 H   0  0  0  0  0  0  0  0  0  0  0  0
  137.7154   73.7488  220.5645 H   0  0  0  0  0  0  0  0  0  0  0  0
  139.2748   76.3505  219.1656 H   0  0  0  0  0  0  0  0  0  0  0  0
  138.5496   77.8268  219.7772 H   0  0  0  0  0  0  0  0  0  0  0  0
  141.3060   77.4961  219.0722 H   0  0  0  0  0  0  0  0  0  0  0  0
  140.7179   78.8388  220.0288 H   0  0  0  0  0  0  0  0  0  0  0  0
  141.7266   76.0680  221.0307 H   0  0  0  0  0  0  0  0  0  0  0  0
  142.3194   77.5986  221.5761 H   0  0  0  0  0  0  0  0  0  0  0  0
  140.4844   76.7356  223.1737 H   0  0  0  0  0  0  0  0  0  0  0  0
  139.2766   78.9239  221.6604 H   0  0  0  0  0  0  0  0  0  0  0  0
  139.0275   78.2884  223.3857 H   0  0  0  0  0  0  0  0  0  0  0  0
  141.5680   78.6159  224.7515 H   0  0  0  0  0  0  0  0  0  0  0  0
  142.3825   78.2333  223.2523 H   0  0  0  0  0  0  0  0  0  0  0  0
  142.1224   81.0385  224.6129 H   0  0  0  0  0  0  0  0  0  0  0  0
  143.6244   80.2644  224.2376 H   0  0  0  0  0  0  0  0  0  0  0  0
  142.4397   81.9758  222.4514 H   0  0  0  0  0  0  0  0  0  0  0  0
  143.2753   80.5701  221.8165 H   0  0  0  0  0  0  0  0  0  0  0  0
  140.4038   81.1478  221.9021 H   0  0  0  0  0  0  0  0  0  0  0  0
  141.2284   79.8038  221.0683 H   0  0  0  0  0  0  0  0  0  0  0  0
  139.0951   69.8240  222.6254 H   0  0  0  0  0  0  0  0  0  0  0  0
  139.2452   68.2622  224.5517 H   0  0  0  0  0  0  0  0  0  0  0  0
  139.8133   67.7779  226.7957 H   0  0  0  0  0  0  0  0  0  0  0  0
  140.7143   68.4995  228.9820 H   0  0  0  0  0  0  0  0  0  0  0  0
  141.4990   70.8587  229.2702 H   0  0  0  0  0  0  0  0  0  0  0  0
  141.3598   72.4437  227.3547 H   0  0  0  0  0  0  0  0  0  0  0  0
  1  2  2  0
  2  3  1  0
  3  4  1  0
  4  5  1  0
  5  6  2  0
  5  7  1  0
  7  8  1  0
  8  9  1  0
  9 10  1  0
 10 11  1  0
 11 12  1  0
 12 13  1  0
 13 14  1  0
 14 15  1  0
 15 16  1  0
 16 17  1  0
  2 18  1  0
 18 19  2  0
 19 20  1  0
 20 21  2  0
 21 22  1  0
 22 23  2  0
 23 24  1  0
 24 25  2  0
 25 26  1  0
 26 27  2  0
 11  7  1  0
 17 13  1  0
 27 18  1  0
 26 21  1  0
  3 28  1  0
  4 29  1  0
  4 30  1  0
  8 31  1  0
  8 32  1  0
  9 33  1  0
  9 34  1  0
 10 35  1  0
 10 36  1  0
 11 37  1  1
 12 38  1  0
 12 39  1  0
 14 40  1  0
 14 41  1  0
 15 42  1  0
 15 43  1  0
 16 44  1  0
 16 45  1  0
 17 46  1  0
 17 47  1  0
 19 48  1  0
 20 49  1  0
 22 50  1  0
 23 51  1  0
 24 52  1  0
 25 53  1  0
M  END
>  <smiles>  (25) 
O=C(NCC(=O)N1CCC[C@H]1CN1CCCC1)c1ccc2ccccc2n1

>  <score_type>  (25) 
oracle

>  <origin>  (25) 
autodockgpu

>  <m_score__min__energy>  (25) 
-8.3499999999999996

>  <m_primary>  (25) 
energy

>  <rmsd>  (25) 
2.0779980963262004

>  <m_score__min__rmsd>  (25) 
2.0779980963262004

>  <meeko>  (25) 
{"free_energy": -8.02, "intermolecular_energy": -9.81, "internal_energy": -1.35, "cluster_size": 29, "cluster_id": 1, "rank_in_cluster": 23}

>  <energy>  (25) 
-7.9

>  <cluster_rmsd>  (25) 
1.56

>  <cluster>  (25) 
1

$$$$

     RDKit          3D

 53 56  0  0  0  0  0  0  0  0999 V2000
  140.7840   71.5100  221.3180 O   0  0  0  0  0  0  0  0  0  0  0  0
  140.3560   72.0600  222.3700 C   0  0  0  0  0  0  0  0  0  0  0  0
  140.0500   73.4480  222.2680 N   0  0  0  0  0  0  0  0  0  0  0  0
  140.2150   74.1970  221.0270 C   0  0  0  0  0  0  0  0  0  0  0  0
  140.6390   75.5540  221.3630 C   0  0  0  0  0  0  0  0  0  0  0  0
  140.3160   76.1520  222.4450 O   0  0  0  0  0  0  0  0  0  0  0  0
  141.4620   76.3170  220.4810 N   0  0  0  0  0  0  0  0  0  0  0  0
  141.6980   77.7550  220.4840 C   0  0  0  0  0  0  0  0  0  0  0  0
  142.1860   78.0430  219.0570 C   0  0  0  0  0  0  0  0  0  0  0  0
  141.8490   76.7400  218.3070 C   0  0  0  0  0  0  0  0  0  0  0  0
  142.2680   75.7320  219.3450 C   0  0  1  0  0  0  0  0  0  0  0  0
  143.6880   75.6990  219.7250 C   0  0  0  0  0  0  0  0  0  0  0  0
  144.2060   74.4660  220.1620 N   0  0  0  0  0  0  0  0  0  0  0  0
  143.4330   73.5030  220.8180 C   0  0  0  0  0  0  0  0  0  0  0  0
  144.3790   72.2750  220.8540 C   0  0  0  0  0  0  0  0  0  0  0  0
  144.8760   72.2870  219.4280 C   0  0  0  0  0  0  0  0  0  0  0  0
  144.8580   73.7370  219.0650 C   0  0  0  0  0  0  0  0  0  0  0  0
  140.1890   71.3020  223.6110 C   0  0  0  0  0  0  0  0  0  0  0  0
  139.5990   70.0370  223.5100 C   0  0  0  0  0  0  0  0  0  0  0  0
  139.4270   69.3040  224.6760 C   0  0  0  0  0  0  0  0  0  0  0  0
  139.8110   69.7760  225.9070 C   0  0  0  0  0  0  0  0  0  0  0  0
  139.6230   69.0250  227.0310 C   0  0  0  0  0  0  0  0  0  0  0  0
  140.0080   69.5010  228.2570 C   0  0  0  0  0  0  0  0  0  0  0  0
  140.5940   70.7600  228.3460 C   0  0  0  0  0  0  0  0  0  0  0  0
  140.7780   71.5130  227.1850 C   0  0  0  0  0  0  0  0  0  0  0  0
  140.3880   71.0320  225.9420 C   0  0  0  0  0  0  0  0  0  0  0  0
  140.5690   71.7710  224.8120 N   0  0  0  0  0  0  0  0  0  0  0  0
  139.6940   73.9090  223.1420 H   0  0  0  0  0  0  0  0  0  0  0  0
  140.9782   73.7135  220.3994 H   0  0  0  0  0  0  0  0  0  0  0  0
  139.2661   74.2232  220.4712 H   0  0  0  0  0  0  0  0  0  0  0  0
  140.7702   78.3049  220.7004 H   0  0  0  0  0  0  0  0  0  0  0  0
  142.4184   78.0686  221.2538 H   0  0  0  0  0  0  0  0  0  0  0  0
  141.6510   78.8998  218.6214 H   0  0  0  0  0  0  0  0  0  0  0  0
  143.2524   78.3082  219.0084 H   0  0  0  0  0  0  0  0  0  0  0  0
  140.7762   76.6670  218.0753 H   0  0  0  0  0  0  0  0  0  0  0  0
  142.3350   76.6281  217.3265 H   0  0  0  0  0  0  0  0  0  0  0  0
  142.1130   74.6920  219.0218 H   0  0  0  0  0  0  0  0  0  0  0  0
  144.2732   76.0120  218.8477 H   0  0  0  0  0  0  0  0  0  0  0  0
  143.7648   76.3651  220.5970 H   0  0  0  0  0  0  0  0  0  0  0  0
  143.1693   73.8308  221.8344 H   0  0  0  0  0  0  0  0  0  0  0  0
  142.4729   73.3005  220.3208 H   0  0  0  0  0  0  0  0  0  0  0  0
  145.1994   72.4124  221.5737 H   0  0  0  0  0  0  0  0  0  0  0  0
  143.9061   71.3343  221.1726 H   0  0  0  0  0  0  0  0  0  0  0  0
  145.8951   71.8780  219.3632 H   0  0  0  0  0  0  0  0  0  0  0  0
  144.2632   71.6690  218.7552 H   0  0  0  0  0  0  0  0  0  0  0  0
  145.8870   74.1024  218.9323 H   0  0  0  0  0  0  0  0  0  0  0  0
  144.3115   73.8908  218.1228 H   0  0  0  0  0  0  0  0  0  0  0  0
  139.2813   69.6359  222.5363 H   0  0  0  0  0  0  0  0  0  0  0  0
  138.9657   68.3075  224.6115 H   0  0  0  0  0  0  0  0  0  0  0  0
  139.1592   68.0307  226.9522 H   0  0  0  0  0  0  0  0  0  0  0  0
  139.8554   68.8940  229.1616 H   0  0  0  0  0  0  0  0  0  0  0  0
  140.9092   71.1581  229.3218 H   0  0  0  0  0  0  0  0  0  0  0  0
  141.2415   72.5080  227.2562 H   0  0  0  0  0  0  0  0  0  0  0  0
  1  2  2  0
  2  3  1  0
  3  4  1  0
  4  5  1  0
  5  6  2  0
  5  7  1  0
  7  8  1  0
  8  9  1  0
  9 10  1  0
 10 11  1  0
 11 12  1  0
 12 13  1  0
 13 14  1  0
 14 15  1  0
 15 16  1  0
 16 17  1  0
  2 18  1  0
 18 19  2  0
 19 20  1  0
 20 21  2  0
 21 22  1  0
 22 23  2  0
 23 24  1  0
 24 25  2  0
 25 26  1  0
 26 27  2  0
 11  7  1  0
 17 13  1  0
 27 18  1  0
 26 21  1  0
  3 28  1  0
  4 29  1  0
  4 30  1  0
  8 31  1  0
  8 32  1  0
  9 33  1  0
  9 34  1  0
 10 35  1  0
 10 36  1  0
 11 37  1  6
 12 38  1  0
 12 39  1  0
 14 40  1  0
 14 41  1  0
 15 42  1  0
 15 43  1  0
 16 44  1  0
 16 45  1  0
 17 46  1  0
 17 47  1  0
 19 48  1  0
 20 49  1  0
 22 50  1  0
 23 51  1  0
 24 52  1  0
 25 53  1  0
M  END
>  <smiles>  (26) 
O=C(NCC(=O)N1CCC[C@H]1CN1CCCC1)c1ccc2ccccc2n1

>  <score_type>  (26) 
oracle

>  <origin>  (26) 
autodockgpu

>  <m_score__min__energy>  (26) 
-8.3499999999999996

>  <m_primary>  (26) 
energy

>  <rmsd>  (26) 
4.147154985642864

>  <m_score__min__rmsd>  (26) 
4.147154985642864

>  <meeko>  (26) 
{"free_energy": -7.43, "intermolecular_energy": -9.22, "internal_energy": -2.0, "cluster_size": 17, "cluster_id": 2, "rank_in_cluster": 15}

>  <energy>  (26) 
-7.82

>  <cluster_rmsd>  (26) 
1.13

>  <cluster>  (26) 
1

$$$$

     RDKit          3D

 53 56  0  0  0  0  0  0  0  0999 V2000
  140.9600   71.4050  221.4060 O   0  0  0  0  0  0  0  0  0  0  0  0
  140.4230   71.9280  222.4220 C   0  0  0  0  0  0  0  0  0  0  0  0
  140.0210   73.2880  222.2850 N   0  0  0  0  0  0  0  0  0  0  0  0
  140.2120   74.0400  221.0490 C   0  0  0  0  0  0  0  0  0  0  0  0
  140.4270   75.4430  221.3930 C   0  0  0  0  0  0  0  0  0  0  0  0
  139.8560   76.0300  222.3730 O   0  0  0  0  0  0  0  0  0  0  0  0
  141.3130   76.2680  220.6370 N   0  0  0  0  0  0  0  0  0  0  0  0
  141.5620   77.6970  220.7820 C   0  0  0  0  0  0  0  0  0  0  0  0
  142.1450   78.1020  219.4210 C   0  0  0  0  0  0  0  0  0  0  0  0
  141.8460   76.8740  218.5390 C   0  0  0  0  0  0  0  0  0  0  0  0
  142.1870   75.7730  219.5080 C   0  0  1  0  0  0  0  0  0  0  0  0
  143.5780   75.6850  219.9750 C   0  0  0  0  0  0  0  0  0  0  0  0
  144.1910   74.4200  219.9310 N   0  0  0  0  0  0  0  0  0  0  0  0
  145.3720   74.1200  220.6160 C   0  0  0  0  0  0  0  0  0  0  0  0
  145.4790   72.5820  220.4500 C   0  0  0  0  0  0  0  0  0  0  0  0
  144.0610   72.1840  220.7790 C   0  0  0  0  0  0  0  0  0  0  0  0
  143.2540   73.3550  220.3170 C   0  0  0  0  0  0  0  0  0  0  0  0
  140.2320   71.1670  223.6570 C   0  0  0  0  0  0  0  0  0  0  0  0
  139.5100   69.9730  223.5640 C   0  0  0  0  0  0  0  0  0  0  0  0
  139.3130   69.2390  224.7260 C   0  0  0  0  0  0  0  0  0  0  0  0
  139.7970   69.6440  225.9460 C   0  0  0  0  0  0  0  0  0  0  0  0
  139.5810   68.8950  227.0660 C   0  0  0  0  0  0  0  0  0  0  0  0
  140.0660   69.3050  228.2800 C   0  0  0  0  0  0  0  0  0  0  0  0
  140.7830   70.4950  228.3610 C   0  0  0  0  0  0  0  0  0  0  0  0
  140.9940   71.2470  227.2040 C   0  0  0  0  0  0  0  0  0  0  0  0
  140.5020   70.8330  225.9730 C   0  0  0  0  0  0  0  0  0  0  0  0
  140.7100   71.5710  224.8470 N   0  0  0  0  0  0  0  0  0  0  0  0
  139.5750   73.7270  223.1280 H   0  0  0  0  0  0  0  0  0  0  0  0
  141.0879   73.6512  220.5089 H   0  0  0  0  0  0  0  0  0  0  0  0
  139.3264   73.9398  220.4043 H   0  0  0  0  0  0  0  0  0  0  0  0
  140.6272   78.2398  220.9860 H   0  0  0  0  0  0  0  0  0  0  0  0
  142.2336   77.9307  221.6212 H   0  0  0  0  0  0  0  0  0  0  0  0
  141.6473   79.0013  219.0291 H   0  0  0  0  0  0  0  0  0  0  0  0
  143.2145   78.3553  219.4647 H   0  0  0  0  0  0  0  0  0  0  0  0
  140.7900   76.8373  218.2333 H   0  0  0  0  0  0  0  0  0  0  0  0
  142.3943   76.8412  217.5859 H   0  0  0  0  0  0  0  0  0  0  0  0
  142.0447   74.7680  219.0841 H   0  0  0  0  0  0  0  0  0  0  0  0
  144.1792   76.3660  219.3548 H   0  0  0  0  0  0  0  0  0  0  0  0
  143.5357   75.9431  221.0435 H   0  0  0  0  0  0  0  0  0  0  0  0
  146.2347   74.6293  220.1617 H   0  0  0  0  0  0  0  0  0  0  0  0
  145.3632   74.4468  221.6663 H   0  0  0  0  0  0  0  0  0  0  0  0
  145.7543   72.3004  219.4229 H   0  0  0  0  0  0  0  0  0  0  0  0
  146.2508   72.1016  221.0694 H   0  0  0  0  0  0  0  0  0  0  0  0
  143.7735   71.2703  220.2382 H   0  0  0  0  0  0  0  0  0  0  0  0
  143.9159   71.9576  221.8456 H   0  0  0  0  0  0  0  0  0  0  0  0
  142.6374   73.0673  219.4527 H   0  0  0  0  0  0  0  0  0  0  0  0
  142.5855   73.7022  221.1186 H   0  0  0  0  0  0  0  0  0  0  0  0
  139.1103   69.6259  222.5997 H   0  0  0  0  0  0  0  0  0  0  0  0
  138.7477   68.2972  224.6673 H   0  0  0  0  0  0  0  0  0  0  0  0
  139.0135   67.9555  226.9936 H   0  0  0  0  0  0  0  0  0  0  0  0
  139.8904   68.6997  229.1816 H   0  0  0  0  0  0  0  0  0  0  0  0
  141.1796   70.8397  229.3274 H   0  0  0  0  0  0  0  0  0  0  0  0
  141.5617   72.1870  227.2686 H   0  0  0  0  0  0  0  0  0  0  0  0
  1  2  2  0
  2  3  1  0
  3  4  1  0
  4  5  1  0
  5  6  2  0
  5  7  1  0
  7  8  1  0
  8  9  1  0
  9 10  1  0
 10 11  1  0
 11 12  1  0
 12 13  1  0
 13 14  1  0
 14 15  1  0
 15 16  1  0
 16 17  1  0
  2 18  1  0
 18 19  2  0
 19 20  1  0
 20 21  2  0
 21 22  1  0
 22 23  2  0
 23 24  1  0
 24 25  2  0
 25 26  1  0
 26 27  2  0
 11  7  1  0
 17 13  1  0
 27 18  1  0
 26 21  1  0
  3 28  1  0
  4 29  1  0
  4 30  1  0
  8 31  1  0
  8 32  1  0
  9 33  1  0
  9 34  1  0
 10 35  1  0
 10 36  1  0
 11 37  1  6
 12 38  1  0
 12 39  1  0
 14 40  1  0
 14 41  1  0
 15 42  1  0
 15 43  1  0
 16 44  1  0
 16 45  1  0
 17 46  1  0
 17 47  1  0
 19 48  1  0
 20 49  1  0
 22 50  1  0
 23 51  1  0
 24 52  1  0
 25 53  1  0
M  END
>  <smiles>  (27) 
O=C(NCC(=O)N1CCC[C@H]1CN1CCCC1)c1ccc2ccccc2n1

>  <score_type>  (27) 
oracle

>  <origin>  (27) 
autodockgpu

>  <m_score__min__energy>  (27) 
-8.3499999999999996

>  <m_primary>  (27) 
energy

>  <rmsd>  (27) 
4.201281163859485

>  <m_score__min__rmsd>  (27) 
4.201281163859485

>  <meeko>  (27) 
{"free_energy": -7.86, "intermolecular_energy": -9.65, "internal_energy": -1.89, "cluster_size": 17, "cluster_id": 2, "rank_in_cluster": 12}

>  <energy>  (27) 
-7.81

>  <cluster_rmsd>  (27) 
0.92

>  <cluster>  (27) 
1

$$$$

     RDKit          3D

 53 56  0  0  0  0  0  0  0  0999 V2000
  141.1440   72.7590  222.0970 O   0  0  0  0  0  0  0  0  0  0  0  0
  140.0850   72.4950  222.7310 C   0  0  0  0  0  0  0  0  0  0  0  0
  138.9250   73.2230  222.3390 N   0  0  0  0  0  0  0  0  0  0  0  0
  138.9470   74.2140  221.2690 C   0  0  0  0  0  0  0  0  0  0  0  0
  139.6080   75.4170  221.7700 C   0  0  0  0  0  0  0  0  0  0  0  0
  140.8480   75.4740  222.0700 O   0  0  0  0  0  0  0  0  0  0  0  0
  138.8910   76.6370  221.9600 N   0  0  0  0  0  0  0  0  0  0  0  0
  137.4960   76.8140  222.3440 C   0  0  0  0  0  0  0  0  0  0  0  0
  137.1700   78.2360  221.8700 C   0  0  0  0  0  0  0  0  0  0  0  0
  138.3660   78.5810  220.9620 C   0  0  0  0  0  0  0  0  0  0  0  0
  139.4880   78.0140  221.7910 C   0  0  1  0  0  0  0  0  0  0  0  0
  139.7210   78.6070  223.1150 C   0  0  0  0  0  0  0  0  0  0  0  0
  140.9740   79.2070  223.3380 N   0  0  0  0  0  0  0  0  0  0  0  0
  142.0540   79.0650  222.4630 C   0  0  0  0  0  0  0  0  0  0  0  0
  143.0760   80.0920  223.0150 C   0  0  0  0  0  0  0  0  0  0  0  0
  142.1670   81.2800  223.2190 C   0  0  0  0  0  0  0  0  0  0  0  0
  140.8470   80.6580  223.5410 C   0  0  0  0  0  0  0  0  0  0  0  0
  140.0690   71.4970  223.8020 C   0  0  0  0  0  0  0  0  0  0  0  0
  139.4720   70.2650  223.5150 C   0  0  0  0  0  0  0  0  0  0  0  0
  139.4420   69.3070  224.5190 C   0  0  0  0  0  0  0  0  0  0  0  0
  139.9710   69.5290  225.7670 C   0  0  0  0  0  0  0  0  0  0  0  0
  139.9200   68.5610  226.7280 C   0  0  0  0  0  0  0  0  0  0  0  0
  140.4490   68.7890  227.9710 C   0  0  0  0  0  0  0  0  0  0  0  0
  141.0410   70.0180  228.2450 C   0  0  0  0  0  0  0  0  0  0  0  0
  141.0840   70.9950  227.2490 C   0  0  0  0  0  0  0  0  0  0  0  0
  140.5470   70.7660  225.9890 C   0  0  0  0  0  0  0  0  0  0  0  0
  140.5900   71.7230  225.0200 N   0  0  0  0  0  0  0  0  0  0  0  0
  138.0420   73.0070  222.8660 H   0  0  0  0  0  0  0  0  0  0  0  0
  139.5017   73.8171  220.4060 H   0  0  0  0  0  0  0  0  0  0  0  0
  137.9209   74.4505  220.9509 H   0  0  0  0  0  0  0  0  0  0  0  0
  136.8536   76.0756  221.8420 H   0  0  0  0  0  0  0  0  0  0  0  0
  137.3279   76.6733  223.4219 H   0  0  0  0  0  0  0  0  0  0  0  0
  136.2259   78.2581  221.3058 H   0  0  0  0  0  0  0  0  0  0  0  0
  137.0339   78.9483  222.6971 H   0  0  0  0  0  0  0  0  0  0  0  0
  138.2915   78.0873  219.9819 H   0  0  0  0  0  0  0  0  0  0  0  0
  138.4665   79.6469  220.7093 H   0  0  0  0  0  0  0  0  0  0  0  0
  140.4759   78.1464  221.3257 H   0  0  0  0  0  0  0  0  0  0  0  0
  138.9520   79.3776  223.2727 H   0  0  0  0  0  0  0  0  0  0  0  0
  139.6825   77.7604  223.8163 H   0  0  0  0  0  0  0  0  0  0  0  0
  142.4604   78.0434  222.4968 H   0  0  0  0  0  0  0  0  0  0  0  0
  141.7881   79.2363  221.4095 H   0  0  0  0  0  0  0  0  0  0  0  0
  143.5248   79.7539  223.9606 H   0  0  0  0  0  0  0  0  0  0  0  0
  143.9439   80.2780  222.3653 H   0  0  0  0  0  0  0  0  0  0  0  0
  142.5198   81.9067  224.0513 H   0  0  0  0  0  0  0  0  0  0  0  0
  142.1256   81.9433  222.3425 H   0  0  0  0  0  0  0  0  0  0  0  0
  140.5794   80.8678  224.5871 H   0  0  0  0  0  0  0  0  0  0  0  0
  140.0592   81.0698  222.8931 H   0  0  0  0  0  0  0  0  0  0  0  0
  139.0396   70.0616  222.5242 H   0  0  0  0  0  0  0  0  0  0  0  0
  138.9769   68.3329  224.3071 H   0  0  0  0  0  0  0  0  0  0  0  0
  139.4512   67.5917  226.5030 H   0  0  0  0  0  0  0  0  0  0  0  0
  140.4062   68.0083  228.7447 H   0  0  0  0  0  0  0  0  0  0  0  0
  141.4712   70.2179  229.2375 H   0  0  0  0  0  0  0  0  0  0  0  0
  141.5528   71.9660  227.4666 H   0  0  0  0  0  0  0  0  0  0  0  0
  1  2  2  0
  2  3  1  0
  3  4  1  0
  4  5  1  0
  5  6  2  0
  5  7  1  0
  7  8  1  0
  8  9  1  0
  9 10  1  0
 10 11  1  0
 11 12  1  0
 12 13  1  0
 13 14  1  0
 14 15  1  0
 15 16  1  0
 16 17  1  0
  2 18  1  0
 18 19  2  0
 19 20  1  0
 20 21  2  0
 21 22  1  0
 22 23  2  0
 23 24  1  0
 24 25  2  0
 25 26  1  0
 26 27  2  0
 11  7  1  0
 17 13  1  0
 27 18  1  0
 26 21  1  0
  3 28  1  0
  4 29  1  0
  4 30  1  0
  8 31  1  0
  8 32  1  0
  9 33  1  0
  9 34  1  0
 10 35  1  0
 10 36  1  0
 11 37  1  6
 12 38  1  0
 12 39  1  0
 14 40  1  0
 14 41  1  0
 15 42  1  0
 15 43  1  0
 16 44  1  0
 16 45  1  0
 17 46  1  0
 17 47  1  0
 19 48  1  0
 20 49  1  0
 22 50  1  0
 23 51  1  0
 24 52  1  0
 25 53  1  0
M  END
>  <smiles>  (28) 
O=C(NCC(=O)N1CCC[C@H]1CN1CCCC1)c1ccc2ccccc2n1

>  <score_type>  (28) 
oracle

>  <origin>  (28) 
autodockgpu

>  <m_score__min__energy>  (28) 
-8.3499999999999996

>  <m_primary>  (28) 
energy

>  <rmsd>  (28) 
2.7902031556998494

>  <m_score__min__rmsd>  (28) 
2.7902031556998494

>  <meeko>  (28) 
{"free_energy": -8.33, "intermolecular_energy": -10.12, "internal_energy": -1.22, "cluster_size": 29, "cluster_id": 1, "rank_in_cluster": 2}

>  <energy>  (28) 
-7.77

>  <cluster_rmsd>  (28) 
1.47

>  <cluster>  (28) 
1

$$$$

     RDKit          3D

 53 56  0  0  0  0  0  0  0  0999 V2000
  140.3080   71.4140  221.3000 O   0  0  0  0  0  0  0  0  0  0  0  0
  140.0750   72.0080  222.3890 C   0  0  0  0  0  0  0  0  0  0  0  0
  139.7920   73.4010  222.2910 N   0  0  0  0  0  0  0  0  0  0  0  0
  139.7660   74.1070  221.0150 C   0  0  0  0  0  0  0  0  0  0  0  0
  140.1750   75.4900  221.2460 C   0  0  0  0  0  0  0  0  0  0  0  0
  139.9990   76.1090  222.3500 O   0  0  0  0  0  0  0  0  0  0  0  0
  140.8180   76.2570  220.2280 N   0  0  0  0  0  0  0  0  0  0  0  0
  140.5150   76.3000  218.8030 C   0  0  0  0  0  0  0  0  0  0  0  0
  141.8100   76.8310  218.1750 C   0  0  0  0  0  0  0  0  0  0  0  0
  142.8260   76.7170  219.3290 C   0  0  0  0  0  0  0  0  0  0  0  0
  141.9710   77.2020  220.4700 C   0  0  1  0  0  0  0  0  0  0  0  0
  141.4840   78.5870  220.4130 C   0  0  0  0  0  0  0  0  0  0  0  0
  141.3470   79.2700  221.6350 N   0  0  0  0  0  0  0  0  0  0  0  0
  141.5550   78.6620  222.8760 C   0  0  0  0  0  0  0  0  0  0  0  0
  141.5310   79.8660  223.8530 C   0  0  0  0  0  0  0  0  0  0  0  0
  142.4220   80.8270  223.1040 C   0  0  0  0  0  0  0  0  0  0  0  0
  142.1790   80.4820  221.6690 C   0  0  0  0  0  0  0  0  0  0  0  0
  140.1000   71.2930  223.6650 C   0  0  0  0  0  0  0  0  0  0  0  0
  139.5890   69.9910  223.6750 C   0  0  0  0  0  0  0  0  0  0  0  0
  139.5970   69.2970  224.8770 C   0  0  0  0  0  0  0  0  0  0  0  0
  140.0850   69.8420  226.0400 C   0  0  0  0  0  0  0  0  0  0  0  0
  140.0750   69.1280  227.2030 C   0  0  0  0  0  0  0  0  0  0  0  0
  140.5610   69.6770  228.3600 C   0  0  0  0  0  0  0  0  0  0  0  0
  141.0680   70.9730  228.3380 C   0  0  0  0  0  0  0  0  0  0  0  0
  141.0700   71.6870  227.1390 C   0  0  0  0  0  0  0  0  0  0  0  0
  140.5760   71.1320  225.9660 C   0  0  0  0  0  0  0  0  0  0  0  0
  140.5800   71.8340  224.7980 N   0  0  0  0  0  0  0  0  0  0  0  0
  139.5980   73.8990  223.1950 H   0  0  0  0  0  0  0  0  0  0  0  0
  140.4608   73.6267  220.3103 H   0  0  0  0  0  0  0  0  0  0  0  0
  138.7529   74.0784  220.5874 H   0  0  0  0  0  0  0  0  0  0  0  0
  140.2764   75.2962  218.4217 H   0  0  0  0  0  0  0  0  0  0  0  0
  139.6398   76.9245  218.5707 H   0  0  0  0  0  0  0  0  0  0  0  0
  142.1153   76.2142  217.3169 H   0  0  0  0  0  0  0  0  0  0  0  0
  141.7137   77.8536  217.7812 H   0  0  0  0  0  0  0  0  0  0  0  0
  143.1597   75.6797  219.4796 H   0  0  0  0  0  0  0  0  0  0  0  0
  143.7638   77.2725  219.1807 H   0  0  0  0  0  0  0  0  0  0  0  0
  142.5019   77.2071  221.4334 H   0  0  0  0  0  0  0  0  0  0  0  0
  142.1871   79.1599  219.7905 H   0  0  0  0  0  0  0  0  0  0  0  0
  140.4620   78.5125  220.0131 H   0  0  0  0  0  0  0  0  0  0  0  0
  140.7515   77.9473  223.1073 H   0  0  0  0  0  0  0  0  0  0  0  0
  142.4857   78.0777  222.9256 H   0  0  0  0  0  0  0  0  0  0  0  0
  140.5149   80.2671  223.9821 H   0  0  0  0  0  0  0  0  0  0  0  0
  141.8544   79.6372  224.8792 H   0  0  0  0  0  0  0  0  0  0  0  0
  142.1382   81.8693  223.3113 H   0  0  0  0  0  0  0  0  0  0  0  0
  143.4804   80.7430  223.3916 H   0  0  0  0  0  0  0  0  0  0  0  0
  141.6556   81.3098  221.1682 H   0  0  0  0  0  0  0  0  0  0  0  0
  143.1321   80.3096  221.1476 H   0  0  0  0  0  0  0  0  0  0  0  0
  139.1927   69.5309  222.7578 H   0  0  0  0  0  0  0  0  0  0  0  0
  139.1977   68.2723  224.8993 H   0  0  0  0  0  0  0  0  0  0  0  0
  139.6736   68.1039  227.2113 H   0  0  0  0  0  0  0  0  0  0  0  0
  140.5507   69.0999  229.2964 H   0  0  0  0  0  0  0  0  0  0  0  0
  141.4634   71.4302  229.2571 H   0  0  0  0  0  0  0  0  0  0  0  0
  141.4714   72.7110  227.1228 H   0  0  0  0  0  0  0  0  0  0  0  0
  1  2  2  0
  2  3  1  0
  3  4  1  0
  4  5  1  0
  5  6  2  0
  5  7  1  0
  7  8  1  0
  8  9  1  0
  9 10  1  0
 10 11  1  0
 11 12  1  0
 12 13  1  0
 13 14  1  0
 14 15  1  0
 15 16  1  0
 16 17  1  0
  2 18  1  0
 18 19  2  0
 19 20  1  0
 20 21  2  0
 21 22  1  0
 22 23  2  0
 23 24  1  0
 24 25  2  0
 25 26  1  0
 26 27  2  0
 11  7  1  0
 17 13  1  0
 27 18  1  0
 26 21  1  0
  3 28  1  0
  4 29  1  0
  4 30  1  0
  8 31  1  0
  8 32  1  0
  9 33  1  0
  9 34  1  0
 10 35  1  0
 10 36  1  0
 11 37  1  1
 12 38  1  0
 12 39  1  0
 14 40  1  0
 14 41  1  0
 15 42  1  0
 15 43  1  0
 16 44  1  0
 16 45  1  0
 17 46  1  0
 17 47  1  0
 19 48  1  0
 20 49  1  0
 22 50  1  0
 23 51  1  0
 24 52  1  0
 25 53  1  0
M  END
>  <smiles>  (29) 
O=C(NCC(=O)N1CCC[C@H]1CN1CCCC1)c1ccc2ccccc2n1

>  <score_type>  (29) 
oracle

>  <origin>  (29) 
autodockgpu

>  <m_score__min__energy>  (29) 
-8.3499999999999996

>  <m_primary>  (29) 
energy

>  <rmsd>  (29) 
1.7622245200130175

>  <m_score__min__rmsd>  (29) 
1.7622245200130175

>  <meeko>  (29) 
{"free_energy": -8.2, "intermolecular_energy": -9.99, "internal_energy": -1.72, "cluster_size": 29, "cluster_id": 1, "rank_in_cluster": 8}

>  <energy>  (29) 
-7.55

>  <cluster_rmsd>  (29) 
1.43

>  <cluster>  (29) 
1

$$$$

     RDKit          3D

 53 56  0  0  0  0  0  0  0  0999 V2000
  140.2940   71.0900  221.3100 O   0  0  0  0  0  0  0  0  0  0  0  0
  140.0450   71.6930  222.3900 C   0  0  0  0  0  0  0  0  0  0  0  0
  139.8070   73.0940  222.2820 N   0  0  0  0  0  0  0  0  0  0  0  0
  139.8440   73.7970  221.0040 C   0  0  0  0  0  0  0  0  0  0  0  0
  140.0630   75.2170  221.2680 C   0  0  0  0  0  0  0  0  0  0  0  0
  139.7710   75.7890  222.3720 O   0  0  0  0  0  0  0  0  0  0  0  0
  140.6330   76.0790  220.2820 N   0  0  0  0  0  0  0  0  0  0  0  0
  140.3100   76.1670  218.8640 C   0  0  0  0  0  0  0  0  0  0  0  0
  141.5540   76.8230  218.2510 C   0  0  0  0  0  0  0  0  0  0  0  0
  142.5900   76.7300  219.3880 C   0  0  0  0  0  0  0  0  0  0  0  0
  141.7170   77.0940  220.5600 C   0  0  1  0  0  0  0  0  0  0  0  0
  141.1270   78.4400  220.5740 C   0  0  0  0  0  0  0  0  0  0  0  0
  141.2070   79.1630  221.7790 N   0  0  0  0  0  0  0  0  0  0  0  0
  141.4180   78.5550  223.0200 C   0  0  0  0  0  0  0  0  0  0  0  0
  141.6730   79.7680  223.9530 C   0  0  0  0  0  0  0  0  0  0  0  0
  142.6400   80.5530  223.1010 C   0  0  0  0  0  0  0  0  0  0  0  0
  142.2240   80.2220  221.7040 C   0  0  0  0  0  0  0  0  0  0  0  0
  140.0070   70.9810  223.6680 C   0  0  0  0  0  0  0  0  0  0  0  0
  139.4060   69.7180  223.6750 C   0  0  0  0  0  0  0  0  0  0  0  0
  139.3540   69.0280  224.8780 C   0  0  0  0  0  0  0  0  0  0  0  0
  139.8670   69.5400  226.0450 C   0  0  0  0  0  0  0  0  0  0  0  0
  139.7960   68.8300  227.2090 C   0  0  0  0  0  0  0  0  0  0  0  0
  140.3090   69.3470  228.3700 C   0  0  0  0  0  0  0  0  0  0  0  0
  140.9050   70.6040  228.3510 C   0  0  0  0  0  0  0  0  0  0  0  0
  140.9690   71.3140  227.1510 C   0  0  0  0  0  0  0  0  0  0  0  0
  140.4490   70.7920  225.9740 C   0  0  0  0  0  0  0  0  0  0  0  0
  140.5120   71.4890  224.8050 N   0  0  0  0  0  0  0  0  0  0  0  0
  139.6010   73.6000  223.1790 H   0  0  0  0  0  0  0  0  0  0  0  0
  140.6642   73.4027  220.3861 H   0  0  0  0  0  0  0  0  0  0  0  0
  138.8960   73.6535  220.4648 H   0  0  0  0  0  0  0  0  0  0  0  0
  140.1421   75.1674  218.4366 H   0  0  0  0  0  0  0  0  0  0  0  0
  139.3879   76.7345  218.6700 H   0  0  0  0  0  0  0  0  0  0  0  0
  141.8932   76.2728  217.3609 H   0  0  0  0  0  0  0  0  0  0  0  0
  141.3769   77.8533  217.9088 H   0  0  0  0  0  0  0  0  0  0  0  0
  143.0017   75.7145  219.4843 H   0  0  0  0  0  0  0  0  0  0  0  0
  143.4816   77.3610  219.2580 H   0  0  0  0  0  0  0  0  0  0  0  0
  142.2589   77.0917  221.5173 H   0  0  0  0  0  0  0  0  0  0  0  0
  141.6342   79.0321  219.7981 H   0  0  0  0  0  0  0  0  0  0  0  0
  140.0512   78.2807  220.4088 H   0  0  0  0  0  0  0  0  0  0  0  0
  140.5316   77.9876  223.3399 H   0  0  0  0  0  0  0  0  0  0  0  0
  142.2419   77.8262  223.0154 H   0  0  0  0  0  0  0  0  0  0  0  0
  140.7500   80.3332  224.1497 H   0  0  0  0  0  0  0  0  0  0  0  0
  142.0419   79.5115  224.9571 H   0  0  0  0  0  0  0  0  0  0  0  0
  142.5470   81.6320  223.2935 H   0  0  0  0  0  0  0  0  0  0  0  0
  143.6914   80.3023  223.3053 H   0  0  0  0  0  0  0  0  0  0  0  0
  141.8012   81.1136  221.2179 H   0  0  0  0  0  0  0  0  0  0  0  0
  143.0890   79.8841  221.1145 H   0  0  0  0  0  0  0  0  0  0  0  0
  138.9872   69.2847  222.7547 H   0  0  0  0  0  0  0  0  0  0  0  0
  138.8843   68.0335  224.8978 H   0  0  0  0  0  0  0  0  0  0  0  0
  139.3239   67.8365  227.2150 H   0  0  0  0  0  0  0  0  0  0  0  0
  140.2501   68.7740  229.3071 H   0  0  0  0  0  0  0  0  0  0  0  0
  141.3220   71.0344  229.2734 H   0  0  0  0  0  0  0  0  0  0  0  0
  141.4410   72.3075  227.1374 H   0  0  0  0  0  0  0  0  0  0  0  0
  1  2  2  0
  2  3  1  0
  3  4  1  0
  4  5  1  0
  5  6  2  0
  5  7  1  0
  7  8  1  0
  8  9  1  0
  9 10  1  0
 10 11  1  0
 11 12  1  0
 12 13  1  0
 13 14  1  0
 14 15  1  0
 15 16  1  0
 16 17  1  0
  2 18  1  0
 18 19  2  0
 19 20  1  0
 20 21  2  0
 21 22  1  0
 22 23  2  0
 23 24  1  0
 24 25  2  0
 25 26  1  0
 26 27  2  0
 11  7  1  0
 17 13  1  0
 27 18  1  0
 26 21  1  0
  3 28  1  0
  4 29  1  0
  4 30  1  0
  8 31  1  0
  8 32  1  0
  9 33  1  0
  9 34  1  0
 10 35  1  0
 10 36  1  0
 11 37  1  1
 12 38  1  0
 12 39  1  0
 14 40  1  0
 14 41  1  0
 15 42  1  0
 15 43  1  0
 16 44  1  0
 16 45  1  0
 17 46  1  0
 17 47  1  0
 19 48  1  0
 20 49  1  0
 22 50  1  0
 23 51  1  0
 24 52  1  0
 25 53  1  0
M  END
>  <smiles>  (30) 
O=C(NCC(=O)N1CCC[C@H]1CN1CCCC1)c1ccc2ccccc2n1

>  <score_type>  (30) 
oracle

>  <origin>  (30) 
autodockgpu

>  <m_score__min__energy>  (30) 
-8.3499999999999996

>  <m_primary>  (30) 
energy

>  <rmsd>  (30) 
1.692674666760023

>  <m_score__min__rmsd>  (30) 
1.692674666760023

>  <meeko>  (30) 
{"free_energy": -8.07, "intermolecular_energy": -9.86, "internal_energy": -1.76, "cluster_size": 29, "cluster_id": 1, "rank_in_cluster": 20}

>  <energy>  (30) 
-8.08

>  <cluster_rmsd>  (30) 
0.0

>  <cluster>  (30) 
2

$$$$

     RDKit          3D

 53 56  0  0  0  0  0  0  0  0999 V2000
  141.3160   72.3370  221.6210 O   0  0  0  0  0  0  0  0  0  0  0  0
  140.4450   72.5420  222.5110 C   0  0  0  0  0  0  0  0  0  0  0  0
  139.6520   73.7150  222.3490 N   0  0  0  0  0  0  0  0  0  0  0  0
  139.8270   74.6290  221.2250 C   0  0  0  0  0  0  0  0  0  0  0  0
  140.0800   75.9660  221.7550 C   0  0  0  0  0  0  0  0  0  0  0  0
  141.2410   76.4920  221.8340 O   0  0  0  0  0  0  0  0  0  0  0  0
  139.0170   76.7920  222.2310 N   0  0  0  0  0  0  0  0  0  0  0  0
  137.7880   76.3870  222.9020 C   0  0  0  0  0  0  0  0  0  0  0  0
  136.8460   77.5770  222.6790 C   0  0  0  0  0  0  0  0  0  0  0  0
  137.5780   78.4000  221.6010 C   0  0  0  0  0  0  0  0  0  0  0  0
  138.9890   78.2980  222.1160 C   0  0  1  0  0  0  0  0  0  0  0  0
  139.2760   78.8900  223.4310 C   0  0  0  0  0  0  0  0  0  0  0  0
  140.4730   79.6180  223.5590 N   0  0  0  0  0  0  0  0  0  0  0  0
  141.7040   79.0200  223.8450 C   0  0  0  0  0  0  0  0  0  0  0  0
  142.7060   80.1840  223.6310 C   0  0  0  0  0  0  0  0  0  0  0  0
  142.1950   80.7300  222.3200 C   0  0  0  0  0  0  0  0  0  0  0  0
  140.7280   80.4470  222.3710 C   0  0  0  0  0  0  0  0  0  0  0  0
  140.2730   71.6200  223.6350 C   0  0  0  0  0  0  0  0  0  0  0  0
  139.5820   70.4310  223.3820 C   0  0  0  0  0  0  0  0  0  0  0  0
  139.4030   69.5450  224.4350 C   0  0  0  0  0  0  0  0  0  0  0  0
  139.8770   69.7970  225.7000 C   0  0  0  0  0  0  0  0  0  0  0  0
  139.6810   68.9000  226.7100 C   0  0  0  0  0  0  0  0  0  0  0  0
  140.1550   69.1580  227.9690 C   0  0  0  0  0  0  0  0  0  0  0  0
  140.8420   70.3440  228.2090 C   0  0  0  0  0  0  0  0  0  0  0  0
  141.0340   71.2480  227.1630 C   0  0  0  0  0  0  0  0  0  0  0  0
  140.5530   70.9890  225.8860 C   0  0  0  0  0  0  0  0  0  0  0  0
  140.7410   71.8750  224.8690 N   0  0  0  0  0  0  0  0  0  0  0  0
  138.9270   73.8900  223.0890 H   0  0  0  0  0  0  0  0  0  0  0  0
  140.6805   74.3047  220.6115 H   0  0  0  0  0  0  0  0  0  0  0  0
  138.9233   74.6352  220.5979 H   0  0  0  0  0  0  0  0  0  0  0  0
  137.3777   75.4715  222.4510 H   0  0  0  0  0  0  0  0  0  0  0  0
  137.9389   76.1551  223.9666 H   0  0  0  0  0  0  0  0  0  0  0  0
  135.8622   77.2408  222.3197 H   0  0  0  0  0  0  0  0  0  0  0  0
  136.6430   78.1477  223.5972 H   0  0  0  0  0  0  0  0  0  0  0  0
  137.4735   77.9510  220.6022 H   0  0  0  0  0  0  0  0  0  0  0  0
  137.2050   79.4259  221.4653 H   0  0  0  0  0  0  0  0  0  0  0  0
  139.7169   78.8277  221.4838 H   0  0  0  0  0  0  0  0  0  0  0  0
  138.4469   79.5700  223.6763 H   0  0  0  0  0  0  0  0  0  0  0  0
  139.3908   78.0323  224.1101 H   0  0  0  0  0  0  0  0  0  0  0  0
  141.7361   78.6545  224.8820 H   0  0  0  0  0  0  0  0  0  0  0  0
  141.9174   78.1398  223.2207 H   0  0  0  0  0  0  0  0  0  0  0  0
  142.6432   80.9304  224.4366 H   0  0  0  0  0  0  0  0  0  0  0  0
  143.7658   79.8893  223.6292 H   0  0  0  0  0  0  0  0  0  0  0  0
  142.3843   81.8109  222.2440 H   0  0  0  0  0  0  0  0  0  0  0  0
  142.6880   80.2779  221.4468 H   0  0  0  0  0  0  0  0  0  0  0  0
  140.1669   81.3902  222.4450 H   0  0  0  0  0  0  0  0  0  0  0  0
  140.4050   79.9231  221.4593 H   0  0  0  0  0  0  0  0  0  0  0  0
  139.1921   70.2048  222.3786 H   0  0  0  0  0  0  0  0  0  0  0  0
  138.8613   68.6056  224.2501 H   0  0  0  0  0  0  0  0  0  0  0  0
  139.1388   67.9637  226.5116 H   0  0  0  0  0  0  0  0  0  0  0  0
  139.9942   68.4349  228.7821 H   0  0  0  0  0  0  0  0  0  0  0  0
  141.2302   70.5671  229.2138 H   0  0  0  0  0  0  0  0  0  0  0  0
  141.5776   72.1851  227.3540 H   0  0  0  0  0  0  0  0  0  0  0  0
  1  2  2  0
  2  3  1  0
  3  4  1  0
  4  5  1  0
  5  6  2  0
  5  7  1  0
  7  8  1  0
  8  9  1  0
  9 10  1  0
 10 11  1  0
 11 12  1  0
 12 13  1  0
 13 14  1  0
 14 15  1  0
 15 16  1  0
 16 17  1  0
  2 18  1  0
 18 19  2  0
 19 20  1  0
 20 21  2  0
 21 22  1  0
 22 23  2  0
 23 24  1  0
 24 25  2  0
 25 26  1  0
 26 27  2  0
 11  7  1  0
 17 13  1  0
 27 18  1  0
 26 21  1  0
  3 28  1  0
  4 29  1  0
  4 30  1  0
  8 31  1  0
  8 32  1  0
  9 33  1  0
  9 34  1  0
 10 35  1  0
 10 36  1  0
 11 37  1  6
 12 38  1  0
 12 39  1  0
 14 40  1  0
 14 41  1  0
 15 42  1  0
 15 43  1  0
 16 44  1  0
 16 45  1  0
 17 46  1  0
 17 47  1  0
 19 48  1  0
 20 49  1  0
 22 50  1  0
 23 51  1  0
 24 52  1  0
 25 53  1  0
M  END
>  <smiles>  (31) 
O=C(NCC(=O)N1CCC[C@H]1CN1CCCC1)c1ccc2ccccc2n1

>  <score_type>  (31) 
oracle

>  <origin>  (31) 
autodockgpu

>  <m_score__min__energy>  (31) 
-8.3499999999999996

>  <m_primary>  (31) 
energy

>  <rmsd>  (31) 
2.959181297245189

>  <m_score__min__rmsd>  (31) 
2.959181297245189

>  <meeko>  (31) 
{"free_energy": -8.16, "intermolecular_energy": -9.95, "internal_energy": -1.4, "cluster_size": 29, "cluster_id": 1, "rank_in_cluster": 11}

>  <energy>  (31) 
-8.04

>  <cluster_rmsd>  (31) 
0.26

>  <cluster>  (31) 
2

$$$$

     RDKit          3D

 53 56  0  0  0  0  0  0  0  0999 V2000
  141.2270   71.9890  221.5460 O   0  0  0  0  0  0  0  0  0  0  0  0
  140.4550   72.3370  222.4810 C   0  0  0  0  0  0  0  0  0  0  0  0
  139.7930   73.5870  222.3100 N   0  0  0  0  0  0  0  0  0  0  0  0
  139.9870   74.4210  221.1280 C   0  0  0  0  0  0  0  0  0  0  0  0
  139.1270   75.5950  221.2480 C   0  0  0  0  0  0  0  0  0  0  0  0
  137.8890   75.5410  221.5590 O   0  0  0  0  0  0  0  0  0  0  0  0
  139.6290   76.9120  221.0220 N   0  0  0  0  0  0  0  0  0  0  0  0
  139.1600   77.9050  220.0640 C   0  0  0  0  0  0  0  0  0  0  0  0
  140.3610   78.8460  219.9020 C   0  0  0  0  0  0  0  0  0  0  0  0
  141.5070   78.0600  220.5690 C   0  0  0  0  0  0  0  0  0  0  0  0
  140.7830   77.5280  221.7770 C   0  0  1  0  0  0  0  0  0  0  0  0
  140.2630   78.5060  222.7430 C   0  0  0  0  0  0  0  0  0  0  0  0
  141.2030   79.3220  223.3980 N   0  0  0  0  0  0  0  0  0  0  0  0
  142.5520   79.3740  223.0360 C   0  0  0  0  0  0  0  0  0  0  0  0
  143.0820   80.5710  223.8680 C   0  0  0  0  0  0  0  0  0  0  0  0
  141.9870   81.5760  223.6060 C   0  0  0  0  0  0  0  0  0  0  0  0
  140.7700   80.7270  223.4260 C   0  0  0  0  0  0  0  0  0  0  0  0
  140.2630   71.4950  223.6620 C   0  0  0  0  0  0  0  0  0  0  0  0
  139.5920   70.2820  223.4770 C   0  0  0  0  0  0  0  0  0  0  0  0
  139.3940   69.4710  224.5860 C   0  0  0  0  0  0  0  0  0  0  0  0
  139.8300   69.8190  225.8410 C   0  0  0  0  0  0  0  0  0  0  0  0
  139.6160   68.9940  226.9070 C   0  0  0  0  0  0  0  0  0  0  0  0
  140.0520   69.3470  228.1570 C   0  0  0  0  0  0  0  0  0  0  0  0
  140.7190   70.5560  228.3300 C   0  0  0  0  0  0  0  0  0  0  0  0
  140.9290   71.3850  227.2270 C   0  0  0  0  0  0  0  0  0  0  0  0
  140.4860   71.0300  225.9600 C   0  0  0  0  0  0  0  0  0  0  0  0
  140.6930   71.8430  224.8870 N   0  0  0  0  0  0  0  0  0  0  0  0
  139.1500   73.8810  223.0870 H   0  0  0  0  0  0  0  0  0  0  0  0
  141.0390   74.7358  221.0637 H   0  0  0  0  0  0  0  0  0  0  0  0
  139.7314   73.8557  220.2197 H   0  0  0  0  0  0  0  0  0  0  0  0
  138.8988   77.4330  219.1053 H   0  0  0  0  0  0  0  0  0  0  0  0
  138.2511   78.4261  220.3991 H   0  0  0  0  0  0  0  0  0  0  0  0
  140.5759   79.0340  218.8397 H   0  0  0  0  0  0  0  0  0  0  0  0
  140.1983   79.8385  220.3474 H   0  0  0  0  0  0  0  0  0  0  0  0
  141.8769   77.2495  219.9239 H   0  0  0  0  0  0  0  0  0  0  0  0
  142.4092   78.6495  220.7893 H   0  0  0  0  0  0  0  0  0  0  0  0
  141.4239   76.9132  222.4260 H   0  0  0  0  0  0  0  0  0  0  0  0
  139.5688   79.1673  222.2038 H   0  0  0  0  0  0  0  0  0  0  0  0
  139.8055   77.9023  223.5407 H   0  0  0  0  0  0  0  0  0  0  0  0
  143.0713   78.4425  223.3057 H   0  0  0  0  0  0  0  0  0  0  0  0
  142.7095   79.4908  221.9536 H   0  0  0  0  0  0  0  0  0  0  0  0
  143.1611   80.3224  224.9366 H   0  0  0  0  0  0  0  0  0  0  0  0
  144.0946   80.9085  223.6020 H   0  0  0  0  0  0  0  0  0  0  0  0
  141.8673   82.2587  224.4602 H   0  0  0  0  0  0  0  0  0  0  0  0
  142.1938   82.2182  222.7372 H   0  0  0  0  0  0  0  0  0  0  0  0
  140.0744   80.8877  224.2628 H   0  0  0  0  0  0  0  0  0  0  0  0
  140.2534   80.9888  222.4908 H   0  0  0  0  0  0  0  0  0  0  0  0
  139.2319   69.9797  222.4825 H   0  0  0  0  0  0  0  0  0  0  0  0
  138.8682   68.5138  224.4547 H   0  0  0  0  0  0  0  0  0  0  0  0
  139.0898   68.0390  226.7616 H   0  0  0  0  0  0  0  0  0  0  0  0
  139.8766   68.6815  229.0151 H   0  0  0  0  0  0  0  0  0  0  0  0
  141.0771   70.8553  229.3261 H   0  0  0  0  0  0  0  0  0  0  0  0
  141.4569   72.3402  227.3645 H   0  0  0  0  0  0  0  0  0  0  0  0
  1  2  2  0
  2  3  1  0
  3  4  1  0
  4  5  1  0
  5  6  2  0
  5  7  1  0
  7  8  1  0
  8  9  1  0
  9 10  1  0
 10 11  1  0
 11 12  1  0
 12 13  1  0
 13 14  1  0
 14 15  1  0
 15 16  1  0
 16 17  1  0
  2 18  1  0
 18 19  2  0
 19 20  1  0
 20 21  2  0
 21 22  1  0
 22 23  2  0
 23 24  1  0
 24 25  2  0
 25 26  1  0
 26 27  2  0
 11  7  1  0
 17 13  1  0
 27 18  1  0
 26 21  1  0
  3 28  1  0
  4 29  1  0
  4 30  1  0
  8 31  1  0
  8 32  1  0
  9 33  1  0
  9 34  1  0
 10 35  1  0
 10 36  1  0
 11 37  1  1
 12 38  1  0
 12 39  1  0
 14 40  1  0
 14 41  1  0
 15 42  1  0
 15 43  1  0
 16 44  1  0
 16 45  1  0
 17 46  1  0
 17 47  1  0
 19 48  1  0
 20 49  1  0
 22 50  1  0
 23 51  1  0
 24 52  1  0
 25 53  1  0
M  END
>  <smiles>  (32) 
O=C(NCC(=O)N1CCC[C@H]1CN1CCCC1)c1ccc2ccccc2n1

>  <score_type>  (32) 
oracle

>  <origin>  (32) 
autodockgpu

>  <m_score__min__energy>  (32) 
-8.3499999999999996

>  <m_primary>  (32) 
energy

>  <rmsd>  (32) 
2.4573703347554243

>  <m_score__min__rmsd>  (32) 
2.4573703347554243

>  <meeko>  (32) 
{"free_energy": -8.16, "intermolecular_energy": -9.95, "internal_energy": -1.27, "cluster_size": 29, "cluster_id": 1, "rank_in_cluster": 12}

>  <energy>  (32) 
-8.01

>  <cluster_rmsd>  (32) 
0.3

>  <cluster>  (32) 
2

$$$$

     RDKit          3D

 53 56  0  0  0  0  0  0  0  0999 V2000
  138.9390   70.7130  221.5020 O   0  0  0  0  0  0  0  0  0  0  0  0
  139.2120   71.3160  222.5770 C   0  0  0  0  0  0  0  0  0  0  0  0
  139.2480   72.7380  222.5030 N   0  0  0  0  0  0  0  0  0  0  0  0
  138.9840   73.4640  221.2650 C   0  0  0  0  0  0  0  0  0  0  0  0
  138.7560   74.8680  221.5970 C   0  0  0  0  0  0  0  0  0  0  0  0
  137.8310   75.2740  222.3790 O   0  0  0  0  0  0  0  0  0  0  0  0
  139.5760   75.9040  221.0550 N   0  0  0  0  0  0  0  0  0  0  0  0
  139.4060   76.6290  219.8030 C   0  0  0  0  0  0  0  0  0  0  0  0
  140.8080   77.1820  219.5120 C   0  0  0  0  0  0  0  0  0  0  0  0
  141.6970   76.4060  220.5040 C   0  0  0  0  0  0  0  0  0  0  0  0
  140.8160   76.4500  221.7250 C   0  0  1  0  0  0  0  0  0  0  0  0
  140.5150   77.7690  222.2990 C   0  0  0  0  0  0  0  0  0  0  0  0
  141.5930   78.6590  222.4600 N   0  0  0  0  0  0  0  0  0  0  0  0
  141.7300   79.8340  221.7150 C   0  0  0  0  0  0  0  0  0  0  0  0
  142.9010   80.5550  222.4300 C   0  0  0  0  0  0  0  0  0  0  0  0
  142.4740   80.3840  223.8680 C   0  0  0  0  0  0  0  0  0  0  0  0
  141.7330   79.0860  223.8600 C   0  0  0  0  0  0  0  0  0  0  0  0
  139.4730   70.5800  223.8150 C   0  0  0  0  0  0  0  0  0  0  0  0
  139.1350   69.2230  223.8330 C   0  0  0  0  0  0  0  0  0  0  0  0
  139.3690   68.5090  225.0010 C   0  0  0  0  0  0  0  0  0  0  0  0
  139.9140   69.0870  226.1220 C   0  0  0  0  0  0  0  0  0  0  0  0
  140.1280   68.3510  227.2510 C   0  0  0  0  0  0  0  0  0  0  0  0
  140.6710   68.9320  228.3660 C   0  0  0  0  0  0  0  0  0  0  0  0
  141.0040   70.2830  228.3370 C   0  0  0  0  0  0  0  0  0  0  0  0
  140.7780   71.0190  227.1720 C   0  0  0  0  0  0  0  0  0  0  0  0
  140.2270   70.4310  226.0410 C   0  0  0  0  0  0  0  0  0  0  0  0
  140.0070   71.1530  224.9080 N   0  0  0  0  0  0  0  0  0  0  0  0
  139.4760   73.2430  223.3950 H   0  0  0  0  0  0  0  0  0  0  0  0
  139.8488   73.3768  220.5909 H   0  0  0  0  0  0  0  0  0  0  0  0
  138.1006   73.0452  220.7608 H   0  0  0  0  0  0  0  0  0  0  0  0
  139.0759   75.9536  218.9999 H   0  0  0  0  0  0  0  0  0  0  0  0
  138.6408   77.4167  219.8661 H   0  0  0  0  0  0  0  0  0  0  0  0
  141.1053   76.9798  218.4724 H   0  0  0  0  0  0  0  0  0  0  0  0
  140.8773   78.2736  219.6287 H   0  0  0  0  0  0  0  0  0  0  0  0
  141.8804   75.3745  220.1687 H   0  0  0  0  0  0  0  0  0  0  0  0
  142.7075   76.8175  220.6439 H   0  0  0  0  0  0  0  0  0  0  0  0
  141.2588   75.9400  222.5932 H   0  0  0  0  0  0  0  0  0  0  0  0
  139.7786   78.2558  221.6427 H   0  0  0  0  0  0  0  0  0  0  0  0
  140.1624   77.5613  223.3200 H   0  0  0  0  0  0  0  0  0  0  0  0
  141.9809   79.6125  220.6672 H   0  0  0  0  0  0  0  0  0  0  0  0
  140.8089   80.4337  221.6717 H   0  0  0  0  0  0  0  0  0  0  0  0
  143.8654   80.0655  222.2294 H   0  0  0  0  0  0  0  0  0  0  0  0
  143.0654   81.5963  222.1158 H   0  0  0  0  0  0  0  0  0  0  0  0
  143.3478   80.3338  224.5343 H   0  0  0  0  0  0  0  0  0  0  0  0
  141.8651   81.2226  224.2367 H   0  0  0  0  0  0  0  0  0  0  0  0
  142.2955   78.3301  224.4276 H   0  0  0  0  0  0  0  0  0  0  0  0
  140.7442   79.2043  224.3271 H   0  0  0  0  0  0  0  0  0  0  0  0
  138.6972   68.7361  222.9491 H   0  0  0  0  0  0  0  0  0  0  0  0
  139.1083   67.4407  225.0297 H   0  0  0  0  0  0  0  0  0  0  0  0
  139.8625   67.2836  227.2656 H   0  0  0  0  0  0  0  0  0  0  0  0
  140.8422   68.3369  229.2752 H   0  0  0  0  0  0  0  0  0  0  0  0
  141.4410   70.7664  229.2232 H   0  0  0  0  0  0  0  0  0  0  0  0
  141.0419   72.0866  227.1497 H   0  0  0  0  0  0  0  0  0  0  0  0
  1  2  2  0
  2  3  1  0
  3  4  1  0
  4  5  1  0
  5  6  2  0
  5  7  1  0
  7  8  1  0
  8  9  1  0
  9 10  1  0
 10 11  1  0
 11 12  1  0
 12 13  1  0
 13 14  1  0
 14 15  1  0
 15 16  1  0
 16 17  1  0
  2 18  1  0
 18 19  2  0
 19 20  1  0
 20 21  2  0
 21 22  1  0
 22 23  2  0
 23 24  1  0
 24 25  2  0
 25 26  1  0
 26 27  2  0
 11  7  1  0
 17 13  1  0
 27 18  1  0
 26 21  1  0
  3 28  1  0
  4 29  1  0
  4 30  1  0
  8 31  1  0
  8 32  1  0
  9 33  1  0
  9 34  1  0
 10 35  1  0
 10 36  1  0
 11 37  1  1
 12 38  1  0
 12 39  1  0
 14 40  1  0
 14 41  1  0
 15 42  1  0
 15 43  1  0
 16 44  1  0
 16 45  1  0
 17 46  1  0
 17 47  1  0
 19 48  1  0
 20 49  1  0
 22 50  1  0
 23 51  1  0
 24 52  1  0
 25 53  1  0
M  END
>  <smiles>  (33) 
O=C(NCC(=O)N1CCC[C@H]1CN1CCCC1)c1ccc2ccccc2n1

>  <score_type>  (33) 
oracle

>  <origin>  (33) 
autodockgpu

>  <m_score__min__energy>  (33) 
-8.3499999999999996

>  <m_primary>  (33) 
energy

>  <rmsd>  (33) 
2.247576483426456

>  <m_score__min__rmsd>  (33) 
2.247576483426456

>  <meeko>  (33) 
{"free_energy": -7.77, "intermolecular_energy": -9.56, "internal_energy": -1.44, "cluster_size": 29, "cluster_id": 1, "rank_in_cluster": 28}

>  <energy>  (33) 
-8.01

>  <cluster_rmsd>  (33) 
0.31

>  <cluster>  (33) 
2

$$$$

     RDKit          3D

 53 56  0  0  0  0  0  0  0  0999 V2000
  140.8970   72.0950  221.5270 O   0  0  0  0  0  0  0  0  0  0  0  0
  140.0830   72.3580  222.4560 C   0  0  0  0  0  0  0  0  0  0  0  0
  139.2460   73.4920  222.2490 N   0  0  0  0  0  0  0  0  0  0  0  0
  139.3140   74.3050  221.0390 C   0  0  0  0  0  0  0  0  0  0  0  0
  140.5530   75.0770  221.0730 C   0  0  0  0  0  0  0  0  0  0  0  0
  141.4540   74.9370  221.9680 O   0  0  0  0  0  0  0  0  0  0  0  0
  140.8450   76.0620  220.0810 N   0  0  0  0  0  0  0  0  0  0  0  0
  140.3080   76.1700  218.7310 C   0  0  0  0  0  0  0  0  0  0  0  0
  141.3430   77.0370  218.0000 C   0  0  0  0  0  0  0  0  0  0  0  0
  142.5360   77.0450  218.9750 C   0  0  0  0  0  0  0  0  0  0  0  0
  141.8010   77.2150  220.2780 C   0  0  1  0  0  0  0  0  0  0  0  0
  141.0330   78.4540  220.4680 C   0  0  0  0  0  0  0  0  0  0  0  0
  141.1790   79.1170  221.7010 N   0  0  0  0  0  0  0  0  0  0  0  0
  141.4480   78.4490  222.8990 C   0  0  0  0  0  0  0  0  0  0  0  0
  141.7590   79.6130  223.8750 C   0  0  0  0  0  0  0  0  0  0  0  0
  142.6880   80.4340  223.0130 C   0  0  0  0  0  0  0  0  0  0  0  0
  142.1990   80.1730  221.6250 C   0  0  0  0  0  0  0  0  0  0  0  0
  140.0190   71.5370  223.6660 C   0  0  0  0  0  0  0  0  0  0  0  0
  139.3320   70.3220  223.5740 C   0  0  0  0  0  0  0  0  0  0  0  0
  139.2540   69.5310  224.7120 C   0  0  0  0  0  0  0  0  0  0  0  0
  139.8220   69.9000  225.9070 C   0  0  0  0  0  0  0  0  0  0  0  0
  139.7220   69.0940  227.0040 C   0  0  0  0  0  0  0  0  0  0  0  0
  140.2900   69.4670  228.1940 C   0  0  0  0  0  0  0  0  0  0  0  0
  140.9710   70.6780  228.2740 C   0  0  0  0  0  0  0  0  0  0  0  0
  141.0630   71.4880  227.1400 C   0  0  0  0  0  0  0  0  0  0  0  0
  140.4870   71.1110  225.9340 C   0  0  0  0  0  0  0  0  0  0  0  0
  140.5780   71.9060  224.8310 N   0  0  0  0  0  0  0  0  0  0  0  0
  138.5690   73.7150  223.0200 H   0  0  0  0  0  0  0  0  0  0  0  0
  139.3060   73.6537  220.1526 H   0  0  0  0  0  0  0  0  0  0  0  0
  138.4479   74.9813  220.9882 H   0  0  0  0  0  0  0  0  0  0  0  0
  140.2236   75.1789  218.2613 H   0  0  0  0  0  0  0  0  0  0  0  0
  139.2958   76.6000  218.7064 H   0  0  0  0  0  0  0  0  0  0  0  0
  141.6235   76.5894  217.0352 H   0  0  0  0  0  0  0  0  0  0  0  0
  140.9728   78.0443  217.7584 H   0  0  0  0  0  0  0  0  0  0  0  0
  143.0974   76.0996  218.9423 H   0  0  0  0  0  0  0  0  0  0  0  0
  143.3002   77.8088  218.7688 H   0  0  0  0  0  0  0  0  0  0  0  0
  142.4717   77.2485  221.1492 H   0  0  0  0  0  0  0  0  0  0  0  0
  141.3354   79.1558  219.6768 H   0  0  0  0  0  0  0  0  0  0  0  0
  139.9785   78.1425  220.4359 H   0  0  0  0  0  0  0  0  0  0  0  0
  140.5747   77.8713  223.2359 H   0  0  0  0  0  0  0  0  0  0  0  0
  142.2653   77.7174  222.8172 H   0  0  0  0  0  0  0  0  0  0  0  0
  140.8516   80.1727  224.1458 H   0  0  0  0  0  0  0  0  0  0  0  0
  142.1763   79.3061  224.8454 H   0  0  0  0  0  0  0  0  0  0  0  0
  142.6130   81.5029  223.2617 H   0  0  0  0  0  0  0  0  0  0  0  0
  143.7465   80.1686  223.1510 H   0  0  0  0  0  0  0  0  0  0  0  0
  141.7589   81.0892  221.2045 H   0  0  0  0  0  0  0  0  0  0  0  0
  143.0303   79.8593  220.9765 H   0  0  0  0  0  0  0  0  0  0  0  0
  138.8679   70.0032  222.6290 H   0  0  0  0  0  0  0  0  0  0  0  0
  138.7171   68.5726  224.6547 H   0  0  0  0  0  0  0  0  0  0  0  0
  139.1818   68.1385  226.9323 H   0  0  0  0  0  0  0  0  0  0  0  0
  140.2085   68.8159  229.0769 H   0  0  0  0  0  0  0  0  0  0  0  0
  141.4323   70.9942  229.2212 H   0  0  0  0  0  0  0  0  0  0  0  0
  141.6029   72.4443  227.2035 H   0  0  0  0  0  0  0  0  0  0  0  0
  1  2  2  0
  2  3  1  0
  3  4  1  0
  4  5  1  0
  5  6  2  0
  5  7  1  0
  7  8  1  0
  8  9  1  0
  9 10  1  0
 10 11  1  0
 11 12  1  0
 12 13  1  0
 13 14  1  0
 14 15  1  0
 15 16  1  0
 16 17  1  0
  2 18  1  0
 18 19  2  0
 19 20  1  0
 20 21  2  0
 21 22  1  0
 22 23  2  0
 23 24  1  0
 24 25  2  0
 25 26  1  0
 26 27  2  0
 11  7  1  0
 17 13  1  0
 27 18  1  0
 26 21  1  0
  3 28  1  0
  4 29  1  0
  4 30  1  0
  8 31  1  0
  8 32  1  0
  9 33  1  0
  9 34  1  0
 10 35  1  0
 10 36  1  0
 11 37  1  1
 12 38  1  0
 12 39  1  0
 14 40  1  0
 14 41  1  0
 15 42  1  0
 15 43  1  0
 16 44  1  0
 16 45  1  0
 17 46  1  0
 17 47  1  0
 19 48  1  0
 20 49  1  0
 22 50  1  0
 23 51  1  0
 24 52  1  0
 25 53  1  0
M  END
>  <smiles>  (34) 
O=C(NCC(=O)N1CCC[C@H]1CN1CCCC1)c1ccc2ccccc2n1

>  <score_type>  (34) 
oracle

>  <origin>  (34) 
autodockgpu

>  <m_score__min__energy>  (34) 
-8.3499999999999996

>  <m_primary>  (34) 
energy

>  <rmsd>  (34) 
1.6688491011892577

>  <m_score__min__rmsd>  (34) 
1.6688491011892577

>  <meeko>  (34) 
{"free_energy": -8.19, "intermolecular_energy": -9.98, "internal_energy": -1.32, "cluster_size": 29, "cluster_id": 1, "rank_in_cluster": 9}

>  <energy>  (34) 
-7.99

>  <cluster_rmsd>  (34) 
0.36

>  <cluster>  (34) 
2

$$$$

     RDKit          3D

 53 56  0  0  0  0  0  0  0  0999 V2000
  141.4060   72.7420  222.0270 O   0  0  0  0  0  0  0  0  0  0  0  0
  140.3410   72.6290  222.6960 C   0  0  0  0  0  0  0  0  0  0  0  0
  139.2810   73.5100  222.3340 N   0  0  0  0  0  0  0  0  0  0  0  0
  139.4070   74.4860  221.2570 C   0  0  0  0  0  0  0  0  0  0  0  0
  139.8200   75.7610  221.8380 C   0  0  0  0  0  0  0  0  0  0  0  0
  141.0380   76.0990  222.0180 O   0  0  0  0  0  0  0  0  0  0  0  0
  138.8620   76.7360  222.2500 N   0  0  0  0  0  0  0  0  0  0  0  0
  137.5800   76.5210  222.9090 C   0  0  0  0  0  0  0  0  0  0  0  0
  136.8000   77.8080  222.6100 C   0  0  0  0  0  0  0  0  0  0  0  0
  137.6500   78.4800  221.5140 C   0  0  0  0  0  0  0  0  0  0  0  0
  139.0280   78.2260  222.0680 C   0  0  1  0  0  0  0  0  0  0  0  0
  139.3640   78.8380  223.3610 C   0  0  0  0  0  0  0  0  0  0  0  0
  140.5490   79.5940  223.4250 N   0  0  0  0  0  0  0  0  0  0  0  0
  141.7720   79.0610  223.8400 C   0  0  0  0  0  0  0  0  0  0  0  0
  142.7720   80.1960  223.4950 C   0  0  0  0  0  0  0  0  0  0  0  0
  142.3070   80.5370  222.1000 C   0  0  0  0  0  0  0  0  0  0  0  0
  140.8420   80.2440  222.1390 C   0  0  0  0  0  0  0  0  0  0  0  0
  140.2210   71.6460  223.7730 C   0  0  0  0  0  0  0  0  0  0  0  0
  139.5730   70.4450  223.4690 C   0  0  0  0  0  0  0  0  0  0  0  0
  139.4430   69.5010  224.4790 C   0  0  0  0  0  0  0  0  0  0  0  0
  139.9250   69.7090  225.7490 C   0  0  0  0  0  0  0  0  0  0  0  0
  139.7760   68.7560  226.7150 C   0  0  0  0  0  0  0  0  0  0  0  0
  140.2580   68.9690  227.9800 C   0  0  0  0  0  0  0  0  0  0  0  0
  140.9020   70.1680  228.2710 C   0  0  0  0  0  0  0  0  0  0  0  0
  141.0440   71.1290  227.2690 C   0  0  0  0  0  0  0  0  0  0  0  0
  140.5560   70.9150  225.9870 C   0  0  0  0  0  0  0  0  0  0  0  0
  140.6960   71.8570  225.0130 N   0  0  0  0  0  0  0  0  0  0  0  0
  138.3940   73.4190  222.8890 H   0  0  0  0  0  0  0  0  0  0  0  0
  140.1620   74.1454  220.5331 H   0  0  0  0  0  0  0  0  0  0  0  0
  138.4450   74.6013  220.7362 H   0  0  0  0  0  0  0  0  0  0  0  0
  137.0654   75.6437  222.4901 H   0  0  0  0  0  0  0  0  0  0  0  0
  137.6812   76.3232  223.9863 H   0  0  0  0  0  0  0  0  0  0  0  0
  135.7883   77.5811  222.2426 H   0  0  0  0  0  0  0  0  0  0  0  0
  136.6539   78.4429  223.4963 H   0  0  0  0  0  0  0  0  0  0  0  0
  137.5080   78.0004  220.5343 H   0  0  0  0  0  0  0  0  0  0  0  0
  137.4124   79.5369  221.3229 H   0  0  0  0  0  0  0  0  0  0  0  0
  139.8288   78.6301  221.4313 H   0  0  0  0  0  0  0  0  0  0  0  0
  138.5322   79.5019  223.6392 H   0  0  0  0  0  0  0  0  0  0  0  0
  139.5309   77.9902  224.0416 H   0  0  0  0  0  0  0  0  0  0  0  0
  141.7674   78.8508  224.9197 H   0  0  0  0  0  0  0  0  0  0  0  0
  142.0164   78.1022  223.3594 H   0  0  0  0  0  0  0  0  0  0  0  0
  142.6716   81.0511  224.1796 H   0  0  0  0  0  0  0  0  0  0  0  0
  143.8337   79.9196  223.5758 H   0  0  0  0  0  0  0  0  0  0  0  0
  142.4899   81.5976  221.8729 H   0  0  0  0  0  0  0  0  0  0  0  0
  142.8368   79.9691  221.3211 H   0  0  0  0  0  0  0  0  0  0  0  0
  140.2705   81.1801  222.0538 H   0  0  0  0  0  0  0  0  0  0  0  0
  140.5584   79.5879  221.3028 H   0  0  0  0  0  0  0  0  0  0  0  0
  139.1781   70.2537  222.4603 H   0  0  0  0  0  0  0  0  0  0  0  0
  138.9353   68.5514  224.2542 H   0  0  0  0  0  0  0  0  0  0  0  0
  139.2658   67.8111  226.4765 H   0  0  0  0  0  0  0  0  0  0  0  0
  140.1371   68.2002  228.7574 H   0  0  0  0  0  0  0  0  0  0  0  0
  141.2952   70.3564  229.2809 H   0  0  0  0  0  0  0  0  0  0  0  0
  141.5534   72.0762  227.4999 H   0  0  0  0  0  0  0  0  0  0  0  0
  1  2  2  0
  2  3  1  0
  3  4  1  0
  4  5  1  0
  5  6  2  0
  5  7  1  0
  7  8  1  0
  8  9  1  0
  9 10  1  0
 10 11  1  0
 11 12  1  0
 12 13  1  0
 13 14  1  0
 14 15  1  0
 15 16  1  0
 16 17  1  0
  2 18  1  0
 18 19  2  0
 19 20  1  0
 20 21  2  0
 21 22  1  0
 22 23  2  0
 23 24  1  0
 24 25  2  0
 25 26  1  0
 26 27  2  0
 11  7  1  0
 17 13  1  0
 27 18  1  0
 26 21  1  0
  3 28  1  0
  4 29  1  0
  4 30  1  0
  8 31  1  0
  8 32  1  0
  9 33  1  0
  9 34  1  0
 10 35  1  0
 10 36  1  0
 11 37  1  6
 12 38  1  0
 12 39  1  0
 14 40  1  0
 14 41  1  0
 15 42  1  0
 15 43  1  0
 16 44  1  0
 16 45  1  0
 17 46  1  0
 17 47  1  0
 19 48  1  0
 20 49  1  0
 22 50  1  0
 23 51  1  0
 24 52  1  0
 25 53  1  0
M  END
>  <smiles>  (35) 
O=C(NCC(=O)N1CCC[C@H]1CN1CCCC1)c1ccc2ccccc2n1

>  <score_type>  (35) 
oracle

>  <origin>  (35) 
autodockgpu

>  <m_score__min__energy>  (35) 
-8.3499999999999996

>  <m_primary>  (35) 
energy

>  <rmsd>  (35) 
2.916407462972123

>  <m_score__min__rmsd>  (35) 
2.916407462972123

>  <meeko>  (35) 
{"free_energy": -8.23, "intermolecular_energy": -10.02, "internal_energy": -1.36, "cluster_size": 29, "cluster_id": 1, "rank_in_cluster": 6}

>  <energy>  (35) 
-7.96

>  <cluster_rmsd>  (35) 
0.39

>  <cluster>  (35) 
2

$$$$

     RDKit          3D

 53 56  0  0  0  0  0  0  0  0999 V2000
  141.4550   72.0770  221.9430 O   0  0  0  0  0  0  0  0  0  0  0  0
  140.4650   72.1910  222.7180 C   0  0  0  0  0  0  0  0  0  0  0  0
  139.5920   73.2860  222.4580 N   0  0  0  0  0  0  0  0  0  0  0  0
  139.8180   74.2250  221.3640 C   0  0  0  0  0  0  0  0  0  0  0  0
  139.0960   75.4590  221.6620 C   0  0  0  0  0  0  0  0  0  0  0  0
  138.0100   75.5040  222.3330 O   0  0  0  0  0  0  0  0  0  0  0  0
  139.5710   76.7280  221.2100 N   0  0  0  0  0  0  0  0  0  0  0  0
  139.0430   77.5610  220.1370 C   0  0  0  0  0  0  0  0  0  0  0  0
  140.2240   78.4690  219.7710 C   0  0  0  0  0  0  0  0  0  0  0  0
  141.4120   77.7980  220.4880 C   0  0  0  0  0  0  0  0  0  0  0  0
  140.7570   77.4550  221.8010 C   0  0  1  0  0  0  0  0  0  0  0  0
  140.2770   78.5680  222.6320 C   0  0  0  0  0  0  0  0  0  0  0  0
  141.2470   79.3170  223.3230 N   0  0  0  0  0  0  0  0  0  0  0  0
  142.5800   79.4030  222.9120 C   0  0  0  0  0  0  0  0  0  0  0  0
  143.1490   80.5130  223.8330 C   0  0  0  0  0  0  0  0  0  0  0  0
  142.0480   81.5390  223.7160 C   0  0  0  0  0  0  0  0  0  0  0  0
  140.8210   80.7120  223.5050 C   0  0  0  0  0  0  0  0  0  0  0  0
  140.2430   71.2440  223.8110 C   0  0  0  0  0  0  0  0  0  0  0  0
  139.5040   70.0930  223.5170 C   0  0  0  0  0  0  0  0  0  0  0  0
  139.2770   69.1850  224.5420 C   0  0  0  0  0  0  0  0  0  0  0  0
  139.7480   69.3790  225.8170 C   0  0  0  0  0  0  0  0  0  0  0  0
  139.5030   68.4630  226.7980 C   0  0  0  0  0  0  0  0  0  0  0  0
  139.9750   68.6620  228.0690 C   0  0  0  0  0  0  0  0  0  0  0  0
  140.7090   69.8100  228.3510 C   0  0  0  0  0  0  0  0  0  0  0  0
  140.9500   70.7360  227.3330 C   0  0  0  0  0  0  0  0  0  0  0  0
  140.4710   70.5350  226.0450 C   0  0  0  0  0  0  0  0  0  0  0  0
  140.7080   71.4420  225.0570 N   0  0  0  0  0  0  0  0  0  0  0  0
  138.7670   73.3850  223.1010 H   0  0  0  0  0  0  0  0  0  0  0  0
  140.8935   74.4364  221.2716 H   0  0  0  0  0  0  0  0  0  0  0  0
  139.4601   73.7960  220.4164 H   0  0  0  0  0  0  0  0  0  0  0  0
  138.7384   76.9469  219.2767 H   0  0  0  0  0  0  0  0  0  0  0  0
  138.1467   78.1247  220.4351 H   0  0  0  0  0  0  0  0  0  0  0  0
  140.3816   78.4933  218.6826 H   0  0  0  0  0  0  0  0  0  0  0  0
  140.0737   79.5172  220.0689 H   0  0  0  0  0  0  0  0  0  0  0  0
  141.7568   76.8993  219.9555 H   0  0  0  0  0  0  0  0  0  0  0  0
  142.3180   78.4168  220.5671 H   0  0  0  0  0  0  0  0  0  0  0  0
  141.4372   76.9484  222.5015 H   0  0  0  0  0  0  0  0  0  0  0  0
  139.7301   79.2602  221.9749 H   0  0  0  0  0  0  0  0  0  0  0  0
  139.6699   78.0950  223.4179 H   0  0  0  0  0  0  0  0  0  0  0  0
  143.1057   78.4495  223.0684 H   0  0  0  0  0  0  0  0  0  0  0  0
  142.6933   79.6240  221.8404 H   0  0  0  0  0  0  0  0  0  0  0  0
  143.2716   80.1617  224.8682 H   0  0  0  0  0  0  0  0  0  0  0  0
  144.1510   80.8747  223.5587 H   0  0  0  0  0  0  0  0  0  0  0  0
  141.9667   82.1352  224.6369 H   0  0  0  0  0  0  0  0  0  0  0  0
  142.2213   82.2627  222.9059 H   0  0  0  0  0  0  0  0  0  0  0  0
  140.1611   80.7907  224.3815 H   0  0  0  0  0  0  0  0  0  0  0  0
  140.2671   81.0636  222.6221 H   0  0  0  0  0  0  0  0  0  0  0  0
  139.1146   69.9130  222.5041 H   0  0  0  0  0  0  0  0  0  0  0  0
  138.6978   68.2755  224.3246 H   0  0  0  0  0  0  0  0  0  0  0  0
  138.9222   67.5579  226.5669 H   0  0  0  0  0  0  0  0  0  0  0  0
  139.7757   67.9220  228.8581 H   0  0  0  0  0  0  0  0  0  0  0  0
  141.0957   69.9867  229.3655 H   0  0  0  0  0  0  0  0  0  0  0  0
  141.5311   71.6429  227.5562 H   0  0  0  0  0  0  0  0  0  0  0  0
  1  2  2  0
  2  3  1  0
  3  4  1  0
  4  5  1  0
  5  6  2  0
  5  7  1  0
  7  8  1  0
  8  9  1  0
  9 10  1  0
 10 11  1  0
 11 12  1  0
 12 13  1  0
 13 14  1  0
 14 15  1  0
 15 16  1  0
 16 17  1  0
  2 18  1  0
 18 19  2  0
 19 20  1  0
 20 21  2  0
 21 22  1  0
 22 23  2  0
 23 24  1  0
 24 25  2  0
 25 26  1  0
 26 27  2  0
 11  7  1  0
 17 13  1  0
 27 18  1  0
 26 21  1  0
  3 28  1  0
  4 29  1  0
  4 30  1  0
  8 31  1  0
  8 32  1  0
  9 33  1  0
  9 34  1  0
 10 35  1  0
 10 36  1  0
 11 37  1  1
 12 38  1  0
 12 39  1  0
 14 40  1  0
 14 41  1  0
 15 42  1  0
 15 43  1  0
 16 44  1  0
 16 45  1  0
 17 46  1  0
 17 47  1  0
 19 48  1  0
 20 49  1  0
 22 50  1  0
 23 51  1  0
 24 52  1  0
 25 53  1  0
M  END
>  <smiles>  (36) 
O=C(NCC(=O)N1CCC[C@H]1CN1CCCC1)c1ccc2ccccc2n1

>  <score_type>  (36) 
oracle

>  <origin>  (36) 
autodockgpu

>  <m_score__min__energy>  (36) 
-8.3499999999999996

>  <m_primary>  (36) 
energy

>  <rmsd>  (36) 
2.390492708120833

>  <m_score__min__rmsd>  (36) 
2.390492708120833

>  <meeko>  (36) 
{"free_energy": -8.18, "intermolecular_energy": -9.97, "internal_energy": -1.48, "cluster_size": 29, "cluster_id": 1, "rank_in_cluster": 10}

>  <energy>  (36) 
-7.96

>  <cluster_rmsd>  (36) 
0.33

>  <cluster>  (36) 
2

$$$$

     RDKit          3D

 53 56  0  0  0  0  0  0  0  0999 V2000
  138.7350   74.8420  222.3270 O   0  0  0  0  0  0  0  0  0  0  0  0
  139.8380   75.3360  221.9610 C   0  0  0  0  0  0  0  0  0  0  0  0
  139.9130   76.7590  221.9550 N   0  0  0  0  0  0  0  0  0  0  0  0
  138.7900   77.6040  222.3480 C   0  0  0  0  0  0  0  0  0  0  0  0
  139.3220   78.8440  222.9060 C   0  0  0  0  0  0  0  0  0  0  0  0
  138.6240   79.6810  223.5720 O   0  0  0  0  0  0  0  0  0  0  0  0
  140.6920   79.2090  222.7390 N   0  0  0  0  0  0  0  0  0  0  0  0
  141.8630   78.6440  223.3960 C   0  0  0  0  0  0  0  0  0  0  0  0
  142.9250   79.7420  223.2480 C   0  0  0  0  0  0  0  0  0  0  0  0
  142.0990   80.9600  222.7900 C   0  0  0  0  0  0  0  0  0  0  0  0
  141.1800   80.2900  221.8030 C   0  0  1  0  0  0  0  0  0  0  0  0
  141.7910   79.6680  220.6200 C   0  0  0  0  0  0  0  0  0  0  0  0
  141.1960   78.4890  220.1360 N   0  0  0  0  0  0  0  0  0  0  0  0
  140.1500   78.4870  219.2080 C   0  0  0  0  0  0  0  0  0  0  0  0
  140.0360   76.9890  218.8270 C   0  0  0  0  0  0  0  0  0  0  0  0
  141.4950   76.6610  218.6180 C   0  0  0  0  0  0  0  0  0  0  0  0
  142.1980   77.5730  219.5710 C   0  0  0  0  0  0  0  0  0  0  0  0
  140.9610   74.4830  221.5710 C   0  0  0  0  0  0  0  0  0  0  0  0
  140.7530   73.1000  221.6080 C   0  0  0  0  0  0  0  0  0  0  0  0
  141.8070   72.2730  221.2470 C   0  0  0  0  0  0  0  0  0  0  0  0
  143.0310   72.7630  220.8620 C   0  0  0  0  0  0  0  0  0  0  0  0
  144.0440   71.9160  220.5160 C   0  0  0  0  0  0  0  0  0  0  0  0
  145.2630   72.4120  220.1340 C   0  0  0  0  0  0  0  0  0  0  0  0
  145.4590   73.7890  220.1010 C   0  0  0  0  0  0  0  0  0  0  0  0
  144.4110   74.6380  220.4580 C   0  0  0  0  0  0  0  0  0  0  0  0
  143.1750   74.1380  220.8470 C   0  0  0  0  0  0  0  0  0  0  0  0
  142.1550   74.9710  221.1950 N   0  0  0  0  0  0  0  0  0  0  0  0
  140.8280   77.1730  221.6500 H   0  0  0  0  0  0  0  0  0  0  0  0
  138.1681   77.8285  221.4689 H   0  0  0  0  0  0  0  0  0  0  0  0
  138.1706   77.0872  223.0958 H   0  0  0  0  0  0  0  0  0  0  0  0
  141.6568   78.4374  224.4566 H   0  0  0  0  0  0  0  0  0  0  0  0
  142.1767   77.6844  222.9592 H   0  0  0  0  0  0  0  0  0  0  0  0
  143.4250   79.9410  224.2074 H   0  0  0  0  0  0  0  0  0  0  0  0
  143.7309   79.4756  222.5483 H   0  0  0  0  0  0  0  0  0  0  0  0
  141.5431   81.4141  223.6235 H   0  0  0  0  0  0  0  0  0  0  0  0
  142.6881   81.7956  222.3841 H   0  0  0  0  0  0  0  0  0  0  0  0
  140.4730   80.9877  221.3304 H   0  0  0  0  0  0  0  0  0  0  0  0
  141.7677   80.4087  219.8070 H   0  0  0  0  0  0  0  0  0  0  0  0
  142.7973   79.3657  220.9455 H   0  0  0  0  0  0  0  0  0  0  0  0
  139.2169   78.8532  219.6611 H   0  0  0  0  0  0  0  0  0  0  0  0
  140.3307   79.1446  218.3449 H   0  0  0  0  0  0  0  0  0  0  0  0
  139.5958   76.3931  219.6401 H   0  0  0  0  0  0  0  0  0  0  0  0
  139.3852   76.7778  217.9657 H   0  0  0  0  0  0  0  0  0  0  0  0
  141.6995   75.6074  218.8589 H   0  0  0  0  0  0  0  0  0  0  0  0
  141.8197   76.7977  217.5759 H   0  0  0  0  0  0  0  0  0  0  0  0
  142.6648   76.9860  220.3757 H   0  0  0  0  0  0  0  0  0  0  0  0
  142.9868   78.1377  219.0524 H   0  0  0  0  0  0  0  0  0  0  0  0
  139.7831   72.6809  221.9141 H   0  0  0  0  0  0  0  0  0  0  0  0
  141.6566   71.1836  221.2700 H   0  0  0  0  0  0  0  0  0  0  0  0
  143.8808   70.8285  220.5440 H   0  0  0  0  0  0  0  0  0  0  0  0
  146.0786   71.7281  219.8562 H   0  0  0  0  0  0  0  0  0  0  0  0
  146.4309   74.2044  219.7964 H   0  0  0  0  0  0  0  0  0  0  0  0
  144.5670   75.7265  220.4308 H   0  0  0  0  0  0  0  0  0  0  0  0
  1  2  2  0
  2  3  1  0
  3  4  1  0
  4  5  1  0
  5  6  2  0
  5  7  1  0
  7  8  1  0
  8  9  1  0
  9 10  1  0
 10 11  1  0
 11 12  1  0
 12 13  1  0
 13 14  1  0
 14 15  1  0
 15 16  1  0
 16 17  1  0
  2 18  1  0
 18 19  2  0
 19 20  1  0
 20 21  2  0
 21 22  1  0
 22 23  2  0
 23 24  1  0
 24 25  2  0
 25 26  1  0
 26 27  2  0
 11  7  1  0
 17 13  1  0
 27 18  1  0
 26 21  1  0
  3 28  1  0
  4 29  1  0
  4 30  1  0
  8 31  1  0
  8 32  1  0
  9 33  1  0
  9 34  1  0
 10 35  1  0
 10 36  1  0
 11 37  1  6
 12 38  1  0
 12 39  1  0
 14 40  1  0
 14 41  1  0
 15 42  1  0
 15 43  1  0
 16 44  1  0
 16 45  1  0
 17 46  1  0
 17 47  1  0
 19 48  1  0
 20 49  1  0
 22 50  1  0
 23 51  1  0
 24 52  1  0
 25 53  1  0
M  END
>  <smiles>  (37) 
O=C(NCC(=O)N1CCC[C@H]1CN1CCCC1)c1ccc2ccccc2n1

>  <score_type>  (37) 
oracle

>  <origin>  (37) 
autodockgpu

>  <m_score__min__energy>  (37) 
-8.3499999999999996

>  <m_primary>  (37) 
energy

>  <rmsd>  (37) 
6.05995734149848

>  <m_score__min__rmsd>  (37) 
6.05995734149848

>  <meeko>  (37) 
{"free_energy": -5.74, "intermolecular_energy": -7.53, "internal_energy": -3.33, "cluster_size": 1, "cluster_id": 4, "rank_in_cluster": 1}

>  <energy>  (37) 
-7.96

>  <cluster_rmsd>  (37) 
0.31

>  <cluster>  (37) 
2

$$$$

     RDKit          3D

 53 56  0  0  0  0  0  0  0  0999 V2000
  141.4220   72.1160  221.6790 O   0  0  0  0  0  0  0  0  0  0  0  0
  140.4810   72.3620  222.4830 C   0  0  0  0  0  0  0  0  0  0  0  0
  139.6590   73.4800  222.1590 N   0  0  0  0  0  0  0  0  0  0  0  0
  139.8820   74.2970  220.9710 C   0  0  0  0  0  0  0  0  0  0  0  0
  140.5280   75.5410  221.3840 C   0  0  0  0  0  0  0  0  0  0  0  0
  140.3670   76.0790  222.5310 O   0  0  0  0  0  0  0  0  0  0  0  0
  141.4040   76.2510  220.5090 N   0  0  0  0  0  0  0  0  0  0  0  0
  141.5990   77.6910  220.4000 C   0  0  0  0  0  0  0  0  0  0  0  0
  142.2010   77.8690  219.0000 C   0  0  0  0  0  0  0  0  0  0  0  0
  141.9680   76.4930  218.3460 C   0  0  0  0  0  0  0  0  0  0  0  0
  142.3230   75.5970  219.5040 C   0  0  1  0  0  0  0  0  0  0  0  0
  143.7030   75.6480  220.0040 C   0  0  0  0  0  0  0  0  0  0  0  0
  144.4520   74.4590  219.9440 N   0  0  0  0  0  0  0  0  0  0  0  0
  145.4900   74.1650  220.8330 C   0  0  0  0  0  0  0  0  0  0  0  0
  145.8050   72.6810  220.5100 C   0  0  0  0  0  0  0  0  0  0  0  0
  144.4040   72.1220  220.4640 C   0  0  0  0  0  0  0  0  0  0  0  0
  143.5830   73.2740  219.9800 C   0  0  0  0  0  0  0  0  0  0  0  0
  140.2610   71.5350  223.6710 C   0  0  0  0  0  0  0  0  0  0  0  0
  139.5410   70.3490  223.4970 C   0  0  0  0  0  0  0  0  0  0  0  0
  139.3160   69.5540  224.6130 C   0  0  0  0  0  0  0  0  0  0  0  0
  139.7730   69.8920  225.8630 C   0  0  0  0  0  0  0  0  0  0  0  0
  139.5310   69.0840  226.9360 C   0  0  0  0  0  0  0  0  0  0  0  0
  139.9870   69.4270  228.1820 C   0  0  0  0  0  0  0  0  0  0  0  0
  140.7030   70.6100  228.3430 C   0  0  0  0  0  0  0  0  0  0  0  0
  140.9410   71.4230  227.2330 C   0  0  0  0  0  0  0  0  0  0  0  0
  140.4780   71.0770  225.9710 C   0  0  0  0  0  0  0  0  0  0  0  0
  140.7120   71.8740  224.8910 N   0  0  0  0  0  0  0  0  0  0  0  0
  138.8760   73.6880  222.8270 H   0  0  0  0  0  0  0  0  0  0  0  0
  140.5307   73.7576  220.2651 H   0  0  0  0  0  0  0  0  0  0  0  0
  138.9244   74.5138  220.4751 H   0  0  0  0  0  0  0  0  0  0  0  0
  140.6410   78.2246  220.4862 H   0  0  0  0  0  0  0  0  0  0  0  0
  142.2409   78.0967  221.1958 H   0  0  0  0  0  0  0  0  0  0  0  0
  141.6820   78.6640  218.4444 H   0  0  0  0  0  0  0  0  0  0  0  0
  143.2596   78.1673  219.0177 H   0  0  0  0  0  0  0  0  0  0  0  0
  140.9221   76.3609  218.0319 H   0  0  0  0  0  0  0  0  0  0  0  0
  142.5408   76.3122  217.4245 H   0  0  0  0  0  0  0  0  0  0  0  0
  142.2267   74.5275  219.2653 H   0  0  0  0  0  0  0  0  0  0  0  0
  144.2400   76.4075  219.4169 H   0  0  0  0  0  0  0  0  0  0  0  0
  143.6081   75.8699  221.0772 H   0  0  0  0  0  0  0  0  0  0  0  0
  146.3647   74.8057  220.6474 H   0  0  0  0  0  0  0  0  0  0  0  0
  145.2240   74.3356  221.8866 H   0  0  0  0  0  0  0  0  0  0  0  0
  146.3197   72.5735  219.5438 H   0  0  0  0  0  0  0  0  0  0  0  0
  146.4798   72.1841  221.2225 H   0  0  0  0  0  0  0  0  0  0  0  0
  144.3419   71.2743  219.7657 H   0  0  0  0  0  0  0  0  0  0  0  0
  144.0659   71.7341  221.4362 H   0  0  0  0  0  0  0  0  0  0  0  0
  143.1973   73.0617  218.9720 H   0  0  0  0  0  0  0  0  0  0  0  0
  142.7268   73.4446  220.6492 H   0  0  0  0  0  0  0  0  0  0  0  0
  139.1643   70.0548  222.5063 H   0  0  0  0  0  0  0  0  0  0  0  0
  138.7505   68.6184  224.4912 H   0  0  0  0  0  0  0  0  0  0  0  0
  138.9656   68.1503  226.7996 H   0  0  0  0  0  0  0  0  0  0  0  0
  139.7894   68.7747  229.0454 H   0  0  0  0  0  0  0  0  0  0  0  0
  141.0777   70.9015  229.3353 H   0  0  0  0  0  0  0  0  0  0  0  0
  141.5073   72.3573  227.3614 H   0  0  0  0  0  0  0  0  0  0  0  0
  1  2  2  0
  2  3  1  0
  3  4  1  0
  4  5  1  0
  5  6  2  0
  5  7  1  0
  7  8  1  0
  8  9  1  0
  9 10  1  0
 10 11  1  0
 11 12  1  0
 12 13  1  0
 13 14  1  0
 14 15  1  0
 15 16  1  0
 16 17  1  0
  2 18  1  0
 18 19  2  0
 19 20  1  0
 20 21  2  0
 21 22  1  0
 22 23  2  0
 23 24  1  0
 24 25  2  0
 25 26  1  0
 26 27  2  0
 11  7  1  0
 17 13  1  0
 27 18  1  0
 26 21  1  0
  3 28  1  0
  4 29  1  0
  4 30  1  0
  8 31  1  0
  8 32  1  0
  9 33  1  0
  9 34  1  0
 10 35  1  0
 10 36  1  0
 11 37  1  6
 12 38  1  0
 12 39  1  0
 14 40  1  0
 14 41  1  0
 15 42  1  0
 15 43  1  0
 16 44  1  0
 16 45  1  0
 17 46  1  0
 17 47  1  0
 19 48  1  0
 20 49  1  0
 22 50  1  0
 23 51  1  0
 24 52  1  0
 25 53  1  0
M  END
>  <smiles>  (38) 
O=C(NCC(=O)N1CCC[C@H]1CN1CCCC1)c1ccc2ccccc2n1

>  <score_type>  (38) 
oracle

>  <origin>  (38) 
autodockgpu

>  <m_score__min__energy>  (38) 
-8.3499999999999996

>  <m_primary>  (38) 
energy

>  <rmsd>  (38) 
4.225642052539288

>  <m_score__min__rmsd>  (38) 
4.225642052539288

>  <meeko>  (38) 
{"free_energy": -8.08, "intermolecular_energy": -9.87, "internal_energy": -1.65, "cluster_size": 17, "cluster_id": 2, "rank_in_cluster": 1}

>  <energy>  (38) 
-7.95

>  <cluster_rmsd>  (38) 
0.31

>  <cluster>  (38) 
2

$$$$

     RDKit          3D

 53 56  0  0  0  0  0  0  0  0999 V2000
  140.7860   71.4720  221.2990 O   0  0  0  0  0  0  0  0  0  0  0  0
  140.4100   72.0830  222.3380 C   0  0  0  0  0  0  0  0  0  0  0  0
  140.1780   73.4810  222.1910 N   0  0  0  0  0  0  0  0  0  0  0  0
  140.3570   74.1740  220.9190 C   0  0  0  0  0  0  0  0  0  0  0  0
  140.9560   75.4790  221.1890 C   0  0  0  0  0  0  0  0  0  0  0  0
  141.0260   76.0030  222.3520 O   0  0  0  0  0  0  0  0  0  0  0  0
  141.5170   76.2710  220.1420 N   0  0  0  0  0  0  0  0  0  0  0  0
  141.7930   77.7020  220.1410 C   0  0  0  0  0  0  0  0  0  0  0  0
  141.8600   78.0560  218.6500 C   0  0  0  0  0  0  0  0  0  0  0  0
  141.2770   76.8010  217.9710 C   0  0  0  0  0  0  0  0  0  0  0  0
  141.9420   75.7310  218.7960 C   0  0  1  0  0  0  0  0  0  0  0  0
  143.4090   75.6500  218.7490 C   0  0  0  0  0  0  0  0  0  0  0  0
  144.0070   74.5090  219.3150 N   0  0  0  0  0  0  0  0  0  0  0  0
  144.6610   74.5240  220.5500 C   0  0  0  0  0  0  0  0  0  0  0  0
  144.9050   73.0170  220.8230 C   0  0  0  0  0  0  0  0  0  0  0  0
  143.5450   72.4650  220.4730 C   0  0  0  0  0  0  0  0  0  0  0  0
  143.0540   73.3940  219.4100 C   0  0  0  0  0  0  0  0  0  0  0  0
  140.2290   71.3800  223.6090 C   0  0  0  0  0  0  0  0  0  0  0  0
  139.5620   70.1510  223.5680 C   0  0  0  0  0  0  0  0  0  0  0  0
  139.3750   69.4710  224.7640 C   0  0  0  0  0  0  0  0  0  0  0  0
  139.8180   69.9620  225.9680 C   0  0  0  0  0  0  0  0  0  0  0  0
  139.6130   69.2630  227.1220 C   0  0  0  0  0  0  0  0  0  0  0  0
  140.0570   69.7580  228.3210 C   0  0  0  0  0  0  0  0  0  0  0  0
  140.7200   70.9810  228.3500 C   0  0  0  0  0  0  0  0  0  0  0  0
  140.9190   71.6800  227.1590 C   0  0  0  0  0  0  0  0  0  0  0  0
  140.4700   71.1800  225.9430 C   0  0  0  0  0  0  0  0  0  0  0  0
  140.6670   71.8670  224.7830 N   0  0  0  0  0  0  0  0  0  0  0  0
  139.8660   73.9920  223.0530 H   0  0  0  0  0  0  0  0  0  0  0  0
  141.0205   73.5879  220.2661 H   0  0  0  0  0  0  0  0  0  0  0  0
  139.3872   74.2986  220.4151 H   0  0  0  0  0  0  0  0  0  0  0  0
  140.9859   78.2579  220.6407 H   0  0  0  0  0  0  0  0  0  0  0  0
  142.7148   77.9596  220.6831 H   0  0  0  0  0  0  0  0  0  0  0  0
  141.2521   78.9451  218.4267 H   0  0  0  0  0  0  0  0  0  0  0  0
  142.8758   78.3027  218.3075 H   0  0  0  0  0  0  0  0  0  0  0  0
  140.1810   76.7615  218.0564 H   0  0  0  0  0  0  0  0  0  0  0  0
  141.4563   76.7322  216.8879 H   0  0  0  0  0  0  0  0  0  0  0  0
  141.6655   74.7132  218.4836 H   0  0  0  0  0  0  0  0  0  0  0  0
  143.7093   75.6913  217.6916 H   0  0  0  0  0  0  0  0  0  0  0  0
  143.7600   76.4905  219.3657 H   0  0  0  0  0  0  0  0  0  0  0  0
  145.6109   75.0753  220.4894 H   0  0  0  0  0  0  0  0  0  0  0  0
  144.0860   75.0244  221.3431 H   0  0  0  0  0  0  0  0  0  0  0  0
  145.6920   72.6064  220.1733 H   0  0  0  0  0  0  0  0  0  0  0  0
  145.2542   72.7803  221.8389 H   0  0  0  0  0  0  0  0  0  0  0  0
  143.6246   71.4368  220.0904 H   0  0  0  0  0  0  0  0  0  0  0  0
  142.8692   72.4099  221.3392 H   0  0  0  0  0  0  0  0  0  0  0  0
  142.9988   72.8654  218.4469 H   0  0  0  0  0  0  0  0  0  0  0  0
  142.0492   73.7665  219.6583 H   0  0  0  0  0  0  0  0  0  0  0  0
  139.1967   69.7359  222.6170 H   0  0  0  0  0  0  0  0  0  0  0  0
  138.8527   68.5031  224.7468 H   0  0  0  0  0  0  0  0  0  0  0  0
  139.0884   68.2967  227.0900 H   0  0  0  0  0  0  0  0  0  0  0  0
  139.8908   69.1940  229.2507 H   0  0  0  0  0  0  0  0  0  0  0  0
  141.0838   71.3929  229.3029 H   0  0  0  0  0  0  0  0  0  0  0  0
  141.4424   72.6472  227.1833 H   0  0  0  0  0  0  0  0  0  0  0  0
  1  2  2  0
  2  3  1  0
  3  4  1  0
  4  5  1  0
  5  6  2  0
  5  7  1  0
  7  8  1  0
  8  9  1  0
  9 10  1  0
 10 11  1  0
 11 12  1  0
 12 13  1  0
 13 14  1  0
 14 15  1  0
 15 16  1  0
 16 17  1  0
  2 18  1  0
 18 19  2  0
 19 20  1  0
 20 21  2  0
 21 22  1  0
 22 23  2  0
 23 24  1  0
 24 25  2  0
 25 26  1  0
 26 27  2  0
 11  7  1  0
 17 13  1  0
 27 18  1  0
 26 21  1  0
  3 28  1  0
  4 29  1  0
  4 30  1  0
  8 31  1  0
  8 32  1  0
  9 33  1  0
  9 34  1  0
 10 35  1  0
 10 36  1  0
 11 37  1  6
 12 38  1  0
 12 39  1  0
 14 40  1  0
 14 41  1  0
 15 42  1  0
 15 43  1  0
 16 44  1  0
 16 45  1  0
 17 46  1  0
 17 47  1  0
 19 48  1  0
 20 49  1  0
 22 50  1  0
 23 51  1  0
 24 52  1  0
 25 53  1  0
M  END
>  <smiles>  (39) 
O=C(NCC(=O)N1CCC[C@H]1CN1CCCC1)c1ccc2ccccc2n1

>  <score_type>  (39) 
oracle

>  <origin>  (39) 
autodockgpu

>  <m_score__min__energy>  (39) 
-8.3499999999999996

>  <m_primary>  (39) 
energy

>  <rmsd>  (39) 
4.0906606633611675

>  <m_score__min__rmsd>  (39) 
4.0906606633611675

>  <meeko>  (39) 
{"free_energy": -7.23, "intermolecular_energy": -9.02, "internal_energy": -2.14, "cluster_size": 17, "cluster_id": 2, "rank_in_cluster": 16}

>  <energy>  (39) 
-7.89

>  <cluster_rmsd>  (39) 
0.21

>  <cluster>  (39) 
2

$$$$

     RDKit          3D

 53 56  0  0  0  0  0  0  0  0999 V2000
  140.9450   71.6850  221.3850 O   0  0  0  0  0  0  0  0  0  0  0  0
  140.4140   72.1910  222.4120 C   0  0  0  0  0  0  0  0  0  0  0  0
  140.0050   73.5510  222.2970 N   0  0  0  0  0  0  0  0  0  0  0  0
  140.1820   74.3200  221.0690 C   0  0  0  0  0  0  0  0  0  0  0  0
  140.7210   75.6310  221.4230 C   0  0  0  0  0  0  0  0  0  0  0  0
  140.5320   76.1970  222.5520 O   0  0  0  0  0  0  0  0  0  0  0  0
  141.5170   76.3810  220.5040 N   0  0  0  0  0  0  0  0  0  0  0  0
  141.7440   77.8200  220.4730 C   0  0  0  0  0  0  0  0  0  0  0  0
  142.1930   78.0820  219.0290 C   0  0  0  0  0  0  0  0  0  0  0  0
  141.8450   76.7620  218.3140 C   0  0  0  0  0  0  0  0  0  0  0  0
  142.2970   75.7780  219.3600 C   0  0  1  0  0  0  0  0  0  0  0  0
  143.7260   75.7600  219.7040 C   0  0  0  0  0  0  0  0  0  0  0  0
  144.3260   74.5010  219.8860 N   0  0  0  0  0  0  0  0  0  0  0  0
  145.3180   74.2600  220.8410 C   0  0  0  0  0  0  0  0  0  0  0  0
  145.4530   72.7150  220.8090 C   0  0  0  0  0  0  0  0  0  0  0  0
  143.9950   72.3260  220.8320 C   0  0  0  0  0  0  0  0  0  0  0  0
  143.3210   73.4540  220.1200 C   0  0  0  0  0  0  0  0  0  0  0  0
  140.2370   71.4130  223.6390 C   0  0  0  0  0  0  0  0  0  0  0  0
  139.5720   70.1880  223.5250 C   0  0  0  0  0  0  0  0  0  0  0  0
  139.3880   69.4360  224.6770 C   0  0  0  0  0  0  0  0  0  0  0  0
  139.8330   69.8540  225.9080 C   0  0  0  0  0  0  0  0  0  0  0  0
  139.6320   69.0870  227.0190 C   0  0  0  0  0  0  0  0  0  0  0  0
  140.0770   69.5090  228.2450 C   0  0  0  0  0  0  0  0  0  0  0  0
  140.7370   70.7290  228.3460 C   0  0  0  0  0  0  0  0  0  0  0  0
  140.9330   71.4990  227.1980 C   0  0  0  0  0  0  0  0  0  0  0  0
  140.4820   71.0730  225.9560 C   0  0  0  0  0  0  0  0  0  0  0  0
  140.6750   71.8290  224.8390 N   0  0  0  0  0  0  0  0  0  0  0  0
  139.5640   73.9760  223.1500 H   0  0  0  0  0  0  0  0  0  0  0  0
  140.8825   73.7978  220.4007 H   0  0  0  0  0  0  0  0  0  0  0  0
  139.2186   74.4335  220.5504 H   0  0  0  0  0  0  0  0  0  0  0  0
  140.8188   78.3688  220.7026 H   0  0  0  0  0  0  0  0  0  0  0  0
  142.4819   78.1530  221.2177 H   0  0  0  0  0  0  0  0  0  0  0  0
  141.6415   78.9267  218.5904 H   0  0  0  0  0  0  0  0  0  0  0  0
  143.2561   78.3524  218.9475 H   0  0  0  0  0  0  0  0  0  0  0  0
  140.7670   76.6780  218.1118 H   0  0  0  0  0  0  0  0  0  0  0  0
  142.3061   76.6334  217.3236 H   0  0  0  0  0  0  0  0  0  0  0  0
  142.1406   74.7309  219.0614 H   0  0  0  0  0  0  0  0  0  0  0  0
  144.2680   76.2713  218.8948 H   0  0  0  0  0  0  0  0  0  0  0  0
  143.7879   76.2492  220.6873 H   0  0  0  0  0  0  0  0  0  0  0  0
  146.2641   74.7468  220.5619 H   0  0  0  0  0  0  0  0  0  0  0  0
  145.0710   74.6563  221.8369 H   0  0  0  0  0  0  0  0  0  0  0  0
  145.9542   72.3676  219.8935 H   0  0  0  0  0  0  0  0  0  0  0  0
  146.0607   72.2854  221.6190 H   0  0  0  0  0  0  0  0  0  0  0  0
  143.8335   71.3750  220.3033 H   0  0  0  0  0  0  0  0  0  0  0  0
  143.6092   72.1710  221.8504 H   0  0  0  0  0  0  0  0  0  0  0  0
  142.9165   73.1020  219.1595 H   0  0  0  0  0  0  0  0  0  0  0  0
  142.4892   73.8472  220.7230 H   0  0  0  0  0  0  0  0  0  0  0  0
  139.2056   69.8310  222.5512 H   0  0  0  0  0  0  0  0  0  0  0  0
  138.8669   68.4702  224.6018 H   0  0  0  0  0  0  0  0  0  0  0  0
  139.1092   68.1233  226.9299 H   0  0  0  0  0  0  0  0  0  0  0  0
  139.9138   68.8894  229.1392 H   0  0  0  0  0  0  0  0  0  0  0  0
  141.1012   71.0840  229.3213 H   0  0  0  0  0  0  0  0  0  0  0  0
  141.4557   72.4634  227.2793 H   0  0  0  0  0  0  0  0  0  0  0  0
  1  2  2  0
  2  3  1  0
  3  4  1  0
  4  5  1  0
  5  6  2  0
  5  7  1  0
  7  8  1  0
  8  9  1  0
  9 10  1  0
 10 11  1  0
 11 12  1  0
 12 13  1  0
 13 14  1  0
 14 15  1  0
 15 16  1  0
 16 17  1  0
  2 18  1  0
 18 19  2  0
 19 20  1  0
 20 21  2  0
 21 22  1  0
 22 23  2  0
 23 24  1  0
 24 25  2  0
 25 26  1  0
 26 27  2  0
 11  7  1  0
 17 13  1  0
 27 18  1  0
 26 21  1  0
  3 28  1  0
  4 29  1  0
  4 30  1  0
  8 31  1  0
  8 32  1  0
  9 33  1  0
  9 34  1  0
 10 35  1  0
 10 36  1  0
 11 37  1  6
 12 38  1  0
 12 39  1  0
 14 40  1  0
 14 41  1  0
 15 42  1  0
 15 43  1  0
 16 44  1  0
 16 45  1  0
 17 46  1  0
 17 47  1  0
 19 48  1  0
 20 49  1  0
 22 50  1  0
 23 51  1  0
 24 52  1  0
 25 53  1  0
M  END
>  <smiles>  (40) 
O=C(NCC(=O)N1CCC[C@H]1CN1CCCC1)c1ccc2ccccc2n1

>  <score_type>  (40) 
oracle

>  <origin>  (40) 
autodockgpu

>  <m_score__min__energy>  (40) 
-8.3499999999999996

>  <m_primary>  (40) 
energy

>  <rmsd>  (40) 
4.176680537928638

>  <m_score__min__rmsd>  (40) 
4.176680537928638

>  <meeko>  (40) 
{"free_energy": -7.96, "intermolecular_energy": -9.75, "internal_energy": -1.94, "cluster_size": 17, "cluster_id": 2, "rank_in_cluster": 8}

>  <energy>  (40) 
-7.88

>  <cluster_rmsd>  (40) 
0.33

>  <cluster>  (40) 
2

$$$$

     RDKit          3D

 53 56  0  0  0  0  0  0  0  0999 V2000
  140.7610   71.5780  221.3170 O   0  0  0  0  0  0  0  0  0  0  0  0
  140.3300   72.1190  222.3720 C   0  0  0  0  0  0  0  0  0  0  0  0
  139.9410   73.4850  222.2600 N   0  0  0  0  0  0  0  0  0  0  0  0
  140.0280   74.2230  221.0040 C   0  0  0  0  0  0  0  0  0  0  0  0
  140.5580   75.5540  221.2890 C   0  0  0  0  0  0  0  0  0  0  0  0
  140.3600   76.1780  222.3860 O   0  0  0  0  0  0  0  0  0  0  0  0
  141.3530   76.2590  220.3360 N   0  0  0  0  0  0  0  0  0  0  0  0
  141.9390   77.5880  220.4550 C   0  0  0  0  0  0  0  0  0  0  0  0
  142.1880   78.0040  218.9990 C   0  0  0  0  0  0  0  0  0  0  0  0
  141.3920   76.9550  218.1990 C   0  0  0  0  0  0  0  0  0  0  0  0
  141.7430   75.7170  218.9810 C   0  0  1  0  0  0  0  0  0  0  0  0
  143.1550   75.3100  219.0100 C   0  0  0  0  0  0  0  0  0  0  0  0
  143.5120   74.2960  219.9180 N   0  0  0  0  0  0  0  0  0  0  0  0
  143.4730   72.9360  219.5970 C   0  0  0  0  0  0  0  0  0  0  0  0
  144.1800   72.2800  220.8110 C   0  0  0  0  0  0  0  0  0  0  0  0
  145.3750   73.1930  220.9420 C   0  0  0  0  0  0  0  0  0  0  0  0
  144.8600   74.5120  220.4630 C   0  0  0  0  0  0  0  0  0  0  0  0
  140.2420   71.3720  223.6280 C   0  0  0  0  0  0  0  0  0  0  0  0
  139.6360   70.1130  223.5780 C   0  0  0  0  0  0  0  0  0  0  0  0
  139.5370   69.3900  224.7590 C   0  0  0  0  0  0  0  0  0  0  0  0
  140.0090   69.8680  225.9580 C   0  0  0  0  0  0  0  0  0  0  0  0
  139.8920   69.1270  227.0980 C   0  0  0  0  0  0  0  0  0  0  0  0
  140.3630   69.6100  228.2910 C   0  0  0  0  0  0  0  0  0  0  0  0
  140.9630   70.8650  228.3290 C   0  0  0  0  0  0  0  0  0  0  0  0
  141.0740   71.6070  227.1520 C   0  0  0  0  0  0  0  0  0  0  0  0
  140.5960   71.1190  225.9420 C   0  0  0  0  0  0  0  0  0  0  0  0
  140.7060   71.8480  224.7960 N   0  0  0  0  0  0  0  0  0  0  0  0
  139.5830   73.9390  223.1370 H   0  0  0  0  0  0  0  0  0  0  0  0
  140.6989   73.6966  220.3092 H   0  0  0  0  0  0  0  0  0  0  0  0
  139.0330   74.3026  220.5419 H   0  0  0  0  0  0  0  0  0  0  0  0
  141.2422   78.2818  220.9481 H   0  0  0  0  0  0  0  0  0  0  0  0
  142.8542   77.5986  221.0652 H   0  0  0  0  0  0  0  0  0  0  0  0
  141.8091   79.0187  218.8072 H   0  0  0  0  0  0  0  0  0  0  0  0
  143.2549   78.0347  218.7329 H   0  0  0  0  0  0  0  0  0  0  0  0
  140.3112   77.1589  218.2189 H   0  0  0  0  0  0  0  0  0  0  0  0
  141.6285   76.9103  217.1257 H   0  0  0  0  0  0  0  0  0  0  0  0
  141.2708   74.8075  218.5812 H   0  0  0  0  0  0  0  0  0  0  0  0
  143.4195   74.9596  218.0014 H   0  0  0  0  0  0  0  0  0  0  0  0
  143.7010   76.2020  219.3510 H   0  0  0  0  0  0  0  0  0  0  0  0
  142.4365   72.5803  219.5016 H   0  0  0  0  0  0  0  0  0  0  0  0
  143.9498   72.7005  218.6341 H   0  0  0  0  0  0  0  0  0  0  0  0
  143.5489   72.3015  221.7117 H   0  0  0  0  0  0  0  0  0  0  0  0
  144.4222   71.2143  220.6862 H   0  0  0  0  0  0  0  0  0  0  0  0
  145.7079   73.2573  221.9884 H   0  0  0  0  0  0  0  0  0  0  0  0
  146.2477   72.8411  220.3723 H   0  0  0  0  0  0  0  0  0  0  0  0
  144.8155   75.2232  221.3010 H   0  0  0  0  0  0  0  0  0  0  0  0
  145.5249   74.9272  219.6913 H   0  0  0  0  0  0  0  0  0  0  0  0
  139.2493   69.7076  222.6314 H   0  0  0  0  0  0  0  0  0  0  0  0
  139.0631   68.3976  224.7342 H   0  0  0  0  0  0  0  0  0  0  0  0
  139.4166   68.1358  227.0592 H   0  0  0  0  0  0  0  0  0  0  0  0
  140.2677   69.0117  229.2091 H   0  0  0  0  0  0  0  0  0  0  0  0
  141.3462   71.2685  229.2778 H   0  0  0  0  0  0  0  0  0  0  0  0
  141.5496   72.5984  227.1829 H   0  0  0  0  0  0  0  0  0  0  0  0
  1  2  2  0
  2  3  1  0
  3  4  1  0
  4  5  1  0
  5  6  2  0
  5  7  1  0
  7  8  1  0
  8  9  1  0
  9 10  1  0
 10 11  1  0
 11 12  1  0
 12 13  1  0
 13 14  1  0
 14 15  1  0
 15 16  1  0
 16 17  1  0
  2 18  1  0
 18 19  2  0
 19 20  1  0
 20 21  2  0
 21 22  1  0
 22 23  2  0
 23 24  1  0
 24 25  2  0
 25 26  1  0
 26 27  2  0
 11  7  1  0
 17 13  1  0
 27 18  1  0
 26 21  1  0
  3 28  1  0
  4 29  1  0
  4 30  1  0
  8 31  1  0
  8 32  1  0
  9 33  1  0
  9 34  1  0
 10 35  1  0
 10 36  1  0
 11 37  1  6
 12 38  1  0
 12 39  1  0
 14 40  1  0
 14 41  1  0
 15 42  1  0
 15 43  1  0
 16 44  1  0
 16 45  1  0
 17 46  1  0
 17 47  1  0
 19 48  1  0
 20 49  1  0
 22 50  1  0
 23 51  1  0
 24 52  1  0
 25 53  1  0
M  END
>  <smiles>  (41) 
O=C(NCC(=O)N1CCC[C@H]1CN1CCCC1)c1ccc2ccccc2n1

>  <score_type>  (41) 
oracle

>  <origin>  (41) 
autodockgpu

>  <m_score__min__energy>  (41) 
-8.3499999999999996

>  <m_primary>  (41) 
energy

>  <rmsd>  (41) 
4.044185642703578

>  <m_score__min__rmsd>  (41) 
4.044185642703578

>  <meeko>  (41) 
{"free_energy": -7.75, "intermolecular_energy": -9.54, "internal_energy": -2.02, "cluster_size": 17, "cluster_id": 2, "rank_in_cluster": 13}

>  <energy>  (41) 
-7.86

>  <cluster_rmsd>  (41) 
0.4

>  <cluster>  (41) 
2

$$$$

     RDKit          3D

 53 56  0  0  0  0  0  0  0  0999 V2000
  141.0310   71.7800  221.4320 O   0  0  0  0  0  0  0  0  0  0  0  0
  140.4010   72.2410  222.4240 C   0  0  0  0  0  0  0  0  0  0  0  0
  139.8700   73.5540  222.2700 N   0  0  0  0  0  0  0  0  0  0  0  0
  140.0350   74.3270  221.0440 C   0  0  0  0  0  0  0  0  0  0  0  0
  140.4240   75.6870  221.4070 C   0  0  0  0  0  0  0  0  0  0  0  0
  140.0140   76.2870  222.4570 O   0  0  0  0  0  0  0  0  0  0  0  0
  141.3110   76.4510  220.5900 N   0  0  0  0  0  0  0  0  0  0  0  0
  141.6910   77.8500  220.7330 C   0  0  0  0  0  0  0  0  0  0  0  0
  142.1910   78.2340  219.3340 C   0  0  0  0  0  0  0  0  0  0  0  0
  141.7170   77.0530  218.4630 C   0  0  0  0  0  0  0  0  0  0  0  0
  142.0430   75.9080  219.3850 C   0  0  1  0  0  0  0  0  0  0  0  0
  143.4560   75.6960  219.7310 C   0  0  0  0  0  0  0  0  0  0  0  0
  143.7810   74.4980  220.3940 N   0  0  0  0  0  0  0  0  0  0  0  0
  143.3850   73.2390  219.9320 C   0  0  0  0  0  0  0  0  0  0  0  0
  144.1860   72.2750  220.8450 C   0  0  0  0  0  0  0  0  0  0  0  0
  145.5460   72.9270  220.7830 C   0  0  0  0  0  0  0  0  0  0  0  0
  145.2300   74.3780  220.6090 C   0  0  0  0  0  0  0  0  0  0  0  0
  140.2370   71.4590  223.6510 C   0  0  0  0  0  0  0  0  0  0  0  0
  139.5530   70.2440  223.5440 C   0  0  0  0  0  0  0  0  0  0  0  0
  139.3810   69.4890  224.6960 C   0  0  0  0  0  0  0  0  0  0  0  0
  139.8540   69.8950  225.9210 C   0  0  0  0  0  0  0  0  0  0  0  0
  139.6640   69.1250  227.0310 C   0  0  0  0  0  0  0  0  0  0  0  0
  140.1370   69.5360  228.2500 C   0  0  0  0  0  0  0  0  0  0  0  0
  140.8160   70.7470  228.3450 C   0  0  0  0  0  0  0  0  0  0  0  0
  141.0010   71.5190  227.1970 C   0  0  0  0  0  0  0  0  0  0  0  0
  140.5210   71.1050  225.9610 C   0  0  0  0  0  0  0  0  0  0  0  0
  140.7030   71.8640  224.8450 N   0  0  0  0  0  0  0  0  0  0  0  0
  139.3460   73.9410  223.0940 H   0  0  0  0  0  0  0  0  0  0  0  0
  140.8171   73.8708  220.4193 H   0  0  0  0  0  0  0  0  0  0  0  0
  139.0931   74.3415  220.4760 H   0  0  0  0  0  0  0  0  0  0  0  0
  140.8257   78.4642  221.0229 H   0  0  0  0  0  0  0  0  0  0  0  0
  142.4476   78.0091  221.5155 H   0  0  0  0  0  0  0  0  0  0  0  0
  141.7401   79.1795  218.9982 H   0  0  0  0  0  0  0  0  0  0  0  0
  143.2780   78.3971  219.2906 H   0  0  0  0  0  0  0  0  0  0  0  0
  140.6400   77.1104  218.2469 H   0  0  0  0  0  0  0  0  0  0  0  0
  142.1795   76.9945  217.4667 H   0  0  0  0  0  0  0  0  0  0  0  0
  141.7814   74.9269  218.9620 H   0  0  0  0  0  0  0  0  0  0  0  0
  144.0340   75.7243  218.7956 H   0  0  0  0  0  0  0  0  0  0  0  0
  143.6955   76.4932  220.4501 H   0  0  0  0  0  0  0  0  0  0  0  0
  142.3016   73.0938  220.0551 H   0  0  0  0  0  0  0  0  0  0  0  0
  143.5775   73.0865  218.8598 H   0  0  0  0  0  0  0  0  0  0  0  0
  143.7876   72.2579  221.8702 H   0  0  0  0  0  0  0  0  0  0  0  0
  144.1634   71.2190  220.5377 H   0  0  0  0  0  0  0  0  0  0  0  0
  146.1069   72.7556  221.7136 H   0  0  0  0  0  0  0  0  0  0  0  0
  146.1768   72.5262  219.9759 H   0  0  0  0  0  0  0  0  0  0  0  0
  145.5222   74.9357  221.5110 H   0  0  0  0  0  0  0  0  0  0  0  0
  145.7818   74.7920  219.7522 H   0  0  0  0  0  0  0  0  0  0  0  0
  139.1629   69.8970  222.5758 H   0  0  0  0  0  0  0  0  0  0  0  0
  138.8463   68.5302  224.6260 H   0  0  0  0  0  0  0  0  0  0  0  0
  139.1278   68.1682  226.9472 H   0  0  0  0  0  0  0  0  0  0  0  0
  139.9814   68.9148  229.1444 H   0  0  0  0  0  0  0  0  0  0  0  0
  141.2030   71.0923  229.3150 H   0  0  0  0  0  0  0  0  0  0  0  0
  141.5385   72.4758  227.2727 H   0  0  0  0  0  0  0  0  0  0  0  0
  1  2  2  0
  2  3  1  0
  3  4  1  0
  4  5  1  0
  5  6  2  0
  5  7  1  0
  7  8  1  0
  8  9  1  0
  9 10  1  0
 10 11  1  0
 11 12  1  0
 12 13  1  0
 13 14  1  0
 14 15  1  0
 15 16  1  0
 16 17  1  0
  2 18  1  0
 18 19  2  0
 19 20  1  0
 20 21  2  0
 21 22  1  0
 22 23  2  0
 23 24  1  0
 24 25  2  0
 25 26  1  0
 26 27  2  0
 11  7  1  0
 17 13  1  0
 27 18  1  0
 26 21  1  0
  3 28  1  0
  4 29  1  0
  4 30  1  0
  8 31  1  0
  8 32  1  0
  9 33  1  0
  9 34  1  0
 10 35  1  0
 10 36  1  0
 11 37  1  6
 12 38  1  0
 12 39  1  0
 14 40  1  0
 14 41  1  0
 15 42  1  0
 15 43  1  0
 16 44  1  0
 16 45  1  0
 17 46  1  0
 17 47  1  0
 19 48  1  0
 20 49  1  0
 22 50  1  0
 23 51  1  0
 24 52  1  0
 25 53  1  0
M  END
>  <smiles>  (42) 
O=C(NCC(=O)N1CCC[C@H]1CN1CCCC1)c1ccc2ccccc2n1

>  <score_type>  (42) 
oracle

>  <origin>  (42) 
autodockgpu

>  <m_score__min__energy>  (42) 
-8.3499999999999996

>  <m_primary>  (42) 
energy

>  <rmsd>  (42) 
4.110450959012941

>  <m_score__min__rmsd>  (42) 
4.110450959012941

>  <meeko>  (42) 
{"free_energy": -7.99, "intermolecular_energy": -9.78, "internal_energy": -1.9, "cluster_size": 17, "cluster_id": 2, "rank_in_cluster": 5}

>  <energy>  (42) 
-7.75

>  <cluster_rmsd>  (42) 
0.52

>  <cluster>  (42) 
2

$$$$

     RDKit          3D

 53 56  0  0  0  0  0  0  0  0999 V2000
  140.5970   71.4300  221.3080 O   0  0  0  0  0  0  0  0  0  0  0  0
  140.2260   72.0100  222.3650 C   0  0  0  0  0  0  0  0  0  0  0  0
  139.8870   73.3880  222.2350 N   0  0  0  0  0  0  0  0  0  0  0  0
  139.9590   74.0940  220.9600 C   0  0  0  0  0  0  0  0  0  0  0  0
  140.3830   75.4670  221.2200 C   0  0  0  0  0  0  0  0  0  0  0  0
  140.3180   76.0280  222.3660 O   0  0  0  0  0  0  0  0  0  0  0  0
  140.9140   76.2920  220.1820 N   0  0  0  0  0  0  0  0  0  0  0  0
  140.5280   76.3350  218.7770 C   0  0  0  0  0  0  0  0  0  0  0  0
  141.7470   76.9630  218.0880 C   0  0  0  0  0  0  0  0  0  0  0  0
  142.8320   76.9000  219.1810 C   0  0  0  0  0  0  0  0  0  0  0  0
  142.0140   77.3090  220.3770 C   0  0  1  0  0  0  0  0  0  0  0  0
  141.4320   78.6580  220.3730 C   0  0  0  0  0  0  0  0  0  0  0  0
  141.3210   79.3130  221.6130 N   0  0  0  0  0  0  0  0  0  0  0  0
  141.5330   78.6700  222.8360 C   0  0  0  0  0  0  0  0  0  0  0  0
  141.5400   79.8500  223.8430 C   0  0  0  0  0  0  0  0  0  0  0  0
  142.4360   80.8160  223.1070 C   0  0  0  0  0  0  0  0  0  0  0  0
  142.1720   80.5100  221.6680 C   0  0  0  0  0  0  0  0  0  0  0  0
  140.1530   71.2940  223.6400 C   0  0  0  0  0  0  0  0  0  0  0  0
  139.5500   70.0320  223.6280 C   0  0  0  0  0  0  0  0  0  0  0  0
  139.4660   69.3390  224.8280 C   0  0  0  0  0  0  0  0  0  0  0  0
  139.9490   69.8480  226.0090 C   0  0  0  0  0  0  0  0  0  0  0  0
  139.8460   69.1350  227.1680 C   0  0  0  0  0  0  0  0  0  0  0  0
  140.3300   69.6480  228.3440 C   0  0  0  0  0  0  0  0  0  0  0  0
  140.9280   70.9040  228.3440 C   0  0  0  0  0  0  0  0  0  0  0  0
  141.0240   71.6170  227.1470 C   0  0  0  0  0  0  0  0  0  0  0  0
  140.5340   71.0990  225.9560 C   0  0  0  0  0  0  0  0  0  0  0  0
  140.6300   71.7990  224.7910 N   0  0  0  0  0  0  0  0  0  0  0  0
  139.5780   73.8740  223.1130 H   0  0  0  0  0  0  0  0  0  0  0  0
  140.6869   73.5983  220.3009 H   0  0  0  0  0  0  0  0  0  0  0  0
  138.9757   74.0877  220.4670 H   0  0  0  0  0  0  0  0  0  0  0  0
  140.3366   75.3229  218.3910 H   0  0  0  0  0  0  0  0  0  0  0  0
  139.6007   76.9011  218.6052 H   0  0  0  0  0  0  0  0  0  0  0  0
  142.0436   76.3821  217.2022 H   0  0  0  0  0  0  0  0  0  0  0  0
  141.5602   77.9827  217.7202 H   0  0  0  0  0  0  0  0  0  0  0  0
  143.2415   75.8852  219.2930 H   0  0  0  0  0  0  0  0  0  0  0  0
  143.7208   77.5196  218.9909 H   0  0  0  0  0  0  0  0  0  0  0  0
  142.5984   77.3358  221.3086 H   0  0  0  0  0  0  0  0  0  0  0  0
  142.0570   79.2863  219.7214 H   0  0  0  0  0  0  0  0  0  0  0  0
  140.3956   78.5191  220.0314 H   0  0  0  0  0  0  0  0  0  0  0  0
  140.7204   77.9629  223.0588 H   0  0  0  0  0  0  0  0  0  0  0  0
  142.4541   78.0692  222.8601 H   0  0  0  0  0  0  0  0  0  0  0  0
  140.5319   80.2630  223.9952 H   0  0  0  0  0  0  0  0  0  0  0  0
  141.8730   79.5907  224.8588 H   0  0  0  0  0  0  0  0  0  0  0  0
  142.1697   81.8569  223.3429 H   0  0  0  0  0  0  0  0  0  0  0  0
  143.4963   80.7097  223.3800 H   0  0  0  0  0  0  0  0  0  0  0  0
  141.6565   81.3580  221.1934 H   0  0  0  0  0  0  0  0  0  0  0  0
  143.1167   80.3352  221.1323 H   0  0  0  0  0  0  0  0  0  0  0  0
  139.1544   69.6017  222.6961 H   0  0  0  0  0  0  0  0  0  0  0  0
  138.9950   68.3450  224.8334 H   0  0  0  0  0  0  0  0  0  0  0  0
  139.3717   68.1425  227.1588 H   0  0  0  0  0  0  0  0  0  0  0  0
  140.2463   69.0724  229.2776 H   0  0  0  0  0  0  0  0  0  0  0  0
  141.3215   71.3315  229.2780 H   0  0  0  0  0  0  0  0  0  0  0  0
  141.4978   72.6097  227.1480 H   0  0  0  0  0  0  0  0  0  0  0  0
  1  2  2  0
  2  3  1  0
  3  4  1  0
  4  5  1  0
  5  6  2  0
  5  7  1  0
  7  8  1  0
  8  9  1  0
  9 10  1  0
 10 11  1  0
 11 12  1  0
 12 13  1  0
 13 14  1  0
 14 15  1  0
 15 16  1  0
 16 17  1  0
  2 18  1  0
 18 19  2  0
 19 20  1  0
 20 21  2  0
 21 22  1  0
 22 23  2  0
 23 24  1  0
 24 25  2  0
 25 26  1  0
 26 27  2  0
 11  7  1  0
 17 13  1  0
 27 18  1  0
 26 21  1  0
  3 28  1  0
  4 29  1  0
  4 30  1  0
  8 31  1  0
  8 32  1  0
  9 33  1  0
  9 34  1  0
 10 35  1  0
 10 36  1  0
 11 37  1  1
 12 38  1  0
 12 39  1  0
 14 40  1  0
 14 41  1  0
 15 42  1  0
 15 43  1  0
 16 44  1  0
 16 45  1  0
 17 46  1  0
 17 47  1  0
 19 48  1  0
 20 49  1  0
 22 50  1  0
 23 51  1  0
 24 52  1  0
 25 53  1  0
M  END
>  <smiles>  (43) 
O=C(NCC(=O)N1CCC[C@H]1CN1CCCC1)c1ccc2ccccc2n1

>  <score_type>  (43) 
oracle

>  <origin>  (43) 
autodockgpu

>  <m_score__min__energy>  (43) 
-8.3499999999999996

>  <m_primary>  (43) 
energy

>  <rmsd>  (43) 
1.7744202130906812

>  <m_score__min__rmsd>  (43) 
1.7744202130906812

>  <meeko>  (43) 
{"free_energy": -8.26, "intermolecular_energy": -10.05, "internal_energy": -1.68, "cluster_size": 29, "cluster_id": 1, "rank_in_cluster": 3}

>  <energy>  (43) 
-7.59

>  <cluster_rmsd>  (43) 
0.58

>  <cluster>  (43) 
2

$$$$

     RDKit          3D

 53 56  0  0  0  0  0  0  0  0999 V2000
  140.6350   71.4470  221.3100 O   0  0  0  0  0  0  0  0  0  0  0  0
  140.2450   72.0120  222.3690 C   0  0  0  0  0  0  0  0  0  0  0  0
  139.8960   73.3880  222.2510 N   0  0  0  0  0  0  0  0  0  0  0  0
  139.9770   74.1100  220.9860 C   0  0  0  0  0  0  0  0  0  0  0  0
  140.2700   75.5120  221.2750 C   0  0  0  0  0  0  0  0  0  0  0  0
  140.2370   76.0180  222.4470 O   0  0  0  0  0  0  0  0  0  0  0  0
  140.6240   76.4280  220.2380 N   0  0  0  0  0  0  0  0  0  0  0  0
  139.8780   76.7560  219.0310 C   0  0  0  0  0  0  0  0  0  0  0  0
  140.9460   77.3360  218.0930 C   0  0  0  0  0  0  0  0  0  0  0  0
  142.2640   76.9540  218.7950 C   0  0  0  0  0  0  0  0  0  0  0  0
  141.8890   77.2530  220.2230 C   0  0  1  0  0  0  0  0  0  0  0  0
  141.5640   78.6450  220.5630 C   0  0  0  0  0  0  0  0  0  0  0  0
  142.1170   79.1610  221.7490 N   0  0  0  0  0  0  0  0  0  0  0  0
  142.1930   80.5300  222.0230 C   0  0  0  0  0  0  0  0  0  0  0  0
  142.6320   80.5550  223.5100 C   0  0  0  0  0  0  0  0  0  0  0  0
  141.6880   79.5230  224.0780 C   0  0  0  0  0  0  0  0  0  0  0  0
  141.4780   78.5780  222.9380 C   0  0  0  0  0  0  0  0  0  0  0  0
  140.1640   71.2800  223.6350 C   0  0  0  0  0  0  0  0  0  0  0  0
  139.5520   70.0230  223.6050 C   0  0  0  0  0  0  0  0  0  0  0  0
  139.4590   69.3150  224.7950 C   0  0  0  0  0  0  0  0  0  0  0  0
  139.9430   69.8050  225.9840 C   0  0  0  0  0  0  0  0  0  0  0  0
  139.8310   69.0790  227.1340 C   0  0  0  0  0  0  0  0  0  0  0  0
  140.3150   69.5730  228.3170 C   0  0  0  0  0  0  0  0  0  0  0  0
  140.9220   70.8250  228.3350 C   0  0  0  0  0  0  0  0  0  0  0  0
  141.0270   71.5530  227.1480 C   0  0  0  0  0  0  0  0  0  0  0  0
  140.5360   71.0530  225.9490 C   0  0  0  0  0  0  0  0  0  0  0  0
  140.6400   71.7680  224.7930 N   0  0  0  0  0  0  0  0  0  0  0  0
  139.5730   73.8620  223.1310 H   0  0  0  0  0  0  0  0  0  0  0  0
  140.7782   73.6831  220.3649 H   0  0  0  0  0  0  0  0  0  0  0  0
  139.0253   74.0266  220.4408 H   0  0  0  0  0  0  0  0  0  0  0  0
  139.4200   75.8557  218.5956 H   0  0  0  0  0  0  0  0  0  0  0  0
  139.0485   77.4539  219.2176 H   0  0  0  0  0  0  0  0  0  0  0  0
  140.8838   76.8815  217.0932 H   0  0  0  0  0  0  0  0  0  0  0  0
  140.8388   78.4184  217.9288 H   0  0  0  0  0  0  0  0  0  0  0  0
  142.5116   75.8920  218.6507 H   0  0  0  0  0  0  0  0  0  0  0  0
  143.1568   77.4814  218.4279 H   0  0  0  0  0  0  0  0  0  0  0  0
  142.7035   77.0492  220.9337 H   0  0  0  0  0  0  0  0  0  0  0  0
  141.9104   79.2783  219.7330 H   0  0  0  0  0  0  0  0  0  0  0  0
  140.4768   78.6506  220.7301 H   0  0  0  0  0  0  0  0  0  0  0  0
  142.9381   81.0225  221.3809 H   0  0  0  0  0  0  0  0  0  0  0  0
  141.2506   81.0659  221.8366 H   0  0  0  0  0  0  0  0  0  0  0  0
  143.6839   80.2565  223.6304 H   0  0  0  0  0  0  0  0  0  0  0  0
  142.5834   81.5429  223.9914 H   0  0  0  0  0  0  0  0  0  0  0  0
  142.1402   79.0074  224.9381 H   0  0  0  0  0  0  0  0  0  0  0  0
  140.7499   79.9595  224.4514 H   0  0  0  0  0  0  0  0  0  0  0  0
  141.9352   77.6046  223.1694 H   0  0  0  0  0  0  0  0  0  0  0  0
  140.4037   78.4224  222.7601 H   0  0  0  0  0  0  0  0  0  0  0  0
  139.1562   69.6079  222.6664 H   0  0  0  0  0  0  0  0  0  0  0  0
  138.9800   68.3248  224.7860 H   0  0  0  0  0  0  0  0  0  0  0  0
  139.3489   68.0905  227.1112 H   0  0  0  0  0  0  0  0  0  0  0  0
  140.2246   68.9859  229.2428 H   0  0  0  0  0  0  0  0  0  0  0  0
  141.3156   71.2375  229.2757 H   0  0  0  0  0  0  0  0  0  0  0  0
  141.5081   72.5421  227.1629 H   0  0  0  0  0  0  0  0  0  0  0  0
  1  2  2  0
  2  3  1  0
  3  4  1  0
  4  5  1  0
  5  6  2  0
  5  7  1  0
  7  8  1  0
  8  9  1  0
  9 10  1  0
 10 11  1  0
 11 12  1  0
 12 13  1  0
 13 14  1  0
 14 15  1  0
 15 16  1  0
 16 17  1  0
  2 18  1  0
 18 19  2  0
 19 20  1  0
 20 21  2  0
 21 22  1  0
 22 23  2  0
 23 24  1  0
 24 25  2  0
 25 26  1  0
 26 27  2  0
 11  7  1  0
 17 13  1  0
 27 18  1  0
 26 21  1  0
  3 28  1  0
  4 29  1  0
  4 30  1  0
  8 31  1  0
  8 32  1  0
  9 33  1  0
  9 34  1  0
 10 35  1  0
 10 36  1  0
 11 37  1  1
 12 38  1  0
 12 39  1  0
 14 40  1  0
 14 41  1  0
 15 42  1  0
 15 43  1  0
 16 44  1  0
 16 45  1  0
 17 46  1  0
 17 47  1  0
 19 48  1  0
 20 49  1  0
 22 50  1  0
 23 51  1  0
 24 52  1  0
 25 53  1  0
M  END
>  <smiles>  (44) 
O=C(NCC(=O)N1CCC[C@H]1CN1CCCC1)c1ccc2ccccc2n1

>  <score_type>  (44) 
oracle

>  <origin>  (44) 
autodockgpu

>  <m_score__min__energy>  (44) 
-8.3499999999999996

>  <m_primary>  (44) 
energy

>  <rmsd>  (44) 
2.2106308371207444

>  <m_score__min__rmsd>  (44) 
2.2106308371207444

>  <meeko>  (44) 
{"free_energy": -8.16, "intermolecular_energy": -9.95, "internal_energy": -1.69, "cluster_size": 29, "cluster_id": 1, "rank_in_cluster": 13}

>  <energy>  (44) 
-7.43

>  <cluster_rmsd>  (44) 
0.53

>  <cluster>  (44) 
2

$$$$

     RDKit          3D

 53 56  0  0  0  0  0  0  0  0999 V2000
  141.0820   72.0800  221.6290 O   0  0  0  0  0  0  0  0  0  0  0  0
  140.1420   72.2370  222.4580 C   0  0  0  0  0  0  0  0  0  0  0  0
  139.1600   73.2090  222.1110 N   0  0  0  0  0  0  0  0  0  0  0  0
  139.2240   73.9800  220.8740 C   0  0  0  0  0  0  0  0  0  0  0  0
  140.1590   75.0850  221.0690 C   0  0  0  0  0  0  0  0  0  0  0  0
  141.3840   75.0530  220.7080 O   0  0  0  0  0  0  0  0  0  0  0  0
  139.7510   76.3040  221.6920 N   0  0  0  0  0  0  0  0  0  0  0  0
  138.6740   76.5120  222.6510 C   0  0  0  0  0  0  0  0  0  0  0  0
  138.3740   78.0130  222.5360 C   0  0  0  0  0  0  0  0  0  0  0  0
  139.1260   78.4180  221.2530 C   0  0  0  0  0  0  0  0  0  0  0  0
  140.4040   77.6450  221.4510 C   0  0  1  0  0  0  0  0  0  0  0  0
  141.2360   77.9940  222.6110 C   0  0  0  0  0  0  0  0  0  0  0  0
  141.4980   79.3600  222.8250 N   0  0  0  0  0  0  0  0  0  0  0  0
  140.8310   80.1230  223.7890 C   0  0  0  0  0  0  0  0  0  0  0  0
  141.6400   81.4460  223.7930 C   0  0  0  0  0  0  0  0  0  0  0  0
  143.0440   80.8930  223.8210 C   0  0  0  0  0  0  0  0  0  0  0  0
  142.9260   79.6000  223.0810 C   0  0  0  0  0  0  0  0  0  0  0  0
  140.0830   71.4580  223.6960 C   0  0  0  0  0  0  0  0  0  0  0  0
  139.4220   70.2270  223.6420 C   0  0  0  0  0  0  0  0  0  0  0  0
  139.3490   69.4760  224.8070 C   0  0  0  0  0  0  0  0  0  0  0  0
  139.8980   69.8980  225.9930 C   0  0  0  0  0  0  0  0  0  0  0  0
  139.8050   69.1300  227.1170 C   0  0  0  0  0  0  0  0  0  0  0  0
  140.3540   69.5570  228.2980 C   0  0  0  0  0  0  0  0  0  0  0  0
  141.0100   70.7840  228.3390 C   0  0  0  0  0  0  0  0  0  0  0  0
  141.0960   71.5540  227.1790 C   0  0  0  0  0  0  0  0  0  0  0  0
  140.5390   71.1230  225.9820 C   0  0  0  0  0  0  0  0  0  0  0  0
  140.6240   71.8800  224.8520 N   0  0  0  0  0  0  0  0  0  0  0  0
  138.3780   73.3430  222.7990 H   0  0  0  0  0  0  0  0  0  0  0  0
  139.5742   73.3372  220.0530 H   0  0  0  0  0  0  0  0  0  0  0  0
  138.2272   74.3683  220.6179 H   0  0  0  0  0  0  0  0  0  0  0  0
  137.7903   75.9133  222.3853 H   0  0  0  0  0  0  0  0  0  0  0  0
  138.9460   76.2073  223.6723 H   0  0  0  0  0  0  0  0  0  0  0  0
  137.2937   78.1939  222.4351 H   0  0  0  0  0  0  0  0  0  0  0  0
  138.6854   78.5870  223.4212 H   0  0  0  0  0  0  0  0  0  0  0  0
  138.5907   78.0984  220.3468 H   0  0  0  0  0  0  0  0  0  0  0  0
  139.2543   79.5012  221.1108 H   0  0  0  0  0  0  0  0  0  0  0  0
  141.1221   77.7827  220.6292 H   0  0  0  0  0  0  0  0  0  0  0  0
  140.7306   77.6090  223.5090 H   0  0  0  0  0  0  0  0  0  0  0  0
  142.2183   77.5456  222.4015 H   0  0  0  0  0  0  0  0  0  0  0  0
  139.7839   80.2988  223.5014 H   0  0  0  0  0  0  0  0  0  0  0  0
  140.7825   79.6370  224.7746 H   0  0  0  0  0  0  0  0  0  0  0  0
  141.4536   82.0415  222.8871 H   0  0  0  0  0  0  0  0  0  0  0  0
  141.3968   82.1359  224.6145 H   0  0  0  0  0  0  0  0  0  0  0  0
  143.7444   81.5732  223.3143 H   0  0  0  0  0  0  0  0  0  0  0  0
  143.4343   80.7677  224.8418 H   0  0  0  0  0  0  0  0  0  0  0  0
  143.4721   79.6625  222.1282 H   0  0  0  0  0  0  0  0  0  0  0  0
  143.3550   78.7774  223.6720 H   0  0  0  0  0  0  0  0  0  0  0  0
  138.9736   69.8649  222.7051 H   0  0  0  0  0  0  0  0  0  0  0  0
  138.8316   68.5057  224.7793 H   0  0  0  0  0  0  0  0  0  0  0  0
  139.2857   68.1612  227.0750 H   0  0  0  0  0  0  0  0  0  0  0  0
  140.2771   68.9370  229.2033 H   0  0  0  0  0  0  0  0  0  0  0  0
  141.4566   71.1433  229.2778 H   0  0  0  0  0  0  0  0  0  0  0  0
  141.6158   72.5228  227.2131 H   0  0  0  0  0  0  0  0  0  0  0  0
  1  2  2  0
  2  3  1  0
  3  4  1  0
  4  5  1  0
  5  6  2  0
  5  7  1  0
  7  8  1  0
  8  9  1  0
  9 10  1  0
 10 11  1  0
 11 12  1  0
 12 13  1  0
 13 14  1  0
 14 15  1  0
 15 16  1  0
 16 17  1  0
  2 18  1  0
 18 19  2  0
 19 20  1  0
 20 21  2  0
 21 22  1  0
 22 23  2  0
 23 24  1  0
 24 25  2  0
 25 26  1  0
 26 27  2  0
 11  7  1  0
 17 13  1  0
 27 18  1  0
 26 21  1  0
  3 28  1  0
  4 29  1  0
  4 30  1  0
  8 31  1  0
  8 32  1  0
  9 33  1  0
  9 34  1  0
 10 35  1  0
 10 36  1  0
 11 37  1  6
 12 38  1  0
 12 39  1  0
 14 40  1  0
 14 41  1  0
 15 42  1  0
 15 43  1  0
 16 44  1  0
 16 45  1  0
 17 46  1  0
 17 47  1  0
 19 48  1  0
 20 49  1  0
 22 50  1  0
 23 51  1  0
 24 52  1  0
 25 53  1  0
M  END
>  <smiles>  (45) 
O=C(NCC(=O)N1CCC[C@H]1CN1CCCC1)c1ccc2ccccc2n1

>  <score_type>  (45) 
oracle

>  <origin>  (45) 
autodockgpu

>  <m_score__min__energy>  (45) 
-8.3499999999999996

>  <m_primary>  (45) 
energy

>  <rmsd>  (45) 
2.7293319486089516

>  <m_score__min__rmsd>  (45) 
2.7293319486089516

>  <meeko>  (45) 
{"free_energy": -8.24, "intermolecular_energy": -10.03, "internal_energy": -1.26, "cluster_size": 29, "cluster_id": 1, "rank_in_cluster": 5}

>  <energy>  (45) 
-7.23

>  <cluster_rmsd>  (45) 
0.64

>  <cluster>  (45) 
2

$$$$

     RDKit          3D

 53 56  0  0  0  0  0  0  0  0999 V2000
  141.4490   72.0200  221.9600 O   0  0  0  0  0  0  0  0  0  0  0  0
  140.4470   72.0970  222.7240 C   0  0  0  0  0  0  0  0  0  0  0  0
  139.5380   73.1610  222.4560 N   0  0  0  0  0  0  0  0  0  0  0  0
  139.7420   74.1090  221.3650 C   0  0  0  0  0  0  0  0  0  0  0  0
  139.0550   75.3520  221.7030 C   0  0  0  0  0  0  0  0  0  0  0  0
  137.9800   75.4070  222.3930 O   0  0  0  0  0  0  0  0  0  0  0  0
  139.5540   76.6200  221.2740 N   0  0  0  0  0  0  0  0  0  0  0  0
  139.0650   77.4630  220.1910 C   0  0  0  0  0  0  0  0  0  0  0  0
  140.2640   78.3640  219.8670 C   0  0  0  0  0  0  0  0  0  0  0  0
  141.4240   77.6790  220.6160 C   0  0  0  0  0  0  0  0  0  0  0  0
  140.7260   77.3340  221.9060 C   0  0  1  0  0  0  0  0  0  0  0  0
  140.2300   78.4460  222.7290 C   0  0  0  0  0  0  0  0  0  0  0  0
  141.0260   79.6040  222.7900 N   0  0  0  0  0  0  0  0  0  0  0  0
  140.6280   80.7700  223.4510 C   0  0  0  0  0  0  0  0  0  0  0  0
  141.9220   81.6240  223.4410 C   0  0  0  0  0  0  0  0  0  0  0  0
  142.9260   80.5820  223.8700 C   0  0  0  0  0  0  0  0  0  0  0  0
  142.3630   79.3090  223.3250 C   0  0  0  0  0  0  0  0  0  0  0  0
  140.2470   71.1410  223.8140 C   0  0  0  0  0  0  0  0  0  0  0  0
  139.5080   69.9900  223.5240 C   0  0  0  0  0  0  0  0  0  0  0  0
  139.3020   69.0740  224.5460 C   0  0  0  0  0  0  0  0  0  0  0  0
  139.7940   69.2610  225.8150 C   0  0  0  0  0  0  0  0  0  0  0  0
  139.5690   68.3360  226.7930 C   0  0  0  0  0  0  0  0  0  0  0  0
  140.0630   68.5280  228.0570 C   0  0  0  0  0  0  0  0  0  0  0  0
  140.7970   69.6770  228.3340 C   0  0  0  0  0  0  0  0  0  0  0  0
  141.0170   70.6110  227.3200 C   0  0  0  0  0  0  0  0  0  0  0  0
  140.5170   70.4180  226.0390 C   0  0  0  0  0  0  0  0  0  0  0  0
  140.7330   71.3320  225.0530 N   0  0  0  0  0  0  0  0  0  0  0  0
  138.7040   73.2290  223.0910 H   0  0  0  0  0  0  0  0  0  0  0  0
  140.8173   74.3016  221.2359 H   0  0  0  0  0  0  0  0  0  0  0  0
  139.3420   73.6982  220.4263 H   0  0  0  0  0  0  0  0  0  0  0  0
  138.7821   76.8565  219.3180 H   0  0  0  0  0  0  0  0  0  0  0  0
  138.1641   78.0317  220.4649 H   0  0  0  0  0  0  0  0  0  0  0  0
  140.4552   78.3936  218.7842 H   0  0  0  0  0  0  0  0  0  0  0  0
  140.1128   79.4116  220.1666 H   0  0  0  0  0  0  0  0  0  0  0  0
  141.7777   76.7806  220.0890 H   0  0  0  0  0  0  0  0  0  0  0  0
  142.3322   78.2897  220.7266 H   0  0  0  0  0  0  0  0  0  0  0  0
  141.3797   76.8180  222.6246 H   0  0  0  0  0  0  0  0  0  0  0  0
  139.2476   78.7400  222.3310 H   0  0  0  0  0  0  0  0  0  0  0  0
  140.2179   78.0551  223.7571 H   0  0  0  0  0  0  0  0  0  0  0  0
  139.8147   81.2753  222.9095 H   0  0  0  0  0  0  0  0  0  0  0  0
  140.2330   80.5867  224.4611 H   0  0  0  0  0  0  0  0  0  0  0  0
  142.1443   82.0167  222.4378 H   0  0  0  0  0  0  0  0  0  0  0  0
  141.8887   82.5236  224.0731 H   0  0  0  0  0  0  0  0  0  0  0  0
  143.9166   80.7898  223.4394 H   0  0  0  0  0  0  0  0  0  0  0  0
  143.0740   80.5529  224.9596 H   0  0  0  0  0  0  0  0  0  0  0  0
  143.0112   78.9258  222.5231 H   0  0  0  0  0  0  0  0  0  0  0  0
  142.3019   78.5457  224.1147 H   0  0  0  0  0  0  0  0  0  0  0  0
  139.1023   69.8158  222.5165 H   0  0  0  0  0  0  0  0  0  0  0  0
  138.7228   68.1637  224.3319 H   0  0  0  0  0  0  0  0  0  0  0  0
  138.9874   67.4305  226.5653 H   0  0  0  0  0  0  0  0  0  0  0  0
  139.8811   67.7815  228.8442 H   0  0  0  0  0  0  0  0  0  0  0  0
  141.2004   69.8480  229.3430 H   0  0  0  0  0  0  0  0  0  0  0  0
  141.5984   71.5185  227.5403 H   0  0  0  0  0  0  0  0  0  0  0  0
  1  2  2  0
  2  3  1  0
  3  4  1  0
  4  5  1  0
  5  6  2  0
  5  7  1  0
  7  8  1  0
  8  9  1  0
  9 10  1  0
 10 11  1  0
 11 12  1  0
 12 13  1  0
 13 14  1  0
 14 15  1  0
 15 16  1  0
 16 17  1  0
  2 18  1  0
 18 19  2  0
 19 20  1  0
 20 21  2  0
 21 22  1  0
 22 23  2  0
 23 24  1  0
 24 25  2  0
 25 26  1  0
 26 27  2  0
 11  7  1  0
 17 13  1  0
 27 18  1  0
 26 21  1  0
  3 28  1  0
  4 29  1  0
  4 30  1  0
  8 31  1  0
  8 32  1  0
  9 33  1  0
  9 34  1  0
 10 35  1  0
 10 36  1  0
 11 37  1  1
 12 38  1  0
 12 39  1  0
 14 40  1  0
 14 41  1  0
 15 42  1  0
 15 43  1  0
 16 44  1  0
 16 45  1  0
 17 46  1  0
 17 47  1  0
 19 48  1  0
 20 49  1  0
 22 50  1  0
 23 51  1  0
 24 52  1  0
 25 53  1  0
M  END
>  <smiles>  (46) 
O=C(NCC(=O)N1CCC[C@H]1CN1CCCC1)c1ccc2ccccc2n1

>  <score_type>  (46) 
oracle

>  <origin>  (46) 
autodockgpu

>  <m_score__min__energy>  (46) 
-8.3499999999999996

>  <m_primary>  (46) 
energy

>  <rmsd>  (46) 
2.386484079675048

>  <m_score__min__rmsd>  (46) 
2.386484079675048

>  <meeko>  (46) 
{"free_energy": -8.11, "intermolecular_energy": -9.9, "internal_energy": -1.52, "cluster_size": 29, "cluster_id": 1, "rank_in_cluster": 18}

>  <energy>  (46) 
-7.19

>  <cluster_rmsd>  (46) 
0.97

>  <cluster>  (46) 
2

$$$$

     RDKit          3D

 53 56  0  0  0  0  0  0  0  0999 V2000
  140.3670   71.5240  221.3200 O   0  0  0  0  0  0  0  0  0  0  0  0
  140.0450   72.0750  222.4090 C   0  0  0  0  0  0  0  0  0  0  0  0
  139.6570   73.4430  222.3250 N   0  0  0  0  0  0  0  0  0  0  0  0
  139.6270   74.1730  221.0620 C   0  0  0  0  0  0  0  0  0  0  0  0
  139.4810   75.5960  221.3560 C   0  0  0  0  0  0  0  0  0  0  0  0
  138.4110   76.1220  221.8150 O   0  0  0  0  0  0  0  0  0  0  0  0
  140.5550   76.5130  221.1460 N   0  0  0  0  0  0  0  0  0  0  0  0
  141.0890   77.5060  222.0700 C   0  0  0  0  0  0  0  0  0  0  0  0
  141.8060   78.5040  221.1520 C   0  0  0  0  0  0  0  0  0  0  0  0
  141.3000   78.1100  219.7510 C   0  0  0  0  0  0  0  0  0  0  0  0
  141.3580   76.6100  219.8700 C   0  0  1  0  0  0  0  0  0  0  0  0
  142.6770   75.9960  220.0800 C   0  0  0  0  0  0  0  0  0  0  0  0
  142.7150   74.6000  220.2520 N   0  0  0  0  0  0  0  0  0  0  0  0
  142.4650   73.6970  219.2140 C   0  0  0  0  0  0  0  0  0  0  0  0
  142.8700   72.3380  219.8420 C   0  0  0  0  0  0  0  0  0  0  0  0
  144.1860   72.7240  220.4710 C   0  0  0  0  0  0  0  0  0  0  0  0
  143.9950   74.1630  220.8270 C   0  0  0  0  0  0  0  0  0  0  0  0
  140.0740   71.3370  223.6720 C   0  0  0  0  0  0  0  0  0  0  0  0
  139.5810   70.0280  223.6560 C   0  0  0  0  0  0  0  0  0  0  0  0
  139.5950   69.3120  224.8450 C   0  0  0  0  0  0  0  0  0  0  0  0
  140.0700   69.8430  226.0200 C   0  0  0  0  0  0  0  0  0  0  0  0
  140.0650   69.1070  227.1690 C   0  0  0  0  0  0  0  0  0  0  0  0
  140.5400   69.6420  228.3390 C   0  0  0  0  0  0  0  0  0  0  0  0
  141.0280   70.9450  228.3430 C   0  0  0  0  0  0  0  0  0  0  0  0
  141.0250   71.6810  227.1570 C   0  0  0  0  0  0  0  0  0  0  0  0
  140.5430   71.1410  225.9720 C   0  0  0  0  0  0  0  0  0  0  0  0
  140.5420   71.8640  224.8170 N   0  0  0  0  0  0  0  0  0  0  0  0
  139.3890   73.9060  223.2300 H   0  0  0  0  0  0  0  0  0  0  0  0
  140.5637   74.0015  220.5113 H   0  0  0  0  0  0  0  0  0  0  0  0
  138.7853   73.8261  220.4446 H   0  0  0  0  0  0  0  0  0  0  0  0
  140.2793   77.9981  222.6288 H   0  0  0  0  0  0  0  0  0  0  0  0
  141.7545   77.0692  222.8292 H   0  0  0  0  0  0  0  0  0  0  0  0
  141.5255   79.5390  221.3972 H   0  0  0  0  0  0  0  0  0  0  0  0
  142.9016   78.4680  221.2436 H   0  0  0  0  0  0  0  0  0  0  0  0
  140.2752   78.4668  219.5709 H   0  0  0  0  0  0  0  0  0  0  0  0
  141.8738   78.5328  218.9132 H   0  0  0  0  0  0  0  0  0  0  0  0
  141.0290   76.0929  218.9566 H   0  0  0  0  0  0  0  0  0  0  0  0
  143.2985   76.2390  219.2055 H   0  0  0  0  0  0  0  0  0  0  0  0
  143.0343   76.4098  221.0345 H   0  0  0  0  0  0  0  0  0  0  0  0
  141.4021   73.7023  218.9306 H   0  0  0  0  0  0  0  0  0  0  0  0
  143.0122   73.9316  218.2891 H   0  0  0  0  0  0  0  0  0  0  0  0
  142.1408   72.0019  220.5939 H   0  0  0  0  0  0  0  0  0  0  0  0
  142.9227   71.4973  219.1346 H   0  0  0  0  0  0  0  0  0  0  0  0
  144.3847   72.1201  221.3687 H   0  0  0  0  0  0  0  0  0  0  0  0
  145.0444   72.5586  219.8033 H   0  0  0  0  0  0  0  0  0  0  0  0
  143.9732   74.2786  221.9207 H   0  0  0  0  0  0  0  0  0  0  0  0
  144.8222   74.7706  220.4314 H   0  0  0  0  0  0  0  0  0  0  0  0
  139.1939   69.5796  222.7291 H   0  0  0  0  0  0  0  0  0  0  0  0
  139.2115   68.2810  224.8467 H   0  0  0  0  0  0  0  0  0  0  0  0
  139.6774   68.0776  227.1567 H   0  0  0  0  0  0  0  0  0  0  0  0
  140.5352   69.0474  229.2644 H   0  0  0  0  0  0  0  0  0  0  0  0
  141.4126   71.3909  229.2721 H   0  0  0  0  0  0  0  0  0  0  0  0
  141.4126   72.7104  227.1612 H   0  0  0  0  0  0  0  0  0  0  0  0
  1  2  2  0
  2  3  1  0
  3  4  1  0
  4  5  1  0
  5  6  2  0
  5  7  1  0
  7  8  1  0
  8  9  1  0
  9 10  1  0
 10 11  1  0
 11 12  1  0
 12 13  1  0
 13 14  1  0
 14 15  1  0
 15 16  1  0
 16 17  1  0
  2 18  1  0
 18 19  2  0
 19 20  1  0
 20 21  2  0
 21 22  1  0
 22 23  2  0
 23 24  1  0
 24 25  2  0
 25 26  1  0
 26 27  2  0
 11  7  1  0
 17 13  1  0
 27 18  1  0
 26 21  1  0
  3 28  1  0
  4 29  1  0
  4 30  1  0
  8 31  1  0
  8 32  1  0
  9 33  1  0
  9 34  1  0
 10 35  1  0
 10 36  1  0
 11 37  1  6
 12 38  1  0
 12 39  1  0
 14 40  1  0
 14 41  1  0
 15 42  1  0
 15 43  1  0
 16 44  1  0
 16 45  1  0
 17 46  1  0
 17 47  1  0
 19 48  1  0
 20 49  1  0
 22 50  1  0
 23 51  1  0
 24 52  1  0
 25 53  1  0
M  END
>  <smiles>  (47) 
O=C(NCC(=O)N1CCC[C@H]1CN1CCCC1)c1ccc2ccccc2n1

>  <score_type>  (47) 
oracle

>  <origin>  (47) 
autodockgpu

>  <m_score__min__energy>  (47) 
-8.3499999999999996

>  <m_primary>  (47) 
energy

>  <rmsd>  (47) 
4.088747646530432

>  <m_score__min__rmsd>  (47) 
4.088747646530432

>  <meeko>  (47) 
{"free_energy": -7.19, "intermolecular_energy": -8.98, "internal_energy": -1.91, "cluster_size": 17, "cluster_id": 2, "rank_in_cluster": 17}

>  <energy>  (47) 
-7.77

>  <cluster_rmsd>  (47) 
0.0

>  <cluster>  (47) 
3

$$$$

     RDKit          3D

 53 56  0  0  0  0  0  0  0  0999 V2000
  141.4400   72.1890  221.9680 O   0  0  0  0  0  0  0  0  0  0  0  0
  140.4270   72.2490  222.7170 C   0  0  0  0  0  0  0  0  0  0  0  0
  139.4950   73.2870  222.4250 N   0  0  0  0  0  0  0  0  0  0  0  0
  139.6890   74.2260  221.3250 C   0  0  0  0  0  0  0  0  0  0  0  0
  138.9950   75.4680  221.6550 C   0  0  0  0  0  0  0  0  0  0  0  0
  137.8560   75.5150  222.2310 O   0  0  0  0  0  0  0  0  0  0  0  0
  139.5610   76.7420  221.3480 N   0  0  0  0  0  0  0  0  0  0  0  0
  139.0850   77.7360  220.3950 C   0  0  0  0  0  0  0  0  0  0  0  0
  140.3280   78.5910  220.1130 C   0  0  0  0  0  0  0  0  0  0  0  0
  141.4690   77.7500  220.7170 C   0  0  0  0  0  0  0  0  0  0  0  0
  140.8080   77.3010  221.9940 C   0  0  1  0  0  0  0  0  0  0  0  0
  140.4280   78.3380  222.9630 C   0  0  0  0  0  0  0  0  0  0  0  0
  141.1230   79.5600  222.9010 N   0  0  0  0  0  0  0  0  0  0  0  0
  140.6350   80.7450  223.4590 C   0  0  0  0  0  0  0  0  0  0  0  0
  141.8500   81.7000  223.3450 C   0  0  0  0  0  0  0  0  0  0  0  0
  142.9450   80.7910  223.8480 C   0  0  0  0  0  0  0  0  0  0  0  0
  142.4870   79.4300  223.4340 C   0  0  0  0  0  0  0  0  0  0  0  0
  140.2370   71.3020  223.8160 C   0  0  0  0  0  0  0  0  0  0  0  0
  139.4990   70.1460  223.5400 C   0  0  0  0  0  0  0  0  0  0  0  0
  139.3020   69.2370  224.5700 C   0  0  0  0  0  0  0  0  0  0  0  0
  139.8020   69.4350  225.8340 C   0  0  0  0  0  0  0  0  0  0  0  0
  139.5860   68.5180  226.8210 C   0  0  0  0  0  0  0  0  0  0  0  0
  140.0870   68.7210  228.0800 C   0  0  0  0  0  0  0  0  0  0  0  0
  140.8200   69.8740  228.3440 C   0  0  0  0  0  0  0  0  0  0  0  0
  141.0310   70.8000  227.3210 C   0  0  0  0  0  0  0  0  0  0  0  0
  140.5230   70.5960  226.0450 C   0  0  0  0  0  0  0  0  0  0  0  0
  140.7300   71.5030  225.0500 N   0  0  0  0  0  0  0  0  0  0  0  0
  138.6500   73.3400  223.0470 H   0  0  0  0  0  0  0  0  0  0  0  0
  140.7625   74.4242  221.1900 H   0  0  0  0  0  0  0  0  0  0  0  0
  139.2883   73.8043  220.3914 H   0  0  0  0  0  0  0  0  0  0  0  0
  138.7221   77.2552  219.4746 H   0  0  0  0  0  0  0  0  0  0  0  0
  138.2394   78.3254  220.7791 H   0  0  0  0  0  0  0  0  0  0  0  0
  140.4722   78.7352  219.0321 H   0  0  0  0  0  0  0  0  0  0  0  0
  140.2637   79.6039  220.5371 H   0  0  0  0  0  0  0  0  0  0  0  0
  141.7351   76.8989  220.0729 H   0  0  0  0  0  0  0  0  0  0  0  0
  142.4214   78.2843  220.8489 H   0  0  0  0  0  0  0  0  0  0  0  0
  141.4564   76.6635  222.6130 H   0  0  0  0  0  0  0  0  0  0  0  0
  139.3604   78.5562  222.8129 H   0  0  0  0  0  0  0  0  0  0  0  0
  140.6832   77.9155  223.9461 H   0  0  0  0  0  0  0  0  0  0  0  0
  139.7751   81.1272  222.8893 H   0  0  0  0  0  0  0  0  0  0  0  0
  140.2694   80.6244  224.4894 H   0  0  0  0  0  0  0  0  0  0  0  0
  142.0258   82.0148  222.3058 H   0  0  0  0  0  0  0  0  0  0  0  0
  141.7470   82.6486  223.8923 H   0  0  0  0  0  0  0  0  0  0  0  0
  143.9089   81.0405  223.3803 H   0  0  0  0  0  0  0  0  0  0  0  0
  143.1081   80.8765  224.9325 H   0  0  0  0  0  0  0  0  0  0  0  0
  143.1559   79.0297  222.6579 H   0  0  0  0  0  0  0  0  0  0  0  0
  142.5013   78.7414  224.2917 H   0  0  0  0  0  0  0  0  0  0  0  0
  139.0872   69.9630  222.5365 H   0  0  0  0  0  0  0  0  0  0  0  0
  138.7237   68.3236  224.3666 H   0  0  0  0  0  0  0  0  0  0  0  0
  139.0054   67.6092  226.6044 H   0  0  0  0  0  0  0  0  0  0  0  0
  139.9116   67.9801  228.8740 H   0  0  0  0  0  0  0  0  0  0  0  0
  141.2292   70.0540  229.3491 H   0  0  0  0  0  0  0  0  0  0  0  0
  141.6119   71.7104  227.5301 H   0  0  0  0  0  0  0  0  0  0  0  0
  1  2  2  0
  2  3  1  0
  3  4  1  0
  4  5  1  0
  5  6  2  0
  5  7  1  0
  7  8  1  0
  8  9  1  0
  9 10  1  0
 10 11  1  0
 11 12  1  0
 12 13  1  0
 13 14  1  0
 14 15  1  0
 15 16  1  0
 16 17  1  0
  2 18  1  0
 18 19  2  0
 19 20  1  0
 20 21  2  0
 21 22  1  0
 22 23  2  0
 23 24  1  0
 24 25  2  0
 25 26  1  0
 26 27  2  0
 11  7  1  0
 17 13  1  0
 27 18  1  0
 26 21  1  0
  3 28  1  0
  4 29  1  0
  4 30  1  0
  8 31  1  0
  8 32  1  0
  9 33  1  0
  9 34  1  0
 10 35  1  0
 10 36  1  0
 11 37  1  1
 12 38  1  0
 12 39  1  0
 14 40  1  0
 14 41  1  0
 15 42  1  0
 15 43  1  0
 16 44  1  0
 16 45  1  0
 17 46  1  0
 17 47  1  0
 19 48  1  0
 20 49  1  0
 22 50  1  0
 23 51  1  0
 24 52  1  0
 25 53  1  0
M  END
>  <smiles>  (48) 
O=C(NCC(=O)N1CCC[C@H]1CN1CCCC1)c1ccc2ccccc2n1

>  <score_type>  (48) 
oracle

>  <origin>  (48) 
autodockgpu

>  <m_score__min__energy>  (48) 
-8.3499999999999996

>  <m_primary>  (48) 
energy

>  <rmsd>  (48) 
2.46343229752841

>  <m_score__min__rmsd>  (48) 
2.46343229752841

>  <meeko>  (48) 
{"free_energy": -8.12, "intermolecular_energy": -9.91, "internal_energy": -1.47, "cluster_size": 29, "cluster_id": 1, "rank_in_cluster": 17}

>  <energy>  (48) 
-7.61

>  <cluster_rmsd>  (48) 
0.3

>  <cluster>  (48) 
3

$$$$

     RDKit          3D

 53 56  0  0  0  0  0  0  0  0999 V2000
  140.7050   71.5640  221.3210 O   0  0  0  0  0  0  0  0  0  0  0  0
  140.2810   72.1140  222.3740 C   0  0  0  0  0  0  0  0  0  0  0  0
  139.9050   73.4830  222.2560 N   0  0  0  0  0  0  0  0  0  0  0  0
  139.9980   74.2140  220.9960 C   0  0  0  0  0  0  0  0  0  0  0  0
  140.6020   75.5160  221.2640 C   0  0  0  0  0  0  0  0  0  0  0  0
  140.4570   76.1560  222.3600 O   0  0  0  0  0  0  0  0  0  0  0  0
  141.4180   76.1730  220.2940 N   0  0  0  0  0  0  0  0  0  0  0  0
  142.1540   77.4230  220.4300 C   0  0  0  0  0  0  0  0  0  0  0  0
  142.3680   77.8760  218.9790 C   0  0  0  0  0  0  0  0  0  0  0  0
  141.4150   76.9580  218.1870 C   0  0  0  0  0  0  0  0  0  0  0  0
  141.6690   75.6540  218.8970 C   0  0  1  0  0  0  0  0  0  0  0  0
  143.0250   75.0930  218.8250 C   0  0  0  0  0  0  0  0  0  0  0  0
  143.3850   74.1550  219.8100 N   0  0  0  0  0  0  0  0  0  0  0  0
  143.4930   72.7850  219.5550 C   0  0  0  0  0  0  0  0  0  0  0  0
  144.1410   72.2470  220.8560 C   0  0  0  0  0  0  0  0  0  0  0  0
  145.2360   73.2690  221.0440 C   0  0  0  0  0  0  0  0  0  0  0  0
  144.6540   74.5150  220.4580 C   0  0  0  0  0  0  0  0  0  0  0  0
  140.1880   71.3740  223.6340 C   0  0  0  0  0  0  0  0  0  0  0  0
  139.5790   70.1160  223.5890 C   0  0  0  0  0  0  0  0  0  0  0  0
  139.4750   69.4000  224.7740 C   0  0  0  0  0  0  0  0  0  0  0  0
  139.9440   69.8830  225.9710 C   0  0  0  0  0  0  0  0  0  0  0  0
  139.8220   69.1480  227.1150 C   0  0  0  0  0  0  0  0  0  0  0  0
  140.2920   69.6360  228.3060 C   0  0  0  0  0  0  0  0  0  0  0  0
  140.8960   70.8880  228.3390 C   0  0  0  0  0  0  0  0  0  0  0  0
  141.0120   71.6240  227.1580 C   0  0  0  0  0  0  0  0  0  0  0  0
  140.5360   71.1320  225.9500 C   0  0  0  0  0  0  0  0  0  0  0  0
  140.6510   71.8540  224.8010 N   0  0  0  0  0  0  0  0  0  0  0  0
  139.5520   73.9440  223.1310 H   0  0  0  0  0  0  0  0  0  0  0  0
  140.6235   73.6530  220.2860 H   0  0  0  0  0  0  0  0  0  0  0  0
  138.9970   74.3437  220.5587 H   0  0  0  0  0  0  0  0  0  0  0  0
  141.5670   78.1654  220.9906 H   0  0  0  0  0  0  0  0  0  0  0  0
  143.0968   77.3056  220.9844 H   0  0  0  0  0  0  0  0  0  0  0  0
  142.0958   78.9340  218.8506 H   0  0  0  0  0  0  0  0  0  0  0  0
  143.4152   77.8015  218.6508 H   0  0  0  0  0  0  0  0  0  0  0  0
  140.3667   77.2777  218.2808 H   0  0  0  0  0  0  0  0  0  0  0  0
  141.5840   76.9374  217.1003 H   0  0  0  0  0  0  0  0  0  0  0  0
  141.0768   74.8211  218.4902 H   0  0  0  0  0  0  0  0  0  0  0  0
  143.1285   74.6016  217.8463 H   0  0  0  0  0  0  0  0  0  0  0  0
  143.6957   75.9492  218.9896 H   0  0  0  0  0  0  0  0  0  0  0  0
  142.5040   72.3333  219.3882 H   0  0  0  0  0  0  0  0  0  0  0  0
  144.0737   72.5537  218.6498 H   0  0  0  0  0  0  0  0  0  0  0  0
  143.4317   72.2491  221.6967 H   0  0  0  0  0  0  0  0  0  0  0  0
  144.4845   71.2032  220.8058 H   0  0  0  0  0  0  0  0  0  0  0  0
  145.4666   73.4066  222.1107 H   0  0  0  0  0  0  0  0  0  0  0  0
  146.1836   72.9742  220.5695 H   0  0  0  0  0  0  0  0  0  0  0  0
  144.4723   75.2532  221.2530 H   0  0  0  0  0  0  0  0  0  0  0  0
  145.3474   74.9568  219.7272 H   0  0  0  0  0  0  0  0  0  0  0  0
  139.1940   69.7062  222.6436 H   0  0  0  0  0  0  0  0  0  0  0  0
  138.9990   68.4085  224.7533 H   0  0  0  0  0  0  0  0  0  0  0  0
  139.3435   68.1581  227.0804 H   0  0  0  0  0  0  0  0  0  0  0  0
  140.1925   69.0430  229.2271 H   0  0  0  0  0  0  0  0  0  0  0  0
  141.2789   71.2949  229.2866 H   0  0  0  0  0  0  0  0  0  0  0  0
  141.4904   72.6141  227.1853 H   0  0  0  0  0  0  0  0  0  0  0  0
  1  2  2  0
  2  3  1  0
  3  4  1  0
  4  5  1  0
  5  6  2  0
  5  7  1  0
  7  8  1  0
  8  9  1  0
  9 10  1  0
 10 11  1  0
 11 12  1  0
 12 13  1  0
 13 14  1  0
 14 15  1  0
 15 16  1  0
 16 17  1  0
  2 18  1  0
 18 19  2  0
 19 20  1  0
 20 21  2  0
 21 22  1  0
 22 23  2  0
 23 24  1  0
 24 25  2  0
 25 26  1  0
 26 27  2  0
 11  7  1  0
 17 13  1  0
 27 18  1  0
 26 21  1  0
  3 28  1  0
  4 29  1  0
  4 30  1  0
  8 31  1  0
  8 32  1  0
  9 33  1  0
  9 34  1  0
 10 35  1  0
 10 36  1  0
 11 37  1  6
 12 38  1  0
 12 39  1  0
 14 40  1  0
 14 41  1  0
 15 42  1  0
 15 43  1  0
 16 44  1  0
 16 45  1  0
 17 46  1  0
 17 47  1  0
 19 48  1  0
 20 49  1  0
 22 50  1  0
 23 51  1  0
 24 52  1  0
 25 53  1  0
M  END
>  <smiles>  (49) 
O=C(NCC(=O)N1CCC[C@H]1CN1CCCC1)c1ccc2ccccc2n1

>  <score_type>  (49) 
oracle

>  <origin>  (49) 
autodockgpu

>  <m_score__min__energy>  (49) 
-8.3499999999999996

>  <m_primary>  (49) 
energy

>  <rmsd>  (49) 
4.04146037036631

>  <m_score__min__rmsd>  (49) 
4.04146037036631

>  <meeko>  (49) 
{"free_energy": -7.59, "intermolecular_energy": -9.38, "internal_energy": -2.06, "cluster_size": 17, "cluster_id": 2, "rank_in_cluster": 14}

>  <energy>  (49) 
-7.48

>  <cluster_rmsd>  (49) 
0.44

>  <cluster>  (49) 
3

$$$$

     RDKit          3D

 53 56  0  0  0  0  0  0  0  0999 V2000
  137.4610   76.0390  222.2730 O   0  0  0  0  0  0  0  0  0  0  0  0
  138.7090   76.1760  222.4020 C   0  0  0  0  0  0  0  0  0  0  0  0
  139.4870   74.9920  222.2530 N   0  0  0  0  0  0  0  0  0  0  0  0
  138.8870   73.6930  221.9650 C   0  0  0  0  0  0  0  0  0  0  0  0
  139.8180   72.6520  222.3930 C   0  0  0  0  0  0  0  0  0  0  0  0
  141.0850   72.8100  222.4480 O   0  0  0  0  0  0  0  0  0  0  0  0
  139.3600   71.3590  222.7870 N   0  0  0  0  0  0  0  0  0  0  0  0
  139.1280   70.1890  221.9500 C   0  0  0  0  0  0  0  0  0  0  0  0
  138.1700   69.3300  222.7880 C   0  0  0  0  0  0  0  0  0  0  0  0
  137.7130   70.3020  223.8940 C   0  0  0  0  0  0  0  0  0  0  0  0
  139.0270   70.9670  224.2080 C   0  0  1  0  0  0  0  0  0  0  0  0
  140.1050   70.1240  224.7430 C   0  0  0  0  0  0  0  0  0  0  0  0
  140.5940   70.4430  226.0230 N   0  0  0  0  0  0  0  0  0  0  0  0
  140.7470   71.7570  226.4760 C   0  0  0  0  0  0  0  0  0  0  0  0
  141.0620   71.5620  227.9820 C   0  0  0  0  0  0  0  0  0  0  0  0
  140.0030   70.5490  228.3410 C   0  0  0  0  0  0  0  0  0  0  0  0
  139.8190   69.7720  227.0770 C   0  0  0  0  0  0  0  0  0  0  0  0
  139.3040   77.4830  222.6880 C   0  0  0  0  0  0  0  0  0  0  0  0
  138.4260   78.5520  222.8860 C   0  0  0  0  0  0  0  0  0  0  0  0
  138.9700   79.8020  223.1520 C   0  0  0  0  0  0  0  0  0  0  0  0
  140.3250   80.0150  223.2260 C   0  0  0  0  0  0  0  0  0  0  0  0
  140.8210   81.2590  223.4890 C   0  0  0  0  0  0  0  0  0  0  0  0
  142.1740   81.4660  223.5600 C   0  0  0  0  0  0  0  0  0  0  0  0
  143.0390   80.3940  223.3620 C   0  0  0  0  0  0  0  0  0  0  0  0
  142.5120   79.1300  223.0940 C   0  0  0  0  0  0  0  0  0  0  0  0
  141.1410   78.9180  223.0210 C   0  0  0  0  0  0  0  0  0  0  0  0
  140.6320   77.6820  222.7590 N   0  0  0  0  0  0  0  0  0  0  0  0
  140.5260   75.1020  222.3610 H   0  0  0  0  0  0  0  0  0  0  0  0
  137.9386   73.5918  222.5129 H   0  0  0  0  0  0  0  0  0  0  0  0
  138.6841   73.6000  220.8879 H   0  0  0  0  0  0  0  0  0  0  0  0
  138.6648   70.4754  220.9943 H   0  0  0  0  0  0  0  0  0  0  0  0
  140.0563   69.6609  221.6866 H   0  0  0  0  0  0  0  0  0  0  0  0
  137.3162   68.9869  222.1852 H   0  0  0  0  0  0  0  0  0  0  0  0
  138.6377   68.4149  223.1802 H   0  0  0  0  0  0  0  0  0  0  0  0
  136.9681   71.0219  223.5241 H   0  0  0  0  0  0  0  0  0  0  0  0
  137.2135   69.8291  224.7524 H   0  0  0  0  0  0  0  0  0  0  0  0
  138.9451   71.7281  224.9980 H   0  0  0  0  0  0  0  0  0  0  0  0
  139.7299   69.0906  224.7798 H   0  0  0  0  0  0  0  0  0  0  0  0
  140.9559   70.2867  224.0651 H   0  0  0  0  0  0  0  0  0  0  0  0
  141.5768   72.2611  225.9589 H   0  0  0  0  0  0  0  0  0  0  0  0
  139.8652   72.3884  226.2920 H   0  0  0  0  0  0  0  0  0  0  0  0
  142.0761   71.1659  228.1392 H   0  0  0  0  0  0  0  0  0  0  0  0
  141.0448   72.4835  228.5825 H   0  0  0  0  0  0  0  0  0  0  0  0
  140.3446   69.8959  229.1576 H   0  0  0  0  0  0  0  0  0  0  0  0
  139.0714   71.0120  228.6983 H   0  0  0  0  0  0  0  0  0  0  0  0
  140.1840   68.7433  227.2131 H   0  0  0  0  0  0  0  0  0  0  0  0
  138.7545   69.7277  226.8035 H   0  0  0  0  0  0  0  0  0  0  0  0
  137.3368   78.4078  222.8328 H   0  0  0  0  0  0  0  0  0  0  0  0
  138.2907   80.6528  223.3092 H   0  0  0  0  0  0  0  0  0  0  0  0
  140.1304   82.1009  223.6450 H   0  0  0  0  0  0  0  0  0  0  0  0
  142.5721   82.4694  223.7714 H   0  0  0  0  0  0  0  0  0  0  0  0
  144.1277   80.5416  223.4162 H   0  0  0  0  0  0  0  0  0  0  0  0
  143.1967   78.2835  222.9372 H   0  0  0  0  0  0  0  0  0  0  0  0
  1  2  2  0
  2  3  1  0
  3  4  1  0
  4  5  1  0
  5  6  2  0
  5  7  1  0
  7  8  1  0
  8  9  1  0
  9 10  1  0
 10 11  1  0
 11 12  1  0
 12 13  1  0
 13 14  1  0
 14 15  1  0
 15 16  1  0
 16 17  1  0
  2 18  1  0
 18 19  2  0
 19 20  1  0
 20 21  2  0
 21 22  1  0
 22 23  2  0
 23 24  1  0
 24 25  2  0
 25 26  1  0
 26 27  2  0
 11  7  1  0
 17 13  1  0
 27 18  1  0
 26 21  1  0
  3 28  1  0
  4 29  1  0
  4 30  1  0
  8 31  1  0
  8 32  1  0
  9 33  1  0
  9 34  1  0
 10 35  1  0
 10 36  1  0
 11 37  1  1
 12 38  1  0
 12 39  1  0
 14 40  1  0
 14 41  1  0
 15 42  1  0
 15 43  1  0
 16 44  1  0
 16 45  1  0
 17 46  1  0
 17 47  1  0
 19 48  1  0
 20 49  1  0
 22 50  1  0
 23 51  1  0
 24 52  1  0
 25 53  1  0
M  END
>  <smiles>  (50) 
O=C(NCC(=O)N1CCC[C@H]1CN1CCCC1)c1ccc2ccccc2n1

>  <score_type>  (50) 
oracle

>  <origin>  (50) 
autodockgpu

>  <m_score__min__energy>  (50) 
-8.3499999999999996

>  <m_primary>  (50) 
energy

>  <rmsd>  (50) 
9.237910818982774

>  <m_score__min__rmsd>  (50) 
9.237910818982774

>  <meeko>  (50) 
{"free_energy": -7.77, "intermolecular_energy": -9.56, "internal_energy": -1.84, "cluster_size": 3, "cluster_id": 3, "rank_in_cluster": 1}

>  <energy>  (50) 
-5.74

>  <cluster_rmsd>  (50) 
0.0

>  <cluster>  (50) 
4

$$$$
