
     RDKit          3D

 43 45  0  0  0  0  0  0  0  0999 V2000
  142.1730   79.4050  222.4010 N   0  0  0  0  0  0  0  0  0  0  0  0
  141.0270   78.5670  222.4980 C   0  0  0  0  0  0  0  0  0  0  0  0
  139.8060   79.0360  222.9870 C   0  0  0  0  0  0  0  0  0  0  0  0
  138.6990   78.1900  223.0700 C   0  0  0  0  0  0  0  0  0  0  0  0
  138.7870   76.8810  222.6730 C   0  0  0  0  0  0  0  0  0  0  0  0
  137.6800   75.9070  222.7130 C   0  0  0  0  0  0  0  0  0  0  0  0
  138.0890   74.5650  222.3420 N   0  0  0  0  0  0  0  0  0  0  0  0
  137.7170   73.9370  221.1270 C   0  0  0  0  0  0  0  0  0  0  0  0
  136.9930   74.4940  220.2620 O   0  0  0  0  0  0  0  0  0  0  0  0
  138.1930   72.5720  220.8540 C   0  0  0  0  0  0  0  0  0  0  0  0
  138.3890   71.7980  222.0630 N   0  0  0  0  0  0  0  0  0  0  0  0
  139.5880   72.0350  222.7950 C   0  0  0  0  0  0  0  0  0  0  0  0
  140.4140   72.9010  222.3540 O   0  0  0  0  0  0  0  0  0  0  0  0
  139.8680   71.2980  224.0330 C   0  0  0  0  0  0  0  0  0  0  0  0
  140.6730   71.9030  224.9840 C   0  0  0  0  0  0  0  0  0  0  0  0
  140.9990   71.2990  226.1790 C   0  0  0  0  0  0  0  0  0  0  0  0
  140.4990   70.0470  226.4220 C   0  0  0  0  0  0  0  0  0  0  0  0
  140.7360   69.3300  227.5580 C   0  0  0  0  0  0  0  0  0  0  0  0
  140.2360   68.0710  227.8110 C   0  0  0  0  0  0  0  0  0  0  0  0
  139.4310   67.4960  226.8280 C   0  0  0  0  0  0  0  0  0  0  0  0
  139.1690   68.2080  225.6530 C   0  0  0  0  0  0  0  0  0  0  0  0
  139.6930   69.4630  225.4500 C   0  0  0  0  0  0  0  0  0  0  0  0
  139.3940   70.0810  224.2930 N   0  0  0  0  0  0  0  0  0  0  0  0
  140.0110   76.4410  222.1910 C   0  0  0  0  0  0  0  0  0  0  0  0
  141.1050   77.2530  222.1010 C   0  0  0  0  0  0  0  0  0  0  0  0
  142.2020   80.2740  222.9840 H   0  0  0  0  0  0  0  0  0  0  0  0
  142.9890   79.2050  221.7810 H   0  0  0  0  0  0  0  0  0  0  0  0
  139.7156   80.0835  223.3103 H   0  0  0  0  0  0  0  0  0  0  0  0
  137.7457   78.5779  223.4582 H   0  0  0  0  0  0  0  0  0  0  0  0
  137.2747   75.8795  223.7352 H   0  0  0  0  0  0  0  0  0  0  0  0
  136.9278   76.2350  221.9805 H   0  0  0  0  0  0  0  0  0  0  0  0
  138.7030   74.0160  223.0140 H   0  0  0  0  0  0  0  0  0  0  0  0
  137.4510   72.0596  220.2241 H   0  0  0  0  0  0  0  0  0  0  0  0
  139.1669   72.6535  220.3491 H   0  0  0  0  0  0  0  0  0  0  0  0
  137.7030   71.0890  222.4110 H   0  0  0  0  0  0  0  0  0  0  0  0
  141.0689   72.9081  224.7766 H   0  0  0  0  0  0  0  0  0  0  0  0
  141.6405   71.8063  226.9146 H   0  0  0  0  0  0  0  0  0  0  0  0
  141.3725   69.7902  228.3281 H   0  0  0  0  0  0  0  0  0  0  0  0
  140.4622   67.5420  228.7485 H   0  0  0  0  0  0  0  0  0  0  0  0
  139.0062   66.4921  226.9754 H   0  0  0  0  0  0  0  0  0  0  0  0
  138.5327   67.7561  224.8778 H   0  0  0  0  0  0  0  0  0  0  0  0
  140.1042   75.3937  221.8676 H   0  0  0  0  0  0  0  0  0  0  0  0
  142.0524   76.8543  221.7093 H   0  0  0  0  0  0  0  0  0  0  0  0
  1  2  1  0
  2  3  2  0
  3  4  1  0
  4  5  2  0
  5  6  1  0
  6  7  1  0
  7  8  1  0
  8  9  2  0
  8 10  1  0
 10 11  1  0
 11 12  1  0
 12 13  2  0
 12 14  1  0
 14 15  2  0
 15 16  1  0
 16 17  2  0
 17 18  1  0
 18 19  2  0
 19 20  1  0
 20 21  2  0
 21 22  1  0
 22 23  2  0
  5 24  1  0
 24 25  2  0
 25  2  1  0
 23 14  1  0
 22 17  1  0
  1 26  1  0
  1 27  1  0
  3 28  1  0
  4 29  1  0
  6 30  1  0
  6 31  1  0
  7 32  1  0
 10 33  1  0
 10 34  1  0
 11 35  1  0
 15 36  1  0
 16 37  1  0
 18 38  1  0
 19 39  1  0
 20 40  1  0
 21 41  1  0
 24 42  1  0
 25 43  1  0
M  END
>  <smiles>  (1) 
Nc1ccc(CNC(=O)CNC(=O)c2ccc3ccccc3n2)cc1

>  <score_type>  (1) 
oracle

>  <origin>  (1) 
autodockgpu

>  <m_score__min__energy>  (1) 
-8.3100000000000005

>  <m_primary>  (1) 
energy

>  <rmsd>  (1) 
3.668676997392025

>  <m_score__min__rmsd>  (1) 
3.668676997392025

>  <meeko>  (1) 
{"free_energy": -7.4, "intermolecular_energy": -9.19, "internal_energy": -1.68, "cluster_size": 28, "cluster_id": 1, "rank_in_cluster": 24}

>  <energy>  (1) 
-8.31

>  <cluster_rmsd>  (1) 
0.0

>  <cluster>  (1) 
1

$$$$

     RDKit          3D

 43 45  0  0  0  0  0  0  0  0999 V2000
  142.8000   78.6450  216.8110 N   0  0  0  0  0  0  0  0  0  0  0  0
  142.7780   77.6270  217.8050 C   0  0  0  0  0  0  0  0  0  0  0  0
  142.2390   77.8420  219.0750 C   0  0  0  0  0  0  0  0  0  0  0  0
  142.2310   76.8240  220.0300 C   0  0  0  0  0  0  0  0  0  0  0  0
  142.7520   75.5900  219.7400 C   0  0  0  0  0  0  0  0  0  0  0  0
  142.7890   74.4460  220.6700 C   0  0  0  0  0  0  0  0  0  0  0  0
  141.5270   73.7350  220.7470 N   0  0  0  0  0  0  0  0  0  0  0  0
  140.3760   74.2440  221.4010 C   0  0  0  0  0  0  0  0  0  0  0  0
  140.3530   75.3640  221.9730 O   0  0  0  0  0  0  0  0  0  0  0  0
  139.1470   73.4350  221.4150 C   0  0  0  0  0  0  0  0  0  0  0  0
  139.0400   72.6060  222.5970 N   0  0  0  0  0  0  0  0  0  0  0  0
  139.9590   71.5230  222.7140 C   0  0  0  0  0  0  0  0  0  0  0  0
  140.8140   71.3440  221.7840 O   0  0  0  0  0  0  0  0  0  0  0  0
  139.9250   70.6330  223.8790 C   0  0  0  0  0  0  0  0  0  0  0  0
  139.2380   69.4350  223.7650 C   0  0  0  0  0  0  0  0  0  0  0  0
  139.1430   68.5270  224.7970 C   0  0  0  0  0  0  0  0  0  0  0  0
  139.7580   68.8370  225.9810 C   0  0  0  0  0  0  0  0  0  0  0  0
  139.7490   68.0370  227.0860 C   0  0  0  0  0  0  0  0  0  0  0  0
  140.3660   68.3390  228.2800 C   0  0  0  0  0  0  0  0  0  0  0  0
  141.0470   69.5540  228.3550 C   0  0  0  0  0  0  0  0  0  0  0  0
  141.0750   70.3950  227.2380 C   0  0  0  0  0  0  0  0  0  0  0  0
  140.4410   70.0450  226.0680 C   0  0  0  0  0  0  0  0  0  0  0  0
  140.5150   70.9100  225.0400 N   0  0  0  0  0  0  0  0  0  0  0  0
  143.2810   75.4020  218.4710 C   0  0  0  0  0  0  0  0  0  0  0  0
  143.2970   76.3850  217.5240 C   0  0  0  0  0  0  0  0  0  0  0  0
  142.3130   78.4600  215.9020 H   0  0  0  0  0  0  0  0  0  0  0  0
  143.2720   79.5670  216.9330 H   0  0  0  0  0  0  0  0  0  0  0  0
  141.8155   78.8257  219.3260 H   0  0  0  0  0  0  0  0  0  0  0  0
  141.8024   77.0141  221.0251 H   0  0  0  0  0  0  0  0  0  0  0  0
  143.5660   73.7447  220.3317 H   0  0  0  0  0  0  0  0  0  0  0  0
  143.0028   74.8448  221.6726 H   0  0  0  0  0  0  0  0  0  0  0  0
  141.4530   72.7770  220.2920 H   0  0  0  0  0  0  0  0  0  0  0  0
  138.2799   74.1108  221.3789 H   0  0  0  0  0  0  0  0  0  0  0  0
  139.1775   72.7674  220.5413 H   0  0  0  0  0  0  0  0  0  0  0  0
  138.3310   72.7640  223.3500 H   0  0  0  0  0  0  0  0  0  0  0  0
  138.7473   69.1987  222.8093 H   0  0  0  0  0  0  0  0  0  0  0  0
  138.5910   67.5835  224.6740 H   0  0  0  0  0  0  0  0  0  0  0  0
  139.2095   67.0808  227.0186 H   0  0  0  0  0  0  0  0  0  0  0  0
  140.3235   67.6514  229.1376 H   0  0  0  0  0  0  0  0  0  0  0  0
  141.5573   69.8479  229.2841 H   0  0  0  0  0  0  0  0  0  0  0  0
  141.6131   71.3527  227.2957 H   0  0  0  0  0  0  0  0  0  0  0  0
  143.7054   74.4193  218.2175 H   0  0  0  0  0  0  0  0  0  0  0  0
  143.7269   76.1827  216.5319 H   0  0  0  0  0  0  0  0  0  0  0  0
  1  2  1  0
  2  3  2  0
  3  4  1  0
  4  5  2  0
  5  6  1  0
  6  7  1  0
  7  8  1  0
  8  9  2  0
  8 10  1  0
 10 11  1  0
 11 12  1  0
 12 13  2  0
 12 14  1  0
 14 15  2  0
 15 16  1  0
 16 17  2  0
 17 18  1  0
 18 19  2  0
 19 20  1  0
 20 21  2  0
 21 22  1  0
 22 23  2  0
  5 24  1  0
 24 25  2  0
 25  2  1  0
 23 14  1  0
 22 17  1  0
  1 26  1  0
  1 27  1  0
  3 28  1  0
  4 29  1  0
  6 30  1  0
  6 31  1  0
  7 32  1  0
 10 33  1  0
 10 34  1  0
 11 35  1  0
 15 36  1  0
 16 37  1  0
 18 38  1  0
 19 39  1  0
 20 40  1  0
 21 41  1  0
 24 42  1  0
 25 43  1  0
M  END
>  <smiles>  (2) 
Nc1ccc(CNC(=O)CNC(=O)c2ccc3ccccc3n2)cc1

>  <score_type>  (2) 
oracle

>  <origin>  (2) 
autodockgpu

>  <m_score__min__energy>  (2) 
-8.3100000000000005

>  <m_primary>  (2) 
energy

>  <rmsd>  (2) 
2.3891053592830325

>  <m_score__min__rmsd>  (2) 
2.3891053592830325

>  <meeko>  (2) 
{"free_energy": -7.36, "intermolecular_energy": -9.15, "internal_energy": -1.44, "cluster_size": 14, "cluster_id": 2, "rank_in_cluster": 14}

>  <energy>  (2) 
-8.25

>  <cluster_rmsd>  (2) 
0.41

>  <cluster>  (2) 
1

$$$$

     RDKit          3D

 43 45  0  0  0  0  0  0  0  0999 V2000
  143.3270   80.8460  224.2200 N   0  0  0  0  0  0  0  0  0  0  0  0
  142.4660   80.1210  223.3500 C   0  0  0  0  0  0  0  0  0  0  0  0
  142.2760   80.4920  222.0180 C   0  0  0  0  0  0  0  0  0  0  0  0
  141.4240   79.7610  221.1880 C   0  0  0  0  0  0  0  0  0  0  0  0
  140.7580   78.6620  221.6640 C   0  0  0  0  0  0  0  0  0  0  0  0
  139.8420   77.8170  220.8730 C   0  0  0  0  0  0  0  0  0  0  0  0
  140.2720   76.4340  220.7910 N   0  0  0  0  0  0  0  0  0  0  0  0
  139.8260   75.4180  221.6730 C   0  0  0  0  0  0  0  0  0  0  0  0
  139.0140   75.6330  222.6100 O   0  0  0  0  0  0  0  0  0  0  0  0
  140.3270   74.0470  221.4940 C   0  0  0  0  0  0  0  0  0  0  0  0
  139.9550   73.1700  222.5860 N   0  0  0  0  0  0  0  0  0  0  0  0
  140.7090   71.9700  222.7370 C   0  0  0  0  0  0  0  0  0  0  0  0
  141.6550   71.7330  221.9140 O   0  0  0  0  0  0  0  0  0  0  0  0
  140.4030   71.0240  223.8160 C   0  0  0  0  0  0  0  0  0  0  0  0
  139.5730   69.9530  223.5290 C   0  0  0  0  0  0  0  0  0  0  0  0
  139.2230   69.0070  224.4690 C   0  0  0  0  0  0  0  0  0  0  0  0
  139.7230   69.1480  225.7370 C   0  0  0  0  0  0  0  0  0  0  0  0
  139.4630   68.2920  226.7660 C   0  0  0  0  0  0  0  0  0  0  0  0
  139.9620   68.4250  228.0430 C   0  0  0  0  0  0  0  0  0  0  0  0
  140.7920   69.5160  228.2920 C   0  0  0  0  0  0  0  0  0  0  0  0
  141.0780   70.4110  227.2560 C   0  0  0  0  0  0  0  0  0  0  0  0
  140.5530   70.2330  225.9970 C   0  0  0  0  0  0  0  0  0  0  0  0
  140.8760   71.1380  225.0560 N   0  0  0  0  0  0  0  0  0  0  0  0
  140.9640   78.3140  222.9910 C   0  0  0  0  0  0  0  0  0  0  0  0
  141.7930   79.0170  223.8180 C   0  0  0  0  0  0  0  0  0  0  0  0
  142.8930   81.4800  224.9310 H   0  0  0  0  0  0  0  0  0  0  0  0
  144.3690   80.7840  224.1920 H   0  0  0  0  0  0  0  0  0  0  0  0
  142.8035   81.3703  221.6176 H   0  0  0  0  0  0  0  0  0  0  0  0
  141.2859   80.0703  220.1415 H   0  0  0  0  0  0  0  0  0  0  0  0
  138.8466   77.8471  221.3402 H   0  0  0  0  0  0  0  0  0  0  0  0
  139.8283   78.2176  219.8486 H   0  0  0  0  0  0  0  0  0  0  0  0
  140.9610   76.1590  220.0290 H   0  0  0  0  0  0  0  0  0  0  0  0
  139.9137   73.6403  220.5592 H   0  0  0  0  0  0  0  0  0  0  0  0
  141.4256   74.0952  221.4652 H   0  0  0  0  0  0  0  0  0  0  0  0
  139.1750   73.3770  223.2510 H   0  0  0  0  0  0  0  0  0  0  0  0
  139.1762   69.8529  222.5079 H   0  0  0  0  0  0  0  0  0  0  0  0
  138.5634   68.1659  224.2093 H   0  0  0  0  0  0  0  0  0  0  0  0
  138.8072   67.4329  226.5615 H   0  0  0  0  0  0  0  0  0  0  0  0
  139.7156   67.7003  228.8330 H   0  0  0  0  0  0  0  0  0  0  0  0
  141.2183   69.6720  229.2940 H   0  0  0  0  0  0  0  0  0  0  0  0
  141.7341   71.2721  227.4513 H   0  0  0  0  0  0  0  0  0  0  0  0
  140.4381   77.4358  223.3937 H   0  0  0  0  0  0  0  0  0  0  0  0
  141.9228   78.6987  224.8629 H   0  0  0  0  0  0  0  0  0  0  0  0
  1  2  1  0
  2  3  2  0
  3  4  1  0
  4  5  2  0
  5  6  1  0
  6  7  1  0
  7  8  1  0
  8  9  2  0
  8 10  1  0
 10 11  1  0
 11 12  1  0
 12 13  2  0
 12 14  1  0
 14 15  2  0
 15 16  1  0
 16 17  2  0
 17 18  1  0
 18 19  2  0
 19 20  1  0
 20 21  2  0
 21 22  1  0
 22 23  2  0
  5 24  1  0
 24 25  2  0
 25  2  1  0
 23 14  1  0
 22 17  1  0
  1 26  1  0
  1 27  1  0
  3 28  1  0
  4 29  1  0
  6 30  1  0
  6 31  1  0
  7 32  1  0
 10 33  1  0
 10 34  1  0
 11 35  1  0
 15 36  1  0
 16 37  1  0
 18 38  1  0
 19 39  1  0
 20 40  1  0
 21 41  1  0
 24 42  1  0
 25 43  1  0
M  END
>  <smiles>  (3) 
Nc1ccc(CNC(=O)CNC(=O)c2ccc3ccccc3n2)cc1

>  <score_type>  (3) 
oracle

>  <origin>  (3) 
autodockgpu

>  <m_score__min__energy>  (3) 
-8.3100000000000005

>  <m_primary>  (3) 
energy

>  <rmsd>  (3) 
2.9491529905572103

>  <m_score__min__rmsd>  (3) 
2.9491529905572103

>  <meeko>  (3) 
{"free_energy": -7.5, "intermolecular_energy": -9.29, "internal_energy": -1.14, "cluster_size": 28, "cluster_id": 1, "rank_in_cluster": 20}

>  <energy>  (3) 
-8.18

>  <cluster_rmsd>  (3) 
0.46

>  <cluster>  (3) 
1

$$$$

     RDKit          3D

 43 45  0  0  0  0  0  0  0  0999 V2000
  142.4980   79.3920  217.3690 N   0  0  0  0  0  0  0  0  0  0  0  0
  142.6060   78.1920  218.1260 C   0  0  0  0  0  0  0  0  0  0  0  0
  143.1990   77.0390  217.6070 C   0  0  0  0  0  0  0  0  0  0  0  0
  143.2910   75.8760  218.3730 C   0  0  0  0  0  0  0  0  0  0  0  0
  142.8010   75.8420  219.6530 C   0  0  0  0  0  0  0  0  0  0  0  0
  142.8510   74.6710  220.5480 C   0  0  0  0  0  0  0  0  0  0  0  0
  141.5940   73.9490  220.6130 N   0  0  0  0  0  0  0  0  0  0  0  0
  140.4590   74.4090  221.3270 C   0  0  0  0  0  0  0  0  0  0  0  0
  140.4470   75.4890  221.9710 O   0  0  0  0  0  0  0  0  0  0  0  0
  139.2340   73.5940  221.3210 C   0  0  0  0  0  0  0  0  0  0  0  0
  139.1100   72.7650  222.5020 N   0  0  0  0  0  0  0  0  0  0  0  0
  140.0630   71.7160  222.6590 C   0  0  0  0  0  0  0  0  0  0  0  0
  140.9590   71.5640  221.7630 O   0  0  0  0  0  0  0  0  0  0  0  0
  140.0150   70.8280  223.8260 C   0  0  0  0  0  0  0  0  0  0  0  0
  139.3790   69.6050  223.6890 C   0  0  0  0  0  0  0  0  0  0  0  0
  139.2770   68.6980  224.7210 C   0  0  0  0  0  0  0  0  0  0  0  0
  139.8310   69.0340  225.9280 C   0  0  0  0  0  0  0  0  0  0  0  0
  139.8080   68.2380  227.0350 C   0  0  0  0  0  0  0  0  0  0  0  0
  140.3630   68.5680  228.2510 C   0  0  0  0  0  0  0  0  0  0  0  0
  140.9940   69.8080  228.3490 C   0  0  0  0  0  0  0  0  0  0  0  0
  141.0350   70.6460  227.2300 C   0  0  0  0  0  0  0  0  0  0  0  0
  140.4630   70.2680  226.0370 C   0  0  0  0  0  0  0  0  0  0  0  0
  140.5460   71.1320  225.0080 N   0  0  0  0  0  0  0  0  0  0  0  0
  142.2160   77.0000  220.1440 C   0  0  0  0  0  0  0  0  0  0  0  0
  142.1180   78.1470  219.4100 C   0  0  0  0  0  0  0  0  0  0  0  0
  143.3110   79.6760  216.7740 H   0  0  0  0  0  0  0  0  0  0  0  0
  141.6560   80.0080  217.3710 H   0  0  0  0  0  0  0  0  0  0  0  0
  143.5984   77.0476  216.5821 H   0  0  0  0  0  0  0  0  0  0  0  0
  143.7612   74.9780  217.9457 H   0  0  0  0  0  0  0  0  0  0  0  0
  143.6300   73.9851  220.1837 H   0  0  0  0  0  0  0  0  0  0  0  0
  143.0686   75.0417  221.5606 H   0  0  0  0  0  0  0  0  0  0  0  0
  141.5120   73.0220  220.0980 H   0  0  0  0  0  0  0  0  0  0  0  0
  138.3644   74.2657  221.2693 H   0  0  0  0  0  0  0  0  0  0  0  0
  139.2832   72.9256  220.4488 H   0  0  0  0  0  0  0  0  0  0  0  0
  138.3680   72.9000  223.2260 H   0  0  0  0  0  0  0  0  0  0  0  0
  138.9368   69.3472  222.7153 H   0  0  0  0  0  0  0  0  0  0  0  0
  138.7665   67.7339  224.5801 H   0  0  0  0  0  0  0  0  0  0  0  0
  139.3097   67.2610  226.9503 H   0  0  0  0  0  0  0  0  0  0  0  0
  140.3110   67.8823  229.1095 H   0  0  0  0  0  0  0  0  0  0  0  0
  141.4547   70.1236  229.2967 H   0  0  0  0  0  0  0  0  0  0  0  0
  141.5330   71.6239  227.3049 H   0  0  0  0  0  0  0  0  0  0  0  0
  141.8141   76.9939  221.1679 H   0  0  0  0  0  0  0  0  0  0  0  0
  141.6464   79.0390  219.8482 H   0  0  0  0  0  0  0  0  0  0  0  0
  1  2  1  0
  2  3  2  0
  3  4  1  0
  4  5  2  0
  5  6  1  0
  6  7  1  0
  7  8  1  0
  8  9  2  0
  8 10  1  0
 10 11  1  0
 11 12  1  0
 12 13  2  0
 12 14  1  0
 14 15  2  0
 15 16  1  0
 16 17  2  0
 17 18  1  0
 18 19  2  0
 19 20  1  0
 20 21  2  0
 21 22  1  0
 22 23  2  0
  5 24  1  0
 24 25  2  0
 25  2  1  0
 23 14  1  0
 22 17  1  0
  1 26  1  0
  1 27  1  0
  3 28  1  0
  4 29  1  0
  6 30  1  0
  6 31  1  0
  7 32  1  0
 10 33  1  0
 10 34  1  0
 11 35  1  0
 15 36  1  0
 16 37  1  0
 18 38  1  0
 19 39  1  0
 20 40  1  0
 21 41  1  0
 24 42  1  0
 25 43  1  0
M  END
>  <smiles>  (4) 
Nc1ccc(CNC(=O)CNC(=O)c2ccc3ccccc3n2)cc1

>  <score_type>  (4) 
oracle

>  <origin>  (4) 
autodockgpu

>  <m_score__min__energy>  (4) 
-8.3100000000000005

>  <m_primary>  (4) 
energy

>  <rmsd>  (4) 
2.5135153034625435

>  <m_score__min__rmsd>  (4) 
2.5135153034625435

>  <meeko>  (4) 
{"free_energy": -7.55, "intermolecular_energy": -9.34, "internal_energy": -1.31, "cluster_size": 14, "cluster_id": 2, "rank_in_cluster": 8}

>  <energy>  (4) 
-8.1

>  <cluster_rmsd>  (4) 
0.51

>  <cluster>  (4) 
1

$$$$

     RDKit          3D

 43 45  0  0  0  0  0  0  0  0999 V2000
  146.5380   72.9970  221.3860 N   0  0  0  0  0  0  0  0  0  0  0  0
  145.2410   73.3440  220.9150 C   0  0  0  0  0  0  0  0  0  0  0  0
  144.9310   74.6350  220.4830 C   0  0  0  0  0  0  0  0  0  0  0  0
  143.6490   74.9460  220.0250 C   0  0  0  0  0  0  0  0  0  0  0  0
  142.6680   73.9890  219.9900 C   0  0  0  0  0  0  0  0  0  0  0  0
  141.2880   74.2090  219.5210 C   0  0  0  0  0  0  0  0  0  0  0  0
  140.3380   73.2700  220.0880 N   0  0  0  0  0  0  0  0  0  0  0  0
  139.0140   73.6170  220.4580 C   0  0  0  0  0  0  0  0  0  0  0  0
  138.5480   74.7780  220.3240 O   0  0  0  0  0  0  0  0  0  0  0  0
  138.1350   72.5810  221.0230 C   0  0  0  0  0  0  0  0  0  0  0  0
  138.4610   72.2640  222.3980 N   0  0  0  0  0  0  0  0  0  0  0  0
  139.5130   71.3280  222.6140 C   0  0  0  0  0  0  0  0  0  0  0  0
  140.1020   70.8240  221.6010 O   0  0  0  0  0  0  0  0  0  0  0  0
  139.9120   70.9490  223.9750 C   0  0  0  0  0  0  0  0  0  0  0  0
  140.6510   71.8570  224.7140 C   0  0  0  0  0  0  0  0  0  0  0  0
  141.0760   71.6020  226.0000 C   0  0  0  0  0  0  0  0  0  0  0  0
  140.7480   70.3950  226.5560 C   0  0  0  0  0  0  0  0  0  0  0  0
  141.0980   70.0050  227.8160 C   0  0  0  0  0  0  0  0  0  0  0  0
  140.7710   68.7940  228.3830 C   0  0  0  0  0  0  0  0  0  0  0  0
  140.0270   67.9070  227.6060 C   0  0  0  0  0  0  0  0  0  0  0  0
  139.6510   68.2780  226.3110 C   0  0  0  0  0  0  0  0  0  0  0  0
  140.0040   69.5020  225.7920 C   0  0  0  0  0  0  0  0  0  0  0  0
  139.6040   69.7830  224.5380 N   0  0  0  0  0  0  0  0  0  0  0  0
  143.0020   72.7150  220.4240 C   0  0  0  0  0  0  0  0  0  0  0  0
  144.2500   72.3920  220.8750 C   0  0  0  0  0  0  0  0  0  0  0  0
  146.7460   71.9860  221.5640 H   0  0  0  0  0  0  0  0  0  0  0  0
  147.2970   73.6900  221.5670 H   0  0  0  0  0  0  0  0  0  0  0  0
  145.7054   75.4160  220.5037 H   0  0  0  0  0  0  0  0  0  0  0  0
  143.4240   75.9690  219.6890 H   0  0  0  0  0  0  0  0  0  0  0  0
  140.9818   75.2281  219.7996 H   0  0  0  0  0  0  0  0  0  0  0  0
  141.2844   74.0616  218.4309 H   0  0  0  0  0  0  0  0  0  0  0  0
  140.6450   72.2630  220.2390 H   0  0  0  0  0  0  0  0  0  0  0  0
  137.0958   72.9392  220.9808 H   0  0  0  0  0  0  0  0  0  0  0  0
  138.2729   71.6660  220.4282 H   0  0  0  0  0  0  0  0  0  0  0  0
  137.9660   72.6840  223.2190 H   0  0  0  0  0  0  0  0  0  0  0  0
  140.9099   72.8227  224.2554 H   0  0  0  0  0  0  0  0  0  0  0  0
  141.6606   72.3452  226.5620 H   0  0  0  0  0  0  0  0  0  0  0  0
  141.6846   70.7102  228.4232 H   0  0  0  0  0  0  0  0  0  0  0  0
  141.0835   68.5369  229.4059 H   0  0  0  0  0  0  0  0  0  0  0  0
  139.7384   66.9245  228.0078 H   0  0  0  0  0  0  0  0  0  0  0  0
  139.0633   67.5794  225.6974 H   0  0  0  0  0  0  0  0  0  0  0  0
  142.2297   71.9320  220.4042 H   0  0  0  0  0  0  0  0  0  0  0  0
  144.4632   71.3654  221.2078 H   0  0  0  0  0  0  0  0  0  0  0  0
  1  2  1  0
  2  3  2  0
  3  4  1  0
  4  5  2  0
  5  6  1  0
  6  7  1  0
  7  8  1  0
  8  9  2  0
  8 10  1  0
 10 11  1  0
 11 12  1  0
 12 13  2  0
 12 14  1  0
 14 15  2  0
 15 16  1  0
 16 17  2  0
 17 18  1  0
 18 19  2  0
 19 20  1  0
 20 21  2  0
 21 22  1  0
 22 23  2  0
  5 24  1  0
 24 25  2  0
 25  2  1  0
 23 14  1  0
 22 17  1  0
  1 26  1  0
  1 27  1  0
  3 28  1  0
  4 29  1  0
  6 30  1  0
  6 31  1  0
  7 32  1  0
 10 33  1  0
 10 34  1  0
 11 35  1  0
 15 36  1  0
 16 37  1  0
 18 38  1  0
 19 39  1  0
 20 40  1  0
 21 41  1  0
 24 42  1  0
 25 43  1  0
M  END
>  <smiles>  (5) 
Nc1ccc(CNC(=O)CNC(=O)c2ccc3ccccc3n2)cc1

>  <score_type>  (5) 
oracle

>  <origin>  (5) 
autodockgpu

>  <m_score__min__energy>  (5) 
-8.3100000000000005

>  <m_primary>  (5) 
energy

>  <rmsd>  (5) 
3.6281535972609253

>  <m_score__min__rmsd>  (5) 
3.6281535972609253

>  <meeko>  (5) 
{"free_energy": -7.15, "intermolecular_energy": -8.94, "internal_energy": -1.62, "cluster_size": 4, "cluster_id": 3, "rank_in_cluster": 3}

>  <energy>  (5) 
-8.08

>  <cluster_rmsd>  (5) 
0.69

>  <cluster>  (5) 
1

$$$$

     RDKit          3D

 43 45  0  0  0  0  0  0  0  0999 V2000
  142.6130   80.2750  217.9370 N   0  0  0  0  0  0  0  0  0  0  0  0
  142.2120   79.5420  219.0880 C   0  0  0  0  0  0  0  0  0  0  0  0
  141.8200   80.1750  220.2700 C   0  0  0  0  0  0  0  0  0  0  0  0
  141.4310   79.4290  221.3840 C   0  0  0  0  0  0  0  0  0  0  0  0
  141.4230   78.0590  221.3400 C   0  0  0  0  0  0  0  0  0  0  0  0
  141.0250   77.1780  222.4540 C   0  0  0  0  0  0  0  0  0  0  0  0
  140.5790   75.8690  222.0130 N   0  0  0  0  0  0  0  0  0  0  0  0
  139.2350   75.5670  221.6810 C   0  0  0  0  0  0  0  0  0  0  0  0
  138.3070   76.4150  221.7430 O   0  0  0  0  0  0  0  0  0  0  0  0
  138.8970   74.2040  221.2420 C   0  0  0  0  0  0  0  0  0  0  0  0
  138.8200   73.2670  222.3430 N   0  0  0  0  0  0  0  0  0  0  0  0
  140.0360   72.6440  222.7490 C   0  0  0  0  0  0  0  0  0  0  0  0
  141.1110   72.9400  222.1290 O   0  0  0  0  0  0  0  0  0  0  0  0
  140.0520   71.6830  223.8580 C   0  0  0  0  0  0  0  0  0  0  0  0
  139.5310   70.4200  223.6340 C   0  0  0  0  0  0  0  0  0  0  0  0
  139.4970   69.4430  224.6050 C   0  0  0  0  0  0  0  0  0  0  0  0
  140.0030   69.7500  225.8400 C   0  0  0  0  0  0  0  0  0  0  0  0
  140.0370   68.8860  226.8960 C   0  0  0  0  0  0  0  0  0  0  0  0
  140.5440   69.1860  228.1400 C   0  0  0  0  0  0  0  0  0  0  0  0
  141.0600   70.4680  228.3260 C   0  0  0  0  0  0  0  0  0  0  0  0
  141.0400   71.3760  227.2620 C   0  0  0  0  0  0  0  0  0  0  0  0
  140.5210   71.0260  226.0380 C   0  0  0  0  0  0  0  0  0  0  0  0
  140.5390   71.9570  225.0670 N   0  0  0  0  0  0  0  0  0  0  0  0
  141.8160   77.4550  220.1550 C   0  0  0  0  0  0  0  0  0  0  0  0
  142.2000   78.1680  219.0550 C   0  0  0  0  0  0  0  0  0  0  0  0
  142.0560   81.1200  217.6680 H   0  0  0  0  0  0  0  0  0  0  0  0
  143.4330   80.0220  217.3420 H   0  0  0  0  0  0  0  0  0  0  0  0
  141.8178   81.2737  220.3236 H   0  0  0  0  0  0  0  0  0  0  0  0
  141.1278   79.9458  222.3065 H   0  0  0  0  0  0  0  0  0  0  0  0
  141.8887   77.0468  223.1224 H   0  0  0  0  0  0  0  0  0  0  0  0
  140.1778   77.6582  222.9655 H   0  0  0  0  0  0  0  0  0  0  0  0
  141.2960   75.0870  221.9320 H   0  0  0  0  0  0  0  0  0  0  0  0
  137.9225   74.2296  220.7325 H   0  0  0  0  0  0  0  0  0  0  0  0
  139.6978   73.8626  220.5696 H   0  0  0  0  0  0  0  0  0  0  0  0
  137.9300   73.0330  222.8410 H   0  0  0  0  0  0  0  0  0  0  0  0
  139.1268   70.1864  222.6380 H   0  0  0  0  0  0  0  0  0  0  0  0
  139.0769   68.4483  224.3949 H   0  0  0  0  0  0  0  0  0  0  0  0
  139.6294   67.8760  226.7416 H   0  0  0  0  0  0  0  0  0  0  0  0
  140.5422   68.4454  228.9534 H   0  0  0  0  0  0  0  0  0  0  0  0
  141.4786   70.7624  229.2997 H   0  0  0  0  0  0  0  0  0  0  0  0
  141.4466   72.3877  227.4072 H   0  0  0  0  0  0  0  0  0  0  0  0
  141.8186   76.3564  220.0986 H   0  0  0  0  0  0  0  0  0  0  0  0
  142.5011   77.6399  218.1382 H   0  0  0  0  0  0  0  0  0  0  0  0
  1  2  1  0
  2  3  2  0
  3  4  1  0
  4  5  2  0
  5  6  1  0
  6  7  1  0
  7  8  1  0
  8  9  2  0
  8 10  1  0
 10 11  1  0
 11 12  1  0
 12 13  2  0
 12 14  1  0
 14 15  2  0
 15 16  1  0
 16 17  2  0
 17 18  1  0
 18 19  2  0
 19 20  1  0
 20 21  2  0
 21 22  1  0
 22 23  2  0
  5 24  1  0
 24 25  2  0
 25  2  1  0
 23 14  1  0
 22 17  1  0
  1 26  1  0
  1 27  1  0
  3 28  1  0
  4 29  1  0
  6 30  1  0
  6 31  1  0
  7 32  1  0
 10 33  1  0
 10 34  1  0
 11 35  1  0
 15 36  1  0
 16 37  1  0
 18 38  1  0
 19 39  1  0
 20 40  1  0
 21 41  1  0
 24 42  1  0
 25 43  1  0
M  END
>  <smiles>  (6) 
Nc1ccc(CNC(=O)CNC(=O)c2ccc3ccccc3n2)cc1

>  <score_type>  (6) 
oracle

>  <origin>  (6) 
autodockgpu

>  <m_score__min__energy>  (6) 
-8.3100000000000005

>  <m_primary>  (6) 
energy

>  <rmsd>  (6) 
2.8468645099667227

>  <m_score__min__rmsd>  (6) 
2.8468645099667227

>  <meeko>  (6) 
{"free_energy": -7.6, "intermolecular_energy": -9.39, "internal_energy": -1.48, "cluster_size": 14, "cluster_id": 2, "rank_in_cluster": 7}

>  <energy>  (6) 
-8.0

>  <cluster_rmsd>  (6) 
0.64

>  <cluster>  (6) 
1

$$$$

     RDKit          3D

 43 45  0  0  0  0  0  0  0  0999 V2000
  141.9980   78.9100  222.8460 N   0  0  0  0  0  0  0  0  0  0  0  0
  140.8810   78.0470  222.6780 C   0  0  0  0  0  0  0  0  0  0  0  0
  139.5710   78.4770  222.9030 C   0  0  0  0  0  0  0  0  0  0  0  0
  138.4940   77.6060  222.7300 C   0  0  0  0  0  0  0  0  0  0  0  0
  138.6990   76.3100  222.3340 C   0  0  0  0  0  0  0  0  0  0  0  0
  137.6350   75.3130  222.1160 C   0  0  0  0  0  0  0  0  0  0  0  0
  138.1420   73.9600  221.9770 N   0  0  0  0  0  0  0  0  0  0  0  0
  137.7980   73.0970  220.9070 C   0  0  0  0  0  0  0  0  0  0  0  0
  137.0160   73.4330  219.9800 O   0  0  0  0  0  0  0  0  0  0  0  0
  138.3760   71.7450  220.8660 C   0  0  0  0  0  0  0  0  0  0  0  0
  138.5820   71.1870  222.1860 N   0  0  0  0  0  0  0  0  0  0  0  0
  139.7600   71.5860  222.8810 C   0  0  0  0  0  0  0  0  0  0  0  0
  140.5610   72.3990  222.3110 O   0  0  0  0  0  0  0  0  0  0  0  0
  140.0490   71.0720  224.2250 C   0  0  0  0  0  0  0  0  0  0  0  0
  140.8260   71.8490  225.0680 C   0  0  0  0  0  0  0  0  0  0  0  0
  141.1560   71.4610  226.3480 C   0  0  0  0  0  0  0  0  0  0  0  0
  140.6900   70.2520  226.7910 C   0  0  0  0  0  0  0  0  0  0  0  0
  140.9350   69.7390  228.0320 C   0  0  0  0  0  0  0  0  0  0  0  0
  140.4700   68.5250  228.4850 C   0  0  0  0  0  0  0  0  0  0  0  0
  139.6920   67.7720  227.6070 C   0  0  0  0  0  0  0  0  0  0  0  0
  139.4220   68.2720  226.3290 C   0  0  0  0  0  0  0  0  0  0  0  0
  139.9120   69.4920  225.9240 C   0  0  0  0  0  0  0  0  0  0  0  0
  139.6080   69.9010  224.6790 N   0  0  0  0  0  0  0  0  0  0  0  0
  140.0080   75.9080  222.1170 C   0  0  0  0  0  0  0  0  0  0  0  0
  141.0750   76.7450  222.2810 C   0  0  0  0  0  0  0  0  0  0  0  0
  141.8270   79.8760  223.2120 H   0  0  0  0  0  0  0  0  0  0  0  0
  142.9820   78.6390  222.6250 H   0  0  0  0  0  0  0  0  0  0  0  0
  139.3861   79.5139  223.2202 H   0  0  0  0  0  0  0  0  0  0  0  0
  137.4700   77.9635  222.9134 H   0  0  0  0  0  0  0  0  0  0  0  0
  136.9466   75.3425  222.9735 H   0  0  0  0  0  0  0  0  0  0  0  0
  137.1305   75.5726  221.1736 H   0  0  0  0  0  0  0  0  0  0  0  0
  138.8110   73.5880  222.7160 H   0  0  0  0  0  0  0  0  0  0  0  0
  137.6937   71.0870  220.3080 H   0  0  0  0  0  0  0  0  0  0  0  0
  139.3592   71.8178  220.3780 H   0  0  0  0  0  0  0  0  0  0  0  0
  137.9170   70.5180  222.6400 H   0  0  0  0  0  0  0  0  0  0  0  0
  141.1955   72.8174  224.6997 H   0  0  0  0  0  0  0  0  0  0  0  0
  141.7742   72.1020  226.9937 H   0  0  0  0  0  0  0  0  0  0  0  0
  141.5485   70.3392  228.7200 H   0  0  0  0  0  0  0  0  0  0  0  0
  140.7027   68.1642  229.4977 H   0  0  0  0  0  0  0  0  0  0  0  0
  139.2943   66.7941  227.9162 H   0  0  0  0  0  0  0  0  0  0  0  0
  138.8071   67.6794  225.6356 H   0  0  0  0  0  0  0  0  0  0  0  0
  140.1952   74.8716  221.7995 H   0  0  0  0  0  0  0  0  0  0  0  0
  142.0942   76.3756  222.0946 H   0  0  0  0  0  0  0  0  0  0  0  0
  1  2  1  0
  2  3  2  0
  3  4  1  0
  4  5  2  0
  5  6  1  0
  6  7  1  0
  7  8  1  0
  8  9  2  0
  8 10  1  0
 10 11  1  0
 11 12  1  0
 12 13  2  0
 12 14  1  0
 14 15  2  0
 15 16  1  0
 16 17  2  0
 17 18  1  0
 18 19  2  0
 19 20  1  0
 20 21  2  0
 21 22  1  0
 22 23  2  0
  5 24  1  0
 24 25  2  0
 25  2  1  0
 23 14  1  0
 22 17  1  0
  1 26  1  0
  1 27  1  0
  3 28  1  0
  4 29  1  0
  6 30  1  0
  6 31  1  0
  7 32  1  0
 10 33  1  0
 10 34  1  0
 11 35  1  0
 15 36  1  0
 16 37  1  0
 18 38  1  0
 19 39  1  0
 20 40  1  0
 21 41  1  0
 24 42  1  0
 25 43  1  0
M  END
>  <smiles>  (7) 
Nc1ccc(CNC(=O)CNC(=O)c2ccc3ccccc3n2)cc1

>  <score_type>  (7) 
oracle

>  <origin>  (7) 
autodockgpu

>  <m_score__min__energy>  (7) 
-8.3100000000000005

>  <m_primary>  (7) 
energy

>  <rmsd>  (7) 
3.5878014286984423

>  <m_score__min__rmsd>  (7) 
3.5878014286984423

>  <meeko>  (7) 
{"free_energy": -7.12, "intermolecular_energy": -8.91, "internal_energy": -1.7, "cluster_size": 28, "cluster_id": 1, "rank_in_cluster": 28}

>  <energy>  (7) 
-8.0

>  <cluster_rmsd>  (7) 
0.89

>  <cluster>  (7) 
1

$$$$

     RDKit          3D

 43 45  0  0  0  0  0  0  0  0999 V2000
  146.6700   73.0050  221.6180 N   0  0  0  0  0  0  0  0  0  0  0  0
  145.4260   73.3720  221.0330 C   0  0  0  0  0  0  0  0  0  0  0  0
  144.3930   72.4510  220.8510 C   0  0  0  0  0  0  0  0  0  0  0  0
  143.1820   72.8400  220.2740 C   0  0  0  0  0  0  0  0  0  0  0  0
  142.9830   74.1360  219.8750 C   0  0  0  0  0  0  0  0  0  0  0  0
  141.7460   74.6540  219.2620 C   0  0  0  0  0  0  0  0  0  0  0  0
  140.5530   73.9640  219.7180 N   0  0  0  0  0  0  0  0  0  0  0  0
  140.1020   73.9800  221.0620 C   0  0  0  0  0  0  0  0  0  0  0  0
  140.7030   74.5960  221.9790 O   0  0  0  0  0  0  0  0  0  0  0  0
  138.8760   73.2460  221.4110 C   0  0  0  0  0  0  0  0  0  0  0  0
  138.9450   72.6360  222.7230 N   0  0  0  0  0  0  0  0  0  0  0  0
  140.0830   71.8230  222.9980 C   0  0  0  0  0  0  0  0  0  0  0  0
  140.9650   71.6760  222.0880 O   0  0  0  0  0  0  0  0  0  0  0  0
  140.2380   71.1680  224.3020 C   0  0  0  0  0  0  0  0  0  0  0  0
  140.8650   71.8730  225.3160 C   0  0  0  0  0  0  0  0  0  0  0  0
  141.0620   71.3520  226.5760 C   0  0  0  0  0  0  0  0  0  0  0  0
  140.6150   70.0800  226.8210 C   0  0  0  0  0  0  0  0  0  0  0  0
  140.7390   69.4370  228.0180 C   0  0  0  0  0  0  0  0  0  0  0  0
  140.2910   68.1600  228.2730 C   0  0  0  0  0  0  0  0  0  0  0  0
  139.6660   67.4830  227.2260 C   0  0  0  0  0  0  0  0  0  0  0  0
  139.5220   68.1170  225.9880 C   0  0  0  0  0  0  0  0  0  0  0  0
  139.9880   69.3950  225.7860 C   0  0  0  0  0  0  0  0  0  0  0  0
  139.8120   69.9340  224.5650 N   0  0  0  0  0  0  0  0  0  0  0  0
  144.0260   75.0310  220.0660 C   0  0  0  0  0  0  0  0  0  0  0  0
  145.2160   74.6690  220.6290 C   0  0  0  0  0  0  0  0  0  0  0  0
  147.2870   73.7650  221.9880 H   0  0  0  0  0  0  0  0  0  0  0  0
  147.0060   72.0200  221.7000 H   0  0  0  0  0  0  0  0  0  0  0  0
  144.5344   71.4065  221.1657 H   0  0  0  0  0  0  0  0  0  0  0  0
  142.3803   72.0991  220.1385 H   0  0  0  0  0  0  0  0  0  0  0  0
  141.6510   75.7208  219.5128 H   0  0  0  0  0  0  0  0  0  0  0  0
  141.8245   74.4918  218.1769 H   0  0  0  0  0  0  0  0  0  0  0  0
  139.9810   73.4140  219.0110 H   0  0  0  0  0  0  0  0  0  0  0  0
  138.0286   73.9472  221.3928 H   0  0  0  0  0  0  0  0  0  0  0  0
  138.7509   72.4383  220.6748 H   0  0  0  0  0  0  0  0  0  0  0  0
  138.2120   72.7640  223.4580 H   0  0  0  0  0  0  0  0  0  0  0  0
  141.2209   72.8925  225.1063 H   0  0  0  0  0  0  0  0  0  0  0  0
  141.5623   71.9385  227.3606 H   0  0  0  0  0  0  0  0  0  0  0  0
  141.2326   69.9779  228.8389 H   0  0  0  0  0  0  0  0  0  0  0  0
  140.4206   67.6936  229.2608 H   0  0  0  0  0  0  0  0  0  0  0  0
  139.2898   66.4598  227.3727 H   0  0  0  0  0  0  0  0  0  0  0  0
  139.0278   67.5846  225.1620 H   0  0  0  0  0  0  0  0  0  0  0  0
  143.8883   76.0758  219.7506 H   0  0  0  0  0  0  0  0  0  0  0  0
  146.0103   75.4186  220.7599 H   0  0  0  0  0  0  0  0  0  0  0  0
  1  2  1  0
  2  3  2  0
  3  4  1  0
  4  5  2  0
  5  6  1  0
  6  7  1  0
  7  8  1  0
  8  9  2  0
  8 10  1  0
 10 11  1  0
 11 12  1  0
 12 13  2  0
 12 14  1  0
 14 15  2  0
 15 16  1  0
 16 17  2  0
 17 18  1  0
 18 19  2  0
 19 20  1  0
 20 21  2  0
 21 22  1  0
 22 23  2  0
  5 24  1  0
 24 25  2  0
 25  2  1  0
 23 14  1  0
 22 17  1  0
  1 26  1  0
  1 27  1  0
  3 28  1  0
  4 29  1  0
  6 30  1  0
  6 31  1  0
  7 32  1  0
 10 33  1  0
 10 34  1  0
 11 35  1  0
 15 36  1  0
 16 37  1  0
 18 38  1  0
 19 39  1  0
 20 40  1  0
 21 41  1  0
 24 42  1  0
 25 43  1  0
M  END
>  <smiles>  (8) 
Nc1ccc(CNC(=O)CNC(=O)c2ccc3ccccc3n2)cc1

>  <score_type>  (8) 
oracle

>  <origin>  (8) 
autodockgpu

>  <m_score__min__energy>  (8) 
-8.3100000000000005

>  <m_primary>  (8) 
energy

>  <rmsd>  (8) 
3.8662435733869827

>  <m_score__min__rmsd>  (8) 
3.8662435733869827

>  <meeko>  (8) 
{"free_energy": -8.01, "intermolecular_energy": -9.8, "internal_energy": -0.95, "cluster_size": 4, "cluster_id": 3, "rank_in_cluster": 2}

>  <energy>  (8) 
-7.98

>  <cluster_rmsd>  (8) 
1.05

>  <cluster>  (8) 
1

$$$$

     RDKit          3D

 43 45  0  0  0  0  0  0  0  0999 V2000
  142.8470   81.2630  217.3740 N   0  0  0  0  0  0  0  0  0  0  0  0
  142.4400   80.3920  218.4220 C   0  0  0  0  0  0  0  0  0  0  0  0
  142.5770   79.0050  218.3290 C   0  0  0  0  0  0  0  0  0  0  0  0
  142.1700   78.1750  219.3750 C   0  0  0  0  0  0  0  0  0  0  0  0
  141.6270   78.7040  220.5170 C   0  0  0  0  0  0  0  0  0  0  0  0
  141.1700   77.9210  221.6800 C   0  0  0  0  0  0  0  0  0  0  0  0
  141.2470   76.4880  221.4670 N   0  0  0  0  0  0  0  0  0  0  0  0
  140.1230   75.6260  221.5100 C   0  0  0  0  0  0  0  0  0  0  0  0
  138.9550   76.0340  221.7400 O   0  0  0  0  0  0  0  0  0  0  0  0
  140.3180   74.1860  221.2760 C   0  0  0  0  0  0  0  0  0  0  0  0
  139.9570   73.3810  222.4240 N   0  0  0  0  0  0  0  0  0  0  0  0
  140.6860   72.1730  222.6220 C   0  0  0  0  0  0  0  0  0  0  0  0
  141.6030   71.8680  221.7880 O   0  0  0  0  0  0  0  0  0  0  0  0
  140.3900   71.2960  223.7600 C   0  0  0  0  0  0  0  0  0  0  0  0
  139.6050   70.1770  223.5340 C   0  0  0  0  0  0  0  0  0  0  0  0
  139.2670   69.2890  224.5320 C   0  0  0  0  0  0  0  0  0  0  0  0
  139.7330   69.5370  225.7960 C   0  0  0  0  0  0  0  0  0  0  0  0
  139.4800   68.7480  226.8800 C   0  0  0  0  0  0  0  0  0  0  0  0
  139.9450   68.9890  228.1530 C   0  0  0  0  0  0  0  0  0  0  0  0
  140.7320   70.1260  228.3400 C   0  0  0  0  0  0  0  0  0  0  0  0
  141.0090   70.9540  227.2470 C   0  0  0  0  0  0  0  0  0  0  0  0
  140.5190   70.6670  225.9940 C   0  0  0  0  0  0  0  0  0  0  0  0
  140.8310   71.5150  224.9970 N   0  0  0  0  0  0  0  0  0  0  0  0
  141.5020   80.0840  220.5840 C   0  0  0  0  0  0  0  0  0  0  0  0
  141.8950   80.9120  219.5720 C   0  0  0  0  0  0  0  0  0  0  0  0
  143.5400   80.9070  216.6750 H   0  0  0  0  0  0  0  0  0  0  0  0
  142.4950   82.2380  217.2580 H   0  0  0  0  0  0  0  0  0  0  0  0
  143.0108   78.5615  217.4206 H   0  0  0  0  0  0  0  0  0  0  0  0
  142.2863   77.0851  219.2818 H   0  0  0  0  0  0  0  0  0  0  0  0
  141.7976   78.1805  222.5453 H   0  0  0  0  0  0  0  0  0  0  0  0
  140.1122   78.1712  221.8487 H   0  0  0  0  0  0  0  0  0  0  0  0
  142.1960   76.0530  221.2670 H   0  0  0  0  0  0  0  0  0  0  0  0
  139.6957   73.8805  220.4219 H   0  0  0  0  0  0  0  0  0  0  0  0
  141.3876   74.0227  221.0779 H   0  0  0  0  0  0  0  0  0  0  0  0
  139.2010   73.6430  223.0980 H   0  0  0  0  0  0  0  0  0  0  0  0
  139.2360   69.9895  222.5148 H   0  0  0  0  0  0  0  0  0  0  0  0
  138.6425   68.4085  224.3203 H   0  0  0  0  0  0  0  0  0  0  0  0
  138.8587   67.8535  226.7253 H   0  0  0  0  0  0  0  0  0  0  0  0
  139.7062   68.3136  228.9878 H   0  0  0  0  0  0  0  0  0  0  0  0
  141.1303   70.3686  229.3362 H   0  0  0  0  0  0  0  0  0  0  0  0
  141.6297   71.8505  227.3920 H   0  0  0  0  0  0  0  0  0  0  0  0
  141.0678   80.5301  221.4909 H   0  0  0  0  0  0  0  0  0  0  0  0
  141.7750   82.0003  219.6774 H   0  0  0  0  0  0  0  0  0  0  0  0
  1  2  1  0
  2  3  2  0
  3  4  1  0
  4  5  2  0
  5  6  1  0
  6  7  1  0
  7  8  1  0
  8  9  2  0
  8 10  1  0
 10 11  1  0
 11 12  1  0
 12 13  2  0
 12 14  1  0
 14 15  2  0
 15 16  1  0
 16 17  2  0
 17 18  1  0
 18 19  2  0
 19 20  1  0
 20 21  2  0
 21 22  1  0
 22 23  2  0
  5 24  1  0
 24 25  2  0
 25  2  1  0
 23 14  1  0
 22 17  1  0
  1 26  1  0
  1 27  1  0
  3 28  1  0
  4 29  1  0
  6 30  1  0
  6 31  1  0
  7 32  1  0
 10 33  1  0
 10 34  1  0
 11 35  1  0
 15 36  1  0
 16 37  1  0
 18 38  1  0
 19 39  1  0
 20 40  1  0
 21 41  1  0
 24 42  1  0
 25 43  1  0
M  END
>  <smiles>  (9) 
Nc1ccc(CNC(=O)CNC(=O)c2ccc3ccccc3n2)cc1

>  <score_type>  (9) 
oracle

>  <origin>  (9) 
autodockgpu

>  <m_score__min__energy>  (9) 
-8.3100000000000005

>  <m_primary>  (9) 
energy

>  <rmsd>  (9) 
2.908757000557311

>  <m_score__min__rmsd>  (9) 
2.908757000557311

>  <meeko>  (9) 
{"free_energy": -7.92, "intermolecular_energy": -9.71, "internal_energy": -0.78, "cluster_size": 14, "cluster_id": 2, "rank_in_cluster": 3}

>  <energy>  (9) 
-7.95

>  <cluster_rmsd>  (9) 
0.61

>  <cluster>  (9) 
1

$$$$

     RDKit          3D

 43 45  0  0  0  0  0  0  0  0999 V2000
  142.1360   79.5570  222.3090 N   0  0  0  0  0  0  0  0  0  0  0  0
  141.0420   78.6490  222.3500 C   0  0  0  0  0  0  0  0  0  0  0  0
  139.7280   79.0790  222.5440 C   0  0  0  0  0  0  0  0  0  0  0  0
  138.6750   78.1640  222.5800 C   0  0  0  0  0  0  0  0  0  0  0  0
  138.9090   76.8220  222.4230 C   0  0  0  0  0  0  0  0  0  0  0  0
  137.8710   75.7740  222.4380 C   0  0  0  0  0  0  0  0  0  0  0  0
  138.3890   74.4560  222.1200 N   0  0  0  0  0  0  0  0  0  0  0  0
  138.1160   73.7760  220.9070 C   0  0  0  0  0  0  0  0  0  0  0  0
  137.3950   74.2610  219.9970 O   0  0  0  0  0  0  0  0  0  0  0  0
  138.6980   72.4420  220.6900 C   0  0  0  0  0  0  0  0  0  0  0  0
  138.7970   71.6720  221.9120 N   0  0  0  0  0  0  0  0  0  0  0  0
  139.8810   71.9780  222.7840 C   0  0  0  0  0  0  0  0  0  0  0  0
  140.6970   72.8980  222.4460 O   0  0  0  0  0  0  0  0  0  0  0  0
  140.0580   71.2490  224.0450 C   0  0  0  0  0  0  0  0  0  0  0  0
  140.7360   71.8810  225.0750 C   0  0  0  0  0  0  0  0  0  0  0  0
  140.9570   71.2880  226.2980 C   0  0  0  0  0  0  0  0  0  0  0  0
  140.4810   70.0170  226.4900 C   0  0  0  0  0  0  0  0  0  0  0  0
  140.6240   69.3070  227.6450 C   0  0  0  0  0  0  0  0  0  0  0  0
  140.1490   68.0300  227.8470 C   0  0  0  0  0  0  0  0  0  0  0  0
  139.4720   67.4280  226.7870 C   0  0  0  0  0  0  0  0  0  0  0  0
  139.3090   68.1320  225.5890 C   0  0  0  0  0  0  0  0  0  0  0  0
  139.8040   69.4060  225.4400 C   0  0  0  0  0  0  0  0  0  0  0  0
  139.6050   70.0150  224.2560 N   0  0  0  0  0  0  0  0  0  0  0  0
  140.2220   76.4210  222.2320 C   0  0  0  0  0  0  0  0  0  0  0  0
  141.2660   77.3010  222.1940 C   0  0  0  0  0  0  0  0  0  0  0  0
  142.9840   79.2870  221.7580 H   0  0  0  0  0  0  0  0  0  0  0  0
  142.1450   80.4800  222.7960 H   0  0  0  0  0  0  0  0  0  0  0  0
  139.5203   80.1518  222.6700 H   0  0  0  0  0  0  0  0  0  0  0  0
  137.6469   78.5229  222.7359 H   0  0  0  0  0  0  0  0  0  0  0  0
  137.4213   75.7408  223.4413 H   0  0  0  0  0  0  0  0  0  0  0  0
  137.1327   76.0320  221.6645 H   0  0  0  0  0  0  0  0  0  0  0  0
  139.0090   73.9670  222.8320 H   0  0  0  0  0  0  0  0  0  0  0  0
  138.0644   71.8928  219.9780 H   0  0  0  0  0  0  0  0  0  0  0  0
  139.7174   72.5826  220.3014 H   0  0  0  0  0  0  0  0  0  0  0  0
  138.1200   70.9170  222.1740 H   0  0  0  0  0  0  0  0  0  0  0  0
  141.1140   72.9005  224.9085 H   0  0  0  0  0  0  0  0  0  0  0  0
  141.4985   71.8176  227.0957 H   0  0  0  0  0  0  0  0  0  0  0  0
  141.1580   69.7895  228.4769 H   0  0  0  0  0  0  0  0  0  0  0  0
  140.2974   67.5075  228.8035 H   0  0  0  0  0  0  0  0  0  0  0  0
  139.0700   66.4095  226.8917 H   0  0  0  0  0  0  0  0  0  0  0  0
  138.7756   67.6580  224.7518 H   0  0  0  0  0  0  0  0  0  0  0  0
  140.4322   75.3487  222.1057 H   0  0  0  0  0  0  0  0  0  0  0  0
  142.2898   76.9301  222.0380 H   0  0  0  0  0  0  0  0  0  0  0  0
  1  2  1  0
  2  3  2  0
  3  4  1  0
  4  5  2  0
  5  6  1  0
  6  7  1  0
  7  8  1  0
  8  9  2  0
  8 10  1  0
 10 11  1  0
 11 12  1  0
 12 13  2  0
 12 14  1  0
 14 15  2  0
 15 16  1  0
 16 17  2  0
 17 18  1  0
 18 19  2  0
 19 20  1  0
 20 21  2  0
 21 22  1  0
 22 23  2  0
  5 24  1  0
 24 25  2  0
 25  2  1  0
 23 14  1  0
 22 17  1  0
  1 26  1  0
  1 27  1  0
  3 28  1  0
  4 29  1  0
  6 30  1  0
  6 31  1  0
  7 32  1  0
 10 33  1  0
 10 34  1  0
 11 35  1  0
 15 36  1  0
 16 37  1  0
 18 38  1  0
 19 39  1  0
 20 40  1  0
 21 41  1  0
 24 42  1  0
 25 43  1  0
M  END
>  <smiles>  (10) 
Nc1ccc(CNC(=O)CNC(=O)c2ccc3ccccc3n2)cc1

>  <score_type>  (10) 
oracle

>  <origin>  (10) 
autodockgpu

>  <m_score__min__energy>  (10) 
-8.3100000000000005

>  <m_primary>  (10) 
energy

>  <rmsd>  (10) 
3.554398637246127

>  <m_score__min__rmsd>  (10) 
3.554398637246127

>  <meeko>  (10) 
{"free_energy": -7.27, "intermolecular_energy": -9.06, "internal_energy": -1.67, "cluster_size": 28, "cluster_id": 1, "rank_in_cluster": 25}

>  <energy>  (10) 
-7.94

>  <cluster_rmsd>  (10) 
0.63

>  <cluster>  (10) 
1

$$$$

     RDKit          3D

 43 45  0  0  0  0  0  0  0  0999 V2000
  132.9490   73.1550  227.0880 N   0  0  0  0  0  0  0  0  0  0  0  0
  133.7500   73.7150  226.0540 C   0  0  0  0  0  0  0  0  0  0  0  0
  134.0060   75.0850  225.9740 C   0  0  0  0  0  0  0  0  0  0  0  0
  134.7960   75.6060  224.9480 C   0  0  0  0  0  0  0  0  0  0  0  0
  135.3390   74.7810  223.9970 C   0  0  0  0  0  0  0  0  0  0  0  0
  136.1900   75.2240  222.8770 C   0  0  0  0  0  0  0  0  0  0  0  0
  137.1140   74.2010  222.4250 N   0  0  0  0  0  0  0  0  0  0  0  0
  136.8950   73.3950  221.2790 C   0  0  0  0  0  0  0  0  0  0  0  0
  135.8730   73.4990  220.5530 O   0  0  0  0  0  0  0  0  0  0  0  0
  137.9030   72.3880  220.9120 C   0  0  0  0  0  0  0  0  0  0  0  0
  138.2810   71.5450  222.0280 N   0  0  0  0  0  0  0  0  0  0  0  0
  139.2700   72.0550  222.9180 C   0  0  0  0  0  0  0  0  0  0  0  0
  139.7650   73.2080  222.6880 O   0  0  0  0  0  0  0  0  0  0  0  0
  139.7120   71.2700  224.0770 C   0  0  0  0  0  0  0  0  0  0  0  0
  140.6500   71.8330  224.9260 C   0  0  0  0  0  0  0  0  0  0  0  0
  141.1320   71.1830  226.0410 C   0  0  0  0  0  0  0  0  0  0  0  0
  140.6550   69.9270  226.3070 C   0  0  0  0  0  0  0  0  0  0  0  0
  141.0400   69.1660  227.3730 C   0  0  0  0  0  0  0  0  0  0  0  0
  140.5650   67.9030  227.6480 C   0  0  0  0  0  0  0  0  0  0  0  0
  139.6220   67.3710  226.7690 C   0  0  0  0  0  0  0  0  0  0  0  0
  139.2070   68.1280  225.6680 C   0  0  0  0  0  0  0  0  0  0  0  0
  139.7140   69.3860  225.4380 C   0  0  0  0  0  0  0  0  0  0  0  0
  139.2630   70.0490  224.3580 N   0  0  0  0  0  0  0  0  0  0  0  0
  135.0690   73.4240  224.0990 C   0  0  0  0  0  0  0  0  0  0  0  0
  134.2990   72.8970  225.0950 C   0  0  0  0  0  0  0  0  0  0  0  0
  133.1960   73.3770  228.0810 H   0  0  0  0  0  0  0  0  0  0  0  0
  132.1270   72.5350  226.9170 H   0  0  0  0  0  0  0  0  0  0  0  0
  133.5799   75.7622  226.7288 H   0  0  0  0  0  0  0  0  0  0  0  0
  134.9847   76.6887  224.9020 H   0  0  0  0  0  0  0  0  0  0  0  0
  135.5412   75.5065  222.0348 H   0  0  0  0  0  0  0  0  0  0  0  0
  136.7905   76.0724  223.2370 H   0  0  0  0  0  0  0  0  0  0  0  0
  138.0070   74.0400  222.9790 H   0  0  0  0  0  0  0  0  0  0  0  0
  137.4916   71.7524  220.1140 H   0  0  0  0  0  0  0  0  0  0  0  0
  138.8040   72.9245  220.5798 H   0  0  0  0  0  0  0  0  0  0  0  0
  137.8680   70.6000  222.2020 H   0  0  0  0  0  0  0  0  0  0  0  0
  141.0261   72.8418  224.7006 H   0  0  0  0  0  0  0  0  0  0  0  0
  141.8765   71.6578  226.6969 H   0  0  0  0  0  0  0  0  0  0  0  0
  141.7836   69.5926  228.0623 H   0  0  0  0  0  0  0  0  0  0  0  0
  140.9147   67.3374  228.5243 H   0  0  0  0  0  0  0  0  0  0  0  0
  139.2085   66.3661  226.9396 H   0  0  0  0  0  0  0  0  0  0  0  0
  138.4625   67.7101  224.9744 H   0  0  0  0  0  0  0  0  0  0  0  0
  135.4934   72.7443  223.3454 H   0  0  0  0  0  0  0  0  0  0  0  0
  134.1168   71.8128  225.1306 H   0  0  0  0  0  0  0  0  0  0  0  0
  1  2  1  0
  2  3  2  0
  3  4  1  0
  4  5  2  0
  5  6  1  0
  6  7  1  0
  7  8  1  0
  8  9  2  0
  8 10  1  0
 10 11  1  0
 11 12  1  0
 12 13  2  0
 12 14  1  0
 14 15  2  0
 15 16  1  0
 16 17  2  0
 17 18  1  0
 18 19  2  0
 19 20  1  0
 20 21  2  0
 21 22  1  0
 22 23  2  0
  5 24  1  0
 24 25  2  0
 25  2  1  0
 23 14  1  0
 22 17  1  0
  1 26  1  0
  1 27  1  0
  3 28  1  0
  4 29  1  0
  6 30  1  0
  6 31  1  0
  7 32  1  0
 10 33  1  0
 10 34  1  0
 11 35  1  0
 15 36  1  0
 16 37  1  0
 18 38  1  0
 19 39  1  0
 20 40  1  0
 21 41  1  0
 24 42  1  0
 25 43  1  0
M  END
>  <smiles>  (11) 
Nc1ccc(CNC(=O)CNC(=O)c2ccc3ccccc3n2)cc1

>  <score_type>  (11) 
oracle

>  <origin>  (11) 
autodockgpu

>  <m_score__min__energy>  (11) 
-8.3100000000000005

>  <m_primary>  (11) 
energy

>  <rmsd>  (11) 
5.770069495720299

>  <m_score__min__rmsd>  (11) 
5.770069495720299

>  <meeko>  (11) 
{"free_energy": -7.03, "intermolecular_energy": -8.82, "internal_energy": -1.79, "cluster_size": 3, "cluster_id": 5, "rank_in_cluster": 2}

>  <energy>  (11) 
-7.91

>  <cluster_rmsd>  (11) 
0.91

>  <cluster>  (11) 
1

$$$$

     RDKit          3D

 43 45  0  0  0  0  0  0  0  0999 V2000
  142.3790   79.6170  222.4910 N   0  0  0  0  0  0  0  0  0  0  0  0
  141.2380   78.7700  222.5560 C   0  0  0  0  0  0  0  0  0  0  0  0
  140.0220   79.2050  223.0860 C   0  0  0  0  0  0  0  0  0  0  0  0
  138.9190   78.3510  223.1370 C   0  0  0  0  0  0  0  0  0  0  0  0
  139.0070   77.0660  222.6670 C   0  0  0  0  0  0  0  0  0  0  0  0
  137.9050   76.0860  222.6680 C   0  0  0  0  0  0  0  0  0  0  0  0
  138.3240   74.7580  222.2580 N   0  0  0  0  0  0  0  0  0  0  0  0
  137.7610   74.0590  221.1610 C   0  0  0  0  0  0  0  0  0  0  0  0
  136.8420   74.5350  220.4450 O   0  0  0  0  0  0  0  0  0  0  0  0
  138.2660   72.7170  220.8340 C   0  0  0  0  0  0  0  0  0  0  0  0
  138.4470   71.8890  222.0090 N   0  0  0  0  0  0  0  0  0  0  0  0
  139.6180   72.1190  222.7880 C   0  0  0  0  0  0  0  0  0  0  0  0
  140.4330   73.0270  222.4150 O   0  0  0  0  0  0  0  0  0  0  0  0
  139.8810   71.3280  223.9960 C   0  0  0  0  0  0  0  0  0  0  0  0
  140.7110   71.8720  224.9630 C   0  0  0  0  0  0  0  0  0  0  0  0
  141.0240   71.2140  226.1330 C   0  0  0  0  0  0  0  0  0  0  0  0
  140.4860   69.9710  226.3330 C   0  0  0  0  0  0  0  0  0  0  0  0
  140.7060   69.2050  227.4410 C   0  0  0  0  0  0  0  0  0  0  0  0
  140.1680   67.9550  227.6500 C   0  0  0  0  0  0  0  0  0  0  0  0
  139.3380   67.4420  226.6540 C   0  0  0  0  0  0  0  0  0  0  0  0
  139.0930   68.2050  225.5070 C   0  0  0  0  0  0  0  0  0  0  0  0
  139.6560   69.4500  225.3460 C   0  0  0  0  0  0  0  0  0  0  0  0
  139.3700   70.1190  224.2150 N   0  0  0  0  0  0  0  0  0  0  0  0
  140.2260   76.6590  222.1460 C   0  0  0  0  0  0  0  0  0  0  0  0
  141.3160   77.4800  222.0880 C   0  0  0  0  0  0  0  0  0  0  0  0
  143.2120   79.2850  221.9500 H   0  0  0  0  0  0  0  0  0  0  0  0
  142.4370   80.5520  222.9510 H   0  0  0  0  0  0  0  0  0  0  0  0
  139.9320   80.2327  223.4679 H   0  0  0  0  0  0  0  0  0  0  0  0
  137.9695   78.7127  223.5585 H   0  0  0  0  0  0  0  0  0  0  0  0
  137.4922   76.0243  223.6857 H   0  0  0  0  0  0  0  0  0  0  0  0
  137.1565   76.4331  221.9405 H   0  0  0  0  0  0  0  0  0  0  0  0
  139.0960   74.2760  222.8070 H   0  0  0  0  0  0  0  0  0  0  0  0
  137.5475   72.2240  220.1627 H   0  0  0  0  0  0  0  0  0  0  0  0
  139.2496   72.8380  220.3566 H   0  0  0  0  0  0  0  0  0  0  0  0
  137.7710   71.1460  222.3000 H   0  0  0  0  0  0  0  0  0  0  0  0
  141.1380   72.8708  224.7897 H   0  0  0  0  0  0  0  0  0  0  0  0
  141.6853   71.6731  226.8825 H   0  0  0  0  0  0  0  0  0  0  0  0
  141.3605   69.6161  228.2237 H   0  0  0  0  0  0  0  0  0  0  0  0
  140.3841   67.3844  228.5653 H   0  0  0  0  0  0  0  0  0  0  0  0
  138.8807   66.4482  226.7687 H   0  0  0  0  0  0  0  0  0  0  0  0
  138.4386   67.8022  224.7199 H   0  0  0  0  0  0  0  0  0  0  0  0
  140.3190   75.6319  221.7634 H   0  0  0  0  0  0  0  0  0  0  0  0
  142.2604   77.1072  221.6649 H   0  0  0  0  0  0  0  0  0  0  0  0
  1  2  1  0
  2  3  2  0
  3  4  1  0
  4  5  2  0
  5  6  1  0
  6  7  1  0
  7  8  1  0
  8  9  2  0
  8 10  1  0
 10 11  1  0
 11 12  1  0
 12 13  2  0
 12 14  1  0
 14 15  2  0
 15 16  1  0
 16 17  2  0
 17 18  1  0
 18 19  2  0
 19 20  1  0
 20 21  2  0
 21 22  1  0
 22 23  2  0
  5 24  1  0
 24 25  2  0
 25  2  1  0
 23 14  1  0
 22 17  1  0
  1 26  1  0
  1 27  1  0
  3 28  1  0
  4 29  1  0
  6 30  1  0
  6 31  1  0
  7 32  1  0
 10 33  1  0
 10 34  1  0
 11 35  1  0
 15 36  1  0
 16 37  1  0
 18 38  1  0
 19 39  1  0
 20 40  1  0
 21 41  1  0
 24 42  1  0
 25 43  1  0
M  END
>  <smiles>  (12) 
Nc1ccc(CNC(=O)CNC(=O)c2ccc3ccccc3n2)cc1

>  <score_type>  (12) 
oracle

>  <origin>  (12) 
autodockgpu

>  <m_score__min__energy>  (12) 
-8.3100000000000005

>  <m_primary>  (12) 
energy

>  <rmsd>  (12) 
3.652098375484565

>  <m_score__min__rmsd>  (12) 
3.652098375484565

>  <meeko>  (12) 
{"free_energy": -7.45, "intermolecular_energy": -9.24, "internal_energy": -1.66, "cluster_size": 28, "cluster_id": 1, "rank_in_cluster": 22}

>  <energy>  (12) 
-7.88

>  <cluster_rmsd>  (12) 
0.92

>  <cluster>  (12) 
1

$$$$

     RDKit          3D

 43 45  0  0  0  0  0  0  0  0999 V2000
  142.5740   80.5470  217.5630 N   0  0  0  0  0  0  0  0  0  0  0  0
  142.1950   79.8910  218.7670 C   0  0  0  0  0  0  0  0  0  0  0  0
  141.8710   80.5990  219.9260 C   0  0  0  0  0  0  0  0  0  0  0  0
  141.5030   79.9280  221.0940 C   0  0  0  0  0  0  0  0  0  0  0  0
  141.4500   78.5590  221.1260 C   0  0  0  0  0  0  0  0  0  0  0  0
  141.0680   77.7530  222.3000 C   0  0  0  0  0  0  0  0  0  0  0  0
  140.9730   76.3340  222.0110 N   0  0  0  0  0  0  0  0  0  0  0  0
  139.8530   75.7330  221.3840 C   0  0  0  0  0  0  0  0  0  0  0  0
  138.8380   76.3840  221.0240 O   0  0  0  0  0  0  0  0  0  0  0  0
  139.8660   74.2830  221.1370 C   0  0  0  0  0  0  0  0  0  0  0  0
  139.6160   73.5100  222.3360 N   0  0  0  0  0  0  0  0  0  0  0  0
  140.4070   72.3410  222.5290 C   0  0  0  0  0  0  0  0  0  0  0  0
  141.2790   72.0390  221.6480 O   0  0  0  0  0  0  0  0  0  0  0  0
  140.2230   71.4990  223.7170 C   0  0  0  0  0  0  0  0  0  0  0  0
  139.5490   70.2990  223.5680 C   0  0  0  0  0  0  0  0  0  0  0  0
  139.3220   69.4350  224.6170 C   0  0  0  0  0  0  0  0  0  0  0  0
  139.7880   69.7930  225.8540 C   0  0  0  0  0  0  0  0  0  0  0  0
  139.6380   69.0400  226.9820 C   0  0  0  0  0  0  0  0  0  0  0  0
  140.1040   69.3920  228.2290 C   0  0  0  0  0  0  0  0  0  0  0  0
  140.7770   70.6080  228.3380 C   0  0  0  0  0  0  0  0  0  0  0  0
  140.9480   71.4020  227.1990 C   0  0  0  0  0  0  0  0  0  0  0  0
  140.4620   71.0030  225.9760 C   0  0  0  0  0  0  0  0  0  0  0  0
  140.6670   71.8240  224.9290 N   0  0  0  0  0  0  0  0  0  0  0  0
  141.7750   77.8790  219.9610 C   0  0  0  0  0  0  0  0  0  0  0  0
  142.1380   78.5180  218.8100 C   0  0  0  0  0  0  0  0  0  0  0  0
  143.5950   80.6590  217.3610 H   0  0  0  0  0  0  0  0  0  0  0  0
  141.8940   80.9240  216.8670 H   0  0  0  0  0  0  0  0  0  0  0  0
  141.9060   81.6984  219.9189 H   0  0  0  0  0  0  0  0  0  0  0  0
  141.2532   80.5040  221.9973 H   0  0  0  0  0  0  0  0  0  0  0  0
  141.8231   77.9002  223.0862 H   0  0  0  0  0  0  0  0  0  0  0  0
  140.0704   78.0900  222.6181 H   0  0  0  0  0  0  0  0  0  0  0  0
  141.7850   75.7030  222.2810 H   0  0  0  0  0  0  0  0  0  0  0  0
  139.0883   74.0451  220.3963 H   0  0  0  0  0  0  0  0  0  0  0  0
  140.8693   74.0167  220.7729 H   0  0  0  0  0  0  0  0  0  0  0  0
  138.8960   73.7700  223.0490 H   0  0  0  0  0  0  0  0  0  0  0  0
  139.1788   70.0235  222.5695 H   0  0  0  0  0  0  0  0  0  0  0  0
  138.7836   68.4878  224.4657 H   0  0  0  0  0  0  0  0  0  0  0  0
  139.1060   68.0818  226.8883 H   0  0  0  0  0  0  0  0  0  0  0  0
  139.9516   68.7410  229.1025 H   0  0  0  0  0  0  0  0  0  0  0  0
  141.1698   70.9400  229.3104 H   0  0  0  0  0  0  0  0  0  0  0  0
  141.4799   72.3612  227.2830 H   0  0  0  0  0  0  0  0  0  0  0  0
  141.7387   76.7796  219.9647 H   0  0  0  0  0  0  0  0  0  0  0  0
  142.3860   77.9314  217.9131 H   0  0  0  0  0  0  0  0  0  0  0  0
  1  2  1  0
  2  3  2  0
  3  4  1  0
  4  5  2  0
  5  6  1  0
  6  7  1  0
  7  8  1  0
  8  9  2  0
  8 10  1  0
 10 11  1  0
 11 12  1  0
 12 13  2  0
 12 14  1  0
 14 15  2  0
 15 16  1  0
 16 17  2  0
 17 18  1  0
 18 19  2  0
 19 20  1  0
 20 21  2  0
 21 22  1  0
 22 23  2  0
  5 24  1  0
 24 25  2  0
 25  2  1  0
 23 14  1  0
 22 17  1  0
  1 26  1  0
  1 27  1  0
  3 28  1  0
  4 29  1  0
  6 30  1  0
  6 31  1  0
  7 32  1  0
 10 33  1  0
 10 34  1  0
 11 35  1  0
 15 36  1  0
 16 37  1  0
 18 38  1  0
 19 39  1  0
 20 40  1  0
 21 41  1  0
 24 42  1  0
 25 43  1  0
M  END
>  <smiles>  (13) 
Nc1ccc(CNC(=O)CNC(=O)c2ccc3ccccc3n2)cc1

>  <score_type>  (13) 
oracle

>  <origin>  (13) 
autodockgpu

>  <m_score__min__energy>  (13) 
-8.3100000000000005

>  <m_primary>  (13) 
energy

>  <rmsd>  (13) 
2.9924075455192627

>  <m_score__min__rmsd>  (13) 
2.9924075455192627

>  <meeko>  (13) 
{"free_energy": -8.12, "intermolecular_energy": -9.91, "internal_energy": -0.77, "cluster_size": 14, "cluster_id": 2, "rank_in_cluster": 1}

>  <energy>  (13) 
-7.82

>  <cluster_rmsd>  (13) 
0.92

>  <cluster>  (13) 
1

$$$$

     RDKit          3D

 43 45  0  0  0  0  0  0  0  0999 V2000
  142.4690   80.0230  222.4630 N   0  0  0  0  0  0  0  0  0  0  0  0
  141.3360   79.1680  222.5560 C   0  0  0  0  0  0  0  0  0  0  0  0
  140.1130   79.6110  223.0630 C   0  0  0  0  0  0  0  0  0  0  0  0
  139.0180   78.7490  223.1420 C   0  0  0  0  0  0  0  0  0  0  0  0
  139.1210   77.4480  222.7210 C   0  0  0  0  0  0  0  0  0  0  0  0
  138.0280   76.4580  222.7540 C   0  0  0  0  0  0  0  0  0  0  0  0
  138.4400   75.1410  222.3050 N   0  0  0  0  0  0  0  0  0  0  0  0
  138.1070   74.6030  221.0370 C   0  0  0  0  0  0  0  0  0  0  0  0
  137.4200   75.2260  220.1870 O   0  0  0  0  0  0  0  0  0  0  0  0
  138.5820   73.2550  220.6870 C   0  0  0  0  0  0  0  0  0  0  0  0
  138.5710   72.3490  221.8170 N   0  0  0  0  0  0  0  0  0  0  0  0
  139.6950   72.3930  222.6920 C   0  0  0  0  0  0  0  0  0  0  0  0
  140.6380   73.2130  222.4360 O   0  0  0  0  0  0  0  0  0  0  0  0
  139.7680   71.5130  223.8630 C   0  0  0  0  0  0  0  0  0  0  0  0
  139.2220   70.2430  223.7610 C   0  0  0  0  0  0  0  0  0  0  0  0
  139.2360   69.3380  224.7990 C   0  0  0  0  0  0  0  0  0  0  0  0
  139.8170   69.7250  225.9780 C   0  0  0  0  0  0  0  0  0  0  0  0
  139.9050   68.9370  227.0890 C   0  0  0  0  0  0  0  0  0  0  0  0
  140.4880   69.3170  228.2770 C   0  0  0  0  0  0  0  0  0  0  0  0
  141.0250   70.6020  228.3410 C   0  0  0  0  0  0  0  0  0  0  0  0
  140.9520   71.4330  227.2180 C   0  0  0  0  0  0  0  0  0  0  0  0
  140.3580   71.0040  226.0540 C   0  0  0  0  0  0  0  0  0  0  0  0
  140.3270   71.8640  225.0190 N   0  0  0  0  0  0  0  0  0  0  0  0
  140.3460   77.0330  222.2210 C   0  0  0  0  0  0  0  0  0  0  0  0
  141.4280   77.8620  222.1360 C   0  0  0  0  0  0  0  0  0  0  0  0
  142.4160   80.9670  222.9140 H   0  0  0  0  0  0  0  0  0  0  0  0
  143.3530   79.7670  221.9710 H   0  0  0  0  0  0  0  0  0  0  0  0
  140.0111   80.6517  223.4043 H   0  0  0  0  0  0  0  0  0  0  0  0
  138.0632   79.1168  223.5459 H   0  0  0  0  0  0  0  0  0  0  0  0
  137.6604   76.3765  223.7875 H   0  0  0  0  0  0  0  0  0  0  0  0
  137.2456   76.8097  222.0655 H   0  0  0  0  0  0  0  0  0  0  0  0
  139.0240   74.5400  222.9600 H   0  0  0  0  0  0  0  0  0  0  0  0
  137.9309   72.8453  219.9008 H   0  0  0  0  0  0  0  0  0  0  0  0
  139.6233   73.3475  220.3446 H   0  0  0  0  0  0  0  0  0  0  0  0
  137.7910   71.6800  222.0120 H   0  0  0  0  0  0  0  0  0  0  0  0
  138.7573   69.9450  222.8095 H   0  0  0  0  0  0  0  0  0  0  0  0
  138.7949   68.3367  224.6852 H   0  0  0  0  0  0  0  0  0  0  0  0
  139.4791   67.9245  227.0310 H   0  0  0  0  0  0  0  0  0  0  0  0
  140.5284   68.6354  229.1394 H   0  0  0  0  0  0  0  0  0  0  0  0
  141.5016   70.9591  229.2658 H   0  0  0  0  0  0  0  0  0  0  0  0
  141.3768   72.4465  227.2667 H   0  0  0  0  0  0  0  0  0  0  0  0
  140.4506   75.9929  221.8786 H   0  0  0  0  0  0  0  0  0  0  0  0
  142.3774   77.4831  221.7297 H   0  0  0  0  0  0  0  0  0  0  0  0
  1  2  1  0
  2  3  2  0
  3  4  1  0
  4  5  2  0
  5  6  1  0
  6  7  1  0
  7  8  1  0
  8  9  2  0
  8 10  1  0
 10 11  1  0
 11 12  1  0
 12 13  2  0
 12 14  1  0
 14 15  2  0
 15 16  1  0
 16 17  2  0
 17 18  1  0
 18 19  2  0
 19 20  1  0
 20 21  2  0
 21 22  1  0
 22 23  2  0
  5 24  1  0
 24 25  2  0
 25  2  1  0
 23 14  1  0
 22 17  1  0
  1 26  1  0
  1 27  1  0
  3 28  1  0
  4 29  1  0
  6 30  1  0
  6 31  1  0
  7 32  1  0
 10 33  1  0
 10 34  1  0
 11 35  1  0
 15 36  1  0
 16 37  1  0
 18 38  1  0
 19 39  1  0
 20 40  1  0
 21 41  1  0
 24 42  1  0
 25 43  1  0
M  END
>  <smiles>  (14) 
Nc1ccc(CNC(=O)CNC(=O)c2ccc3ccccc3n2)cc1

>  <score_type>  (14) 
oracle

>  <origin>  (14) 
autodockgpu

>  <m_score__min__energy>  (14) 
-8.3100000000000005

>  <m_primary>  (14) 
energy

>  <rmsd>  (14) 
3.0079081642952263

>  <m_score__min__rmsd>  (14) 
3.0079081642952263

>  <meeko>  (14) 
{"free_energy": -7.88, "intermolecular_energy": -9.67, "internal_energy": -1.52, "cluster_size": 28, "cluster_id": 1, "rank_in_cluster": 12}

>  <energy>  (14) 
-7.8

>  <cluster_rmsd>  (14) 
0.91

>  <cluster>  (14) 
1

$$$$

     RDKit          3D

 43 45  0  0  0  0  0  0  0  0999 V2000
  142.7130   80.3010  222.4420 N   0  0  0  0  0  0  0  0  0  0  0  0
  141.6590   79.3460  222.4840 C   0  0  0  0  0  0  0  0  0  0  0  0
  141.6920   78.1730  221.7280 C   0  0  0  0  0  0  0  0  0  0  0  0
  140.6420   77.2540  221.7900 C   0  0  0  0  0  0  0  0  0  0  0  0
  139.5570   77.4850  222.5950 C   0  0  0  0  0  0  0  0  0  0  0  0
  138.4010   76.5820  222.7400 C   0  0  0  0  0  0  0  0  0  0  0  0
  138.6800   75.2260  222.3030 N   0  0  0  0  0  0  0  0  0  0  0  0
  138.2960   74.7120  221.0390 C   0  0  0  0  0  0  0  0  0  0  0  0
  137.6750   75.3930  220.1830 O   0  0  0  0  0  0  0  0  0  0  0  0
  138.6340   73.3210  220.7010 C   0  0  0  0  0  0  0  0  0  0  0  0
  138.5760   72.4390  221.8490 N   0  0  0  0  0  0  0  0  0  0  0  0
  139.7200   72.4070  222.6980 C   0  0  0  0  0  0  0  0  0  0  0  0
  140.7200   73.1430  222.4070 O   0  0  0  0  0  0  0  0  0  0  0  0
  139.7480   71.5440  223.8850 C   0  0  0  0  0  0  0  0  0  0  0  0
  139.0900   70.3260  223.8220 C   0  0  0  0  0  0  0  0  0  0  0  0
  139.0540   69.4420  224.8780 C   0  0  0  0  0  0  0  0  0  0  0  0
  139.6990   69.7960  226.0330 C   0  0  0  0  0  0  0  0  0  0  0  0
  139.7490   69.0230  227.1560 C   0  0  0  0  0  0  0  0  0  0  0  0
  140.3960   69.3710  228.3210 C   0  0  0  0  0  0  0  0  0  0  0  0
  141.0460   70.6040  228.3450 C   0  0  0  0  0  0  0  0  0  0  0  0
  141.0140   71.4190  227.2080 C   0  0  0  0  0  0  0  0  0  0  0  0
  140.3520   71.0240  226.0690 C   0  0  0  0  0  0  0  0  0  0  0  0
  140.3680   71.8640  225.0180 N   0  0  0  0  0  0  0  0  0  0  0  0
  139.5500   78.6590  223.3360 C   0  0  0  0  0  0  0  0  0  0  0  0
  140.5670   79.5690  223.2880 C   0  0  0  0  0  0  0  0  0  0  0  0
  142.5610   81.2280  222.9030 H   0  0  0  0  0  0  0  0  0  0  0  0
  143.6330   80.1320  221.9770 H   0  0  0  0  0  0  0  0  0  0  0  0
  142.5545   77.9701  221.0762 H   0  0  0  0  0  0  0  0  0  0  0  0
  140.6863   76.3354  221.1865 H   0  0  0  0  0  0  0  0  0  0  0  0
  138.1084   76.5551  223.8000 H   0  0  0  0  0  0  0  0  0  0  0  0
  137.5961   76.9739  222.1008 H   0  0  0  0  0  0  0  0  0  0  0  0
  139.2010   74.5750  222.9630 H   0  0  0  0  0  0  0  0  0  0  0  0
  137.9233   72.9599  219.9430 H   0  0  0  0  0  0  0  0  0  0  0  0
  139.6677   73.3112  220.3251 H   0  0  0  0  0  0  0  0  0  0  0  0
  137.7490   71.8390  222.0730 H   0  0  0  0  0  0  0  0  0  0  0  0
  138.5746   70.0535  222.8892 H   0  0  0  0  0  0  0  0  0  0  0  0
  138.5237   68.4818  224.7960 H   0  0  0  0  0  0  0  0  0  0  0  0
  139.2350   68.0508  227.1291 H   0  0  0  0  0  0  0  0  0  0  0  0
  140.3997   68.7041  229.1957 H   0  0  0  0  0  0  0  0  0  0  0  0
  141.5790   70.9331  229.2492 H   0  0  0  0  0  0  0  0  0  0  0  0
  141.5269   72.3919  227.2254 H   0  0  0  0  0  0  0  0  0  0  0  0
  138.6892   78.8648  223.9891 H   0  0  0  0  0  0  0  0  0  0  0  0
  140.5119   80.4844  223.8954 H   0  0  0  0  0  0  0  0  0  0  0  0
  1  2  1  0
  2  3  2  0
  3  4  1  0
  4  5  2  0
  5  6  1  0
  6  7  1  0
  7  8  1  0
  8  9  2  0
  8 10  1  0
 10 11  1  0
 11 12  1  0
 12 13  2  0
 12 14  1  0
 14 15  2  0
 15 16  1  0
 16 17  2  0
 17 18  1  0
 18 19  2  0
 19 20  1  0
 20 21  2  0
 21 22  1  0
 22 23  2  0
  5 24  1  0
 24 25  2  0
 25  2  1  0
 23 14  1  0
 22 17  1  0
  1 26  1  0
  1 27  1  0
  3 28  1  0
  4 29  1  0
  6 30  1  0
  6 31  1  0
  7 32  1  0
 10 33  1  0
 10 34  1  0
 11 35  1  0
 15 36  1  0
 16 37  1  0
 18 38  1  0
 19 39  1  0
 20 40  1  0
 21 41  1  0
 24 42  1  0
 25 43  1  0
M  END
>  <smiles>  (15) 
Nc1ccc(CNC(=O)CNC(=O)c2ccc3ccccc3n2)cc1

>  <score_type>  (15) 
oracle

>  <origin>  (15) 
autodockgpu

>  <m_score__min__energy>  (15) 
-8.3100000000000005

>  <m_primary>  (15) 
energy

>  <rmsd>  (15) 
2.7392230531906523

>  <m_score__min__rmsd>  (15) 
2.7392230531906523

>  <meeko>  (15) 
{"free_energy": -7.78, "intermolecular_energy": -9.57, "internal_energy": -1.48, "cluster_size": 28, "cluster_id": 1, "rank_in_cluster": 15}

>  <energy>  (15) 
-7.78

>  <cluster_rmsd>  (15) 
0.79

>  <cluster>  (15) 
1

$$$$

     RDKit          3D

 43 45  0  0  0  0  0  0  0  0999 V2000
  142.5800   80.2700  217.8460 N   0  0  0  0  0  0  0  0  0  0  0  0
  142.1930   79.4940  218.9740 C   0  0  0  0  0  0  0  0  0  0  0  0
  141.7810   80.0810  220.1710 C   0  0  0  0  0  0  0  0  0  0  0  0
  141.4060   79.2940  221.2610 C   0  0  0  0  0  0  0  0  0  0  0  0
  141.4350   77.9260  221.1780 C   0  0  0  0  0  0  0  0  0  0  0  0
  141.0550   77.0030  222.2640 C   0  0  0  0  0  0  0  0  0  0  0  0
  140.4820   75.7600  221.7800 N   0  0  0  0  0  0  0  0  0  0  0  0
  139.1070   75.4330  221.8890 C   0  0  0  0  0  0  0  0  0  0  0  0
  138.2610   76.1980  222.4200 O   0  0  0  0  0  0  0  0  0  0  0  0
  138.6360   74.1440  221.3610 C   0  0  0  0  0  0  0  0  0  0  0  0
  138.6210   73.1010  222.3660 N   0  0  0  0  0  0  0  0  0  0  0  0
  139.8840   72.6110  222.8080 C   0  0  0  0  0  0  0  0  0  0  0  0
  140.9440   73.1080  222.3020 O   0  0  0  0  0  0  0  0  0  0  0  0
  139.9640   71.5570  223.8260 C   0  0  0  0  0  0  0  0  0  0  0  0
  139.5100   70.2910  223.4910 C   0  0  0  0  0  0  0  0  0  0  0  0
  139.5400   69.2310  224.3700 C   0  0  0  0  0  0  0  0  0  0  0  0
  140.0410   69.4530  225.6260 C   0  0  0  0  0  0  0  0  0  0  0  0
  140.1320   68.5010  226.5990 C   0  0  0  0  0  0  0  0  0  0  0  0
  140.6350   68.7160  227.8620 C   0  0  0  0  0  0  0  0  0  0  0  0
  141.0810   70.0030  228.1610 C   0  0  0  0  0  0  0  0  0  0  0  0
  141.0020   71.0000  227.1830 C   0  0  0  0  0  0  0  0  0  0  0  0
  140.4900   70.7330  225.9350 C   0  0  0  0  0  0  0  0  0  0  0  0
  140.4470   71.7470  225.0520 N   0  0  0  0  0  0  0  0  0  0  0  0
  141.8480   77.3670  219.9770 C   0  0  0  0  0  0  0  0  0  0  0  0
  142.2180   78.1210  218.9000 C   0  0  0  0  0  0  0  0  0  0  0  0
  143.4280   79.9730  217.3080 H   0  0  0  0  0  0  0  0  0  0  0  0
  142.0690   81.1200  217.5210 H   0  0  0  0  0  0  0  0  0  0  0  0
  141.7514   81.1773  220.2566 H   0  0  0  0  0  0  0  0  0  0  0  0
  141.0841   79.7762  222.1958 H   0  0  0  0  0  0  0  0  0  0  0  0
  141.9530   76.7682  222.8543 H   0  0  0  0  0  0  0  0  0  0  0  0
  140.2854   77.5059  222.8679 H   0  0  0  0  0  0  0  0  0  0  0  0
  141.1230   75.0500  221.3170 H   0  0  0  0  0  0  0  0  0  0  0  0
  137.6148   74.2743  220.9735 H   0  0  0  0  0  0  0  0  0  0  0  0
  139.3343   73.8335  220.5698 H   0  0  0  0  0  0  0  0  0  0  0  0
  137.7420   72.7020  222.7700 H   0  0  0  0  0  0  0  0  0  0  0  0
  139.1087   70.1258  222.4802 H   0  0  0  0  0  0  0  0  0  0  0  0
  139.1733   68.2374  224.0731 H   0  0  0  0  0  0  0  0  0  0  0  0
  139.7777   67.4882  226.3565 H   0  0  0  0  0  0  0  0  0  0  0  0
  140.6832   67.9061  228.6048 H   0  0  0  0  0  0  0  0  0  0  0  0
  141.4908   70.2319  229.1558 H   0  0  0  0  0  0  0  0  0  0  0  0
  141.3556   72.0152  227.4163 H   0  0  0  0  0  0  0  0  0  0  0  0
  141.8787   76.2710  219.8887 H   0  0  0  0  0  0  0  0  0  0  0  0
  142.5372   77.6282  217.9698 H   0  0  0  0  0  0  0  0  0  0  0  0
  1  2  1  0
  2  3  2  0
  3  4  1  0
  4  5  2  0
  5  6  1  0
  6  7  1  0
  7  8  1  0
  8  9  2  0
  8 10  1  0
 10 11  1  0
 11 12  1  0
 12 13  2  0
 12 14  1  0
 14 15  2  0
 15 16  1  0
 16 17  2  0
 17 18  1  0
 18 19  2  0
 19 20  1  0
 20 21  2  0
 21 22  1  0
 22 23  2  0
  5 24  1  0
 24 25  2  0
 25  2  1  0
 23 14  1  0
 22 17  1  0
  1 26  1  0
  1 27  1  0
  3 28  1  0
  4 29  1  0
  6 30  1  0
  6 31  1  0
  7 32  1  0
 10 33  1  0
 10 34  1  0
 11 35  1  0
 15 36  1  0
 16 37  1  0
 18 38  1  0
 19 39  1  0
 20 40  1  0
 21 41  1  0
 24 42  1  0
 25 43  1  0
M  END
>  <smiles>  (16) 
Nc1ccc(CNC(=O)CNC(=O)c2ccc3ccccc3n2)cc1

>  <score_type>  (16) 
oracle

>  <origin>  (16) 
autodockgpu

>  <m_score__min__energy>  (16) 
-8.3100000000000005

>  <m_primary>  (16) 
energy

>  <rmsd>  (16) 
2.7475122991041

>  <m_score__min__rmsd>  (16) 
2.7475122991041

>  <meeko>  (16) 
{"free_energy": -7.52, "intermolecular_energy": -9.31, "internal_energy": -1.4, "cluster_size": 14, "cluster_id": 2, "rank_in_cluster": 9}

>  <energy>  (16) 
-7.78

>  <cluster_rmsd>  (16) 
0.97

>  <cluster>  (16) 
1

$$$$

     RDKit          3D

 43 45  0  0  0  0  0  0  0  0999 V2000
  142.5990   80.3130  217.9750 N   0  0  0  0  0  0  0  0  0  0  0  0
  142.2000   79.5640  219.1160 C   0  0  0  0  0  0  0  0  0  0  0  0
  141.8210   80.1800  220.3110 C   0  0  0  0  0  0  0  0  0  0  0  0
  141.4330   79.4180  221.4150 C   0  0  0  0  0  0  0  0  0  0  0  0
  141.4150   78.0490  221.3480 C   0  0  0  0  0  0  0  0  0  0  0  0
  141.0170   77.1530  222.4500 C   0  0  0  0  0  0  0  0  0  0  0  0
  140.5810   75.8470  221.9910 N   0  0  0  0  0  0  0  0  0  0  0  0
  139.2380   75.5380  221.6590 C   0  0  0  0  0  0  0  0  0  0  0  0
  138.3040   76.3760  221.7360 O   0  0  0  0  0  0  0  0  0  0  0  0
  138.9110   74.1780  221.2020 C   0  0  0  0  0  0  0  0  0  0  0  0
  138.7970   73.2350  222.2950 N   0  0  0  0  0  0  0  0  0  0  0  0
  140.0010   72.6240  222.7500 C   0  0  0  0  0  0  0  0  0  0  0  0
  141.0990   72.9340  222.1780 O   0  0  0  0  0  0  0  0  0  0  0  0
  139.9810   71.6580  223.8540 C   0  0  0  0  0  0  0  0  0  0  0  0
  139.3670   70.4340  223.6390 C   0  0  0  0  0  0  0  0  0  0  0  0
  139.2920   69.4570  224.6070 C   0  0  0  0  0  0  0  0  0  0  0  0
  139.8510   69.7210  225.8290 C   0  0  0  0  0  0  0  0  0  0  0  0
  139.8530   68.8500  226.8800 C   0  0  0  0  0  0  0  0  0  0  0  0
  140.4140   69.1070  228.1110 C   0  0  0  0  0  0  0  0  0  0  0  0
  141.0210   70.3490  228.2880 C   0  0  0  0  0  0  0  0  0  0  0  0
  141.0360   71.2630  227.2290 C   0  0  0  0  0  0  0  0  0  0  0  0
  140.4610   70.9560  226.0180 C   0  0  0  0  0  0  0  0  0  0  0  0
  140.5170   71.8890  225.0500 N   0  0  0  0  0  0  0  0  0  0  0  0
  141.7950   77.4630  220.1500 C   0  0  0  0  0  0  0  0  0  0  0  0
  142.1770   78.1910  219.0590 C   0  0  0  0  0  0  0  0  0  0  0  0
  142.0260   81.1470  217.7040 H   0  0  0  0  0  0  0  0  0  0  0  0
  143.4310   80.0820  217.3880 H   0  0  0  0  0  0  0  0  0  0  0  0
  141.8283   81.2776  220.3832 H   0  0  0  0  0  0  0  0  0  0  0  0
  141.1389   79.9214  222.3478 H   0  0  0  0  0  0  0  0  0  0  0  0
  141.8783   77.0190  223.1210 H   0  0  0  0  0  0  0  0  0  0  0  0
  140.1648   77.6222  222.9635 H   0  0  0  0  0  0  0  0  0  0  0  0
  141.3040   75.0720  221.8970 H   0  0  0  0  0  0  0  0  0  0  0  0
  137.9532   74.2087  220.6620 H   0  0  0  0  0  0  0  0  0  0  0  0
  139.7320   73.8383  220.5535 H   0  0  0  0  0  0  0  0  0  0  0  0
  137.8890   72.9890  222.7530 H   0  0  0  0  0  0  0  0  0  0  0  0
  138.9207   70.2345  222.6536 H   0  0  0  0  0  0  0  0  0  0  0  0
  138.7986   68.4949  224.4048 H   0  0  0  0  0  0  0  0  0  0  0  0
  139.3716   67.8719  226.7329 H   0  0  0  0  0  0  0  0  0  0  0  0
  140.3843   68.3631  228.9208 H   0  0  0  0  0  0  0  0  0  0  0  0
  141.4840   70.6082  229.2515 H   0  0  0  0  0  0  0  0  0  0  0  0
  141.5155   72.2433  227.3672 H   0  0  0  0  0  0  0  0  0  0  0  0
  141.7886   76.3656  220.0750 H   0  0  0  0  0  0  0  0  0  0  0  0
  142.4673   77.6763  218.1312 H   0  0  0  0  0  0  0  0  0  0  0  0
  1  2  1  0
  2  3  2  0
  3  4  1  0
  4  5  2  0
  5  6  1  0
  6  7  1  0
  7  8  1  0
  8  9  2  0
  8 10  1  0
 10 11  1  0
 11 12  1  0
 12 13  2  0
 12 14  1  0
 14 15  2  0
 15 16  1  0
 16 17  2  0
 17 18  1  0
 18 19  2  0
 19 20  1  0
 20 21  2  0
 21 22  1  0
 22 23  2  0
  5 24  1  0
 24 25  2  0
 25  2  1  0
 23 14  1  0
 22 17  1  0
  1 26  1  0
  1 27  1  0
  3 28  1  0
  4 29  1  0
  6 30  1  0
  6 31  1  0
  7 32  1  0
 10 33  1  0
 10 34  1  0
 11 35  1  0
 15 36  1  0
 16 37  1  0
 18 38  1  0
 19 39  1  0
 20 40  1  0
 21 41  1  0
 24 42  1  0
 25 43  1  0
M  END
>  <smiles>  (17) 
Nc1ccc(CNC(=O)CNC(=O)c2ccc3ccccc3n2)cc1

>  <score_type>  (17) 
oracle

>  <origin>  (17) 
autodockgpu

>  <m_score__min__energy>  (17) 
-8.3100000000000005

>  <m_primary>  (17) 
energy

>  <rmsd>  (17) 
2.8396780634291705

>  <m_score__min__rmsd>  (17) 
2.8396780634291705

>  <meeko>  (17) 
{"free_energy": -7.6, "intermolecular_energy": -9.39, "internal_energy": -1.47, "cluster_size": 14, "cluster_id": 2, "rank_in_cluster": 6}

>  <energy>  (17) 
-7.77

>  <cluster_rmsd>  (17) 
0.77

>  <cluster>  (17) 
1

$$$$

     RDKit          3D

 43 45  0  0  0  0  0  0  0  0999 V2000
  133.3450   72.6730  227.3120 N   0  0  0  0  0  0  0  0  0  0  0  0
  133.9670   73.2070  226.1490 C   0  0  0  0  0  0  0  0  0  0  0  0
  134.2250   74.5720  226.0070 C   0  0  0  0  0  0  0  0  0  0  0  0
  134.8370   75.0670  224.8540 C   0  0  0  0  0  0  0  0  0  0  0  0
  135.1980   74.2220  223.8370 C   0  0  0  0  0  0  0  0  0  0  0  0
  135.8540   74.6380  222.5830 C   0  0  0  0  0  0  0  0  0  0  0  0
  136.9860   73.8020  222.2280 N   0  0  0  0  0  0  0  0  0  0  0  0
  137.1380   73.1810  220.9630 C   0  0  0  0  0  0  0  0  0  0  0  0
  136.2980   73.3020  220.0350 O   0  0  0  0  0  0  0  0  0  0  0  0
  138.3300   72.3550  220.7120 C   0  0  0  0  0  0  0  0  0  0  0  0
  138.6700   71.5110  221.8390 N   0  0  0  0  0  0  0  0  0  0  0  0
  139.4920   72.0830  222.8520 C   0  0  0  0  0  0  0  0  0  0  0  0
  139.8810   73.2910  222.7140 O   0  0  0  0  0  0  0  0  0  0  0  0
  139.8840   71.3020  224.0300 C   0  0  0  0  0  0  0  0  0  0  0  0
  140.7620   71.8790  224.9330 C   0  0  0  0  0  0  0  0  0  0  0  0
  141.1940   71.2320  226.0710 C   0  0  0  0  0  0  0  0  0  0  0  0
  140.7280   69.9660  226.3040 C   0  0  0  0  0  0  0  0  0  0  0  0
  141.0680   69.2070  227.3860 C   0  0  0  0  0  0  0  0  0  0  0  0
  140.6040   67.9330  227.6290 C   0  0  0  0  0  0  0  0  0  0  0  0
  139.7230   67.3870  226.6970 C   0  0  0  0  0  0  0  0  0  0  0  0
  139.3550   68.1420  225.5770 C   0  0  0  0  0  0  0  0  0  0  0  0
  139.8480   69.4110  225.3820 C   0  0  0  0  0  0  0  0  0  0  0  0
  139.4450   70.0700  224.2800 N   0  0  0  0  0  0  0  0  0  0  0  0
  134.9310   72.8710  224.0030 C   0  0  0  0  0  0  0  0  0  0  0  0
  134.3340   72.3680  225.1240 C   0  0  0  0  0  0  0  0  0  0  0  0
  133.5680   71.6870  227.5840 H   0  0  0  0  0  0  0  0  0  0  0  0
  132.6780   73.2060  227.9120 H   0  0  0  0  0  0  0  0  0  0  0  0
  133.9427   75.2653  226.8130 H   0  0  0  0  0  0  0  0  0  0  0  0
  135.0314   76.1457  224.7608 H   0  0  0  0  0  0  0  0  0  0  0  0
  135.1154   74.5911  221.7692 H   0  0  0  0  0  0  0  0  0  0  0  0
  136.2350   75.6586  222.7351 H   0  0  0  0  0  0  0  0  0  0  0  0
  137.7470   73.6410  222.9520 H   0  0  0  0  0  0  0  0  0  0  0  0
  138.1377   71.7153  219.8381 H   0  0  0  0  0  0  0  0  0  0  0  0
  139.1765   73.0356  220.5381 H   0  0  0  0  0  0  0  0  0  0  0  0
  138.3440   70.5210  221.9360 H   0  0  0  0  0  0  0  0  0  0  0  0
  141.1299   72.8963  224.7335 H   0  0  0  0  0  0  0  0  0  0  0  0
  141.8911   71.7176  226.7698 H   0  0  0  0  0  0  0  0  0  0  0  0
  141.7633   69.6445  228.1175 H   0  0  0  0  0  0  0  0  0  0  0  0
  140.9157   67.3701  228.5212 H   0  0  0  0  0  0  0  0  0  0  0  0
  139.3210   66.3731  226.8401 H   0  0  0  0  0  0  0  0  0  0  0  0
  138.6597   67.7130  224.8404 H   0  0  0  0  0  0  0  0  0  0  0  0
  135.2117   72.1756  223.1983 H   0  0  0  0  0  0  0  0  0  0  0  0
  134.1462   71.2873  225.2067 H   0  0  0  0  0  0  0  0  0  0  0  0
  1  2  1  0
  2  3  2  0
  3  4  1  0
  4  5  2  0
  5  6  1  0
  6  7  1  0
  7  8  1  0
  8  9  2  0
  8 10  1  0
 10 11  1  0
 11 12  1  0
 12 13  2  0
 12 14  1  0
 14 15  2  0
 15 16  1  0
 16 17  2  0
 17 18  1  0
 18 19  2  0
 19 20  1  0
 20 21  2  0
 21 22  1  0
 22 23  2  0
  5 24  1  0
 24 25  2  0
 25  2  1  0
 23 14  1  0
 22 17  1  0
  1 26  1  0
  1 27  1  0
  3 28  1  0
  4 29  1  0
  6 30  1  0
  6 31  1  0
  7 32  1  0
 10 33  1  0
 10 34  1  0
 11 35  1  0
 15 36  1  0
 16 37  1  0
 18 38  1  0
 19 39  1  0
 20 40  1  0
 21 41  1  0
 24 42  1  0
 25 43  1  0
M  END
>  <smiles>  (18) 
Nc1ccc(CNC(=O)CNC(=O)c2ccc3ccccc3n2)cc1

>  <score_type>  (18) 
oracle

>  <origin>  (18) 
autodockgpu

>  <m_score__min__energy>  (18) 
-8.3100000000000005

>  <m_primary>  (18) 
energy

>  <rmsd>  (18) 
5.7865893146950835

>  <m_score__min__rmsd>  (18) 
5.7865893146950835

>  <meeko>  (18) 
{"free_energy": -6.93, "intermolecular_energy": -8.72, "internal_energy": -1.76, "cluster_size": 3, "cluster_id": 5, "rank_in_cluster": 3}

>  <energy>  (18) 
-7.69

>  <cluster_rmsd>  (18) 
0.9

>  <cluster>  (18) 
1

$$$$

     RDKit          3D

 43 45  0  0  0  0  0  0  0  0999 V2000
  142.5840   80.2190  222.2150 N   0  0  0  0  0  0  0  0  0  0  0  0
  141.5460   79.2480  222.2830 C   0  0  0  0  0  0  0  0  0  0  0  0
  141.6330   78.0230  221.6180 C   0  0  0  0  0  0  0  0  0  0  0  0
  140.5990   77.0890  221.7040 C   0  0  0  0  0  0  0  0  0  0  0  0
  139.4760   77.3560  222.4430 C   0  0  0  0  0  0  0  0  0  0  0  0
  138.3310   76.4400  222.6050 C   0  0  0  0  0  0  0  0  0  0  0  0
  138.5930   75.1050  222.1000 N   0  0  0  0  0  0  0  0  0  0  0  0
  138.6420   74.7820  220.7210 C   0  0  0  0  0  0  0  0  0  0  0  0
  138.4580   75.6310  219.8110 O   0  0  0  0  0  0  0  0  0  0  0  0
  138.9190   73.3930  220.3230 C   0  0  0  0  0  0  0  0  0  0  0  0
  138.8180   72.4650  221.4310 N   0  0  0  0  0  0  0  0  0  0  0  0
  139.8170   72.5540  222.4430 C   0  0  0  0  0  0  0  0  0  0  0  0
  140.7350   73.4310  222.3210 O   0  0  0  0  0  0  0  0  0  0  0  0
  139.7910   71.6550  223.6030 C   0  0  0  0  0  0  0  0  0  0  0  0
  139.0550   70.4860  223.5050 C   0  0  0  0  0  0  0  0  0  0  0  0
  138.9640   69.5730  224.5340 C   0  0  0  0  0  0  0  0  0  0  0  0
  139.6330   69.8500  225.6970 C   0  0  0  0  0  0  0  0  0  0  0  0
  139.6340   69.0410  226.7960 C   0  0  0  0  0  0  0  0  0  0  0  0
  140.3050   69.3110  227.9680 C   0  0  0  0  0  0  0  0  0  0  0  0
  141.0340   70.4980  228.0270 C   0  0  0  0  0  0  0  0  0  0  0  0
  141.0520   71.3470  226.9150 C   0  0  0  0  0  0  0  0  0  0  0  0
  140.3640   71.0310  225.7670 C   0  0  0  0  0  0  0  0  0  0  0  0
  140.4330   71.9000  224.7430 N   0  0  0  0  0  0  0  0  0  0  0  0
  139.4150   78.5800  223.0930 C   0  0  0  0  0  0  0  0  0  0  0  0
  140.4160   79.5050  223.0220 C   0  0  0  0  0  0  0  0  0  0  0  0
  142.4890   81.0860  222.7930 H   0  0  0  0  0  0  0  0  0  0  0  0
  143.4370   80.1190  221.6210 H   0  0  0  0  0  0  0  0  0  0  0  0
  142.5265   77.7914  221.0196 H   0  0  0  0  0  0  0  0  0  0  0  0
  140.6864   76.1294  221.1735 H   0  0  0  0  0  0  0  0  0  0  0  0
  138.0893   76.3679  223.6757 H   0  0  0  0  0  0  0  0  0  0  0  0
  137.4957   76.8532  222.0206 H   0  0  0  0  0  0  0  0  0  0  0  0
  138.7600   74.3210  222.7980 H   0  0  0  0  0  0  0  0  0  0  0  0
  138.1956   73.0974  219.5489 H   0  0  0  0  0  0  0  0  0  0  0  0
  139.9526   73.3536  219.9487 H   0  0  0  0  0  0  0  0  0  0  0  0
  138.0590   71.7490  221.5150 H   0  0  0  0  0  0  0  0  0  0  0  0
  138.5204   70.2771  222.5666 H   0  0  0  0  0  0  0  0  0  0  0  0
  138.3732   68.6516  224.4247 H   0  0  0  0  0  0  0  0  0  0  0  0
  139.0573   68.1058  226.7419 H   0  0  0  0  0  0  0  0  0  0  0  0
  140.2673   68.6189  228.8221 H   0  0  0  0  0  0  0  0  0  0  0  0
  141.5893   70.7643  228.9384 H   0  0  0  0  0  0  0  0  0  0  0  0
  141.6267   72.2839  226.9598 H   0  0  0  0  0  0  0  0  0  0  0  0
  138.5221   78.8150  223.6909 H   0  0  0  0  0  0  0  0  0  0  0  0
  140.3180   80.4603  223.5585 H   0  0  0  0  0  0  0  0  0  0  0  0
  1  2  1  0
  2  3  2  0
  3  4  1  0
  4  5  2  0
  5  6  1  0
  6  7  1  0
  7  8  1  0
  8  9  2  0
  8 10  1  0
 10 11  1  0
 11 12  1  0
 12 13  2  0
 12 14  1  0
 14 15  2  0
 15 16  1  0
 16 17  2  0
 17 18  1  0
 18 19  2  0
 19 20  1  0
 20 21  2  0
 21 22  1  0
 22 23  2  0
  5 24  1  0
 24 25  2  0
 25  2  1  0
 23 14  1  0
 22 17  1  0
  1 26  1  0
  1 27  1  0
  3 28  1  0
  4 29  1  0
  6 30  1  0
  6 31  1  0
  7 32  1  0
 10 33  1  0
 10 34  1  0
 11 35  1  0
 15 36  1  0
 16 37  1  0
 18 38  1  0
 19 39  1  0
 20 40  1  0
 21 41  1  0
 24 42  1  0
 25 43  1  0
M  END
>  <smiles>  (19) 
Nc1ccc(CNC(=O)CNC(=O)c2ccc3ccccc3n2)cc1

>  <score_type>  (19) 
oracle

>  <origin>  (19) 
autodockgpu

>  <m_score__min__energy>  (19) 
-8.3100000000000005

>  <m_primary>  (19) 
energy

>  <rmsd>  (19) 
2.6750486572434182

>  <m_score__min__rmsd>  (19) 
2.6750486572434182

>  <meeko>  (19) 
{"free_energy": -7.69, "intermolecular_energy": -9.48, "internal_energy": -1.3, "cluster_size": 28, "cluster_id": 1, "rank_in_cluster": 18}

>  <energy>  (19) 
-7.62

>  <cluster_rmsd>  (19) 
1.05

>  <cluster>  (19) 
1

$$$$

     RDKit          3D

 43 45  0  0  0  0  0  0  0  0999 V2000
  143.6380   80.1480  222.8300 N   0  0  0  0  0  0  0  0  0  0  0  0
  142.3120   79.6520  222.6940 C   0  0  0  0  0  0  0  0  0  0  0  0
  141.4540   79.5200  223.7880 C   0  0  0  0  0  0  0  0  0  0  0  0
  140.1570   79.0300  223.6230 C   0  0  0  0  0  0  0  0  0  0  0  0
  139.6980   78.6680  222.3830 C   0  0  0  0  0  0  0  0  0  0  0  0
  138.3490   78.1470  222.0980 C   0  0  0  0  0  0  0  0  0  0  0  0
  138.3600   76.7900  221.5840 N   0  0  0  0  0  0  0  0  0  0  0  0
  139.3460   75.8290  221.9230 C   0  0  0  0  0  0  0  0  0  0  0  0
  140.3020   76.0740  222.7030 O   0  0  0  0  0  0  0  0  0  0  0  0
  139.2560   74.4800  221.3430 C   0  0  0  0  0  0  0  0  0  0  0  0
  139.0510   73.4540  222.3450 N   0  0  0  0  0  0  0  0  0  0  0  0
  140.1720   72.6400  222.6760 C   0  0  0  0  0  0  0  0  0  0  0  0
  141.2800   72.8520  222.0800 O   0  0  0  0  0  0  0  0  0  0  0  0
  140.0560   71.5780  223.6820 C   0  0  0  0  0  0  0  0  0  0  0  0
  139.3550   70.4320  223.3440 C   0  0  0  0  0  0  0  0  0  0  0  0
  139.1860   69.3770  224.2130 C   0  0  0  0  0  0  0  0  0  0  0  0
  139.7390   69.4800  225.4620 C   0  0  0  0  0  0  0  0  0  0  0  0
  139.6540   68.5160  226.4240 C   0  0  0  0  0  0  0  0  0  0  0  0
  140.2080   68.6110  227.6810 C   0  0  0  0  0  0  0  0  0  0  0  0
  140.9050   69.7800  227.9840 C   0  0  0  0  0  0  0  0  0  0  0  0
  141.0110   70.7860  227.0170 C   0  0  0  0  0  0  0  0  0  0  0  0
  140.4380   70.6410  225.7750 C   0  0  0  0  0  0  0  0  0  0  0  0
  140.5850   71.6540  224.9020 N   0  0  0  0  0  0  0  0  0  0  0  0
  140.5700   78.8100  221.3130 C   0  0  0  0  0  0  0  0  0  0  0  0
  141.8420   79.2870  221.4540 C   0  0  0  0  0  0  0  0  0  0  0  0
  143.7980   80.9680  223.4620 H   0  0  0  0  0  0  0  0  0  0  0  0
  144.4640   79.7440  222.3370 H   0  0  0  0  0  0  0  0  0  0  0  0
  141.8040   79.8053  224.7910 H   0  0  0  0  0  0  0  0  0  0  0  0
  139.4965   78.9334  224.4973 H   0  0  0  0  0  0  0  0  0  0  0  0
  137.7632   78.1641  223.0289 H   0  0  0  0  0  0  0  0  0  0  0  0
  137.9068   78.7884  221.3215 H   0  0  0  0  0  0  0  0  0  0  0  0
  137.5890   76.4920  220.9150 H   0  0  0  0  0  0  0  0  0  0  0  0
  138.4129   74.4559  220.6368 H   0  0  0  0  0  0  0  0  0  0  0  0
  140.2121   74.2690  220.8417 H   0  0  0  0  0  0  0  0  0  0  0  0
  138.1350   73.2910  222.8230 H   0  0  0  0  0  0  0  0  0  0  0  0
  138.9145   70.3616  222.3385 H   0  0  0  0  0  0  0  0  0  0  0  0
  138.6245   68.4797  223.9135 H   0  0  0  0  0  0  0  0  0  0  0  0
  139.1030   67.5964  226.1775 H   0  0  0  0  0  0  0  0  0  0  0  0
  140.1050   67.7986  228.4155 H   0  0  0  0  0  0  0  0  0  0  0  0
  141.3671   69.9102  228.9737 H   0  0  0  0  0  0  0  0  0  0  0  0
  141.5618   71.7082  227.2541 H   0  0  0  0  0  0  0  0  0  0  0  0
  140.2221   78.5264  220.3087 H   0  0  0  0  0  0  0  0  0  0  0  0
  142.4932   79.3796  220.5723 H   0  0  0  0  0  0  0  0  0  0  0  0
  1  2  1  0
  2  3  2  0
  3  4  1  0
  4  5  2  0
  5  6  1  0
  6  7  1  0
  7  8  1  0
  8  9  2  0
  8 10  1  0
 10 11  1  0
 11 12  1  0
 12 13  2  0
 12 14  1  0
 14 15  2  0
 15 16  1  0
 16 17  2  0
 17 18  1  0
 18 19  2  0
 19 20  1  0
 20 21  2  0
 21 22  1  0
 22 23  2  0
  5 24  1  0
 24 25  2  0
 25  2  1  0
 23 14  1  0
 22 17  1  0
  1 26  1  0
  1 27  1  0
  3 28  1  0
  4 29  1  0
  6 30  1  0
  6 31  1  0
  7 32  1  0
 10 33  1  0
 10 34  1  0
 11 35  1  0
 15 36  1  0
 16 37  1  0
 18 38  1  0
 19 39  1  0
 20 40  1  0
 21 41  1  0
 24 42  1  0
 25 43  1  0
M  END
>  <smiles>  (20) 
Nc1ccc(CNC(=O)CNC(=O)c2ccc3ccccc3n2)cc1

>  <score_type>  (20) 
oracle

>  <origin>  (20) 
autodockgpu

>  <m_score__min__energy>  (20) 
-8.3100000000000005

>  <m_primary>  (20) 
energy

>  <rmsd>  (20) 
3.1735666897036623

>  <m_score__min__rmsd>  (20) 
3.1735666897036623

>  <meeko>  (20) 
{"free_energy": -7.98, "intermolecular_energy": -9.77, "internal_energy": -0.65, "cluster_size": 28, "cluster_id": 1, "rank_in_cluster": 8}

>  <energy>  (20) 
-7.5

>  <cluster_rmsd>  (20) 
1.45

>  <cluster>  (20) 
1

$$$$

     RDKit          3D

 43 45  0  0  0  0  0  0  0  0999 V2000
  146.6180   73.1350  221.5040 N   0  0  0  0  0  0  0  0  0  0  0  0
  145.3140   73.2810  220.9560 C   0  0  0  0  0  0  0  0  0  0  0  0
  144.4370   72.2010  220.8320 C   0  0  0  0  0  0  0  0  0  0  0  0
  143.1620   72.3740  220.2910 C   0  0  0  0  0  0  0  0  0  0  0  0
  142.7430   73.6090  219.8700 C   0  0  0  0  0  0  0  0  0  0  0  0
  141.4190   73.9030  219.2910 C   0  0  0  0  0  0  0  0  0  0  0  0
  140.3450   73.1590  219.9200 N   0  0  0  0  0  0  0  0  0  0  0  0
  139.2400   73.7670  220.5670 C   0  0  0  0  0  0  0  0  0  0  0  0
  139.0980   75.0140  220.6510 O   0  0  0  0  0  0  0  0  0  0  0  0
  138.2060   72.9120  221.1690 C   0  0  0  0  0  0  0  0  0  0  0  0
  138.5230   72.5270  222.5290 N   0  0  0  0  0  0  0  0  0  0  0  0
  139.4910   71.4940  222.7000 C   0  0  0  0  0  0  0  0  0  0  0  0
  140.0160   70.9700  221.6620 O   0  0  0  0  0  0  0  0  0  0  0  0
  139.8750   71.0420  224.0410 C   0  0  0  0  0  0  0  0  0  0  0  0
  140.6740   71.8760  224.8070 C   0  0  0  0  0  0  0  0  0  0  0  0
  141.0920   71.5480  226.0780 C   0  0  0  0  0  0  0  0  0  0  0  0
  140.6950   70.3430  226.5930 C   0  0  0  0  0  0  0  0  0  0  0  0
  141.0300   69.8870  227.8340 C   0  0  0  0  0  0  0  0  0  0  0  0
  140.6350   68.6770  228.3600 C   0  0  0  0  0  0  0  0  0  0  0  0
  139.8320   67.8660  227.5580 C   0  0  0  0  0  0  0  0  0  0  0  0
  139.4700   68.3070  226.2810 C   0  0  0  0  0  0  0  0  0  0  0  0
  139.8930   69.5250  225.8030 C   0  0  0  0  0  0  0  0  0  0  0  0
  139.5020   69.8760  224.5650 N   0  0  0  0  0  0  0  0  0  0  0  0
  143.6330   74.6650  220.0040 C   0  0  0  0  0  0  0  0  0  0  0  0
  144.8840   74.5150  220.5310 C   0  0  0  0  0  0  0  0  0  0  0  0
  147.2620   73.9610  221.4770 H   0  0  0  0  0  0  0  0  0  0  0  0
  146.9750   72.2520  221.9310 H   0  0  0  0  0  0  0  0  0  0  0  0
  144.7550   71.2019  221.1648 H   0  0  0  0  0  0  0  0  0  0  0  0
  142.4867   71.5103  220.2017 H   0  0  0  0  0  0  0  0  0  0  0  0
  141.2162   74.9777  219.4089 H   0  0  0  0  0  0  0  0  0  0  0  0
  141.4498   73.6032  218.2331 H   0  0  0  0  0  0  0  0  0  0  0  0
  140.3810   72.0960  219.8990 H   0  0  0  0  0  0  0  0  0  0  0  0
  137.2527   73.4609  221.1715 H   0  0  0  0  0  0  0  0  0  0  0  0
  138.1435   71.9924  220.5687 H   0  0  0  0  0  0  0  0  0  0  0  0
  138.0820   72.9650  223.3700 H   0  0  0  0  0  0  0  0  0  0  0  0
  140.9877   72.8409  224.3820 H   0  0  0  0  0  0  0  0  0  0  0  0
  141.7251   72.2329  226.6611 H   0  0  0  0  0  0  0  0  0  0  0  0
  141.6621   70.5331  228.4608 H   0  0  0  0  0  0  0  0  0  0  0  0
  140.9397   68.3635  229.3694 H   0  0  0  0  0  0  0  0  0  0  0  0
  139.4867   66.8887  227.9264 H   0  0  0  0  0  0  0  0  0  0  0  0
  138.8360   67.6685  225.6482 H   0  0  0  0  0  0  0  0  0  0  0  0
  143.3177   75.6651  219.6718 H   0  0  0  0  0  0  0  0  0  0  0  0
  145.5505   75.3860  220.6157 H   0  0  0  0  0  0  0  0  0  0  0  0
  1  2  1  0
  2  3  2  0
  3  4  1  0
  4  5  2  0
  5  6  1  0
  6  7  1  0
  7  8  1  0
  8  9  2  0
  8 10  1  0
 10 11  1  0
 11 12  1  0
 12 13  2  0
 12 14  1  0
 14 15  2  0
 15 16  1  0
 16 17  2  0
 17 18  1  0
 18 19  2  0
 19 20  1  0
 20 21  2  0
 21 22  1  0
 22 23  2  0
  5 24  1  0
 24 25  2  0
 25  2  1  0
 23 14  1  0
 22 17  1  0
  1 26  1  0
  1 27  1  0
  3 28  1  0
  4 29  1  0
  6 30  1  0
  6 31  1  0
  7 32  1  0
 10 33  1  0
 10 34  1  0
 11 35  1  0
 15 36  1  0
 16 37  1  0
 18 38  1  0
 19 39  1  0
 20 40  1  0
 21 41  1  0
 24 42  1  0
 25 43  1  0
M  END
>  <smiles>  (21) 
Nc1ccc(CNC(=O)CNC(=O)c2ccc3ccccc3n2)cc1

>  <score_type>  (21) 
oracle

>  <origin>  (21) 
autodockgpu

>  <m_score__min__energy>  (21) 
-8.3100000000000005

>  <m_primary>  (21) 
energy

>  <rmsd>  (21) 
3.836781306872589

>  <m_score__min__rmsd>  (21) 
3.836781306872589

>  <meeko>  (21) 
{"free_energy": -7.1, "intermolecular_energy": -8.89, "internal_energy": -1.62, "cluster_size": 4, "cluster_id": 3, "rank_in_cluster": 4}

>  <energy>  (21) 
-7.48

>  <cluster_rmsd>  (21) 
1.38

>  <cluster>  (21) 
1

$$$$

     RDKit          3D

 43 45  0  0  0  0  0  0  0  0999 V2000
  142.9950   80.2370  222.5970 N   0  0  0  0  0  0  0  0  0  0  0  0
  141.8590   79.3820  222.5380 C   0  0  0  0  0  0  0  0  0  0  0  0
  141.8090   78.2740  221.6900 C   0  0  0  0  0  0  0  0  0  0  0  0
  140.6810   77.4530  221.6550 C   0  0  0  0  0  0  0  0  0  0  0  0
  139.5980   77.7160  222.4530 C   0  0  0  0  0  0  0  0  0  0  0  0
  138.3630   76.9130  222.4980 C   0  0  0  0  0  0  0  0  0  0  0  0
  138.6020   75.4910  222.3300 N   0  0  0  0  0  0  0  0  0  0  0  0
  138.2220   74.7620  221.1750 C   0  0  0  0  0  0  0  0  0  0  0  0
  137.6410   75.2890  220.1920 O   0  0  0  0  0  0  0  0  0  0  0  0
  138.5180   73.3220  221.1110 C   0  0  0  0  0  0  0  0  0  0  0  0
  138.7140   72.7350  222.4210 N   0  0  0  0  0  0  0  0  0  0  0  0
  139.7610   71.7770  222.5500 C   0  0  0  0  0  0  0  0  0  0  0  0
  140.4580   71.4900  221.5210 O   0  0  0  0  0  0  0  0  0  0  0  0
  140.0320   71.1330  223.8400 C   0  0  0  0  0  0  0  0  0  0  0  0
  140.6970   71.8680  224.8090 C   0  0  0  0  0  0  0  0  0  0  0  0
  141.0010   71.3590  226.0530 C   0  0  0  0  0  0  0  0  0  0  0  0
  140.6260   70.0710  226.3280 C   0  0  0  0  0  0  0  0  0  0  0  0
  140.8600   69.4370  227.5130 C   0  0  0  0  0  0  0  0  0  0  0  0
  140.4850   68.1430  227.7990 C   0  0  0  0  0  0  0  0  0  0  0  0
  139.8190   67.4360  226.7980 C   0  0  0  0  0  0  0  0  0  0  0  0
  139.5640   68.0600  225.5720 C   0  0  0  0  0  0  0  0  0  0  0  0
  139.9600   69.3560  225.3380 C   0  0  0  0  0  0  0  0  0  0  0  0
  139.6780   69.8840  224.1330 N   0  0  0  0  0  0  0  0  0  0  0  0
  139.6740   78.8230  223.2870 C   0  0  0  0  0  0  0  0  0  0  0  0
  140.7690   79.6380  223.3360 C   0  0  0  0  0  0  0  0  0  0  0  0
  142.9800   81.0350  223.2750 H   0  0  0  0  0  0  0  0  0  0  0  0
  143.8450   80.1170  222.0030 H   0  0  0  0  0  0  0  0  0  0  0  0
  142.6683   78.0456  221.0423 H   0  0  0  0  0  0  0  0  0  0  0  0
  140.6608   76.5851  220.9794 H   0  0  0  0  0  0  0  0  0  0  0  0
  137.8762   77.0736  223.4713 H   0  0  0  0  0  0  0  0  0  0  0  0
  137.7284   77.2401  221.6612 H   0  0  0  0  0  0  0  0  0  0  0  0
  139.0880   74.9600  223.1120 H   0  0  0  0  0  0  0  0  0  0  0  0
  137.6777   72.8111  220.6181 H   0  0  0  0  0  0  0  0  0  0  0  0
  139.4545   73.1990  220.5472 H   0  0  0  0  0  0  0  0  0  0  0  0
  138.1310   72.9790  223.2550 H   0  0  0  0  0  0  0  0  0  0  0  0
  140.9945   72.9009  224.5752 H   0  0  0  0  0  0  0  0  0  0  0  0
  141.5284   71.9683  226.8017 H   0  0  0  0  0  0  0  0  0  0  0  0
  141.3866   70.0004  228.2974 H   0  0  0  0  0  0  0  0  0  0  0  0
  140.7017   67.6862  228.7759 H   0  0  0  0  0  0  0  0  0  0  0  0
  139.4975   66.3983  226.9707 H   0  0  0  0  0  0  0  0  0  0  0  0
  139.0378   67.5045  224.7818 H   0  0  0  0  0  0  0  0  0  0  0  0
  138.8162   79.0536  223.9358 H   0  0  0  0  0  0  0  0  0  0  0  0
  140.7788   80.5023  224.0164 H   0  0  0  0  0  0  0  0  0  0  0  0
  1  2  1  0
  2  3  2  0
  3  4  1  0
  4  5  2  0
  5  6  1  0
  6  7  1  0
  7  8  1  0
  8  9  2  0
  8 10  1  0
 10 11  1  0
 11 12  1  0
 12 13  2  0
 12 14  1  0
 14 15  2  0
 15 16  1  0
 16 17  2  0
 17 18  1  0
 18 19  2  0
 19 20  1  0
 20 21  2  0
 21 22  1  0
 22 23  2  0
  5 24  1  0
 24 25  2  0
 25  2  1  0
 23 14  1  0
 22 17  1  0
  1 26  1  0
  1 27  1  0
  3 28  1  0
  4 29  1  0
  6 30  1  0
  6 31  1  0
  7 32  1  0
 10 33  1  0
 10 34  1  0
 11 35  1  0
 15 36  1  0
 16 37  1  0
 18 38  1  0
 19 39  1  0
 20 40  1  0
 21 41  1  0
 24 42  1  0
 25 43  1  0
M  END
>  <smiles>  (22) 
Nc1ccc(CNC(=O)CNC(=O)c2ccc3ccccc3n2)cc1

>  <score_type>  (22) 
oracle

>  <origin>  (22) 
autodockgpu

>  <m_score__min__energy>  (22) 
-8.3100000000000005

>  <m_primary>  (22) 
energy

>  <rmsd>  (22) 
3.439658846706477

>  <m_score__min__rmsd>  (22) 
3.439658846706477

>  <meeko>  (22) 
{"free_energy": -8.0, "intermolecular_energy": -9.79, "internal_energy": -0.78, "cluster_size": 28, "cluster_id": 1, "rank_in_cluster": 7}

>  <energy>  (22) 
-7.45

>  <cluster_rmsd>  (22) 
1.35

>  <cluster>  (22) 
1

$$$$

     RDKit          3D

 43 45  0  0  0  0  0  0  0  0999 V2000
  140.9370   67.7510  226.9200 N   0  0  0  0  0  0  0  0  0  0  0  0
  140.1520   68.6480  226.1440 C   0  0  0  0  0  0  0  0  0  0  0  0
  140.6110   69.9180  225.7880 C   0  0  0  0  0  0  0  0  0  0  0  0
  139.8170   70.7760  225.0250 C   0  0  0  0  0  0  0  0  0  0  0  0
  138.5700   70.3890  224.6080 C   0  0  0  0  0  0  0  0  0  0  0  0
  137.6550   71.2120  223.7950 C   0  0  0  0  0  0  0  0  0  0  0  0
  138.3410   72.0030  222.7900 N   0  0  0  0  0  0  0  0  0  0  0  0
  138.3430   71.6880  221.4080 C   0  0  0  0  0  0  0  0  0  0  0  0
  137.7460   70.6870  220.9330 O   0  0  0  0  0  0  0  0  0  0  0  0
  139.0710   72.5640  220.4780 C   0  0  0  0  0  0  0  0  0  0  0  0
  138.9320   73.9670  220.8080 N   0  0  0  0  0  0  0  0  0  0  0  0
  139.8300   74.4950  221.7810 C   0  0  0  0  0  0  0  0  0  0  0  0
  140.6940   73.7150  222.3030 O   0  0  0  0  0  0  0  0  0  0  0  0
  139.7620   75.9070  222.1750 C   0  0  0  0  0  0  0  0  0  0  0  0
  138.5120   76.4750  222.3540 C   0  0  0  0  0  0  0  0  0  0  0  0
  138.3360   77.7910  222.7230 C   0  0  0  0  0  0  0  0  0  0  0  0
  139.4540   78.5570  222.9160 C   0  0  0  0  0  0  0  0  0  0  0  0
  139.4340   79.8710  223.2820 C   0  0  0  0  0  0  0  0  0  0  0  0
  140.5530   80.6490  223.4800 C   0  0  0  0  0  0  0  0  0  0  0  0
  141.7940   80.0410  223.2890 C   0  0  0  0  0  0  0  0  0  0  0  0
  141.8470   78.6940  222.9150 C   0  0  0  0  0  0  0  0  0  0  0  0
  140.6970   77.9620  222.7300 C   0  0  0  0  0  0  0  0  0  0  0  0
  140.8340   76.6720  222.3700 N   0  0  0  0  0  0  0  0  0  0  0  0
  138.1380   69.1230  224.9750 C   0  0  0  0  0  0  0  0  0  0  0  0
  138.9000   68.2690  225.7200 C   0  0  0  0  0  0  0  0  0  0  0  0
  140.4890   66.8690  227.2620 H   0  0  0  0  0  0  0  0  0  0  0  0
  141.9360   67.9210  227.1720 H   0  0  0  0  0  0  0  0  0  0  0  0
  141.6096   70.2460  226.1125 H   0  0  0  0  0  0  0  0  0  0  0  0
  140.1960   71.7729  224.7557 H   0  0  0  0  0  0  0  0  0  0  0  0
  136.9412   70.5455  223.2887 H   0  0  0  0  0  0  0  0  0  0  0  0
  137.1516   71.9133  224.4768 H   0  0  0  0  0  0  0  0  0  0  0  0
  138.8750   72.8690  223.1010 H   0  0  0  0  0  0  0  0  0  0  0  0
  140.1383   72.2995  220.5077 H   0  0  0  0  0  0  0  0  0  0  0  0
  138.6428   72.4141  219.4759 H   0  0  0  0  0  0  0  0  0  0  0  0
  138.2160   74.5940  220.3730 H   0  0  0  0  0  0  0  0  0  0  0  0
  137.6215   75.8491  222.1949 H   0  0  0  0  0  0  0  0  0  0  0  0
  137.3290   78.2126  222.8582 H   0  0  0  0  0  0  0  0  0  0  0  0
  138.4519   80.3439  223.4298 H   0  0  0  0  0  0  0  0  0  0  0  0
  140.4717   81.7052  223.7762 H   0  0  0  0  0  0  0  0  0  0  0  0
  142.7216   80.6150  223.4311 H   0  0  0  0  0  0  0  0  0  0  0  0
  142.8246   78.2121  222.7663 H   0  0  0  0  0  0  0  0  0  0  0  0
  137.1395   68.7930  224.6523 H   0  0  0  0  0  0  0  0  0  0  0  0
  138.5107   67.2741  225.9819 H   0  0  0  0  0  0  0  0  0  0  0  0
  1  2  1  0
  2  3  2  0
  3  4  1  0
  4  5  2  0
  5  6  1  0
  6  7  1  0
  7  8  1  0
  8  9  2  0
  8 10  1  0
 10 11  1  0
 11 12  1  0
 12 13  2  0
 12 14  1  0
 14 15  2  0
 15 16  1  0
 16 17  2  0
 17 18  1  0
 18 19  2  0
 19 20  1  0
 20 21  2  0
 21 22  1  0
 22 23  2  0
  5 24  1  0
 24 25  2  0
 25  2  1  0
 23 14  1  0
 22 17  1  0
  1 26  1  0
  1 27  1  0
  3 28  1  0
  4 29  1  0
  6 30  1  0
  6 31  1  0
  7 32  1  0
 10 33  1  0
 10 34  1  0
 11 35  1  0
 15 36  1  0
 16 37  1  0
 18 38  1  0
 19 39  1  0
 20 40  1  0
 21 41  1  0
 24 42  1  0
 25 43  1  0
M  END
>  <smiles>  (23) 
Nc1ccc(CNC(=O)CNC(=O)c2ccc3ccccc3n2)cc1

>  <score_type>  (23) 
oracle

>  <origin>  (23) 
autodockgpu

>  <m_score__min__energy>  (23) 
-8.3100000000000005

>  <m_primary>  (23) 
energy

>  <rmsd>  (23) 
8.266550500802781

>  <m_score__min__rmsd>  (23) 
8.266550500802781

>  <meeko>  (23) 
{"free_energy": -7.21, "intermolecular_energy": -9.0, "internal_energy": -1.5, "cluster_size": 1, "cluster_id": 4, "rank_in_cluster": 1}

>  <energy>  (23) 
-7.41

>  <cluster_rmsd>  (23) 
2.0

>  <cluster>  (23) 
1

$$$$

     RDKit          3D

 43 45  0  0  0  0  0  0  0  0999 V2000
  142.7700   81.0030  217.8000 N   0  0  0  0  0  0  0  0  0  0  0  0
  142.2690   80.2640  218.9070 C   0  0  0  0  0  0  0  0  0  0  0  0
  141.8390   80.8880  220.0810 C   0  0  0  0  0  0  0  0  0  0  0  0
  141.3520   80.1360  221.1520 C   0  0  0  0  0  0  0  0  0  0  0  0
  141.2830   78.7700  221.0730 C   0  0  0  0  0  0  0  0  0  0  0  0
  140.7810   77.8830  222.1390 C   0  0  0  0  0  0  0  0  0  0  0  0
  140.9850   76.4760  221.8520 N   0  0  0  0  0  0  0  0  0  0  0  0
  139.9680   75.4950  221.9660 C   0  0  0  0  0  0  0  0  0  0  0  0
  138.7940   75.7640  222.3290 O   0  0  0  0  0  0  0  0  0  0  0  0
  140.2880   74.0950  221.6460 C   0  0  0  0  0  0  0  0  0  0  0  0
  139.9290   73.1830  222.7130 N   0  0  0  0  0  0  0  0  0  0  0  0
  140.6440   71.9520  222.7800 C   0  0  0  0  0  0  0  0  0  0  0  0
  141.5460   71.7200  221.9080 O   0  0  0  0  0  0  0  0  0  0  0  0
  140.3490   70.9700  223.8290 C   0  0  0  0  0  0  0  0  0  0  0  0
  139.5350   69.8960  223.5080 C   0  0  0  0  0  0  0  0  0  0  0  0
  139.1950   68.9180  224.4170 C   0  0  0  0  0  0  0  0  0  0  0  0
  139.6900   69.0270  225.6900 C   0  0  0  0  0  0  0  0  0  0  0  0
  139.4400   68.1360  226.6920 C   0  0  0  0  0  0  0  0  0  0  0  0
  139.9340   68.2370  227.9740 C   0  0  0  0  0  0  0  0  0  0  0  0
  140.7490   69.3320  228.2580 C   0  0  0  0  0  0  0  0  0  0  0  0
  141.0250   70.2620  227.2500 C   0  0  0  0  0  0  0  0  0  0  0  0
  140.5050   70.1140  225.9850 C   0  0  0  0  0  0  0  0  0  0  0  0
  140.8180   71.0520  225.0720 N   0  0  0  0  0  0  0  0  0  0  0  0
  141.7160   78.1750  219.8960 C   0  0  0  0  0  0  0  0  0  0  0  0
  142.1950   78.8930  218.8380 C   0  0  0  0  0  0  0  0  0  0  0  0
  142.4790   82.0040  217.7000 H   0  0  0  0  0  0  0  0  0  0  0  0
  143.4120   80.6070  217.0780 H   0  0  0  0  0  0  0  0  0  0  0  0
  141.8847   81.9840  220.1624 H   0  0  0  0  0  0  0  0  0  0  0  0
  141.0203   80.6456  222.0686 H   0  0  0  0  0  0  0  0  0  0  0  0
  141.3048   78.1289  223.0745 H   0  0  0  0  0  0  0  0  0  0  0  0
  139.6963   78.0474  222.2186 H   0  0  0  0  0  0  0  0  0  0  0  0
  141.9490   76.1540  221.5390 H   0  0  0  0  0  0  0  0  0  0  0  0
  139.7393   73.8072  220.7371 H   0  0  0  0  0  0  0  0  0  0  0  0
  141.3764   74.0268  221.5018 H   0  0  0  0  0  0  0  0  0  0  0  0
  139.1850   73.3870  223.4200 H   0  0  0  0  0  0  0  0  0  0  0  0
  139.1431   69.8207  222.4829 H   0  0  0  0  0  0  0  0  0  0  0  0
  138.5470   68.0767  224.1300 H   0  0  0  0  0  0  0  0  0  0  0  0
  138.7972   67.2742  226.4595 H   0  0  0  0  0  0  0  0  0  0  0  0
  139.6956   67.4856  228.7411 H   0  0  0  0  0  0  0  0  0  0  0  0
  141.1710   69.4634  229.2653 H   0  0  0  0  0  0  0  0  0  0  0  0
  141.6685   71.1259  227.4726 H   0  0  0  0  0  0  0  0  0  0  0  0
  141.6714   77.0791  219.8121 H   0  0  0  0  0  0  0  0  0  0  0  0
  142.5232   78.3721  217.9264 H   0  0  0  0  0  0  0  0  0  0  0  0
  1  2  1  0
  2  3  2  0
  3  4  1  0
  4  5  2  0
  5  6  1  0
  6  7  1  0
  7  8  1  0
  8  9  2  0
  8 10  1  0
 10 11  1  0
 11 12  1  0
 12 13  2  0
 12 14  1  0
 14 15  2  0
 15 16  1  0
 16 17  2  0
 17 18  1  0
 18 19  2  0
 19 20  1  0
 20 21  2  0
 21 22  1  0
 22 23  2  0
  5 24  1  0
 24 25  2  0
 25  2  1  0
 23 14  1  0
 22 17  1  0
  1 26  1  0
  1 27  1  0
  3 28  1  0
  4 29  1  0
  6 30  1  0
  6 31  1  0
  7 32  1  0
 10 33  1  0
 10 34  1  0
 11 35  1  0
 15 36  1  0
 16 37  1  0
 18 38  1  0
 19 39  1  0
 20 40  1  0
 21 41  1  0
 24 42  1  0
 25 43  1  0
M  END
>  <smiles>  (24) 
Nc1ccc(CNC(=O)CNC(=O)c2ccc3ccccc3n2)cc1

>  <score_type>  (24) 
oracle

>  <origin>  (24) 
autodockgpu

>  <m_score__min__energy>  (24) 
-8.3100000000000005

>  <m_primary>  (24) 
energy

>  <rmsd>  (24) 
3.085567850961322

>  <m_score__min__rmsd>  (24) 
3.085567850961322

>  <meeko>  (24) 
{"free_energy": -7.86, "intermolecular_energy": -9.65, "internal_energy": -0.83, "cluster_size": 14, "cluster_id": 2, "rank_in_cluster": 5}

>  <energy>  (24) 
-7.4

>  <cluster_rmsd>  (24) 
1.42

>  <cluster>  (24) 
1

$$$$

     RDKit          3D

 43 45  0  0  0  0  0  0  0  0999 V2000
  142.5570   79.9860  222.0160 N   0  0  0  0  0  0  0  0  0  0  0  0
  141.4420   79.1240  222.2090 C   0  0  0  0  0  0  0  0  0  0  0  0
  140.3230   79.5140  222.9470 C   0  0  0  0  0  0  0  0  0  0  0  0
  139.2430   78.6460  223.1190 C   0  0  0  0  0  0  0  0  0  0  0  0
  139.2580   77.3920  222.5650 C   0  0  0  0  0  0  0  0  0  0  0  0
  138.1720   76.4020  222.6790 C   0  0  0  0  0  0  0  0  0  0  0  0
  138.5580   75.0780  222.2260 N   0  0  0  0  0  0  0  0  0  0  0  0
  138.3930   74.6230  220.8940 C   0  0  0  0  0  0  0  0  0  0  0  0
  137.8930   75.3340  219.9850 O   0  0  0  0  0  0  0  0  0  0  0  0
  138.8240   73.2600  220.5470 C   0  0  0  0  0  0  0  0  0  0  0  0
  138.7760   72.3560  221.6770 N   0  0  0  0  0  0  0  0  0  0  0  0
  139.8480   72.4320  222.6130 C   0  0  0  0  0  0  0  0  0  0  0  0
  140.7800   73.2790  222.4080 O   0  0  0  0  0  0  0  0  0  0  0  0
  139.8810   71.5550  223.7890 C   0  0  0  0  0  0  0  0  0  0  0  0
  139.2870   70.3070  223.6880 C   0  0  0  0  0  0  0  0  0  0  0  0
  139.2610   69.4070  224.7310 C   0  0  0  0  0  0  0  0  0  0  0  0
  139.8490   69.7770  225.9120 C   0  0  0  0  0  0  0  0  0  0  0  0
  139.9010   68.9920  227.0260 C   0  0  0  0  0  0  0  0  0  0  0  0
  140.4910   69.3550  228.2160 C   0  0  0  0  0  0  0  0  0  0  0  0
  141.0760   70.6190  228.2780 C   0  0  0  0  0  0  0  0  0  0  0  0
  141.0410   71.4470  227.1500 C   0  0  0  0  0  0  0  0  0  0  0  0
  140.4380   71.0350  225.9850 C   0  0  0  0  0  0  0  0  0  0  0  0
  140.4460   71.8900  224.9460 N   0  0  0  0  0  0  0  0  0  0  0  0
  140.3820   77.0300  221.8360 C   0  0  0  0  0  0  0  0  0  0  0  0
  141.4480   77.8650  221.6570 C   0  0  0  0  0  0  0  0  0  0  0  0
  142.3770   81.0120  221.9060 H   0  0  0  0  0  0  0  0  0  0  0  0
  143.5470   79.6580  221.9780 H   0  0  0  0  0  0  0  0  0  0  0  0
  140.2918   80.5167  223.3982 H   0  0  0  0  0  0  0  0  0  0  0  0
  138.3710   78.9717  223.7051 H   0  0  0  0  0  0  0  0  0  0  0  0
  137.8678   76.3361  223.7341 H   0  0  0  0  0  0  0  0  0  0  0  0
  137.3490   76.7424  222.0333 H   0  0  0  0  0  0  0  0  0  0  0  0
  138.9900   74.4060  222.9280 H   0  0  0  0  0  0  0  0  0  0  0  0
  138.1638   72.8721  219.7573 H   0  0  0  0  0  0  0  0  0  0  0  0
  139.8696   73.3169  220.2102 H   0  0  0  0  0  0  0  0  0  0  0  0
  138.0060   71.6650  221.8300 H   0  0  0  0  0  0  0  0  0  0  0  0
  138.8165   70.0230  222.7351 H   0  0  0  0  0  0  0  0  0  0  0  0
  138.7833   68.4225  224.6191 H   0  0  0  0  0  0  0  0  0  0  0  0
  139.4377   67.9959  226.9697 H   0  0  0  0  0  0  0  0  0  0  0  0
  140.5004   68.6762  229.0815 H   0  0  0  0  0  0  0  0  0  0  0  0
  141.5602   70.9622  229.2041 H   0  0  0  0  0  0  0  0  0  0  0  0
  141.5036   72.4439  227.1963 H   0  0  0  0  0  0  0  0  0  0  0  0
  140.4159   76.0281  221.3831 H   0  0  0  0  0  0  0  0  0  0  0  0
  142.3146   77.5288  221.0689 H   0  0  0  0  0  0  0  0  0  0  0  0
  1  2  1  0
  2  3  2  0
  3  4  1  0
  4  5  2  0
  5  6  1  0
  6  7  1  0
  7  8  1  0
  8  9  2  0
  8 10  1  0
 10 11  1  0
 11 12  1  0
 12 13  2  0
 12 14  1  0
 14 15  2  0
 15 16  1  0
 16 17  2  0
 17 18  1  0
 18 19  2  0
 19 20  1  0
 20 21  2  0
 21 22  1  0
 22 23  2  0
  5 24  1  0
 24 25  2  0
 25  2  1  0
 23 14  1  0
 22 17  1  0
  1 26  1  0
  1 27  1  0
  3 28  1  0
  4 29  1  0
  6 30  1  0
  6 31  1  0
  7 32  1  0
 10 33  1  0
 10 34  1  0
 11 35  1  0
 15 36  1  0
 16 37  1  0
 18 38  1  0
 19 39  1  0
 20 40  1  0
 21 41  1  0
 24 42  1  0
 25 43  1  0
M  END
>  <smiles>  (25) 
Nc1ccc(CNC(=O)CNC(=O)c2ccc3ccccc3n2)cc1

>  <score_type>  (25) 
oracle

>  <origin>  (25) 
autodockgpu

>  <m_score__min__energy>  (25) 
-8.3100000000000005

>  <m_primary>  (25) 
energy

>  <rmsd>  (25) 
2.9270453031687573

>  <m_score__min__rmsd>  (25) 
2.9270453031687573

>  <meeko>  (25) 
{"free_energy": -7.82, "intermolecular_energy": -9.61, "internal_energy": -1.46, "cluster_size": 28, "cluster_id": 1, "rank_in_cluster": 13}

>  <energy>  (25) 
-7.27

>  <cluster_rmsd>  (25) 
1.41

>  <cluster>  (25) 
1

$$$$

     RDKit          3D

 43 45  0  0  0  0  0  0  0  0999 V2000
  132.8260   74.0780  227.1920 N   0  0  0  0  0  0  0  0  0  0  0  0
  133.6990   74.3770  226.1090 C   0  0  0  0  0  0  0  0  0  0  0  0
  134.2740   73.3770  225.3240 C   0  0  0  0  0  0  0  0  0  0  0  0
  135.1270   73.7010  224.2670 C   0  0  0  0  0  0  0  0  0  0  0  0
  135.4170   75.0090  223.9780 C   0  0  0  0  0  0  0  0  0  0  0  0
  136.2970   75.4600  222.8840 C   0  0  0  0  0  0  0  0  0  0  0  0
  137.2040   74.4270  222.4200 N   0  0  0  0  0  0  0  0  0  0  0  0
  136.9880   73.6600  221.2480 C   0  0  0  0  0  0  0  0  0  0  0  0
  135.9820   73.8100  220.5060 O   0  0  0  0  0  0  0  0  0  0  0  0
  137.9770   72.6380  220.8710 C   0  0  0  0  0  0  0  0  0  0  0  0
  138.2010   71.6650  221.9200 N   0  0  0  0  0  0  0  0  0  0  0  0
  139.2170   71.9640  222.8730 C   0  0  0  0  0  0  0  0  0  0  0  0
  139.8680   73.0540  222.7520 O   0  0  0  0  0  0  0  0  0  0  0  0
  139.5110   71.0360  223.9710 C   0  0  0  0  0  0  0  0  0  0  0  0
  139.1960   69.6980  223.7970 C   0  0  0  0  0  0  0  0  0  0  0  0
  139.4290   68.7440  224.7630 C   0  0  0  0  0  0  0  0  0  0  0  0
  139.9960   69.1520  225.9420 C   0  0  0  0  0  0  0  0  0  0  0  0
  140.2840   68.3220  226.9860 C   0  0  0  0  0  0  0  0  0  0  0  0
  140.8540   68.7230  228.1730 C   0  0  0  0  0  0  0  0  0  0  0  0
  141.1560   70.0770  228.3110 C   0  0  0  0  0  0  0  0  0  0  0  0
  140.8730   70.9530  227.2570 C   0  0  0  0  0  0  0  0  0  0  0  0
  140.3020   70.5000  226.0900 C   0  0  0  0  0  0  0  0  0  0  0  0
  140.0610   71.4060  225.1250 N   0  0  0  0  0  0  0  0  0  0  0  0
  134.8320   75.9830  224.7730 C   0  0  0  0  0  0  0  0  0  0  0  0
  133.9960   75.6860  225.8110 C   0  0  0  0  0  0  0  0  0  0  0  0
  131.8790   74.5250  227.2030 H   0  0  0  0  0  0  0  0  0  0  0  0
  133.0740   73.4400  227.9800 H   0  0  0  0  0  0  0  0  0  0  0  0
  134.0528   72.3214  225.5403 H   0  0  0  0  0  0  0  0  0  0  0  0
  135.5708   72.8981  223.6600 H   0  0  0  0  0  0  0  0  0  0  0  0
  135.6693   75.7799  222.0392 H   0  0  0  0  0  0  0  0  0  0  0  0
  136.9115   76.2838  223.2760 H   0  0  0  0  0  0  0  0  0  0  0  0
  138.0820   74.2280  222.9850 H   0  0  0  0  0  0  0  0  0  0  0  0
  137.6162   72.1126  219.9745 H   0  0  0  0  0  0  0  0  0  0  0  0
  138.9316   73.1516  220.6841 H   0  0  0  0  0  0  0  0  0  0  0  0
  137.6600   70.7730  222.0040 H   0  0  0  0  0  0  0  0  0  0  0  0
  138.7402   69.3840  222.8464 H   0  0  0  0  0  0  0  0  0  0  0  0
  139.1684   67.6889  224.5935 H   0  0  0  0  0  0  0  0  0  0  0  0
  140.0432   67.2549  226.8707 H   0  0  0  0  0  0  0  0  0  0  0  0
  141.0626   68.0047  228.9795 H   0  0  0  0  0  0  0  0  0  0  0  0
  141.6120   70.4529  229.2388 H   0  0  0  0  0  0  0  0  0  0  0  0
  141.1110   72.0217  227.3633 H   0  0  0  0  0  0  0  0  0  0  0  0
  135.0506   77.0395  224.5584 H   0  0  0  0  0  0  0  0  0  0  0  0
  133.5584   76.4973  226.4112 H   0  0  0  0  0  0  0  0  0  0  0  0
  1  2  1  0
  2  3  2  0
  3  4  1  0
  4  5  2  0
  5  6  1  0
  6  7  1  0
  7  8  1  0
  8  9  2  0
  8 10  1  0
 10 11  1  0
 11 12  1  0
 12 13  2  0
 12 14  1  0
 14 15  2  0
 15 16  1  0
 16 17  2  0
 17 18  1  0
 18 19  2  0
 19 20  1  0
 20 21  2  0
 21 22  1  0
 22 23  2  0
  5 24  1  0
 24 25  2  0
 25  2  1  0
 23 14  1  0
 22 17  1  0
  1 26  1  0
  1 27  1  0
  3 28  1  0
  4 29  1  0
  6 30  1  0
  6 31  1  0
  7 32  1  0
 10 33  1  0
 10 34  1  0
 11 35  1  0
 15 36  1  0
 16 37  1  0
 18 38  1  0
 19 39  1  0
 20 40  1  0
 21 41  1  0
 24 42  1  0
 25 43  1  0
M  END
>  <smiles>  (26) 
Nc1ccc(CNC(=O)CNC(=O)c2ccc3ccccc3n2)cc1

>  <score_type>  (26) 
oracle

>  <origin>  (26) 
autodockgpu

>  <m_score__min__energy>  (26) 
-8.3100000000000005

>  <m_primary>  (26) 
energy

>  <rmsd>  (26) 
5.299939887015091

>  <m_score__min__rmsd>  (26) 
5.299939887015091

>  <meeko>  (26) 
{"free_energy": -7.09, "intermolecular_energy": -8.88, "internal_energy": -1.57, "cluster_size": 3, "cluster_id": 5, "rank_in_cluster": 1}

>  <energy>  (26) 
-7.17

>  <cluster_rmsd>  (26) 
1.24

>  <cluster>  (26) 
1

$$$$

     RDKit          3D

 43 45  0  0  0  0  0  0  0  0999 V2000
  143.2710   80.5140  222.7200 N   0  0  0  0  0  0  0  0  0  0  0  0
  142.1080   79.6960  222.6830 C   0  0  0  0  0  0  0  0  0  0  0  0
  141.9750   78.6370  221.7820 C   0  0  0  0  0  0  0  0  0  0  0  0
  140.8210   77.8510  221.7700 C   0  0  0  0  0  0  0  0  0  0  0  0
  139.7950   78.1010  222.6430 C   0  0  0  0  0  0  0  0  0  0  0  0
  138.5390   77.3310  222.7180 C   0  0  0  0  0  0  0  0  0  0  0  0
  138.7230   75.9160  222.4530 N   0  0  0  0  0  0  0  0  0  0  0  0
  138.8460   75.3690  221.1510 C   0  0  0  0  0  0  0  0  0  0  0  0
  138.8060   76.0700  220.1080 O   0  0  0  0  0  0  0  0  0  0  0  0
  139.0320   73.9170  221.0020 C   0  0  0  0  0  0  0  0  0  0  0  0
  139.0150   73.2200  222.2710 N   0  0  0  0  0  0  0  0  0  0  0  0
  139.9630   72.1700  222.4450 C   0  0  0  0  0  0  0  0  0  0  0  0
  140.7630   71.9030  221.4870 O   0  0  0  0  0  0  0  0  0  0  0  0
  140.0190   71.4110  223.6990 C   0  0  0  0  0  0  0  0  0  0  0  0
  139.5490   70.1080  223.6950 C   0  0  0  0  0  0  0  0  0  0  0  0
  139.5550   69.3080  224.8160 C   0  0  0  0  0  0  0  0  0  0  0  0
  140.0500   69.8380  225.9790 C   0  0  0  0  0  0  0  0  0  0  0  0
  140.1190   69.1660  227.1640 C   0  0  0  0  0  0  0  0  0  0  0  0
  140.6150   69.6910  228.3360 C   0  0  0  0  0  0  0  0  0  0  0  0
  141.0790   71.0060  228.3000 C   0  0  0  0  0  0  0  0  0  0  0  0
  141.0220   71.7210  227.0990 C   0  0  0  0  0  0  0  0  0  0  0  0
  140.5160   71.1490  225.9550 C   0  0  0  0  0  0  0  0  0  0  0  0
  140.4950   71.9030  224.8410 N   0  0  0  0  0  0  0  0  0  0  0  0
  139.9520   79.1580  223.5280 C   0  0  0  0  0  0  0  0  0  0  0  0
  141.0730   79.9380  223.5550 C   0  0  0  0  0  0  0  0  0  0  0  0
  143.3470   81.2320  223.4780 H   0  0  0  0  0  0  0  0  0  0  0  0
  144.0550   80.4420  222.0360 H   0  0  0  0  0  0  0  0  0  0  0  0
  142.7884   78.4198  221.0740 H   0  0  0  0  0  0  0  0  0  0  0  0
  140.7347   77.0222  221.0520 H   0  0  0  0  0  0  0  0  0  0  0  0
  138.1172   77.4464  223.7273 H   0  0  0  0  0  0  0  0  0  0  0  0
  137.8653   77.7253  221.9430 H   0  0  0  0  0  0  0  0  0  0  0  0
  138.7670   75.2450  223.2770 H   0  0  0  0  0  0  0  0  0  0  0  0
  138.2221   73.5210  220.3717 H   0  0  0  0  0  0  0  0  0  0  0  0
  140.0191   73.7529  220.5451 H   0  0  0  0  0  0  0  0  0  0  0  0
  138.3510   73.4490  223.0460 H   0  0  0  0  0  0  0  0  0  0  0  0
  139.1538   69.6942  222.7556 H   0  0  0  0  0  0  0  0  0  0  0  0
  139.1746   68.2765  224.7791 H   0  0  0  0  0  0  0  0  0  0  0  0
  139.7517   68.1294  227.1847 H   0  0  0  0  0  0  0  0  0  0  0  0
  140.6442   69.0983  229.2622 H   0  0  0  0  0  0  0  0  0  0  0  0
  141.4858   71.4763  229.2074 H   0  0  0  0  0  0  0  0  0  0  0  0
  141.3879   72.7579  227.0690 H   0  0  0  0  0  0  0  0  0  0  0  0
  139.1401   79.3769  224.2372 H   0  0  0  0  0  0  0  0  0  0  0  0
  141.1480   80.7637  224.2779 H   0  0  0  0  0  0  0  0  0  0  0  0
  1  2  1  0
  2  3  2  0
  3  4  1  0
  4  5  2  0
  5  6  1  0
  6  7  1  0
  7  8  1  0
  8  9  2  0
  8 10  1  0
 10 11  1  0
 11 12  1  0
 12 13  2  0
 12 14  1  0
 14 15  2  0
 15 16  1  0
 16 17  2  0
 17 18  1  0
 18 19  2  0
 19 20  1  0
 20 21  2  0
 21 22  1  0
 22 23  2  0
  5 24  1  0
 24 25  2  0
 25  2  1  0
 23 14  1  0
 22 17  1  0
  1 26  1  0
  1 27  1  0
  3 28  1  0
  4 29  1  0
  6 30  1  0
  6 31  1  0
  7 32  1  0
 10 33  1  0
 10 34  1  0
 11 35  1  0
 15 36  1  0
 16 37  1  0
 18 38  1  0
 19 39  1  0
 20 40  1  0
 21 41  1  0
 24 42  1  0
 25 43  1  0
M  END
>  <smiles>  (27) 
Nc1ccc(CNC(=O)CNC(=O)c2ccc3ccccc3n2)cc1

>  <score_type>  (27) 
oracle

>  <origin>  (27) 
autodockgpu

>  <m_score__min__energy>  (27) 
-8.3100000000000005

>  <m_primary>  (27) 
energy

>  <rmsd>  (27) 
2.82843296431128

>  <m_score__min__rmsd>  (27) 
2.82843296431128

>  <meeko>  (27) 
{"free_energy": -8.31, "intermolecular_energy": -10.1, "internal_energy": -0.78, "cluster_size": 28, "cluster_id": 1, "rank_in_cluster": 1}

>  <energy>  (27) 
-7.16

>  <cluster_rmsd>  (27) 
1.24

>  <cluster>  (27) 
1

$$$$

     RDKit          3D

 43 45  0  0  0  0  0  0  0  0999 V2000
  142.3870   79.5600  217.1510 N   0  0  0  0  0  0  0  0  0  0  0  0
  142.4740   78.4370  218.0200 C   0  0  0  0  0  0  0  0  0  0  0  0
  142.1010   78.5090  219.3630 C   0  0  0  0  0  0  0  0  0  0  0  0
  142.1970   77.3900  220.1920 C   0  0  0  0  0  0  0  0  0  0  0  0
  142.6590   76.1960  219.7040 C   0  0  0  0  0  0  0  0  0  0  0  0
  142.7940   74.9550  220.4890 C   0  0  0  0  0  0  0  0  0  0  0  0
  141.5670   74.1820  220.5480 N   0  0  0  0  0  0  0  0  0  0  0  0
  140.3760   74.6450  221.1620 C   0  0  0  0  0  0  0  0  0  0  0  0
  140.2820   75.7720  221.7130 O   0  0  0  0  0  0  0  0  0  0  0  0
  139.1890   73.7760  221.1610 C   0  0  0  0  0  0  0  0  0  0  0  0
  139.0740   72.9870  222.3710 N   0  0  0  0  0  0  0  0  0  0  0  0
  140.0660   71.9870  222.5870 C   0  0  0  0  0  0  0  0  0  0  0  0
  140.9870   71.8400  221.7170 O   0  0  0  0  0  0  0  0  0  0  0  0
  140.0300   71.1420  223.7870 C   0  0  0  0  0  0  0  0  0  0  0  0
  139.3960   69.9130  223.7000 C   0  0  0  0  0  0  0  0  0  0  0  0
  139.3050   69.0440  224.7650 C   0  0  0  0  0  0  0  0  0  0  0  0
  139.8680   69.4260  225.9540 C   0  0  0  0  0  0  0  0  0  0  0  0
  139.8550   68.6710  227.0910 C   0  0  0  0  0  0  0  0  0  0  0  0
  140.4190   69.0470  228.2890 C   0  0  0  0  0  0  0  0  0  0  0  0
  141.0470   70.2910  228.3360 C   0  0  0  0  0  0  0  0  0  0  0  0
  141.0770   71.0880  227.1870 C   0  0  0  0  0  0  0  0  0  0  0  0
  140.4970   70.6650  226.0130 C   0  0  0  0  0  0  0  0  0  0  0  0
  140.5690   71.4900  224.9530 N   0  0  0  0  0  0  0  0  0  0  0  0
  143.0230   76.1510  218.3660 C   0  0  0  0  0  0  0  0  0  0  0  0
  142.9360   77.2350  217.5400 C   0  0  0  0  0  0  0  0  0  0  0  0
  143.2660   79.9050  216.6980 H   0  0  0  0  0  0  0  0  0  0  0  0
  141.4980   80.0630  216.9370 H   0  0  0  0  0  0  0  0  0  0  0  0
  141.7270   79.4587  219.7731 H   0  0  0  0  0  0  0  0  0  0  0  0
  141.8987   77.4676  221.2479 H   0  0  0  0  0  0  0  0  0  0  0  0
  143.5773   74.3339  220.0299 H   0  0  0  0  0  0  0  0  0  0  0  0
  143.0489   75.2447  221.5191 H   0  0  0  0  0  0  0  0  0  0  0  0
  141.5530   73.2140  220.1090 H   0  0  0  0  0  0  0  0  0  0  0  0
  138.2920   74.4053  221.0643 H   0  0  0  0  0  0  0  0  0  0  0  0
  139.2883   73.0779  220.3167 H   0  0  0  0  0  0  0  0  0  0  0  0
  138.3110   73.1180  223.0740 H   0  0  0  0  0  0  0  0  0  0  0  0
  138.9464   69.6189  222.7401 H   0  0  0  0  0  0  0  0  0  0  0  0
  138.7963   68.0739  224.6639 H   0  0  0  0  0  0  0  0  0  0  0  0
  139.3577   67.6908  227.0467 H   0  0  0  0  0  0  0  0  0  0  0  0
  140.3761   68.3932  229.1726 H   0  0  0  0  0  0  0  0  0  0  0  0
  141.5144   70.6422  229.2678 H   0  0  0  0  0  0  0  0  0  0  0  0
  141.5725   72.0694  227.2224 H   0  0  0  0  0  0  0  0  0  0  0  0
  143.3973   75.2026  217.9532 H   0  0  0  0  0  0  0  0  0  0  0  0
  143.2371   77.1457  216.4858 H   0  0  0  0  0  0  0  0  0  0  0  0
  1  2  1  0
  2  3  2  0
  3  4  1  0
  4  5  2  0
  5  6  1  0
  6  7  1  0
  7  8  1  0
  8  9  2  0
  8 10  1  0
 10 11  1  0
 11 12  1  0
 12 13  2  0
 12 14  1  0
 14 15  2  0
 15 16  1  0
 16 17  2  0
 17 18  1  0
 18 19  2  0
 19 20  1  0
 20 21  2  0
 21 22  1  0
 22 23  2  0
  5 24  1  0
 24 25  2  0
 25  2  1  0
 23 14  1  0
 22 17  1  0
  1 26  1  0
  1 27  1  0
  3 28  1  0
  4 29  1  0
  6 30  1  0
  6 31  1  0
  7 32  1  0
 10 33  1  0
 10 34  1  0
 11 35  1  0
 15 36  1  0
 16 37  1  0
 18 38  1  0
 19 39  1  0
 20 40  1  0
 21 41  1  0
 24 42  1  0
 25 43  1  0
M  END
>  <smiles>  (28) 
Nc1ccc(CNC(=O)CNC(=O)c2ccc3ccccc3n2)cc1

>  <score_type>  (28) 
oracle

>  <origin>  (28) 
autodockgpu

>  <m_score__min__energy>  (28) 
-8.3100000000000005

>  <m_primary>  (28) 
energy

>  <rmsd>  (28) 
2.3417613178837344

>  <m_score__min__rmsd>  (28) 
2.3417613178837344

>  <meeko>  (28) 
{"free_energy": -7.44, "intermolecular_energy": -9.23, "internal_energy": -1.39, "cluster_size": 14, "cluster_id": 2, "rank_in_cluster": 13}

>  <energy>  (28) 
-7.12

>  <cluster_rmsd>  (28) 
1.64

>  <cluster>  (28) 
1

$$$$

     RDKit          3D

 43 45  0  0  0  0  0  0  0  0999 V2000
  143.3390   80.4910  222.7630 N   0  0  0  0  0  0  0  0  0  0  0  0
  142.1910   79.6570  222.6600 C   0  0  0  0  0  0  0  0  0  0  0  0
  142.0690   78.6830  221.6680 C   0  0  0  0  0  0  0  0  0  0  0  0
  140.9300   77.8800  221.5920 C   0  0  0  0  0  0  0  0  0  0  0  0
  139.9070   78.0300  222.4920 C   0  0  0  0  0  0  0  0  0  0  0  0
  138.6670   77.2320  222.5060 C   0  0  0  0  0  0  0  0  0  0  0  0
  138.9020   75.8110  222.3280 N   0  0  0  0  0  0  0  0  0  0  0  0
  139.3160   75.2300  221.1040 C   0  0  0  0  0  0  0  0  0  0  0  0
  139.5160   75.9020  220.0590 O   0  0  0  0  0  0  0  0  0  0  0  0
  139.5270   73.7750  221.0400 C   0  0  0  0  0  0  0  0  0  0  0  0
  139.5740   73.1600  222.3500 N   0  0  0  0  0  0  0  0  0  0  0  0
  139.8780   71.7690  222.4020 C   0  0  0  0  0  0  0  0  0  0  0  0
  140.0870   71.1470  221.3070 O   0  0  0  0  0  0  0  0  0  0  0  0
  139.9500   71.0640  223.6870 C   0  0  0  0  0  0  0  0  0  0  0  0
  139.4810   69.7620  223.7440 C   0  0  0  0  0  0  0  0  0  0  0  0
  139.5010   69.0120  224.8990 C   0  0  0  0  0  0  0  0  0  0  0  0
  140.0090   69.5910  226.0310 C   0  0  0  0  0  0  0  0  0  0  0  0
  140.0930   68.9710  227.2430 C   0  0  0  0  0  0  0  0  0  0  0  0
  140.6030   69.5460  228.3860 C   0  0  0  0  0  0  0  0  0  0  0  0
  141.0660   70.8570  228.2880 C   0  0  0  0  0  0  0  0  0  0  0  0
  140.9940   71.5200  227.0580 C   0  0  0  0  0  0  0  0  0  0  0  0
  140.4740   70.8990  225.9460 C   0  0  0  0  0  0  0  0  0  0  0  0
  140.4400   71.6050  224.8010 N   0  0  0  0  0  0  0  0  0  0  0  0
  140.0540   79.0040  223.4680 C   0  0  0  0  0  0  0  0  0  0  0  0
  141.1600   79.7990  223.5590 C   0  0  0  0  0  0  0  0  0  0  0  0
  144.0670   80.4260  222.0130 H   0  0  0  0  0  0  0  0  0  0  0  0
  143.5020   81.1650  223.5440 H   0  0  0  0  0  0  0  0  0  0  0  0
  142.8800   78.5466  220.9375 H   0  0  0  0  0  0  0  0  0  0  0  0
  140.8524   77.1188  220.8017 H   0  0  0  0  0  0  0  0  0  0  0  0
  138.1631   77.3852  223.4717 H   0  0  0  0  0  0  0  0  0  0  0  0
  138.0497   77.5706  221.6608 H   0  0  0  0  0  0  0  0  0  0  0  0
  138.7560   75.1630  223.1590 H   0  0  0  0  0  0  0  0  0  0  0  0
  138.7019   73.3244  220.4689 H   0  0  0  0  0  0  0  0  0  0  0  0
  140.4991   73.6008  220.5556 H   0  0  0  0  0  0  0  0  0  0  0  0
  139.3990   73.6830  223.2390 H   0  0  0  0  0  0  0  0  0  0  0  0
  139.0754   69.3077  222.8280 H   0  0  0  0  0  0  0  0  0  0  0  0
  139.1207   67.9799  224.9116 H   0  0  0  0  0  0  0  0  0  0  0  0
  139.7267   67.9361  227.3127 H   0  0  0  0  0  0  0  0  0  0  0  0
  140.6432   68.9937  229.3364 H   0  0  0  0  0  0  0  0  0  0  0  0
  141.4840   71.3656  229.1693 H   0  0  0  0  0  0  0  0  0  0  0  0
  141.3591   72.5546  226.9788 H   0  0  0  0  0  0  0  0  0  0  0  0
  139.2448   79.1419  224.2002 H   0  0  0  0  0  0  0  0  0  0  0  0
  141.2268   80.5560  224.3543 H   0  0  0  0  0  0  0  0  0  0  0  0
  1  2  1  0
  2  3  2  0
  3  4  1  0
  4  5  2  0
  5  6  1  0
  6  7  1  0
  7  8  1  0
  8  9  2  0
  8 10  1  0
 10 11  1  0
 11 12  1  0
 12 13  2  0
 12 14  1  0
 14 15  2  0
 15 16  1  0
 16 17  2  0
 17 18  1  0
 18 19  2  0
 19 20  1  0
 20 21  2  0
 21 22  1  0
 22 23  2  0
  5 24  1  0
 24 25  2  0
 25  2  1  0
 23 14  1  0
 22 17  1  0
  1 26  1  0
  1 27  1  0
  3 28  1  0
  4 29  1  0
  6 30  1  0
  6 31  1  0
  7 32  1  0
 10 33  1  0
 10 34  1  0
 11 35  1  0
 15 36  1  0
 16 37  1  0
 18 38  1  0
 19 39  1  0
 20 40  1  0
 21 41  1  0
 24 42  1  0
 25 43  1  0
M  END
>  <smiles>  (29) 
Nc1ccc(CNC(=O)CNC(=O)c2ccc3ccccc3n2)cc1

>  <score_type>  (29) 
oracle

>  <origin>  (29) 
autodockgpu

>  <m_score__min__energy>  (29) 
-8.3100000000000005

>  <m_primary>  (29) 
energy

>  <rmsd>  (29) 
2.694788319262032

>  <m_score__min__rmsd>  (29) 
2.694788319262032

>  <meeko>  (29) 
{"free_energy": -8.25, "intermolecular_energy": -10.04, "internal_energy": -0.76, "cluster_size": 28, "cluster_id": 1, "rank_in_cluster": 2}

>  <energy>  (29) 
-8.12

>  <cluster_rmsd>  (29) 
0.0

>  <cluster>  (29) 
2

$$$$

     RDKit          3D

 43 45  0  0  0  0  0  0  0  0999 V2000
  142.6320   80.5140  217.9720 N   0  0  0  0  0  0  0  0  0  0  0  0
  142.2410   79.6030  218.9920 C   0  0  0  0  0  0  0  0  0  0  0  0
  142.2790   78.2200  218.8050 C   0  0  0  0  0  0  0  0  0  0  0  0
  141.8890   77.3500  219.8250 C   0  0  0  0  0  0  0  0  0  0  0  0
  141.4610   77.8370  221.0330 C   0  0  0  0  0  0  0  0  0  0  0  0
  141.0330   77.0090  222.1760 C   0  0  0  0  0  0  0  0  0  0  0  0
  140.5290   75.7070  221.7800 N   0  0  0  0  0  0  0  0  0  0  0  0
  139.1500   75.4020  221.6600 C   0  0  0  0  0  0  0  0  0  0  0  0
  138.2400   76.2390  221.8910 O   0  0  0  0  0  0  0  0  0  0  0  0
  138.7530   74.0460  221.2480 C   0  0  0  0  0  0  0  0  0  0  0  0
  138.7250   73.1120  222.3540 N   0  0  0  0  0  0  0  0  0  0  0  0
  139.9650   72.5250  222.7360 C   0  0  0  0  0  0  0  0  0  0  0  0
  141.0190   72.8450  222.0920 O   0  0  0  0  0  0  0  0  0  0  0  0
  140.0310   71.5690  223.8480 C   0  0  0  0  0  0  0  0  0  0  0  0
  139.5510   70.2870  223.6360 C   0  0  0  0  0  0  0  0  0  0  0  0
  139.5660   69.3140  224.6110 C   0  0  0  0  0  0  0  0  0  0  0  0
  140.0780   69.6440  225.8380 C   0  0  0  0  0  0  0  0  0  0  0  0
  140.1570   68.7860  226.8960 C   0  0  0  0  0  0  0  0  0  0  0  0
  140.6710   69.1090  228.1320 C   0  0  0  0  0  0  0  0  0  0  0  0
  141.1430   70.4090  228.3060 C   0  0  0  0  0  0  0  0  0  0  0  0
  141.0770   71.3110  227.2390 C   0  0  0  0  0  0  0  0  0  0  0  0
  140.5530   70.9380  226.0240 C   0  0  0  0  0  0  0  0  0  0  0  0
  140.5250   71.8650  225.0490 N   0  0  0  0  0  0  0  0  0  0  0  0
  141.4330   79.2140  221.1930 C   0  0  0  0  0  0  0  0  0  0  0  0
  141.8110   80.0810  220.2070 C   0  0  0  0  0  0  0  0  0  0  0  0
  143.3610   80.2060  217.2860 H   0  0  0  0  0  0  0  0  0  0  0  0
  142.2360   81.4740  217.8650 H   0  0  0  0  0  0  0  0  0  0  0  0
  142.6203   77.8109  217.8426 H   0  0  0  0  0  0  0  0  0  0  0  0
  141.9255   76.2634  219.6578 H   0  0  0  0  0  0  0  0  0  0  0  0
  141.8947   76.8623  222.8438 H   0  0  0  0  0  0  0  0  0  0  0  0
  140.2098   77.5408  222.6756 H   0  0  0  0  0  0  0  0  0  0  0  0
  141.2270   74.9340  221.5660 H   0  0  0  0  0  0  0  0  0  0  0  0
  137.7486   74.0936  220.8020 H   0  0  0  0  0  0  0  0  0  0  0  0
  139.5014   73.6852  220.5271 H   0  0  0  0  0  0  0  0  0  0  0  0
  137.8520   72.8580  222.8710 H   0  0  0  0  0  0  0  0  0  0  0  0
  139.1404   70.0353  222.6470 H   0  0  0  0  0  0  0  0  0  0  0  0
  139.1791   68.3040  224.4106 H   0  0  0  0  0  0  0  0  0  0  0  0
  139.7829   67.7618  226.7510 H   0  0  0  0  0  0  0  0  0  0  0  0
  140.7076   68.3720  228.9478 H   0  0  0  0  0  0  0  0  0  0  0  0
  141.5633   70.7225  229.2730 H   0  0  0  0  0  0  0  0  0  0  0  0
  141.4509   72.3366  227.3744 H   0  0  0  0  0  0  0  0  0  0  0  0
  141.0921   79.6258  222.1543 H   0  0  0  0  0  0  0  0  0  0  0  0
  141.7711   81.1656  220.3861 H   0  0  0  0  0  0  0  0  0  0  0  0
  1  2  1  0
  2  3  2  0
  3  4  1  0
  4  5  2  0
  5  6  1  0
  6  7  1  0
  7  8  1  0
  8  9  2  0
  8 10  1  0
 10 11  1  0
 11 12  1  0
 12 13  2  0
 12 14  1  0
 14 15  2  0
 15 16  1  0
 16 17  2  0
 17 18  1  0
 18 19  2  0
 19 20  1  0
 20 21  2  0
 21 22  1  0
 22 23  2  0
  5 24  1  0
 24 25  2  0
 25  2  1  0
 23 14  1  0
 22 17  1  0
  1 26  1  0
  1 27  1  0
  3 28  1  0
  4 29  1  0
  6 30  1  0
  6 31  1  0
  7 32  1  0
 10 33  1  0
 10 34  1  0
 11 35  1  0
 15 36  1  0
 16 37  1  0
 18 38  1  0
 19 39  1  0
 20 40  1  0
 21 41  1  0
 24 42  1  0
 25 43  1  0
M  END
>  <smiles>  (30) 
Nc1ccc(CNC(=O)CNC(=O)c2ccc3ccccc3n2)cc1

>  <score_type>  (30) 
oracle

>  <origin>  (30) 
autodockgpu

>  <m_score__min__energy>  (30) 
-8.3100000000000005

>  <m_primary>  (30) 
energy

>  <rmsd>  (30) 
2.598300327265445

>  <m_score__min__rmsd>  (30) 
2.598300327265445

>  <meeko>  (30) 
{"free_energy": -7.49, "intermolecular_energy": -9.28, "internal_energy": -1.45, "cluster_size": 14, "cluster_id": 2, "rank_in_cluster": 11}

>  <energy>  (30) 
-8.1

>  <cluster_rmsd>  (30) 
0.34

>  <cluster>  (30) 
2

$$$$

     RDKit          3D

 43 45  0  0  0  0  0  0  0  0999 V2000
  142.4930   80.0490  222.3920 N   0  0  0  0  0  0  0  0  0  0  0  0
  141.3640   79.1900  222.5020 C   0  0  0  0  0  0  0  0  0  0  0  0
  140.1520   79.6240  223.0400 C   0  0  0  0  0  0  0  0  0  0  0  0
  139.0610   78.7570  223.1350 C   0  0  0  0  0  0  0  0  0  0  0  0
  139.1580   77.4610  222.7000 C   0  0  0  0  0  0  0  0  0  0  0  0
  138.0690   76.4680  222.7480 C   0  0  0  0  0  0  0  0  0  0  0  0
  138.4730   75.1580  222.2710 N   0  0  0  0  0  0  0  0  0  0  0  0
  137.7740   74.4350  221.2710 C   0  0  0  0  0  0  0  0  0  0  0  0
  136.7360   74.8720  220.7110 O   0  0  0  0  0  0  0  0  0  0  0  0
  138.2760   73.1140  220.8630 C   0  0  0  0  0  0  0  0  0  0  0  0
  138.3450   72.1780  221.9660 N   0  0  0  0  0  0  0  0  0  0  0  0
  139.5110   72.2250  222.7830 C   0  0  0  0  0  0  0  0  0  0  0  0
  140.4210   73.0740  222.5020 O   0  0  0  0  0  0  0  0  0  0  0  0
  139.6640   71.3150  223.9240 C   0  0  0  0  0  0  0  0  0  0  0  0
  139.1540   70.0330  223.8090 C   0  0  0  0  0  0  0  0  0  0  0  0
  139.2430   69.1000  224.8190 C   0  0  0  0  0  0  0  0  0  0  0  0
  139.8650   69.4720  225.9820 C   0  0  0  0  0  0  0  0  0  0  0  0
  140.0280   68.6570  227.0640 C   0  0  0  0  0  0  0  0  0  0  0  0
  140.6520   69.0230  228.2350 C   0  0  0  0  0  0  0  0  0  0  0  0
  141.1520   70.3220  228.3130 C   0  0  0  0  0  0  0  0  0  0  0  0
  141.0020   71.1810  227.2180 C   0  0  0  0  0  0  0  0  0  0  0  0
  140.3690   70.7650  226.0700 C   0  0  0  0  0  0  0  0  0  0  0  0
  140.2650   71.6520  225.0640 N   0  0  0  0  0  0  0  0  0  0  0  0
  140.3730   77.0550  222.1690 C   0  0  0  0  0  0  0  0  0  0  0  0
  141.4510   77.8880  222.0680 C   0  0  0  0  0  0  0  0  0  0  0  0
  143.3530   79.6790  221.9240 H   0  0  0  0  0  0  0  0  0  0  0  0
  142.5150   81.0290  222.7510 H   0  0  0  0  0  0  0  0  0  0  0  0
  140.0545   80.6611  223.3935 H   0  0  0  0  0  0  0  0  0  0  0  0
  138.1143   79.1181  223.5633 H   0  0  0  0  0  0  0  0  0  0  0  0
  137.7283   76.3718  223.7895 H   0  0  0  0  0  0  0  0  0  0  0  0
  137.2681   76.8265  222.0847 H   0  0  0  0  0  0  0  0  0  0  0  0
  139.3410   74.7080  222.6900 H   0  0  0  0  0  0  0  0  0  0  0  0
  137.6040   72.7039  220.0948 H   0  0  0  0  0  0  0  0  0  0  0  0
  139.2975   73.2507  220.4784 H   0  0  0  0  0  0  0  0  0  0  0  0
  137.5910   71.4860  222.1820 H   0  0  0  0  0  0  0  0  0  0  0  0
  138.6562   69.7469  222.8707 H   0  0  0  0  0  0  0  0  0  0  0  0
  138.8280   68.0888  224.6957 H   0  0  0  0  0  0  0  0  0  0  0  0
  139.6320   67.6330  226.9955 H   0  0  0  0  0  0  0  0  0  0  0  0
  140.7520   68.3195  229.0747 H   0  0  0  0  0  0  0  0  0  0  0  0
  141.6591   70.6684  229.2256 H   0  0  0  0  0  0  0  0  0  0  0  0
  141.3970   72.2059  227.2767 H   0  0  0  0  0  0  0  0  0  0  0  0
  140.4730   76.0186  221.8142 H   0  0  0  0  0  0  0  0  0  0  0  0
  142.3925   77.5158  221.6377 H   0  0  0  0  0  0  0  0  0  0  0  0
  1  2  1  0
  2  3  2  0
  3  4  1  0
  4  5  2  0
  5  6  1  0
  6  7  1  0
  7  8  1  0
  8  9  2  0
  8 10  1  0
 10 11  1  0
 11 12  1  0
 12 13  2  0
 12 14  1  0
 14 15  2  0
 15 16  1  0
 16 17  2  0
 17 18  1  0
 18 19  2  0
 19 20  1  0
 20 21  2  0
 21 22  1  0
 22 23  2  0
  5 24  1  0
 24 25  2  0
 25  2  1  0
 23 14  1  0
 22 17  1  0
  1 26  1  0
  1 27  1  0
  3 28  1  0
  4 29  1  0
  6 30  1  0
  6 31  1  0
  7 32  1  0
 10 33  1  0
 10 34  1  0
 11 35  1  0
 15 36  1  0
 16 37  1  0
 18 38  1  0
 19 39  1  0
 20 40  1  0
 21 41  1  0
 24 42  1  0
 25 43  1  0
M  END
>  <smiles>  (31) 
Nc1ccc(CNC(=O)CNC(=O)c2ccc3ccccc3n2)cc1

>  <score_type>  (31) 
oracle

>  <origin>  (31) 
autodockgpu

>  <m_score__min__energy>  (31) 
-8.3100000000000005

>  <m_primary>  (31) 
energy

>  <rmsd>  (31) 
2.9651654746149863

>  <m_score__min__rmsd>  (31) 
2.9651654746149863

>  <meeko>  (31) 
{"free_energy": -7.62, "intermolecular_energy": -9.41, "internal_energy": -1.49, "cluster_size": 28, "cluster_id": 1, "rank_in_cluster": 19}

>  <energy>  (31) 
-7.92

>  <cluster_rmsd>  (31) 
0.61

>  <cluster>  (31) 
2

$$$$

     RDKit          3D

 43 45  0  0  0  0  0  0  0  0999 V2000
  142.5830   78.9910  217.1050 N   0  0  0  0  0  0  0  0  0  0  0  0
  142.6050   77.8970  218.0150 C   0  0  0  0  0  0  0  0  0  0  0  0
  142.1320   78.0110  219.3230 C   0  0  0  0  0  0  0  0  0  0  0  0
  142.1670   76.9190  220.1930 C   0  0  0  0  0  0  0  0  0  0  0  0
  142.6660   75.7120  219.7800 C   0  0  0  0  0  0  0  0  0  0  0  0
  142.7430   74.4970  220.6120 C   0  0  0  0  0  0  0  0  0  0  0  0
  141.4820   73.7850  220.7000 N   0  0  0  0  0  0  0  0  0  0  0  0
  140.3490   74.2760  221.3960 C   0  0  0  0  0  0  0  0  0  0  0  0
  140.3420   75.3780  222.0030 O   0  0  0  0  0  0  0  0  0  0  0  0
  139.1190   73.4690  221.4160 C   0  0  0  0  0  0  0  0  0  0  0  0
  139.0210   72.6300  222.5930 N   0  0  0  0  0  0  0  0  0  0  0  0
  139.9740   71.5780  222.7180 C   0  0  0  0  0  0  0  0  0  0  0  0
  140.8480   71.4310  221.7990 O   0  0  0  0  0  0  0  0  0  0  0  0
  139.9520   70.6800  223.8780 C   0  0  0  0  0  0  0  0  0  0  0  0
  139.2990   69.4650  223.7510 C   0  0  0  0  0  0  0  0  0  0  0  0
  139.2180   68.5500  224.7780 C   0  0  0  0  0  0  0  0  0  0  0  0
  139.8130   68.8700  225.9700 C   0  0  0  0  0  0  0  0  0  0  0  0
  139.8150   68.0640  227.0710 C   0  0  0  0  0  0  0  0  0  0  0  0
  140.4110   68.3780  228.2720 C   0  0  0  0  0  0  0  0  0  0  0  0
  141.0580   69.6100  228.3600 C   0  0  0  0  0  0  0  0  0  0  0  0
  141.0740   70.4570  227.2470 C   0  0  0  0  0  0  0  0  0  0  0  0
  140.4620   70.0960  226.0700 C   0  0  0  0  0  0  0  0  0  0  0  0
  140.5230   70.9670  225.0460 N   0  0  0  0  0  0  0  0  0  0  0  0
  143.1300   75.6250  218.4750 C   0  0  0  0  0  0  0  0  0  0  0  0
  143.1030   76.6810  217.6100 C   0  0  0  0  0  0  0  0  0  0  0  0
  143.3420   79.7080  217.1750 H   0  0  0  0  0  0  0  0  0  0  0  0
  141.8530   79.1220  216.3710 H   0  0  0  0  0  0  0  0  0  0  0  0
  141.7269   78.9720  219.6728 H   0  0  0  0  0  0  0  0  0  0  0  0
  141.7900   77.0293  221.2205 H   0  0  0  0  0  0  0  0  0  0  0  0
  143.4958   73.8228  220.1777 H   0  0  0  0  0  0  0  0  0  0  0  0
  143.0117   74.8141  221.6305 H   0  0  0  0  0  0  0  0  0  0  0  0
  141.3940   72.8420  220.2170 H   0  0  0  0  0  0  0  0  0  0  0  0
  138.2528   74.1467  221.3936 H   0  0  0  0  0  0  0  0  0  0  0  0
  139.1405   72.8079  220.5371 H   0  0  0  0  0  0  0  0  0  0  0  0
  138.2970   72.7620  223.3360 H   0  0  0  0  0  0  0  0  0  0  0  0
  138.8248   69.2202  222.7891 H   0  0  0  0  0  0  0  0  0  0  0  0
  138.6923   67.5929  224.6451 H   0  0  0  0  0  0  0  0  0  0  0  0
  139.3035   67.0932  226.9936 H   0  0  0  0  0  0  0  0  0  0  0  0
  140.3780   67.6858  229.1263 H   0  0  0  0  0  0  0  0  0  0  0  0
  141.5510   69.9129  229.2955 H   0  0  0  0  0  0  0  0  0  0  0  0
  141.5851   71.4287  227.3146 H   0  0  0  0  0  0  0  0  0  0  0  0
  143.5364   74.6654  218.1229 H   0  0  0  0  0  0  0  0  0  0  0  0
  143.4814   76.5584  216.5844 H   0  0  0  0  0  0  0  0  0  0  0  0
  1  2  1  0
  2  3  2  0
  3  4  1  0
  4  5  2  0
  5  6  1  0
  6  7  1  0
  7  8  1  0
  8  9  2  0
  8 10  1  0
 10 11  1  0
 11 12  1  0
 12 13  2  0
 12 14  1  0
 14 15  2  0
 15 16  1  0
 16 17  2  0
 17 18  1  0
 18 19  2  0
 19 20  1  0
 20 21  2  0
 21 22  1  0
 22 23  2  0
  5 24  1  0
 24 25  2  0
 25  2  1  0
 23 14  1  0
 22 17  1  0
  1 26  1  0
  1 27  1  0
  3 28  1  0
  4 29  1  0
  6 30  1  0
  6 31  1  0
  7 32  1  0
 10 33  1  0
 10 34  1  0
 11 35  1  0
 15 36  1  0
 16 37  1  0
 18 38  1  0
 19 39  1  0
 20 40  1  0
 21 41  1  0
 24 42  1  0
 25 43  1  0
M  END
>  <smiles>  (32) 
Nc1ccc(CNC(=O)CNC(=O)c2ccc3ccccc3n2)cc1

>  <score_type>  (32) 
oracle

>  <origin>  (32) 
autodockgpu

>  <m_score__min__energy>  (32) 
-8.3100000000000005

>  <m_primary>  (32) 
energy

>  <rmsd>  (32) 
2.301786829479228

>  <m_score__min__rmsd>  (32) 
2.301786829479228

>  <meeko>  (32) 
{"free_energy": -7.47, "intermolecular_energy": -9.26, "internal_energy": -1.4, "cluster_size": 14, "cluster_id": 2, "rank_in_cluster": 12}

>  <energy>  (32) 
-7.89

>  <cluster_rmsd>  (32) 
0.85

>  <cluster>  (32) 
2

$$$$

     RDKit          3D

 43 45  0  0  0  0  0  0  0  0999 V2000
  142.5120   79.2190  217.2270 N   0  0  0  0  0  0  0  0  0  0  0  0
  142.5960   78.0460  218.0270 C   0  0  0  0  0  0  0  0  0  0  0  0
  143.1260   76.8510  217.5350 C   0  0  0  0  0  0  0  0  0  0  0  0
  143.1960   75.7150  218.3440 C   0  0  0  0  0  0  0  0  0  0  0  0
  142.7480   75.7500  219.6380 C   0  0  0  0  0  0  0  0  0  0  0  0
  142.7820   74.6130  220.5770 C   0  0  0  0  0  0  0  0  0  0  0  0
  141.5310   73.8790  220.6280 N   0  0  0  0  0  0  0  0  0  0  0  0
  140.3830   74.3310  221.3270 C   0  0  0  0  0  0  0  0  0  0  0  0
  140.3530   75.4130  221.9680 O   0  0  0  0  0  0  0  0  0  0  0  0
  139.1660   73.5050  221.3080 C   0  0  0  0  0  0  0  0  0  0  0  0
  139.0480   72.6590  222.4780 N   0  0  0  0  0  0  0  0  0  0  0  0
  140.0410   71.6520  222.6520 C   0  0  0  0  0  0  0  0  0  0  0  0
  140.9670   71.5490  221.7790 O   0  0  0  0  0  0  0  0  0  0  0  0
  140.0020   70.7520  223.8090 C   0  0  0  0  0  0  0  0  0  0  0  0
  139.3450   69.5400  223.6710 C   0  0  0  0  0  0  0  0  0  0  0  0
  139.2480   68.6220  224.6940 C   0  0  0  0  0  0  0  0  0  0  0  0
  139.8310   68.9360  225.8940 C   0  0  0  0  0  0  0  0  0  0  0  0
  139.8170   68.1270  226.9920 C   0  0  0  0  0  0  0  0  0  0  0  0
  140.4010   68.4350  228.2010 C   0  0  0  0  0  0  0  0  0  0  0  0
  141.0520   69.6630  228.3000 C   0  0  0  0  0  0  0  0  0  0  0  0
  141.0850   70.5140  227.1900 C   0  0  0  0  0  0  0  0  0  0  0  0
  140.4850   70.1590  226.0050 C   0  0  0  0  0  0  0  0  0  0  0  0
  140.5610   71.0330  224.9840 N   0  0  0  0  0  0  0  0  0  0  0  0
  142.2270   76.9490  220.1020 C   0  0  0  0  0  0  0  0  0  0  0  0
  142.1500   78.0700  219.3270 C   0  0  0  0  0  0  0  0  0  0  0  0
  141.5800   79.6890  217.1350 H   0  0  0  0  0  0  0  0  0  0  0  0
  143.3230   79.6420  216.7250 H   0  0  0  0  0  0  0  0  0  0  0  0
  143.4923   76.8043  216.4988 H   0  0  0  0  0  0  0  0  0  0  0  0
  143.6152   74.7825  217.9380 H   0  0  0  0  0  0  0  0  0  0  0  0
  143.5798   73.9237  220.2633 H   0  0  0  0  0  0  0  0  0  0  0  0
  142.9630   75.0227  221.5817 H   0  0  0  0  0  0  0  0  0  0  0  0
  141.4640   72.9500  220.1160 H   0  0  0  0  0  0  0  0  0  0  0  0
  138.2902   74.1691  221.2638 H   0  0  0  0  0  0  0  0  0  0  0  0
  139.2227   72.8488  220.4270 H   0  0  0  0  0  0  0  0  0  0  0  0
  138.2810   72.7540  223.1830 H   0  0  0  0  0  0  0  0  0  0  0  0
  138.8808   69.3003  222.7030 H   0  0  0  0  0  0  0  0  0  0  0  0
  138.7196   67.6677  224.5521 H   0  0  0  0  0  0  0  0  0  0  0  0
  139.3022   67.1587  226.9059 H   0  0  0  0  0  0  0  0  0  0  0  0
  140.3553   67.7405  229.0528 H   0  0  0  0  0  0  0  0  0  0  0  0
  141.5355   69.9606  229.2422 H   0  0  0  0  0  0  0  0  0  0  0  0
  141.5996   71.4832  227.2666 H   0  0  0  0  0  0  0  0  0  0  0  0
  141.8605   76.9985  221.1380 H   0  0  0  0  0  0  0  0  0  0  0  0
  141.7292   78.9966  219.7446 H   0  0  0  0  0  0  0  0  0  0  0  0
  1  2  1  0
  2  3  2  0
  3  4  1  0
  4  5  2  0
  5  6  1  0
  6  7  1  0
  7  8  1  0
  8  9  2  0
  8 10  1  0
 10 11  1  0
 11 12  1  0
 12 13  2  0
 12 14  1  0
 14 15  2  0
 15 16  1  0
 16 17  2  0
 17 18  1  0
 18 19  2  0
 19 20  1  0
 20 21  2  0
 21 22  1  0
 22 23  2  0
  5 24  1  0
 24 25  2  0
 25  2  1  0
 23 14  1  0
 22 17  1  0
  1 26  1  0
  1 27  1  0
  3 28  1  0
  4 29  1  0
  6 30  1  0
  6 31  1  0
  7 32  1  0
 10 33  1  0
 10 34  1  0
 11 35  1  0
 15 36  1  0
 16 37  1  0
 18 38  1  0
 19 39  1  0
 20 40  1  0
 21 41  1  0
 24 42  1  0
 25 43  1  0
M  END
>  <smiles>  (33) 
Nc1ccc(CNC(=O)CNC(=O)c2ccc3ccccc3n2)cc1

>  <score_type>  (33) 
oracle

>  <origin>  (33) 
autodockgpu

>  <m_score__min__energy>  (33) 
-8.3100000000000005

>  <m_primary>  (33) 
energy

>  <rmsd>  (33) 
2.490712892619164

>  <m_score__min__rmsd>  (33) 
2.490712892619164

>  <meeko>  (33) 
{"free_energy": -7.51, "intermolecular_energy": -9.3, "internal_energy": -1.35, "cluster_size": 14, "cluster_id": 2, "rank_in_cluster": 10}

>  <energy>  (33) 
-7.86

>  <cluster_rmsd>  (33) 
0.72

>  <cluster>  (33) 
2

$$$$

     RDKit          3D

 43 45  0  0  0  0  0  0  0  0999 V2000
  142.8340   80.7710  223.6810 N   0  0  0  0  0  0  0  0  0  0  0  0
  141.7010   79.9520  223.4180 C   0  0  0  0  0  0  0  0  0  0  0  0
  140.3950   80.4170  223.5870 C   0  0  0  0  0  0  0  0  0  0  0  0
  139.3020   79.5910  223.3210 C   0  0  0  0  0  0  0  0  0  0  0  0
  139.4880   78.3040  222.8860 C   0  0  0  0  0  0  0  0  0  0  0  0
  138.4070   77.3520  222.5700 C   0  0  0  0  0  0  0  0  0  0  0  0
  138.8820   75.9920  222.3890 N   0  0  0  0  0  0  0  0  0  0  0  0
  139.1850   75.4280  221.1240 C   0  0  0  0  0  0  0  0  0  0  0  0
  139.0670   76.0630  220.0450 O   0  0  0  0  0  0  0  0  0  0  0  0
  139.6620   74.0380  221.0590 C   0  0  0  0  0  0  0  0  0  0  0  0
  139.6990   73.4000  222.3590 N   0  0  0  0  0  0  0  0  0  0  0  0
  139.9820   72.0030  222.3870 C   0  0  0  0  0  0  0  0  0  0  0  0
  140.1830   71.3980  221.2820 O   0  0  0  0  0  0  0  0  0  0  0  0
  140.0410   71.2750  223.6590 C   0  0  0  0  0  0  0  0  0  0  0  0
  139.5930   69.9650  223.6830 C   0  0  0  0  0  0  0  0  0  0  0  0
  139.6040   69.1920  224.8230 C   0  0  0  0  0  0  0  0  0  0  0  0
  140.0810   69.7590  225.9760 C   0  0  0  0  0  0  0  0  0  0  0  0
  140.1530   69.1160  227.1780 C   0  0  0  0  0  0  0  0  0  0  0  0
  140.6310   69.6780  228.3410 C   0  0  0  0  0  0  0  0  0  0  0  0
  141.0730   70.9990  228.2760 C   0  0  0  0  0  0  0  0  0  0  0  0
  141.0130   71.6830  227.0580 C   0  0  0  0  0  0  0  0  0  0  0  0
  140.5250   71.0760  225.9240 C   0  0  0  0  0  0  0  0  0  0  0  0
  140.5000   71.8020  224.7920 N   0  0  0  0  0  0  0  0  0  0  0  0
  140.7950   77.8670  222.7250 C   0  0  0  0  0  0  0  0  0  0  0  0
  141.8760   78.6610  222.9810 C   0  0  0  0  0  0  0  0  0  0  0  0
  143.7550   80.4880  223.2710 H   0  0  0  0  0  0  0  0  0  0  0  0
  142.8030   81.6390  224.2600 H   0  0  0  0  0  0  0  0  0  0  0  0
  140.2258   81.4470  223.9341 H   0  0  0  0  0  0  0  0  0  0  0  0
  138.2813   79.9762  223.4617 H   0  0  0  0  0  0  0  0  0  0  0  0
  137.6792   77.3620  223.3948 H   0  0  0  0  0  0  0  0  0  0  0  0
  137.9555   77.6715  221.6192 H   0  0  0  0  0  0  0  0  0  0  0  0
  139.0110   75.3790  223.2470 H   0  0  0  0  0  0  0  0  0  0  0  0
  138.9889   73.4649  220.4044 H   0  0  0  0  0  0  0  0  0  0  0  0
  140.6899   74.0567  220.6679 H   0  0  0  0  0  0  0  0  0  0  0  0
  139.5300   73.9100  223.2570 H   0  0  0  0  0  0  0  0  0  0  0  0
  139.2117   69.5223  222.7510 H   0  0  0  0  0  0  0  0  0  0  0  0
  139.2418   68.1535  224.8085 H   0  0  0  0  0  0  0  0  0  0  0  0
  139.8041   68.0737  227.2208 H   0  0  0  0  0  0  0  0  0  0  0  0
  140.6628   69.1087  229.2817 H   0  0  0  0  0  0  0  0  0  0  0  0
  141.4651   71.4981  229.1744 H   0  0  0  0  0  0  0  0  0  0  0  0
  141.3621   72.7248  227.0056 H   0  0  0  0  0  0  0  0  0  0  0  0
  140.9675   76.8380  222.3766 H   0  0  0  0  0  0  0  0  0  0  0  0
  142.8921   78.2652  222.8367 H   0  0  0  0  0  0  0  0  0  0  0  0
  1  2  1  0
  2  3  2  0
  3  4  1  0
  4  5  2  0
  5  6  1  0
  6  7  1  0
  7  8  1  0
  8  9  2  0
  8 10  1  0
 10 11  1  0
 11 12  1  0
 12 13  2  0
 12 14  1  0
 14 15  2  0
 15 16  1  0
 16 17  2  0
 17 18  1  0
 18 19  2  0
 19 20  1  0
 20 21  2  0
 21 22  1  0
 22 23  2  0
  5 24  1  0
 24 25  2  0
 25  2  1  0
 23 14  1  0
 22 17  1  0
  1 26  1  0
  1 27  1  0
  3 28  1  0
  4 29  1  0
  6 30  1  0
  6 31  1  0
  7 32  1  0
 10 33  1  0
 10 34  1  0
 11 35  1  0
 15 36  1  0
 16 37  1  0
 18 38  1  0
 19 39  1  0
 20 40  1  0
 21 41  1  0
 24 42  1  0
 25 43  1  0
M  END
>  <smiles>  (34) 
Nc1ccc(CNC(=O)CNC(=O)c2ccc3ccccc3n2)cc1

>  <score_type>  (34) 
oracle

>  <origin>  (34) 
autodockgpu

>  <m_score__min__energy>  (34) 
-8.3100000000000005

>  <m_primary>  (34) 
energy

>  <rmsd>  (34) 
3.2152019171072843

>  <m_score__min__rmsd>  (34) 
3.2152019171072843

>  <meeko>  (34) 
{"free_energy": -7.95, "intermolecular_energy": -9.74, "internal_energy": -0.85, "cluster_size": 28, "cluster_id": 1, "rank_in_cluster": 9}

>  <energy>  (34) 
-7.6

>  <cluster_rmsd>  (34) 
0.62

>  <cluster>  (34) 
2

$$$$

     RDKit          3D

 43 45  0  0  0  0  0  0  0  0999 V2000
  146.2820   72.9610  221.3030 N   0  0  0  0  0  0  0  0  0  0  0  0
  145.0150   73.4270  220.8560 C   0  0  0  0  0  0  0  0  0  0  0  0
  143.8960   72.5940  220.8000 C   0  0  0  0  0  0  0  0  0  0  0  0
  142.6650   73.0800  220.3570 C   0  0  0  0  0  0  0  0  0  0  0  0
  142.5280   74.3870  219.9680 C   0  0  0  0  0  0  0  0  0  0  0  0
  141.2760   75.0030  219.4900 C   0  0  0  0  0  0  0  0  0  0  0  0
  140.0940   74.2400  219.8480 N   0  0  0  0  0  0  0  0  0  0  0  0
  139.6560   74.0490  221.1820 C   0  0  0  0  0  0  0  0  0  0  0  0
  140.2600   74.5280  222.1770 O   0  0  0  0  0  0  0  0  0  0  0  0
  138.4400   73.2580  221.4280 C   0  0  0  0  0  0  0  0  0  0  0  0
  138.5140   72.4850  222.6500 N   0  0  0  0  0  0  0  0  0  0  0  0
  139.5020   71.4590  222.7080 C   0  0  0  0  0  0  0  0  0  0  0  0
  140.2540   71.2770  221.6940 O   0  0  0  0  0  0  0  0  0  0  0  0
  139.6500   70.6290  223.9080 C   0  0  0  0  0  0  0  0  0  0  0  0
  139.1340   69.3430  223.8800 C   0  0  0  0  0  0  0  0  0  0  0  0
  139.2190   68.4810  224.9510 C   0  0  0  0  0  0  0  0  0  0  0  0
  139.8420   68.9290  226.0860 C   0  0  0  0  0  0  0  0  0  0  0  0
  140.0010   68.1880  227.2210 C   0  0  0  0  0  0  0  0  0  0  0  0
  140.6260   68.6300  228.3650 C   0  0  0  0  0  0  0  0  0  0  0  0
  141.1320   69.9290  228.3550 C   0  0  0  0  0  0  0  0  0  0  0  0
  140.9860   70.7130  227.2050 C   0  0  0  0  0  0  0  0  0  0  0  0
  140.3520   70.2230  226.0870 C   0  0  0  0  0  0  0  0  0  0  0  0
  140.2520   71.0390  225.0220 N   0  0  0  0  0  0  0  0  0  0  0  0
  143.6540   75.1940  220.0330 C   0  0  0  0  0  0  0  0  0  0  0  0
  144.8670   74.7370  220.4640 C   0  0  0  0  0  0  0  0  0  0  0  0
  146.3790   71.9470  221.5470 H   0  0  0  0  0  0  0  0  0  0  0  0
  147.1240   73.5700  221.4040 H   0  0  0  0  0  0  0  0  0  0  0  0
  143.9857   71.5420  221.1087 H   0  0  0  0  0  0  0  0  0  0  0  0
  141.7957   72.4070  220.3197 H   0  0  0  0  0  0  0  0  0  0  0  0
  141.1903   76.0080  219.9289 H   0  0  0  0  0  0  0  0  0  0  0  0
  141.3250   75.0365  218.3916 H   0  0  0  0  0  0  0  0  0  0  0  0
  139.5200   73.7960  219.0710 H   0  0  0  0  0  0  0  0  0  0  0  0
  137.5823   73.9433  221.4965 H   0  0  0  0  0  0  0  0  0  0  0  0
  138.3295   72.5502  220.5933 H   0  0  0  0  0  0  0  0  0  0  0  0
  137.8880   72.6460  223.4730 H   0  0  0  0  0  0  0  0  0  0  0  0
  138.6352   68.9958  222.9631 H   0  0  0  0  0  0  0  0  0  0  0  0
  138.8000   67.4654  224.8968 H   0  0  0  0  0  0  0  0  0  0  0  0
  139.6008   67.1634  227.2216 H   0  0  0  0  0  0  0  0  0  0  0  0
  140.7223   67.9848  229.2507 H   0  0  0  0  0  0  0  0  0  0  0  0
  141.6410   70.3337  229.2422 H   0  0  0  0  0  0  0  0  0  0  0  0
  141.3848   71.7381  227.1950 H   0  0  0  0  0  0  0  0  0  0  0  0
  143.5667   76.2462  219.7245 H   0  0  0  0  0  0  0  0  0  0  0  0
  145.7290   75.4195  220.4977 H   0  0  0  0  0  0  0  0  0  0  0  0
  1  2  1  0
  2  3  2  0
  3  4  1  0
  4  5  2  0
  5  6  1  0
  6  7  1  0
  7  8  1  0
  8  9  2  0
  8 10  1  0
 10 11  1  0
 11 12  1  0
 12 13  2  0
 12 14  1  0
 14 15  2  0
 15 16  1  0
 16 17  2  0
 17 18  1  0
 18 19  2  0
 19 20  1  0
 20 21  2  0
 21 22  1  0
 22 23  2  0
  5 24  1  0
 24 25  2  0
 25  2  1  0
 23 14  1  0
 22 17  1  0
  1 26  1  0
  1 27  1  0
  3 28  1  0
  4 29  1  0
  6 30  1  0
  6 31  1  0
  7 32  1  0
 10 33  1  0
 10 34  1  0
 11 35  1  0
 15 36  1  0
 16 37  1  0
 18 38  1  0
 19 39  1  0
 20 40  1  0
 21 41  1  0
 24 42  1  0
 25 43  1  0
M  END
>  <smiles>  (35) 
Nc1ccc(CNC(=O)CNC(=O)c2ccc3ccccc3n2)cc1

>  <score_type>  (35) 
oracle

>  <origin>  (35) 
autodockgpu

>  <m_score__min__energy>  (35) 
-8.3100000000000005

>  <m_primary>  (35) 
energy

>  <rmsd>  (35) 
2.9882822548577015

>  <m_score__min__rmsd>  (35) 
2.9882822548577015

>  <meeko>  (35) 
{"free_energy": -8.02, "intermolecular_energy": -9.81, "internal_energy": -1.03, "cluster_size": 4, "cluster_id": 3, "rank_in_cluster": 1}

>  <energy>  (35) 
-7.6

>  <cluster_rmsd>  (35) 
0.62

>  <cluster>  (35) 
2

$$$$

     RDKit          3D

 43 45  0  0  0  0  0  0  0  0999 V2000
  141.9170   80.8220  223.6890 N   0  0  0  0  0  0  0  0  0  0  0  0
  141.1240   79.6890  223.3560 C   0  0  0  0  0  0  0  0  0  0  0  0
  141.6930   78.4560  223.0330 C   0  0  0  0  0  0  0  0  0  0  0  0
  140.8890   77.3610  222.7100 C   0  0  0  0  0  0  0  0  0  0  0  0
  139.5240   77.4740  222.7060 C   0  0  0  0  0  0  0  0  0  0  0  0
  138.5840   76.3820  222.3880 C   0  0  0  0  0  0  0  0  0  0  0  0
  139.2490   75.1270  222.0910 N   0  0  0  0  0  0  0  0  0  0  0  0
  140.0530   74.9150  220.9420 C   0  0  0  0  0  0  0  0  0  0  0  0
  140.2570   75.8040  220.0760 O   0  0  0  0  0  0  0  0  0  0  0  0
  140.6820   73.6000  220.7440 C   0  0  0  0  0  0  0  0  0  0  0  0
  140.8310   72.8620  221.9810 N   0  0  0  0  0  0  0  0  0  0  0  0
  139.6620   72.2400  222.5080 C   0  0  0  0  0  0  0  0  0  0  0  0
  138.5630   72.3660  221.8740 O   0  0  0  0  0  0  0  0  0  0  0  0
  139.7210   71.4690  223.7550 C   0  0  0  0  0  0  0  0  0  0  0  0
  139.1120   70.2250  223.7830 C   0  0  0  0  0  0  0  0  0  0  0  0
  139.1070   69.4210  224.9010 C   0  0  0  0  0  0  0  0  0  0  0  0
  139.7350   69.8850  226.0270 C   0  0  0  0  0  0  0  0  0  0  0  0
  139.8120   69.2000  227.2040 C   0  0  0  0  0  0  0  0  0  0  0  0
  140.4420   69.6580  228.3400 C   0  0  0  0  0  0  0  0  0  0  0  0
  141.0430   70.9140  228.2720 C   0  0  0  0  0  0  0  0  0  0  0  0
  140.9820   71.6410  227.0780 C   0  0  0  0  0  0  0  0  0  0  0  0
  140.3390   71.1360  225.9720 C   0  0  0  0  0  0  0  0  0  0  0  0
  140.3250   71.8970  224.8620 N   0  0  0  0  0  0  0  0  0  0  0  0
  138.9830   78.7090  223.0320 C   0  0  0  0  0  0  0  0  0  0  0  0
  139.7530   79.7910  223.3500 C   0  0  0  0  0  0  0  0  0  0  0  0
  142.1870   80.9610  224.6910 H   0  0  0  0  0  0  0  0  0  0  0  0
  142.2470   81.5270  222.9930 H   0  0  0  0  0  0  0  0  0  0  0  0
  142.7874   78.3457  223.0329 H   0  0  0  0  0  0  0  0  0  0  0  0
  141.3565   76.3982  222.4563 H   0  0  0  0  0  0  0  0  0  0  0  0
  137.9189   76.2302  223.2509 H   0  0  0  0  0  0  0  0  0  0  0  0
  138.0279   76.6799  221.4869 H   0  0  0  0  0  0  0  0  0  0  0  0
  139.1320   74.3160  222.7680 H   0  0  0  0  0  0  0  0  0  0  0  0
  140.0582   73.0112  220.0554 H   0  0  0  0  0  0  0  0  0  0  0  0
  141.6886   73.7705  220.3345 H   0  0  0  0  0  0  0  0  0  0  0  0
  141.7400   72.7690  222.4910 H   0  0  0  0  0  0  0  0  0  0  0  0
  138.6108   69.8639  222.8729 H   0  0  0  0  0  0  0  0  0  0  0  0
  138.6145   68.4375  224.8905 H   0  0  0  0  0  0  0  0  0  0  0  0
  139.3361   68.2093  227.2493 H   0  0  0  0  0  0  0  0  0  0  0  0
  140.4697   69.0582  229.2617 H   0  0  0  0  0  0  0  0  0  0  0  0
  141.5605   71.3298  229.1491 H   0  0  0  0  0  0  0  0  0  0  0  0
  141.4558   72.6322  227.0230 H   0  0  0  0  0  0  0  0  0  0  0  0
  137.8888   78.8214  223.0345 H   0  0  0  0  0  0  0  0  0  0  0  0
  139.2741   80.7486  223.6025 H   0  0  0  0  0  0  0  0  0  0  0  0
  1  2  1  0
  2  3  2  0
  3  4  1  0
  4  5  2  0
  5  6  1  0
  6  7  1  0
  7  8  1  0
  8  9  2  0
  8 10  1  0
 10 11  1  0
 11 12  1  0
 12 13  2  0
 12 14  1  0
 14 15  2  0
 15 16  1  0
 16 17  2  0
 17 18  1  0
 18 19  2  0
 19 20  1  0
 20 21  2  0
 21 22  1  0
 22 23  2  0
  5 24  1  0
 24 25  2  0
 25  2  1  0
 23 14  1  0
 22 17  1  0
  1 26  1  0
  1 27  1  0
  3 28  1  0
  4 29  1  0
  6 30  1  0
  6 31  1  0
  7 32  1  0
 10 33  1  0
 10 34  1  0
 11 35  1  0
 15 36  1  0
 16 37  1  0
 18 38  1  0
 19 39  1  0
 20 40  1  0
 21 41  1  0
 24 42  1  0
 25 43  1  0
M  END
>  <smiles>  (36) 
Nc1ccc(CNC(=O)CNC(=O)c2ccc3ccccc3n2)cc1

>  <score_type>  (36) 
oracle

>  <origin>  (36) 
autodockgpu

>  <m_score__min__energy>  (36) 
-8.3100000000000005

>  <m_primary>  (36) 
energy

>  <rmsd>  (36) 
2.9780056998123348

>  <m_score__min__rmsd>  (36) 
2.9780056998123348

>  <meeko>  (36) 
{"free_energy": -7.17, "intermolecular_energy": -8.96, "internal_energy": -1.43, "cluster_size": 28, "cluster_id": 1, "rank_in_cluster": 26}

>  <energy>  (36) 
-7.55

>  <cluster_rmsd>  (36) 
1.53

>  <cluster>  (36) 
2

$$$$

     RDKit          3D

 43 45  0  0  0  0  0  0  0  0999 V2000
  143.1550   80.4590  222.8000 N   0  0  0  0  0  0  0  0  0  0  0  0
  141.9360   79.7320  222.7140 C   0  0  0  0  0  0  0  0  0  0  0  0
  140.7670   80.3030  222.2060 C   0  0  0  0  0  0  0  0  0  0  0  0
  139.5840   79.5640  222.1330 C   0  0  0  0  0  0  0  0  0  0  0  0
  139.5470   78.2610  222.5580 C   0  0  0  0  0  0  0  0  0  0  0  0
  138.3560   77.3910  222.5190 C   0  0  0  0  0  0  0  0  0  0  0  0
  138.6810   75.9900  222.3300 N   0  0  0  0  0  0  0  0  0  0  0  0
  139.2290   75.4650  221.1330 C   0  0  0  0  0  0  0  0  0  0  0  0
  139.4810   76.1750  220.1260 O   0  0  0  0  0  0  0  0  0  0  0  0
  139.5220   74.0250  221.0530 C   0  0  0  0  0  0  0  0  0  0  0  0
  139.5920   73.3980  222.3570 N   0  0  0  0  0  0  0  0  0  0  0  0
  139.8660   72.0000  222.3880 C   0  0  0  0  0  0  0  0  0  0  0  0
  140.0310   71.3840  221.2830 O   0  0  0  0  0  0  0  0  0  0  0  0
  139.9580   71.2820  223.6650 C   0  0  0  0  0  0  0  0  0  0  0  0
  139.5240   69.9670  223.7060 C   0  0  0  0  0  0  0  0  0  0  0  0
  139.5660   69.2040  224.8530 C   0  0  0  0  0  0  0  0  0  0  0  0
  140.0580   69.7840  225.9920 C   0  0  0  0  0  0  0  0  0  0  0  0
  140.1590   69.1510  227.1960 C   0  0  0  0  0  0  0  0  0  0  0  0
  140.6540   69.7260  228.3460 C   0  0  0  0  0  0  0  0  0  0  0  0
  141.0790   71.0510  228.2640 C   0  0  0  0  0  0  0  0  0  0  0  0
  140.9890   71.7260  227.0410 C   0  0  0  0  0  0  0  0  0  0  0  0
  140.4860   71.1050  225.9220 C   0  0  0  0  0  0  0  0  0  0  0  0
  140.4330   71.8230  224.7850 N   0  0  0  0  0  0  0  0  0  0  0  0
  140.7210   77.7180  223.0570 C   0  0  0  0  0  0  0  0  0  0  0  0
  141.8870   78.4240  223.1360 C   0  0  0  0  0  0  0  0  0  0  0  0
  143.1600   81.3550  223.3430 H   0  0  0  0  0  0  0  0  0  0  0  0
  144.0480   80.1540  222.3540 H   0  0  0  0  0  0  0  0  0  0  0  0
  140.7781   81.3469  221.8593 H   0  0  0  0  0  0  0  0  0  0  0  0
  138.6734   80.0319  221.7307 H   0  0  0  0  0  0  0  0  0  0  0  0
  137.8121   77.4992  223.4690 H   0  0  0  0  0  0  0  0  0  0  0  0
  137.7478   77.7058  221.6582 H   0  0  0  0  0  0  0  0  0  0  0  0
  138.5000   75.3120  223.1290 H   0  0  0  0  0  0  0  0  0  0  0  0
  138.7285   73.5358  220.4689 H   0  0  0  0  0  0  0  0  0  0  0  0
  140.5062   73.9111  220.5750 H   0  0  0  0  0  0  0  0  0  0  0  0
  139.4520   73.9170  223.2550 H   0  0  0  0  0  0  0  0  0  0  0  0
  139.1296   69.5130  222.7849 H   0  0  0  0  0  0  0  0  0  0  0  0
  139.2152   68.1614  224.8536 H   0  0  0  0  0  0  0  0  0  0  0  0
  139.8208   68.1058  227.2529 H   0  0  0  0  0  0  0  0  0  0  0  0
  140.7114   69.1631  229.2893 H   0  0  0  0  0  0  0  0  0  0  0  0
  141.4812   71.5612  229.1517 H   0  0  0  0  0  0  0  0  0  0  0  0
  141.3264   72.7708  226.9740 H   0  0  0  0  0  0  0  0  0  0  0  0
  140.7127   76.6742  223.4040 H   0  0  0  0  0  0  0  0  0  0  0  0
  142.7912   77.9444  223.5390 H   0  0  0  0  0  0  0  0  0  0  0  0
  1  2  1  0
  2  3  2  0
  3  4  1  0
  4  5  2  0
  5  6  1  0
  6  7  1  0
  7  8  1  0
  8  9  2  0
  8 10  1  0
 10 11  1  0
 11 12  1  0
 12 13  2  0
 12 14  1  0
 14 15  2  0
 15 16  1  0
 16 17  2  0
 17 18  1  0
 18 19  2  0
 19 20  1  0
 20 21  2  0
 21 22  1  0
 22 23  2  0
  5 24  1  0
 24 25  2  0
 25  2  1  0
 23 14  1  0
 22 17  1  0
  1 26  1  0
  1 27  1  0
  3 28  1  0
  4 29  1  0
  6 30  1  0
  6 31  1  0
  7 32  1  0
 10 33  1  0
 10 34  1  0
 11 35  1  0
 15 36  1  0
 16 37  1  0
 18 38  1  0
 19 39  1  0
 20 40  1  0
 21 41  1  0
 24 42  1  0
 25 43  1  0
M  END
>  <smiles>  (37) 
Nc1ccc(CNC(=O)CNC(=O)c2ccc3ccccc3n2)cc1

>  <score_type>  (37) 
oracle

>  <origin>  (37) 
autodockgpu

>  <m_score__min__energy>  (37) 
-8.3100000000000005

>  <m_primary>  (37) 
energy

>  <rmsd>  (37) 
2.972621880163731

>  <m_score__min__rmsd>  (37) 
2.972621880163731

>  <meeko>  (37) 
{"free_energy": -7.94, "intermolecular_energy": -9.73, "internal_energy": -0.92, "cluster_size": 28, "cluster_id": 1, "rank_in_cluster": 10}

>  <energy>  (37) 
-7.52

>  <cluster_rmsd>  (37) 
0.82

>  <cluster>  (37) 
2

$$$$

     RDKit          3D

 43 45  0  0  0  0  0  0  0  0999 V2000
  142.5440   80.1030  222.2410 N   0  0  0  0  0  0  0  0  0  0  0  0
  141.5070   79.1300  222.2670 C   0  0  0  0  0  0  0  0  0  0  0  0
  141.5760   77.9540  221.5180 C   0  0  0  0  0  0  0  0  0  0  0  0
  140.5420   77.0160  221.5640 C   0  0  0  0  0  0  0  0  0  0  0  0
  139.4380   77.2300  222.3470 C   0  0  0  0  0  0  0  0  0  0  0  0
  138.2960   76.3060  222.4740 C   0  0  0  0  0  0  0  0  0  0  0  0
  138.6190   74.9460  222.0820 N   0  0  0  0  0  0  0  0  0  0  0  0
  138.5210   74.4670  220.7510 C   0  0  0  0  0  0  0  0  0  0  0  0
  138.1430   75.1860  219.7910 O   0  0  0  0  0  0  0  0  0  0  0  0
  138.8770   73.0680  220.4690 C   0  0  0  0  0  0  0  0  0  0  0  0
  138.7910   72.2230  221.6420 N   0  0  0  0  0  0  0  0  0  0  0  0
  139.8360   72.3430  222.6030 C   0  0  0  0  0  0  0  0  0  0  0  0
  140.7790   73.1740  222.3820 O   0  0  0  0  0  0  0  0  0  0  0  0
  139.8290   71.5280  223.8230 C   0  0  0  0  0  0  0  0  0  0  0  0
  139.1450   70.3230  223.7990 C   0  0  0  0  0  0  0  0  0  0  0  0
  139.0760   69.4830  224.8880 C   0  0  0  0  0  0  0  0  0  0  0  0
  139.7140   69.8680  226.0380 C   0  0  0  0  0  0  0  0  0  0  0  0
  139.7310   69.1400  227.1910 C   0  0  0  0  0  0  0  0  0  0  0  0
  140.3710   69.5200  228.3500 C   0  0  0  0  0  0  0  0  0  0  0  0
  141.0480   70.7390  228.3340 C   0  0  0  0  0  0  0  0  0  0  0  0
  141.0490   71.5080  227.1660 C   0  0  0  0  0  0  0  0  0  0  0  0
  140.3930   71.0820  226.0340 C   0  0  0  0  0  0  0  0  0  0  0  0
  140.4420   71.8800  224.9520 N   0  0  0  0  0  0  0  0  0  0  0  0
  139.3950   78.4060  223.0820 C   0  0  0  0  0  0  0  0  0  0  0  0
  140.3960   79.3350  223.0500 C   0  0  0  0  0  0  0  0  0  0  0  0
  143.4870   79.8130  221.8900 H   0  0  0  0  0  0  0  0  0  0  0  0
  142.4220   81.0930  222.5510 H   0  0  0  0  0  0  0  0  0  0  0  0
  142.4548   77.7638  220.8843 H   0  0  0  0  0  0  0  0  0  0  0  0
  140.6147   76.0960  220.9654 H   0  0  0  0  0  0  0  0  0  0  0  0
  137.9660   76.2991  223.5233 H   0  0  0  0  0  0  0  0  0  0  0  0
  137.5066   76.6644  221.7969 H   0  0  0  0  0  0  0  0  0  0  0  0
  138.9470   74.2650  222.8290 H   0  0  0  0  0  0  0  0  0  0  0  0
  138.1910   72.6777  219.7028 H   0  0  0  0  0  0  0  0  0  0  0  0
  139.9215   73.0535  220.1244 H   0  0  0  0  0  0  0  0  0  0  0  0
  138.0120   71.5450  221.8080 H   0  0  0  0  0  0  0  0  0  0  0  0
  138.6356   70.0249  222.8707 H   0  0  0  0  0  0  0  0  0  0  0  0
  138.5256   68.5320  224.8363 H   0  0  0  0  0  0  0  0  0  0  0  0
  139.1947   68.1796  227.1958 H   0  0  0  0  0  0  0  0  0  0  0  0
  140.3490   68.8884  229.2504 H   0  0  0  0  0  0  0  0  0  0  0  0
  141.5763   71.0924  229.2318 H   0  0  0  0  0  0  0  0  0  0  0  0
  141.5831   72.4695  227.1520 H   0  0  0  0  0  0  0  0  0  0  0  0
  138.5179   78.5984  223.7173 H   0  0  0  0  0  0  0  0  0  0  0  0
  140.3126   80.2510  223.6534 H   0  0  0  0  0  0  0  0  0  0  0  0
  1  2  1  0
  2  3  2  0
  3  4  1  0
  4  5  2  0
  5  6  1  0
  6  7  1  0
  7  8  1  0
  8  9  2  0
  8 10  1  0
 10 11  1  0
 11 12  1  0
 12 13  2  0
 12 14  1  0
 14 15  2  0
 15 16  1  0
 16 17  2  0
 17 18  1  0
 18 19  2  0
 19 20  1  0
 20 21  2  0
 21 22  1  0
 22 23  2  0
  5 24  1  0
 24 25  2  0
 25  2  1  0
 23 14  1  0
 22 17  1  0
  1 26  1  0
  1 27  1  0
  3 28  1  0
  4 29  1  0
  6 30  1  0
  6 31  1  0
  7 32  1  0
 10 33  1  0
 10 34  1  0
 11 35  1  0
 15 36  1  0
 16 37  1  0
 18 38  1  0
 19 39  1  0
 20 40  1  0
 21 41  1  0
 24 42  1  0
 25 43  1  0
M  END
>  <smiles>  (38) 
Nc1ccc(CNC(=O)CNC(=O)c2ccc3ccccc3n2)cc1

>  <score_type>  (38) 
oracle

>  <origin>  (38) 
autodockgpu

>  <m_score__min__energy>  (38) 
-8.3100000000000005

>  <m_primary>  (38) 
energy

>  <rmsd>  (38) 
2.5910798655530387

>  <m_score__min__rmsd>  (38) 
2.5910798655530387

>  <meeko>  (38) 
{"free_energy": -7.8, "intermolecular_energy": -9.59, "internal_energy": -1.41, "cluster_size": 28, "cluster_id": 1, "rank_in_cluster": 14}

>  <energy>  (38) 
-7.51

>  <cluster_rmsd>  (38) 
1.58

>  <cluster>  (38) 
2

$$$$

     RDKit          3D

 43 45  0  0  0  0  0  0  0  0999 V2000
  142.6730   80.7180  217.6850 N   0  0  0  0  0  0  0  0  0  0  0  0
  142.2480   80.0380  218.8600 C   0  0  0  0  0  0  0  0  0  0  0  0
  141.8570   80.7240  220.0120 C   0  0  0  0  0  0  0  0  0  0  0  0
  141.4440   80.0290  221.1510 C   0  0  0  0  0  0  0  0  0  0  0  0
  141.4120   78.6590  221.1610 C   0  0  0  0  0  0  0  0  0  0  0  0
  140.9880   77.8300  222.3050 C   0  0  0  0  0  0  0  0  0  0  0  0
  141.0610   76.4060  222.0340 N   0  0  0  0  0  0  0  0  0  0  0  0
  139.9590   75.6320  221.5920 C   0  0  0  0  0  0  0  0  0  0  0  0
  138.8150   76.1180  221.3990 O   0  0  0  0  0  0  0  0  0  0  0  0
  140.1500   74.1940  221.3460 C   0  0  0  0  0  0  0  0  0  0  0  0
  139.8810   73.3870  222.5180 N   0  0  0  0  0  0  0  0  0  0  0  0
  140.5240   72.1170  222.5900 C   0  0  0  0  0  0  0  0  0  0  0  0
  141.2880   71.7630  221.6320 O   0  0  0  0  0  0  0  0  0  0  0  0
  140.3120   71.2340  223.7430 C   0  0  0  0  0  0  0  0  0  0  0  0
  139.6220   70.0500  223.5390 C   0  0  0  0  0  0  0  0  0  0  0  0
  139.3680   69.1510  224.5510 C   0  0  0  0  0  0  0  0  0  0  0  0
  139.8210   69.4540  225.8070 C   0  0  0  0  0  0  0  0  0  0  0  0
  139.6450   68.6610  226.9030 C   0  0  0  0  0  0  0  0  0  0  0  0
  140.0980   68.9580  228.1690 C   0  0  0  0  0  0  0  0  0  0  0  0
  140.7870   70.1590  228.3340 C   0  0  0  0  0  0  0  0  0  0  0  0
  140.9850   70.9940  227.2280 C   0  0  0  0  0  0  0  0  0  0  0  0
  140.5110   70.6490  225.9840 C   0  0  0  0  0  0  0  0  0  0  0  0
  140.7430   71.5060  224.9730 N   0  0  0  0  0  0  0  0  0  0  0  0
  141.8050   78.0020  220.0040 C   0  0  0  0  0  0  0  0  0  0  0  0
  142.2110   78.6640  218.8810 C   0  0  0  0  0  0  0  0  0  0  0  0
  143.4790   80.3200  217.1480 H   0  0  0  0  0  0  0  0  0  0  0  0
  142.2290   81.5910  217.3250 H   0  0  0  0  0  0  0  0  0  0  0  0
  141.8745   81.8238  220.0224 H   0  0  0  0  0  0  0  0  0  0  0  0
  141.1413   80.5871  222.0493 H   0  0  0  0  0  0  0  0  0  0  0  0
  141.6389   78.0571  223.1622 H   0  0  0  0  0  0  0  0  0  0  0  0
  139.9349   78.0710  222.5123 H   0  0  0  0  0  0  0  0  0  0  0  0
  141.9910   75.9090  222.1720 H   0  0  0  0  0  0  0  0  0  0  0  0
  139.4702   73.8814  220.5396 H   0  0  0  0  0  0  0  0  0  0  0  0
  141.2040   74.0406  221.0711 H   0  0  0  0  0  0  0  0  0  0  0  0
  139.2490   73.6910  223.2950 H   0  0  0  0  0  0  0  0  0  0  0  0
  139.2618   69.8182  222.5258 H   0  0  0  0  0  0  0  0  0  0  0  0
  138.8182   68.2184  224.3562 H   0  0  0  0  0  0  0  0  0  0  0  0
  139.1012   67.7148  226.7653 H   0  0  0  0  0  0  0  0  0  0  0  0
  139.9237   68.2764  229.0146 H   0  0  0  0  0  0  0  0  0  0  0  0
  141.1712   70.4475  229.3235 H   0  0  0  0  0  0  0  0  0  0  0  0
  141.5286   71.9417  227.3561 H   0  0  0  0  0  0  0  0  0  0  0  0
  141.7888   76.9022  219.9908 H   0  0  0  0  0  0  0  0  0  0  0  0
  142.5100   78.0949  217.9884 H   0  0  0  0  0  0  0  0  0  0  0  0
  1  2  1  0
  2  3  2  0
  3  4  1  0
  4  5  2  0
  5  6  1  0
  6  7  1  0
  7  8  1  0
  8  9  2  0
  8 10  1  0
 10 11  1  0
 11 12  1  0
 12 13  2  0
 12 14  1  0
 14 15  2  0
 15 16  1  0
 16 17  2  0
 17 18  1  0
 18 19  2  0
 19 20  1  0
 20 21  2  0
 21 22  1  0
 22 23  2  0
  5 24  1  0
 24 25  2  0
 25  2  1  0
 23 14  1  0
 22 17  1  0
  1 26  1  0
  1 27  1  0
  3 28  1  0
  4 29  1  0
  6 30  1  0
  6 31  1  0
  7 32  1  0
 10 33  1  0
 10 34  1  0
 11 35  1  0
 15 36  1  0
 16 37  1  0
 18 38  1  0
 19 39  1  0
 20 40  1  0
 21 41  1  0
 24 42  1  0
 25 43  1  0
M  END
>  <smiles>  (39) 
Nc1ccc(CNC(=O)CNC(=O)c2ccc3ccccc3n2)cc1

>  <score_type>  (39) 
oracle

>  <origin>  (39) 
autodockgpu

>  <m_score__min__energy>  (39) 
-8.3100000000000005

>  <m_primary>  (39) 
energy

>  <rmsd>  (39) 
3.0221802997812848

>  <m_score__min__rmsd>  (39) 
3.0221802997812848

>  <meeko>  (39) 
{"free_energy": -8.1, "intermolecular_energy": -9.89, "internal_energy": -0.76, "cluster_size": 14, "cluster_id": 2, "rank_in_cluster": 2}

>  <energy>  (39) 
-7.49

>  <cluster_rmsd>  (39) 
0.71

>  <cluster>  (39) 
2

$$$$

     RDKit          3D

 43 45  0  0  0  0  0  0  0  0999 V2000
  143.1740   80.2080  222.8170 N   0  0  0  0  0  0  0  0  0  0  0  0
  141.9660   79.4620  222.7410 C   0  0  0  0  0  0  0  0  0  0  0  0
  140.8630   79.7540  223.5460 C   0  0  0  0  0  0  0  0  0  0  0  0
  139.6890   79.0040  223.4480 C   0  0  0  0  0  0  0  0  0  0  0  0
  139.5950   77.9660  222.5580 C   0  0  0  0  0  0  0  0  0  0  0  0
  138.4040   77.1160  222.3710 C   0  0  0  0  0  0  0  0  0  0  0  0
  138.7270   75.7100  222.2170 N   0  0  0  0  0  0  0  0  0  0  0  0
  138.6590   75.0170  220.9820 C   0  0  0  0  0  0  0  0  0  0  0  0
  138.3090   75.5680  219.9070 O   0  0  0  0  0  0  0  0  0  0  0  0
  139.0120   73.5900  220.9440 C   0  0  0  0  0  0  0  0  0  0  0  0
  139.2350   73.0350  222.2630 N   0  0  0  0  0  0  0  0  0  0  0  0
  139.4390   71.6270  222.3480 C   0  0  0  0  0  0  0  0  0  0  0  0
  139.4120   70.9400  221.2730 O   0  0  0  0  0  0  0  0  0  0  0  0
  139.6750   70.9800  223.6430 C   0  0  0  0  0  0  0  0  0  0  0  0
  139.3400   69.6430  223.7750 C   0  0  0  0  0  0  0  0  0  0  0  0
  139.5200   68.9400  224.9460 C   0  0  0  0  0  0  0  0  0  0  0  0
  140.0530   69.6060  226.0180 C   0  0  0  0  0  0  0  0  0  0  0  0
  140.2880   69.0410  227.2370 C   0  0  0  0  0  0  0  0  0  0  0  0
  140.8240   69.7030  228.3190 C   0  0  0  0  0  0  0  0  0  0  0  0
  141.1480   71.0480  228.1470 C   0  0  0  0  0  0  0  0  0  0  0  0
  140.9200   71.6550  226.9070 C   0  0  0  0  0  0  0  0  0  0  0  0
  140.3810   70.9480  225.8580 C   0  0  0  0  0  0  0  0  0  0  0  0
  140.1930   71.6050  224.6990 N   0  0  0  0  0  0  0  0  0  0  0  0
  140.7040   77.6970  221.7700 C   0  0  0  0  0  0  0  0  0  0  0  0
  141.8610   78.4190  221.8510 C   0  0  0  0  0  0  0  0  0  0  0  0
  143.9040   80.0450  222.0840 H   0  0  0  0  0  0  0  0  0  0  0  0
  143.3790   80.9100  223.5620 H   0  0  0  0  0  0  0  0  0  0  0  0
  140.9195   80.5842  224.2655 H   0  0  0  0  0  0  0  0  0  0  0  0
  138.8312   79.2488  224.0916 H   0  0  0  0  0  0  0  0  0  0  0  0
  137.7505   77.2311  223.2483 H   0  0  0  0  0  0  0  0  0  0  0  0
  137.9101   77.4426  221.4440 H   0  0  0  0  0  0  0  0  0  0  0  0
  139.0320   75.1610  223.0750 H   0  0  0  0  0  0  0  0  0  0  0  0
  138.1915   73.0370  220.4635 H   0  0  0  0  0  0  0  0  0  0  0  0
  139.9514   73.4946  220.3798 H   0  0  0  0  0  0  0  0  0  0  0  0
  139.2520   73.6120  223.1360 H   0  0  0  0  0  0  0  0  0  0  0  0
  138.9117   69.1196  222.9075 H   0  0  0  0  0  0  0  0  0  0  0  0
  139.2445   67.8775  225.0180 H   0  0  0  0  0  0  0  0  0  0  0  0
  140.0306   67.9792  227.3651 H   0  0  0  0  0  0  0  0  0  0  0  0
  140.9896   69.1919  229.2789 H   0  0  0  0  0  0  0  0  0  0  0  0
  141.5786   71.6263  228.9778 H   0  0  0  0  0  0  0  0  0  0  0  0
  141.1763   72.7158  226.7690 H   0  0  0  0  0  0  0  0  0  0  0  0
  140.6498   76.8675  221.0496 H   0  0  0  0  0  0  0  0  0  0  0  0
  142.7119   78.1650  221.2018 H   0  0  0  0  0  0  0  0  0  0  0  0
  1  2  1  0
  2  3  2  0
  3  4  1  0
  4  5  2  0
  5  6  1  0
  6  7  1  0
  7  8  1  0
  8  9  2  0
  8 10  1  0
 10 11  1  0
 11 12  1  0
 12 13  2  0
 12 14  1  0
 14 15  2  0
 15 16  1  0
 16 17  2  0
 17 18  1  0
 18 19  2  0
 19 20  1  0
 20 21  2  0
 21 22  1  0
 22 23  2  0
  5 24  1  0
 24 25  2  0
 25  2  1  0
 23 14  1  0
 22 17  1  0
  1 26  1  0
  1 27  1  0
  3 28  1  0
  4 29  1  0
  6 30  1  0
  6 31  1  0
  7 32  1  0
 10 33  1  0
 10 34  1  0
 11 35  1  0
 15 36  1  0
 16 37  1  0
 18 38  1  0
 19 39  1  0
 20 40  1  0
 21 41  1  0
 24 42  1  0
 25 43  1  0
M  END
>  <smiles>  (40) 
Nc1ccc(CNC(=O)CNC(=O)c2ccc3ccccc3n2)cc1

>  <score_type>  (40) 
oracle

>  <origin>  (40) 
autodockgpu

>  <m_score__min__energy>  (40) 
-8.3100000000000005

>  <m_primary>  (40) 
energy

>  <rmsd>  (40) 
2.946221206419852

>  <m_score__min__rmsd>  (40) 
2.946221206419852

>  <meeko>  (40) 
{"free_energy": -8.1, "intermolecular_energy": -9.89, "internal_energy": -0.88, "cluster_size": 28, "cluster_id": 1, "rank_in_cluster": 4}

>  <energy>  (40) 
-7.47

>  <cluster_rmsd>  (40) 
1.62

>  <cluster>  (40) 
2

$$$$

     RDKit          3D

 43 45  0  0  0  0  0  0  0  0999 V2000
  142.4190   79.5780  222.4740 N   0  0  0  0  0  0  0  0  0  0  0  0
  141.2630   78.7530  222.5570 C   0  0  0  0  0  0  0  0  0  0  0  0
  140.0490   79.2280  223.0580 C   0  0  0  0  0  0  0  0  0  0  0  0
  138.9310   78.3950  223.1280 C   0  0  0  0  0  0  0  0  0  0  0  0
  139.0010   77.0940  222.7040 C   0  0  0  0  0  0  0  0  0  0  0  0
  137.8820   76.1330  222.7280 C   0  0  0  0  0  0  0  0  0  0  0  0
  138.2760   74.7910  222.3420 N   0  0  0  0  0  0  0  0  0  0  0  0
  137.6050   74.0290  221.3530 C   0  0  0  0  0  0  0  0  0  0  0  0
  136.6040   74.4550  220.7220 O   0  0  0  0  0  0  0  0  0  0  0  0
  138.0950   72.6770  221.0410 C   0  0  0  0  0  0  0  0  0  0  0  0
  138.3200   71.8770  222.2270 N   0  0  0  0  0  0  0  0  0  0  0  0
  139.5670   72.0490  222.8960 C   0  0  0  0  0  0  0  0  0  0  0  0
  140.4070   72.8830  222.4200 O   0  0  0  0  0  0  0  0  0  0  0  0
  139.8790   71.2820  224.1070 C   0  0  0  0  0  0  0  0  0  0  0  0
  140.7000   71.8690  225.0570 C   0  0  0  0  0  0  0  0  0  0  0  0
  141.0560   71.2370  226.2280 C   0  0  0  0  0  0  0  0  0  0  0  0
  140.5710   69.9750  226.4490 C   0  0  0  0  0  0  0  0  0  0  0  0
  140.8380   69.2300  227.5600 C   0  0  0  0  0  0  0  0  0  0  0  0
  140.3540   67.9620  227.7900 C   0  0  0  0  0  0  0  0  0  0  0  0
  139.5320   67.4060  226.8110 C   0  0  0  0  0  0  0  0  0  0  0  0
  139.2390   68.1460  225.6600 C   0  0  0  0  0  0  0  0  0  0  0  0
  139.7490   69.4100  225.4790 C   0  0  0  0  0  0  0  0  0  0  0  0
  139.4200   70.0550  224.3450 N   0  0  0  0  0  0  0  0  0  0  0  0
  140.2180   76.6470  222.2110 C   0  0  0  0  0  0  0  0  0  0  0  0
  141.3230   77.4470  222.1350 C   0  0  0  0  0  0  0  0  0  0  0  0
  143.2480   79.2170  221.9450 H   0  0  0  0  0  0  0  0  0  0  0  0
  142.4920   80.5240  222.9090 H   0  0  0  0  0  0  0  0  0  0  0  0
  139.9729   80.2703  223.4013 H   0  0  0  0  0  0  0  0  0  0  0  0
  137.9842   78.7871  223.5277 H   0  0  0  0  0  0  0  0  0  0  0  0
  137.4726   76.0978  223.7483 H   0  0  0  0  0  0  0  0  0  0  0  0
  137.1366   76.4791  221.9968 H   0  0  0  0  0  0  0  0  0  0  0  0
  139.1130   74.3470  222.8250 H   0  0  0  0  0  0  0  0  0  0  0  0
  137.3503   72.1696  220.4102 H   0  0  0  0  0  0  0  0  0  0  0  0
  139.0602   72.7842  220.5243 H   0  0  0  0  0  0  0  0  0  0  0  0
  137.6210   71.1960  222.6040 H   0  0  0  0  0  0  0  0  0  0  0  0
  141.0835   72.8825  224.8678 H   0  0  0  0  0  0  0  0  0  0  0  0
  141.7093   71.7302  226.9627 H   0  0  0  0  0  0  0  0  0  0  0  0
  141.4875   69.6749  228.3282 H   0  0  0  0  0  0  0  0  0  0  0  0
  140.6054   67.4105  228.7080 H   0  0  0  0  0  0  0  0  0  0  0  0
  139.1177   66.3954  226.9420 H   0  0  0  0  0  0  0  0  0  0  0  0
  138.5897   67.7091  224.8870 H   0  0  0  0  0  0  0  0  0  0  0  0
  140.2968   75.6052  221.8669 H   0  0  0  0  0  0  0  0  0  0  0  0
  142.2646   77.0437  221.7342 H   0  0  0  0  0  0  0  0  0  0  0  0
  1  2  1  0
  2  3  2  0
  3  4  1  0
  4  5  2  0
  5  6  1  0
  6  7  1  0
  7  8  1  0
  8  9  2  0
  8 10  1  0
 10 11  1  0
 11 12  1  0
 12 13  2  0
 12 14  1  0
 14 15  2  0
 15 16  1  0
 16 17  2  0
 17 18  1  0
 18 19  2  0
 19 20  1  0
 20 21  2  0
 21 22  1  0
 22 23  2  0
  5 24  1  0
 24 25  2  0
 25  2  1  0
 23 14  1  0
 22 17  1  0
  1 26  1  0
  1 27  1  0
  3 28  1  0
  4 29  1  0
  6 30  1  0
  6 31  1  0
  7 32  1  0
 10 33  1  0
 10 34  1  0
 11 35  1  0
 15 36  1  0
 16 37  1  0
 18 38  1  0
 19 39  1  0
 20 40  1  0
 21 41  1  0
 24 42  1  0
 25 43  1  0
M  END
>  <smiles>  (41) 
Nc1ccc(CNC(=O)CNC(=O)c2ccc3ccccc3n2)cc1

>  <score_type>  (41) 
oracle

>  <origin>  (41) 
autodockgpu

>  <m_score__min__energy>  (41) 
-8.3100000000000005

>  <m_primary>  (41) 
energy

>  <rmsd>  (41) 
3.671456935955667

>  <m_score__min__rmsd>  (41) 
3.671456935955667

>  <meeko>  (41) 
{"free_energy": -7.48, "intermolecular_energy": -9.27, "internal_energy": -1.67, "cluster_size": 28, "cluster_id": 1, "rank_in_cluster": 21}

>  <energy>  (41) 
-7.44

>  <cluster_rmsd>  (41) 
1.36

>  <cluster>  (41) 
2

$$$$

     RDKit          3D

 43 45  0  0  0  0  0  0  0  0999 V2000
  142.9490   80.5190  222.4780 N   0  0  0  0  0  0  0  0  0  0  0  0
  141.7520   79.7500  222.4850 C   0  0  0  0  0  0  0  0  0  0  0  0
  140.4990   80.3260  222.2690 C   0  0  0  0  0  0  0  0  0  0  0  0
  139.3420   79.5460  222.2810 C   0  0  0  0  0  0  0  0  0  0  0  0
  139.4120   78.1950  222.5050 C   0  0  0  0  0  0  0  0  0  0  0  0
  138.2560   77.2800  222.5330 C   0  0  0  0  0  0  0  0  0  0  0  0
  138.6240   75.8910  222.3290 N   0  0  0  0  0  0  0  0  0  0  0  0
  139.2270   75.4040  221.1420 C   0  0  0  0  0  0  0  0  0  0  0  0
  139.4940   76.1410  220.1570 O   0  0  0  0  0  0  0  0  0  0  0  0
  139.5610   73.9750  221.0460 C   0  0  0  0  0  0  0  0  0  0  0  0
  139.6410   73.3330  222.3420 N   0  0  0  0  0  0  0  0  0  0  0  0
  139.8520   71.9230  222.3530 C   0  0  0  0  0  0  0  0  0  0  0  0
  139.9540   71.3110  221.2390 O   0  0  0  0  0  0  0  0  0  0  0  0
  139.9490   71.1900  223.6210 C   0  0  0  0  0  0  0  0  0  0  0  0
  139.5230   69.8720  223.6470 C   0  0  0  0  0  0  0  0  0  0  0  0
  139.5700   69.0950  224.7830 C   0  0  0  0  0  0  0  0  0  0  0  0
  140.0600   69.6640  225.9290 C   0  0  0  0  0  0  0  0  0  0  0  0
  140.1660   69.0170  227.1260 C   0  0  0  0  0  0  0  0  0  0  0  0
  140.6580   69.5810  228.2820 C   0  0  0  0  0  0  0  0  0  0  0  0
  141.0760   70.9100  228.2150 C   0  0  0  0  0  0  0  0  0  0  0  0
  140.9800   71.5990  227.0020 C   0  0  0  0  0  0  0  0  0  0  0  0
  140.4800   70.9880  225.8750 C   0  0  0  0  0  0  0  0  0  0  0  0
  140.4210   71.7200  224.7470 N   0  0  0  0  0  0  0  0  0  0  0  0
  140.6680   77.6470  222.7170 C   0  0  0  0  0  0  0  0  0  0  0  0
  141.8110   78.3940  222.7080 C   0  0  0  0  0  0  0  0  0  0  0  0
  143.7830   80.1330  221.9770 H   0  0  0  0  0  0  0  0  0  0  0  0
  143.0460   81.4480  222.9430 H   0  0  0  0  0  0  0  0  0  0  0  0
  140.4227   81.4082  222.0871 H   0  0  0  0  0  0  0  0  0  0  0  0
  138.3641   80.0196  222.1091 H   0  0  0  0  0  0  0  0  0  0  0  0
  137.7612   77.3710  223.5112 H   0  0  0  0  0  0  0  0  0  0  0  0
  137.5900   77.5676  221.7061 H   0  0  0  0  0  0  0  0  0  0  0  0
  138.4340   75.1940  223.1090 H   0  0  0  0  0  0  0  0  0  0  0  0
  138.7853   73.4712  220.4506 H   0  0  0  0  0  0  0  0  0  0  0  0
  140.5511   73.8955  220.5733 H   0  0  0  0  0  0  0  0  0  0  0  0
  139.5530   73.8490  223.2470 H   0  0  0  0  0  0  0  0  0  0  0  0
  139.1304   69.4272  222.7207 H   0  0  0  0  0  0  0  0  0  0  0  0
  139.2251   68.0506  224.7707 H   0  0  0  0  0  0  0  0  0  0  0  0
  139.8344   67.9691  227.1706 H   0  0  0  0  0  0  0  0  0  0  0  0
  140.7188   69.0076  229.2187 H   0  0  0  0  0  0  0  0  0  0  0  0
  141.4774   71.4114  229.1080 H   0  0  0  0  0  0  0  0  0  0  0  0
  141.3097   72.6470  226.9478 H   0  0  0  0  0  0  0  0  0  0  0  0
  140.7469   76.5652  222.9001 H   0  0  0  0  0  0  0  0  0  0  0  0
  142.7833   77.9092  222.8798 H   0  0  0  0  0  0  0  0  0  0  0  0
  1  2  1  0
  2  3  2  0
  3  4  1  0
  4  5  2  0
  5  6  1  0
  6  7  1  0
  7  8  1  0
  8  9  2  0
  8 10  1  0
 10 11  1  0
 11 12  1  0
 12 13  2  0
 12 14  1  0
 14 15  2  0
 15 16  1  0
 16 17  2  0
 17 18  1  0
 18 19  2  0
 19 20  1  0
 20 21  2  0
 21 22  1  0
 22 23  2  0
  5 24  1  0
 24 25  2  0
 25  2  1  0
 23 14  1  0
 22 17  1  0
  1 26  1  0
  1 27  1  0
  3 28  1  0
  4 29  1  0
  6 30  1  0
  6 31  1  0
  7 32  1  0
 10 33  1  0
 10 34  1  0
 11 35  1  0
 15 36  1  0
 16 37  1  0
 18 38  1  0
 19 39  1  0
 20 40  1  0
 21 41  1  0
 24 42  1  0
 25 43  1  0
M  END
>  <smiles>  (42) 
Nc1ccc(CNC(=O)CNC(=O)c2ccc3ccccc3n2)cc1

>  <score_type>  (42) 
oracle

>  <origin>  (42) 
autodockgpu

>  <m_score__min__energy>  (42) 
-8.3100000000000005

>  <m_primary>  (42) 
energy

>  <rmsd>  (42) 
2.9180193400396512

>  <m_score__min__rmsd>  (42) 
2.9180193400396512

>  <meeko>  (42) 
{"free_energy": -8.0, "intermolecular_energy": -9.79, "internal_energy": -0.88, "cluster_size": 28, "cluster_id": 1, "rank_in_cluster": 6}

>  <energy>  (42) 
-7.36

>  <cluster_rmsd>  (42) 
1.74

>  <cluster>  (42) 
2

$$$$

     RDKit          3D

 43 45  0  0  0  0  0  0  0  0999 V2000
  142.8210   80.3560  222.2900 N   0  0  0  0  0  0  0  0  0  0  0  0
  141.7620   79.4090  222.3690 C   0  0  0  0  0  0  0  0  0  0  0  0
  141.7300   78.2650  221.5690 C   0  0  0  0  0  0  0  0  0  0  0  0
  140.6780   77.3530  221.6700 C   0  0  0  0  0  0  0  0  0  0  0  0
  139.6540   77.5610  222.5570 C   0  0  0  0  0  0  0  0  0  0  0  0
  138.5010   76.6620  222.7470 C   0  0  0  0  0  0  0  0  0  0  0  0
  138.7580   75.3050  222.2990 N   0  0  0  0  0  0  0  0  0  0  0  0
  138.2290   74.7590  221.1030 C   0  0  0  0  0  0  0  0  0  0  0  0
  137.4850   75.4090  220.3230 O   0  0  0  0  0  0  0  0  0  0  0  0
  138.5580   73.3700  220.7460 C   0  0  0  0  0  0  0  0  0  0  0  0
  138.5270   72.4790  221.8870 N   0  0  0  0  0  0  0  0  0  0  0  0
  139.7050   72.4080  222.6850 C   0  0  0  0  0  0  0  0  0  0  0  0
  140.7110   73.1210  222.3550 O   0  0  0  0  0  0  0  0  0  0  0  0
  139.7630   71.5340  223.8620 C   0  0  0  0  0  0  0  0  0  0  0  0
  139.1610   70.2880  223.7790 C   0  0  0  0  0  0  0  0  0  0  0  0
  139.1560   69.3910  224.8240 C   0  0  0  0  0  0  0  0  0  0  0  0
  139.7750   69.7600  225.9890 C   0  0  0  0  0  0  0  0  0  0  0  0
  139.8500   68.9770  227.1040 C   0  0  0  0  0  0  0  0  0  0  0  0
  140.4710   69.3400  228.2780 C   0  0  0  0  0  0  0  0  0  0  0  0
  141.0650   70.6010  228.3220 C   0  0  0  0  0  0  0  0  0  0  0  0
  141.0050   71.4270  227.1940 C   0  0  0  0  0  0  0  0  0  0  0  0
  140.3710   71.0150  226.0450 C   0  0  0  0  0  0  0  0  0  0  0  0
  140.3580   71.8680  225.0040 N   0  0  0  0  0  0  0  0  0  0  0  0
  139.7100   78.7050  223.3390 C   0  0  0  0  0  0  0  0  0  0  0  0
  140.7310   79.6090  223.2560 C   0  0  0  0  0  0  0  0  0  0  0  0
  143.7770   80.0110  222.0380 H   0  0  0  0  0  0  0  0  0  0  0  0
  142.7020   81.3780  222.4670 H   0  0  0  0  0  0  0  0  0  0  0  0
  142.5428   78.0804  220.8512 H   0  0  0  0  0  0  0  0  0  0  0  0
  140.6707   76.4578  221.0308 H   0  0  0  0  0  0  0  0  0  0  0  0
  138.2500   76.6358  223.8177 H   0  0  0  0  0  0  0  0  0  0  0  0
  137.6731   77.0570  222.1399 H   0  0  0  0  0  0  0  0  0  0  0  0
  139.3760   74.6800  222.8970 H   0  0  0  0  0  0  0  0  0  0  0  0
  137.8292   73.0154  220.0023 H   0  0  0  0  0  0  0  0  0  0  0  0
  139.5826   73.3629  220.3458 H   0  0  0  0  0  0  0  0  0  0  0  0
  137.6940   71.8990  222.1430 H   0  0  0  0  0  0  0  0  0  0  0  0
  138.6663   70.0037  222.8386 H   0  0  0  0  0  0  0  0  0  0  0  0
  138.6702   68.4090  224.7262 H   0  0  0  0  0  0  0  0  0  0  0  0
  139.3801   67.9833  227.0618 H   0  0  0  0  0  0  0  0  0  0  0  0
  140.4975   68.6636  229.1451 H   0  0  0  0  0  0  0  0  0  0  0  0
  141.5756   70.9429  229.2343 H   0  0  0  0  0  0  0  0  0  0  0  0
  141.4726   72.4221  227.2267 H   0  0  0  0  0  0  0  0  0  0  0  0
  138.8977   78.8925  224.0567 H   0  0  0  0  0  0  0  0  0  0  0  0
  140.7280   80.4999  223.9011 H   0  0  0  0  0  0  0  0  0  0  0  0
  1  2  1  0
  2  3  2  0
  3  4  1  0
  4  5  2  0
  5  6  1  0
  6  7  1  0
  7  8  1  0
  8  9  2  0
  8 10  1  0
 10 11  1  0
 11 12  1  0
 12 13  2  0
 12 14  1  0
 14 15  2  0
 15 16  1  0
 16 17  2  0
 17 18  1  0
 18 19  2  0
 19 20  1  0
 20 21  2  0
 21 22  1  0
 22 23  2  0
  5 24  1  0
 24 25  2  0
 25  2  1  0
 23 14  1  0
 22 17  1  0
  1 26  1  0
  1 27  1  0
  3 28  1  0
  4 29  1  0
  6 30  1  0
  6 31  1  0
  7 32  1  0
 10 33  1  0
 10 34  1  0
 11 35  1  0
 15 36  1  0
 16 37  1  0
 18 38  1  0
 19 39  1  0
 20 40  1  0
 21 41  1  0
 24 42  1  0
 25 43  1  0
M  END
>  <smiles>  (43) 
Nc1ccc(CNC(=O)CNC(=O)c2ccc3ccccc3n2)cc1

>  <score_type>  (43) 
oracle

>  <origin>  (43) 
autodockgpu

>  <m_score__min__energy>  (43) 
-8.3100000000000005

>  <m_primary>  (43) 
energy

>  <rmsd>  (43) 
2.690728149220815

>  <m_score__min__rmsd>  (43) 
2.690728149220815

>  <meeko>  (43) 
{"free_energy": -7.77, "intermolecular_energy": -9.56, "internal_energy": -1.48, "cluster_size": 28, "cluster_id": 1, "rank_in_cluster": 17}

>  <energy>  (43) 
-8.02

>  <cluster_rmsd>  (43) 
0.0

>  <cluster>  (43) 
3

$$$$

     RDKit          3D

 43 45  0  0  0  0  0  0  0  0999 V2000
  142.6160   80.3960  218.0800 N   0  0  0  0  0  0  0  0  0  0  0  0
  142.2270   79.4910  219.1070 C   0  0  0  0  0  0  0  0  0  0  0  0
  142.2530   78.1070  218.9250 C   0  0  0  0  0  0  0  0  0  0  0  0
  141.8660   77.2440  219.9520 C   0  0  0  0  0  0  0  0  0  0  0  0
  141.4520   77.7380  221.1610 C   0  0  0  0  0  0  0  0  0  0  0  0
  141.0280   76.9170  222.3110 C   0  0  0  0  0  0  0  0  0  0  0  0
  140.5200   75.6140  221.9250 N   0  0  0  0  0  0  0  0  0  0  0  0
  139.1720   75.3730  221.5580 C   0  0  0  0  0  0  0  0  0  0  0  0
  138.2960   76.2750  221.5390 O   0  0  0  0  0  0  0  0  0  0  0  0
  138.7690   74.0100  221.1810 C   0  0  0  0  0  0  0  0  0  0  0  0
  138.7060   73.1120  222.3160 N   0  0  0  0  0  0  0  0  0  0  0  0
  139.9280   72.5090  222.7320 C   0  0  0  0  0  0  0  0  0  0  0  0
  140.9960   72.7840  222.0900 O   0  0  0  0  0  0  0  0  0  0  0  0
  139.9600   71.5880  223.8740 C   0  0  0  0  0  0  0  0  0  0  0  0
  139.3750   70.3420  223.7230 C   0  0  0  0  0  0  0  0  0  0  0  0
  139.3480   69.4030  224.7320 C   0  0  0  0  0  0  0  0  0  0  0  0
  139.9270   69.7310  225.9280 C   0  0  0  0  0  0  0  0  0  0  0  0
  139.9770   68.9050  227.0130 C   0  0  0  0  0  0  0  0  0  0  0  0
  140.5590   69.2270  228.2190 C   0  0  0  0  0  0  0  0  0  0  0  0
  141.1360   70.4910  228.3310 C   0  0  0  0  0  0  0  0  0  0  0  0
  141.1020   71.3600  227.2360 C   0  0  0  0  0  0  0  0  0  0  0  0
  140.5080   70.9890  226.0520 C   0  0  0  0  0  0  0  0  0  0  0  0
  140.5170   71.8830  225.0470 N   0  0  0  0  0  0  0  0  0  0  0  0
  141.4350   79.1160  221.3170 C   0  0  0  0  0  0  0  0  0  0  0  0
  141.8100   79.9760  220.3240 C   0  0  0  0  0  0  0  0  0  0  0  0
  142.0940   81.2990  217.9920 H   0  0  0  0  0  0  0  0  0  0  0  0
  143.3920   80.2130  217.4070 H   0  0  0  0  0  0  0  0  0  0  0  0
  142.5823   77.6916  217.9611 H   0  0  0  0  0  0  0  0  0  0  0  0
  141.8938   76.1565  219.7888 H   0  0  0  0  0  0  0  0  0  0  0  0
  141.8926   76.7726  222.9755 H   0  0  0  0  0  0  0  0  0  0  0  0
  140.2081   77.4530  222.8115 H   0  0  0  0  0  0  0  0  0  0  0  0
  141.1910   74.7890  221.9130 H   0  0  0  0  0  0  0  0  0  0  0  0
  137.7753   74.0540  220.7114 H   0  0  0  0  0  0  0  0  0  0  0  0
  139.5288   73.6181  220.4888 H   0  0  0  0  0  0  0  0  0  0  0  0
  137.8220   72.8950  222.8310 H   0  0  0  0  0  0  0  0  0  0  0  0
  138.9123   70.0909  222.7572 H   0  0  0  0  0  0  0  0  0  0  0  0
  138.8760   68.4210  224.5806 H   0  0  0  0  0  0  0  0  0  0  0  0
  139.5191   67.9094  226.9175 H   0  0  0  0  0  0  0  0  0  0  0  0
  140.5681   68.5165  229.0587 H   0  0  0  0  0  0  0  0  0  0  0  0
  141.6136   70.8019  229.2719 H   0  0  0  0  0  0  0  0  0  0  0  0
  141.5580   72.3572  227.3229 H   0  0  0  0  0  0  0  0  0  0  0  0
  141.1060   79.5337  222.2800 H   0  0  0  0  0  0  0  0  0  0  0  0
  141.7782   81.0615  220.4990 H   0  0  0  0  0  0  0  0  0  0  0  0
  1  2  1  0
  2  3  2  0
  3  4  1  0
  4  5  2  0
  5  6  1  0
  6  7  1  0
  7  8  1  0
  8  9  2  0
  8 10  1  0
 10 11  1  0
 11 12  1  0
 12 13  2  0
 12 14  1  0
 14 15  2  0
 15 16  1  0
 16 17  2  0
 17 18  1  0
 18 19  2  0
 19 20  1  0
 20 21  2  0
 21 22  1  0
 22 23  2  0
  5 24  1  0
 24 25  2  0
 25  2  1  0
 23 14  1  0
 22 17  1  0
  1 26  1  0
  1 27  1  0
  3 28  1  0
  4 29  1  0
  6 30  1  0
  6 31  1  0
  7 32  1  0
 10 33  1  0
 10 34  1  0
 11 35  1  0
 15 36  1  0
 16 37  1  0
 18 38  1  0
 19 39  1  0
 20 40  1  0
 21 41  1  0
 24 42  1  0
 25 43  1  0
M  END
>  <smiles>  (44) 
Nc1ccc(CNC(=O)CNC(=O)c2ccc3ccccc3n2)cc1

>  <score_type>  (44) 
oracle

>  <origin>  (44) 
autodockgpu

>  <m_score__min__energy>  (44) 
-8.3100000000000005

>  <m_primary>  (44) 
energy

>  <rmsd>  (44) 
2.5998076499714267

>  <m_score__min__rmsd>  (44) 
2.5998076499714267

>  <meeko>  (44) 
{"free_energy": -7.41, "intermolecular_energy": -9.2, "internal_energy": -1.48, "cluster_size": 28, "cluster_id": 1, "rank_in_cluster": 23}

>  <energy>  (44) 
-8.01

>  <cluster_rmsd>  (44) 
0.74

>  <cluster>  (44) 
3

$$$$

     RDKit          3D

 43 45  0  0  0  0  0  0  0  0999 V2000
  142.5990   80.3790  217.7280 N   0  0  0  0  0  0  0  0  0  0  0  0
  142.2120   79.7170  218.9260 C   0  0  0  0  0  0  0  0  0  0  0  0
  141.8380   80.4200  220.0730 C   0  0  0  0  0  0  0  0  0  0  0  0
  141.4630   79.7440  221.2350 C   0  0  0  0  0  0  0  0  0  0  0  0
  141.4510   78.3740  221.2740 C   0  0  0  0  0  0  0  0  0  0  0  0
  141.0670   77.5620  222.4430 C   0  0  0  0  0  0  0  0  0  0  0  0
  140.2030   76.4460  222.1030 N   0  0  0  0  0  0  0  0  0  0  0  0
  140.6670   75.2460  221.5090 C   0  0  0  0  0  0  0  0  0  0  0  0
  141.8760   75.0450  221.2240 O   0  0  0  0  0  0  0  0  0  0  0  0
  139.7000   74.1780  221.2090 C   0  0  0  0  0  0  0  0  0  0  0  0
  139.4340   73.3300  222.3530 N   0  0  0  0  0  0  0  0  0  0  0  0
  140.3960   72.3220  222.6490 C   0  0  0  0  0  0  0  0  0  0  0  0
  141.4250   72.2190  221.9010 O   0  0  0  0  0  0  0  0  0  0  0  0
  140.2090   71.4190  223.7900 C   0  0  0  0  0  0  0  0  0  0  0  0
  139.4950   70.2490  223.5860 C   0  0  0  0  0  0  0  0  0  0  0  0
  139.2610   69.3330  224.5890 C   0  0  0  0  0  0  0  0  0  0  0  0
  139.7600   69.6050  225.8350 C   0  0  0  0  0  0  0  0  0  0  0  0
  139.6080   68.7930  226.9200 C   0  0  0  0  0  0  0  0  0  0  0  0
  140.1080   69.0580  228.1760 C   0  0  0  0  0  0  0  0  0  0  0  0
  140.8200   70.2450  228.3410 C   0  0  0  0  0  0  0  0  0  0  0  0
  140.9940   71.0980  227.2460 C   0  0  0  0  0  0  0  0  0  0  0  0
  140.4740   70.7860  226.0110 C   0  0  0  0  0  0  0  0  0  0  0  0
  140.6850   71.6600  225.0100 N   0  0  0  0  0  0  0  0  0  0  0  0
  141.8260   77.6990  220.1210 C   0  0  0  0  0  0  0  0  0  0  0  0
  142.1970   78.3440  218.9750 C   0  0  0  0  0  0  0  0  0  0  0  0
  141.9980   81.1620  217.3780 H   0  0  0  0  0  0  0  0  0  0  0  0
  143.4480   80.1300  217.1740 H   0  0  0  0  0  0  0  0  0  0  0  0
  141.8389   81.5199  220.0606 H   0  0  0  0  0  0  0  0  0  0  0  0
  141.1741   80.3166  222.1287 H   0  0  0  0  0  0  0  0  0  0  0  0
  141.9812   77.1671  222.9103 H   0  0  0  0  0  0  0  0  0  0  0  0
  140.5044   78.2158  223.1256 H   0  0  0  0  0  0  0  0  0  0  0  0
  139.1630   76.5270  222.3070 H   0  0  0  0  0  0  0  0  0  0  0  0
  138.7553   74.6389  220.8849 H   0  0  0  0  0  0  0  0  0  0  0  0
  140.1349   73.5466  220.4202 H   0  0  0  0  0  0  0  0  0  0  0  0
  138.5840   73.4250  222.9550 H   0  0  0  0  0  0  0  0  0  0  0  0
  139.0982   70.0425  222.5811 H   0  0  0  0  0  0  0  0  0  0  0  0
  138.6913   68.4123  224.3947 H   0  0  0  0  0  0  0  0  0  0  0  0
  139.0450   67.8581  226.7822 H   0  0  0  0  0  0  0  0  0  0  0  0
  139.9520   68.3621  229.0135 H   0  0  0  0  0  0  0  0  0  0  0  0
  141.2409   70.5083  229.3226 H   0  0  0  0  0  0  0  0  0  0  0  0
  141.5564   72.0346  227.3746 H   0  0  0  0  0  0  0  0  0  0  0  0
  141.8245   76.5990  220.1300 H   0  0  0  0  0  0  0  0  0  0  0  0
  142.4850   77.7613  218.0876 H   0  0  0  0  0  0  0  0  0  0  0  0
  1  2  1  0
  2  3  2  0
  3  4  1  0
  4  5  2  0
  5  6  1  0
  6  7  1  0
  7  8  1  0
  8  9  2  0
  8 10  1  0
 10 11  1  0
 11 12  1  0
 12 13  2  0
 12 14  1  0
 14 15  2  0
 15 16  1  0
 16 17  2  0
 17 18  1  0
 18 19  2  0
 19 20  1  0
 20 21  2  0
 21 22  1  0
 22 23  2  0
  5 24  1  0
 24 25  2  0
 25  2  1  0
 23 14  1  0
 22 17  1  0
  1 26  1  0
  1 27  1  0
  3 28  1  0
  4 29  1  0
  6 30  1  0
  6 31  1  0
  7 32  1  0
 10 33  1  0
 10 34  1  0
 11 35  1  0
 15 36  1  0
 16 37  1  0
 18 38  1  0
 19 39  1  0
 20 40  1  0
 21 41  1  0
 24 42  1  0
 25 43  1  0
M  END
>  <smiles>  (45) 
Nc1ccc(CNC(=O)CNC(=O)c2ccc3ccccc3n2)cc1

>  <score_type>  (45) 
oracle

>  <origin>  (45) 
autodockgpu

>  <m_score__min__energy>  (45) 
-8.3100000000000005

>  <m_primary>  (45) 
energy

>  <rmsd>  (45) 
2.9481305201757033

>  <m_score__min__rmsd>  (45) 
2.9481305201757033

>  <meeko>  (45) 
{"free_energy": -7.89, "intermolecular_energy": -9.68, "internal_energy": -0.64, "cluster_size": 14, "cluster_id": 2, "rank_in_cluster": 4}

>  <energy>  (45) 
-7.15

>  <cluster_rmsd>  (45) 
0.95

>  <cluster>  (45) 
3

$$$$

     RDKit          3D

 43 45  0  0  0  0  0  0  0  0999 V2000
  142.0570   80.8620  223.8050 N   0  0  0  0  0  0  0  0  0  0  0  0
  141.2380   79.7560  223.4440 C   0  0  0  0  0  0  0  0  0  0  0  0
  141.7750   78.5010  223.1520 C   0  0  0  0  0  0  0  0  0  0  0  0
  140.9450   77.4340  222.8010 C   0  0  0  0  0  0  0  0  0  0  0  0
  139.5860   77.5970  222.7370 C   0  0  0  0  0  0  0  0  0  0  0  0
  138.6210   76.5390  222.3840 C   0  0  0  0  0  0  0  0  0  0  0  0
  139.2540   75.2650  222.0970 N   0  0  0  0  0  0  0  0  0  0  0  0
  140.1750   75.0650  221.0380 C   0  0  0  0  0  0  0  0  0  0  0  0
  140.5230   75.9830  220.2520 O   0  0  0  0  0  0  0  0  0  0  0  0
  140.7570   73.7280  220.8410 C   0  0  0  0  0  0  0  0  0  0  0  0
  140.8520   72.9750  222.0740 N   0  0  0  0  0  0  0  0  0  0  0  0
  139.6680   72.3250  222.5290 C   0  0  0  0  0  0  0  0  0  0  0  0
  138.6030   72.4410  221.8370 O   0  0  0  0  0  0  0  0  0  0  0  0
  139.6730   71.5370  223.7670 C   0  0  0  0  0  0  0  0  0  0  0  0
  138.9310   70.3680  223.7990 C   0  0  0  0  0  0  0  0  0  0  0  0
  138.8660   69.5560  224.9100 C   0  0  0  0  0  0  0  0  0  0  0  0
  139.5700   69.9340  226.0220 C   0  0  0  0  0  0  0  0  0  0  0  0
  139.6010   69.2300  227.1910 C   0  0  0  0  0  0  0  0  0  0  0  0
  140.3070   69.6030  228.3130 C   0  0  0  0  0  0  0  0  0  0  0  0
  141.0410   70.7850  228.2410 C   0  0  0  0  0  0  0  0  0  0  0  0
  141.0310   71.5280  227.0560 C   0  0  0  0  0  0  0  0  0  0  0  0
  140.3080   71.1110  225.9620 C   0  0  0  0  0  0  0  0  0  0  0  0
  140.3490   71.8820  224.8600 N   0  0  0  0  0  0  0  0  0  0  0  0
  139.0780   78.8540  223.0330 C   0  0  0  0  0  0  0  0  0  0  0  0
  139.8730   79.9090  223.3780 C   0  0  0  0  0  0  0  0  0  0  0  0
  141.6130   81.8080  223.8670 H   0  0  0  0  0  0  0  0  0  0  0  0
  143.0780   80.7870  224.0120 H   0  0  0  0  0  0  0  0  0  0  0  0
  142.8637   78.3508  223.1989 H   0  0  0  0  0  0  0  0  0  0  0  0
  141.3868   76.4526  222.5736 H   0  0  0  0  0  0  0  0  0  0  0  0
  137.9265   76.4032  223.2262 H   0  0  0  0  0  0  0  0  0  0  0  0
  138.1009   76.8607  221.4696 H   0  0  0  0  0  0  0  0  0  0  0  0
  139.0170   74.4290  222.7100 H   0  0  0  0  0  0  0  0  0  0  0  0
  140.1253   73.1693  220.1348 H   0  0  0  0  0  0  0  0  0  0  0  0
  141.7776   73.8627  220.4534 H   0  0  0  0  0  0  0  0  0  0  0  0
  141.7340   72.8900  222.6320 H   0  0  0  0  0  0  0  0  0  0  0  0
  138.3698   70.0755  222.8992 H   0  0  0  0  0  0  0  0  0  0  0  0
  138.2674   68.6331  224.9040 H   0  0  0  0  0  0  0  0  0  0  0  0
  139.0200   68.2973  227.2404 H   0  0  0  0  0  0  0  0  0  0  0  0
  140.2920   68.9929  229.2282 H   0  0  0  0  0  0  0  0  0  0  0  0
  141.6230   71.1307  229.1080 H   0  0  0  0  0  0  0  0  0  0  0  0
  141.6107   72.4611  226.9976 H   0  0  0  0  0  0  0  0  0  0  0  0
  137.9896   79.0067  222.9878 H   0  0  0  0  0  0  0  0  0  0  0  0
  139.4197   80.8854  223.6041 H   0  0  0  0  0  0  0  0  0  0  0  0
  1  2  1  0
  2  3  2  0
  3  4  1  0
  4  5  2  0
  5  6  1  0
  6  7  1  0
  7  8  1  0
  8  9  2  0
  8 10  1  0
 10 11  1  0
 11 12  1  0
 12 13  2  0
 12 14  1  0
 14 15  2  0
 15 16  1  0
 16 17  2  0
 17 18  1  0
 18 19  2  0
 19 20  1  0
 20 21  2  0
 21 22  1  0
 22 23  2  0
  5 24  1  0
 24 25  2  0
 25  2  1  0
 23 14  1  0
 22 17  1  0
  1 26  1  0
  1 27  1  0
  3 28  1  0
  4 29  1  0
  6 30  1  0
  6 31  1  0
  7 32  1  0
 10 33  1  0
 10 34  1  0
 11 35  1  0
 15 36  1  0
 16 37  1  0
 18 38  1  0
 19 39  1  0
 20 40  1  0
 21 41  1  0
 24 42  1  0
 25 43  1  0
M  END
>  <smiles>  (46) 
Nc1ccc(CNC(=O)CNC(=O)c2ccc3ccccc3n2)cc1

>  <score_type>  (46) 
oracle

>  <origin>  (46) 
autodockgpu

>  <m_score__min__energy>  (46) 
-8.3100000000000005

>  <m_primary>  (46) 
energy

>  <rmsd>  (46) 
3.035794905844743

>  <m_score__min__rmsd>  (46) 
3.035794905844743

>  <meeko>  (46) 
{"free_energy": -7.16, "intermolecular_energy": -8.95, "internal_energy": -1.44, "cluster_size": 28, "cluster_id": 1, "rank_in_cluster": 27}

>  <energy>  (46) 
-7.1

>  <cluster_rmsd>  (46) 
0.92

>  <cluster>  (46) 
3

$$$$

     RDKit          3D

 43 45  0  0  0  0  0  0  0  0999 V2000
  142.5550   79.8340  222.5070 N   0  0  0  0  0  0  0  0  0  0  0  0
  141.3930   79.0180  222.5870 C   0  0  0  0  0  0  0  0  0  0  0  0
  140.1910   79.4910  223.1180 C   0  0  0  0  0  0  0  0  0  0  0  0
  139.0660   78.6660  223.1830 C   0  0  0  0  0  0  0  0  0  0  0  0
  139.1180   77.3750  222.7260 C   0  0  0  0  0  0  0  0  0  0  0  0
  137.9900   76.4250  222.7420 C   0  0  0  0  0  0  0  0  0  0  0  0
  138.3610   75.0950  222.2950 N   0  0  0  0  0  0  0  0  0  0  0  0
  137.8350   74.4810  221.1300 C   0  0  0  0  0  0  0  0  0  0  0  0
  136.9950   75.0430  220.3810 O   0  0  0  0  0  0  0  0  0  0  0  0
  138.2850   73.1280  220.7720 C   0  0  0  0  0  0  0  0  0  0  0  0
  138.3830   72.2500  221.9190 N   0  0  0  0  0  0  0  0  0  0  0  0
  139.6000   72.2860  222.6600 C   0  0  0  0  0  0  0  0  0  0  0  0
  140.5260   73.0770  222.2780 O   0  0  0  0  0  0  0  0  0  0  0  0
  139.7860   71.4330  223.8390 C   0  0  0  0  0  0  0  0  0  0  0  0
  139.4160   70.1010  223.7450 C   0  0  0  0  0  0  0  0  0  0  0  0
  139.5470   69.2150  224.7920 C   0  0  0  0  0  0  0  0  0  0  0  0
  140.0670   69.6850  225.9690 C   0  0  0  0  0  0  0  0  0  0  0  0
  140.2550   68.9250  227.0860 C   0  0  0  0  0  0  0  0  0  0  0  0
  140.7770   69.3890  228.2730 C   0  0  0  0  0  0  0  0  0  0  0  0
  141.1370   70.7350  228.3280 C   0  0  0  0  0  0  0  0  0  0  0  0
  140.9570   71.5400  227.1970 C   0  0  0  0  0  0  0  0  0  0  0  0
  140.4300   71.0260  226.0350 C   0  0  0  0  0  0  0  0  0  0  0  0
  140.2880   71.8650  224.9940 N   0  0  0  0  0  0  0  0  0  0  0  0
  140.3230   76.9310  222.2030 C   0  0  0  0  0  0  0  0  0  0  0  0
  141.4340   77.7220  222.1300 C   0  0  0  0  0  0  0  0  0  0  0  0
  142.5610   80.7410  223.0310 H   0  0  0  0  0  0  0  0  0  0  0  0
  143.4050   79.5840  221.9550 H   0  0  0  0  0  0  0  0  0  0  0  0
  140.1297   80.5247  223.4891 H   0  0  0  0  0  0  0  0  0  0  0  0
  138.1284   79.0565  223.6054 H   0  0  0  0  0  0  0  0  0  0  0  0
  137.6059   76.3545  223.7704 H   0  0  0  0  0  0  0  0  0  0  0  0
  137.2297   76.8059  222.0443 H   0  0  0  0  0  0  0  0  0  0  0  0
  139.0660   74.5430  222.8690 H   0  0  0  0  0  0  0  0  0  0  0  0
  137.5680   72.6960  220.0584 H   0  0  0  0  0  0  0  0  0  0  0  0
  139.2905   73.2171  220.3349 H   0  0  0  0  0  0  0  0  0  0  0  0
  137.6150   71.6050  222.2190 H   0  0  0  0  0  0  0  0  0  0  0  0
  139.0002   69.7355  222.7945 H   0  0  0  0  0  0  0  0  0  0  0  0
  139.2435   68.1630  224.6861 H   0  0  0  0  0  0  0  0  0  0  0  0
  139.9688   67.8641  227.0350 H   0  0  0  0  0  0  0  0  0  0  0  0
  140.9046   68.7257  229.1412 H   0  0  0  0  0  0  0  0  0  0  0  0
  141.5582   71.1600  229.2510 H   0  0  0  0  0  0  0  0  0  0  0  0
  141.2418   72.6017  227.2382 H   0  0  0  0  0  0  0  0  0  0  0  0
  140.3868   75.8978  221.8311 H   0  0  0  0  0  0  0  0  0  0  0  0
  142.3653   77.3206  221.7039 H   0  0  0  0  0  0  0  0  0  0  0  0
  1  2  1  0
  2  3  2  0
  3  4  1  0
  4  5  2  0
  5  6  1  0
  6  7  1  0
  7  8  1  0
  8  9  2  0
  8 10  1  0
 10 11  1  0
 11 12  1  0
 12 13  2  0
 12 14  1  0
 14 15  2  0
 15 16  1  0
 16 17  2  0
 17 18  1  0
 18 19  2  0
 19 20  1  0
 20 21  2  0
 21 22  1  0
 22 23  2  0
  5 24  1  0
 24 25  2  0
 25  2  1  0
 23 14  1  0
 22 17  1  0
  1 26  1  0
  1 27  1  0
  3 28  1  0
  4 29  1  0
  6 30  1  0
  6 31  1  0
  7 32  1  0
 10 33  1  0
 10 34  1  0
 11 35  1  0
 15 36  1  0
 16 37  1  0
 18 38  1  0
 19 39  1  0
 20 40  1  0
 21 41  1  0
 24 42  1  0
 25 43  1  0
M  END
>  <smiles>  (47) 
Nc1ccc(CNC(=O)CNC(=O)c2ccc3ccccc3n2)cc1

>  <score_type>  (47) 
oracle

>  <origin>  (47) 
autodockgpu

>  <m_score__min__energy>  (47) 
-8.3100000000000005

>  <m_primary>  (47) 
energy

>  <rmsd>  (47) 
2.9931995506026277

>  <m_score__min__rmsd>  (47) 
2.9931995506026277

>  <meeko>  (47) 
{"free_energy": -7.78, "intermolecular_energy": -9.57, "internal_energy": -1.53, "cluster_size": 28, "cluster_id": 1, "rank_in_cluster": 16}

>  <energy>  (47) 
-7.21

>  <cluster_rmsd>  (47) 
0.0

>  <cluster>  (47) 
4

$$$$

     RDKit          3D

 43 45  0  0  0  0  0  0  0  0999 V2000
  142.9580   80.8440  223.8430 N   0  0  0  0  0  0  0  0  0  0  0  0
  141.8670   79.9750  223.5640 C   0  0  0  0  0  0  0  0  0  0  0  0
  142.0480   78.6110  223.3250 C   0  0  0  0  0  0  0  0  0  0  0  0
  140.9580   77.7820  223.0540 C   0  0  0  0  0  0  0  0  0  0  0  0
  139.6850   78.2900  223.0200 C   0  0  0  0  0  0  0  0  0  0  0  0
  138.4670   77.5040  222.7510 C   0  0  0  0  0  0  0  0  0  0  0  0
  138.7420   76.1120  222.4490 N   0  0  0  0  0  0  0  0  0  0  0  0
  139.4920   75.6840  221.3250 C   0  0  0  0  0  0  0  0  0  0  0  0
  139.9840   76.4830  220.4860 O   0  0  0  0  0  0  0  0  0  0  0  0
  139.7110   74.2440  221.1190 C   0  0  0  0  0  0  0  0  0  0  0  0
  139.4990   73.4700  222.3240 N   0  0  0  0  0  0  0  0  0  0  0  0
  140.3450   72.3410  222.5250 C   0  0  0  0  0  0  0  0  0  0  0  0
  141.2290   72.0750  221.6450 O   0  0  0  0  0  0  0  0  0  0  0  0
  140.2030   71.5010  223.7200 C   0  0  0  0  0  0  0  0  0  0  0  0
  139.5590   70.2820  223.5870 C   0  0  0  0  0  0  0  0  0  0  0  0
  139.3720   69.4180  224.6440 C   0  0  0  0  0  0  0  0  0  0  0  0
  139.8480   69.7950  225.8720 C   0  0  0  0  0  0  0  0  0  0  0  0
  139.7360   69.0430  227.0050 C   0  0  0  0  0  0  0  0  0  0  0  0
  140.2120   69.4140  228.2430 C   0  0  0  0  0  0  0  0  0  0  0  0
  140.8540   70.6480  228.3360 C   0  0  0  0  0  0  0  0  0  0  0  0
  140.9850   71.4410  227.1900 C   0  0  0  0  0  0  0  0  0  0  0  0
  140.4910   71.0230  225.9770 C   0  0  0  0  0  0  0  0  0  0  0  0
  140.6570   71.8440  224.9230 N   0  0  0  0  0  0  0  0  0  0  0  0
  139.5320   79.6470  223.2620 C   0  0  0  0  0  0  0  0  0  0  0  0
  140.5870   80.4740  223.5280 C   0  0  0  0  0  0  0  0  0  0  0  0
  143.8900   80.6190  223.4220 H   0  0  0  0  0  0  0  0  0  0  0  0
  142.8860   81.6950  224.4420 H   0  0  0  0  0  0  0  0  0  0  0  0
  143.0617   78.1847  223.3506 H   0  0  0  0  0  0  0  0  0  0  0  0
  141.1220   76.7107  222.8659 H   0  0  0  0  0  0  0  0  0  0  0  0
  137.8190   77.5480  223.6388 H   0  0  0  0  0  0  0  0  0  0  0  0
  137.9834   77.9420  221.8654 H   0  0  0  0  0  0  0  0  0  0  0  0
  138.3630   75.3640  223.1030 H   0  0  0  0  0  0  0  0  0  0  0  0
  139.0144   73.8890  220.3453 H   0  0  0  0  0  0  0  0  0  0  0  0
  140.7593   74.1068  220.8154 H   0  0  0  0  0  0  0  0  0  0  0  0
  138.7680   73.7010  223.0360 H   0  0  0  0  0  0  0  0  0  0  0  0
  139.1809   69.9913  222.5958 H   0  0  0  0  0  0  0  0  0  0  0  0
  138.8568   68.4560  224.5061 H   0  0  0  0  0  0  0  0  0  0  0  0
  139.2289   68.0702  226.9238 H   0  0  0  0  0  0  0  0  0  0  0  0
  140.0907   68.7637  229.1218 H   0  0  0  0  0  0  0  0  0  0  0  0
  141.2536   70.9950  229.3003 H   0  0  0  0  0  0  0  0  0  0  0  0
  141.4916   72.4148  227.2611 H   0  0  0  0  0  0  0  0  0  0  0  0
  138.5192   80.0756  223.2389 H   0  0  0  0  0  0  0  0  0  0  0  0
  140.4109   81.5437  223.7141 H   0  0  0  0  0  0  0  0  0  0  0  0
  1  2  1  0
  2  3  2  0
  3  4  1  0
  4  5  2  0
  5  6  1  0
  6  7  1  0
  7  8  1  0
  8  9  2  0
  8 10  1  0
 10 11  1  0
 11 12  1  0
 12 13  2  0
 12 14  1  0
 14 15  2  0
 15 16  1  0
 16 17  2  0
 17 18  1  0
 18 19  2  0
 19 20  1  0
 20 21  2  0
 21 22  1  0
 22 23  2  0
  5 24  1  0
 24 25  2  0
 25  2  1  0
 23 14  1  0
 22 17  1  0
  1 26  1  0
  1 27  1  0
  3 28  1  0
  4 29  1  0
  6 30  1  0
  6 31  1  0
  7 32  1  0
 10 33  1  0
 10 34  1  0
 11 35  1  0
 15 36  1  0
 16 37  1  0
 18 38  1  0
 19 39  1  0
 20 40  1  0
 21 41  1  0
 24 42  1  0
 25 43  1  0
M  END
>  <smiles>  (48) 
Nc1ccc(CNC(=O)CNC(=O)c2ccc3ccccc3n2)cc1

>  <score_type>  (48) 
oracle

>  <origin>  (48) 
autodockgpu

>  <m_score__min__energy>  (48) 
-8.3100000000000005

>  <m_primary>  (48) 
energy

>  <rmsd>  (48) 
3.1394615067569815

>  <m_score__min__rmsd>  (48) 
3.1394615067569815

>  <meeko>  (48) 
{"free_energy": -8.08, "intermolecular_energy": -9.87, "internal_energy": -0.73, "cluster_size": 28, "cluster_id": 1, "rank_in_cluster": 5}

>  <energy>  (48) 
-7.09

>  <cluster_rmsd>  (48) 
0.0

>  <cluster>  (48) 
5

$$$$

     RDKit          3D

 43 45  0  0  0  0  0  0  0  0999 V2000
  143.4250   80.3680  222.9610 N   0  0  0  0  0  0  0  0  0  0  0  0
  142.2390   79.5970  222.8120 C   0  0  0  0  0  0  0  0  0  0  0  0
  142.0850   78.6670  221.7820 C   0  0  0  0  0  0  0  0  0  0  0  0
  140.9090   77.9240  221.6610 C   0  0  0  0  0  0  0  0  0  0  0  0
  139.8810   78.0930  222.5520 C   0  0  0  0  0  0  0  0  0  0  0  0
  138.6020   77.3580  222.5190 C   0  0  0  0  0  0  0  0  0  0  0  0
  138.7720   75.9280  222.3440 N   0  0  0  0  0  0  0  0  0  0  0  0
  138.9760   75.3080  221.0860 C   0  0  0  0  0  0  0  0  0  0  0  0
  139.0260   75.9510  220.0060 O   0  0  0  0  0  0  0  0  0  0  0  0
  139.1390   73.8470  221.0280 C   0  0  0  0  0  0  0  0  0  0  0  0
  139.3690   73.2590  222.3320 N   0  0  0  0  0  0  0  0  0  0  0  0
  139.4350   71.8370  222.3980 C   0  0  0  0  0  0  0  0  0  0  0  0
  139.2880   71.1670  221.3220 O   0  0  0  0  0  0  0  0  0  0  0  0
  139.6670   71.1570  223.6760 C   0  0  0  0  0  0  0  0  0  0  0  0
  139.3630   69.8080  223.7620 C   0  0  0  0  0  0  0  0  0  0  0  0
  139.5420   69.0740  224.9140 C   0  0  0  0  0  0  0  0  0  0  0  0
  140.0420   69.7190  226.0140 C   0  0  0  0  0  0  0  0  0  0  0  0
  140.2720   69.1230  227.2190 C   0  0  0  0  0  0  0  0  0  0  0  0
  140.7740   69.7640  228.3300 C   0  0  0  0  0  0  0  0  0  0  0  0
  141.0670   71.1210  228.2040 C   0  0  0  0  0  0  0  0  0  0  0  0
  140.8430   71.7610  226.9800 C   0  0  0  0  0  0  0  0  0  0  0  0
  140.3390   71.0730  225.9010 C   0  0  0  0  0  0  0  0  0  0  0  0
  140.1520   71.7610  224.7590 N   0  0  0  0  0  0  0  0  0  0  0  0
  140.0600   79.0230  223.5650 C   0  0  0  0  0  0  0  0  0  0  0  0
  141.2030   79.7580  223.7000 C   0  0  0  0  0  0  0  0  0  0  0  0
  144.2450   80.1390  222.3510 H   0  0  0  0  0  0  0  0  0  0  0  0
  143.5290   81.1510  223.6430 H   0  0  0  0  0  0  0  0  0  0  0  0
  142.8993   78.5180  221.0577 H   0  0  0  0  0  0  0  0  0  0  0  0
  140.8064   77.1960  220.8428 H   0  0  0  0  0  0  0  0  0  0  0  0
  138.0724   77.5342  223.4669 H   0  0  0  0  0  0  0  0  0  0  0  0
  138.0326   77.7290  221.6540 H   0  0  0  0  0  0  0  0  0  0  0  0
  138.7420   75.3020  223.2040 H   0  0  0  0  0  0  0  0  0  0  0  0
  138.2261   73.4076  220.5996 H   0  0  0  0  0  0  0  0  0  0  0  0
  140.0219   73.6351  220.4070 H   0  0  0  0  0  0  0  0  0  0  0  0
  139.4850   73.8230  223.2050 H   0  0  0  0  0  0  0  0  0  0  0  0
  138.9614   69.3012  222.8721 H   0  0  0  0  0  0  0  0  0  0  0  0
  139.2913   68.0035  224.9493 H   0  0  0  0  0  0  0  0  0  0  0  0
  140.0395   68.0517  227.3103 H   0  0  0  0  0  0  0  0  0  0  0  0
  140.9368   69.2278  229.2766 H   0  0  0  0  0  0  0  0  0  0  0  0
  141.4706   71.6835  229.0588 H   0  0  0  0  0  0  0  0  0  0  0  0
  141.0738   72.8318  226.8791 H   0  0  0  0  0  0  0  0  0  0  0  0
  139.2471   79.1750  224.2903 H   0  0  0  0  0  0  0  0  0  0  0  0
  141.2946   80.4820  224.5231 H   0  0  0  0  0  0  0  0  0  0  0  0
  1  2  1  0
  2  3  2  0
  3  4  1  0
  4  5  2  0
  5  6  1  0
  6  7  1  0
  7  8  1  0
  8  9  2  0
  8 10  1  0
 10 11  1  0
 11 12  1  0
 12 13  2  0
 12 14  1  0
 14 15  2  0
 15 16  1  0
 16 17  2  0
 17 18  1  0
 18 19  2  0
 19 20  1  0
 20 21  2  0
 21 22  1  0
 22 23  2  0
  5 24  1  0
 24 25  2  0
 25  2  1  0
 23 14  1  0
 22 17  1  0
  1 26  1  0
  1 27  1  0
  3 28  1  0
  4 29  1  0
  6 30  1  0
  6 31  1  0
  7 32  1  0
 10 33  1  0
 10 34  1  0
 11 35  1  0
 15 36  1  0
 16 37  1  0
 18 38  1  0
 19 39  1  0
 20 40  1  0
 21 41  1  0
 24 42  1  0
 25 43  1  0
M  END
>  <smiles>  (49) 
Nc1ccc(CNC(=O)CNC(=O)c2ccc3ccccc3n2)cc1

>  <score_type>  (49) 
oracle

>  <origin>  (49) 
autodockgpu

>  <m_score__min__energy>  (49) 
-8.3100000000000005

>  <m_primary>  (49) 
energy

>  <rmsd>  (49) 
2.7235984115307224

>  <m_score__min__rmsd>  (49) 
2.7235984115307224

>  <meeko>  (49) 
{"free_energy": -8.18, "intermolecular_energy": -9.97, "internal_energy": -0.9, "cluster_size": 28, "cluster_id": 1, "rank_in_cluster": 3}

>  <energy>  (49) 
-7.03

>  <cluster_rmsd>  (49) 
0.79

>  <cluster>  (49) 
5

$$$$

     RDKit          3D

 43 45  0  0  0  0  0  0  0  0999 V2000
  142.4860   80.0550  222.4590 N   0  0  0  0  0  0  0  0  0  0  0  0
  141.3560   79.1950  222.5470 C   0  0  0  0  0  0  0  0  0  0  0  0
  140.1350   79.6280  223.0670 C   0  0  0  0  0  0  0  0  0  0  0  0
  139.0430   78.7610  223.1420 C   0  0  0  0  0  0  0  0  0  0  0  0
  139.1470   77.4660  222.7040 C   0  0  0  0  0  0  0  0  0  0  0  0
  138.0570   76.4720  222.7310 C   0  0  0  0  0  0  0  0  0  0  0  0
  138.4750   75.1580  222.2810 N   0  0  0  0  0  0  0  0  0  0  0  0
  138.1250   74.6100  221.0210 C   0  0  0  0  0  0  0  0  0  0  0  0
  137.4150   75.2220  220.1820 O   0  0  0  0  0  0  0  0  0  0  0  0
  138.6080   73.2660  220.6680 C   0  0  0  0  0  0  0  0  0  0  0  0
  138.6030   72.3580  221.7960 N   0  0  0  0  0  0  0  0  0  0  0  0
  139.7330   72.3970  222.6630 C   0  0  0  0  0  0  0  0  0  0  0  0
  140.6760   73.2160  222.4030 O   0  0  0  0  0  0  0  0  0  0  0  0
  139.8120   71.5140  223.8320 C   0  0  0  0  0  0  0  0  0  0  0  0
  139.2730   70.2420  223.7270 C   0  0  0  0  0  0  0  0  0  0  0  0
  139.2930   69.3340  224.7630 C   0  0  0  0  0  0  0  0  0  0  0  0
  139.8730   69.7210  225.9420 C   0  0  0  0  0  0  0  0  0  0  0  0
  139.9660   68.9310  227.0510 C   0  0  0  0  0  0  0  0  0  0  0  0
  140.5490   69.3110  228.2390 C   0  0  0  0  0  0  0  0  0  0  0  0
  141.0790   70.5980  228.3060 C   0  0  0  0  0  0  0  0  0  0  0  0
  141.0000   71.4320  227.1850 C   0  0  0  0  0  0  0  0  0  0  0  0
  140.4070   71.0030  226.0210 C   0  0  0  0  0  0  0  0  0  0  0  0
  140.3700   71.8650  224.9890 N   0  0  0  0  0  0  0  0  0  0  0  0
  140.3710   77.0610  222.1920 C   0  0  0  0  0  0  0  0  0  0  0  0
  141.4500   77.8950  222.1110 C   0  0  0  0  0  0  0  0  0  0  0  0
  143.3400   79.7010  221.9670 H   0  0  0  0  0  0  0  0  0  0  0  0
  142.5160   81.0200  222.8550 H   0  0  0  0  0  0  0  0  0  0  0  0
  140.0319   80.6641  223.4218 H   0  0  0  0  0  0  0  0  0  0  0  0
  138.0897   79.1206  223.5567 H   0  0  0  0  0  0  0  0  0  0  0  0
  137.6859   76.3871  223.7630 H   0  0  0  0  0  0  0  0  0  0  0  0
  137.2758   76.8225  222.0404 H   0  0  0  0  0  0  0  0  0  0  0  0
  139.0780   74.5660  222.9270 H   0  0  0  0  0  0  0  0  0  0  0  0
  137.9591   72.8539  219.8812 H   0  0  0  0  0  0  0  0  0  0  0  0
  139.6485   73.3655  220.3252 H   0  0  0  0  0  0  0  0  0  0  0  0
  137.8220   71.6900  221.9960 H   0  0  0  0  0  0  0  0  0  0  0  0
  138.8090   69.9441  222.7752 H   0  0  0  0  0  0  0  0  0  0  0  0
  138.8573   68.3307  224.6471 H   0  0  0  0  0  0  0  0  0  0  0  0
  139.5445   67.9167  226.9913 H   0  0  0  0  0  0  0  0  0  0  0  0
  140.5945   68.6271  229.0994 H   0  0  0  0  0  0  0  0  0  0  0  0
  141.5549   70.9550  229.2312 H   0  0  0  0  0  0  0  0  0  0  0  0
  141.4193   72.4477  227.2359 H   0  0  0  0  0  0  0  0  0  0  0  0
  140.4772   76.0254  221.8365 H   0  0  0  0  0  0  0  0  0  0  0  0
  142.3984   77.5243  221.6949 H   0  0  0  0  0  0  0  0  0  0  0  0
  1  2  1  0
  2  3  2  0
  3  4  1  0
  4  5  2  0
  5  6  1  0
  6  7  1  0
  7  8  1  0
  8  9  2  0
  8 10  1  0
 10 11  1  0
 11 12  1  0
 12 13  2  0
 12 14  1  0
 14 15  2  0
 15 16  1  0
 16 17  2  0
 17 18  1  0
 18 19  2  0
 19 20  1  0
 20 21  2  0
 21 22  1  0
 22 23  2  0
  5 24  1  0
 24 25  2  0
 25  2  1  0
 23 14  1  0
 22 17  1  0
  1 26  1  0
  1 27  1  0
  3 28  1  0
  4 29  1  0
  6 30  1  0
  6 31  1  0
  7 32  1  0
 10 33  1  0
 10 34  1  0
 11 35  1  0
 15 36  1  0
 16 37  1  0
 18 38  1  0
 19 39  1  0
 20 40  1  0
 21 41  1  0
 24 42  1  0
 25 43  1  0
M  END
>  <smiles>  (50) 
Nc1ccc(CNC(=O)CNC(=O)c2ccc3ccccc3n2)cc1

>  <score_type>  (50) 
oracle

>  <origin>  (50) 
autodockgpu

>  <m_score__min__energy>  (50) 
-8.3100000000000005

>  <m_primary>  (50) 
energy

>  <rmsd>  (50) 
2.9714875940044463

>  <m_score__min__rmsd>  (50) 
2.9714875940044463

>  <meeko>  (50) 
{"free_energy": -7.91, "intermolecular_energy": -9.7, "internal_energy": -1.52, "cluster_size": 28, "cluster_id": 1, "rank_in_cluster": 11}

>  <energy>  (50) 
-6.93

>  <cluster_rmsd>  (50) 
0.96

>  <cluster>  (50) 
5

$$$$
