
     RDKit          3D

 63 66  0  0  0  0  0  0  0  0999 V2000
  138.1200   80.4910  224.1780 C   0  0  0  0  0  0  0  0  0  0  0  0
  137.8820   79.9650  222.7750 C   0  0  0  0  0  0  0  0  0  0  0  0
  138.1840   78.5000  222.7320 C   0  0  0  0  0  0  0  0  0  0  0  0
  137.2830   77.7260  223.0860 O   0  0  0  0  0  0  0  0  0  0  0  0
  139.4790   78.0790  222.2900 N   0  0  0  0  0  0  0  0  0  0  0  0
  140.6310   78.8910  222.5640 C   0  0  0  0  0  0  0  0  0  0  0  0
  141.1910   79.6040  221.5150 C   0  0  0  0  0  0  0  0  0  0  0  0
  142.3010   80.4120  221.6930 C   0  0  0  0  0  0  0  0  0  0  0  0
  142.8610   80.5010  222.9750 C   0  0  0  0  0  0  0  0  0  0  0  0
  142.3010   79.7880  224.0260 C   0  0  0  0  0  0  0  0  0  0  0  0
  141.1790   78.9740  223.8320 C   0  0  0  0  0  0  0  0  0  0  0  0
  139.6920   76.8530  221.5650 C   0  0  0  0  0  0  0  0  0  0  0  0
  138.6930   75.7900  221.9240 C   0  0  0  0  0  0  0  0  0  0  0  0
  139.0150   74.4640  221.2720 C   0  0  0  0  0  0  0  0  0  0  0  0
  140.4060   74.1290  221.2690 N   0  0  0  0  0  0  0  0  0  0  0  0
  140.9310   72.8320  221.5110 C   0  0  0  0  0  0  0  0  0  0  0  0
  142.1890   72.6020  221.5130 O   0  0  0  0  0  0  0  0  0  0  0  0
  140.0740   71.6460  221.7780 C   0  0  2  0  0  0  0  0  0  0  0  0
  139.1880   71.3920  220.6360 N   0  0  0  0  0  0  0  0  0  0  0  0
  139.1310   71.9150  222.9450 C   0  0  0  0  0  0  0  0  0  0  0  0
  139.4780   71.0030  224.0930 C   0  0  0  0  0  0  0  0  0  0  0  0
  139.1310   69.6700  224.0020 C   0  0  0  0  0  0  0  0  0  0  0  0
  139.3990   68.7460  224.9880 C   0  0  0  0  0  0  0  0  0  0  0  0
  140.0510   69.2110  226.1180 C   0  0  0  0  0  0  0  0  0  0  0  0
  140.3150   68.2770  227.1020 C   0  0  0  0  0  0  0  0  0  0  0  0
  140.9660   68.6750  228.2600 C   0  0  0  0  0  0  0  0  0  0  0  0
  141.2310   67.7560  229.2440 F   0  0  0  0  0  0  0  0  0  0  0  0
  141.3230   69.9980  228.3750 C   0  0  0  0  0  0  0  0  0  0  0  0
  141.0610   70.9390  227.3910 C   0  0  0  0  0  0  0  0  0  0  0  0
  140.4090   70.5380  226.2340 C   0  0  0  0  0  0  0  0  0  0  0  0
  140.1250   71.4510  225.2180 C   0  0  0  0  0  0  0  0  0  0  0  0
  141.3610   75.1900  220.9960 C   0  0  0  0  0  0  0  0  0  0  0  0
  141.0680   76.3280  221.9310 C   0  0  0  0  0  0  0  0  0  0  0  0
  137.7822   79.7443  224.9117 H   0  0  0  0  0  0  0  0  0  0  0  0
  139.1935   80.6848  224.3197 H   0  0  0  0  0  0  0  0  0  0  0  0
  137.5569   81.4253  224.3197 H   0  0  0  0  0  0  0  0  0  0  0  0
  136.8313   80.1309  222.4948 H   0  0  0  0  0  0  0  0  0  0  0  0
  138.5385   80.4949  222.0692 H   0  0  0  0  0  0  0  0  0  0  0  0
  140.7412   79.5255  220.5143 H   0  0  0  0  0  0  0  0  0  0  0  0
  142.7328   80.9703  220.8493 H   0  0  0  0  0  0  0  0  0  0  0  0
  143.7431   81.1351  223.1479 H   0  0  0  0  0  0  0  0  0  0  0  0
  142.7467   79.8640  225.0288 H   0  0  0  0  0  0  0  0  0  0  0  0
  140.7418   78.4118  224.6703 H   0  0  0  0  0  0  0  0  0  0  0  0
  139.5897   77.0736  220.4922 H   0  0  0  0  0  0  0  0  0  0  0  0
  138.6927   75.6576  223.0160 H   0  0  0  0  0  0  0  0  0  0  0  0
  137.7067   76.1154  221.5614 H   0  0  0  0  0  0  0  0  0  0  0  0
  138.4721   73.6743  221.8121 H   0  0  0  0  0  0  0  0  0  0  0  0
  138.7106   74.5502  220.2185 H   0  0  0  0  0  0  0  0  0  0  0  0
  140.7531   70.8045  221.9799 H   0  0  0  0  0  0  0  0  0  0  0  0
  139.2820   72.1100  219.8950 H   0  0  0  0  0  0  0  0  0  0  0  0
  138.2270   71.1890  220.9380 H   0  0  0  0  0  0  0  0  0  0  0  0
  139.2335   72.9624  223.2651 H   0  0  0  0  0  0  0  0  0  0  0  0
  138.0942   71.7275  222.6288 H   0  0  0  0  0  0  0  0  0  0  0  0
  138.6130   69.3274  223.0941 H   0  0  0  0  0  0  0  0  0  0  0  0
  139.1092   67.6901  224.8829 H   0  0  0  0  0  0  0  0  0  0  0  0
  140.0117   67.2282  226.9679 H   0  0  0  0  0  0  0  0  0  0  0  0
  141.8400   70.3246  229.2893 H   0  0  0  0  0  0  0  0  0  0  0  0
  141.3655   71.9874  227.5257 H   0  0  0  0  0  0  0  0  0  0  0  0
  140.4135   72.5079  225.3163 H   0  0  0  0  0  0  0  0  0  0  0  0
  142.3846   74.8234  221.1630 H   0  0  0  0  0  0  0  0  0  0  0  0
  141.2759   75.5219  219.9507 H   0  0  0  0  0  0  0  0  0  0  0  0
  141.0734   75.9736  222.9723 H   0  0  0  0  0  0  0  0  0  0  0  0
  141.8284   77.1179  221.8419 H   0  0  0  0  0  0  0  0  0  0  0  0
  1  2  1  0
  2  3  1  0
  3  4  2  0
  3  5  1  0
  5  6  1  0
  6  7  2  0
  7  8  1  0
  8  9  2  0
  9 10  1  0
 10 11  2  0
  5 12  1  0
 12 13  1  0
 13 14  1  0
 14 15  1  0
 15 16  1  0
 16 17  2  0
 16 18  1  0
 18 19  1  0
 18 20  1  0
 20 21  1  0
 21 22  2  0
 22 23  1  0
 23 24  2  0
 24 25  1  0
 25 26  2  0
 26 27  1  0
 26 28  1  0
 28 29  2  0
 29 30  1  0
 30 31  2  0
 15 32  1  0
 32 33  1  0
 11  6  1  0
 33 12  1  0
 31 21  1  0
 30 24  1  0
  1 34  1  0
  1 35  1  0
  1 36  1  0
  2 37  1  0
  2 38  1  0
  7 39  1  0
  8 40  1  0
  9 41  1  0
 10 42  1  0
 11 43  1  0
 12 44  1  0
 13 45  1  0
 13 46  1  0
 14 47  1  0
 14 48  1  0
 18 49  1  1
 19 50  1  0
 19 51  1  0
 20 52  1  0
 20 53  1  0
 22 54  1  0
 23 55  1  0
 25 56  1  0
 28 57  1  0
 29 58  1  0
 31 59  1  0
 32 60  1  0
 32 61  1  0
 33 62  1  0
 33 63  1  0
M  END
>  <smiles>  (1) 
CCC(=O)N(c1ccccc1)C1CCN(C(=O)[C@H](N)Cc2ccc3cc(F)ccc3c2)CC1

>  <score_type>  (1) 
oracle

>  <origin>  (1) 
autodockgpu

>  <m_score__min__energy>  (1) 
-8.7699999999999996

>  <m_primary>  (1) 
energy

>  <rmsd>  (1) 
6.418583748211642

>  <m_score__min__rmsd>  (1) 
6.418583748211642

>  <meeko>  (1) 
{"free_energy": -8.77, "intermolecular_energy": -11.16, "internal_energy": -1.43, "cluster_size": 26, "cluster_id": 1, "rank_in_cluster": 1}

>  <energy>  (1) 
-8.77

>  <cluster_rmsd>  (1) 
0.0

>  <cluster>  (1) 
1

$$$$

     RDKit          3D

 63 66  0  0  0  0  0  0  0  0999 V2000
  142.5640   78.0920  218.2540 C   0  0  0  0  0  0  0  0  0  0  0  0
  142.1030   79.2490  219.1210 C   0  0  0  0  0  0  0  0  0  0  0  0
  140.9200   78.8260  219.9340 C   0  0  0  0  0  0  0  0  0  0  0  0
  139.8170   78.8210  219.3680 O   0  0  0  0  0  0  0  0  0  0  0  0
  141.1240   78.4550  221.3020 N   0  0  0  0  0  0  0  0  0  0  0  0
  141.5720   79.4340  222.2520 C   0  0  0  0  0  0  0  0  0  0  0  0
  140.6240   80.2690  222.8220 C   0  0  0  0  0  0  0  0  0  0  0  0
  140.9690   81.2400  223.7480 C   0  0  0  0  0  0  0  0  0  0  0  0
  142.3180   81.3660  224.1080 C   0  0  0  0  0  0  0  0  0  0  0  0
  143.2680   80.5290  223.5390 C   0  0  0  0  0  0  0  0  0  0  0  0
  142.9050   79.5530  222.6030 C   0  0  0  0  0  0  0  0  0  0  0  0
  140.9000   77.1170  221.7860 C   0  0  0  0  0  0  0  0  0  0  0  0
  141.3500   76.0680  220.8100 C   0  0  0  0  0  0  0  0  0  0  0  0
  140.9740   74.6740  221.2610 C   0  0  0  0  0  0  0  0  0  0  0  0
  139.6650   74.5700  221.8300 N   0  0  0  0  0  0  0  0  0  0  0  0
  138.7630   73.4970  221.6020 C   0  0  0  0  0  0  0  0  0  0  0  0
  137.5960   73.4730  222.1280 O   0  0  0  0  0  0  0  0  0  0  0  0
  139.0920   72.3260  220.7470 C   0  0  2  0  0  0  0  0  0  0  0  0
  138.0490   71.3010  220.8650 N   0  0  0  0  0  0  0  0  0  0  0  0
  140.3630   71.6410  221.2360 C   0  0  0  0  0  0  0  0  0  0  0  0
  140.1580   71.1490  222.6450 C   0  0  0  0  0  0  0  0  0  0  0  0
  139.4020   70.0110  222.8400 C   0  0  0  0  0  0  0  0  0  0  0  0
  139.1500   69.4700  224.0810 C   0  0  0  0  0  0  0  0  0  0  0  0
  139.6970   70.1270  225.1710 C   0  0  0  0  0  0  0  0  0  0  0  0
  139.4380   69.5770  226.4120 C   0  0  0  0  0  0  0  0  0  0  0  0
  139.9550   70.1840  227.5460 C   0  0  0  0  0  0  0  0  0  0  0  0
  139.7030   69.6470  228.7840 F   0  0  0  0  0  0  0  0  0  0  0  0
  140.7120   71.3200  227.3790 C   0  0  0  0  0  0  0  0  0  0  0  0
  140.9750   71.8760  226.1370 C   0  0  0  0  0  0  0  0  0  0  0  0
  140.4560   71.2660  225.0030 C   0  0  0  0  0  0  0  0  0  0  0  0
  140.6940   71.7900  223.7340 C   0  0  0  0  0  0  0  0  0  0  0  0
  139.2190   75.6360  222.7100 C   0  0  0  0  0  0  0  0  0  0  0  0
  139.4060   76.9400  221.9900 C   0  0  0  0  0  0  0  0  0  0  0  0
  142.8947   77.2620  218.8957 H   0  0  0  0  0  0  0  0  0  0  0  0
  141.7314   77.7552  217.6189 H   0  0  0  0  0  0  0  0  0  0  0  0
  143.4001   78.4201  217.6189 H   0  0  0  0  0  0  0  0  0  0  0  0
  142.9198   79.5513  219.7928 H   0  0  0  0  0  0  0  0  0  0  0  0
  141.8213   80.0970  218.4795 H   0  0  0  0  0  0  0  0  0  0  0  0
  139.5690   80.1577  222.5313 H   0  0  0  0  0  0  0  0  0  0  0  0
  140.2039   81.8954  224.1895 H   0  0  0  0  0  0  0  0  0  0  0  0
  142.6234   82.1275  224.8407 H   0  0  0  0  0  0  0  0  0  0  0  0
  144.3240   80.6343  223.8284 H   0  0  0  0  0  0  0  0  0  0  0  0
  143.6641   78.8943  222.1559 H   0  0  0  0  0  0  0  0  0  0  0  0
  141.4767   76.9928  222.7145 H   0  0  0  0  0  0  0  0  0  0  0  0
  140.8794   76.2647  219.8354 H   0  0  0  0  0  0  0  0  0  0  0  0
  142.4467   76.1177  220.7403 H   0  0  0  0  0  0  0  0  0  0  0  0
  141.0244   74.0050  220.3893 H   0  0  0  0  0  0  0  0  0  0  0  0
  141.6842   74.3984  222.0545 H   0  0  0  0  0  0  0  0  0  0  0  0
  139.1956   72.7052  219.7196 H   0  0  0  0  0  0  0  0  0  0  0  0
  137.4290   71.2680  220.0350 H   0  0  0  0  0  0  0  0  0  0  0  0
  137.5710   71.3480  221.7740 H   0  0  0  0  0  0  0  0  0  0  0  0
  140.5959   70.7890  220.5803 H   0  0  0  0  0  0  0  0  0  0  0  0
  141.1970   72.3580  221.2157 H   0  0  0  0  0  0  0  0  0  0  0  0
  138.9783   69.5096  221.9574 H   0  0  0  0  0  0  0  0  0  0  0  0
  138.5436   68.5601  224.2010 H   0  0  0  0  0  0  0  0  0  0  0  0
  138.8274   68.6662  226.4992 H   0  0  0  0  0  0  0  0  0  0  0  0
  141.1277   71.8097  228.2720 H   0  0  0  0  0  0  0  0  0  0  0  0
  141.5857   72.7868  226.0510 H   0  0  0  0  0  0  0  0  0  0  0  0
  141.2996   72.6995  223.6074 H   0  0  0  0  0  0  0  0  0  0  0  0
  138.1566   75.4955  222.9581 H   0  0  0  0  0  0  0  0  0  0  0  0
  139.7994   75.6285  223.6444 H   0  0  0  0  0  0  0  0  0  0  0  0
  138.8915   76.9133  221.0181 H   0  0  0  0  0  0  0  0  0  0  0  0
  138.9847   77.7750  222.5690 H   0  0  0  0  0  0  0  0  0  0  0  0
  1  2  1  0
  2  3  1  0
  3  4  2  0
  3  5  1  0
  5  6  1  0
  6  7  2  0
  7  8  1  0
  8  9  2  0
  9 10  1  0
 10 11  2  0
  5 12  1  0
 12 13  1  0
 13 14  1  0
 14 15  1  0
 15 16  1  0
 16 17  2  0
 16 18  1  0
 18 19  1  0
 18 20  1  0
 20 21  1  0
 21 22  2  0
 22 23  1  0
 23 24  2  0
 24 25  1  0
 25 26  2  0
 26 27  1  0
 26 28  1  0
 28 29  2  0
 29 30  1  0
 30 31  2  0
 15 32  1  0
 32 33  1  0
 11  6  1  0
 33 12  1  0
 31 21  1  0
 30 24  1  0
  1 34  1  0
  1 35  1  0
  1 36  1  0
  2 37  1  0
  2 38  1  0
  7 39  1  0
  8 40  1  0
  9 41  1  0
 10 42  1  0
 11 43  1  0
 12 44  1  0
 13 45  1  0
 13 46  1  0
 14 47  1  0
 14 48  1  0
 18 49  1  6
 19 50  1  0
 19 51  1  0
 20 52  1  0
 20 53  1  0
 22 54  1  0
 23 55  1  0
 25 56  1  0
 28 57  1  0
 29 58  1  0
 31 59  1  0
 32 60  1  0
 32 61  1  0
 33 62  1  0
 33 63  1  0
M  END
>  <smiles>  (2) 
CCC(=O)N(c1ccccc1)C1CCN(C(=O)[C@H](N)Cc2ccc3cc(F)ccc3c2)CC1

>  <score_type>  (2) 
oracle

>  <origin>  (2) 
autodockgpu

>  <m_score__min__energy>  (2) 
-8.7699999999999996

>  <m_primary>  (2) 
energy

>  <rmsd>  (2) 
5.671147137101313

>  <m_score__min__rmsd>  (2) 
5.671147137101313

>  <meeko>  (2) 
{"free_energy": -7.78, "intermolecular_energy": -10.17, "internal_energy": -2.33, "cluster_size": 26, "cluster_id": 1, "rank_in_cluster": 23}

>  <energy>  (2) 
-8.76

>  <cluster_rmsd>  (2) 
0.21

>  <cluster>  (2) 
1

$$$$

     RDKit          3D

 63 66  0  0  0  0  0  0  0  0999 V2000
  138.0280   80.4970  224.0570 C   0  0  0  0  0  0  0  0  0  0  0  0
  137.8170   79.9000  222.6790 C   0  0  0  0  0  0  0  0  0  0  0  0
  138.1560   78.4430  222.7080 C   0  0  0  0  0  0  0  0  0  0  0  0
  137.2740   77.6630  223.1000 O   0  0  0  0  0  0  0  0  0  0  0  0
  139.4620   78.0330  222.2870 N   0  0  0  0  0  0  0  0  0  0  0  0
  140.6030   78.8530  222.5870 C   0  0  0  0  0  0  0  0  0  0  0  0
  141.1870   79.5600  221.5480 C   0  0  0  0  0  0  0  0  0  0  0  0
  142.2890   80.3750  221.7490 C   0  0  0  0  0  0  0  0  0  0  0  0
  142.8140   80.4750  223.0450 C   0  0  0  0  0  0  0  0  0  0  0  0
  142.2290   79.7670  224.0860 C   0  0  0  0  0  0  0  0  0  0  0  0
  141.1160   78.9470  223.8680 C   0  0  0  0  0  0  0  0  0  0  0  0
  139.6970   76.8130  221.5590 C   0  0  0  0  0  0  0  0  0  0  0  0
  138.6850   75.7480  221.8770 C   0  0  0  0  0  0  0  0  0  0  0  0
  139.0260   74.4270  221.2240 C   0  0  0  0  0  0  0  0  0  0  0  0
  140.4160   74.0900  221.2660 N   0  0  0  0  0  0  0  0  0  0  0  0
  140.9310   72.7900  221.5140 C   0  0  0  0  0  0  0  0  0  0  0  0
  142.1880   72.5570  221.5560 O   0  0  0  0  0  0  0  0  0  0  0  0
  140.0630   71.6040  221.7430 C   0  0  2  0  0  0  0  0  0  0  0  0
  139.2120   71.3640  220.5720 N   0  0  0  0  0  0  0  0  0  0  0  0
  139.0860   71.8630  222.8840 C   0  0  0  0  0  0  0  0  0  0  0  0
  139.4170   70.9610  224.0440 C   0  0  0  0  0  0  0  0  0  0  0  0
  139.0490   69.6330  223.9710 C   0  0  0  0  0  0  0  0  0  0  0  0
  139.3000   68.7190  224.9700 C   0  0  0  0  0  0  0  0  0  0  0  0
  139.9590   69.1890  226.0940 C   0  0  0  0  0  0  0  0  0  0  0  0
  140.2060   68.2640  227.0910 C   0  0  0  0  0  0  0  0  0  0  0  0
  140.8620   68.6670  228.2450 C   0  0  0  0  0  0  0  0  0  0  0  0
  141.1120   67.7570  229.2410 F   0  0  0  0  0  0  0  0  0  0  0  0
  141.2410   69.9850  228.3420 C   0  0  0  0  0  0  0  0  0  0  0  0
  140.9960   70.9170  227.3450 C   0  0  0  0  0  0  0  0  0  0  0  0
  140.3390   70.5110  226.1920 C   0  0  0  0  0  0  0  0  0  0  0  0
  140.0700   71.4140  225.1640 C   0  0  0  0  0  0  0  0  0  0  0  0
  141.3810   75.1520  221.0330 C   0  0  0  0  0  0  0  0  0  0  0  0
  141.0590   76.2820  221.9670 C   0  0  0  0  0  0  0  0  0  0  0  0
  137.7650   79.7528  224.8232 H   0  0  0  0  0  0  0  0  0  0  0  0
  139.0828   80.7863  224.1737 H   0  0  0  0  0  0  0  0  0  0  0  0
  137.3892   81.3849  224.1737 H   0  0  0  0  0  0  0  0  0  0  0  0
  136.7652   80.0257  222.3823 H   0  0  0  0  0  0  0  0  0  0  0  0
  138.4668   80.4127  221.9545 H   0  0  0  0  0  0  0  0  0  0  0  0
  140.7641   79.4717  220.5364 H   0  0  0  0  0  0  0  0  0  0  0  0
  142.7405   80.9295  220.9131 H   0  0  0  0  0  0  0  0  0  0  0  0
  143.6887   81.1139  223.2369 H   0  0  0  0  0  0  0  0  0  0  0  0
  142.6475   79.8520  225.0997 H   0  0  0  0  0  0  0  0  0  0  0  0
  140.6587   78.3888  224.6982 H   0  0  0  0  0  0  0  0  0  0  0  0
  139.6306   77.0429  220.4854 H   0  0  0  0  0  0  0  0  0  0  0  0
  138.6497   75.6062  222.9673 H   0  0  0  0  0  0  0  0  0  0  0  0
  137.7112   76.0781  221.4861 H   0  0  0  0  0  0  0  0  0  0  0  0
  138.4636   73.6335  221.7379 H   0  0  0  0  0  0  0  0  0  0  0  0
  138.7574   74.5226  220.1616 H   0  0  0  0  0  0  0  0  0  0  0  0
  140.7334   70.7586  221.9570 H   0  0  0  0  0  0  0  0  0  0  0  0
  139.7100   71.5310  219.6790 H   0  0  0  0  0  0  0  0  0  0  0  0
  138.2990   71.8270  220.6640 H   0  0  0  0  0  0  0  0  0  0  0  0
  139.1642   72.9130  223.2023 H   0  0  0  0  0  0  0  0  0  0  0  0
  138.0607   71.6585  222.5419 H   0  0  0  0  0  0  0  0  0  0  0  0
  138.5274   69.2861  223.0668 H   0  0  0  0  0  0  0  0  0  0  0  0
  138.9921   67.6668  224.8797 H   0  0  0  0  0  0  0  0  0  0  0  0
  139.8855   67.2186  226.9706 H   0  0  0  0  0  0  0  0  0  0  0  0
  141.7626   70.3154  229.2524 H   0  0  0  0  0  0  0  0  0  0  0  0
  141.3174   71.9620  227.4661 H   0  0  0  0  0  0  0  0  0  0  0  0
  140.3746   72.4676  225.2484 H   0  0  0  0  0  0  0  0  0  0  0  0
  142.3981   74.7825  221.2303 H   0  0  0  0  0  0  0  0  0  0  0  0
  141.3307   75.4926  219.9883 H   0  0  0  0  0  0  0  0  0  0  0  0
  141.0285   75.9186  223.0048 H   0  0  0  0  0  0  0  0  0  0  0  0
  141.8235   77.0709  221.9106 H   0  0  0  0  0  0  0  0  0  0  0  0
  1  2  1  0
  2  3  1  0
  3  4  2  0
  3  5  1  0
  5  6  1  0
  6  7  2  0
  7  8  1  0
  8  9  2  0
  9 10  1  0
 10 11  2  0
  5 12  1  0
 12 13  1  0
 13 14  1  0
 14 15  1  0
 15 16  1  0
 16 17  2  0
 16 18  1  0
 18 19  1  0
 18 20  1  0
 20 21  1  0
 21 22  2  0
 22 23  1  0
 23 24  2  0
 24 25  1  0
 25 26  2  0
 26 27  1  0
 26 28  1  0
 28 29  2  0
 29 30  1  0
 30 31  2  0
 15 32  1  0
 32 33  1  0
 11  6  1  0
 33 12  1  0
 31 21  1  0
 30 24  1  0
  1 34  1  0
  1 35  1  0
  1 36  1  0
  2 37  1  0
  2 38  1  0
  7 39  1  0
  8 40  1  0
  9 41  1  0
 10 42  1  0
 11 43  1  0
 12 44  1  0
 13 45  1  0
 13 46  1  0
 14 47  1  0
 14 48  1  0
 18 49  1  1
 19 50  1  0
 19 51  1  0
 20 52  1  0
 20 53  1  0
 22 54  1  0
 23 55  1  0
 25 56  1  0
 28 57  1  0
 29 58  1  0
 31 59  1  0
 32 60  1  0
 32 61  1  0
 33 62  1  0
 33 63  1  0
M  END
>  <smiles>  (3) 
CCC(=O)N(c1ccccc1)C1CCN(C(=O)[C@H](N)Cc2ccc3cc(F)ccc3c2)CC1

>  <score_type>  (3) 
oracle

>  <origin>  (3) 
autodockgpu

>  <m_score__min__energy>  (3) 
-8.7699999999999996

>  <m_primary>  (3) 
energy

>  <rmsd>  (3) 
6.43669108912491

>  <m_score__min__rmsd>  (3) 
6.43669108912491

>  <meeko>  (3) 
{"free_energy": -8.75, "intermolecular_energy": -11.14, "internal_energy": -1.46, "cluster_size": 26, "cluster_id": 1, "rank_in_cluster": 3}

>  <energy>  (3) 
-8.75

>  <cluster_rmsd>  (3) 
0.19

>  <cluster>  (3) 
1

$$$$

     RDKit          3D

 63 66  0  0  0  0  0  0  0  0999 V2000
  143.4480   76.0250  219.6430 C   0  0  0  0  0  0  0  0  0  0  0  0
  142.6580   77.1790  219.0570 C   0  0  0  0  0  0  0  0  0  0  0  0
  141.2490   77.1270  219.5580 C   0  0  0  0  0  0  0  0  0  0  0  0
  140.3460   77.1130  218.7080 O   0  0  0  0  0  0  0  0  0  0  0  0
  141.0240   77.0990  220.9720 N   0  0  0  0  0  0  0  0  0  0  0  0
  141.4250   78.2120  221.7860 C   0  0  0  0  0  0  0  0  0  0  0  0
  141.4090   78.0510  223.1620 C   0  0  0  0  0  0  0  0  0  0  0  0
  141.7810   79.0730  224.0210 C   0  0  0  0  0  0  0  0  0  0  0  0
  142.1830   80.2950  223.4650 C   0  0  0  0  0  0  0  0  0  0  0  0
  142.2010   80.4570  222.0860 C   0  0  0  0  0  0  0  0  0  0  0  0
  141.8210   79.4160  221.2300 C   0  0  0  0  0  0  0  0  0  0  0  0
  140.4020   75.9830  221.6370 C   0  0  0  0  0  0  0  0  0  0  0  0
  141.1340   74.6920  221.4030 C   0  0  0  0  0  0  0  0  0  0  0  0
  140.3930   73.5060  221.9790 C   0  0  0  0  0  0  0  0  0  0  0  0
  138.9760   73.5420  221.7800 N   0  0  0  0  0  0  0  0  0  0  0  0
  138.1740   72.4190  221.4430 C   0  0  0  0  0  0  0  0  0  0  0  0
  136.9120   72.5210  221.2600 O   0  0  0  0  0  0  0  0  0  0  0  0
  138.7250   71.0480  221.2780 C   0  0  2  0  0  0  0  0  0  0  0  0
  138.5660   70.6010  219.8890 N   0  0  0  0  0  0  0  0  0  0  0  0
  137.9250   70.0430  222.1000 C   0  0  0  0  0  0  0  0  0  0  0  0
  138.6140   69.8110  223.4190 C   0  0  0  0  0  0  0  0  0  0  0  0
  138.6200   68.5340  223.9420 C   0  0  0  0  0  0  0  0  0  0  0  0
  139.2190   68.2050  225.1380 C   0  0  0  0  0  0  0  0  0  0  0  0
  139.8390   69.2330  225.8280 C   0  0  0  0  0  0  0  0  0  0  0  0
  140.4360   68.8940  227.0270 C   0  0  0  0  0  0  0  0  0  0  0  0
  141.0740   69.8750  227.7710 C   0  0  0  0  0  0  0  0  0  0  0  0
  141.6700   69.5490  228.9640 F   0  0  0  0  0  0  0  0  0  0  0  0
  141.0830   71.1560  227.2720 C   0  0  0  0  0  0  0  0  0  0  0  0
  140.4850   71.5020  226.0700 C   0  0  0  0  0  0  0  0  0  0  0  0
  139.8470   70.5180  225.3280 C   0  0  0  0  0  0  0  0  0  0  0  0
  139.2320   70.8210  224.1140 C   0  0  0  0  0  0  0  0  0  0  0  0
  138.2990   74.8180  221.9350 C   0  0  0  0  0  0  0  0  0  0  0  0
  139.0030   75.8240  221.0720 C   0  0  0  0  0  0  0  0  0  0  0  0
  143.4126   76.0767  220.7412 H   0  0  0  0  0  0  0  0  0  0  0  0
  143.0111   75.0732  219.3065 H   0  0  0  0  0  0  0  0  0  0  0  0
  144.4934   76.0879  219.3065 H   0  0  0  0  0  0  0  0  0  0  0  0
  143.1197   78.1303  219.3602 H   0  0  0  0  0  0  0  0  0  0  0  0
  142.6590   77.1031  217.9596 H   0  0  0  0  0  0  0  0  0  0  0  0
  141.0924   77.0858  223.5841 H   0  0  0  0  0  0  0  0  0  0  0  0
  141.7612   78.9287  225.1113 H   0  0  0  0  0  0  0  0  0  0  0  0
  142.4841   81.1254  224.1206 H   0  0  0  0  0  0  0  0  0  0  0  0
  142.5192   81.4194  221.6588 H   0  0  0  0  0  0  0  0  0  0  0  0
  141.8369   79.5523  220.1386 H   0  0  0  0  0  0  0  0  0  0  0  0
  140.4053   76.1896  222.7174 H   0  0  0  0  0  0  0  0  0  0  0  0
  141.2539   74.5434  220.3197 H   0  0  0  0  0  0  0  0  0  0  0  0
  142.1096   74.7594  221.9067 H   0  0  0  0  0  0  0  0  0  0  0  0
  140.7840   72.5930  221.5061 H   0  0  0  0  0  0  0  0  0  0  0  0
  140.5585   73.5296  223.0662 H   0  0  0  0  0  0  0  0  0  0  0  0
  139.7791   71.0915  221.5893 H   0  0  0  0  0  0  0  0  0  0  0  0
  139.4650   70.5850  219.3740 H   0  0  0  0  0  0  0  0  0  0  0  0
  137.7930   71.0880  219.4190 H   0  0  0  0  0  0  0  0  0  0  0  0
  136.9140   70.4378  222.2790 H   0  0  0  0  0  0  0  0  0  0  0  0
  137.8557   69.0926  221.5505 H   0  0  0  0  0  0  0  0  0  0  0  0
  138.1197   67.7362  223.3735 H   0  0  0  0  0  0  0  0  0  0  0  0
  139.2054   67.1758  225.5260 H   0  0  0  0  0  0  0  0  0  0  0  0
  140.4055   67.8554  227.3881 H   0  0  0  0  0  0  0  0  0  0  0  0
  141.5876   71.9422  227.8528 H   0  0  0  0  0  0  0  0  0  0  0  0
  140.5158   72.5409  225.7099 H   0  0  0  0  0  0  0  0  0  0  0  0
  139.2417   71.8484  223.7210 H   0  0  0  0  0  0  0  0  0  0  0  0
  137.2495   74.7246  221.6192 H   0  0  0  0  0  0  0  0  0  0  0  0
  138.3197   75.1363  222.9877 H   0  0  0  0  0  0  0  0  0  0  0  0
  139.0525   75.4638  220.0338 H   0  0  0  0  0  0  0  0  0  0  0  0
  138.4672   76.7847  221.0681 H   0  0  0  0  0  0  0  0  0  0  0  0
  1  2  1  0
  2  3  1  0
  3  4  2  0
  3  5  1  0
  5  6  1  0
  6  7  2  0
  7  8  1  0
  8  9  2  0
  9 10  1  0
 10 11  2  0
  5 12  1  0
 12 13  1  0
 13 14  1  0
 14 15  1  0
 15 16  1  0
 16 17  2  0
 16 18  1  0
 18 19  1  0
 18 20  1  0
 20 21  1  0
 21 22  2  0
 22 23  1  0
 23 24  2  0
 24 25  1  0
 25 26  2  0
 26 27  1  0
 26 28  1  0
 28 29  2  0
 29 30  1  0
 30 31  2  0
 15 32  1  0
 32 33  1  0
 11  6  1  0
 33 12  1  0
 31 21  1  0
 30 24  1  0
  1 34  1  0
  1 35  1  0
  1 36  1  0
  2 37  1  0
  2 38  1  0
  7 39  1  0
  8 40  1  0
  9 41  1  0
 10 42  1  0
 11 43  1  0
 12 44  1  0
 13 45  1  0
 13 46  1  0
 14 47  1  0
 14 48  1  0
 18 49  1  1
 19 50  1  0
 19 51  1  0
 20 52  1  0
 20 53  1  0
 22 54  1  0
 23 55  1  0
 25 56  1  0
 28 57  1  0
 29 58  1  0
 31 59  1  0
 32 60  1  0
 32 61  1  0
 33 62  1  0
 33 63  1  0
M  END
>  <smiles>  (4) 
CCC(=O)N(c1ccccc1)C1CCN(C(=O)[C@H](N)Cc2ccc3cc(F)ccc3c2)CC1

>  <score_type>  (4) 
oracle

>  <origin>  (4) 
autodockgpu

>  <m_score__min__energy>  (4) 
-8.7699999999999996

>  <m_primary>  (4) 
energy

>  <rmsd>  (4) 
7.188160497863972

>  <m_score__min__rmsd>  (4) 
7.188160497863972

>  <meeko>  (4) 
{"free_energy": -7.81, "intermolecular_energy": -10.2, "internal_energy": -2.03, "cluster_size": 26, "cluster_id": 1, "rank_in_cluster": 21}

>  <energy>  (4) 
-8.72

>  <cluster_rmsd>  (4) 
1.06

>  <cluster>  (4) 
1

$$$$

     RDKit          3D

 63 66  0  0  0  0  0  0  0  0999 V2000
  142.5560   80.5300  218.4500 C   0  0  0  0  0  0  0  0  0  0  0  0
  141.5910   79.3650  218.3500 C   0  0  0  0  0  0  0  0  0  0  0  0
  141.9400   78.3350  219.3770 C   0  0  0  0  0  0  0  0  0  0  0  0
  142.9220   77.6150  219.1470 O   0  0  0  0  0  0  0  0  0  0  0  0
  141.1300   78.2380  220.5550 N   0  0  0  0  0  0  0  0  0  0  0  0
  141.3420   79.1440  221.6490 C   0  0  0  0  0  0  0  0  0  0  0  0
  140.2690   79.9090  222.0780 C   0  0  0  0  0  0  0  0  0  0  0  0
  140.3850   80.8060  223.1270 C   0  0  0  0  0  0  0  0  0  0  0  0
  141.6290   80.9310  223.7600 C   0  0  0  0  0  0  0  0  0  0  0  0
  142.7050   80.1650  223.3310 C   0  0  0  0  0  0  0  0  0  0  0  0
  142.5730   79.2620  222.2690 C   0  0  0  0  0  0  0  0  0  0  0  0
  140.0890   77.2540  220.7030 C   0  0  0  0  0  0  0  0  0  0  0  0
  140.2700   76.4040  221.9300 C   0  0  0  0  0  0  0  0  0  0  0  0
  139.2600   75.2810  221.9970 C   0  0  0  0  0  0  0  0  0  0  0  0
  139.0090   74.6370  220.7440 N   0  0  0  0  0  0  0  0  0  0  0  0
  138.8400   73.2380  220.5680 C   0  0  0  0  0  0  0  0  0  0  0  0
  138.6360   72.7220  219.4160 O   0  0  0  0  0  0  0  0  0  0  0  0
  138.8830   72.2670  221.6940 C   0  0  2  0  0  0  0  0  0  0  0  0
  137.9080   72.6410  222.7240 N   0  0  0  0  0  0  0  0  0  0  0  0
  140.2330   72.3230  222.4010 C   0  0  0  0  0  0  0  0  0  0  0  0
  140.1990   71.4370  223.6190 C   0  0  0  0  0  0  0  0  0  0  0  0
  139.6570   70.1740  223.4990 C   0  0  0  0  0  0  0  0  0  0  0  0
  139.5740   69.2790  224.5430 C   0  0  0  0  0  0  0  0  0  0  0  0
  140.0690   69.7020  225.7660 C   0  0  0  0  0  0  0  0  0  0  0  0
  139.9810   68.7980  226.8080 C   0  0  0  0  0  0  0  0  0  0  0  0
  140.4580   69.1560  228.0600 C   0  0  0  0  0  0  0  0  0  0  0  0
  140.3740   68.2670  229.1020 F   0  0  0  0  0  0  0  0  0  0  0  0
  141.0020   70.4100  228.2070 C   0  0  0  0  0  0  0  0  0  0  0  0
  141.0930   71.3200  227.1650 C   0  0  0  0  0  0  0  0  0  0  0  0
  140.6150   70.9590  225.9130 C   0  0  0  0  0  0  0  0  0  0  0  0
  140.6860   71.8430  224.8370 C   0  0  0  0  0  0  0  0  0  0  0  0
  138.9160   75.4700  219.5570 C   0  0  0  0  0  0  0  0  0  0  0  0
  140.1430   76.3320  219.4990 C   0  0  0  0  0  0  0  0  0  0  0  0
  142.7458   80.7591  219.5090 H   0  0  0  0  0  0  0  0  0  0  0  0
  143.5029   80.2652  217.9568 H   0  0  0  0  0  0  0  0  0  0  0  0
  142.1195   81.4110  217.9568 H   0  0  0  0  0  0  0  0  0  0  0  0
  140.5656   79.7230  218.5243 H   0  0  0  0  0  0  0  0  0  0  0  0
  141.6597   78.9187  217.3469 H   0  0  0  0  0  0  0  0  0  0  0  0
  139.2985   79.8009  221.5715 H   0  0  0  0  0  0  0  0  0  0  0  0
  139.5226   81.4050  223.4549 H   0  0  0  0  0  0  0  0  0  0  0  0
  141.7531   81.6352  224.5959 H   0  0  0  0  0  0  0  0  0  0  0  0
  143.6776   80.2694  223.8341 H   0  0  0  0  0  0  0  0  0  0  0  0
  143.4302   78.6591  221.9347 H   0  0  0  0  0  0  0  0  0  0  0  0
  139.1311   77.7877  220.7904 H   0  0  0  0  0  0  0  0  0  0  0  0
  141.2813   75.9714  221.9159 H   0  0  0  0  0  0  0  0  0  0  0  0
  140.1229   77.0453  222.8115 H   0  0  0  0  0  0  0  0  0  0  0  0
  139.6323   74.5250  222.7040 H   0  0  0  0  0  0  0  0  0  0  0  0
  138.3085   75.7326  222.3143 H   0  0  0  0  0  0  0  0  0  0  0  0
  138.6816   71.2746  221.2644 H   0  0  0  0  0  0  0  0  0  0  0  0
  137.7240   73.6600  222.7450 H   0  0  0  0  0  0  0  0  0  0  0  0
  138.1300   72.2120  223.6320 H   0  0  0  0  0  0  0  0  0  0  0  0
  141.0203   71.9749  221.7162 H   0  0  0  0  0  0  0  0  0  0  0  0
  140.4443   73.3584  222.7065 H   0  0  0  0  0  0  0  0  0  0  0  0
  139.2702   69.8649  222.5167 H   0  0  0  0  0  0  0  0  0  0  0  0
  139.1365   68.2783  224.4121 H   0  0  0  0  0  0  0  0  0  0  0  0
  139.5371   67.8047  226.6458 H   0  0  0  0  0  0  0  0  0  0  0  0
  141.3823   70.7047  229.1962 H   0  0  0  0  0  0  0  0  0  0  0  0
  141.5373   72.3130  227.3280 H   0  0  0  0  0  0  0  0  0  0  0  0
  141.1230   72.8448  224.9613 H   0  0  0  0  0  0  0  0  0  0  0  0
  138.8620   74.8364  218.6594 H   0  0  0  0  0  0  0  0  0  0  0  0
  138.0114   76.0946  219.5980 H   0  0  0  0  0  0  0  0  0  0  0  0
  141.0472   75.7069  219.5411 H   0  0  0  0  0  0  0  0  0  0  0  0
  140.1767   76.9078  218.5624 H   0  0  0  0  0  0  0  0  0  0  0  0
  1  2  1  0
  2  3  1  0
  3  4  2  0
  3  5  1  0
  5  6  1  0
  6  7  2  0
  7  8  1  0
  8  9  2  0
  9 10  1  0
 10 11  2  0
  5 12  1  0
 12 13  1  0
 13 14  1  0
 14 15  1  0
 15 16  1  0
 16 17  2  0
 16 18  1  0
 18 19  1  0
 18 20  1  0
 20 21  1  0
 21 22  2  0
 22 23  1  0
 23 24  2  0
 24 25  1  0
 25 26  2  0
 26 27  1  0
 26 28  1  0
 28 29  2  0
 29 30  1  0
 30 31  2  0
 15 32  1  0
 32 33  1  0
 11  6  1  0
 33 12  1  0
 31 21  1  0
 30 24  1  0
  1 34  1  0
  1 35  1  0
  1 36  1  0
  2 37  1  0
  2 38  1  0
  7 39  1  0
  8 40  1  0
  9 41  1  0
 10 42  1  0
 11 43  1  0
 12 44  1  0
 13 45  1  0
 13 46  1  0
 14 47  1  0
 14 48  1  0
 18 49  1  6
 19 50  1  0
 19 51  1  0
 20 52  1  0
 20 53  1  0
 22 54  1  0
 23 55  1  0
 25 56  1  0
 28 57  1  0
 29 58  1  0
 31 59  1  0
 32 60  1  0
 32 61  1  0
 33 62  1  0
 33 63  1  0
M  END
>  <smiles>  (5) 
CCC(=O)N(c1ccccc1)C1CCN(C(=O)[C@H](N)Cc2ccc3cc(F)ccc3c2)CC1

>  <score_type>  (5) 
oracle

>  <origin>  (5) 
autodockgpu

>  <m_score__min__energy>  (5) 
-8.7699999999999996

>  <m_primary>  (5) 
energy

>  <rmsd>  (5) 
6.024747614293064

>  <m_score__min__rmsd>  (5) 
6.024747614293064

>  <meeko>  (5) 
{"free_energy": -8.59, "intermolecular_energy": -10.98, "internal_energy": -1.54, "cluster_size": 20, "cluster_id": 3, "rank_in_cluster": 1}

>  <energy>  (5) 
-8.66

>  <cluster_rmsd>  (5) 
1.12

>  <cluster>  (5) 
1

$$$$

     RDKit          3D

 63 66  0  0  0  0  0  0  0  0999 V2000
  141.4880   81.0570  219.3380 C   0  0  0  0  0  0  0  0  0  0  0  0
  140.6330   79.8060  219.4130 C   0  0  0  0  0  0  0  0  0  0  0  0
  141.4550   78.6690  219.9330 C   0  0  0  0  0  0  0  0  0  0  0  0
  142.1480   78.0490  219.1130 O   0  0  0  0  0  0  0  0  0  0  0  0
  141.3950   78.3620  221.3310 N   0  0  0  0  0  0  0  0  0  0  0  0
  141.6590   79.3860  222.3030 C   0  0  0  0  0  0  0  0  0  0  0  0
  142.9660   79.5550  222.7320 C   0  0  0  0  0  0  0  0  0  0  0  0
  143.3080   80.5200  223.6660 C   0  0  0  0  0  0  0  0  0  0  0  0
  142.2920   81.3370  224.1800 C   0  0  0  0  0  0  0  0  0  0  0  0
  140.9820   81.1690  223.7500 C   0  0  0  0  0  0  0  0  0  0  0  0
  140.6510   80.1890  222.8060 C   0  0  0  0  0  0  0  0  0  0  0  0
  141.0790   77.0470  221.8250 C   0  0  0  0  0  0  0  0  0  0  0  0
  141.4950   75.9590  220.8760 C   0  0  0  0  0  0  0  0  0  0  0  0
  141.0250   74.5960  221.3320 C   0  0  0  0  0  0  0  0  0  0  0  0
  139.6960   74.5760  221.8630 N   0  0  0  0  0  0  0  0  0  0  0  0
  138.7390   73.5550  221.6220 C   0  0  0  0  0  0  0  0  0  0  0  0
  137.5590   73.6060  222.1120 O   0  0  0  0  0  0  0  0  0  0  0  0
  139.0240   72.3550  220.7910 C   0  0  2  0  0  0  0  0  0  0  0  0
  137.9710   71.3500  220.9730 N   0  0  0  0  0  0  0  0  0  0  0  0
  140.3010   71.6650  221.2600 C   0  0  0  0  0  0  0  0  0  0  0  0
  140.1120   71.1610  222.6670 C   0  0  0  0  0  0  0  0  0  0  0  0
  139.3650   70.0170  222.8610 C   0  0  0  0  0  0  0  0  0  0  0  0
  139.1280   69.4660  224.1010 C   0  0  0  0  0  0  0  0  0  0  0  0
  139.6810   70.1180  225.1900 C   0  0  0  0  0  0  0  0  0  0  0  0
  139.4370   69.5580  226.4300 C   0  0  0  0  0  0  0  0  0  0  0  0
  139.9610   70.1610  227.5630 C   0  0  0  0  0  0  0  0  0  0  0  0
  139.7240   69.6130  228.7990 F   0  0  0  0  0  0  0  0  0  0  0  0
  140.7090   71.3020  227.3970 C   0  0  0  0  0  0  0  0  0  0  0  0
  140.9580   71.8680  226.1560 C   0  0  0  0  0  0  0  0  0  0  0  0
  140.4310   71.2630  225.0240 C   0  0  0  0  0  0  0  0  0  0  0  0
  140.6550   71.7980  223.7560 C   0  0  0  0  0  0  0  0  0  0  0  0
  139.2880   75.6790  222.7170 C   0  0  0  0  0  0  0  0  0  0  0  0
  139.5720   76.9600  221.9860 C   0  0  0  0  0  0  0  0  0  0  0  0
  141.7236   81.4017  220.3557 H   0  0  0  0  0  0  0  0  0  0  0  0
  142.4217   80.8314  218.8020 H   0  0  0  0  0  0  0  0  0  0  0  0
  140.9387   81.8450  218.8020 H   0  0  0  0  0  0  0  0  0  0  0  0
  139.7832   79.9829  220.0887 H   0  0  0  0  0  0  0  0  0  0  0  0
  140.2584   79.5578  218.4090 H   0  0  0  0  0  0  0  0  0  0  0  0
  143.7528   78.9059  222.3202 H   0  0  0  0  0  0  0  0  0  0  0  0
  144.3504   80.6416  223.9955 H   0  0  0  0  0  0  0  0  0  0  0  0
  142.5319   82.1111  224.9238 H   0  0  0  0  0  0  0  0  0  0  0  0
  140.1916   81.8163  224.1577 H   0  0  0  0  0  0  0  0  0  0  0  0
  139.6111   80.0604  222.4714 H   0  0  0  0  0  0  0  0  0  0  0  0
  141.6200   76.9033  222.7719 H   0  0  0  0  0  0  0  0  0  0  0  0
  141.0656   76.1691  219.8853 H   0  0  0  0  0  0  0  0  0  0  0  0
  142.5943   75.9435  220.8394 H   0  0  0  0  0  0  0  0  0  0  0  0
  141.0614   73.9134  220.4702 H   0  0  0  0  0  0  0  0  0  0  0  0
  141.6944   74.2904  222.1496 H   0  0  0  0  0  0  0  0  0  0  0  0
  139.1000   72.7025  219.7501 H   0  0  0  0  0  0  0  0  0  0  0  0
  137.4430   71.1670  220.1010 H   0  0  0  0  0  0  0  0  0  0  0  0
  137.4000   71.5430  221.8060 H   0  0  0  0  0  0  0  0  0  0  0  0
  140.5260   70.8186  220.5945 H   0  0  0  0  0  0  0  0  0  0  0  0
  141.1349   72.3819  221.2363 H   0  0  0  0  0  0  0  0  0  0  0  0
  138.9363   69.5189  221.9789 H   0  0  0  0  0  0  0  0  0  0  0  0
  138.5281   68.5517  224.2203 H   0  0  0  0  0  0  0  0  0  0  0  0
  138.8329   68.6428  226.5169 H   0  0  0  0  0  0  0  0  0  0  0  0
  141.1294   71.7884  228.2896 H   0  0  0  0  0  0  0  0  0  0  0  0
  141.5637   72.7822  226.0703 H   0  0  0  0  0  0  0  0  0  0  0  0
  141.2545   72.7117  223.6304 H   0  0  0  0  0  0  0  0  0  0  0  0
  138.2125   75.6042  222.9355 H   0  0  0  0  0  0  0  0  0  0  0  0
  139.8397   75.6508  223.6682 H   0  0  0  0  0  0  0  0  0  0  0  0
  139.0856   76.9491  220.9994 H   0  0  0  0  0  0  0  0  0  0  0  0
  139.1833   77.8264  222.5412 H   0  0  0  0  0  0  0  0  0  0  0  0
  1  2  1  0
  2  3  1  0
  3  4  2  0
  3  5  1  0
  5  6  1  0
  6  7  2  0
  7  8  1  0
  8  9  2  0
  9 10  1  0
 10 11  2  0
  5 12  1  0
 12 13  1  0
 13 14  1  0
 14 15  1  0
 15 16  1  0
 16 17  2  0
 16 18  1  0
 18 19  1  0
 18 20  1  0
 20 21  1  0
 21 22  2  0
 22 23  1  0
 23 24  2  0
 24 25  1  0
 25 26  2  0
 26 27  1  0
 26 28  1  0
 28 29  2  0
 29 30  1  0
 30 31  2  0
 15 32  1  0
 32 33  1  0
 11  6  1  0
 33 12  1  0
 31 21  1  0
 30 24  1  0
  1 34  1  0
  1 35  1  0
  1 36  1  0
  2 37  1  0
  2 38  1  0
  7 39  1  0
  8 40  1  0
  9 41  1  0
 10 42  1  0
 11 43  1  0
 12 44  1  0
 13 45  1  0
 13 46  1  0
 14 47  1  0
 14 48  1  0
 18 49  1  6
 19 50  1  0
 19 51  1  0
 20 52  1  0
 20 53  1  0
 22 54  1  0
 23 55  1  0
 25 56  1  0
 28 57  1  0
 29 58  1  0
 31 59  1  0
 32 60  1  0
 32 61  1  0
 33 62  1  0
 33 63  1  0
M  END
>  <smiles>  (6) 
CCC(=O)N(c1ccccc1)C1CCN(C(=O)[C@H](N)Cc2ccc3cc(F)ccc3c2)CC1

>  <score_type>  (6) 
oracle

>  <origin>  (6) 
autodockgpu

>  <m_score__min__energy>  (6) 
-8.7699999999999996

>  <m_primary>  (6) 
energy

>  <rmsd>  (6) 
5.6873048341349355

>  <m_score__min__rmsd>  (6) 
5.6873048341349355

>  <meeko>  (6) 
{"free_energy": -7.82, "intermolecular_energy": -10.2, "internal_energy": -2.19, "cluster_size": 20, "cluster_id": 3, "rank_in_cluster": 17}

>  <energy>  (6) 
-8.65

>  <cluster_rmsd>  (6) 
0.48

>  <cluster>  (6) 
1

$$$$

     RDKit          3D

 63 66  0  0  0  0  0  0  0  0999 V2000
  137.9940   80.8810  224.3720 C   0  0  0  0  0  0  0  0  0  0  0  0
  137.2090   79.9490  223.4690 C   0  0  0  0  0  0  0  0  0  0  0  0
  137.9150   79.8090  222.1570 C   0  0  0  0  0  0  0  0  0  0  0  0
  137.4460   80.4310  221.1930 O   0  0  0  0  0  0  0  0  0  0  0  0
  139.0770   78.9750  222.0890 N   0  0  0  0  0  0  0  0  0  0  0  0
  140.3530   79.4850  222.5080 C   0  0  0  0  0  0  0  0  0  0  0  0
  140.9460   80.4700  221.7350 C   0  0  0  0  0  0  0  0  0  0  0  0
  142.1740   81.0180  222.0670 C   0  0  0  0  0  0  0  0  0  0  0  0
  142.8200   80.5510  223.2200 C   0  0  0  0  0  0  0  0  0  0  0  0
  142.2260   79.5640  223.9950 C   0  0  0  0  0  0  0  0  0  0  0  0
  140.9850   79.0190  223.6470 C   0  0  0  0  0  0  0  0  0  0  0  0
  139.0320   77.6180  221.6080 C   0  0  0  0  0  0  0  0  0  0  0  0
  139.0820   76.6100  222.7210 C   0  0  0  0  0  0  0  0  0  0  0  0
  139.1860   75.1940  222.2010 C   0  0  0  0  0  0  0  0  0  0  0  0
  140.0730   75.0370  221.0890 N   0  0  0  0  0  0  0  0  0  0  0  0
  140.9640   73.9460  220.9070 C   0  0  0  0  0  0  0  0  0  0  0  0
  141.7460   73.8740  219.8980 O   0  0  0  0  0  0  0  0  0  0  0  0
  141.0630   72.8100  221.8620 C   0  0  2  0  0  0  0  0  0  0  0  0
  141.8780   71.7340  221.2880 N   0  0  0  0  0  0  0  0  0  0  0  0
  139.6940   72.1780  222.0910 C   0  0  0  0  0  0  0  0  0  0  0  0
  139.7060   71.4080  223.3850 C   0  0  0  0  0  0  0  0  0  0  0  0
  139.0400   70.2010  223.4380 C   0  0  0  0  0  0  0  0  0  0  0  0
  138.9840   69.4120  224.5660 C   0  0  0  0  0  0  0  0  0  0  0  0
  139.6430   69.8840  225.6900 C   0  0  0  0  0  0  0  0  0  0  0  0
  139.5810   69.0860  226.8170 C   0  0  0  0  0  0  0  0  0  0  0  0
  140.2180   69.4980  227.9770 C   0  0  0  0  0  0  0  0  0  0  0  0
  140.1620   68.7140  229.1020 F   0  0  0  0  0  0  0  0  0  0  0  0
  140.8890   70.6980  227.9510 C   0  0  0  0  0  0  0  0  0  0  0  0
  140.9550   71.5020  226.8240 C   0  0  0  0  0  0  0  0  0  0  0  0
  140.3160   71.0870  225.6640 C   0  0  0  0  0  0  0  0  0  0  0  0
  140.3550   71.8640  224.5070 C   0  0  0  0  0  0  0  0  0  0  0  0
  140.0640   76.0640  220.0610 C   0  0  0  0  0  0  0  0  0  0  0  0
  140.2520   77.3930  220.7340 C   0  0  0  0  0  0  0  0  0  0  0  0
  137.7860   80.6340  225.4235 H   0  0  0  0  0  0  0  0  0  0  0  0
  139.0696   80.7639  224.1737 H   0  0  0  0  0  0  0  0  0  0  0  0
  137.6957   81.9210  224.1737 H   0  0  0  0  0  0  0  0  0  0  0  0
  137.1246   78.9617  223.9465 H   0  0  0  0  0  0  0  0  0  0  0  0
  136.2041   80.3637  223.3008 H   0  0  0  0  0  0  0  0  0  0  0  0
  140.4274   80.8266  220.8329 H   0  0  0  0  0  0  0  0  0  0  0  0
  142.6305   81.7996  221.4419 H   0  0  0  0  0  0  0  0  0  0  0  0
  143.7964   80.9660  223.5105 H   0  0  0  0  0  0  0  0  0  0  0  0
  142.7400   79.2041  224.8985 H   0  0  0  0  0  0  0  0  0  0  0  0
  140.5218   78.2366  224.2660 H   0  0  0  0  0  0  0  0  0  0  0  0
  138.0852   77.4840  221.0642 H   0  0  0  0  0  0  0  0  0  0  0  0
  139.9578   76.8214  223.3521 H   0  0  0  0  0  0  0  0  0  0  0  0
  138.1474   76.6924  223.2952 H   0  0  0  0  0  0  0  0  0  0  0  0
  139.5434   74.5521  223.0197 H   0  0  0  0  0  0  0  0  0  0  0  0
  138.1832   74.9156  221.8449 H   0  0  0  0  0  0  0  0  0  0  0  0
  141.4925   73.2139  222.7906 H   0  0  0  0  0  0  0  0  0  0  0  0
  142.8200   71.6790  221.7170 H   0  0  0  0  0  0  0  0  0  0  0  0
  141.8580   71.7470  220.2610 H   0  0  0  0  0  0  0  0  0  0  0  0
  138.9296   72.9674  222.1413 H   0  0  0  0  0  0  0  0  0  0  0  0
  139.4622   71.4951  221.2604 H   0  0  0  0  0  0  0  0  0  0  0  0
  138.5261   69.8497  222.5310 H   0  0  0  0  0  0  0  0  0  0  0  0
  138.4428   68.4544  224.5740 H   0  0  0  0  0  0  0  0  0  0  0  0
  139.0315   68.1334  226.7935 H   0  0  0  0  0  0  0  0  0  0  0  0
  141.3967   71.0353  228.8667 H   0  0  0  0  0  0  0  0  0  0  0  0
  141.5053   72.4542  226.8486 H   0  0  0  0  0  0  0  0  0  0  0  0
  140.8944   72.8226  224.4927 H   0  0  0  0  0  0  0  0  0  0  0  0
  140.8831   75.8867  219.3486 H   0  0  0  0  0  0  0  0  0  0  0  0
  139.1125   76.0453  219.5093 H   0  0  0  0  0  0  0  0  0  0  0  0
  141.1626   77.3797  221.3509 H   0  0  0  0  0  0  0  0  0  0  0  0
  140.3610   78.1988  219.9932 H   0  0  0  0  0  0  0  0  0  0  0  0
  1  2  1  0
  2  3  1  0
  3  4  2  0
  3  5  1  0
  5  6  1  0
  6  7  2  0
  7  8  1  0
  8  9  2  0
  9 10  1  0
 10 11  2  0
  5 12  1  0
 12 13  1  0
 13 14  1  0
 14 15  1  0
 15 16  1  0
 16 17  2  0
 16 18  1  0
 18 19  1  0
 18 20  1  0
 20 21  1  0
 21 22  2  0
 22 23  1  0
 23 24  2  0
 24 25  1  0
 25 26  2  0
 26 27  1  0
 26 28  1  0
 28 29  2  0
 29 30  1  0
 30 31  2  0
 15 32  1  0
 32 33  1  0
 11  6  1  0
 33 12  1  0
 31 21  1  0
 30 24  1  0
  1 34  1  0
  1 35  1  0
  1 36  1  0
  2 37  1  0
  2 38  1  0
  7 39  1  0
  8 40  1  0
  9 41  1  0
 10 42  1  0
 11 43  1  0
 12 44  1  0
 13 45  1  0
 13 46  1  0
 14 47  1  0
 14 48  1  0
 18 49  1  1
 19 50  1  0
 19 51  1  0
 20 52  1  0
 20 53  1  0
 22 54  1  0
 23 55  1  0
 25 56  1  0
 28 57  1  0
 29 58  1  0
 31 59  1  0
 32 60  1  0
 32 61  1  0
 33 62  1  0
 33 63  1  0
M  END
>  <smiles>  (7) 
CCC(=O)N(c1ccccc1)C1CCN(C(=O)[C@H](N)Cc2ccc3cc(F)ccc3c2)CC1

>  <score_type>  (7) 
oracle

>  <origin>  (7) 
autodockgpu

>  <m_score__min__energy>  (7) 
-8.7699999999999996

>  <m_primary>  (7) 
energy

>  <rmsd>  (7) 
5.71713500702934

>  <m_score__min__rmsd>  (7) 
5.71713500702934

>  <meeko>  (7) 
{"free_energy": -7.93, "intermolecular_energy": -10.32, "internal_energy": -2.25, "cluster_size": 26, "cluster_id": 1, "rank_in_cluster": 13}

>  <energy>  (7) 
-8.62

>  <cluster_rmsd>  (7) 
0.28

>  <cluster>  (7) 
1

$$$$

     RDKit          3D

 63 66  0  0  0  0  0  0  0  0999 V2000
  142.5530   80.3580  218.5830 C   0  0  0  0  0  0  0  0  0  0  0  0
  141.5230   79.2450  218.5800 C   0  0  0  0  0  0  0  0  0  0  0  0
  141.8440   78.2620  219.6610 C   0  0  0  0  0  0  0  0  0  0  0  0
  142.8030   77.4990  219.4660 O   0  0  0  0  0  0  0  0  0  0  0  0
  141.0380   78.2540  220.8450 N   0  0  0  0  0  0  0  0  0  0  0  0
  141.2780   79.2170  221.8830 C   0  0  0  0  0  0  0  0  0  0  0  0
  142.5800   79.3830  222.3280 C   0  0  0  0  0  0  0  0  0  0  0  0
  142.9000   80.2900  223.3250 C   0  0  0  0  0  0  0  0  0  0  0  0
  141.8670   81.0520  223.8870 C   0  0  0  0  0  0  0  0  0  0  0  0
  140.5620   80.8870  223.4420 C   0  0  0  0  0  0  0  0  0  0  0  0
  140.2530   79.9660  222.4340 C   0  0  0  0  0  0  0  0  0  0  0  0
  139.9730   77.3080  221.0540 C   0  0  0  0  0  0  0  0  0  0  0  0
  140.2440   76.3800  222.2040 C   0  0  0  0  0  0  0  0  0  0  0  0
  139.1940   75.2980  222.3210 C   0  0  0  0  0  0  0  0  0  0  0  0
  138.7780   74.7410  221.0700 N   0  0  0  0  0  0  0  0  0  0  0  0
  138.5230   73.3630  220.8380 C   0  0  0  0  0  0  0  0  0  0  0  0
  138.1710   72.9260  219.6880 O   0  0  0  0  0  0  0  0  0  0  0  0
  138.6410   72.3260  221.8970 C   0  0  2  0  0  0  0  0  0  0  0  0
  137.6980   72.6020  222.9860 N   0  0  0  0  0  0  0  0  0  0  0  0
  140.0160   72.3810  222.5540 C   0  0  0  0  0  0  0  0  0  0  0  0
  140.0410   71.4600  223.7460 C   0  0  0  0  0  0  0  0  0  0  0  0
  139.5240   70.1890  223.6050 C   0  0  0  0  0  0  0  0  0  0  0  0
  139.4940   69.2630  224.6250 C   0  0  0  0  0  0  0  0  0  0  0  0
  140.0190   69.6610  225.8430 C   0  0  0  0  0  0  0  0  0  0  0  0
  139.9850   68.7260  226.8600 C   0  0  0  0  0  0  0  0  0  0  0  0
  140.4930   69.0580  228.1070 C   0  0  0  0  0  0  0  0  0  0  0  0
  140.4630   68.1370  229.1240 F   0  0  0  0  0  0  0  0  0  0  0  0
  141.0150   70.3190  228.2730 C   0  0  0  0  0  0  0  0  0  0  0  0
  141.0520   71.2610  227.2570 C   0  0  0  0  0  0  0  0  0  0  0  0
  140.5420   70.9260  226.0100 C   0  0  0  0  0  0  0  0  0  0  0  0
  140.5580   71.8420  224.9590 C   0  0  0  0  0  0  0  0  0  0  0  0
  138.5970   75.6470  219.9490 C   0  0  0  0  0  0  0  0  0  0  0  0
  139.8520   76.4590  219.8020 C   0  0  0  0  0  0  0  0  0  0  0  0
  142.8006   80.6256  219.6208 H   0  0  0  0  0  0  0  0  0  0  0  0
  143.4619   80.0178  218.0652 H   0  0  0  0  0  0  0  0  0  0  0  0
  142.1435   81.2379  218.0652 H   0  0  0  0  0  0  0  0  0  0  0  0
  140.5240   79.6701  218.7565 H   0  0  0  0  0  0  0  0  0  0  0  0
  141.5389   78.7349  217.6056 H   0  0  0  0  0  0  0  0  0  0  0  0
  143.3808   78.7783  221.8774 H   0  0  0  0  0  0  0  0  0  0  0  0
  143.9387   80.4090  223.6669 H   0  0  0  0  0  0  0  0  0  0  0  0
  142.0898   81.7806  224.6804 H   0  0  0  0  0  0  0  0  0  0  0  0
  139.7578   81.4899  223.8889 H   0  0  0  0  0  0  0  0  0  0  0  0
  139.2168   79.8402  222.0870 H   0  0  0  0  0  0  0  0  0  0  0  0
  139.0571   77.8748  221.2771 H   0  0  0  0  0  0  0  0  0  0  0  0
  141.2257   75.9069  222.0544 H   0  0  0  0  0  0  0  0  0  0  0  0
  140.2240   76.9732  223.1301 H   0  0  0  0  0  0  0  0  0  0  0  0
  139.6038   74.4862  222.9399 H   0  0  0  0  0  0  0  0  0  0  0  0
  138.3053   75.7693  222.7661 H   0  0  0  0  0  0  0  0  0  0  0  0
  138.4523   71.3568  221.4122 H   0  0  0  0  0  0  0  0  0  0  0  0
  137.4420   73.6050  223.0430 H   0  0  0  0  0  0  0  0  0  0  0  0
  137.9980   72.1700  223.8690 H   0  0  0  0  0  0  0  0  0  0  0  0
  140.7811   72.0642  221.8300 H   0  0  0  0  0  0  0  0  0  0  0  0
  140.2246   73.4101  222.8817 H   0  0  0  0  0  0  0  0  0  0  0  0
  139.1139   69.8992  222.6263 H   0  0  0  0  0  0  0  0  0  0  0  0
  139.0737   68.2570  224.4789 H   0  0  0  0  0  0  0  0  0  0  0  0
  139.5589   67.7276  226.6821 H   0  0  0  0  0  0  0  0  0  0  0  0
  141.4220   70.5929  229.2575 H   0  0  0  0  0  0  0  0  0  0  0  0
  141.4789   72.2588  227.4360 H   0  0  0  0  0  0  0  0  0  0  0  0
  140.9762   72.8498  225.0988 H   0  0  0  0  0  0  0  0  0  0  0  0
  138.4147   75.0715  219.0294 H   0  0  0  0  0  0  0  0  0  0  0  0
  137.7338   76.3057  220.1252 H   0  0  0  0  0  0  0  0  0  0  0  0
  140.7241   75.7951  219.7088 H   0  0  0  0  0  0  0  0  0  0  0  0
  139.8123   77.0880  218.9005 H   0  0  0  0  0  0  0  0  0  0  0  0
  1  2  1  0
  2  3  1  0
  3  4  2  0
  3  5  1  0
  5  6  1  0
  6  7  2  0
  7  8  1  0
  8  9  2  0
  9 10  1  0
 10 11  2  0
  5 12  1  0
 12 13  1  0
 13 14  1  0
 14 15  1  0
 15 16  1  0
 16 17  2  0
 16 18  1  0
 18 19  1  0
 18 20  1  0
 20 21  1  0
 21 22  2  0
 22 23  1  0
 23 24  2  0
 24 25  1  0
 25 26  2  0
 26 27  1  0
 26 28  1  0
 28 29  2  0
 29 30  1  0
 30 31  2  0
 15 32  1  0
 32 33  1  0
 11  6  1  0
 33 12  1  0
 31 21  1  0
 30 24  1  0
  1 34  1  0
  1 35  1  0
  1 36  1  0
  2 37  1  0
  2 38  1  0
  7 39  1  0
  8 40  1  0
  9 41  1  0
 10 42  1  0
 11 43  1  0
 12 44  1  0
 13 45  1  0
 13 46  1  0
 14 47  1  0
 14 48  1  0
 18 49  1  6
 19 50  1  0
 19 51  1  0
 20 52  1  0
 20 53  1  0
 22 54  1  0
 23 55  1  0
 25 56  1  0
 28 57  1  0
 29 58  1  0
 31 59  1  0
 32 60  1  0
 32 61  1  0
 33 62  1  0
 33 63  1  0
M  END
>  <smiles>  (8) 
CCC(=O)N(c1ccccc1)C1CCN(C(=O)[C@H](N)Cc2ccc3cc(F)ccc3c2)CC1

>  <score_type>  (8) 
oracle

>  <origin>  (8) 
autodockgpu

>  <m_score__min__energy>  (8) 
-8.7699999999999996

>  <m_primary>  (8) 
energy

>  <rmsd>  (8) 
6.054032416532549

>  <m_score__min__rmsd>  (8) 
6.054032416532549

>  <meeko>  (8) 
{"free_energy": -8.59, "intermolecular_energy": -10.97, "internal_energy": -1.51, "cluster_size": 20, "cluster_id": 3, "rank_in_cluster": 2}

>  <energy>  (8) 
-8.62

>  <cluster_rmsd>  (8) 
0.46

>  <cluster>  (8) 
1

$$$$

     RDKit          3D

 63 66  0  0  0  0  0  0  0  0999 V2000
  138.0900   80.8780  224.5560 C   0  0  0  0  0  0  0  0  0  0  0  0
  138.0480   80.6540  223.0570 C   0  0  0  0  0  0  0  0  0  0  0  0
  138.0750   79.1860  222.7680 C   0  0  0  0  0  0  0  0  0  0  0  0
  137.0230   78.5550  222.9440 O   0  0  0  0  0  0  0  0  0  0  0  0
  139.2990   78.5990  222.3120 N   0  0  0  0  0  0  0  0  0  0  0  0
  140.5400   79.3030  222.4780 C   0  0  0  0  0  0  0  0  0  0  0  0
  141.3000   79.0260  223.6030 C   0  0  0  0  0  0  0  0  0  0  0  0
  142.5100   79.6580  223.8400 C   0  0  0  0  0  0  0  0  0  0  0  0
  142.9610   80.6010  222.9060 C   0  0  0  0  0  0  0  0  0  0  0  0
  142.2010   80.8790  221.7780 C   0  0  0  0  0  0  0  0  0  0  0  0
  140.9800   80.2320  221.5520 C   0  0  0  0  0  0  0  0  0  0  0  0
  139.3520   77.3070  221.6770 C   0  0  0  0  0  0  0  0  0  0  0  0
  139.3220   76.1770  222.6680 C   0  0  0  0  0  0  0  0  0  0  0  0
  139.5280   74.8340  222.0040 C   0  0  0  0  0  0  0  0  0  0  0  0
  140.5300   74.8290  220.9810 N   0  0  0  0  0  0  0  0  0  0  0  0
  141.4730   73.7870  220.7720 C   0  0  0  0  0  0  0  0  0  0  0  0
  142.3570   73.8520  219.8500 O   0  0  0  0  0  0  0  0  0  0  0  0
  141.5120   72.5500  221.5970 C   0  0  2  0  0  0  0  0  0  0  0  0
  142.3040   71.5160  220.9220 N   0  0  0  0  0  0  0  0  0  0  0  0
  140.1190   71.9450  221.7280 C   0  0  0  0  0  0  0  0  0  0  0  0
  139.9650   71.3280  223.0930 C   0  0  0  0  0  0  0  0  0  0  0  0
  139.1940   70.1910  223.2180 C   0  0  0  0  0  0  0  0  0  0  0  0
  138.9840   69.5420  224.4150 C   0  0  0  0  0  0  0  0  0  0  0  0
  139.5940   70.0860  225.5340 C   0  0  0  0  0  0  0  0  0  0  0  0
  139.3770   69.4290  226.7300 C   0  0  0  0  0  0  0  0  0  0  0  0
  139.9570   69.9190  227.8900 C   0  0  0  0  0  0  0  0  0  0  0  0
  139.7480   69.2750  229.0840 F   0  0  0  0  0  0  0  0  0  0  0  0
  140.7310   71.0510  227.7930 C   0  0  0  0  0  0  0  0  0  0  0  0
  140.9520   71.7150  226.5960 C   0  0  0  0  0  0  0  0  0  0  0  0
  140.3700   71.2220  225.4370 C   0  0  0  0  0  0  0  0  0  0  0  0
  140.5640   71.8570  224.2110 C   0  0  0  0  0  0  0  0  0  0  0  0
  140.5910   75.9690  220.0820 C   0  0  0  0  0  0  0  0  0  0  0  0
  140.6620   77.2140  220.9180 C   0  0  0  0  0  0  0  0  0  0  0  0
  137.9112   79.9244  225.0744 H   0  0  0  0  0  0  0  0  0  0  0  0
  139.0774   81.2706  224.8406 H   0  0  0  0  0  0  0  0  0  0  0  0
  137.3118   81.6015  224.8406 H   0  0  0  0  0  0  0  0  0  0  0  0
  137.1254   81.0909  222.6472 H   0  0  0  0  0  0  0  0  0  0  0  0
  138.9212   81.1342  222.5912 H   0  0  0  0  0  0  0  0  0  0  0  0
  140.9328   78.2843  224.3275 H   0  0  0  0  0  0  0  0  0  0  0  0
  143.1015   79.4258  224.7379 H   0  0  0  0  0  0  0  0  0  0  0  0
  143.9171   81.1207  223.0669 H   0  0  0  0  0  0  0  0  0  0  0  0
  142.5639   81.6195  221.0500 H   0  0  0  0  0  0  0  0  0  0  0  0
  140.3827   80.4578  220.6563 H   0  0  0  0  0  0  0  0  0  0  0  0
  138.4722   77.2156  221.0232 H   0  0  0  0  0  0  0  0  0  0  0  0
  140.1204   76.3330  223.4085 H   0  0  0  0  0  0  0  0  0  0  0  0
  138.3311   76.1709  223.1457 H   0  0  0  0  0  0  0  0  0  0  0  0
  139.8218   74.1090  222.7773 H   0  0  0  0  0  0  0  0  0  0  0  0
  138.5773   74.5759  221.5145 H   0  0  0  0  0  0  0  0  0  0  0  0
  141.9325   72.8338  222.5730 H   0  0  0  0  0  0  0  0  0  0  0  0
  143.1980   71.3200  221.4090 H   0  0  0  0  0  0  0  0  0  0  0  0
  142.3790   71.6910  219.9120 H   0  0  0  0  0  0  0  0  0  0  0  0
  139.3632   72.7330  221.5946 H   0  0  0  0  0  0  0  0  0  0  0  0
  139.9821   71.1709  220.9586 H   0  0  0  0  0  0  0  0  0  0  0  0
  138.7215   69.7805  222.3134 H   0  0  0  0  0  0  0  0  0  0  0  0
  138.3627   68.6366  224.4793 H   0  0  0  0  0  0  0  0  0  0  0  0
  138.7500   68.5257  226.7615 H   0  0  0  0  0  0  0  0  0  0  0  0
  141.1964   71.4483  228.7071 H   0  0  0  0  0  0  0  0  0  0  0  0
  141.5789   72.6184  226.5657 H   0  0  0  0  0  0  0  0  0  0  0  0
  141.1839   72.7629  224.1401 H   0  0  0  0  0  0  0  0  0  0  0  0
  141.4849   75.8952  219.4452 H   0  0  0  0  0  0  0  0  0  0  0  0
  139.7025   75.9933  219.4339 H   0  0  0  0  0  0  0  0  0  0  0  0
  141.5042   77.1496  221.6226 H   0  0  0  0  0  0  0  0  0  0  0  0
  140.8183   78.1032  220.2896 H   0  0  0  0  0  0  0  0  0  0  0  0
  1  2  1  0
  2  3  1  0
  3  4  2  0
  3  5  1  0
  5  6  1  0
  6  7  2  0
  7  8  1  0
  8  9  2  0
  9 10  1  0
 10 11  2  0
  5 12  1  0
 12 13  1  0
 13 14  1  0
 14 15  1  0
 15 16  1  0
 16 17  2  0
 16 18  1  0
 18 19  1  0
 18 20  1  0
 20 21  1  0
 21 22  2  0
 22 23  1  0
 23 24  2  0
 24 25  1  0
 25 26  2  0
 26 27  1  0
 26 28  1  0
 28 29  2  0
 29 30  1  0
 30 31  2  0
 15 32  1  0
 32 33  1  0
 11  6  1  0
 33 12  1  0
 31 21  1  0
 30 24  1  0
  1 34  1  0
  1 35  1  0
  1 36  1  0
  2 37  1  0
  2 38  1  0
  7 39  1  0
  8 40  1  0
  9 41  1  0
 10 42  1  0
 11 43  1  0
 12 44  1  0
 13 45  1  0
 13 46  1  0
 14 47  1  0
 14 48  1  0
 18 49  1  1
 19 50  1  0
 19 51  1  0
 20 52  1  0
 20 53  1  0
 22 54  1  0
 23 55  1  0
 25 56  1  0
 28 57  1  0
 29 58  1  0
 31 59  1  0
 32 60  1  0
 32 61  1  0
 33 62  1  0
 33 63  1  0
M  END
>  <smiles>  (9) 
CCC(=O)N(c1ccccc1)C1CCN(C(=O)[C@H](N)Cc2ccc3cc(F)ccc3c2)CC1

>  <score_type>  (9) 
oracle

>  <origin>  (9) 
autodockgpu

>  <m_score__min__energy>  (9) 
-8.7699999999999996

>  <m_primary>  (9) 
energy

>  <rmsd>  (9) 
5.7758083348038936

>  <m_score__min__rmsd>  (9) 
5.7758083348038936

>  <meeko>  (9) 
{"free_energy": -8.08, "intermolecular_energy": -10.47, "internal_energy": -2.18, "cluster_size": 26, "cluster_id": 1, "rank_in_cluster": 10}

>  <energy>  (9) 
-8.11

>  <cluster_rmsd>  (9) 
0.67

>  <cluster>  (9) 
1

$$$$

     RDKit          3D

 63 66  0  0  0  0  0  0  0  0999 V2000
  137.9980   81.0000  224.2330 C   0  0  0  0  0  0  0  0  0  0  0  0
  137.8670   80.5010  222.8060 C   0  0  0  0  0  0  0  0  0  0  0  0
  138.1200   79.0270  222.7660 C   0  0  0  0  0  0  0  0  0  0  0  0
  137.1820   78.2830  223.0890 O   0  0  0  0  0  0  0  0  0  0  0  0
  139.4130   78.5630  222.3630 N   0  0  0  0  0  0  0  0  0  0  0  0
  140.5860   79.3220  222.6980 C   0  0  0  0  0  0  0  0  0  0  0  0
  141.1120   80.1680  221.7340 C   0  0  0  0  0  0  0  0  0  0  0  0
  142.2390   80.9370  221.9750 C   0  0  0  0  0  0  0  0  0  0  0  0
  142.8500   80.8440  223.2330 C   0  0  0  0  0  0  0  0  0  0  0  0
  142.3240   79.9980  224.1990 C   0  0  0  0  0  0  0  0  0  0  0  0
  141.1840   79.2260  223.9420 C   0  0  0  0  0  0  0  0  0  0  0  0
  139.6050   77.3450  221.6180 C   0  0  0  0  0  0  0  0  0  0  0  0
  138.3780   76.4770  221.6080 C   0  0  0  0  0  0  0  0  0  0  0  0
  138.6350   75.1380  220.9540 C   0  0  0  0  0  0  0  0  0  0  0  0
  139.8950   74.5480  221.2910 N   0  0  0  0  0  0  0  0  0  0  0  0
  140.1020   73.1670  221.5520 C   0  0  0  0  0  0  0  0  0  0  0  0
  141.2520   72.7050  221.8670 O   0  0  0  0  0  0  0  0  0  0  0  0
  139.0150   72.1550  221.4800 C   0  0  2  0  0  0  0  0  0  0  0  0
  138.1460   72.2600  222.6580 N   0  0  0  0  0  0  0  0  0  0  0  0
  139.5870   70.7440  221.5480 C   0  0  0  0  0  0  0  0  0  0  0  0
  139.5980   70.2740  222.9790 C   0  0  0  0  0  0  0  0  0  0  0  0
  138.8870   69.1370  223.3030 C   0  0  0  0  0  0  0  0  0  0  0  0
  138.8260   68.6160  224.5770 C   0  0  0  0  0  0  0  0  0  0  0  0
  139.5280   69.2920  225.5610 C   0  0  0  0  0  0  0  0  0  0  0  0
  139.4610   68.7620  226.8360 C   0  0  0  0  0  0  0  0  0  0  0  0
  140.1390   69.3900  227.8700 C   0  0  0  0  0  0  0  0  0  0  0  0
  140.0780   68.8730  229.1400 F   0  0  0  0  0  0  0  0  0  0  0  0
  140.8560   70.5250  227.5730 C   0  0  0  0  0  0  0  0  0  0  0  0
  140.9270   71.0610  226.2960 C   0  0  0  0  0  0  0  0  0  0  0  0
  140.2460   70.4310  225.2640 C   0  0  0  0  0  0  0  0  0  0  0  0
  140.2890   70.9350  223.9650 C   0  0  0  0  0  0  0  0  0  0  0  0
  141.0550   75.4200  221.3720 C   0  0  0  0  0  0  0  0  0  0  0  0
  140.7150   76.5580  222.2900 C   0  0  0  0  0  0  0  0  0  0  0  0
  137.7820   80.1772  224.9304 H   0  0  0  0  0  0  0  0  0  0  0  0
  139.0222   81.3642  224.4015 H   0  0  0  0  0  0  0  0  0  0  0  0
  137.2848   81.8203  224.4015 H   0  0  0  0  0  0  0  0  0  0  0  0
  136.8517   80.7086  222.4371 H   0  0  0  0  0  0  0  0  0  0  0  0
  138.6018   81.0158  222.1695 H   0  0  0  0  0  0  0  0  0  0  0  0
  140.6215   80.2304  220.7514 H   0  0  0  0  0  0  0  0  0  0  0  0
  142.6438   81.6034  221.1991 H   0  0  0  0  0  0  0  0  0  0  0  0
  143.7465   81.4417  223.4545 H   0  0  0  0  0  0  0  0  0  0  0  0
  142.8106   79.9326  225.1833 H   0  0  0  0  0  0  0  0  0  0  0  0
  140.7728   78.5576  224.7128 H   0  0  0  0  0  0  0  0  0  0  0  0
  139.8427   77.6181  220.5793 H   0  0  0  0  0  0  0  0  0  0  0  0
  138.0539   76.3088  222.6456 H   0  0  0  0  0  0  0  0  0  0  0  0
  137.6009   76.9948  221.0266 H   0  0  0  0  0  0  0  0  0  0  0  0
  137.8375   74.4458  221.2620 H   0  0  0  0  0  0  0  0  0  0  0  0
  138.6519   75.3165  219.8687 H   0  0  0  0  0  0  0  0  0  0  0  0
  138.4749   72.3374  220.5392 H   0  0  0  0  0  0  0  0  0  0  0  0
  137.1870   71.9120  222.4750 H   0  0  0  0  0  0  0  0  0  0  0  0
  138.2050   73.1890  223.0930 H   0  0  0  0  0  0  0  0  0  0  0  0
  138.9647   70.0668  220.9446 H   0  0  0  0  0  0  0  0  0  0  0  0
  140.6145   70.7461  221.1553 H   0  0  0  0  0  0  0  0  0  0  0  0
  138.3397   68.6189  222.5017 H   0  0  0  0  0  0  0  0  0  0  0  0
  138.2480   67.7075  224.8016 H   0  0  0  0  0  0  0  0  0  0  0  0
  138.8755   67.8509  227.0285 H   0  0  0  0  0  0  0  0  0  0  0  0
  141.3981   71.0310  228.3855 H   0  0  0  0  0  0  0  0  0  0  0  0
  141.5140   71.9713  226.1041 H   0  0  0  0  0  0  0  0  0  0  0  0
  140.8646   71.8436  223.7343 H   0  0  0  0  0  0  0  0  0  0  0  0
  141.9147   74.8619  221.7714 H   0  0  0  0  0  0  0  0  0  0  0  0
  141.3190   75.7993  220.3738 H   0  0  0  0  0  0  0  0  0  0  0  0
  140.3714   76.1719  223.2610 H   0  0  0  0  0  0  0  0  0  0  0  0
  141.5940   77.1931  222.4746 H   0  0  0  0  0  0  0  0  0  0  0  0
  1  2  1  0
  2  3  1  0
  3  4  2  0
  3  5  1  0
  5  6  1  0
  6  7  2  0
  7  8  1  0
  8  9  2  0
  9 10  1  0
 10 11  2  0
  5 12  1  0
 12 13  1  0
 13 14  1  0
 14 15  1  0
 15 16  1  0
 16 17  2  0
 16 18  1  0
 18 19  1  0
 18 20  1  0
 20 21  1  0
 21 22  2  0
 22 23  1  0
 23 24  2  0
 24 25  1  0
 25 26  2  0
 26 27  1  0
 26 28  1  0
 28 29  2  0
 29 30  1  0
 30 31  2  0
 15 32  1  0
 32 33  1  0
 11  6  1  0
 33 12  1  0
 31 21  1  0
 30 24  1  0
  1 34  1  0
  1 35  1  0
  1 36  1  0
  2 37  1  0
  2 38  1  0
  7 39  1  0
  8 40  1  0
  9 41  1  0
 10 42  1  0
 11 43  1  0
 12 44  1  0
 13 45  1  0
 13 46  1  0
 14 47  1  0
 14 48  1  0
 18 49  1  6
 19 50  1  0
 19 51  1  0
 20 52  1  0
 20 53  1  0
 22 54  1  0
 23 55  1  0
 25 56  1  0
 28 57  1  0
 29 58  1  0
 31 59  1  0
 32 60  1  0
 32 61  1  0
 33 62  1  0
 33 63  1  0
M  END
>  <smiles>  (10) 
CCC(=O)N(c1ccccc1)C1CCN(C(=O)[C@H](N)Cc2ccc3cc(F)ccc3c2)CC1

>  <score_type>  (10) 
oracle

>  <origin>  (10) 
autodockgpu

>  <m_score__min__energy>  (10) 
-8.7699999999999996

>  <m_primary>  (10) 
energy

>  <rmsd>  (10) 
6.1413118460441725

>  <m_score__min__rmsd>  (10) 
6.1413118460441725

>  <meeko>  (10) 
{"free_energy": -8.72, "intermolecular_energy": -11.11, "internal_energy": -1.35, "cluster_size": 26, "cluster_id": 1, "rank_in_cluster": 4}

>  <energy>  (10) 
-8.08

>  <cluster_rmsd>  (10) 
1.4

>  <cluster>  (10) 
1

$$$$

     RDKit          3D

 63 66  0  0  0  0  0  0  0  0999 V2000
  138.0710   81.2760  223.4940 C   0  0  0  0  0  0  0  0  0  0  0  0
  137.9420   79.7950  223.7900 C   0  0  0  0  0  0  0  0  0  0  0  0
  138.1120   79.0140  222.5250 C   0  0  0  0  0  0  0  0  0  0  0  0
  137.1080   78.8670  221.8110 O   0  0  0  0  0  0  0  0  0  0  0  0
  139.4060   78.4860  222.2120 N   0  0  0  0  0  0  0  0  0  0  0  0
  140.5860   79.2410  222.5290 C   0  0  0  0  0  0  0  0  0  0  0  0
  141.1130   79.1190  223.8050 C   0  0  0  0  0  0  0  0  0  0  0  0
  142.2490   79.8100  224.1940 C   0  0  0  0  0  0  0  0  0  0  0  0
  142.8690   80.6510  223.2590 C   0  0  0  0  0  0  0  0  0  0  0  0
  142.3410   80.7730  221.9800 C   0  0  0  0  0  0  0  0  0  0  0  0
  141.1920   80.0680  221.6010 C   0  0  0  0  0  0  0  0  0  0  0  0
  139.5900   77.2060  221.5790 C   0  0  0  0  0  0  0  0  0  0  0  0
  138.3400   76.3720  221.5900 C   0  0  0  0  0  0  0  0  0  0  0  0
  138.5830   74.9770  221.0590 C   0  0  0  0  0  0  0  0  0  0  0  0
  139.8100   74.3840  221.4960 N   0  0  0  0  0  0  0  0  0  0  0  0
  139.9660   73.0250  221.8770 C   0  0  0  0  0  0  0  0  0  0  0  0
  141.0890   72.5610  222.2770 O   0  0  0  0  0  0  0  0  0  0  0  0
  138.8530   72.0400  221.8440 C   0  0  2  0  0  0  0  0  0  0  0  0
  138.0730   72.1140  223.0840 N   0  0  0  0  0  0  0  0  0  0  0  0
  139.3960   70.6150  221.8150 C   0  0  0  0  0  0  0  0  0  0  0  0
  139.5020   70.0890  223.2220 C   0  0  0  0  0  0  0  0  0  0  0  0
  138.8470   68.9160  223.5370 C   0  0  0  0  0  0  0  0  0  0  0  0
  138.8740   68.3420  224.7890 C   0  0  0  0  0  0  0  0  0  0  0  0
  139.6070   69.0020  225.7610 C   0  0  0  0  0  0  0  0  0  0  0  0
  139.6280   68.4190  227.0140 C   0  0  0  0  0  0  0  0  0  0  0  0
  140.3420   69.0280  228.0350 C   0  0  0  0  0  0  0  0  0  0  0  0
  140.3690   68.4580  229.2840 F   0  0  0  0  0  0  0  0  0  0  0  0
  141.0040   70.1980  227.7480 C   0  0  0  0  0  0  0  0  0  0  0  0
  140.9860   70.7870  226.4930 C   0  0  0  0  0  0  0  0  0  0  0  0
  140.2710   70.1760  225.4740 C   0  0  0  0  0  0  0  0  0  0  0  0
  140.2240   70.7330  224.1960 C   0  0  0  0  0  0  0  0  0  0  0  0
  140.9910   75.2290  221.5530 C   0  0  0  0  0  0  0  0  0  0  0  0
  140.6500   76.4490  222.3590 C   0  0  0  0  0  0  0  0  0  0  0  0
  138.1198   81.8360  224.4395 H   0  0  0  0  0  0  0  0  0  0  0  0
  138.9882   81.4554  222.9138 H   0  0  0  0  0  0  0  0  0  0  0  0
  137.1987   81.6113  222.9138 H   0  0  0  0  0  0  0  0  0  0  0  0
  138.7171   79.4969  224.5113 H   0  0  0  0  0  0  0  0  0  0  0  0
  136.9474   79.5923  224.2138 H   0  0  0  0  0  0  0  0  0  0  0  0
  140.6160   78.4558  224.5282 H   0  0  0  0  0  0  0  0  0  0  0  0
  142.6544   79.7016  225.2108 H   0  0  0  0  0  0  0  0  0  0  0  0
  143.7723   81.2134  223.5379 H   0  0  0  0  0  0  0  0  0  0  0  0
  142.8339   81.4347  221.2525 H   0  0  0  0  0  0  0  0  0  0  0  0
  140.7800   80.1699  220.5862 H   0  0  0  0  0  0  0  0  0  0  0  0
  139.8750   77.3854  220.5318 H   0  0  0  0  0  0  0  0  0  0  0  0
  137.9713   76.2989  222.6238 H   0  0  0  0  0  0  0  0  0  0  0  0
  137.6014   76.8595  220.9367 H   0  0  0  0  0  0  0  0  0  0  0  0
  137.7535   74.3340  221.3885 H   0  0  0  0  0  0  0  0  0  0  0  0
  138.6487   75.0645  219.9645 H   0  0  0  0  0  0  0  0  0  0  0  0
  138.2514   72.2724  220.9529 H   0  0  0  0  0  0  0  0  0  0  0  0
  137.3030   71.4210  223.1100 H   0  0  0  0  0  0  0  0  0  0  0  0
  137.8070   73.0810  223.3090 H   0  0  0  0  0  0  0  0  0  0  0  0
  138.7151   69.9750  221.2347 H   0  0  0  0  0  0  0  0  0  0  0  0
  140.3912   70.6115  221.3465 H   0  0  0  0  0  0  0  0  0  0  0  0
  138.2724   68.4122  222.7458 H   0  0  0  0  0  0  0  0  0  0  0  0
  138.3395   67.4054  225.0060 H   0  0  0  0  0  0  0  0  0  0  0  0
  139.0838   67.4812  227.1995 H   0  0  0  0  0  0  0  0  0  0  0  0
  141.5739   70.6892  228.5504 H   0  0  0  0  0  0  0  0  0  0  0  0
  141.5306   71.7247  226.3084 H   0  0  0  0  0  0  0  0  0  0  0  0
  140.7551   71.6701  223.9729 H   0  0  0  0  0  0  0  0  0  0  0  0
  141.8173   74.6838  222.0325 H   0  0  0  0  0  0  0  0  0  0  0  0
  141.3046   75.5165  220.5386 H   0  0  0  0  0  0  0  0  0  0  0  0
  140.2581   76.1551  223.3439 H   0  0  0  0  0  0  0  0  0  0  0  0
  141.5397   77.0739  222.5259 H   0  0  0  0  0  0  0  0  0  0  0  0
  1  2  1  0
  2  3  1  0
  3  4  2  0
  3  5  1  0
  5  6  1  0
  6  7  2  0
  7  8  1  0
  8  9  2  0
  9 10  1  0
 10 11  2  0
  5 12  1  0
 12 13  1  0
 13 14  1  0
 14 15  1  0
 15 16  1  0
 16 17  2  0
 16 18  1  0
 18 19  1  0
 18 20  1  0
 20 21  1  0
 21 22  2  0
 22 23  1  0
 23 24  2  0
 24 25  1  0
 25 26  2  0
 26 27  1  0
 26 28  1  0
 28 29  2  0
 29 30  1  0
 30 31  2  0
 15 32  1  0
 32 33  1  0
 11  6  1  0
 33 12  1  0
 31 21  1  0
 30 24  1  0
  1 34  1  0
  1 35  1  0
  1 36  1  0
  2 37  1  0
  2 38  1  0
  7 39  1  0
  8 40  1  0
  9 41  1  0
 10 42  1  0
 11 43  1  0
 12 44  1  0
 13 45  1  0
 13 46  1  0
 14 47  1  0
 14 48  1  0
 18 49  1  6
 19 50  1  0
 19 51  1  0
 20 52  1  0
 20 53  1  0
 22 54  1  0
 23 55  1  0
 25 56  1  0
 28 57  1  0
 29 58  1  0
 31 59  1  0
 32 60  1  0
 32 61  1  0
 33 62  1  0
 33 63  1  0
M  END
>  <smiles>  (11) 
CCC(=O)N(c1ccccc1)C1CCN(C(=O)[C@H](N)Cc2ccc3cc(F)ccc3c2)CC1

>  <score_type>  (11) 
oracle

>  <origin>  (11) 
autodockgpu

>  <m_score__min__energy>  (11) 
-8.7699999999999996

>  <m_primary>  (11) 
energy

>  <rmsd>  (11) 
6.349332917623865

>  <m_score__min__rmsd>  (11) 
6.349332917623865

>  <meeko>  (11) 
{"free_energy": -8.66, "intermolecular_energy": -11.04, "internal_energy": -1.3, "cluster_size": 26, "cluster_id": 1, "rank_in_cluster": 5}

>  <energy>  (11) 
-8.04

>  <cluster_rmsd>  (11) 
1.35

>  <cluster>  (11) 
1

$$$$

     RDKit          3D

 63 66  0  0  0  0  0  0  0  0999 V2000
  138.7630   82.0950  221.5630 C   0  0  0  0  0  0  0  0  0  0  0  0
  138.0250   80.9970  222.3050 C   0  0  0  0  0  0  0  0  0  0  0  0
  138.0480   79.7400  221.4930 C   0  0  0  0  0  0  0  0  0  0  0  0
  137.1560   79.5980  220.6440 O   0  0  0  0  0  0  0  0  0  0  0  0
  139.0840   78.7830  221.7400 N   0  0  0  0  0  0  0  0  0  0  0  0
  140.3540   79.2140  222.2540 C   0  0  0  0  0  0  0  0  0  0  0  0
  140.5820   79.0860  223.6150 C   0  0  0  0  0  0  0  0  0  0  0  0
  141.7790   79.4750  224.1940 C   0  0  0  0  0  0  0  0  0  0  0  0
  142.7740   80.0120  223.3660 C   0  0  0  0  0  0  0  0  0  0  0  0
  142.5460   80.1410  222.0020 C   0  0  0  0  0  0  0  0  0  0  0  0
  141.3310   79.7430  221.4310 C   0  0  0  0  0  0  0  0  0  0  0  0
  138.9150   77.3740  221.4910 C   0  0  0  0  0  0  0  0  0  0  0  0
  139.2780   76.5310  222.6800 C   0  0  0  0  0  0  0  0  0  0  0  0
  139.2420   75.0530  222.3620 C   0  0  0  0  0  0  0  0  0  0  0  0
  139.7860   74.7110  221.0830 N   0  0  0  0  0  0  0  0  0  0  0  0
  140.5980   73.5760  220.8220 C   0  0  0  0  0  0  0  0  0  0  0  0
  141.0690   73.3350  219.6580 O   0  0  0  0  0  0  0  0  0  0  0  0
  140.9640   72.5820  221.8670 C   0  0  2  0  0  0  0  0  0  0  0  0
  141.8930   71.5880  221.3180 N   0  0  0  0  0  0  0  0  0  0  0  0
  139.7440   71.7750  222.2950 C   0  0  0  0  0  0  0  0  0  0  0  0
  139.9990   71.1540  223.6430 C   0  0  0  0  0  0  0  0  0  0  0  0
  140.7070   71.8810  224.5780 C   0  0  0  0  0  0  0  0  0  0  0  0
  140.9990   71.4150  225.8410 C   0  0  0  0  0  0  0  0  0  0  0  0
  140.5430   70.1450  226.1580 C   0  0  0  0  0  0  0  0  0  0  0  0
  140.8410   69.6860  227.4270 C   0  0  0  0  0  0  0  0  0  0  0  0
  140.4150   68.4230  227.8100 C   0  0  0  0  0  0  0  0  0  0  0  0
  140.7070   67.9570  229.0680 F   0  0  0  0  0  0  0  0  0  0  0  0
  139.7080   67.6790  226.8960 C   0  0  0  0  0  0  0  0  0  0  0  0
  139.4060   68.1340  225.6220 C   0  0  0  0  0  0  0  0  0  0  0  0
  139.8340   69.3980  225.2410 C   0  0  0  0  0  0  0  0  0  0  0  0
  139.5540   69.8970  223.9700 C   0  0  0  0  0  0  0  0  0  0  0  0
  139.4860   75.5840  219.9610 C   0  0  0  0  0  0  0  0  0  0  0  0
  139.8460   76.9870  220.3560 C   0  0  0  0  0  0  0  0  0  0  0  0
  139.2244   82.7815  222.2882 H   0  0  0  0  0  0  0  0  0  0  0  0
  139.5453   81.6489  220.9314 H   0  0  0  0  0  0  0  0  0  0  0  0
  138.0545   82.6509  220.9314 H   0  0  0  0  0  0  0  0  0  0  0  0
  138.5146   80.8164  223.2733 H   0  0  0  0  0  0  0  0  0  0  0  0
  136.9824   81.3055  222.4717 H   0  0  0  0  0  0  0  0  0  0  0  0
  139.7912   78.6642  224.2527 H   0  0  0  0  0  0  0  0  0  0  0  0
  141.9442   79.3652  225.2760 H   0  0  0  0  0  0  0  0  0  0  0  0
  143.7349   80.3311  223.7960 H   0  0  0  0  0  0  0  0  0  0  0  0
  143.3330   80.5628  221.3596 H   0  0  0  0  0  0  0  0  0  0  0  0
  141.1574   79.8490  220.3500 H   0  0  0  0  0  0  0  0  0  0  0  0
  137.8552   77.1977  221.2547 H   0  0  0  0  0  0  0  0  0  0  0  0
  140.2934   76.7986  223.0078 H   0  0  0  0  0  0  0  0  0  0  0  0
  138.5389   76.7253  223.4712 H   0  0  0  0  0  0  0  0  0  0  0  0
  139.8169   74.5207  223.1341 H   0  0  0  0  0  0  0  0  0  0  0  0
  138.1815   74.7617  222.3407 H   0  0  0  0  0  0  0  0  0  0  0  0
  141.3985   73.1487  222.7037 H   0  0  0  0  0  0  0  0  0  0  0  0
  142.4860   71.9750  220.5610 H   0  0  0  0  0  0  0  0  0  0  0  0
  141.4190   70.7020  221.1010 H   0  0  0  0  0  0  0  0  0  0  0  0
  138.8690   72.4387  222.3569 H   0  0  0  0  0  0  0  0  0  0  0  0
  139.5522   70.9822  221.5570 H   0  0  0  0  0  0  0  0  0  0  0  0
  141.0569   72.8861  224.3000 H   0  0  0  0  0  0  0  0  0  0  0  0
  141.5663   72.0211  226.5627 H   0  0  0  0  0  0  0  0  0  0  0  0
  141.4103   70.3160  228.1262 H   0  0  0  0  0  0  0  0  0  0  0  0
  139.3658   66.6755  227.1892 H   0  0  0  0  0  0  0  0  0  0  0  0
  138.8361   67.5032  224.9240 H   0  0  0  0  0  0  0  0  0  0  0  0
  138.9878   69.2957  223.2435 H   0  0  0  0  0  0  0  0  0  0  0  0
  140.0757   75.2802  219.0835 H   0  0  0  0  0  0  0  0  0  0  0  0
  138.4185   75.5215  219.7028 H   0  0  0  0  0  0  0  0  0  0  0  0
  140.8923   77.0292  220.6929 H   0  0  0  0  0  0  0  0  0  0  0  0
  139.7405   77.6766  219.5055 H   0  0  0  0  0  0  0  0  0  0  0  0
  1  2  1  0
  2  3  1  0
  3  4  2  0
  3  5  1  0
  5  6  1  0
  6  7  2  0
  7  8  1  0
  8  9  2  0
  9 10  1  0
 10 11  2  0
  5 12  1  0
 12 13  1  0
 13 14  1  0
 14 15  1  0
 15 16  1  0
 16 17  2  0
 16 18  1  0
 18 19  1  0
 18 20  1  0
 20 21  1  0
 21 22  2  0
 22 23  1  0
 23 24  2  0
 24 25  1  0
 25 26  2  0
 26 27  1  0
 26 28  1  0
 28 29  2  0
 29 30  1  0
 30 31  2  0
 15 32  1  0
 32 33  1  0
 11  6  1  0
 33 12  1  0
 31 21  1  0
 30 24  1  0
  1 34  1  0
  1 35  1  0
  1 36  1  0
  2 37  1  0
  2 38  1  0
  7 39  1  0
  8 40  1  0
  9 41  1  0
 10 42  1  0
 11 43  1  0
 12 44  1  0
 13 45  1  0
 13 46  1  0
 14 47  1  0
 14 48  1  0
 18 49  1  1
 19 50  1  0
 19 51  1  0
 20 52  1  0
 20 53  1  0
 22 54  1  0
 23 55  1  0
 25 56  1  0
 28 57  1  0
 29 58  1  0
 31 59  1  0
 32 60  1  0
 32 61  1  0
 33 62  1  0
 33 63  1  0
M  END
>  <smiles>  (12) 
CCC(=O)N(c1ccccc1)C1CCN(C(=O)[C@H](N)Cc2ccc3cc(F)ccc3c2)CC1

>  <score_type>  (12) 
oracle

>  <origin>  (12) 
autodockgpu

>  <m_score__min__energy>  (12) 
-8.7699999999999996

>  <m_primary>  (12) 
energy

>  <rmsd>  (12) 
6.0167982361870225

>  <m_score__min__rmsd>  (12) 
6.0167982361870225

>  <meeko>  (12) 
{"free_energy": -7.26, "intermolecular_energy": -9.64, "internal_energy": -2.22, "cluster_size": 26, "cluster_id": 1, "rank_in_cluster": 26}

>  <energy>  (12) 
-8.01

>  <cluster_rmsd>  (12) 
1.4

>  <cluster>  (12) 
1

$$$$

     RDKit          3D

 63 66  0  0  0  0  0  0  0  0999 V2000
  142.5520   80.8480  218.1730 C   0  0  0  0  0  0  0  0  0  0  0  0
  142.1620   79.4910  218.7250 C   0  0  0  0  0  0  0  0  0  0  0  0
  140.8340   79.5900  219.4080 C   0  0  0  0  0  0  0  0  0  0  0  0
  139.9230   80.1640  218.7940 O   0  0  0  0  0  0  0  0  0  0  0  0
  140.6910   79.0240  220.7160 N   0  0  0  0  0  0  0  0  0  0  0  0
  141.2120   79.7180  221.8600 C   0  0  0  0  0  0  0  0  0  0  0  0
  142.5650   79.6010  222.1320 C   0  0  0  0  0  0  0  0  0  0  0  0
  143.1500   80.2390  223.2150 C   0  0  0  0  0  0  0  0  0  0  0  0
  142.3350   81.0190  224.0460 C   0  0  0  0  0  0  0  0  0  0  0  0
  140.9790   81.1380  223.7740 C   0  0  0  0  0  0  0  0  0  0  0  0
  140.4010   80.4870  222.6760 C   0  0  0  0  0  0  0  0  0  0  0  0
  140.0370   77.7620  220.9490 C   0  0  0  0  0  0  0  0  0  0  0  0
  140.5510   77.0640  222.1760 C   0  0  0  0  0  0  0  0  0  0  0  0
  139.9670   75.6780  222.3290 C   0  0  0  0  0  0  0  0  0  0  0  0
  139.8700   74.9400  221.1060 N   0  0  0  0  0  0  0  0  0  0  0  0
  140.1540   73.5560  220.9670 C   0  0  0  0  0  0  0  0  0  0  0  0
  140.0660   72.9580  219.8390 O   0  0  0  0  0  0  0  0  0  0  0  0
  140.5740   72.6950  222.1040 C   0  0  2  0  0  0  0  0  0  0  0  0
  141.4770   71.6380  221.6340 N   0  0  0  0  0  0  0  0  0  0  0  0
  139.3780   71.9490  222.6850 C   0  0  0  0  0  0  0  0  0  0  0  0
  139.7860   71.2620  223.9620 C   0  0  0  0  0  0  0  0  0  0  0  0
  140.6780   71.9020  224.7970 C   0  0  0  0  0  0  0  0  0  0  0  0
  141.1210   71.3700  225.9880 C   0  0  0  0  0  0  0  0  0  0  0  0
  140.6250   70.1240  226.3370 C   0  0  0  0  0  0  0  0  0  0  0  0
  141.0750   69.5980  227.5330 C   0  0  0  0  0  0  0  0  0  0  0  0
  140.6190   68.3540  227.9430 C   0  0  0  0  0  0  0  0  0  0  0  0
  141.0600   67.8220  229.1290 F   0  0  0  0  0  0  0  0  0  0  0  0
  139.7290   67.6950  227.1280 C   0  0  0  0  0  0  0  0  0  0  0  0
  139.2740   68.2180  225.9280 C   0  0  0  0  0  0  0  0  0  0  0  0
  139.7320   69.4630  225.5200 C   0  0  0  0  0  0  0  0  0  0  0  0
  139.3030   70.0270  224.3200 C   0  0  0  0  0  0  0  0  0  0  0  0
  139.4440   75.6530  219.9130 C   0  0  0  0  0  0  0  0  0  0  0  0
  140.3200   76.8630  219.7600 C   0  0  0  0  0  0  0  0  0  0  0  0
  142.7506   81.5391  219.0054 H   0  0  0  0  0  0  0  0  0  0  0  0
  143.4574   80.7467  217.5565 H   0  0  0  0  0  0  0  0  0  0  0  0
  141.7310   81.2428  217.5565 H   0  0  0  0  0  0  0  0  0  0  0  0
  142.0967   78.7655  217.9008 H   0  0  0  0  0  0  0  0  0  0  0  0
  142.9212   79.1588  219.4484 H   0  0  0  0  0  0  0  0  0  0  0  0
  143.1924   78.9852  221.4709 H   0  0  0  0  0  0  0  0  0  0  0  0
  144.2264   80.1355  223.4167 H   0  0  0  0  0  0  0  0  0  0  0  0
  142.7696   81.5369  224.9137 H   0  0  0  0  0  0  0  0  0  0  0  0
  140.3476   81.7537  224.4315 H   0  0  0  0  0  0  0  0  0  0  0  0
  139.3255   80.5851  222.4671 H   0  0  0  0  0  0  0  0  0  0  0  0
  138.9641   77.9596  221.0895 H   0  0  0  0  0  0  0  0  0  0  0  0
  141.6456   76.9817  222.1048 H   0  0  0  0  0  0  0  0  0  0  0  0
  140.2512   77.6564  223.0531 H   0  0  0  0  0  0  0  0  0  0  0  0
  140.6039   75.1108  223.0237 H   0  0  0  0  0  0  0  0  0  0  0  0
  138.9396   75.8088  222.6997 H   0  0  0  0  0  0  0  0  0  0  0  0
  141.0483   73.3571  222.8433 H   0  0  0  0  0  0  0  0  0  0  0  0
  141.6530   71.6920  220.6150 H   0  0  0  0  0  0  0  0  0  0  0  0
  141.2000   70.7140  221.9890 H   0  0  0  0  0  0  0  0  0  0  0  0
  138.5678   72.6626  222.8954 H   0  0  0  0  0  0  0  0  0  0  0  0
  139.0273   71.1986  221.9611 H   0  0  0  0  0  0  0  0  0  0  0  0
  141.0559   72.8902  224.4958 H   0  0  0  0  0  0  0  0  0  0  0  0
  141.8336   71.9079  226.6305 H   0  0  0  0  0  0  0  0  0  0  0  0
  141.7879   70.1605  228.1538 H   0  0  0  0  0  0  0  0  0  0  0  0
  139.3613   66.7073  227.4430 H   0  0  0  0  0  0  0  0  0  0  0  0
  138.5607   67.6549  225.3083 H   0  0  0  0  0  0  0  0  0  0  0  0
  138.5916   69.4937  223.6723 H   0  0  0  0  0  0  0  0  0  0  0  0
  139.5480   75.0027  219.0320 H   0  0  0  0  0  0  0  0  0  0  0  0
  138.3894   75.9527  220.0022 H   0  0  0  0  0  0  0  0  0  0  0  0
  141.3790   76.5655  219.7537 H   0  0  0  0  0  0  0  0  0  0  0  0
  140.1125   77.3834  218.8134 H   0  0  0  0  0  0  0  0  0  0  0  0
  1  2  1  0
  2  3  1  0
  3  4  2  0
  3  5  1  0
  5  6  1  0
  6  7  2  0
  7  8  1  0
  8  9  2  0
  9 10  1  0
 10 11  2  0
  5 12  1  0
 12 13  1  0
 13 14  1  0
 14 15  1  0
 15 16  1  0
 16 17  2  0
 16 18  1  0
 18 19  1  0
 18 20  1  0
 20 21  1  0
 21 22  2  0
 22 23  1  0
 23 24  2  0
 24 25  1  0
 25 26  2  0
 26 27  1  0
 26 28  1  0
 28 29  2  0
 29 30  1  0
 30 31  2  0
 15 32  1  0
 32 33  1  0
 11  6  1  0
 33 12  1  0
 31 21  1  0
 30 24  1  0
  1 34  1  0
  1 35  1  0
  1 36  1  0
  2 37  1  0
  2 38  1  0
  7 39  1  0
  8 40  1  0
  9 41  1  0
 10 42  1  0
 11 43  1  0
 12 44  1  0
 13 45  1  0
 13 46  1  0
 14 47  1  0
 14 48  1  0
 18 49  1  1
 19 50  1  0
 19 51  1  0
 20 52  1  0
 20 53  1  0
 22 54  1  0
 23 55  1  0
 25 56  1  0
 28 57  1  0
 29 58  1  0
 31 59  1  0
 32 60  1  0
 32 61  1  0
 33 62  1  0
 33 63  1  0
M  END
>  <smiles>  (13) 
CCC(=O)N(c1ccccc1)C1CCN(C(=O)[C@H](N)Cc2ccc3cc(F)ccc3c2)CC1

>  <score_type>  (13) 
oracle

>  <origin>  (13) 
autodockgpu

>  <m_score__min__energy>  (13) 
-8.7699999999999996

>  <m_primary>  (13) 
energy

>  <rmsd>  (13) 
5.93680530086188

>  <m_score__min__rmsd>  (13) 
5.93680530086188

>  <meeko>  (13) 
{"free_energy": -8.04, "intermolecular_energy": -10.43, "internal_energy": -2.15, "cluster_size": 20, "cluster_id": 3, "rank_in_cluster": 8}

>  <energy>  (13) 
-7.93

>  <cluster_rmsd>  (13) 
1.42

>  <cluster>  (13) 
1

$$$$

     RDKit          3D

 63 66  0  0  0  0  0  0  0  0999 V2000
  137.9540   80.8950  224.2690 C   0  0  0  0  0  0  0  0  0  0  0  0
  137.2020   80.0760  223.2380 C   0  0  0  0  0  0  0  0  0  0  0  0
  138.0330   79.9450  222.0000 C   0  0  0  0  0  0  0  0  0  0  0  0
  137.6920   80.6170  221.0150 O   0  0  0  0  0  0  0  0  0  0  0  0
  139.1600   79.0610  222.0200 N   0  0  0  0  0  0  0  0  0  0  0  0
  140.4330   79.5310  222.4920 C   0  0  0  0  0  0  0  0  0  0  0  0
  141.1630   80.3710  221.6660 C   0  0  0  0  0  0  0  0  0  0  0  0
  142.3990   80.8710  222.0440 C   0  0  0  0  0  0  0  0  0  0  0  0
  142.9080   80.5070  223.2980 C   0  0  0  0  0  0  0  0  0  0  0  0
  142.1760   79.6670  224.1260 C   0  0  0  0  0  0  0  0  0  0  0  0
  140.9290   79.1690  223.7310 C   0  0  0  0  0  0  0  0  0  0  0  0
  139.0820   77.6920  221.5790 C   0  0  0  0  0  0  0  0  0  0  0  0
  139.1650   76.7150  222.7180 C   0  0  0  0  0  0  0  0  0  0  0  0
  139.2330   75.2840  222.2340 C   0  0  0  0  0  0  0  0  0  0  0  0
  140.0750   75.0860  221.0930 N   0  0  0  0  0  0  0  0  0  0  0  0
  140.9460   73.9800  220.9080 C   0  0  0  0  0  0  0  0  0  0  0  0
  141.6880   73.8710  219.8710 O   0  0  0  0  0  0  0  0  0  0  0  0
  141.0700   72.8700  221.8900 C   0  0  2  0  0  0  0  0  0  0  0  0
  141.9110   71.8000  221.3430 N   0  0  0  0  0  0  0  0  0  0  0  0
  139.7160   72.2110  222.1310 C   0  0  0  0  0  0  0  0  0  0  0  0
  139.7660   71.4150  223.4090 C   0  0  0  0  0  0  0  0  0  0  0  0
  139.1680   70.1710  223.4320 C   0  0  0  0  0  0  0  0  0  0  0  0
  139.1520   69.3560  224.5420 C   0  0  0  0  0  0  0  0  0  0  0  0
  139.7770   69.8400  225.6800 C   0  0  0  0  0  0  0  0  0  0  0  0
  139.7550   69.0160  226.7890 C   0  0  0  0  0  0  0  0  0  0  0  0
  140.3620   69.4380  227.9620 C   0  0  0  0  0  0  0  0  0  0  0  0
  140.3450   68.6270  229.0700 F   0  0  0  0  0  0  0  0  0  0  0  0
  140.9650   70.6730  227.9650 C   0  0  0  0  0  0  0  0  0  0  0  0
  140.9900   71.5040  226.8560 C   0  0  0  0  0  0  0  0  0  0  0  0
  140.3810   71.0790  225.6840 C   0  0  0  0  0  0  0  0  0  0  0  0
  140.3810   71.8820  224.5440 C   0  0  0  0  0  0  0  0  0  0  0  0
  140.0370   76.0840  220.0380 C   0  0  0  0  0  0  0  0  0  0  0  0
  140.2650   77.4290  220.6660 C   0  0  0  0  0  0  0  0  0  0  0  0
  137.6589   80.5736  225.2788 H   0  0  0  0  0  0  0  0  0  0  0  0
  139.0359   80.7453  224.1381 H   0  0  0  0  0  0  0  0  0  0  0  0
  137.7127   81.9602  224.1381 H   0  0  0  0  0  0  0  0  0  0  0  0
  136.9925   79.0762  223.6461 H   0  0  0  0  0  0  0  0  0  0  0  0
  136.2548   80.5781  222.9916 H   0  0  0  0  0  0  0  0  0  0  0  0
  140.7505   80.6481  220.6846 H   0  0  0  0  0  0  0  0  0  0  0  0
  142.9661   81.5367  221.3767 H   0  0  0  0  0  0  0  0  0  0  0  0
  143.8869   80.8867  223.6259 H   0  0  0  0  0  0  0  0  0  0  0  0
  142.5829   79.3880  225.1092 H   0  0  0  0  0  0  0  0  0  0  0  0
  140.3553   78.5033  224.3926 H   0  0  0  0  0  0  0  0  0  0  0  0
  138.1138   77.5537  221.0755 H   0  0  0  0  0  0  0  0  0  0  0  0
  140.0673   76.9334  223.3081 H   0  0  0  0  0  0  0  0  0  0  0  0
  138.2551   76.8247  223.3263 H   0  0  0  0  0  0  0  0  0  0  0  0
  139.6147   74.6604  223.0558 H   0  0  0  0  0  0  0  0  0  0  0  0
  138.2141   75.0080  221.9246 H   0  0  0  0  0  0  0  0  0  0  0  0
  141.4879   73.3062  222.8093 H   0  0  0  0  0  0  0  0  0  0  0  0
  142.6770   72.1630  220.7470 H   0  0  0  0  0  0  0  0  0  0  0  0
  141.3480   71.0450  220.9310 H   0  0  0  0  0  0  0  0  0  0  0  0
  138.9399   72.9863  222.2119 H   0  0  0  0  0  0  0  0  0  0  0  0
  139.4790   71.5417  221.2909 H   0  0  0  0  0  0  0  0  0  0  0  0
  138.6782   69.8116  222.5150 H   0  0  0  0  0  0  0  0  0  0  0  0
  138.6667   68.3690  224.5260 H   0  0  0  0  0  0  0  0  0  0  0  0
  139.2606   68.0345  226.7417 H   0  0  0  0  0  0  0  0  0  0  0  0
  141.4501   71.0178  228.8901 H   0  0  0  0  0  0  0  0  0  0  0  0
  141.4850   72.4852  226.9043 H   0  0  0  0  0  0  0  0  0  0  0  0
  140.8642   72.8701  224.5540 H   0  0  0  0  0  0  0  0  0  0  0  0
  140.8260   75.8777  219.2998 H   0  0  0  0  0  0  0  0  0  0  0  0
  139.0648   76.0611  219.5240 H   0  0  0  0  0  0  0  0  0  0  0  0
  141.1984   77.4220  221.2480 H   0  0  0  0  0  0  0  0  0  0  0  0
  140.3542   78.2128  219.8994 H   0  0  0  0  0  0  0  0  0  0  0  0
  1  2  1  0
  2  3  1  0
  3  4  2  0
  3  5  1  0
  5  6  1  0
  6  7  2  0
  7  8  1  0
  8  9  2  0
  9 10  1  0
 10 11  2  0
  5 12  1  0
 12 13  1  0
 13 14  1  0
 14 15  1  0
 15 16  1  0
 16 17  2  0
 16 18  1  0
 18 19  1  0
 18 20  1  0
 20 21  1  0
 21 22  2  0
 22 23  1  0
 23 24  2  0
 24 25  1  0
 25 26  2  0
 26 27  1  0
 26 28  1  0
 28 29  2  0
 29 30  1  0
 30 31  2  0
 15 32  1  0
 32 33  1  0
 11  6  1  0
 33 12  1  0
 31 21  1  0
 30 24  1  0
  1 34  1  0
  1 35  1  0
  1 36  1  0
  2 37  1  0
  2 38  1  0
  7 39  1  0
  8 40  1  0
  9 41  1  0
 10 42  1  0
 11 43  1  0
 12 44  1  0
 13 45  1  0
 13 46  1  0
 14 47  1  0
 14 48  1  0
 18 49  1  1
 19 50  1  0
 19 51  1  0
 20 52  1  0
 20 53  1  0
 22 54  1  0
 23 55  1  0
 25 56  1  0
 28 57  1  0
 29 58  1  0
 31 59  1  0
 32 60  1  0
 32 61  1  0
 33 62  1  0
 33 63  1  0
M  END
>  <smiles>  (14) 
CCC(=O)N(c1ccccc1)C1CCN(C(=O)[C@H](N)Cc2ccc3cc(F)ccc3c2)CC1

>  <score_type>  (14) 
oracle

>  <origin>  (14) 
autodockgpu

>  <m_score__min__energy>  (14) 
-8.7699999999999996

>  <m_primary>  (14) 
energy

>  <rmsd>  (14) 
5.688307930094811

>  <m_score__min__rmsd>  (14) 
5.688307930094811

>  <meeko>  (14) 
{"free_energy": -7.92, "intermolecular_energy": -10.3, "internal_energy": -2.25, "cluster_size": 26, "cluster_id": 1, "rank_in_cluster": 14}

>  <energy>  (14) 
-7.92

>  <cluster_rmsd>  (14) 
1.39

>  <cluster>  (14) 
1

$$$$

     RDKit          3D

 63 66  0  0  0  0  0  0  0  0999 V2000
  142.5430   80.9970  218.0860 C   0  0  0  0  0  0  0  0  0  0  0  0
  141.4380   79.9750  218.2760 C   0  0  0  0  0  0  0  0  0  0  0  0
  141.9490   78.8300  219.0910 C   0  0  0  0  0  0  0  0  0  0  0  0
  142.8680   78.1540  218.6040 O   0  0  0  0  0  0  0  0  0  0  0  0
  141.3580   78.5790  220.3710 N   0  0  0  0  0  0  0  0  0  0  0  0
  141.5590   79.5070  221.4490 C   0  0  0  0  0  0  0  0  0  0  0  0
  140.6970   80.5880  221.5460 C   0  0  0  0  0  0  0  0  0  0  0  0
  140.8190   81.5290  222.5560 C   0  0  0  0  0  0  0  0  0  0  0  0
  141.8460   81.3670  223.4950 C   0  0  0  0  0  0  0  0  0  0  0  0
  142.7090   80.2830  223.3990 C   0  0  0  0  0  0  0  0  0  0  0  0
  142.5750   79.3400  222.3730 C   0  0  0  0  0  0  0  0  0  0  0  0
  140.5520   77.4160  220.6400 C   0  0  0  0  0  0  0  0  0  0  0  0
  141.0790   76.6050  221.7900 C   0  0  0  0  0  0  0  0  0  0  0  0
  140.3160   75.3110  221.9690 C   0  0  0  0  0  0  0  0  0  0  0  0
  139.9910   74.6430  220.7460 N   0  0  0  0  0  0  0  0  0  0  0  0
  140.0550   73.2390  220.5450 C   0  0  0  0  0  0  0  0  0  0  0  0
  139.7690   72.7040  219.4180 O   0  0  0  0  0  0  0  0  0  0  0  0
  140.4550   72.2830  221.6110 C   0  0  2  0  0  0  0  0  0  0  0  0
  141.0180   71.0650  221.0170 N   0  0  0  0  0  0  0  0  0  0  0  0
  139.2350   71.8040  222.3900 C   0  0  0  0  0  0  0  0  0  0  0  0
  139.6780   71.2000  223.6970 C   0  0  0  0  0  0  0  0  0  0  0  0
  140.5670   71.9070  224.4800 C   0  0  0  0  0  0  0  0  0  0  0  0
  141.0400   71.4530  225.6920 C   0  0  0  0  0  0  0  0  0  0  0  0
  140.5790   70.2190  226.1190 C   0  0  0  0  0  0  0  0  0  0  0  0
  141.0590   69.7720  227.3350 C   0  0  0  0  0  0  0  0  0  0  0  0
  140.6400   68.5430  227.8220 C   0  0  0  0  0  0  0  0  0  0  0  0
  141.1110   68.0900  229.0280 F   0  0  0  0  0  0  0  0  0  0  0  0
  139.7540   67.8190  227.0600 C   0  0  0  0  0  0  0  0  0  0  0  0
  139.2690   68.2620  225.8390 C   0  0  0  0  0  0  0  0  0  0  0  0
  139.6910   69.4920  225.3550 C   0  0  0  0  0  0  0  0  0  0  0  0
  139.2300   69.9770  224.1310 C   0  0  0  0  0  0  0  0  0  0  0  0
  139.5580   75.4550  219.6210 C   0  0  0  0  0  0  0  0  0  0  0  0
  140.5820   76.5320  219.4070 C   0  0  0  0  0  0  0  0  0  0  0  0
  142.9054   81.3322  219.0690 H   0  0  0  0  0  0  0  0  0  0  0  0
  143.3722   80.5406  217.5256 H   0  0  0  0  0  0  0  0  0  0  0  0
  142.1525   81.8593  217.5256 H   0  0  0  0  0  0  0  0  0  0  0  0
  140.5901   80.4449  218.7959 H   0  0  0  0  0  0  0  0  0  0  0  0
  141.1085   79.6060  217.2935 H   0  0  0  0  0  0  0  0  0  0  0  0
  139.8950   80.7020  220.8018 H   0  0  0  0  0  0  0  0  0  0  0  0
  140.1269   82.3817  222.6188 H   0  0  0  0  0  0  0  0  0  0  0  0
  141.9688   82.0979  224.3078 H   0  0  0  0  0  0  0  0  0  0  0  0
  143.5115   80.1634  224.1418 H   0  0  0  0  0  0  0  0  0  0  0  0
  143.2629   78.4845  222.3030 H   0  0  0  0  0  0  0  0  0  0  0  0
  139.5385   77.7591  220.8950 H   0  0  0  0  0  0  0  0  0  0  0  0
  142.1373   76.3701  221.6032 H   0  0  0  0  0  0  0  0  0  0  0  0
  140.9588   77.1995  222.7077 H   0  0  0  0  0  0  0  0  0  0  0  0
  140.9289   74.6318  222.5798 H   0  0  0  0  0  0  0  0  0  0  0  0
  139.3607   75.5731  222.4473 H   0  0  0  0  0  0  0  0  0  0  0  0
  141.1759   72.8100  222.2534 H   0  0  0  0  0  0  0  0  0  0  0  0
  141.0980   71.1280  219.9860 H   0  0  0  0  0  0  0  0  0  0  0  0
  140.5580   70.2190  221.3750 H   0  0  0  0  0  0  0  0  0  0  0  0
  138.5684   72.6564  222.5875 H   0  0  0  0  0  0  0  0  0  0  0  0
  138.6978   71.0468  221.8000 H   0  0  0  0  0  0  0  0  0  0  0  0
  140.9168   72.8849  224.1176 H   0  0  0  0  0  0  0  0  0  0  0  0
  141.7495   72.0424  226.2914 H   0  0  0  0  0  0  0  0  0  0  0  0
  141.7671   70.3854  227.9116 H   0  0  0  0  0  0  0  0  0  0  0  0
  139.4141   66.8429  227.4364 H   0  0  0  0  0  0  0  0  0  0  0  0
  138.5609   67.6481  225.2631 H   0  0  0  0  0  0  0  0  0  0  0  0
  138.5221   69.3915  223.5260 H   0  0  0  0  0  0  0  0  0  0  0  0
  139.4780   74.8309  218.7187 H   0  0  0  0  0  0  0  0  0  0  0  0
  138.5726   75.8989  219.8260 H   0  0  0  0  0  0  0  0  0  0  0  0
  141.5803   76.0865  219.2845 H   0  0  0  0  0  0  0  0  0  0  0  0
  140.3607   77.1126  218.4993 H   0  0  0  0  0  0  0  0  0  0  0  0
  1  2  1  0
  2  3  1  0
  3  4  2  0
  3  5  1  0
  5  6  1  0
  6  7  2  0
  7  8  1  0
  8  9  2  0
  9 10  1  0
 10 11  2  0
  5 12  1  0
 12 13  1  0
 13 14  1  0
 14 15  1  0
 15 16  1  0
 16 17  2  0
 16 18  1  0
 18 19  1  0
 18 20  1  0
 20 21  1  0
 21 22  2  0
 22 23  1  0
 23 24  2  0
 24 25  1  0
 25 26  2  0
 26 27  1  0
 26 28  1  0
 28 29  2  0
 29 30  1  0
 30 31  2  0
 15 32  1  0
 32 33  1  0
 11  6  1  0
 33 12  1  0
 31 21  1  0
 30 24  1  0
  1 34  1  0
  1 35  1  0
  1 36  1  0
  2 37  1  0
  2 38  1  0
  7 39  1  0
  8 40  1  0
  9 41  1  0
 10 42  1  0
 11 43  1  0
 12 44  1  0
 13 45  1  0
 13 46  1  0
 14 47  1  0
 14 48  1  0
 18 49  1  1
 19 50  1  0
 19 51  1  0
 20 52  1  0
 20 53  1  0
 22 54  1  0
 23 55  1  0
 25 56  1  0
 28 57  1  0
 29 58  1  0
 31 59  1  0
 32 60  1  0
 32 61  1  0
 33 62  1  0
 33 63  1  0
M  END
>  <smiles>  (15) 
CCC(=O)N(c1ccccc1)C1CCN(C(=O)[C@H](N)Cc2ccc3cc(F)ccc3c2)CC1

>  <score_type>  (15) 
oracle

>  <origin>  (15) 
autodockgpu

>  <m_score__min__energy>  (15) 
-8.7699999999999996

>  <m_primary>  (15) 
energy

>  <rmsd>  (15) 
6.03008583808441

>  <m_score__min__rmsd>  (15) 
6.03008583808441

>  <meeko>  (15) 
{"free_energy": -7.92, "intermolecular_energy": -10.31, "internal_energy": -2.15, "cluster_size": 20, "cluster_id": 3, "rank_in_cluster": 11}

>  <energy>  (15) 
-7.92

>  <cluster_rmsd>  (15) 
1.36

>  <cluster>  (15) 
1

$$$$

     RDKit          3D

 63 66  0  0  0  0  0  0  0  0999 V2000
  142.3660   81.1820  218.1800 C   0  0  0  0  0  0  0  0  0  0  0  0
  141.2240   80.2750  218.5960 C   0  0  0  0  0  0  0  0  0  0  0  0
  141.7660   79.0930  219.3350 C   0  0  0  0  0  0  0  0  0  0  0  0
  142.6380   78.4200  218.7650 O   0  0  0  0  0  0  0  0  0  0  0  0
  141.2550   78.8060  220.6420 N   0  0  0  0  0  0  0  0  0  0  0  0
  141.5750   79.6710  221.7440 C   0  0  0  0  0  0  0  0  0  0  0  0
  140.7050   80.7100  222.0290 C   0  0  0  0  0  0  0  0  0  0  0  0
  140.9360   81.5890  223.0750 C   0  0  0  0  0  0  0  0  0  0  0  0
  142.0870   81.4070  223.8540 C   0  0  0  0  0  0  0  0  0  0  0  0
  142.9590   80.3650  223.5690 C   0  0  0  0  0  0  0  0  0  0  0  0
  142.7120   79.4850  222.5090 C   0  0  0  0  0  0  0  0  0  0  0  0
  140.4170   77.6670  220.9170 C   0  0  0  0  0  0  0  0  0  0  0  0
  140.8460   76.9200  222.1480 C   0  0  0  0  0  0  0  0  0  0  0  0
  140.0560   75.6460  222.3430 C   0  0  0  0  0  0  0  0  0  0  0  0
  139.8150   74.9100  221.1390 N   0  0  0  0  0  0  0  0  0  0  0  0
  139.8770   73.4960  221.0240 C   0  0  0  0  0  0  0  0  0  0  0  0
  139.6690   72.8990  219.9120 O   0  0  0  0  0  0  0  0  0  0  0  0
  140.1840   72.6010  222.1720 C   0  0  2  0  0  0  0  0  0  0  0  0
  141.0000   71.4660  221.7260 N   0  0  0  0  0  0  0  0  0  0  0  0
  138.9090   71.9680  222.7170 C   0  0  0  0  0  0  0  0  0  0  0  0
  139.2490   71.0760  223.8820 C   0  0  0  0  0  0  0  0  0  0  0  0
  138.9090   69.7410  223.8100 C   0  0  0  0  0  0  0  0  0  0  0  0
  139.1710   68.8340  224.8130 C   0  0  0  0  0  0  0  0  0  0  0  0
  139.8100   69.3200  225.9420 C   0  0  0  0  0  0  0  0  0  0  0  0
  140.0670   68.4040  226.9430 C   0  0  0  0  0  0  0  0  0  0  0  0
  140.7040   68.8230  228.1020 C   0  0  0  0  0  0  0  0  0  0  0  0
  140.9640   67.9210  229.1030 F   0  0  0  0  0  0  0  0  0  0  0  0
  141.0530   70.1490  228.1990 C   0  0  0  0  0  0  0  0  0  0  0  0
  140.7970   71.0730  227.1980 C   0  0  0  0  0  0  0  0  0  0  0  0
  140.1590   70.6510  226.0400 C   0  0  0  0  0  0  0  0  0  0  0  0
  139.8810   71.5450  225.0070 C   0  0  0  0  0  0  0  0  0  0  0  0
  139.4790   75.6580  219.9400 C   0  0  0  0  0  0  0  0  0  0  0  0
  140.5290   76.7130  219.7420 C   0  0  0  0  0  0  0  0  0  0  0  0
  142.8649   81.5782  219.0767 H   0  0  0  0  0  0  0  0  0  0  0  0
  143.0893   80.6095  217.5808 H   0  0  0  0  0  0  0  0  0  0  0  0
  141.9721   82.0161  217.5808 H   0  0  0  0  0  0  0  0  0  0  0  0
  140.5346   80.8303  219.2489 H   0  0  0  0  0  0  0  0  0  0  0  0
  140.6860   79.9307  217.7005 H   0  0  0  0  0  0  0  0  0  0  0  0
  139.8063   80.8411  221.4083 H   0  0  0  0  0  0  0  0  0  0  0  0
  140.2341   82.4086  223.2885 H   0  0  0  0  0  0  0  0  0  0  0  0
  142.2992   82.0892  224.6904 H   0  0  0  0  0  0  0  0  0  0  0  0
  143.8590   80.2287  224.1865 H   0  0  0  0  0  0  0  0  0  0  0  0
  143.4081   78.6622  222.2889 H   0  0  0  0  0  0  0  0  0  0  0  0
  139.3916   78.0322  221.0759 H   0  0  0  0  0  0  0  0  0  0  0  0
  141.9122   76.6658  222.0553 H   0  0  0  0  0  0  0  0  0  0  0  0
  140.6649   77.5679  223.0183 H   0  0  0  0  0  0  0  0  0  0  0  0
  140.6127   74.9986  223.0365 H   0  0  0  0  0  0  0  0  0  0  0  0
  139.0710   75.9436  222.7318 H   0  0  0  0  0  0  0  0  0  0  0  0
  140.6951   73.2176  222.9260 H   0  0  0  0  0  0  0  0  0  0  0  0
  141.0730   71.4110  220.6940 H   0  0  0  0  0  0  0  0  0  0  0  0
  140.7310   70.5940  222.1990 H   0  0  0  0  0  0  0  0  0  0  0  0
  138.2203   72.7587  223.0495 H   0  0  0  0  0  0  0  0  0  0  0  0
  138.4291   71.3719  221.9268 H   0  0  0  0  0  0  0  0  0  0  0  0
  138.4013   69.3815  222.9028 H   0  0  0  0  0  0  0  0  0  0  0  0
  138.8867   67.7753  224.7220 H   0  0  0  0  0  0  0  0  0  0  0  0
  139.7694   67.3519  226.8225 H   0  0  0  0  0  0  0  0  0  0  0  0
  141.5588   70.4928  229.1133 H   0  0  0  0  0  0  0  0  0  0  0  0
  141.0950   72.1249  227.3196 H   0  0  0  0  0  0  0  0  0  0  0  0
  140.1624   72.6050  225.0916 H   0  0  0  0  0  0  0  0  0  0  0  0
  139.4599   74.9828  219.0718 H   0  0  0  0  0  0  0  0  0  0  0  0
  138.4867   76.1211  220.0440 H   0  0  0  0  0  0  0  0  0  0  0  0
  141.5283   76.2538  219.7207 H   0  0  0  0  0  0  0  0  0  0  0  0
  140.3834   77.2416  218.7884 H   0  0  0  0  0  0  0  0  0  0  0  0
  1  2  1  0
  2  3  1  0
  3  4  2  0
  3  5  1  0
  5  6  1  0
  6  7  2  0
  7  8  1  0
  8  9  2  0
  9 10  1  0
 10 11  2  0
  5 12  1  0
 12 13  1  0
 13 14  1  0
 14 15  1  0
 15 16  1  0
 16 17  2  0
 16 18  1  0
 18 19  1  0
 18 20  1  0
 20 21  1  0
 21 22  2  0
 22 23  1  0
 23 24  2  0
 24 25  1  0
 25 26  2  0
 26 27  1  0
 26 28  1  0
 28 29  2  0
 29 30  1  0
 30 31  2  0
 15 32  1  0
 32 33  1  0
 11  6  1  0
 33 12  1  0
 31 21  1  0
 30 24  1  0
  1 34  1  0
  1 35  1  0
  1 36  1  0
  2 37  1  0
  2 38  1  0
  7 39  1  0
  8 40  1  0
  9 41  1  0
 10 42  1  0
 11 43  1  0
 12 44  1  0
 13 45  1  0
 13 46  1  0
 14 47  1  0
 14 48  1  0
 18 49  1  1
 19 50  1  0
 19 51  1  0
 20 52  1  0
 20 53  1  0
 22 54  1  0
 23 55  1  0
 25 56  1  0
 28 57  1  0
 29 58  1  0
 31 59  1  0
 32 60  1  0
 32 61  1  0
 33 62  1  0
 33 63  1  0
M  END
>  <smiles>  (16) 
CCC(=O)N(c1ccccc1)C1CCN(C(=O)[C@H](N)Cc2ccc3cc(F)ccc3c2)CC1

>  <score_type>  (16) 
oracle

>  <origin>  (16) 
autodockgpu

>  <m_score__min__energy>  (16) 
-8.7699999999999996

>  <m_primary>  (16) 
energy

>  <rmsd>  (16) 
6.009449551683777

>  <m_score__min__rmsd>  (16) 
6.009449551683777

>  <meeko>  (16) 
{"free_energy": -8.03, "intermolecular_energy": -10.42, "internal_energy": -2.08, "cluster_size": 20, "cluster_id": 3, "rank_in_cluster": 9}

>  <energy>  (16) 
-7.91

>  <cluster_rmsd>  (16) 
1.39

>  <cluster>  (16) 
1

$$$$

     RDKit          3D

 63 66  0  0  0  0  0  0  0  0999 V2000
  137.9100   81.5220  223.1020 C   0  0  0  0  0  0  0  0  0  0  0  0
  138.1770   80.2660  223.9110 C   0  0  0  0  0  0  0  0  0  0  0  0
  138.1170   79.0710  223.0130 C   0  0  0  0  0  0  0  0  0  0  0  0
  136.9980   78.5820  222.7960 O   0  0  0  0  0  0  0  0  0  0  0  0
  139.3370   78.5620  222.4630 N   0  0  0  0  0  0  0  0  0  0  0  0
  140.5510   79.3220  222.5830 C   0  0  0  0  0  0  0  0  0  0  0  0
  141.3770   79.0620  223.6650 C   0  0  0  0  0  0  0  0  0  0  0  0
  142.5660   79.7470  223.8560 C   0  0  0  0  0  0  0  0  0  0  0  0
  142.9270   80.7260  222.9190 C   0  0  0  0  0  0  0  0  0  0  0  0
  142.1000   80.9860  221.8350 C   0  0  0  0  0  0  0  0  0  0  0  0
  140.9010   80.2860  221.6550 C   0  0  0  0  0  0  0  0  0  0  0  0
  139.4140   77.2980  221.7780 C   0  0  0  0  0  0  0  0  0  0  0  0
  139.3370   76.1280  222.7170 C   0  0  0  0  0  0  0  0  0  0  0  0
  139.5670   74.8130  222.0070 C   0  0  0  0  0  0  0  0  0  0  0  0
  140.6130   74.8450  221.0300 N   0  0  0  0  0  0  0  0  0  0  0  0
  141.5610   73.8080  220.8190 C   0  0  0  0  0  0  0  0  0  0  0  0
  142.4850   73.9070  219.9400 O   0  0  0  0  0  0  0  0  0  0  0  0
  141.5600   72.5370  221.5920 C   0  0  2  0  0  0  0  0  0  0  0  0
  142.2880   71.4970  220.8570 N   0  0  0  0  0  0  0  0  0  0  0  0
  140.1430   71.9920  221.7300 C   0  0  0  0  0  0  0  0  0  0  0  0
  139.9770   71.3610  223.0880 C   0  0  0  0  0  0  0  0  0  0  0  0
  139.1840   70.2380  223.1980 C   0  0  0  0  0  0  0  0  0  0  0  0
  138.9610   69.5780  224.3870 C   0  0  0  0  0  0  0  0  0  0  0  0
  139.5810   70.0960  225.5130 C   0  0  0  0  0  0  0  0  0  0  0  0
  139.3510   69.4280  226.7000 C   0  0  0  0  0  0  0  0  0  0  0  0
  139.9410   69.8930  227.8660 C   0  0  0  0  0  0  0  0  0  0  0  0
  139.7190   69.2370  229.0520 F   0  0  0  0  0  0  0  0  0  0  0  0
  140.7360   71.0110  227.7830 C   0  0  0  0  0  0  0  0  0  0  0  0
  140.9700   71.6850  226.5950 C   0  0  0  0  0  0  0  0  0  0  0  0
  140.3790   71.2180  225.4290 C   0  0  0  0  0  0  0  0  0  0  0  0
  140.5850   71.8640  224.2120 C   0  0  0  0  0  0  0  0  0  0  0  0
  140.7180   76.0210  220.1840 C   0  0  0  0  0  0  0  0  0  0  0  0
  140.7560   77.2300  221.0740 C   0  0  0  0  0  0  0  0  0  0  0  0
  137.7305   82.3662  223.7840 H   0  0  0  0  0  0  0  0  0  0  0  0
  138.7815   81.7418  222.4678 H   0  0  0  0  0  0  0  0  0  0  0  0
  137.0245   81.3683  222.4678 H   0  0  0  0  0  0  0  0  0  0  0  0
  139.1750   80.3304  224.3691 H   0  0  0  0  0  0  0  0  0  0  0  0
  137.4164   80.1699  224.6998 H   0  0  0  0  0  0  0  0  0  0  0  0
  141.0807   78.2911  224.3916 H   0  0  0  0  0  0  0  0  0  0  0  0
  143.2103   79.5286  224.7204 H   0  0  0  0  0  0  0  0  0  0  0  0
  143.8648   81.2874  223.0430 H   0  0  0  0  0  0  0  0  0  0  0  0
  142.3917   81.7553  221.1048 H   0  0  0  0  0  0  0  0  0  0  0  0
  140.2508   80.4983  220.7935 H   0  0  0  0  0  0  0  0  0  0  0  0
  138.5632   77.2388  221.0833 H   0  0  0  0  0  0  0  0  0  0  0  0
  140.1028   76.2485  223.4974 H   0  0  0  0  0  0  0  0  0  0  0  0
  138.3260   76.1070  223.1499 H   0  0  0  0  0  0  0  0  0  0  0  0
  139.8236   74.0547  222.7614 H   0  0  0  0  0  0  0  0  0  0  0  0
  138.6379   74.5811  221.4657 H   0  0  0  0  0  0  0  0  0  0  0  0
  142.0142   72.7597  222.5688 H   0  0  0  0  0  0  0  0  0  0  0  0
  142.9540   71.8900  220.1690 H   0  0  0  0  0  0  0  0  0  0  0  0
  141.6550   70.7710  220.4980 H   0  0  0  0  0  0  0  0  0  0  0  0
  139.4213   72.8145  221.6173 H   0  0  0  0  0  0  0  0  0  0  0  0
  139.9634   71.2368  220.9506 H   0  0  0  0  0  0  0  0  0  0  0  0
  138.7040   69.8484  222.2882 H   0  0  0  0  0  0  0  0  0  0  0  0
  138.3223   68.6840  224.4397 H   0  0  0  0  0  0  0  0  0  0  0  0
  138.7067   68.5367  226.7203 H   0  0  0  0  0  0  0  0  0  0  0  0
  141.2083   71.3882  228.7020 H   0  0  0  0  0  0  0  0  0  0  0  0
  141.6142   72.5764  226.5762 H   0  0  0  0  0  0  0  0  0  0  0  0
  141.2218   72.7589  224.1526 H   0  0  0  0  0  0  0  0  0  0  0  0
  141.6392   75.9691  219.5850 H   0  0  0  0  0  0  0  0  0  0  0  0
  139.8592   76.0772  219.4989 H   0  0  0  0  0  0  0  0  0  0  0  0
  141.5661   77.1320  221.8116 H   0  0  0  0  0  0  0  0  0  0  0  0
  140.9427   78.1438  220.4908 H   0  0  0  0  0  0  0  0  0  0  0  0
  1  2  1  0
  2  3  1  0
  3  4  2  0
  3  5  1  0
  5  6  1  0
  6  7  2  0
  7  8  1  0
  8  9  2  0
  9 10  1  0
 10 11  2  0
  5 12  1  0
 12 13  1  0
 13 14  1  0
 14 15  1  0
 15 16  1  0
 16 17  2  0
 16 18  1  0
 18 19  1  0
 18 20  1  0
 20 21  1  0
 21 22  2  0
 22 23  1  0
 23 24  2  0
 24 25  1  0
 25 26  2  0
 26 27  1  0
 26 28  1  0
 28 29  2  0
 29 30  1  0
 30 31  2  0
 15 32  1  0
 32 33  1  0
 11  6  1  0
 33 12  1  0
 31 21  1  0
 30 24  1  0
  1 34  1  0
  1 35  1  0
  1 36  1  0
  2 37  1  0
  2 38  1  0
  7 39  1  0
  8 40  1  0
  9 41  1  0
 10 42  1  0
 11 43  1  0
 12 44  1  0
 13 45  1  0
 13 46  1  0
 14 47  1  0
 14 48  1  0
 18 49  1  1
 19 50  1  0
 19 51  1  0
 20 52  1  0
 20 53  1  0
 22 54  1  0
 23 55  1  0
 25 56  1  0
 28 57  1  0
 29 58  1  0
 31 59  1  0
 32 60  1  0
 32 61  1  0
 33 62  1  0
 33 63  1  0
M  END
>  <smiles>  (17) 
CCC(=O)N(c1ccccc1)C1CCN(C(=O)[C@H](N)Cc2ccc3cc(F)ccc3c2)CC1

>  <score_type>  (17) 
oracle

>  <origin>  (17) 
autodockgpu

>  <m_score__min__energy>  (17) 
-8.7699999999999996

>  <m_primary>  (17) 
energy

>  <rmsd>  (17) 
5.763194929308993

>  <m_score__min__rmsd>  (17) 
5.763194929308993

>  <meeko>  (17) 
{"free_energy": -8.04, "intermolecular_energy": -10.42, "internal_energy": -2.1, "cluster_size": 26, "cluster_id": 1, "rank_in_cluster": 11}

>  <energy>  (17) 
-7.9

>  <cluster_rmsd>  (17) 
1.35

>  <cluster>  (17) 
1

$$$$

     RDKit          3D

 63 66  0  0  0  0  0  0  0  0999 V2000
  138.0460   80.4970  224.0220 C   0  0  0  0  0  0  0  0  0  0  0  0
  137.8510   79.8930  222.6450 C   0  0  0  0  0  0  0  0  0  0  0  0
  138.2190   78.4430  222.6770 C   0  0  0  0  0  0  0  0  0  0  0  0
  137.3610   77.6500  223.0940 O   0  0  0  0  0  0  0  0  0  0  0  0
  139.5240   78.0550  222.2330 N   0  0  0  0  0  0  0  0  0  0  0  0
  140.6580   78.8910  222.5180 C   0  0  0  0  0  0  0  0  0  0  0  0
  141.1020   78.9590  223.8290 C   0  0  0  0  0  0  0  0  0  0  0  0
  142.1890   79.7390  224.1910 C   0  0  0  0  0  0  0  0  0  0  0  0
  142.8440   80.4710  223.1920 C   0  0  0  0  0  0  0  0  0  0  0  0
  142.4000   80.4020  221.8780 C   0  0  0  0  0  0  0  0  0  0  0  0
  141.3000   79.6110  221.5270 C   0  0  0  0  0  0  0  0  0  0  0  0
  139.7660   76.8420  221.4950 C   0  0  0  0  0  0  0  0  0  0  0  0
  138.6890   75.8160  221.7050 C   0  0  0  0  0  0  0  0  0  0  0  0
  139.0260   74.4960  221.0490 C   0  0  0  0  0  0  0  0  0  0  0  0
  140.3940   74.0990  221.1900 N   0  0  0  0  0  0  0  0  0  0  0  0
  140.8330   72.7720  221.4440 C   0  0  0  0  0  0  0  0  0  0  0  0
  142.0730   72.4850  221.5780 O   0  0  0  0  0  0  0  0  0  0  0  0
  139.9030   71.6200  221.5740 C   0  0  2  0  0  0  0  0  0  0  0  0
  139.0500   71.5190  220.3840 N   0  0  0  0  0  0  0  0  0  0  0  0
  138.9300   71.8400  222.7280 C   0  0  0  0  0  0  0  0  0  0  0  0
  139.4720   71.1880  223.9730 C   0  0  0  0  0  0  0  0  0  0  0  0
  140.4350   71.8580  224.7000 C   0  0  0  0  0  0  0  0  0  0  0  0
  141.0010   71.3600  225.8530 C   0  0  0  0  0  0  0  0  0  0  0  0
  140.5580   70.1190  226.2790 C   0  0  0  0  0  0  0  0  0  0  0  0
  141.1310   69.6270  227.4360 C   0  0  0  0  0  0  0  0  0  0  0  0
  140.7340   68.3900  227.9190 C   0  0  0  0  0  0  0  0  0  0  0  0
  141.2980   67.8920  229.0670 F   0  0  0  0  0  0  0  0  0  0  0  0
  139.7750   67.7020  227.2130 C   0  0  0  0  0  0  0  0  0  0  0  0
  139.1960   68.1900  226.0520 C   0  0  0  0  0  0  0  0  0  0  0  0
  139.5960   69.4290  225.5710 C   0  0  0  0  0  0  0  0  0  0  0  0
  139.0420   69.9580  224.4070 C   0  0  0  0  0  0  0  0  0  0  0  0
  141.4170   75.1230  221.0600 C   0  0  0  0  0  0  0  0  0  0  0  0
  141.0690   76.2450  221.9940 C   0  0  0  0  0  0  0  0  0  0  0  0
  137.8038   79.7468  224.7891 H   0  0  0  0  0  0  0  0  0  0  0  0
  139.0926   80.8153  224.1379 H   0  0  0  0  0  0  0  0  0  0  0  0
  137.3831   81.3672  224.1379 H   0  0  0  0  0  0  0  0  0  0  0  0
  136.7977   79.9970  222.3453 H   0  0  0  0  0  0  0  0  0  0  0  0
  138.4928   80.4172  221.9216 H   0  0  0  0  0  0  0  0  0  0  0  0
  140.5780   78.3787  224.6027 H   0  0  0  0  0  0  0  0  0  0  0  0
  142.5288   79.7822  225.2363 H   0  0  0  0  0  0  0  0  0  0  0  0
  143.7093   81.0999  223.4483 H   0  0  0  0  0  0  0  0  0  0  0  0
  142.9216   80.9787  221.1000 H   0  0  0  0  0  0  0  0  0  0  0  0
  140.9532   79.5630  220.4842 H   0  0  0  0  0  0  0  0  0  0  0  0
  139.7948   77.0973  220.4254 H   0  0  0  0  0  0  0  0  0  0  0  0
  138.5603   75.6527  222.7852 H   0  0  0  0  0  0  0  0  0  0  0  0
  137.7644   76.1963  221.2462 H   0  0  0  0  0  0  0  0  0  0  0  0
  138.3933   73.7166  221.4987 H   0  0  0  0  0  0  0  0  0  0  0  0
  138.8456   74.6252  219.9716 H   0  0  0  0  0  0  0  0  0  0  0  0
  140.5266   70.7262  221.7230 H   0  0  0  0  0  0  0  0  0  0  0  0
  139.4320   72.0450  219.5780 H   0  0  0  0  0  0  0  0  0  0  0  0
  138.0630   71.7010  220.6060 H   0  0  0  0  0  0  0  0  0  0  0  0
  138.8068   72.9190  222.9031 H   0  0  0  0  0  0  0  0  0  0  0  0
  137.9558   71.3958  222.4759 H   0  0  0  0  0  0  0  0  0  0  0  0
  140.7684   72.8423  224.3395 H   0  0  0  0  0  0  0  0  0  0  0  0
  141.7674   71.9207  226.4082 H   0  0  0  0  0  0  0  0  0  0  0  0
  141.8953   70.2117  227.9689 H   0  0  0  0  0  0  0  0  0  0  0  0
  139.4526   66.7191  227.5869 H   0  0  0  0  0  0  0  0  0  0  0  0
  138.4315   67.6045  225.5202 H   0  0  0  0  0  0  0  0  0  0  0  0
  138.2758   69.4017  223.8471 H   0  0  0  0  0  0  0  0  0  0  0  0
  142.3992   74.7058  221.3268 H   0  0  0  0  0  0  0  0  0  0  0  0
  141.4636   75.4882  220.0234 H   0  0  0  0  0  0  0  0  0  0  0  0
  140.9424   75.8609  223.0169 H   0  0  0  0  0  0  0  0  0  0  0  0
  141.8670   77.0018  222.0168 H   0  0  0  0  0  0  0  0  0  0  0  0
  1  2  1  0
  2  3  1  0
  3  4  2  0
  3  5  1  0
  5  6  1  0
  6  7  2  0
  7  8  1  0
  8  9  2  0
  9 10  1  0
 10 11  2  0
  5 12  1  0
 12 13  1  0
 13 14  1  0
 14 15  1  0
 15 16  1  0
 16 17  2  0
 16 18  1  0
 18 19  1  0
 18 20  1  0
 20 21  1  0
 21 22  2  0
 22 23  1  0
 23 24  2  0
 24 25  1  0
 25 26  2  0
 26 27  1  0
 26 28  1  0
 28 29  2  0
 29 30  1  0
 30 31  2  0
 15 32  1  0
 32 33  1  0
 11  6  1  0
 33 12  1  0
 31 21  1  0
 30 24  1  0
  1 34  1  0
  1 35  1  0
  1 36  1  0
  2 37  1  0
  2 38  1  0
  7 39  1  0
  8 40  1  0
  9 41  1  0
 10 42  1  0
 11 43  1  0
 12 44  1  0
 13 45  1  0
 13 46  1  0
 14 47  1  0
 14 48  1  0
 18 49  1  1
 19 50  1  0
 19 51  1  0
 20 52  1  0
 20 53  1  0
 22 54  1  0
 23 55  1  0
 25 56  1  0
 28 57  1  0
 29 58  1  0
 31 59  1  0
 32 60  1  0
 32 61  1  0
 33 62  1  0
 33 63  1  0
M  END
>  <smiles>  (18) 
CCC(=O)N(c1ccccc1)C1CCN(C(=O)[C@H](N)Cc2ccc3cc(F)ccc3c2)CC1

>  <score_type>  (18) 
oracle

>  <origin>  (18) 
autodockgpu

>  <m_score__min__energy>  (18) 
-8.7699999999999996

>  <m_primary>  (18) 
energy

>  <rmsd>  (18) 
6.359726291129395

>  <m_score__min__rmsd>  (18) 
6.359726291129395

>  <meeko>  (18) 
{"free_energy": -8.62, "intermolecular_energy": -11.0, "internal_energy": -1.56, "cluster_size": 26, "cluster_id": 1, "rank_in_cluster": 8}

>  <energy>  (18) 
-7.9

>  <cluster_rmsd>  (18) 
1.4

>  <cluster>  (18) 
1

$$$$

     RDKit          3D

 63 66  0  0  0  0  0  0  0  0999 V2000
  137.9500   79.7690  220.4040 C   0  0  0  0  0  0  0  0  0  0  0  0
  137.6560   79.6460  221.8860 C   0  0  0  0  0  0  0  0  0  0  0  0
  138.1750   78.3380  222.3940 C   0  0  0  0  0  0  0  0  0  0  0  0
  137.4090   77.6580  223.0940 O   0  0  0  0  0  0  0  0  0  0  0  0
  139.5090   77.9480  222.0480 N   0  0  0  0  0  0  0  0  0  0  0  0
  140.6190   78.7840  222.4120 C   0  0  0  0  0  0  0  0  0  0  0  0
  141.2440   79.5070  221.4090 C   0  0  0  0  0  0  0  0  0  0  0  0
  142.3210   80.3390  221.6720 C   0  0  0  0  0  0  0  0  0  0  0  0
  142.7760   80.4390  222.9930 C   0  0  0  0  0  0  0  0  0  0  0  0
  142.1500   79.7150  223.9990 C   0  0  0  0  0  0  0  0  0  0  0  0
  141.0630   78.8780  223.7180 C   0  0  0  0  0  0  0  0  0  0  0  0
  139.8030   76.7300  221.3370 C   0  0  0  0  0  0  0  0  0  0  0  0
  138.7170   75.7010  221.4820 C   0  0  0  0  0  0  0  0  0  0  0  0
  139.1020   74.3780  220.8580 C   0  0  0  0  0  0  0  0  0  0  0  0
  140.4580   73.9870  221.0920 N   0  0  0  0  0  0  0  0  0  0  0  0
  140.8840   72.6640  221.3840 C   0  0  0  0  0  0  0  0  0  0  0  0
  142.1130   72.3820  221.6020 O   0  0  0  0  0  0  0  0  0  0  0  0
  139.9510   71.5090  221.4600 C   0  0  2  0  0  0  0  0  0  0  0  0
  139.1470   71.4240  220.2360 N   0  0  0  0  0  0  0  0  0  0  0  0
  138.9320   71.7120  222.5770 C   0  0  0  0  0  0  0  0  0  0  0  0
  139.4650   71.1220  223.8560 C   0  0  0  0  0  0  0  0  0  0  0  0
  140.3900   71.8480  224.5800 C   0  0  0  0  0  0  0  0  0  0  0  0
  140.9430   71.4090  225.7620 C   0  0  0  0  0  0  0  0  0  0  0  0
  140.5300   70.1700  226.2220 C   0  0  0  0  0  0  0  0  0  0  0  0
  141.0910   69.7380  227.4090 C   0  0  0  0  0  0  0  0  0  0  0  0
  140.7220   68.5060  227.9270 C   0  0  0  0  0  0  0  0  0  0  0  0
  141.2740   68.0670  229.1050 F   0  0  0  0  0  0  0  0  0  0  0  0
  139.8020   67.7640  227.2260 C   0  0  0  0  0  0  0  0  0  0  0  0
  139.2350   68.1910  226.0350 C   0  0  0  0  0  0  0  0  0  0  0  0
  139.6070   69.4250  225.5190 C   0  0  0  0  0  0  0  0  0  0  0  0
  139.0640   69.8950  224.3240 C   0  0  0  0  0  0  0  0  0  0  0  0
  141.4840   75.0140  221.0240 C   0  0  0  0  0  0  0  0  0  0  0  0
  141.0720   76.1410  221.9250 C   0  0  0  0  0  0  0  0  0  0  0  0
  138.9565   80.1901  220.2636 H   0  0  0  0  0  0  0  0  0  0  0  0
  137.9001   78.7745  219.9365 H   0  0  0  0  0  0  0  0  0  0  0  0
  137.2068   80.4316  219.9365 H   0  0  0  0  0  0  0  0  0  0  0  0
  138.1467   80.4691  222.4261 H   0  0  0  0  0  0  0  0  0  0  0  0
  136.5691   79.6954  222.0480 H   0  0  0  0  0  0  0  0  0  0  0  0
  140.8757   79.4184  220.3763 H   0  0  0  0  0  0  0  0  0  0  0  0
  142.8060   80.9063  220.8639 H   0  0  0  0  0  0  0  0  0  0  0  0
  143.6289   81.0908  223.2333 H   0  0  0  0  0  0  0  0  0  0  0  0
  142.5139   79.8003  225.0336 H   0  0  0  0  0  0  0  0  0  0  0  0
  140.5724   78.3069  224.5200 H   0  0  0  0  0  0  0  0  0  0  0  0
  139.9017   76.9781  220.2699 H   0  0  0  0  0  0  0  0  0  0  0  0
  138.5173   75.5440  222.5523 H   0  0  0  0  0  0  0  0  0  0  0  0
  137.8234   76.0749  220.9608 H   0  0  0  0  0  0  0  0  0  0  0  0
  138.4434   73.5989  221.2693 H   0  0  0  0  0  0  0  0  0  0  0  0
  138.9937   74.5004  219.7702 H   0  0  0  0  0  0  0  0  0  0  0  0
  140.5694   70.6137  221.6211 H   0  0  0  0  0  0  0  0  0  0  0  0
  139.6850   71.6870  219.3900 H   0  0  0  0  0  0  0  0  0  0  0  0
  138.2360   71.8890  220.3450 H   0  0  0  0  0  0  0  0  0  0  0  0
  138.7509   72.7879  222.7170 H   0  0  0  0  0  0  0  0  0  0  0  0
  137.9891   71.2134  222.3082 H   0  0  0  0  0  0  0  0  0  0  0  0
  140.7015   72.8290  224.1918 H   0  0  0  0  0  0  0  0  0  0  0  0
  141.6775   72.0135  226.3143 H   0  0  0  0  0  0  0  0  0  0  0  0
  141.8234   70.3657  227.9378 H   0  0  0  0  0  0  0  0  0  0  0  0
  139.5013   66.7855  227.6286 H   0  0  0  0  0  0  0  0  0  0  0  0
  138.5024   67.5624  225.5076 H   0  0  0  0  0  0  0  0  0  0  0  0
  138.3291   69.2949  223.7673 H   0  0  0  0  0  0  0  0  0  0  0  0
  142.4475   74.6019  221.3583 H   0  0  0  0  0  0  0  0  0  0  0  0
  141.5977   75.3729  219.9904 H   0  0  0  0  0  0  0  0  0  0  0  0
  140.8794   75.7635  222.9401 H   0  0  0  0  0  0  0  0  0  0  0  0
  141.8645   76.9006  221.9950 H   0  0  0  0  0  0  0  0  0  0  0  0
  1  2  1  0
  2  3  1  0
  3  4  2  0
  3  5  1  0
  5  6  1  0
  6  7  2  0
  7  8  1  0
  8  9  2  0
  9 10  1  0
 10 11  2  0
  5 12  1  0
 12 13  1  0
 13 14  1  0
 14 15  1  0
 15 16  1  0
 16 17  2  0
 16 18  1  0
 18 19  1  0
 18 20  1  0
 20 21  1  0
 21 22  2  0
 22 23  1  0
 23 24  2  0
 24 25  1  0
 25 26  2  0
 26 27  1  0
 26 28  1  0
 28 29  2  0
 29 30  1  0
 30 31  2  0
 15 32  1  0
 32 33  1  0
 11  6  1  0
 33 12  1  0
 31 21  1  0
 30 24  1  0
  1 34  1  0
  1 35  1  0
  1 36  1  0
  2 37  1  0
  2 38  1  0
  7 39  1  0
  8 40  1  0
  9 41  1  0
 10 42  1  0
 11 43  1  0
 12 44  1  0
 13 45  1  0
 13 46  1  0
 14 47  1  0
 14 48  1  0
 18 49  1  1
 19 50  1  0
 19 51  1  0
 20 52  1  0
 20 53  1  0
 22 54  1  0
 23 55  1  0
 25 56  1  0
 28 57  1  0
 29 58  1  0
 31 59  1  0
 32 60  1  0
 32 61  1  0
 33 62  1  0
 33 63  1  0
M  END
>  <smiles>  (19) 
CCC(=O)N(c1ccccc1)C1CCN(C(=O)[C@H](N)Cc2ccc3cc(F)ccc3c2)CC1

>  <score_type>  (19) 
oracle

>  <origin>  (19) 
autodockgpu

>  <m_score__min__energy>  (19) 
-8.7699999999999996

>  <m_primary>  (19) 
energy

>  <rmsd>  (19) 
6.387097056895525

>  <m_score__min__rmsd>  (19) 
6.387097056895525

>  <meeko>  (19) 
{"free_energy": -8.11, "intermolecular_energy": -10.49, "internal_energy": -1.72, "cluster_size": 26, "cluster_id": 1, "rank_in_cluster": 9}

>  <energy>  (19) 
-7.88

>  <cluster_rmsd>  (19) 
1.33

>  <cluster>  (19) 
1

$$$$

     RDKit          3D

 63 66  0  0  0  0  0  0  0  0999 V2000
  142.5630   80.0940  218.3140 C   0  0  0  0  0  0  0  0  0  0  0  0
  142.2440   78.6840  218.7710 C   0  0  0  0  0  0  0  0  0  0  0  0
  141.0330   78.7040  219.6500 C   0  0  0  0  0  0  0  0  0  0  0  0
  139.9460   78.9580  219.1100 O   0  0  0  0  0  0  0  0  0  0  0  0
  141.1940   78.4330  221.0470 N   0  0  0  0  0  0  0  0  0  0  0  0
  141.5550   79.4920  221.9470 C   0  0  0  0  0  0  0  0  0  0  0  0
  141.1560   80.7800  221.6310 C   0  0  0  0  0  0  0  0  0  0  0  0
  141.4600   81.8600  222.4440 C   0  0  0  0  0  0  0  0  0  0  0  0
  142.1930   81.6230  223.6150 C   0  0  0  0  0  0  0  0  0  0  0  0
  142.5930   80.3320  223.9340 C   0  0  0  0  0  0  0  0  0  0  0  0
  142.2780   79.2510  223.1020 C   0  0  0  0  0  0  0  0  0  0  0  0
  141.0090   77.1200  221.6100 C   0  0  0  0  0  0  0  0  0  0  0  0
  141.4050   76.0250  220.6610 C   0  0  0  0  0  0  0  0  0  0  0  0
  141.0680   74.6540  221.2030 C   0  0  0  0  0  0  0  0  0  0  0  0
  139.7960   74.5730  221.8560 N   0  0  0  0  0  0  0  0  0  0  0  0
  138.8890   73.4870  221.7380 C   0  0  0  0  0  0  0  0  0  0  0  0
  137.7580   73.4850  222.3350 O   0  0  0  0  0  0  0  0  0  0  0  0
  139.1730   72.2760  220.9230 C   0  0  2  0  0  0  0  0  0  0  0  0
  138.0960   71.2930  221.0820 N   0  0  0  0  0  0  0  0  0  0  0  0
  140.4220   71.5650  221.4310 C   0  0  0  0  0  0  0  0  0  0  0  0
  140.1880   71.0820  222.8390 C   0  0  0  0  0  0  0  0  0  0  0  0
  139.4740   69.9160  223.0230 C   0  0  0  0  0  0  0  0  0  0  0  0
  139.2000   69.3800  224.2620 C   0  0  0  0  0  0  0  0  0  0  0  0
  139.6810   70.0730  225.3610 C   0  0  0  0  0  0  0  0  0  0  0  0
  139.4010   69.5290  226.6000 C   0  0  0  0  0  0  0  0  0  0  0  0
  139.8520   70.1710  227.7430 C   0  0  0  0  0  0  0  0  0  0  0  0
  139.5780   69.6390  228.9780 F   0  0  0  0  0  0  0  0  0  0  0  0
  140.5660   71.3350  227.5860 C   0  0  0  0  0  0  0  0  0  0  0  0
  140.8510   71.8860  226.3460 C   0  0  0  0  0  0  0  0  0  0  0  0
  140.3970   71.2410  225.2040 C   0  0  0  0  0  0  0  0  0  0  0  0
  140.6590   71.7590  223.9370 C   0  0  0  0  0  0  0  0  0  0  0  0
  139.3980   75.6810  222.7080 C   0  0  0  0  0  0  0  0  0  0  0  0
  139.5320   76.9480  221.9140 C   0  0  0  0  0  0  0  0  0  0  0  0
  142.7091   80.7399  219.1923 H   0  0  0  0  0  0  0  0  0  0  0  0
  143.4817   80.0844  217.7090 H   0  0  0  0  0  0  0  0  0  0  0  0
  141.7297   80.4807  217.7090 H   0  0  0  0  0  0  0  0  0  0  0  0
  142.0492   78.0499  217.8935 H   0  0  0  0  0  0  0  0  0  0  0  0
  143.0981   78.2801  219.3343 H   0  0  0  0  0  0  0  0  0  0  0  0
  140.5815   80.9504  220.7085 H   0  0  0  0  0  0  0  0  0  0  0  0
  141.1347   82.8765  222.1775 H   0  0  0  0  0  0  0  0  0  0  0  0
  142.4513   82.4594  224.2811 H   0  0  0  0  0  0  0  0  0  0  0  0
  143.1669   80.1558  224.8557 H   0  0  0  0  0  0  0  0  0  0  0  0
  142.5986   78.2312  223.3611 H   0  0  0  0  0  0  0  0  0  0  0  0
  141.6424   77.0446  222.5062 H   0  0  0  0  0  0  0  0  0  0  0  0
  140.8732   76.1708  219.7092 H   0  0  0  0  0  0  0  0  0  0  0  0
  142.4948   76.0756  220.5207 H   0  0  0  0  0  0  0  0  0  0  0  0
  141.0703   73.9422  220.3643 H   0  0  0  0  0  0  0  0  0  0  0  0
  141.8274   74.4216  221.9642 H   0  0  0  0  0  0  0  0  0  0  0  0
  139.2843   72.6148  219.8824 H   0  0  0  0  0  0  0  0  0  0  0  0
  137.8460   70.8320  220.1880 H   0  0  0  0  0  0  0  0  0  0  0  0
  137.3080   71.6750  221.6200 H   0  0  0  0  0  0  0  0  0  0  0  0
  140.6447   70.7060  220.7810 H   0  0  0  0  0  0  0  0  0  0  0  0
  141.2715   72.2637  221.4197 H   0  0  0  0  0  0  0  0  0  0  0  0
  139.1038   69.3861  222.1329 H   0  0  0  0  0  0  0  0  0  0  0  0
  138.6273   68.4474  224.3734 H   0  0  0  0  0  0  0  0  0  0  0  0
  138.8254   68.5949  226.6787 H   0  0  0  0  0  0  0  0  0  0  0  0
  140.9281   71.8535  228.4860 H   0  0  0  0  0  0  0  0  0  0  0  0
  141.4277   72.8195  226.2686 H   0  0  0  0  0  0  0  0  0  0  0  0
  141.2313   72.6910  223.8189 H   0  0  0  0  0  0  0  0  0  0  0  0
  138.3538   75.5496  223.0279 H   0  0  0  0  0  0  0  0  0  0  0  0
  140.0350   75.7222  223.6038 H   0  0  0  0  0  0  0  0  0  0  0  0
  138.9591   76.8709  220.9781 H   0  0  0  0  0  0  0  0  0  0  0  0
  139.1414   77.8093  222.4757 H   0  0  0  0  0  0  0  0  0  0  0  0
  1  2  1  0
  2  3  1  0
  3  4  2  0
  3  5  1  0
  5  6  1  0
  6  7  2  0
  7  8  1  0
  8  9  2  0
  9 10  1  0
 10 11  2  0
  5 12  1  0
 12 13  1  0
 13 14  1  0
 14 15  1  0
 15 16  1  0
 16 17  2  0
 16 18  1  0
 18 19  1  0
 18 20  1  0
 20 21  1  0
 21 22  2  0
 22 23  1  0
 23 24  2  0
 24 25  1  0
 25 26  2  0
 26 27  1  0
 26 28  1  0
 28 29  2  0
 29 30  1  0
 30 31  2  0
 15 32  1  0
 32 33  1  0
 11  6  1  0
 33 12  1  0
 31 21  1  0
 30 24  1  0
  1 34  1  0
  1 35  1  0
  1 36  1  0
  2 37  1  0
  2 38  1  0
  7 39  1  0
  8 40  1  0
  9 41  1  0
 10 42  1  0
 11 43  1  0
 12 44  1  0
 13 45  1  0
 13 46  1  0
 14 47  1  0
 14 48  1  0
 18 49  1  6
 19 50  1  0
 19 51  1  0
 20 52  1  0
 20 53  1  0
 22 54  1  0
 23 55  1  0
 25 56  1  0
 28 57  1  0
 29 58  1  0
 31 59  1  0
 32 60  1  0
 32 61  1  0
 33 62  1  0
 33 63  1  0
M  END
>  <smiles>  (20) 
CCC(=O)N(c1ccccc1)C1CCN(C(=O)[C@H](N)Cc2ccc3cc(F)ccc3c2)CC1

>  <score_type>  (20) 
oracle

>  <origin>  (20) 
autodockgpu

>  <m_score__min__energy>  (20) 
-8.7699999999999996

>  <m_primary>  (20) 
energy

>  <rmsd>  (20) 
5.7320851649567395

>  <m_score__min__rmsd>  (20) 
5.7320851649567395

>  <meeko>  (20) 
{"free_energy": -7.77, "intermolecular_energy": -10.16, "internal_energy": -2.3, "cluster_size": 20, "cluster_id": 3, "rank_in_cluster": 19}

>  <energy>  (20) 
-7.87

>  <cluster_rmsd>  (20) 
2.0

>  <cluster>  (20) 
1

$$$$

     RDKit          3D

 63 66  0  0  0  0  0  0  0  0999 V2000
  142.6500   80.7570  223.8500 C   0  0  0  0  0  0  0  0  0  0  0  0
  142.8720   79.7040  222.7820 C   0  0  0  0  0  0  0  0  0  0  0  0
  141.8470   79.8600  221.7040 C   0  0  0  0  0  0  0  0  0  0  0  0
  142.2020   80.4330  220.6630 O   0  0  0  0  0  0  0  0  0  0  0  0
  140.5290   79.3470  221.9300 N   0  0  0  0  0  0  0  0  0  0  0  0
  139.5380   80.1690  222.5670 C   0  0  0  0  0  0  0  0  0  0  0  0
  139.1410   79.8320  223.8510 C   0  0  0  0  0  0  0  0  0  0  0  0
  138.1920   80.5710  224.5390 C   0  0  0  0  0  0  0  0  0  0  0  0
  137.6290   81.6870  223.9040 C   0  0  0  0  0  0  0  0  0  0  0  0
  138.0270   82.0250  222.6170 C   0  0  0  0  0  0  0  0  0  0  0  0
  138.9870   81.2690  221.9340 C   0  0  0  0  0  0  0  0  0  0  0  0
  140.1360   78.0170  221.5440 C   0  0  0  0  0  0  0  0  0  0  0  0
  140.2550   77.0300  222.6710 C   0  0  0  0  0  0  0  0  0  0  0  0
  139.9840   75.6130  222.2170 C   0  0  0  0  0  0  0  0  0  0  0  0
  140.5550   75.2810  220.9470 N   0  0  0  0  0  0  0  0  0  0  0  0
  141.1720   74.0420  220.6320 C   0  0  0  0  0  0  0  0  0  0  0  0
  141.6800   73.8130  219.4810 O   0  0  0  0  0  0  0  0  0  0  0  0
  141.2800   72.9190  221.6010 C   0  0  2  0  0  0  0  0  0  0  0  0
  142.2280   71.9130  221.1090 N   0  0  0  0  0  0  0  0  0  0  0  0
  139.9530   72.1760  221.7140 C   0  0  0  0  0  0  0  0  0  0  0  0
  139.9050   71.4290  223.0210 C   0  0  0  0  0  0  0  0  0  0  0  0
  139.1690   70.2640  223.0860 C   0  0  0  0  0  0  0  0  0  0  0  0
  139.0550   69.4990  224.2260 C   0  0  0  0  0  0  0  0  0  0  0  0
  139.7260   69.9510  225.3500 C   0  0  0  0  0  0  0  0  0  0  0  0
  139.6050   69.1780  226.4890 C   0  0  0  0  0  0  0  0  0  0  0  0
  140.2510   69.5730  227.6510 C   0  0  0  0  0  0  0  0  0  0  0  0
  140.1360   68.8130  228.7880 F   0  0  0  0  0  0  0  0  0  0  0  0
  140.9910   70.7310  227.6130 C   0  0  0  0  0  0  0  0  0  0  0  0
  141.1160   71.5100  226.4730 C   0  0  0  0  0  0  0  0  0  0  0  0
  140.4690   71.1130  225.3120 C   0  0  0  0  0  0  0  0  0  0  0  0
  140.5660   71.8660  224.1430 C   0  0  0  0  0  0  0  0  0  0  0  0
  140.4970   76.2800  219.8930 C   0  0  0  0  0  0  0  0  0  0  0  0
  141.0670   77.5590  220.4360 C   0  0  0  0  0  0  0  0  0  0  0  0
  142.7470   80.2968  224.8444 H   0  0  0  0  0  0  0  0  0  0  0  0
  143.3998   81.5544  223.7402 H   0  0  0  0  0  0  0  0  0  0  0  0
  141.6421   81.1838  223.7402 H   0  0  0  0  0  0  0  0  0  0  0  0
  143.8772   79.8249  222.3519 H   0  0  0  0  0  0  0  0  0  0  0  0
  142.7816   78.7036  223.2305 H   0  0  0  0  0  0  0  0  0  0  0  0
  139.5914   78.9541  224.3373 H   0  0  0  0  0  0  0  0  0  0  0  0
  137.8880   80.2891  225.5579 H   0  0  0  0  0  0  0  0  0  0  0  0
  136.8733   82.2939  224.4242 H   0  0  0  0  0  0  0  0  0  0  0  0
  137.5801   82.9020  222.1259 H   0  0  0  0  0  0  0  0  0  0  0  0
  139.2969   81.5438  220.9150 H   0  0  0  0  0  0  0  0  0  0  0  0
  139.0826   78.0547  221.2296 H   0  0  0  0  0  0  0  0  0  0  0  0
  141.2740   77.0820  223.0820 H   0  0  0  0  0  0  0  0  0  0  0  0
  139.5043   77.2916  223.4312 H   0  0  0  0  0  0  0  0  0  0  0  0
  140.3961   74.9253  222.9702 H   0  0  0  0  0  0  0  0  0  0  0  0
  138.8935   75.5216  222.1052 H   0  0  0  0  0  0  0  0  0  0  0  0
  141.5917   73.3580  222.5602 H   0  0  0  0  0  0  0  0  0  0  0  0
  143.1820   72.0480  221.4900 H   0  0  0  0  0  0  0  0  0  0  0  0
  142.1690   71.8010  220.0890 H   0  0  0  0  0  0  0  0  0  0  0  0
  139.1241   72.8980  221.6738 H   0  0  0  0  0  0  0  0  0  0  0  0
  139.8598   71.4636  220.8811 H   0  0  0  0  0  0  0  0  0  0  0  0
  138.6451   69.9279  222.1790 H   0  0  0  0  0  0  0  0  0  0  0  0
  138.4599   68.5740  224.2427 H   0  0  0  0  0  0  0  0  0  0  0  0
  139.0020   68.2581  226.4742 H   0  0  0  0  0  0  0  0  0  0  0  0
  141.5075   71.0542  228.5289 H   0  0  0  0  0  0  0  0  0  0  0  0
  141.7195   72.4295  226.4889 H   0  0  0  0  0  0  0  0  0  0  0  0
  141.1599   72.7916  224.1195 H   0  0  0  0  0  0  0  0  0  0  0  0
  141.0882   75.9451  219.0280 H   0  0  0  0  0  0  0  0  0  0  0  0
  139.4576   76.4323  219.5668 H   0  0  0  0  0  0  0  0  0  0  0  0
  142.0761   77.3839  220.8372 H   0  0  0  0  0  0  0  0  0  0  0  0
  141.1482   78.3217  219.6475 H   0  0  0  0  0  0  0  0  0  0  0  0
  1  2  1  0
  2  3  1  0
  3  4  2  0
  3  5  1  0
  5  6  1  0
  6  7  2  0
  7  8  1  0
  8  9  2  0
  9 10  1  0
 10 11  2  0
  5 12  1  0
 12 13  1  0
 13 14  1  0
 14 15  1  0
 15 16  1  0
 16 17  2  0
 16 18  1  0
 18 19  1  0
 18 20  1  0
 20 21  1  0
 21 22  2  0
 22 23  1  0
 23 24  2  0
 24 25  1  0
 25 26  2  0
 26 27  1  0
 26 28  1  0
 28 29  2  0
 29 30  1  0
 30 31  2  0
 15 32  1  0
 32 33  1  0
 11  6  1  0
 33 12  1  0
 31 21  1  0
 30 24  1  0
  1 34  1  0
  1 35  1  0
  1 36  1  0
  2 37  1  0
  2 38  1  0
  7 39  1  0
  8 40  1  0
  9 41  1  0
 10 42  1  0
 11 43  1  0
 12 44  1  0
 13 45  1  0
 13 46  1  0
 14 47  1  0
 14 48  1  0
 18 49  1  1
 19 50  1  0
 19 51  1  0
 20 52  1  0
 20 53  1  0
 22 54  1  0
 23 55  1  0
 25 56  1  0
 28 57  1  0
 29 58  1  0
 31 59  1  0
 32 60  1  0
 32 61  1  0
 33 62  1  0
 33 63  1  0
M  END
>  <smiles>  (21) 
CCC(=O)N(c1ccccc1)C1CCN(C(=O)[C@H](N)Cc2ccc3cc(F)ccc3c2)CC1

>  <score_type>  (21) 
oracle

>  <origin>  (21) 
autodockgpu

>  <m_score__min__energy>  (21) 
-8.7699999999999996

>  <m_primary>  (21) 
energy

>  <rmsd>  (21) 
5.444890803053729

>  <m_score__min__rmsd>  (21) 
5.444890803053729

>  <meeko>  (21) 
{"free_energy": -7.72, "intermolecular_energy": -10.11, "internal_energy": -2.28, "cluster_size": 4, "cluster_id": 2, "rank_in_cluster": 4}

>  <energy>  (21) 
-7.81

>  <cluster_rmsd>  (21) 
1.87

>  <cluster>  (21) 
1

$$$$

     RDKit          3D

 63 66  0  0  0  0  0  0  0  0999 V2000
  142.5440   79.3970  218.1070 C   0  0  0  0  0  0  0  0  0  0  0  0
  141.8920   79.8830  219.3880 C   0  0  0  0  0  0  0  0  0  0  0  0
  141.0270   78.8000  219.9520 C   0  0  0  0  0  0  0  0  0  0  0  0
  140.2080   78.2730  219.1840 O   0  0  0  0  0  0  0  0  0  0  0  0
  141.1890   78.4380  221.3270 N   0  0  0  0  0  0  0  0  0  0  0  0
  141.6200   79.4200  222.2830 C   0  0  0  0  0  0  0  0  0  0  0  0
  140.6630   80.2620  222.8270 C   0  0  0  0  0  0  0  0  0  0  0  0
  140.9900   81.2360  223.7560 C   0  0  0  0  0  0  0  0  0  0  0  0
  142.3310   81.3580  224.1450 C   0  0  0  0  0  0  0  0  0  0  0  0
  143.2910   80.5140  223.6020 C   0  0  0  0  0  0  0  0  0  0  0  0
  142.9450   79.5350  222.6630 C   0  0  0  0  0  0  0  0  0  0  0  0
  140.9390   77.1060  221.8150 C   0  0  0  0  0  0  0  0  0  0  0  0
  141.3940   76.0450  220.8530 C   0  0  0  0  0  0  0  0  0  0  0  0
  140.9930   74.6580  221.3050 C   0  0  0  0  0  0  0  0  0  0  0  0
  139.6720   74.5740  221.8500 N   0  0  0  0  0  0  0  0  0  0  0  0
  138.7610   73.5110  221.6110 C   0  0  0  0  0  0  0  0  0  0  0  0
  137.5850   73.5040  222.1140 O   0  0  0  0  0  0  0  0  0  0  0  0
  139.0920   72.3320  220.7680 C   0  0  2  0  0  0  0  0  0  0  0  0
  138.0560   71.3020  220.9070 N   0  0  0  0  0  0  0  0  0  0  0  0
  140.3700   71.6600  221.2590 C   0  0  0  0  0  0  0  0  0  0  0  0
  140.1660   71.1560  222.6640 C   0  0  0  0  0  0  0  0  0  0  0  0
  139.4270   70.0050  222.8490 C   0  0  0  0  0  0  0  0  0  0  0  0
  139.1780   69.4530  224.0860 C   0  0  0  0  0  0  0  0  0  0  0  0
  139.7090   70.1130  225.1820 C   0  0  0  0  0  0  0  0  0  0  0  0
  139.4530   69.5510  226.4180 C   0  0  0  0  0  0  0  0  0  0  0  0
  139.9550   70.1610  227.5580 C   0  0  0  0  0  0  0  0  0  0  0  0
  139.7050   69.6120  228.7920 F   0  0  0  0  0  0  0  0  0  0  0  0
  140.6940   71.3090  227.4010 C   0  0  0  0  0  0  0  0  0  0  0  0
  140.9550   71.8760  226.1640 C   0  0  0  0  0  0  0  0  0  0  0  0
  140.4510   71.2650  225.0240 C   0  0  0  0  0  0  0  0  0  0  0  0
  140.6870   71.8000  223.7590 C   0  0  0  0  0  0  0  0  0  0  0  0
  139.2230   75.6510  222.7160 C   0  0  0  0  0  0  0  0  0  0  0  0
  139.4400   76.9480  221.9920 C   0  0  0  0  0  0  0  0  0  0  0  0
  143.4036   78.7563  218.3533 H   0  0  0  0  0  0  0  0  0  0  0  0
  141.8138   78.8211  217.5195 H   0  0  0  0  0  0  0  0  0  0  0  0
  142.8873   80.2613  217.5195 H   0  0  0  0  0  0  0  0  0  0  0  0
  142.6711   80.1471  220.1182 H   0  0  0  0  0  0  0  0  0  0  0  0
  141.2756   80.7680  219.1717 H   0  0  0  0  0  0  0  0  0  0  0  0
  139.6146   80.1538  222.5123 H   0  0  0  0  0  0  0  0  0  0  0  0
  140.2177   81.8963  224.1773 H   0  0  0  0  0  0  0  0  0  0  0  0
  142.6230   82.1222  224.8803 H   0  0  0  0  0  0  0  0  0  0  0  0
  144.3406   80.6164  223.9149 H   0  0  0  0  0  0  0  0  0  0  0  0
  143.7111   78.8709  222.2362 H   0  0  0  0  0  0  0  0  0  0  0  0
  141.4964   76.9811  222.7550 H   0  0  0  0  0  0  0  0  0  0  0  0
  140.9435   76.2416  219.8689 H   0  0  0  0  0  0  0  0  0  0  0  0
  142.4923   76.0810  220.8032 H   0  0  0  0  0  0  0  0  0  0  0  0
  141.0515   73.9831  220.4383 H   0  0  0  0  0  0  0  0  0  0  0  0
  141.6850   74.3781  222.1129 H   0  0  0  0  0  0  0  0  0  0  0  0
  139.1871   72.6989  219.7354 H   0  0  0  0  0  0  0  0  0  0  0  0
  137.9670   70.7130  220.0590 H   0  0  0  0  0  0  0  0  0  0  0  0
  137.1770   71.6930  221.2700 H   0  0  0  0  0  0  0  0  0  0  0  0
  140.6168   70.8154  220.5989 H   0  0  0  0  0  0  0  0  0  0  0  0
  141.1943   72.3883  221.2474 H   0  0  0  0  0  0  0  0  0  0  0  0
  139.0152   69.5020  221.9616 H   0  0  0  0  0  0  0  0  0  0  0  0
  138.5861   68.5326  224.1982 H   0  0  0  0  0  0  0  0  0  0  0  0
  138.8574   68.6296  226.4970 H   0  0  0  0  0  0  0  0  0  0  0  0
  141.0969   71.8004  228.2989 H   0  0  0  0  0  0  0  0  0  0  0  0
  141.5525   72.7963  226.0865 H   0  0  0  0  0  0  0  0  0  0  0  0
  141.2787   72.7197  223.6402 H   0  0  0  0  0  0  0  0  0  0  0  0
  138.1545   75.5253  222.9450 H   0  0  0  0  0  0  0  0  0  0  0  0
  139.7856   75.6417  223.6612 H   0  0  0  0  0  0  0  0  0  0  0  0
  138.9435   76.9216  221.0108 H   0  0  0  0  0  0  0  0  0  0  0  0
  139.0184   77.7915  222.5584 H   0  0  0  0  0  0  0  0  0  0  0  0
  1  2  1  0
  2  3  1  0
  3  4  2  0
  3  5  1  0
  5  6  1  0
  6  7  2  0
  7  8  1  0
  8  9  2  0
  9 10  1  0
 10 11  2  0
  5 12  1  0
 12 13  1  0
 13 14  1  0
 14 15  1  0
 15 16  1  0
 16 17  2  0
 16 18  1  0
 18 19  1  0
 18 20  1  0
 20 21  1  0
 21 22  2  0
 22 23  1  0
 23 24  2  0
 24 25  1  0
 25 26  2  0
 26 27  1  0
 26 28  1  0
 28 29  2  0
 29 30  1  0
 30 31  2  0
 15 32  1  0
 32 33  1  0
 11  6  1  0
 33 12  1  0
 31 21  1  0
 30 24  1  0
  1 34  1  0
  1 35  1  0
  1 36  1  0
  2 37  1  0
  2 38  1  0
  7 39  1  0
  8 40  1  0
  9 41  1  0
 10 42  1  0
 11 43  1  0
 12 44  1  0
 13 45  1  0
 13 46  1  0
 14 47  1  0
 14 48  1  0
 18 49  1  6
 19 50  1  0
 19 51  1  0
 20 52  1  0
 20 53  1  0
 22 54  1  0
 23 55  1  0
 25 56  1  0
 28 57  1  0
 29 58  1  0
 31 59  1  0
 32 60  1  0
 32 61  1  0
 33 62  1  0
 33 63  1  0
M  END
>  <smiles>  (22) 
CCC(=O)N(c1ccccc1)C1CCN(C(=O)[C@H](N)Cc2ccc3cc(F)ccc3c2)CC1

>  <score_type>  (22) 
oracle

>  <origin>  (22) 
autodockgpu

>  <m_score__min__energy>  (22) 
-8.7699999999999996

>  <m_primary>  (22) 
energy

>  <rmsd>  (22) 
5.675951559574925

>  <m_score__min__rmsd>  (22) 
5.675951559574925

>  <meeko>  (22) 
{"free_energy": -7.88, "intermolecular_energy": -10.27, "internal_energy": -2.23, "cluster_size": 20, "cluster_id": 3, "rank_in_cluster": 13}

>  <energy>  (22) 
-7.79

>  <cluster_rmsd>  (22) 
2.0

>  <cluster>  (22) 
1

$$$$

     RDKit          3D

 63 66  0  0  0  0  0  0  0  0999 V2000
  142.6410   80.7940  223.8330 C   0  0  0  0  0  0  0  0  0  0  0  0
  142.8740   79.7340  222.7730 C   0  0  0  0  0  0  0  0  0  0  0  0
  141.8460   79.8700  221.6940 C   0  0  0  0  0  0  0  0  0  0  0  0
  142.1990   80.4250  220.6430 O   0  0  0  0  0  0  0  0  0  0  0  0
  140.5290   79.3600  221.9320 N   0  0  0  0  0  0  0  0  0  0  0  0
  139.5430   80.1870  222.5710 C   0  0  0  0  0  0  0  0  0  0  0  0
  139.1650   79.8650  223.8650 C   0  0  0  0  0  0  0  0  0  0  0  0
  138.2220   80.6090  224.5560 C   0  0  0  0  0  0  0  0  0  0  0  0
  137.6470   81.7140  223.9140 C   0  0  0  0  0  0  0  0  0  0  0  0
  138.0260   82.0370  222.6170 C   0  0  0  0  0  0  0  0  0  0  0  0
  138.9790   81.2750  221.9310 C   0  0  0  0  0  0  0  0  0  0  0  0
  140.1320   78.0290  221.5550 C   0  0  0  0  0  0  0  0  0  0  0  0
  140.1980   77.0610  222.7030 C   0  0  0  0  0  0  0  0  0  0  0  0
  139.9240   75.6400  222.2640 C   0  0  0  0  0  0  0  0  0  0  0  0
  140.5340   75.2770  221.0210 N   0  0  0  0  0  0  0  0  0  0  0  0
  141.1460   74.0250  220.7510 C   0  0  0  0  0  0  0  0  0  0  0  0
  141.6920   73.7690  219.6220 O   0  0  0  0  0  0  0  0  0  0  0  0
  141.2040   72.9180  221.7420 C   0  0  2  0  0  0  0  0  0  0  0  0
  141.9750   71.7930  221.2030 N   0  0  0  0  0  0  0  0  0  0  0  0
  139.8130   72.3470  221.9940 C   0  0  0  0  0  0  0  0  0  0  0  0
  139.8360   71.4960  223.2370 C   0  0  0  0  0  0  0  0  0  0  0  0
  139.1920   70.2760  223.2110 C   0  0  0  0  0  0  0  0  0  0  0  0
  139.1480   69.4160  224.2860 C   0  0  0  0  0  0  0  0  0  0  0  0
  139.7950   69.8280  225.4400 C   0  0  0  0  0  0  0  0  0  0  0  0
  139.7450   68.9590  226.5130 C   0  0  0  0  0  0  0  0  0  0  0  0
  140.3720   69.3080  227.7000 C   0  0  0  0  0  0  0  0  0  0  0  0
  140.3280   68.4530  228.7730 F   0  0  0  0  0  0  0  0  0  0  0  0
  141.0210   70.5190  227.7520 C   0  0  0  0  0  0  0  0  0  0  0  0
  141.0750   71.3940  226.6790 C   0  0  0  0  0  0  0  0  0  0  0  0
  140.4460   71.0420  225.4920 C   0  0  0  0  0  0  0  0  0  0  0  0
  140.4730   71.8920  224.3870 C   0  0  0  0  0  0  0  0  0  0  0  0
  140.5280   76.2580  219.9490 C   0  0  0  0  0  0  0  0  0  0  0  0
  141.0950   77.5390  220.4890 C   0  0  0  0  0  0  0  0  0  0  0  0
  142.7403   80.3425  224.8311 H   0  0  0  0  0  0  0  0  0  0  0  0
  143.3841   81.5969  223.7182 H   0  0  0  0  0  0  0  0  0  0  0  0
  141.6297   81.2113  223.7182 H   0  0  0  0  0  0  0  0  0  0  0  0
  143.8775   79.8623  222.3411 H   0  0  0  0  0  0  0  0  0  0  0  0
  142.7950   78.7364  223.2298 H   0  0  0  0  0  0  0  0  0  0  0  0
  139.6259   78.9956  224.3566 H   0  0  0  0  0  0  0  0  0  0  0  0
  137.9322   80.3391  225.5822 H   0  0  0  0  0  0  0  0  0  0  0  0
  136.8963   82.3251  224.4365 H   0  0  0  0  0  0  0  0  0  0  0  0
  137.5695   82.9062  222.1208 H   0  0  0  0  0  0  0  0  0  0  0  0
  139.2731   81.5365  220.9038 H   0  0  0  0  0  0  0  0  0  0  0  0
  139.0911   78.0748  221.2022 H   0  0  0  0  0  0  0  0  0  0  0  0
  141.2025   77.1072  223.1489 H   0  0  0  0  0  0  0  0  0  0  0  0
  139.4249   77.3459  223.4318 H   0  0  0  0  0  0  0  0  0  0  0  0
  140.3001   74.9607  223.0431 H   0  0  0  0  0  0  0  0  0  0  0  0
  138.8370   75.5616  222.1149 H   0  0  0  0  0  0  0  0  0  0  0  0
  141.6517   73.3358  222.6558 H   0  0  0  0  0  0  0  0  0  0  0  0
  142.7030   72.0970  220.5310 H   0  0  0  0  0  0  0  0  0  0  0  0
  141.3640   71.0320  220.8800 H   0  0  0  0  0  0  0  0  0  0  0  0
  139.0971   73.1714  222.1275 H   0  0  0  0  0  0  0  0  0  0  0  0
  139.5084   71.7318  221.1345 H   0  0  0  0  0  0  0  0  0  0  0  0
  138.6866   69.9740  222.2818 H   0  0  0  0  0  0  0  0  0  0  0  0
  138.6250   68.4498  224.2311 H   0  0  0  0  0  0  0  0  0  0  0  0
  139.2132   67.9999  226.4268 H   0  0  0  0  0  0  0  0  0  0  0  0
  141.5205   70.8065  228.6889 H   0  0  0  0  0  0  0  0  0  0  0  0
  141.6077   72.3524  226.7660 H   0  0  0  0  0  0  0  0  0  0  0  0
  140.9938   72.8597  224.4356 H   0  0  0  0  0  0  0  0  0  0  0  0
  141.1455   75.9000  219.1120 H   0  0  0  0  0  0  0  0  0  0  0  0
  139.5030   76.4181  219.5833 H   0  0  0  0  0  0  0  0  0  0  0  0
  142.0870   77.3585  220.9287 H   0  0  0  0  0  0  0  0  0  0  0  0
  141.2137   78.2861  219.6904 H   0  0  0  0  0  0  0  0  0  0  0  0
  1  2  1  0
  2  3  1  0
  3  4  2  0
  3  5  1  0
  5  6  1  0
  6  7  2  0
  7  8  1  0
  8  9  2  0
  9 10  1  0
 10 11  2  0
  5 12  1  0
 12 13  1  0
 13 14  1  0
 14 15  1  0
 15 16  1  0
 16 17  2  0
 16 18  1  0
 18 19  1  0
 18 20  1  0
 20 21  1  0
 21 22  2  0
 22 23  1  0
 23 24  2  0
 24 25  1  0
 25 26  2  0
 26 27  1  0
 26 28  1  0
 28 29  2  0
 29 30  1  0
 30 31  2  0
 15 32  1  0
 32 33  1  0
 11  6  1  0
 33 12  1  0
 31 21  1  0
 30 24  1  0
  1 34  1  0
  1 35  1  0
  1 36  1  0
  2 37  1  0
  2 38  1  0
  7 39  1  0
  8 40  1  0
  9 41  1  0
 10 42  1  0
 11 43  1  0
 12 44  1  0
 13 45  1  0
 13 46  1  0
 14 47  1  0
 14 48  1  0
 18 49  1  1
 19 50  1  0
 19 51  1  0
 20 52  1  0
 20 53  1  0
 22 54  1  0
 23 55  1  0
 25 56  1  0
 28 57  1  0
 29 58  1  0
 31 59  1  0
 32 60  1  0
 32 61  1  0
 33 62  1  0
 33 63  1  0
M  END
>  <smiles>  (23) 
CCC(=O)N(c1ccccc1)C1CCN(C(=O)[C@H](N)Cc2ccc3cc(F)ccc3c2)CC1

>  <score_type>  (23) 
oracle

>  <origin>  (23) 
autodockgpu

>  <m_score__min__energy>  (23) 
-8.7699999999999996

>  <m_primary>  (23) 
energy

>  <rmsd>  (23) 
5.478676377254943

>  <m_score__min__rmsd>  (23) 
5.478676377254943

>  <meeko>  (23) 
{"free_energy": -7.82, "intermolecular_energy": -10.21, "internal_energy": -2.27, "cluster_size": 4, "cluster_id": 2, "rank_in_cluster": 2}

>  <energy>  (23) 
-7.78

>  <cluster_rmsd>  (23) 
1.92

>  <cluster>  (23) 
1

$$$$

     RDKit          3D

 63 66  0  0  0  0  0  0  0  0999 V2000
  142.5610   80.9420  217.9320 C   0  0  0  0  0  0  0  0  0  0  0  0
  141.3630   80.2210  218.5200 C   0  0  0  0  0  0  0  0  0  0  0  0
  141.8210   78.9840  219.2280 C   0  0  0  0  0  0  0  0  0  0  0  0
  142.6960   78.3050  218.6710 O   0  0  0  0  0  0  0  0  0  0  0  0
  141.2300   78.6580  220.4910 N   0  0  0  0  0  0  0  0  0  0  0  0
  141.3980   79.5400  221.6120 C   0  0  0  0  0  0  0  0  0  0  0  0
  142.5750   79.4540  222.3370 C   0  0  0  0  0  0  0  0  0  0  0  0
  142.8190   80.2680  223.4320 C   0  0  0  0  0  0  0  0  0  0  0  0
  141.8370   81.1980  223.8000 C   0  0  0  0  0  0  0  0  0  0  0  0
  140.6570   81.2850  223.0740 C   0  0  0  0  0  0  0  0  0  0  0  0
  140.4240   80.4550  221.9700 C   0  0  0  0  0  0  0  0  0  0  0  0
  140.4590   77.4600  220.7010 C   0  0  0  0  0  0  0  0  0  0  0  0
  140.9620   76.6470  221.8610 C   0  0  0  0  0  0  0  0  0  0  0  0
  140.2420   75.3220  221.9810 C   0  0  0  0  0  0  0  0  0  0  0  0
  140.0030   74.6660  220.7320 N   0  0  0  0  0  0  0  0  0  0  0  0
  140.1310   73.2690  220.5100 C   0  0  0  0  0  0  0  0  0  0  0  0
  139.9200   72.7450  219.3630 O   0  0  0  0  0  0  0  0  0  0  0  0
  140.5170   72.3090  221.5790 C   0  0  2  0  0  0  0  0  0  0  0  0
  141.0840   71.0920  220.9870 N   0  0  0  0  0  0  0  0  0  0  0  0
  139.2870   71.8300  222.3430 C   0  0  0  0  0  0  0  0  0  0  0  0
  139.7180   71.1750  223.6290 C   0  0  0  0  0  0  0  0  0  0  0  0
  140.5870   71.8580  224.4560 C   0  0  0  0  0  0  0  0  0  0  0  0
  141.0460   71.3580  225.6540 C   0  0  0  0  0  0  0  0  0  0  0  0
  140.5940   70.1010  226.0200 C   0  0  0  0  0  0  0  0  0  0  0  0
  141.0610   69.6080  227.2230 C   0  0  0  0  0  0  0  0  0  0  0  0
  140.6480   68.3540  227.6500 C   0  0  0  0  0  0  0  0  0  0  0  0
  141.1070   67.8540  228.8440 F   0  0  0  0  0  0  0  0  0  0  0  0
  139.7820   67.6540  226.8450 C   0  0  0  0  0  0  0  0  0  0  0  0
  139.3110   68.1430  225.6370 C   0  0  0  0  0  0  0  0  0  0  0  0
  139.7260   69.3980  225.2120 C   0  0  0  0  0  0  0  0  0  0  0  0
  139.2780   69.9300  224.0040 C   0  0  0  0  0  0  0  0  0  0  0  0
  139.5930   75.4820  219.6020 C   0  0  0  0  0  0  0  0  0  0  0  0
  140.5820   76.6010  219.4560 C   0  0  0  0  0  0  0  0  0  0  0  0
  143.1951   81.3236  218.7459 H   0  0  0  0  0  0  0  0  0  0  0  0
  143.1415   80.2431  217.3119 H   0  0  0  0  0  0  0  0  0  0  0  0
  142.2152   81.7822  217.3119 H   0  0  0  0  0  0  0  0  0  0  0  0
  140.8509   80.8832  219.2336 H   0  0  0  0  0  0  0  0  0  0  0  0
  140.6694   79.9447  217.7121 H   0  0  0  0  0  0  0  0  0  0  0  0
  143.3367   78.7199  222.0356 H   0  0  0  0  0  0  0  0  0  0  0  0
  143.7589   80.1863  223.9976 H   0  0  0  0  0  0  0  0  0  0  0  0
  142.0014   81.8588  224.6639 H   0  0  0  0  0  0  0  0  0  0  0  0
  139.8922   82.0179  223.3706 H   0  0  0  0  0  0  0  0  0  0  0  0
  139.4863   80.5291  221.3997 H   0  0  0  0  0  0  0  0  0  0  0  0
  139.4221   77.7598  220.9131 H   0  0  0  0  0  0  0  0  0  0  0  0
  142.0362   76.4557  221.7210 H   0  0  0  0  0  0  0  0  0  0  0  0
  140.7756   77.2188  222.7820 H   0  0  0  0  0  0  0  0  0  0  0  0
  140.8505   74.6550  222.6094 H   0  0  0  0  0  0  0  0  0  0  0  0
  139.2555   75.5381  222.4169 H   0  0  0  0  0  0  0  0  0  0  0  0
  141.2311   72.8325  222.2317 H   0  0  0  0  0  0  0  0  0  0  0  0
  142.1180   71.1170  220.9440 H   0  0  0  0  0  0  0  0  0  0  0  0
  140.6090   70.8370  220.1120 H   0  0  0  0  0  0  0  0  0  0  0  0
  138.6380   72.6890  222.5686 H   0  0  0  0  0  0  0  0  0  0  0  0
  138.7340   71.1038  221.7291 H   0  0  0  0  0  0  0  0  0  0  0  0
  140.9310   72.8543  224.1413 H   0  0  0  0  0  0  0  0  0  0  0  0
  141.7383   71.9294  226.2898 H   0  0  0  0  0  0  0  0  0  0  0  0
  141.7533   70.2035  227.8363 H   0  0  0  0  0  0  0  0  0  0  0  0
  139.4471   66.6594  227.1747 H   0  0  0  0  0  0  0  0  0  0  0  0
  138.6192   67.5463  225.0244 H   0  0  0  0  0  0  0  0  0  0  0  0
  138.5857   69.3634  223.3640 H   0  0  0  0  0  0  0  0  0  0  0  0
  139.5807   74.8726  218.6863 H   0  0  0  0  0  0  0  0  0  0  0  0
  138.5824   75.8839  219.7672 H   0  0  0  0  0  0  0  0  0  0  0  0
  141.6018   76.1968  219.3740 H   0  0  0  0  0  0  0  0  0  0  0  0
  140.3809   77.1897  218.5488 H   0  0  0  0  0  0  0  0  0  0  0  0
  1  2  1  0
  2  3  1  0
  3  4  2  0
  3  5  1  0
  5  6  1  0
  6  7  2  0
  7  8  1  0
  8  9  2  0
  9 10  1  0
 10 11  2  0
  5 12  1  0
 12 13  1  0
 13 14  1  0
 14 15  1  0
 15 16  1  0
 16 17  2  0
 16 18  1  0
 18 19  1  0
 18 20  1  0
 20 21  1  0
 21 22  2  0
 22 23  1  0
 23 24  2  0
 24 25  1  0
 25 26  2  0
 26 27  1  0
 26 28  1  0
 28 29  2  0
 29 30  1  0
 30 31  2  0
 15 32  1  0
 32 33  1  0
 11  6  1  0
 33 12  1  0
 31 21  1  0
 30 24  1  0
  1 34  1  0
  1 35  1  0
  1 36  1  0
  2 37  1  0
  2 38  1  0
  7 39  1  0
  8 40  1  0
  9 41  1  0
 10 42  1  0
 11 43  1  0
 12 44  1  0
 13 45  1  0
 13 46  1  0
 14 47  1  0
 14 48  1  0
 18 49  1  1
 19 50  1  0
 19 51  1  0
 20 52  1  0
 20 53  1  0
 22 54  1  0
 23 55  1  0
 25 56  1  0
 28 57  1  0
 29 58  1  0
 31 59  1  0
 32 60  1  0
 32 61  1  0
 33 62  1  0
 33 63  1  0
M  END
>  <smiles>  (24) 
CCC(=O)N(c1ccccc1)C1CCN(C(=O)[C@H](N)Cc2ccc3cc(F)ccc3c2)CC1

>  <score_type>  (24) 
oracle

>  <origin>  (24) 
autodockgpu

>  <m_score__min__energy>  (24) 
-8.7699999999999996

>  <m_primary>  (24) 
energy

>  <rmsd>  (24) 
5.996373262819634

>  <m_score__min__rmsd>  (24) 
5.996373262819634

>  <meeko>  (24) 
{"free_energy": -7.96, "intermolecular_energy": -10.34, "internal_energy": -2.14, "cluster_size": 20, "cluster_id": 3, "rank_in_cluster": 10}

>  <energy>  (24) 
-7.66

>  <cluster_rmsd>  (24) 
1.94

>  <cluster>  (24) 
1

$$$$

     RDKit          3D

 63 66  0  0  0  0  0  0  0  0999 V2000
  142.6790   77.7210  218.8140 C   0  0  0  0  0  0  0  0  0  0  0  0
  142.1620   79.1400  218.6800 C   0  0  0  0  0  0  0  0  0  0  0  0
  140.7940   79.2340  219.2810 C   0  0  0  0  0  0  0  0  0  0  0  0
  139.9010   79.7320  218.5800 O   0  0  0  0  0  0  0  0  0  0  0  0
  140.5960   78.7520  220.6150 N   0  0  0  0  0  0  0  0  0  0  0  0
  141.1310   79.4820  221.7300 C   0  0  0  0  0  0  0  0  0  0  0  0
  140.2630   80.2690  222.4700 C   0  0  0  0  0  0  0  0  0  0  0  0
  140.6950   81.0050  223.5610 C   0  0  0  0  0  0  0  0  0  0  0  0
  142.0500   80.9390  223.9120 C   0  0  0  0  0  0  0  0  0  0  0  0
  142.9200   80.1500  223.1720 C   0  0  0  0  0  0  0  0  0  0  0  0
  142.4700   79.4130  222.0710 C   0  0  0  0  0  0  0  0  0  0  0  0
  139.8710   77.5420  220.9030 C   0  0  0  0  0  0  0  0  0  0  0  0
  140.4670   76.7720  222.0480 C   0  0  0  0  0  0  0  0  0  0  0  0
  139.7910   75.4340  222.2460 C   0  0  0  0  0  0  0  0  0  0  0  0
  139.4880   74.7390  221.0310 N   0  0  0  0  0  0  0  0  0  0  0  0
  139.6380   73.3410  220.8350 C   0  0  0  0  0  0  0  0  0  0  0  0
  139.3670   72.7830  219.7160 O   0  0  0  0  0  0  0  0  0  0  0  0
  140.1160   72.4180  221.8990 C   0  0  2  0  0  0  0  0  0  0  0  0
  140.7100   71.2180  221.3010 N   0  0  0  0  0  0  0  0  0  0  0  0
  138.9450   71.8980  222.7260 C   0  0  0  0  0  0  0  0  0  0  0  0
  139.4670   71.2370  223.9750 C   0  0  0  0  0  0  0  0  0  0  0  0
  140.4190   71.9010  224.7220 C   0  0  0  0  0  0  0  0  0  0  0  0
  140.9660   71.3940  225.8810 C   0  0  0  0  0  0  0  0  0  0  0  0
  140.5160   70.1500  226.2900 C   0  0  0  0  0  0  0  0  0  0  0  0
  141.0710   69.6490  227.4520 C   0  0  0  0  0  0  0  0  0  0  0  0
  140.6660   68.4080  227.9190 C   0  0  0  0  0  0  0  0  0  0  0  0
  141.2110   67.9010  229.0720 F   0  0  0  0  0  0  0  0  0  0  0  0
  139.7190   67.7250  227.1930 C   0  0  0  0  0  0  0  0  0  0  0  0
  139.1590   68.2220  226.0260 C   0  0  0  0  0  0  0  0  0  0  0  0
  139.5660   69.4650  225.5610 C   0  0  0  0  0  0  0  0  0  0  0  0
  139.0310   70.0040  224.3920 C   0  0  0  0  0  0  0  0  0  0  0  0
  138.9860   75.5160  219.9100 C   0  0  0  0  0  0  0  0  0  0  0  0
  139.9350   76.6550  219.6740 C   0  0  0  0  0  0  0  0  0  0  0  0
  142.7727   77.4640  219.8794 H   0  0  0  0  0  0  0  0  0  0  0  0
  141.9758   77.0273  218.3299 H   0  0  0  0  0  0  0  0  0  0  0  0
  143.6636   77.6422  218.3299 H   0  0  0  0  0  0  0  0  0  0  0  0
  142.8408   79.8282  219.2050 H   0  0  0  0  0  0  0  0  0  0  0  0
  142.1132   79.4124  217.6154 H   0  0  0  0  0  0  0  0  0  0  0  0
  139.2019   80.3103  222.1831 H   0  0  0  0  0  0  0  0  0  0  0  0
  139.9925   81.6253  224.1370 H   0  0  0  0  0  0  0  0  0  0  0  0
  142.4240   81.5120  224.7733 H   0  0  0  0  0  0  0  0  0  0  0  0
  143.9817   80.1034  223.4561 H   0  0  0  0  0  0  0  0  0  0  0  0
  143.1664   78.7917  221.4887 H   0  0  0  0  0  0  0  0  0  0  0  0
  138.8424   77.8220  221.1742 H   0  0  0  0  0  0  0  0  0  0  0  0
  141.5348   76.6034  221.8446 H   0  0  0  0  0  0  0  0  0  0  0  0
  140.3241   77.3629  222.9647 H   0  0  0  0  0  0  0  0  0  0  0  0
  140.4559   74.7985  222.8493 H   0  0  0  0  0  0  0  0  0  0  0  0
  138.8292   75.6380  222.7393 H   0  0  0  0  0  0  0  0  0  0  0  0
  140.8350   72.9842  222.5094 H   0  0  0  0  0  0  0  0  0  0  0  0
  140.8370   71.3070  220.2760 H   0  0  0  0  0  0  0  0  0  0  0  0
  140.2380   70.3610  221.6160 H   0  0  0  0  0  0  0  0  0  0  0  0
  138.2895   72.7372  223.0018 H   0  0  0  0  0  0  0  0  0  0  0  0
  138.3747   71.1664  222.1348 H   0  0  0  0  0  0  0  0  0  0  0  0
  140.7593   72.8874  224.3737 H   0  0  0  0  0  0  0  0  0  0  0  0
  141.7230   71.9504  226.4531 H   0  0  0  0  0  0  0  0  0  0  0  0
  141.8270   70.2293  228.0013 H   0  0  0  0  0  0  0  0  0  0  0  0
  139.3906   66.7393  227.5545 H   0  0  0  0  0  0  0  0  0  0  0  0
  138.4038   67.6403  225.4771 H   0  0  0  0  0  0  0  0  0  0  0  0
  138.2743   69.4521  223.8151 H   0  0  0  0  0  0  0  0  0  0  0  0
  138.9313   74.8833  219.0118 H   0  0  0  0  0  0  0  0  0  0  0  0
  137.9780   75.8974  220.1300 H   0  0  0  0  0  0  0  0  0  0  0  0
  140.9573   76.2734  219.5355 H   0  0  0  0  0  0  0  0  0  0  0  0
  139.6605   77.2157  218.7683 H   0  0  0  0  0  0  0  0  0  0  0  0
  1  2  1  0
  2  3  1  0
  3  4  2  0
  3  5  1  0
  5  6  1  0
  6  7  2  0
  7  8  1  0
  8  9  2  0
  9 10  1  0
 10 11  2  0
  5 12  1  0
 12 13  1  0
 13 14  1  0
 14 15  1  0
 15 16  1  0
 16 17  2  0
 16 18  1  0
 18 19  1  0
 18 20  1  0
 20 21  1  0
 21 22  2  0
 22 23  1  0
 23 24  2  0
 24 25  1  0
 25 26  2  0
 26 27  1  0
 26 28  1  0
 28 29  2  0
 29 30  1  0
 30 31  2  0
 15 32  1  0
 32 33  1  0
 11  6  1  0
 33 12  1  0
 31 21  1  0
 30 24  1  0
  1 34  1  0
  1 35  1  0
  1 36  1  0
  2 37  1  0
  2 38  1  0
  7 39  1  0
  8 40  1  0
  9 41  1  0
 10 42  1  0
 11 43  1  0
 12 44  1  0
 13 45  1  0
 13 46  1  0
 14 47  1  0
 14 48  1  0
 18 49  1  1
 19 50  1  0
 19 51  1  0
 20 52  1  0
 20 53  1  0
 22 54  1  0
 23 55  1  0
 25 56  1  0
 28 57  1  0
 29 58  1  0
 31 59  1  0
 32 60  1  0
 32 61  1  0
 33 62  1  0
 33 63  1  0
M  END
>  <smiles>  (25) 
CCC(=O)N(c1ccccc1)C1CCN(C(=O)[C@H](N)Cc2ccc3cc(F)ccc3c2)CC1

>  <score_type>  (25) 
oracle

>  <origin>  (25) 
autodockgpu

>  <m_score__min__energy>  (25) 
-8.7699999999999996

>  <m_primary>  (25) 
energy

>  <rmsd>  (25) 
6.086797048959939

>  <m_score__min__rmsd>  (25) 
6.086797048959939

>  <meeko>  (25) 
{"free_energy": -7.66, "intermolecular_energy": -10.05, "internal_energy": -2.2, "cluster_size": 26, "cluster_id": 1, "rank_in_cluster": 24}

>  <energy>  (25) 
-7.57

>  <cluster_rmsd>  (25) 
1.29

>  <cluster>  (25) 
1

$$$$

     RDKit          3D

 63 66  0  0  0  0  0  0  0  0999 V2000
  141.4110   80.9640  219.1910 C   0  0  0  0  0  0  0  0  0  0  0  0
  140.5790   79.7030  219.3240 C   0  0  0  0  0  0  0  0  0  0  0  0
  141.4340   78.5920  219.8460 C   0  0  0  0  0  0  0  0  0  0  0  0
  142.1410   77.9880  219.0250 O   0  0  0  0  0  0  0  0  0  0  0  0
  141.3890   78.2890  221.2450 N   0  0  0  0  0  0  0  0  0  0  0  0
  141.6780   79.3120  222.2110 C   0  0  0  0  0  0  0  0  0  0  0  0
  140.6410   80.1360  222.6170 C   0  0  0  0  0  0  0  0  0  0  0  0
  140.8330   81.1470  223.5450 C   0  0  0  0  0  0  0  0  0  0  0  0
  142.1170   81.3250  224.0780 C   0  0  0  0  0  0  0  0  0  0  0  0
  143.1560   80.4990  223.6730 C   0  0  0  0  0  0  0  0  0  0  0  0
  142.9480   79.4820  222.7330 C   0  0  0  0  0  0  0  0  0  0  0  0
  141.0610   76.9800  221.7470 C   0  0  0  0  0  0  0  0  0  0  0  0
  141.4130   75.8860  220.7780 C   0  0  0  0  0  0  0  0  0  0  0  0
  140.9300   74.5330  221.2480 C   0  0  0  0  0  0  0  0  0  0  0  0
  139.6230   74.5420  221.8310 N   0  0  0  0  0  0  0  0  0  0  0  0
  138.6330   73.5450  221.6250 C   0  0  0  0  0  0  0  0  0  0  0  0
  137.4750   73.6210  222.1620 O   0  0  0  0  0  0  0  0  0  0  0  0
  138.8560   72.3420  220.7790 C   0  0  2  0  0  0  0  0  0  0  0  0
  137.7770   71.3700  220.9850 N   0  0  0  0  0  0  0  0  0  0  0  0
  140.1230   71.6090  221.2080 C   0  0  0  0  0  0  0  0  0  0  0  0
  139.9640   71.1180  222.6230 C   0  0  0  0  0  0  0  0  0  0  0  0
  139.1900   69.9980  222.8480 C   0  0  0  0  0  0  0  0  0  0  0  0
  138.9760   69.4600  224.0980 C   0  0  0  0  0  0  0  0  0  0  0  0
  139.5840   70.1010  225.1650 C   0  0  0  0  0  0  0  0  0  0  0  0
  139.3630   69.5540  226.4150 C   0  0  0  0  0  0  0  0  0  0  0  0
  139.9420   70.1460  227.5270 C   0  0  0  0  0  0  0  0  0  0  0  0
  139.7280   69.6110  228.7740 F   0  0  0  0  0  0  0  0  0  0  0  0
  140.7190   71.2630  227.3300 C   0  0  0  0  0  0  0  0  0  0  0  0
  140.9440   71.8150  226.0790 C   0  0  0  0  0  0  0  0  0  0  0  0
  140.3630   71.2210  224.9680 C   0  0  0  0  0  0  0  0  0  0  0  0
  140.5610   71.7430  223.6900 C   0  0  0  0  0  0  0  0  0  0  0  0
  139.2750   75.6510  222.7040 C   0  0  0  0  0  0  0  0  0  0  0  0
  139.5600   76.9270  221.9680 C   0  0  0  0  0  0  0  0  0  0  0  0
  141.6622   81.3448  220.1919 H   0  0  0  0  0  0  0  0  0  0  0  0
  142.3368   80.7363  218.6423 H   0  0  0  0  0  0  0  0  0  0  0  0
  140.8374   81.7255  218.6423 H   0  0  0  0  0  0  0  0  0  0  0  0
  139.7479   79.8843  220.0214 H   0  0  0  0  0  0  0  0  0  0  0  0
  140.1777   79.4238  218.3386 H   0  0  0  0  0  0  0  0  0  0  0  0
  139.6382   79.9836  222.1913 H   0  0  0  0  0  0  0  0  0  0  0  0
  139.9989   81.7934  223.8555 H   0  0  0  0  0  0  0  0  0  0  0  0
  142.3010   82.1189  224.8168 H   0  0  0  0  0  0  0  0  0  0  0  0
  144.1601   80.6456  224.0976 H   0  0  0  0  0  0  0  0  0  0  0  0
  143.7769   78.8320  222.4163 H   0  0  0  0  0  0  0  0  0  0  0  0
  141.6354   76.8203  222.6714 H   0  0  0  0  0  0  0  0  0  0  0  0
  140.9492   76.1102  219.8061 H   0  0  0  0  0  0  0  0  0  0  0  0
  142.5092   75.8450  220.6971 H   0  0  0  0  0  0  0  0  0  0  0  0
  140.9164   73.8531  220.3834 H   0  0  0  0  0  0  0  0  0  0  0  0
  141.6239   74.2087  222.0375 H   0  0  0  0  0  0  0  0  0  0  0  0
  138.9137   72.6935  219.7383 H   0  0  0  0  0  0  0  0  0  0  0  0
  137.4880   70.9070  220.1040 H   0  0  0  0  0  0  0  0  0  0  0  0
  137.0140   71.7610  221.5510 H   0  0  0  0  0  0  0  0  0  0  0  0
  140.2951   70.7524  220.5397 H   0  0  0  0  0  0  0  0  0  0  0  0
  140.9806   72.2956  221.1522 H   0  0  0  0  0  0  0  0  0  0  0  0
  138.7187   69.5086  221.9830 H   0  0  0  0  0  0  0  0  0  0  0  0
  138.3527   68.5651  224.2419 H   0  0  0  0  0  0  0  0  0  0  0  0
  138.7343   68.6583  226.5264 H   0  0  0  0  0  0  0  0  0  0  0  0
  141.1833   71.7404  228.2055 H   0  0  0  0  0  0  0  0  0  0  0  0
  141.5735   72.7103  225.9686 H   0  0  0  0  0  0  0  0  0  0  0  0
  141.1831   72.6377  223.5397 H   0  0  0  0  0  0  0  0  0  0  0  0
  138.2074   75.6005  222.9642 H   0  0  0  0  0  0  0  0  0  0  0  0
  139.8630   75.6057  223.6325 H   0  0  0  0  0  0  0  0  0  0  0  0
  139.0345   76.9322  221.0016 H   0  0  0  0  0  0  0  0  0  0  0  0
  139.2145   77.7994  222.5421 H   0  0  0  0  0  0  0  0  0  0  0  0
  1  2  1  0
  2  3  1  0
  3  4  2  0
  3  5  1  0
  5  6  1  0
  6  7  2  0
  7  8  1  0
  8  9  2  0
  9 10  1  0
 10 11  2  0
  5 12  1  0
 12 13  1  0
 13 14  1  0
 14 15  1  0
 15 16  1  0
 16 17  2  0
 16 18  1  0
 18 19  1  0
 18 20  1  0
 20 21  1  0
 21 22  2  0
 22 23  1  0
 23 24  2  0
 24 25  1  0
 25 26  2  0
 26 27  1  0
 26 28  1  0
 28 29  2  0
 29 30  1  0
 30 31  2  0
 15 32  1  0
 32 33  1  0
 11  6  1  0
 33 12  1  0
 31 21  1  0
 30 24  1  0
  1 34  1  0
  1 35  1  0
  1 36  1  0
  2 37  1  0
  2 38  1  0
  7 39  1  0
  8 40  1  0
  9 41  1  0
 10 42  1  0
 11 43  1  0
 12 44  1  0
 13 45  1  0
 13 46  1  0
 14 47  1  0
 14 48  1  0
 18 49  1  6
 19 50  1  0
 19 51  1  0
 20 52  1  0
 20 53  1  0
 22 54  1  0
 23 55  1  0
 25 56  1  0
 28 57  1  0
 29 58  1  0
 31 59  1  0
 32 60  1  0
 32 61  1  0
 33 62  1  0
 33 63  1  0
M  END
>  <smiles>  (26) 
CCC(=O)N(c1ccccc1)C1CCN(C(=O)[C@H](N)Cc2ccc3cc(F)ccc3c2)CC1

>  <score_type>  (26) 
oracle

>  <origin>  (26) 
autodockgpu

>  <m_score__min__energy>  (26) 
-8.7699999999999996

>  <m_primary>  (26) 
energy

>  <rmsd>  (26) 
5.721790390510658

>  <m_score__min__rmsd>  (26) 
5.721790390510658

>  <meeko>  (26) 
{"free_energy": -7.72, "intermolecular_energy": -10.11, "internal_energy": -2.19, "cluster_size": 20, "cluster_id": 3, "rank_in_cluster": 20}

>  <energy>  (26) 
-7.26

>  <cluster_rmsd>  (26) 
1.43

>  <cluster>  (26) 
1

$$$$

     RDKit          3D

 63 66  0  0  0  0  0  0  0  0999 V2000
  142.4600   81.0890  217.9620 C   0  0  0  0  0  0  0  0  0  0  0  0
  141.4020   80.5950  218.9290 C   0  0  0  0  0  0  0  0  0  0  0  0
  141.8170   79.2730  219.4930 C   0  0  0  0  0  0  0  0  0  0  0  0
  142.5750   78.5750  218.8030 O   0  0  0  0  0  0  0  0  0  0  0  0
  141.3220   78.8900  220.7810 N   0  0  0  0  0  0  0  0  0  0  0  0
  141.6430   79.6790  221.9380 C   0  0  0  0  0  0  0  0  0  0  0  0
  140.6220   80.3970  222.5400 C   0  0  0  0  0  0  0  0  0  0  0  0
  140.8440   81.1820  223.6600 C   0  0  0  0  0  0  0  0  0  0  0  0
  142.1430   81.2400  224.1840 C   0  0  0  0  0  0  0  0  0  0  0  0
  143.1660   80.5200  223.5820 C   0  0  0  0  0  0  0  0  0  0  0  0
  142.9270   79.7310  222.4500 C   0  0  0  0  0  0  0  0  0  0  0  0
  140.5000   77.7250  220.9830 C   0  0  0  0  0  0  0  0  0  0  0  0
  140.8750   76.9630  222.2230 C   0  0  0  0  0  0  0  0  0  0  0  0
  140.1090   75.6650  222.3460 C   0  0  0  0  0  0  0  0  0  0  0  0
  139.9590   74.9490  221.1150 N   0  0  0  0  0  0  0  0  0  0  0  0
  140.0650   73.5390  220.9770 C   0  0  0  0  0  0  0  0  0  0  0  0
  139.9390   72.9610  219.8430 O   0  0  0  0  0  0  0  0  0  0  0  0
  140.3270   72.6280  222.1230 C   0  0  2  0  0  0  0  0  0  0  0  0
  141.2380   71.5520  221.7180 N   0  0  0  0  0  0  0  0  0  0  0  0
  139.0490   71.9130  222.5460 C   0  0  0  0  0  0  0  0  0  0  0  0
  139.3320   71.0450  223.7440 C   0  0  0  0  0  0  0  0  0  0  0  0
  138.9260   69.7260  223.7110 C   0  0  0  0  0  0  0  0  0  0  0  0
  139.1310   68.8420  224.7470 C   0  0  0  0  0  0  0  0  0  0  0  0
  139.7820   69.3340  225.8670 C   0  0  0  0  0  0  0  0  0  0  0  0
  139.9830   68.4390  226.9010 C   0  0  0  0  0  0  0  0  0  0  0  0
  140.6280   68.8650  228.0530 C   0  0  0  0  0  0  0  0  0  0  0  0
  140.8310   67.9850  229.0860 F   0  0  0  0  0  0  0  0  0  0  0  0
  141.0420   70.1750  228.1100 C   0  0  0  0  0  0  0  0  0  0  0  0
  140.8430   71.0760  227.0760 C   0  0  0  0  0  0  0  0  0  0  0  0
  140.1970   70.6470  225.9260 C   0  0  0  0  0  0  0  0  0  0  0  0
  139.9750   71.5190  224.8610 C   0  0  0  0  0  0  0  0  0  0  0  0
  139.6740   75.7140  219.9130 C   0  0  0  0  0  0  0  0  0  0  0  0
  140.7060   76.7980  219.7990 C   0  0  0  0  0  0  0  0  0  0  0  0
  143.3153   81.4883  218.5269 H   0  0  0  0  0  0  0  0  0  0  0  0
  142.7962   80.2547  217.3288 H   0  0  0  0  0  0  0  0  0  0  0  0
  142.0362   81.8824  217.3288 H   0  0  0  0  0  0  0  0  0  0  0  0
  141.2851   81.3216  219.7466 H   0  0  0  0  0  0  0  0  0  0  0  0
  140.4453   80.4820  218.3979 H   0  0  0  0  0  0  0  0  0  0  0  0
  139.6079   80.3423  222.1173 H   0  0  0  0  0  0  0  0  0  0  0  0
  140.0221   81.7452  224.1260 H   0  0  0  0  0  0  0  0  0  0  0  0
  142.3515   81.8555  225.0715 H   0  0  0  0  0  0  0  0  0  0  0  0
  144.1817   80.5701  224.0014 H   0  0  0  0  0  0  0  0  0  0  0  0
  143.7432   79.1645  221.9779 H   0  0  0  0  0  0  0  0  0  0  0  0
  139.4579   78.0615  221.0869 H   0  0  0  0  0  0  0  0  0  0  0  0
  141.9512   76.7380  222.1893 H   0  0  0  0  0  0  0  0  0  0  0  0
  140.6252   77.5877  223.0932 H   0  0  0  0  0  0  0  0  0  0  0  0
  140.6412   75.0174  223.0583 H   0  0  0  0  0  0  0  0  0  0  0  0
  139.0953   75.9287  222.6819 H   0  0  0  0  0  0  0  0  0  0  0  0
  140.7408   73.2484  222.9317 H   0  0  0  0  0  0  0  0  0  0  0  0
  142.1720   71.6370  222.1580 H   0  0  0  0  0  0  0  0  0  0  0  0
  141.2380   71.4170  220.6990 H   0  0  0  0  0  0  0  0  0  0  0  0
  138.2814   72.6570  222.8054 H   0  0  0  0  0  0  0  0  0  0  0  0
  138.6876   71.2869  221.7169 H   0  0  0  0  0  0  0  0  0  0  0  0
  138.4115   69.3618  222.8095 H   0  0  0  0  0  0  0  0  0  0  0  0
  138.7944   67.7964  224.6883 H   0  0  0  0  0  0  0  0  0  0  0  0
  139.6350   67.3994  226.8113 H   0  0  0  0  0  0  0  0  0  0  0  0
  141.5549   70.5240  229.0184 H   0  0  0  0  0  0  0  0  0  0  0  0
  141.1920   72.1153  227.1659 H   0  0  0  0  0  0  0  0  0  0  0  0
  140.3083   72.5659  224.9144 H   0  0  0  0  0  0  0  0  0  0  0  0
  139.7232   75.0573  219.0319 H   0  0  0  0  0  0  0  0  0  0  0  0
  138.6655   76.1499  219.9670 H   0  0  0  0  0  0  0  0  0  0  0  0
  141.7163   76.3639  219.8291 H   0  0  0  0  0  0  0  0  0  0  0  0
  140.6036   77.3424  218.8487 H   0  0  0  0  0  0  0  0  0  0  0  0
  1  2  1  0
  2  3  1  0
  3  4  2  0
  3  5  1  0
  5  6  1  0
  6  7  2  0
  7  8  1  0
  8  9  2  0
  9 10  1  0
 10 11  2  0
  5 12  1  0
 12 13  1  0
 13 14  1  0
 14 15  1  0
 15 16  1  0
 16 17  2  0
 16 18  1  0
 18 19  1  0
 18 20  1  0
 20 21  1  0
 21 22  2  0
 22 23  1  0
 23 24  2  0
 24 25  1  0
 25 26  2  0
 26 27  1  0
 26 28  1  0
 28 29  2  0
 29 30  1  0
 30 31  2  0
 15 32  1  0
 32 33  1  0
 11  6  1  0
 33 12  1  0
 31 21  1  0
 30 24  1  0
  1 34  1  0
  1 35  1  0
  1 36  1  0
  2 37  1  0
  2 38  1  0
  7 39  1  0
  8 40  1  0
  9 41  1  0
 10 42  1  0
 11 43  1  0
 12 44  1  0
 13 45  1  0
 13 46  1  0
 14 47  1  0
 14 48  1  0
 18 49  1  1
 19 50  1  0
 19 51  1  0
 20 52  1  0
 20 53  1  0
 22 54  1  0
 23 55  1  0
 25 56  1  0
 28 57  1  0
 29 58  1  0
 31 59  1  0
 32 60  1  0
 32 61  1  0
 33 62  1  0
 33 63  1  0
M  END
>  <smiles>  (27) 
CCC(=O)N(c1ccccc1)C1CCN(C(=O)[C@H](N)Cc2ccc3cc(F)ccc3c2)CC1

>  <score_type>  (27) 
oracle

>  <origin>  (27) 
autodockgpu

>  <m_score__min__energy>  (27) 
-8.7699999999999996

>  <m_primary>  (27) 
energy

>  <rmsd>  (27) 
5.9440511672899

>  <m_score__min__rmsd>  (27) 
5.9440511672899

>  <meeko>  (27) 
{"free_energy": -8.18, "intermolecular_energy": -10.56, "internal_energy": -2.06, "cluster_size": 20, "cluster_id": 3, "rank_in_cluster": 5}

>  <energy>  (27) 
-8.67

>  <cluster_rmsd>  (27) 
0.0

>  <cluster>  (27) 
2

$$$$

     RDKit          3D

 63 66  0  0  0  0  0  0  0  0999 V2000
  137.7470   81.5710  223.3190 C   0  0  0  0  0  0  0  0  0  0  0  0
  138.0780   80.2370  223.9600 C   0  0  0  0  0  0  0  0  0  0  0  0
  138.0500   79.1610  222.9200 C   0  0  0  0  0  0  0  0  0  0  0  0
  136.9370   78.7960  222.5130 O   0  0  0  0  0  0  0  0  0  0  0  0
  139.2930   78.6200  222.4590 N   0  0  0  0  0  0  0  0  0  0  0  0
  140.5150   79.3440  222.6720 C   0  0  0  0  0  0  0  0  0  0  0  0
  140.8030   80.4000  221.8220 C   0  0  0  0  0  0  0  0  0  0  0  0
  141.9580   81.1520  221.9570 C   0  0  0  0  0  0  0  0  0  0  0  0
  142.8490   80.8210  222.9880 C   0  0  0  0  0  0  0  0  0  0  0  0
  142.5610   79.7640  223.8410 C   0  0  0  0  0  0  0  0  0  0  0  0
  141.3890   79.0120  223.6920 C   0  0  0  0  0  0  0  0  0  0  0  0
  139.3830   77.3560  221.7750 C   0  0  0  0  0  0  0  0  0  0  0  0
  139.3220   76.1850  222.7150 C   0  0  0  0  0  0  0  0  0  0  0  0
  139.5680   74.8730  222.0050 C   0  0  0  0  0  0  0  0  0  0  0  0
  140.6120   74.9170  221.0270 N   0  0  0  0  0  0  0  0  0  0  0  0
  141.5720   73.8920  220.8160 C   0  0  0  0  0  0  0  0  0  0  0  0
  142.4930   74.0010  219.9350 O   0  0  0  0  0  0  0  0  0  0  0  0
  141.5870   72.6220  221.5890 C   0  0  2  0  0  0  0  0  0  0  0  0
  142.3600   71.6010  220.8730 N   0  0  0  0  0  0  0  0  0  0  0  0
  140.1830   72.0380  221.6950 C   0  0  0  0  0  0  0  0  0  0  0  0
  140.0020   71.4040  223.0500 C   0  0  0  0  0  0  0  0  0  0  0  0
  139.1740   70.3060  223.1570 C   0  0  0  0  0  0  0  0  0  0  0  0
  138.9360   69.6460  224.3420 C   0  0  0  0  0  0  0  0  0  0  0  0
  139.5770   70.1360  225.4680 C   0  0  0  0  0  0  0  0  0  0  0  0
  139.3310   69.4680  226.6530 C   0  0  0  0  0  0  0  0  0  0  0  0
  139.9400   69.9060  227.8190 C   0  0  0  0  0  0  0  0  0  0  0  0
  139.7020   69.2500  229.0010 F   0  0  0  0  0  0  0  0  0  0  0  0
  140.7700   70.9990  227.7390 C   0  0  0  0  0  0  0  0  0  0  0  0
  141.0210   71.6730  226.5540 C   0  0  0  0  0  0  0  0  0  0  0  0
  140.4090   71.2320  225.3890 C   0  0  0  0  0  0  0  0  0  0  0  0
  140.6310   71.8800  224.1740 C   0  0  0  0  0  0  0  0  0  0  0  0
  140.7010   76.0940  220.1800 C   0  0  0  0  0  0  0  0  0  0  0  0
  140.7260   77.3040  221.0690 C   0  0  0  0  0  0  0  0  0  0  0  0
  137.5614   82.3190  224.1039 H   0  0  0  0  0  0  0  0  0  0  0  0
  138.5915   81.8971  222.6941 H   0  0  0  0  0  0  0  0  0  0  0  0
  136.8480   81.4645  222.6941 H   0  0  0  0  0  0  0  0  0  0  0  0
  139.0806   80.2855  224.4100 H   0  0  0  0  0  0  0  0  0  0  0  0
  137.3356   80.0115  224.7398 H   0  0  0  0  0  0  0  0  0  0  0  0
  140.0945   80.6477  221.0178 H   0  0  0  0  0  0  0  0  0  0  0  0
  142.1709   81.9871  221.2734 H   0  0  0  0  0  0  0  0  0  0  0  0
  143.7757   81.3985  223.1209 H   0  0  0  0  0  0  0  0  0  0  0  0
  143.2655   79.5129  224.6477 H   0  0  0  0  0  0  0  0  0  0  0  0
  141.1680   78.1754  224.3712 H   0  0  0  0  0  0  0  0  0  0  0  0
  138.5312   77.2859  221.0825 H   0  0  0  0  0  0  0  0  0  0  0  0
  140.0871   76.3155  223.4944 H   0  0  0  0  0  0  0  0  0  0  0  0
  138.3119   76.1512  223.1493 H   0  0  0  0  0  0  0  0  0  0  0  0
  139.8348   74.1182  222.7594 H   0  0  0  0  0  0  0  0  0  0  0  0
  138.6413   74.6299  221.4645 H   0  0  0  0  0  0  0  0  0  0  0  0
  142.0121   72.8584  222.5756 H   0  0  0  0  0  0  0  0  0  0  0  0
  143.1750   71.9990  220.3730 H   0  0  0  0  0  0  0  0  0  0  0  0
  141.7540   70.9870  220.3140 H   0  0  0  0  0  0  0  0  0  0  0  0
  139.4417   72.8400  221.5638 H   0  0  0  0  0  0  0  0  0  0  0  0
  140.0432   71.2769  220.9132 H   0  0  0  0  0  0  0  0  0  0  0  0
  138.6773   69.9379  222.2472 H   0  0  0  0  0  0  0  0  0  0  0  0
  138.2695   68.7724  224.3919 H   0  0  0  0  0  0  0  0  0  0  0  0
  138.6587   68.5975  226.6707 H   0  0  0  0  0  0  0  0  0  0  0  0
  141.2577   71.3554  228.6583 H   0  0  0  0  0  0  0  0  0  0  0  0
  141.6940   72.5429  226.5373 H   0  0  0  0  0  0  0  0  0  0  0  0
  141.2962   72.7543  224.1173 H   0  0  0  0  0  0  0  0  0  0  0  0
  141.6216   76.0530  219.5792 H   0  0  0  0  0  0  0  0  0  0  0  0
  139.8402   76.1393  219.4967 H   0  0  0  0  0  0  0  0  0  0  0  0
  141.5382   77.2162  221.8057 H   0  0  0  0  0  0  0  0  0  0  0  0
  140.9013   78.2197  220.4852 H   0  0  0  0  0  0  0  0  0  0  0  0
  1  2  1  0
  2  3  1  0
  3  4  2  0
  3  5  1  0
  5  6  1  0
  6  7  2  0
  7  8  1  0
  8  9  2  0
  9 10  1  0
 10 11  2  0
  5 12  1  0
 12 13  1  0
 13 14  1  0
 14 15  1  0
 15 16  1  0
 16 17  2  0
 16 18  1  0
 18 19  1  0
 18 20  1  0
 20 21  1  0
 21 22  2  0
 22 23  1  0
 23 24  2  0
 24 25  1  0
 25 26  2  0
 26 27  1  0
 26 28  1  0
 28 29  2  0
 29 30  1  0
 30 31  2  0
 15 32  1  0
 32 33  1  0
 11  6  1  0
 33 12  1  0
 31 21  1  0
 30 24  1  0
  1 34  1  0
  1 35  1  0
  1 36  1  0
  2 37  1  0
  2 38  1  0
  7 39  1  0
  8 40  1  0
  9 41  1  0
 10 42  1  0
 11 43  1  0
 12 44  1  0
 13 45  1  0
 13 46  1  0
 14 47  1  0
 14 48  1  0
 18 49  1  1
 19 50  1  0
 19 51  1  0
 20 52  1  0
 20 53  1  0
 22 54  1  0
 23 55  1  0
 25 56  1  0
 28 57  1  0
 29 58  1  0
 31 59  1  0
 32 60  1  0
 32 61  1  0
 33 62  1  0
 33 63  1  0
M  END
>  <smiles>  (28) 
CCC(=O)N(c1ccccc1)C1CCN(C(=O)[C@H](N)Cc2ccc3cc(F)ccc3c2)CC1

>  <score_type>  (28) 
oracle

>  <origin>  (28) 
autodockgpu

>  <m_score__min__energy>  (28) 
-8.7699999999999996

>  <m_primary>  (28) 
energy

>  <rmsd>  (28) 
5.70563935246152

>  <m_score__min__rmsd>  (28) 
5.70563935246152

>  <meeko>  (28) 
{"free_energy": -8.01, "intermolecular_energy": -10.39, "internal_energy": -2.16, "cluster_size": 26, "cluster_id": 1, "rank_in_cluster": 12}

>  <energy>  (28) 
-7.82

>  <cluster_rmsd>  (28) 
1.62

>  <cluster>  (28) 
2

$$$$

     RDKit          3D

 63 66  0  0  0  0  0  0  0  0999 V2000
  138.0670   80.5240  224.0450 C   0  0  0  0  0  0  0  0  0  0  0  0
  137.8310   79.9220  222.6730 C   0  0  0  0  0  0  0  0  0  0  0  0
  138.1850   78.4690  222.6960 C   0  0  0  0  0  0  0  0  0  0  0  0
  137.3170   77.6800  223.0980 O   0  0  0  0  0  0  0  0  0  0  0  0
  139.4910   78.0740  222.2590 N   0  0  0  0  0  0  0  0  0  0  0  0
  140.6280   78.9000  222.5540 C   0  0  0  0  0  0  0  0  0  0  0  0
  141.1870   79.6310  221.5180 C   0  0  0  0  0  0  0  0  0  0  0  0
  142.2840   80.4550  221.7150 C   0  0  0  0  0  0  0  0  0  0  0  0
  142.8290   80.5380  223.0040 C   0  0  0  0  0  0  0  0  0  0  0  0
  142.2690   79.8070  224.0420 C   0  0  0  0  0  0  0  0  0  0  0  0
  141.1600   78.9780  223.8280 C   0  0  0  0  0  0  0  0  0  0  0  0
  139.7290   76.8610  221.5200 C   0  0  0  0  0  0  0  0  0  0  0  0
  138.7010   75.8020  221.8030 C   0  0  0  0  0  0  0  0  0  0  0  0
  139.0430   74.4860  221.1400 C   0  0  0  0  0  0  0  0  0  0  0  0
  140.4290   74.1360  221.2030 N   0  0  0  0  0  0  0  0  0  0  0  0
  140.9270   72.8280  221.4440 C   0  0  0  0  0  0  0  0  0  0  0  0
  142.1810   72.5830  221.5060 O   0  0  0  0  0  0  0  0  0  0  0  0
  140.0450   71.6470  221.6400 C   0  0  2  0  0  0  0  0  0  0  0  0
  139.1920   71.4490  220.4620 N   0  0  0  0  0  0  0  0  0  0  0  0
  139.0690   71.8870  222.7860 C   0  0  0  0  0  0  0  0  0  0  0  0
  139.5900   71.2280  224.0360 C   0  0  0  0  0  0  0  0  0  0  0  0
  140.5560   71.8840  224.7720 C   0  0  0  0  0  0  0  0  0  0  0  0
  141.1040   71.3780  225.9300 C   0  0  0  0  0  0  0  0  0  0  0  0
  140.6390   70.1430  226.3520 C   0  0  0  0  0  0  0  0  0  0  0  0
  141.1950   69.6430  227.5140 C   0  0  0  0  0  0  0  0  0  0  0  0
  140.7750   68.4110  227.9930 C   0  0  0  0  0  0  0  0  0  0  0  0
  141.3220   67.9050  229.1460 F   0  0  0  0  0  0  0  0  0  0  0  0
  139.8130   67.7370  227.2780 C   0  0  0  0  0  0  0  0  0  0  0  0
  139.2520   68.2330  226.1120 C   0  0  0  0  0  0  0  0  0  0  0  0
  139.6740   69.4660  225.6350 C   0  0  0  0  0  0  0  0  0  0  0  0
  139.1390   70.0040  224.4660 C   0  0  0  0  0  0  0  0  0  0  0  0
  141.4080   75.1920  221.0040 C   0  0  0  0  0  0  0  0  0  0  0  0
  141.0780   76.3130  221.9460 C   0  0  0  0  0  0  0  0  0  0  0  0
  137.7816   79.7961  224.8188 H   0  0  0  0  0  0  0  0  0  0  0  0
  139.1314   80.7784  224.1556 H   0  0  0  0  0  0  0  0  0  0  0  0
  137.4591   81.4341  224.1556 H   0  0  0  0  0  0  0  0  0  0  0  0
  136.7716   80.0366  222.4001 H   0  0  0  0  0  0  0  0  0  0  0  0
  138.4594   80.4398  221.9334 H   0  0  0  0  0  0  0  0  0  0  0  0
  140.7483   79.5553  220.5121 H   0  0  0  0  0  0  0  0  0  0  0  0
  142.7157   81.0288  220.8817 H   0  0  0  0  0  0  0  0  0  0  0  0
  143.7003   81.1824  223.1925 H   0  0  0  0  0  0  0  0  0  0  0  0
  142.7032   79.8796  225.0501 H   0  0  0  0  0  0  0  0  0  0  0  0
  140.7218   78.4014  224.6559 H   0  0  0  0  0  0  0  0  0  0  0  0
  139.6855   77.1050  220.4483 H   0  0  0  0  0  0  0  0  0  0  0  0
  138.6418   75.6466  222.8904 H   0  0  0  0  0  0  0  0  0  0  0  0
  137.7387   76.1464  221.3963 H   0  0  0  0  0  0  0  0  0  0  0  0
  138.4645   73.6913  221.6337 H   0  0  0  0  0  0  0  0  0  0  0  0
  138.7950   74.5972  220.0741 H   0  0  0  0  0  0  0  0  0  0  0  0
  140.7054   70.7885  221.8319 H   0  0  0  0  0  0  0  0  0  0  0  0
  139.0060   70.4470  220.2710 H   0  0  0  0  0  0  0  0  0  0  0  0
  139.5180   72.0010  219.6590 H   0  0  0  0  0  0  0  0  0  0  0  0
  138.9644   72.9684  222.9580 H   0  0  0  0  0  0  0  0  0  0  0  0
  138.0886   71.4600  222.5279 H   0  0  0  0  0  0  0  0  0  0  0  0
  140.9070   72.8633  224.4146 H   0  0  0  0  0  0  0  0  0  0  0  0
  141.8733   71.9276  226.4923 H   0  0  0  0  0  0  0  0  0  0  0  0
  141.9631   70.2164  228.0538 H   0  0  0  0  0  0  0  0  0  0  0  0
  139.4730   66.7588  227.6488 H   0  0  0  0  0  0  0  0  0  0  0  0
  138.4843   67.6585  225.5730 H   0  0  0  0  0  0  0  0  0  0  0  0
  138.3703   69.4588  223.8986 H   0  0  0  0  0  0  0  0  0  0  0  0
  142.4175   74.8103  221.2169 H   0  0  0  0  0  0  0  0  0  0  0  0
  141.3815   75.5468  219.9631 H   0  0  0  0  0  0  0  0  0  0  0  0
  141.0251   75.9369  222.9783 H   0  0  0  0  0  0  0  0  0  0  0  0
  141.8500   77.0959  221.9136 H   0  0  0  0  0  0  0  0  0  0  0  0
  1  2  1  0
  2  3  1  0
  3  4  2  0
  3  5  1  0
  5  6  1  0
  6  7  2  0
  7  8  1  0
  8  9  2  0
  9 10  1  0
 10 11  2  0
  5 12  1  0
 12 13  1  0
 13 14  1  0
 14 15  1  0
 15 16  1  0
 16 17  2  0
 16 18  1  0
 18 19  1  0
 18 20  1  0
 20 21  1  0
 21 22  2  0
 22 23  1  0
 23 24  2  0
 24 25  1  0
 25 26  2  0
 26 27  1  0
 26 28  1  0
 28 29  2  0
 29 30  1  0
 30 31  2  0
 15 32  1  0
 32 33  1  0
 11  6  1  0
 33 12  1  0
 31 21  1  0
 30 24  1  0
  1 34  1  0
  1 35  1  0
  1 36  1  0
  2 37  1  0
  2 38  1  0
  7 39  1  0
  8 40  1  0
  9 41  1  0
 10 42  1  0
 11 43  1  0
 12 44  1  0
 13 45  1  0
 13 46  1  0
 14 47  1  0
 14 48  1  0
 18 49  1  1
 19 50  1  0
 19 51  1  0
 20 52  1  0
 20 53  1  0
 22 54  1  0
 23 55  1  0
 25 56  1  0
 28 57  1  0
 29 58  1  0
 31 59  1  0
 32 60  1  0
 32 61  1  0
 33 62  1  0
 33 63  1  0
M  END
>  <smiles>  (29) 
CCC(=O)N(c1ccccc1)C1CCN(C(=O)[C@H](N)Cc2ccc3cc(F)ccc3c2)CC1

>  <score_type>  (29) 
oracle

>  <origin>  (29) 
autodockgpu

>  <m_score__min__energy>  (29) 
-8.7699999999999996

>  <m_primary>  (29) 
energy

>  <rmsd>  (29) 
6.354255621389009

>  <m_score__min__rmsd>  (29) 
6.354255621389009

>  <meeko>  (29) 
{"free_energy": -8.65, "intermolecular_energy": -11.04, "internal_energy": -1.54, "cluster_size": 26, "cluster_id": 1, "rank_in_cluster": 6}

>  <energy>  (29) 
-7.75

>  <cluster_rmsd>  (29) 
1.66

>  <cluster>  (29) 
2

$$$$

     RDKit          3D

 63 66  0  0  0  0  0  0  0  0999 V2000
  141.4280   82.0020  222.0160 C   0  0  0  0  0  0  0  0  0  0  0  0
  142.2620   80.7670  222.2980 C   0  0  0  0  0  0  0  0  0  0  0  0
  141.4800   79.8180  223.1510 C   0  0  0  0  0  0  0  0  0  0  0  0
  141.9760   79.4960  224.2410 O   0  0  0  0  0  0  0  0  0  0  0  0
  140.2190   79.3410  222.6690 N   0  0  0  0  0  0  0  0  0  0  0  0
  139.0050   80.0120  223.0440 C   0  0  0  0  0  0  0  0  0  0  0  0
  138.8020   80.2860  224.3870 C   0  0  0  0  0  0  0  0  0  0  0  0
  137.6600   80.9310  224.8350 C   0  0  0  0  0  0  0  0  0  0  0  0
  136.6960   81.3090  223.8910 C   0  0  0  0  0  0  0  0  0  0  0  0
  136.9000   81.0350  222.5450 C   0  0  0  0  0  0  0  0  0  0  0  0
  138.0580   80.3820  222.1060 C   0  0  0  0  0  0  0  0  0  0  0  0
  140.1000   78.1930  221.8070 C   0  0  0  0  0  0  0  0  0  0  0  0
  139.0940   77.1970  222.3080 C   0  0  0  0  0  0  0  0  0  0  0  0
  139.0860   75.9310  221.4800 C   0  0  0  0  0  0  0  0  0  0  0  0
  140.3850   75.4670  221.0980 N   0  0  0  0  0  0  0  0  0  0  0  0
  140.7890   74.1060  221.0820 C   0  0  0  0  0  0  0  0  0  0  0  0
  141.9730   73.7570  220.7470 O   0  0  0  0  0  0  0  0  0  0  0  0
  139.8830   72.9850  221.4490 C   0  0  2  0  0  0  0  0  0  0  0  0
  139.2130   73.2700  222.7230 N   0  0  0  0  0  0  0  0  0  0  0  0
  140.6790   71.7110  221.7080 C   0  0  0  0  0  0  0  0  0  0  0  0
  140.3290   71.1680  223.0680 C   0  0  0  0  0  0  0  0  0  0  0  0
  139.3950   70.1560  223.1520 C   0  0  0  0  0  0  0  0  0  0  0  0
  138.9990   69.5830  224.3410 C   0  0  0  0  0  0  0  0  0  0  0  0
  139.5890   70.0720  225.4950 C   0  0  0  0  0  0  0  0  0  0  0  0
  139.1850   69.4920  226.6820 C   0  0  0  0  0  0  0  0  0  0  0  0
  139.7350   69.9330  227.8760 C   0  0  0  0  0  0  0  0  0  0  0  0
  139.3400   69.3640  229.0620 F   0  0  0  0  0  0  0  0  0  0  0  0
  140.6690   70.9400  227.8200 C   0  0  0  0  0  0  0  0  0  0  0  0
  141.0780   71.5260  226.6320 C   0  0  0  0  0  0  0  0  0  0  0  0
  140.5250   71.0820  225.4390 C   0  0  0  0  0  0  0  0  0  0  0  0
  140.9060   71.6430  224.2210 C   0  0  0  0  0  0  0  0  0  0  0  0
  141.3680   76.4560  220.6900 C   0  0  0  0  0  0  0  0  0  0  0  0
  141.4490   77.4990  221.7670 C   0  0  0  0  0  0  0  0  0  0  0  0
  141.1185   82.4604  222.9668 H   0  0  0  0  0  0  0  0  0  0  0  0
  142.0246   82.7233  221.4383 H   0  0  0  0  0  0  0  0  0  0  0  0
  140.5360   81.7180  221.4383 H   0  0  0  0  0  0  0  0  0  0  0  0
  142.5225   80.2764  221.3486 H   0  0  0  0  0  0  0  0  0  0  0  0
  143.1819   81.0596  222.8254 H   0  0  0  0  0  0  0  0  0  0  0  0
  139.5674   79.9836  225.1169 H   0  0  0  0  0  0  0  0  0  0  0  0
  137.5141   81.1409  225.9049 H   0  0  0  0  0  0  0  0  0  0  0  0
  135.7788   81.8221  224.2157 H   0  0  0  0  0  0  0  0  0  0  0  0
  136.1383   81.3363  221.8108 H   0  0  0  0  0  0  0  0  0  0  0  0
  138.2115   80.1678  221.0380 H   0  0  0  0  0  0  0  0  0  0  0  0
  139.7709   78.5462  220.8186 H   0  0  0  0  0  0  0  0  0  0  0  0
  139.3387   76.9386  223.3488 H   0  0  0  0  0  0  0  0  0  0  0  0
  138.0971   77.6561  222.2347 H   0  0  0  0  0  0  0  0  0  0  0  0
  138.5964   75.1394  222.0662 H   0  0  0  0  0  0  0  0  0  0  0  0
  138.5505   76.1679  220.5488 H   0  0  0  0  0  0  0  0  0  0  0  0
  139.1734   72.8670  220.6168 H   0  0  0  0  0  0  0  0  0  0  0  0
  138.1830   73.1760  222.6580 H   0  0  0  0  0  0  0  0  0  0  0  0
  139.5530   74.1420  223.1450 H   0  0  0  0  0  0  0  0  0  0  0  0
  140.4333   70.9627  220.9401 H   0  0  0  0  0  0  0  0  0  0  0  0
  141.7549   71.9367  221.6692 H   0  0  0  0  0  0  0  0  0  0  0  0
  138.9422   69.7868  222.2200 H   0  0  0  0  0  0  0  0  0  0  0  0
  138.2511   68.7769  224.3722 H   0  0  0  0  0  0  0  0  0  0  0  0
  138.4342   68.6881  226.6799 H   0  0  0  0  0  0  0  0  0  0  0  0
  141.1123   71.2973  228.7612 H   0  0  0  0  0  0  0  0  0  0  0  0
  141.8288   72.3300  226.6349 H   0  0  0  0  0  0  0  0  0  0  0  0
  141.6532   72.4494  224.1837 H   0  0  0  0  0  0  0  0  0  0  0  0
  142.3492   75.9760  220.5602 H   0  0  0  0  0  0  0  0  0  0  0  0
  141.0754   76.9148  219.7340 H   0  0  0  0  0  0  0  0  0  0  0  0
  141.6605   77.0259  222.7373 H   0  0  0  0  0  0  0  0  0  0  0  0
  142.2565   78.2171  221.5614 H   0  0  0  0  0  0  0  0  0  0  0  0
  1  2  1  0
  2  3  1  0
  3  4  2  0
  3  5  1  0
  5  6  1  0
  6  7  2  0
  7  8  1  0
  8  9  2  0
  9 10  1  0
 10 11  2  0
  5 12  1  0
 12 13  1  0
 13 14  1  0
 14 15  1  0
 15 16  1  0
 16 17  2  0
 16 18  1  0
 18 19  1  0
 18 20  1  0
 20 21  1  0
 21 22  2  0
 22 23  1  0
 23 24  2  0
 24 25  1  0
 25 26  2  0
 26 27  1  0
 26 28  1  0
 28 29  2  0
 29 30  1  0
 30 31  2  0
 15 32  1  0
 32 33  1  0
 11  6  1  0
 33 12  1  0
 31 21  1  0
 30 24  1  0
  1 34  1  0
  1 35  1  0
  1 36  1  0
  2 37  1  0
  2 38  1  0
  7 39  1  0
  8 40  1  0
  9 41  1  0
 10 42  1  0
 11 43  1  0
 12 44  1  0
 13 45  1  0
 13 46  1  0
 14 47  1  0
 14 48  1  0
 18 49  1  6
 19 50  1  0
 19 51  1  0
 20 52  1  0
 20 53  1  0
 22 54  1  0
 23 55  1  0
 25 56  1  0
 28 57  1  0
 29 58  1  0
 31 59  1  0
 32 60  1  0
 32 61  1  0
 33 62  1  0
 33 63  1  0
M  END
>  <smiles>  (30) 
CCC(=O)N(c1ccccc1)C1CCN(C(=O)[C@H](N)Cc2ccc3cc(F)ccc3c2)CC1

>  <score_type>  (30) 
oracle

>  <origin>  (30) 
autodockgpu

>  <m_score__min__energy>  (30) 
-8.7699999999999996

>  <m_primary>  (30) 
energy

>  <rmsd>  (30) 
5.431476578077884

>  <m_score__min__rmsd>  (30) 
5.431476578077884

>  <meeko>  (30) 
{"free_energy": -8.67, "intermolecular_energy": -11.05, "internal_energy": -1.49, "cluster_size": 4, "cluster_id": 2, "rank_in_cluster": 1}

>  <energy>  (30) 
-7.72

>  <cluster_rmsd>  (30) 
1.65

>  <cluster>  (30) 
2

$$$$

     RDKit          3D

 63 66  0  0  0  0  0  0  0  0999 V2000
  137.8430   80.6050  224.2870 C   0  0  0  0  0  0  0  0  0  0  0  0
  138.0700   81.1410  222.8870 C   0  0  0  0  0  0  0  0  0  0  0  0
  138.1200   80.0020  221.9170 C   0  0  0  0  0  0  0  0  0  0  0  0
  137.1880   79.9090  221.1050 O   0  0  0  0  0  0  0  0  0  0  0  0
  139.2260   79.0950  221.9800 N   0  0  0  0  0  0  0  0  0  0  0  0
  140.4960   79.5430  222.4790 C   0  0  0  0  0  0  0  0  0  0  0  0
  141.2600   80.3670  221.6680 C   0  0  0  0  0  0  0  0  0  0  0  0
  142.4960   80.8460  222.0720 C   0  0  0  0  0  0  0  0  0  0  0  0
  142.9700   80.4770  223.3390 C   0  0  0  0  0  0  0  0  0  0  0  0
  142.2040   79.6530  224.1520 C   0  0  0  0  0  0  0  0  0  0  0  0
  140.9570   79.1760  223.7310 C   0  0  0  0  0  0  0  0  0  0  0  0
  139.1300   77.7210  221.5570 C   0  0  0  0  0  0  0  0  0  0  0  0
  139.1950   76.7580  222.7080 C   0  0  0  0  0  0  0  0  0  0  0  0
  139.2430   75.3200  222.2430 C   0  0  0  0  0  0  0  0  0  0  0  0
  140.0850   75.0940  221.1070 N   0  0  0  0  0  0  0  0  0  0  0  0
  140.9410   73.9740  220.9380 C   0  0  0  0  0  0  0  0  0  0  0  0
  141.6830   73.8400  219.9050 O   0  0  0  0  0  0  0  0  0  0  0  0
  141.0450   72.8750  221.9350 C   0  0  2  0  0  0  0  0  0  0  0  0
  141.8720   71.7850  221.4030 N   0  0  0  0  0  0  0  0  0  0  0  0
  139.6820   72.2400  222.1820 C   0  0  0  0  0  0  0  0  0  0  0  0
  139.7240   71.4370  223.4560 C   0  0  0  0  0  0  0  0  0  0  0  0
  139.0700   70.2230  223.4900 C   0  0  0  0  0  0  0  0  0  0  0  0
  139.0420   69.4050  224.5980 C   0  0  0  0  0  0  0  0  0  0  0  0
  139.7160   69.8540  225.7210 C   0  0  0  0  0  0  0  0  0  0  0  0
  139.6820   69.0270  226.8280 C   0  0  0  0  0  0  0  0  0  0  0  0
  140.3370   69.4160  227.9870 C   0  0  0  0  0  0  0  0  0  0  0  0
  140.3080   68.6030  229.0930 F   0  0  0  0  0  0  0  0  0  0  0  0
  140.9970   70.6220  227.9790 C   0  0  0  0  0  0  0  0  0  0  0  0
  141.0340   71.4550  226.8720 C   0  0  0  0  0  0  0  0  0  0  0  0
  140.3780   71.0640  225.7140 C   0  0  0  0  0  0  0  0  0  0  0  0
  140.3890   71.8700  224.5760 C   0  0  0  0  0  0  0  0  0  0  0  0
  140.0640   76.0800  220.0390 C   0  0  0  0  0  0  0  0  0  0  0  0
  140.3110   77.4290  220.6500 C   0  0  0  0  0  0  0  0  0  0  0  0
  138.1616   81.3572  225.0237 H   0  0  0  0  0  0  0  0  0  0  0  0
  136.7743   80.3847  224.4265 H   0  0  0  0  0  0  0  0  0  0  0  0
  138.4284   79.6842  224.4265 H   0  0  0  0  0  0  0  0  0  0  0  0
  137.2462   81.8175  222.6156 H   0  0  0  0  0  0  0  0  0  0  0  0
  139.0223   81.6907  222.8555 H   0  0  0  0  0  0  0  0  0  0  0  0
  140.8749   80.6484  220.6768 H   0  0  0  0  0  0  0  0  0  0  0  0
  143.0900   81.4989  221.4156 H   0  0  0  0  0  0  0  0  0  0  0  0
  143.9478   80.8401  223.6883 H   0  0  0  0  0  0  0  0  0  0  0  0
  142.5836   79.3697  225.1448 H   0  0  0  0  0  0  0  0  0  0  0  0
  140.3564   78.5233  224.3816 H   0  0  0  0  0  0  0  0  0  0  0  0
  138.1611   77.5900  221.0529 H   0  0  0  0  0  0  0  0  0  0  0  0
  140.0987   76.9706  223.2980 H   0  0  0  0  0  0  0  0  0  0  0  0
  138.2849   76.8891  223.3118 H   0  0  0  0  0  0  0  0  0  0  0  0
  139.6131   74.7017  223.0741 H   0  0  0  0  0  0  0  0  0  0  0  0
  138.2209   75.0554  221.9341 H   0  0  0  0  0  0  0  0  0  0  0  0
  141.4665   73.3168  222.8499 H   0  0  0  0  0  0  0  0  0  0  0  0
  142.8280   71.7810  221.8030 H   0  0  0  0  0  0  0  0  0  0  0  0
  141.8190   71.7320  220.3780 H   0  0  0  0  0  0  0  0  0  0  0  0
  138.9209   73.0291  222.2712 H   0  0  0  0  0  0  0  0  0  0  0  0
  139.4284   71.5785  221.3405 H   0  0  0  0  0  0  0  0  0  0  0  0
  138.5426   69.8903  222.5838 H   0  0  0  0  0  0  0  0  0  0  0  0
  138.5102   68.4421  224.5909 H   0  0  0  0  0  0  0  0  0  0  0  0
  139.1409   68.0700  226.7902 H   0  0  0  0  0  0  0  0  0  0  0  0
  141.5196   70.9404  228.8931 H   0  0  0  0  0  0  0  0  0  0  0  0
  141.5754   72.4118  226.9111 H   0  0  0  0  0  0  0  0  0  0  0  0
  140.9199   72.8334  224.5759 H   0  0  0  0  0  0  0  0  0  0  0  0
  140.8511   75.8525  219.3051 H   0  0  0  0  0  0  0  0  0  0  0  0
  139.0923   76.0654  219.5237 H   0  0  0  0  0  0  0  0  0  0  0  0
  141.2431   77.4155  221.2340 H   0  0  0  0  0  0  0  0  0  0  0  0
  140.4137   78.2016  219.8738 H   0  0  0  0  0  0  0  0  0  0  0  0
  1  2  1  0
  2  3  1  0
  3  4  2  0
  3  5  1  0
  5  6  1  0
  6  7  2  0
  7  8  1  0
  8  9  2  0
  9 10  1  0
 10 11  2  0
  5 12  1  0
 12 13  1  0
 13 14  1  0
 14 15  1  0
 15 16  1  0
 16 17  2  0
 16 18  1  0
 18 19  1  0
 18 20  1  0
 20 21  1  0
 21 22  2  0
 22 23  1  0
 23 24  2  0
 24 25  1  0
 25 26  2  0
 26 27  1  0
 26 28  1  0
 28 29  2  0
 29 30  1  0
 30 31  2  0
 15 32  1  0
 32 33  1  0
 11  6  1  0
 33 12  1  0
 31 21  1  0
 30 24  1  0
  1 34  1  0
  1 35  1  0
  1 36  1  0
  2 37  1  0
  2 38  1  0
  7 39  1  0
  8 40  1  0
  9 41  1  0
 10 42  1  0
 11 43  1  0
 12 44  1  0
 13 45  1  0
 13 46  1  0
 14 47  1  0
 14 48  1  0
 18 49  1  1
 19 50  1  0
 19 51  1  0
 20 52  1  0
 20 53  1  0
 22 54  1  0
 23 55  1  0
 25 56  1  0
 28 57  1  0
 29 58  1  0
 31 59  1  0
 32 60  1  0
 32 61  1  0
 33 62  1  0
 33 63  1  0
M  END
>  <smiles>  (31) 
CCC(=O)N(c1ccccc1)C1CCN(C(=O)[C@H](N)Cc2ccc3cc(F)ccc3c2)CC1

>  <score_type>  (31) 
oracle

>  <origin>  (31) 
autodockgpu

>  <m_score__min__energy>  (31) 
-8.7699999999999996

>  <m_primary>  (31) 
energy

>  <rmsd>  (31) 
5.686763893593805

>  <m_score__min__rmsd>  (31) 
5.686763893593805

>  <meeko>  (31) 
{"free_energy": -7.9, "intermolecular_energy": -10.28, "internal_energy": -2.26, "cluster_size": 26, "cluster_id": 1, "rank_in_cluster": 18}

>  <energy>  (31) 
-8.59

>  <cluster_rmsd>  (31) 
0.0

>  <cluster>  (31) 
3

$$$$

     RDKit          3D

 63 66  0  0  0  0  0  0  0  0999 V2000
  138.0830   80.4740  224.1540 C   0  0  0  0  0  0  0  0  0  0  0  0
  137.8470   79.9230  222.7600 C   0  0  0  0  0  0  0  0  0  0  0  0
  138.1710   78.4630  222.7370 C   0  0  0  0  0  0  0  0  0  0  0  0
  137.2810   77.6790  223.0990 O   0  0  0  0  0  0  0  0  0  0  0  0
  139.4750   78.0550  222.3060 N   0  0  0  0  0  0  0  0  0  0  0  0
  140.6180   78.8740  222.6000 C   0  0  0  0  0  0  0  0  0  0  0  0
  141.1590   79.6300  221.5720 C   0  0  0  0  0  0  0  0  0  0  0  0
  142.2600   80.4480  221.7680 C   0  0  0  0  0  0  0  0  0  0  0  0
  142.8280   80.5010  223.0490 C   0  0  0  0  0  0  0  0  0  0  0  0
  142.2860   79.7450  224.0790 C   0  0  0  0  0  0  0  0  0  0  0  0
  141.1730   78.9220  223.8660 C   0  0  0  0  0  0  0  0  0  0  0  0
  139.7050   76.8370  221.5730 C   0  0  0  0  0  0  0  0  0  0  0  0
  138.6980   75.7700  221.8960 C   0  0  0  0  0  0  0  0  0  0  0  0
  139.0350   74.4520  221.2370 C   0  0  0  0  0  0  0  0  0  0  0  0
  140.4270   74.1170  221.2650 N   0  0  0  0  0  0  0  0  0  0  0  0
  140.9450   72.8170  221.5040 C   0  0  0  0  0  0  0  0  0  0  0  0
  142.2030   72.5860  221.5340 O   0  0  0  0  0  0  0  0  0  0  0  0
  140.0820   71.6280  221.7380 C   0  0  2  0  0  0  0  0  0  0  0  0
  139.2240   71.3880  220.5730 N   0  0  0  0  0  0  0  0  0  0  0  0
  139.1120   71.8840  222.8860 C   0  0  0  0  0  0  0  0  0  0  0  0
  139.4510   70.9800  224.0420 C   0  0  0  0  0  0  0  0  0  0  0  0
  139.1140   69.6450  223.9530 C   0  0  0  0  0  0  0  0  0  0  0  0
  139.3750   68.7270  224.9460 C   0  0  0  0  0  0  0  0  0  0  0  0
  140.0100   69.2010  226.0820 C   0  0  0  0  0  0  0  0  0  0  0  0
  140.2670   68.2730  227.0730 C   0  0  0  0  0  0  0  0  0  0  0  0
  140.9000   68.6800  228.2380 C   0  0  0  0  0  0  0  0  0  0  0  0
  141.1590   67.7670  229.2290 F   0  0  0  0  0  0  0  0  0  0  0  0
  141.2470   70.0060  228.3510 C   0  0  0  0  0  0  0  0  0  0  0  0
  140.9920   70.9410  227.3600 C   0  0  0  0  0  0  0  0  0  0  0  0
  140.3580   70.5310  226.1960 C   0  0  0  0  0  0  0  0  0  0  0  0
  140.0800   71.4370  225.1730 C   0  0  0  0  0  0  0  0  0  0  0  0
  141.3870   75.1810  221.0260 C   0  0  0  0  0  0  0  0  0  0  0  0
  141.0720   76.3080  221.9660 C   0  0  0  0  0  0  0  0  0  0  0  0
  137.7649   79.7313  224.9005 H   0  0  0  0  0  0  0  0  0  0  0  0
  139.1532   80.6914  224.2860 H   0  0  0  0  0  0  0  0  0  0  0  0
  137.5020   81.3986  224.2860 H   0  0  0  0  0  0  0  0  0  0  0  0
  136.7926   80.0686  222.4823 H   0  0  0  0  0  0  0  0  0  0  0  0
  138.4925   80.4521  222.0435 H   0  0  0  0  0  0  0  0  0  0  0  0
  140.7016   79.5792  220.5729 H   0  0  0  0  0  0  0  0  0  0  0  0
  142.6776   81.0403  220.9405 H   0  0  0  0  0  0  0  0  0  0  0  0
  143.7024   81.1412  223.2373 H   0  0  0  0  0  0  0  0  0  0  0  0
  142.7386   79.7931  225.0804 H   0  0  0  0  0  0  0  0  0  0  0  0
  140.7493   78.3264  224.6880 H   0  0  0  0  0  0  0  0  0  0  0  0
  139.6278   77.0694  220.5006 H   0  0  0  0  0  0  0  0  0  0  0  0
  138.6720   75.6251  222.9861 H   0  0  0  0  0  0  0  0  0  0  0  0
  137.7206   76.0997  221.5138 H   0  0  0  0  0  0  0  0  0  0  0  0
  138.4789   73.6563  221.7543 H   0  0  0  0  0  0  0  0  0  0  0  0
  138.7562   74.5498  220.1774 H   0  0  0  0  0  0  0  0  0  0  0  0
  140.7556   70.7838  221.9467 H   0  0  0  0  0  0  0  0  0  0  0  0
  138.7620   70.4610  220.6050 H   0  0  0  0  0  0  0  0  0  0  0  0
  139.7040   71.6140  219.6930 H   0  0  0  0  0  0  0  0  0  0  0  0
  139.1915   72.9335  223.2059 H   0  0  0  0  0  0  0  0  0  0  0  0
  138.0847   71.6794  222.5501 H   0  0  0  0  0  0  0  0  0  0  0  0
  138.6099   69.2951  223.0401 H   0  0  0  0  0  0  0  0  0  0  0  0
  139.0929   67.6689  224.8420 H   0  0  0  0  0  0  0  0  0  0  0  0
  139.9724   67.2217  226.9392 H   0  0  0  0  0  0  0  0  0  0  0  0
  141.7502   70.3400  229.2704 H   0  0  0  0  0  0  0  0  0  0  0  0
  141.2878   71.9919  227.4944 H   0  0  0  0  0  0  0  0  0  0  0  0
  140.3592   72.4965  225.2706 H   0  0  0  0  0  0  0  0  0  0  0  0
  142.4067   74.8129  221.2125 H   0  0  0  0  0  0  0  0  0  0  0  0
  141.3258   75.5244  219.9828 H   0  0  0  0  0  0  0  0  0  0  0  0
  141.0527   75.9420  223.0032 H   0  0  0  0  0  0  0  0  0  0  0  0
  141.8342   77.0987  221.9040 H   0  0  0  0  0  0  0  0  0  0  0  0
  1  2  1  0
  2  3  1  0
  3  4  2  0
  3  5  1  0
  5  6  1  0
  6  7  2  0
  7  8  1  0
  8  9  2  0
  9 10  1  0
 10 11  2  0
  5 12  1  0
 12 13  1  0
 13 14  1  0
 14 15  1  0
 15 16  1  0
 16 17  2  0
 16 18  1  0
 18 19  1  0
 18 20  1  0
 20 21  1  0
 21 22  2  0
 22 23  1  0
 23 24  2  0
 24 25  1  0
 25 26  2  0
 26 27  1  0
 26 28  1  0
 28 29  2  0
 29 30  1  0
 30 31  2  0
 15 32  1  0
 32 33  1  0
 11  6  1  0
 33 12  1  0
 31 21  1  0
 30 24  1  0
  1 34  1  0
  1 35  1  0
  1 36  1  0
  2 37  1  0
  2 38  1  0
  7 39  1  0
  8 40  1  0
  9 41  1  0
 10 42  1  0
 11 43  1  0
 12 44  1  0
 13 45  1  0
 13 46  1  0
 14 47  1  0
 14 48  1  0
 18 49  1  1
 19 50  1  0
 19 51  1  0
 20 52  1  0
 20 53  1  0
 22 54  1  0
 23 55  1  0
 25 56  1  0
 28 57  1  0
 29 58  1  0
 31 59  1  0
 32 60  1  0
 32 61  1  0
 33 62  1  0
 33 63  1  0
M  END
>  <smiles>  (32) 
CCC(=O)N(c1ccccc1)C1CCN(C(=O)[C@H](N)Cc2ccc3cc(F)ccc3c2)CC1

>  <score_type>  (32) 
oracle

>  <origin>  (32) 
autodockgpu

>  <m_score__min__energy>  (32) 
-8.7699999999999996

>  <m_primary>  (32) 
energy

>  <rmsd>  (32) 
6.416459058039787

>  <m_score__min__rmsd>  (32) 
6.416459058039787

>  <meeko>  (32) 
{"free_energy": -8.76, "intermolecular_energy": -11.15, "internal_energy": -1.43, "cluster_size": 26, "cluster_id": 1, "rank_in_cluster": 2}

>  <energy>  (32) 
-8.59

>  <cluster_rmsd>  (32) 
0.3

>  <cluster>  (32) 
3

$$$$

     RDKit          3D

 63 66  0  0  0  0  0  0  0  0999 V2000
  143.3070   75.6540  218.3460 C   0  0  0  0  0  0  0  0  0  0  0  0
  143.3310   76.3810  219.6770 C   0  0  0  0  0  0  0  0  0  0  0  0
  142.4140   77.5620  219.6190 C   0  0  0  0  0  0  0  0  0  0  0  0
  142.5020   78.3000  218.6270 O   0  0  0  0  0  0  0  0  0  0  0  0
  141.4970   77.7730  220.6990 N   0  0  0  0  0  0  0  0  0  0  0  0
  141.7080   78.8550  221.6200 C   0  0  0  0  0  0  0  0  0  0  0  0
  141.7960   80.1390  221.1070 C   0  0  0  0  0  0  0  0  0  0  0  0
  141.9970   81.2400  221.9240 C   0  0  0  0  0  0  0  0  0  0  0  0
  142.1120   81.0290  223.3050 C   0  0  0  0  0  0  0  0  0  0  0  0
  142.0240   79.7430  223.8200 C   0  0  0  0  0  0  0  0  0  0  0  0
  141.8210   78.6400  222.9820 C   0  0  0  0  0  0  0  0  0  0  0  0
  140.3460   76.9350  220.9160 C   0  0  0  0  0  0  0  0  0  0  0  0
  140.5850   75.8880  221.9670 C   0  0  0  0  0  0  0  0  0  0  0  0
  139.4260   74.9220  222.0810 C   0  0  0  0  0  0  0  0  0  0  0  0
  138.8640   74.5240  220.8260 N   0  0  0  0  0  0  0  0  0  0  0  0
  138.4350   73.2080  220.5080 C   0  0  0  0  0  0  0  0  0  0  0  0
  137.9570   72.9120  219.3590 O   0  0  0  0  0  0  0  0  0  0  0  0
  138.5040   72.0770  221.4710 C   0  0  2  0  0  0  0  0  0  0  0  0
  137.7320   72.3910  222.6790 N   0  0  0  0  0  0  0  0  0  0  0  0
  139.9320   71.8780  221.9680 C   0  0  0  0  0  0  0  0  0  0  0  0
  139.9090   71.1490  223.2860 C   0  0  0  0  0  0  0  0  0  0  0  0
  139.3570   69.8850  223.3290 C   0  0  0  0  0  0  0  0  0  0  0  0
  139.2830   69.1270  224.4770 C   0  0  0  0  0  0  0  0  0  0  0  0
  139.7980   69.6920  225.6320 C   0  0  0  0  0  0  0  0  0  0  0  0
  139.7180   68.9250  226.7780 C   0  0  0  0  0  0  0  0  0  0  0  0
  140.2140   69.4300  227.9710 C   0  0  0  0  0  0  0  0  0  0  0  0
  140.1390   68.6760  229.1150 F   0  0  0  0  0  0  0  0  0  0  0  0
  140.7690   70.6880  227.9540 C   0  0  0  0  0  0  0  0  0  0  0  0
  140.8520   71.4620  226.8080 C   0  0  0  0  0  0  0  0  0  0  0  0
  140.3540   70.9540  225.6160 C   0  0  0  0  0  0  0  0  0  0  0  0
  140.4150   71.6980  224.4390 C   0  0  0  0  0  0  0  0  0  0  0  0
  138.7140   75.5380  219.7960 C   0  0  0  0  0  0  0  0  0  0  0  0
  140.0410   76.2150  219.6150 C   0  0  0  0  0  0  0  0  0  0  0  0
  143.2712   74.5687  218.5216 H   0  0  0  0  0  0  0  0  0  0  0  0
  142.4186   75.9627  217.7756 H   0  0  0  0  0  0  0  0  0  0  0  0
  144.2139   75.9034  217.7756 H   0  0  0  0  0  0  0  0  0  0  0  0
  142.9993   75.6984  220.4733 H   0  0  0  0  0  0  0  0  0  0  0  0
  144.3549   76.7228  219.8888 H   0  0  0  0  0  0  0  0  0  0  0  0
  141.7038   80.2885  220.0211 H   0  0  0  0  0  0  0  0  0  0  0  0
  142.0645   82.2528  221.5001 H   0  0  0  0  0  0  0  0  0  0  0  0
  142.2719   81.8823  223.9804 H   0  0  0  0  0  0  0  0  0  0  0  0
  142.1153   79.5879  224.9052 H   0  0  0  0  0  0  0  0  0  0  0  0
  141.7528   77.6239  223.3977 H   0  0  0  0  0  0  0  0  0  0  0  0
  139.5194   77.5781  221.2525 H   0  0  0  0  0  0  0  0  0  0  0  0
  141.4926   75.3240  221.7060 H   0  0  0  0  0  0  0  0  0  0  0  0
  140.6973   76.3986  222.9348 H   0  0  0  0  0  0  0  0  0  0  0  0
  139.7797   74.0198  222.6015 H   0  0  0  0  0  0  0  0  0  0  0  0
  138.6306   75.4483  222.6291 H   0  0  0  0  0  0  0  0  0  0  0  0
  138.1217   71.1903  220.9442 H   0  0  0  0  0  0  0  0  0  0  0  0
  136.7130   72.2590  222.5430 H   0  0  0  0  0  0  0  0  0  0  0  0
  138.0120   73.2910  223.0870 H   0  0  0  0  0  0  0  0  0  0  0  0
  140.4972   71.2871  221.2322 H   0  0  0  0  0  0  0  0  0  0  0  0
  140.4138   72.8580  222.0999 H   0  0  0  0  0  0  0  0  0  0  0  0
  138.9548   69.4602  222.3974 H   0  0  0  0  0  0  0  0  0  0  0  0
  138.8365   68.1217  224.4764 H   0  0  0  0  0  0  0  0  0  0  0  0
  139.2652   67.9231  226.7449 H   0  0  0  0  0  0  0  0  0  0  0  0
  141.1655   71.0989  228.8942 H   0  0  0  0  0  0  0  0  0  0  0  0
  141.3055   72.4636  226.8421 H   0  0  0  0  0  0  0  0  0  0  0  0
  140.8593   72.7043  224.4335 H   0  0  0  0  0  0  0  0  0  0  0  0
  138.4030   75.0676  218.8515 H   0  0  0  0  0  0  0  0  0  0  0  0
  137.9481   76.2708  220.0899 H   0  0  0  0  0  0  0  0  0  0  0  0
  140.8211   75.4690  219.4030 H   0  0  0  0  0  0  0  0  0  0  0  0
  140.0132   76.9195  218.7707 H   0  0  0  0  0  0  0  0  0  0  0  0
  1  2  1  0
  2  3  1  0
  3  4  2  0
  3  5  1  0
  5  6  1  0
  6  7  2  0
  7  8  1  0
  8  9  2  0
  9 10  1  0
 10 11  2  0
  5 12  1  0
 12 13  1  0
 13 14  1  0
 14 15  1  0
 15 16  1  0
 16 17  2  0
 16 18  1  0
 18 19  1  0
 18 20  1  0
 20 21  1  0
 21 22  2  0
 22 23  1  0
 23 24  2  0
 24 25  1  0
 25 26  2  0
 26 27  1  0
 26 28  1  0
 28 29  2  0
 29 30  1  0
 30 31  2  0
 15 32  1  0
 32 33  1  0
 11  6  1  0
 33 12  1  0
 31 21  1  0
 30 24  1  0
  1 34  1  0
  1 35  1  0
  1 36  1  0
  2 37  1  0
  2 38  1  0
  7 39  1  0
  8 40  1  0
  9 41  1  0
 10 42  1  0
 11 43  1  0
 12 44  1  0
 13 45  1  0
 13 46  1  0
 14 47  1  0
 14 48  1  0
 18 49  1  6
 19 50  1  0
 19 51  1  0
 20 52  1  0
 20 53  1  0
 22 54  1  0
 23 55  1  0
 25 56  1  0
 28 57  1  0
 29 58  1  0
 31 59  1  0
 32 60  1  0
 32 61  1  0
 33 62  1  0
 33 63  1  0
M  END
>  <smiles>  (33) 
CCC(=O)N(c1ccccc1)C1CCN(C(=O)[C@H](N)Cc2ccc3cc(F)ccc3c2)CC1

>  <score_type>  (33) 
oracle

>  <origin>  (33) 
autodockgpu

>  <m_score__min__energy>  (33) 
-8.7699999999999996

>  <m_primary>  (33) 
energy

>  <rmsd>  (33) 
6.166765574624289

>  <m_score__min__rmsd>  (33) 
6.166765574624289

>  <meeko>  (33) 
{"free_energy": -8.44, "intermolecular_energy": -10.83, "internal_energy": -1.57, "cluster_size": 20, "cluster_id": 3, "rank_in_cluster": 3}

>  <energy>  (33) 
-8.44

>  <cluster_rmsd>  (33) 
0.98

>  <cluster>  (33) 
3

$$$$

     RDKit          3D

 63 66  0  0  0  0  0  0  0  0999 V2000
  141.4700   81.9680  219.3390 C   0  0  0  0  0  0  0  0  0  0  0  0
  140.8950   80.6520  218.8490 C   0  0  0  0  0  0  0  0  0  0  0  0
  141.6410   79.5160  219.4750 C   0  0  0  0  0  0  0  0  0  0  0  0
  142.5940   79.0450  218.8360 O   0  0  0  0  0  0  0  0  0  0  0  0
  141.2190   79.0410  220.7580 N   0  0  0  0  0  0  0  0  0  0  0  0
  141.5460   79.7850  221.9430 C   0  0  0  0  0  0  0  0  0  0  0  0
  142.8600   79.7650  222.3820 C   0  0  0  0  0  0  0  0  0  0  0  0
  143.2610   80.4560  223.5140 C   0  0  0  0  0  0  0  0  0  0  0  0
  142.2990   81.1890  224.2210 C   0  0  0  0  0  0  0  0  0  0  0  0
  140.9820   81.2100  223.7810 C   0  0  0  0  0  0  0  0  0  0  0  0
  140.5900   80.5060  222.6360 C   0  0  0  0  0  0  0  0  0  0  0  0
  140.4670   77.8250  220.9270 C   0  0  0  0  0  0  0  0  0  0  0  0
  140.7610   77.1420  222.2330 C   0  0  0  0  0  0  0  0  0  0  0  0
  140.0820   75.7940  222.3350 C   0  0  0  0  0  0  0  0  0  0  0  0
  140.1170   75.0220  221.1300 N   0  0  0  0  0  0  0  0  0  0  0  0
  140.3380   73.6210  221.0690 C   0  0  0  0  0  0  0  0  0  0  0  0
  140.3750   72.9920  219.9560 O   0  0  0  0  0  0  0  0  0  0  0  0
  140.5420   72.7770  222.2760 C   0  0  2  0  0  0  0  0  0  0  0  0
  141.4520   71.6670  221.9720 N   0  0  0  0  0  0  0  0  0  0  0  0
  139.2380   72.1040  222.6890 C   0  0  0  0  0  0  0  0  0  0  0  0
  139.4940   71.1840  223.8540 C   0  0  0  0  0  0  0  0  0  0  0  0
  139.0990   69.8660  223.7490 C   0  0  0  0  0  0  0  0  0  0  0  0
  139.2830   68.9360  224.7490 C   0  0  0  0  0  0  0  0  0  0  0  0
  139.8990   69.3790  225.9080 C   0  0  0  0  0  0  0  0  0  0  0  0
  140.0780   68.4390  226.9050 C   0  0  0  0  0  0  0  0  0  0  0  0
  140.6880   68.8160  228.0920 C   0  0  0  0  0  0  0  0  0  0  0  0
  140.8700   67.8910  229.0890 F   0  0  0  0  0  0  0  0  0  0  0  0
  141.0910   70.1240  228.2210 C   0  0  0  0  0  0  0  0  0  0  0  0
  140.9140   71.0710  227.2250 C   0  0  0  0  0  0  0  0  0  0  0  0
  140.3030   70.6910  226.0380 C   0  0  0  0  0  0  0  0  0  0  0  0
  140.1030   71.6100  225.0080 C   0  0  0  0  0  0  0  0  0  0  0  0
  139.9070   75.7170  219.8710 C   0  0  0  0  0  0  0  0  0  0  0  0
  140.8640   76.8720  219.8140 C   0  0  0  0  0  0  0  0  0  0  0  0
  141.4749   81.9791  220.4389 H   0  0  0  0  0  0  0  0  0  0  0  0
  142.4990   82.0798  218.9666 H   0  0  0  0  0  0  0  0  0  0  0  0
  140.8530   82.7990  218.9666 H   0  0  0  0  0  0  0  0  0  0  0  0
  139.8326   80.5902  219.1272 H   0  0  0  0  0  0  0  0  0  0  0  0
  140.9923   80.5949  217.7548 H   0  0  0  0  0  0  0  0  0  0  0  0
  143.6046   79.1852  221.8169 H   0  0  0  0  0  0  0  0  0  0  0  0
  144.3084   80.4297  223.8492 H   0  0  0  0  0  0  0  0  0  0  0  0
  142.5866   81.7475  225.1240 H   0  0  0  0  0  0  0  0  0  0  0  0
  140.2339   81.7897  224.3417 H   0  0  0  0  0  0  0  0  0  0  0  0
  139.5444   80.5257  222.2948 H   0  0  0  0  0  0  0  0  0  0  0  0
  139.3982   78.0843  220.9069 H   0  0  0  0  0  0  0  0  0  0  0  0
  141.8481   76.9993  222.3220 H   0  0  0  0  0  0  0  0  0  0  0  0
  140.3747   77.7783  223.0429 H   0  0  0  0  0  0  0  0  0  0  0  0
  140.5801   75.2169  223.1280 H   0  0  0  0  0  0  0  0  0  0  0  0
  139.0216   75.9919  222.5506 H   0  0  0  0  0  0  0  0  0  0  0  0
  140.9333   73.4395  223.0621 H   0  0  0  0  0  0  0  0  0  0  0  0
  141.7930   71.6910  220.9940 H   0  0  0  0  0  0  0  0  0  0  0  0
  141.0720   70.7660  222.2880 H   0  0  0  0  0  0  0  0  0  0  0  0
  138.5062   72.8713  222.9818 H   0  0  0  0  0  0  0  0  0  0  0  0
  138.8418   71.5227  221.8433 H   0  0  0  0  0  0  0  0  0  0  0  0
  138.6116   69.5407  222.8181 H   0  0  0  0  0  0  0  0  0  0  0  0
  138.9565   67.8921  224.6326 H   0  0  0  0  0  0  0  0  0  0  0  0
  139.7401   67.4025  226.7586 H   0  0  0  0  0  0  0  0  0  0  0  0
  141.5765   70.4332  229.1584 H   0  0  0  0  0  0  0  0  0  0  0  0
  141.2523   72.1072  227.3727 H   0  0  0  0  0  0  0  0  0  0  0  0
  140.4269   72.6554  225.1183 H   0  0  0  0  0  0  0  0  0  0  0  0
  140.0969   75.0330  219.0307 H   0  0  0  0  0  0  0  0  0  0  0  0
  138.8697   76.0762  219.8010 H   0  0  0  0  0  0  0  0  0  0  0  0
  141.8942   76.5183  219.9676 H   0  0  0  0  0  0  0  0  0  0  0  0
  140.8237   77.3703  218.8342 H   0  0  0  0  0  0  0  0  0  0  0  0
  1  2  1  0
  2  3  1  0
  3  4  2  0
  3  5  1  0
  5  6  1  0
  6  7  2  0
  7  8  1  0
  8  9  2  0
  9 10  1  0
 10 11  2  0
  5 12  1  0
 12 13  1  0
 13 14  1  0
 14 15  1  0
 15 16  1  0
 16 17  2  0
 16 18  1  0
 18 19  1  0
 18 20  1  0
 20 21  1  0
 21 22  2  0
 22 23  1  0
 23 24  2  0
 24 25  1  0
 25 26  2  0
 26 27  1  0
 26 28  1  0
 28 29  2  0
 29 30  1  0
 30 31  2  0
 15 32  1  0
 32 33  1  0
 11  6  1  0
 33 12  1  0
 31 21  1  0
 30 24  1  0
  1 34  1  0
  1 35  1  0
  1 36  1  0
  2 37  1  0
  2 38  1  0
  7 39  1  0
  8 40  1  0
  9 41  1  0
 10 42  1  0
 11 43  1  0
 12 44  1  0
 13 45  1  0
 13 46  1  0
 14 47  1  0
 14 48  1  0
 18 49  1  1
 19 50  1  0
 19 51  1  0
 20 52  1  0
 20 53  1  0
 22 54  1  0
 23 55  1  0
 25 56  1  0
 28 57  1  0
 29 58  1  0
 31 59  1  0
 32 60  1  0
 32 61  1  0
 33 62  1  0
 33 63  1  0
M  END
>  <smiles>  (34) 
CCC(=O)N(c1ccccc1)C1CCN(C(=O)[C@H](N)Cc2ccc3cc(F)ccc3c2)CC1

>  <score_type>  (34) 
oracle

>  <origin>  (34) 
autodockgpu

>  <m_score__min__energy>  (34) 
-8.7699999999999996

>  <m_primary>  (34) 
energy

>  <rmsd>  (34) 
5.8714755443716555

>  <m_score__min__rmsd>  (34) 
5.8714755443716555

>  <meeko>  (34) 
{"free_energy": -8.08, "intermolecular_energy": -10.46, "internal_energy": -2.16, "cluster_size": 20, "cluster_id": 3, "rank_in_cluster": 7}

>  <energy>  (34) 
-8.44

>  <cluster_rmsd>  (34) 
0.48

>  <cluster>  (34) 
3

$$$$

     RDKit          3D

 63 66  0  0  0  0  0  0  0  0999 V2000
  142.5400   80.0290  218.2290 C   0  0  0  0  0  0  0  0  0  0  0  0
  142.2750   78.6190  218.7200 C   0  0  0  0  0  0  0  0  0  0  0  0
  141.0400   78.6060  219.5640 C   0  0  0  0  0  0  0  0  0  0  0  0
  139.9580   78.7890  218.9870 O   0  0  0  0  0  0  0  0  0  0  0  0
  141.1740   78.3860  220.9730 N   0  0  0  0  0  0  0  0  0  0  0  0
  141.5150   79.4780  221.8410 C   0  0  0  0  0  0  0  0  0  0  0  0
  142.2030   79.1910  223.0090 C   0  0  0  0  0  0  0  0  0  0  0  0
  142.5730   80.1840  223.9020 C   0  0  0  0  0  0  0  0  0  0  0  0
  142.2330   81.5090  223.5990 C   0  0  0  0  0  0  0  0  0  0  0  0
  141.5440   81.7980  222.4290 C   0  0  0  0  0  0  0  0  0  0  0  0
  141.1760   80.7840  221.5360 C   0  0  0  0  0  0  0  0  0  0  0  0
  140.9800   77.0940  221.5790 C   0  0  0  0  0  0  0  0  0  0  0  0
  141.4160   75.9670  220.6860 C   0  0  0  0  0  0  0  0  0  0  0  0
  141.0710   74.6150  221.2700 C   0  0  0  0  0  0  0  0  0  0  0  0
  139.7800   74.5480  221.8840 N   0  0  0  0  0  0  0  0  0  0  0  0
  138.8860   73.4500  221.7790 C   0  0  0  0  0  0  0  0  0  0  0  0
  137.7360   73.4600  222.3390 O   0  0  0  0  0  0  0  0  0  0  0  0
  139.2060   72.2120  221.0200 C   0  0  2  0  0  0  0  0  0  0  0  0
  138.1580   71.2050  221.2270 N   0  0  0  0  0  0  0  0  0  0  0  0
  140.4760   71.5630  221.5590 C   0  0  0  0  0  0  0  0  0  0  0  0
  140.2320   71.0690  222.9610 C   0  0  0  0  0  0  0  0  0  0  0  0
  139.5470   69.8840  223.1310 C   0  0  0  0  0  0  0  0  0  0  0  0
  139.2690   69.3370  224.3650 C   0  0  0  0  0  0  0  0  0  0  0  0
  139.7130   70.0390  225.4730 C   0  0  0  0  0  0  0  0  0  0  0  0
  139.4290   69.4830  226.7050 C   0  0  0  0  0  0  0  0  0  0  0  0
  139.8450   70.1350  227.8570 C   0  0  0  0  0  0  0  0  0  0  0  0
  139.5660   69.5920  229.0870 F   0  0  0  0  0  0  0  0  0  0  0  0
  140.5300   71.3180  227.7150 C   0  0  0  0  0  0  0  0  0  0  0  0
  140.8180   71.8800  226.4810 C   0  0  0  0  0  0  0  0  0  0  0  0
  140.4000   71.2260  225.3300 C   0  0  0  0  0  0  0  0  0  0  0  0
  140.6680   71.7550  224.0680 C   0  0  0  0  0  0  0  0  0  0  0  0
  139.3470   75.6830  222.6800 C   0  0  0  0  0  0  0  0  0  0  0  0
  139.4960   76.9200  221.8430 C   0  0  0  0  0  0  0  0  0  0  0  0
  142.6661   80.7000  219.0915 H   0  0  0  0  0  0  0  0  0  0  0  0
  143.4557   80.0390  217.6197 H   0  0  0  0  0  0  0  0  0  0  0  0
  141.6904   80.3708  217.6197 H   0  0  0  0  0  0  0  0  0  0  0  0
  142.1360   77.9509  217.8573 H   0  0  0  0  0  0  0  0  0  0  0  0
  143.1306   78.2736  219.3188 H   0  0  0  0  0  0  0  0  0  0  0  0
  142.4627   78.1460  223.2336 H   0  0  0  0  0  0  0  0  0  0  0  0
  143.1193   79.9384  224.8246 H   0  0  0  0  0  0  0  0  0  0  0  0
  142.5119   82.3199  224.2879 H   0  0  0  0  0  0  0  0  0  0  0  0
  141.2826   82.8415  222.1994 H   0  0  0  0  0  0  0  0  0  0  0  0
  140.6289   81.0210  220.6116 H   0  0  0  0  0  0  0  0  0  0  0  0
  141.5841   77.0586  222.4976 H   0  0  0  0  0  0  0  0  0  0  0  0
  140.9152   76.0714  219.7122 H   0  0  0  0  0  0  0  0  0  0  0  0
  142.5094   76.0218  220.5792 H   0  0  0  0  0  0  0  0  0  0  0  0
  141.1057   73.8714  220.4601 H   0  0  0  0  0  0  0  0  0  0  0  0
  141.8067   74.4191  222.0640 H   0  0  0  0  0  0  0  0  0  0  0  0
  139.3069   72.5051  219.9646 H   0  0  0  0  0  0  0  0  0  0  0  0
  137.5220   71.1230  220.4140 H   0  0  0  0  0  0  0  0  0  0  0  0
  137.6990   71.3150  222.1400 H   0  0  0  0  0  0  0  0  0  0  0  0
  140.7564   70.7161  220.9155 H   0  0  0  0  0  0  0  0  0  0  0  0
  141.2902   72.3026  221.5676 H   0  0  0  0  0  0  0  0  0  0  0  0
  139.2044   69.3471  222.2341 H   0  0  0  0  0  0  0  0  0  0  0  0
  138.7209   68.3885  224.4650 H   0  0  0  0  0  0  0  0  0  0  0  0
  138.8786   68.5330  226.7722 H   0  0  0  0  0  0  0  0  0  0  0  0
  140.8650   71.8428  228.6219 H   0  0  0  0  0  0  0  0  0  0  0  0
  141.3693   72.8296  226.4148 H   0  0  0  0  0  0  0  0  0  0  0  0
  141.2172   72.7021  223.9613 H   0  0  0  0  0  0  0  0  0  0  0  0
  138.2943   75.5544  222.9720 H   0  0  0  0  0  0  0  0  0  0  0  0
  139.9551   75.7638  223.5931 H   0  0  0  0  0  0  0  0  0  0  0  0
  138.9536   76.8023  220.8933 H   0  0  0  0  0  0  0  0  0  0  0  0
  139.0811   77.7983  222.3591 H   0  0  0  0  0  0  0  0  0  0  0  0
  1  2  1  0
  2  3  1  0
  3  4  2  0
  3  5  1  0
  5  6  1  0
  6  7  2  0
  7  8  1  0
  8  9  2  0
  9 10  1  0
 10 11  2  0
  5 12  1  0
 12 13  1  0
 13 14  1  0
 14 15  1  0
 15 16  1  0
 16 17  2  0
 16 18  1  0
 18 19  1  0
 18 20  1  0
 20 21  1  0
 21 22  2  0
 22 23  1  0
 23 24  2  0
 24 25  1  0
 25 26  2  0
 26 27  1  0
 26 28  1  0
 28 29  2  0
 29 30  1  0
 30 31  2  0
 15 32  1  0
 32 33  1  0
 11  6  1  0
 33 12  1  0
 31 21  1  0
 30 24  1  0
  1 34  1  0
  1 35  1  0
  1 36  1  0
  2 37  1  0
  2 38  1  0
  7 39  1  0
  8 40  1  0
  9 41  1  0
 10 42  1  0
 11 43  1  0
 12 44  1  0
 13 45  1  0
 13 46  1  0
 14 47  1  0
 14 48  1  0
 18 49  1  6
 19 50  1  0
 19 51  1  0
 20 52  1  0
 20 53  1  0
 22 54  1  0
 23 55  1  0
 25 56  1  0
 28 57  1  0
 29 58  1  0
 31 59  1  0
 32 60  1  0
 32 61  1  0
 33 62  1  0
 33 63  1  0
M  END
>  <smiles>  (35) 
CCC(=O)N(c1ccccc1)C1CCN(C(=O)[C@H](N)Cc2ccc3cc(F)ccc3c2)CC1

>  <score_type>  (35) 
oracle

>  <origin>  (35) 
autodockgpu

>  <m_score__min__energy>  (35) 
-8.7699999999999996

>  <m_primary>  (35) 
energy

>  <rmsd>  (35) 
5.791175569234938

>  <m_score__min__rmsd>  (35) 
5.791175569234938

>  <meeko>  (35) 
{"free_energy": -7.88, "intermolecular_energy": -10.27, "internal_energy": -2.25, "cluster_size": 20, "cluster_id": 3, "rank_in_cluster": 14}

>  <energy>  (35) 
-8.18

>  <cluster_rmsd>  (35) 
1.43

>  <cluster>  (35) 
3

$$$$

     RDKit          3D

 63 66  0  0  0  0  0  0  0  0999 V2000
  142.5830   78.9380  218.1710 C   0  0  0  0  0  0  0  0  0  0  0  0
  141.8890   80.0820  218.8850 C   0  0  0  0  0  0  0  0  0  0  0  0
  140.5620   79.6190  219.4010 C   0  0  0  0  0  0  0  0  0  0  0  0
  139.5670   79.8600  218.7010 O   0  0  0  0  0  0  0  0  0  0  0  0
  140.5150   78.9340  220.6570 N   0  0  0  0  0  0  0  0  0  0  0  0
  141.0950   79.5350  221.8260 C   0  0  0  0  0  0  0  0  0  0  0  0
  142.4490   79.3470  222.0510 C   0  0  0  0  0  0  0  0  0  0  0  0
  143.0890   79.8920  223.1520 C   0  0  0  0  0  0  0  0  0  0  0  0
  142.3300   80.6520  224.0520 C   0  0  0  0  0  0  0  0  0  0  0  0
  140.9730   80.8420  223.8270 C   0  0  0  0  0  0  0  0  0  0  0  0
  140.3400   80.2840  222.7100 C   0  0  0  0  0  0  0  0  0  0  0  0
  139.9020   77.6400  220.8140 C   0  0  0  0  0  0  0  0  0  0  0  0
  140.2110   77.0130  222.1440 C   0  0  0  0  0  0  0  0  0  0  0  0
  139.6890   75.5970  222.2400 C   0  0  0  0  0  0  0  0  0  0  0  0
  139.8710   74.8190  221.0530 N   0  0  0  0  0  0  0  0  0  0  0  0
  140.2570   73.4530  221.0270 C   0  0  0  0  0  0  0  0  0  0  0  0
  140.4210   72.8180  219.9290 O   0  0  0  0  0  0  0  0  0  0  0  0
  140.4990   72.6540  222.2580 C   0  0  2  0  0  0  0  0  0  0  0  0
  141.3920   71.5280  221.9640 N   0  0  0  0  0  0  0  0  0  0  0  0
  139.2080   72.0070  222.7440 C   0  0  0  0  0  0  0  0  0  0  0  0
  139.5110   71.0770  223.8900 C   0  0  0  0  0  0  0  0  0  0  0  0
  139.2170   69.7370  223.7450 C   0  0  0  0  0  0  0  0  0  0  0  0
  139.4520   68.7970  224.7250 C   0  0  0  0  0  0  0  0  0  0  0  0
  140.0130   69.2550  225.9060 C   0  0  0  0  0  0  0  0  0  0  0  0
  140.2440   68.3050  226.8830 C   0  0  0  0  0  0  0  0  0  0  0  0
  140.8030   68.6940  228.0900 C   0  0  0  0  0  0  0  0  0  0  0  0
  141.0360   67.7590  229.0680 F   0  0  0  0  0  0  0  0  0  0  0  0
  141.1060   70.0240  228.2590 C   0  0  0  0  0  0  0  0  0  0  0  0
  140.8760   70.9810  227.2830 C   0  0  0  0  0  0  0  0  0  0  0  0
  140.3160   70.5890  226.0760 C   0  0  0  0  0  0  0  0  0  0  0  0
  140.0670   71.5170  225.0660 C   0  0  0  0  0  0  0  0  0  0  0  0
  139.6420   75.4680  219.7730 C   0  0  0  0  0  0  0  0  0  0  0  0
  140.4600   76.7270  219.7390 C   0  0  0  0  0  0  0  0  0  0  0  0
  143.0040   78.2440  218.9134 H   0  0  0  0  0  0  0  0  0  0  0  0
  141.8563   78.4043  217.5409 H   0  0  0  0  0  0  0  0  0  0  0  0
  143.3921   79.3360  217.5409 H   0  0  0  0  0  0  0  0  0  0  0  0
  142.5116   80.4201  219.7265 H   0  0  0  0  0  0  0  0  0  0  0  0
  141.7380   80.9143  218.1818 H   0  0  0  0  0  0  0  0  0  0  0  0
  143.0320   78.7484  221.3356 H   0  0  0  0  0  0  0  0  0  0  0  0
  144.1650   79.7324  223.3156 H   0  0  0  0  0  0  0  0  0  0  0  0
  142.8089   81.0978  224.9362 H   0  0  0  0  0  0  0  0  0  0  0  0
  140.3856   81.4410  224.5384 H   0  0  0  0  0  0  0  0  0  0  0  0
  139.2644   80.4381  222.5390 H   0  0  0  0  0  0  0  0  0  0  0  0
  138.8124   77.7719  220.7404 H   0  0  0  0  0  0  0  0  0  0  0  0
  141.3019   76.9993  222.2848 H   0  0  0  0  0  0  0  0  0  0  0  0
  139.7156   77.6104  222.9235 H   0  0  0  0  0  0  0  0  0  0  0  0
  140.2121   75.0926  223.0658 H   0  0  0  0  0  0  0  0  0  0  0  0
  138.6038   75.6725  222.4030 H   0  0  0  0  0  0  0  0  0  0  0  0
  140.9212   73.3433  223.0041 H   0  0  0  0  0  0  0  0  0  0  0  0
  142.3860   71.7470  222.1610 H   0  0  0  0  0  0  0  0  0  0  0  0
  141.2020   71.1220  221.0390 H   0  0  0  0  0  0  0  0  0  0  0  0
  138.5108   72.7883  223.0807 H   0  0  0  0  0  0  0  0  0  0  0  0
  138.7517   71.4373  221.9211 H   0  0  0  0  0  0  0  0  0  0  0  0
  138.7714   69.4010  222.7970 H   0  0  0  0  0  0  0  0  0  0  0  0
  139.2062   67.7351  224.5768 H   0  0  0  0  0  0  0  0  0  0  0  0
  139.9867   67.2506  226.7043 H   0  0  0  0  0  0  0  0  0  0  0  0
  141.5515   70.3436  229.2126 H   0  0  0  0  0  0  0  0  0  0  0  0
  141.1336   72.0352  227.4629 H   0  0  0  0  0  0  0  0  0  0  0  0
  140.3110   72.5801  225.2082 H   0  0  0  0  0  0  0  0  0  0  0  0
  139.9504   74.8001  218.9552 H   0  0  0  0  0  0  0  0  0  0  0  0
  138.5744   75.7021  219.6484 H   0  0  0  0  0  0  0  0  0  0  0  0
  141.5158   76.4985  219.9465 H   0  0  0  0  0  0  0  0  0  0  0  0
  140.4092   77.2046  218.7494 H   0  0  0  0  0  0  0  0  0  0  0  0
  1  2  1  0
  2  3  1  0
  3  4  2  0
  3  5  1  0
  5  6  1  0
  6  7  2  0
  7  8  1  0
  8  9  2  0
  9 10  1  0
 10 11  2  0
  5 12  1  0
 12 13  1  0
 13 14  1  0
 14 15  1  0
 15 16  1  0
 16 17  2  0
 16 18  1  0
 18 19  1  0
 18 20  1  0
 20 21  1  0
 21 22  2  0
 22 23  1  0
 23 24  2  0
 24 25  1  0
 25 26  2  0
 26 27  1  0
 26 28  1  0
 28 29  2  0
 29 30  1  0
 30 31  2  0
 15 32  1  0
 32 33  1  0
 11  6  1  0
 33 12  1  0
 31 21  1  0
 30 24  1  0
  1 34  1  0
  1 35  1  0
  1 36  1  0
  2 37  1  0
  2 38  1  0
  7 39  1  0
  8 40  1  0
  9 41  1  0
 10 42  1  0
 11 43  1  0
 12 44  1  0
 13 45  1  0
 13 46  1  0
 14 47  1  0
 14 48  1  0
 18 49  1  1
 19 50  1  0
 19 51  1  0
 20 52  1  0
 20 53  1  0
 22 54  1  0
 23 55  1  0
 25 56  1  0
 28 57  1  0
 29 58  1  0
 31 59  1  0
 32 60  1  0
 32 61  1  0
 33 62  1  0
 33 63  1  0
M  END
>  <smiles>  (36) 
CCC(=O)N(c1ccccc1)C1CCN(C(=O)[C@H](N)Cc2ccc3cc(F)ccc3c2)CC1

>  <score_type>  (36) 
oracle

>  <origin>  (36) 
autodockgpu

>  <m_score__min__energy>  (36) 
-8.7699999999999996

>  <m_primary>  (36) 
energy

>  <rmsd>  (36) 
6.002390035540356

>  <m_score__min__rmsd>  (36) 
6.002390035540356

>  <meeko>  (36) 
{"free_energy": -7.81, "intermolecular_energy": -10.2, "internal_energy": -2.21, "cluster_size": 20, "cluster_id": 3, "rank_in_cluster": 18}

>  <energy>  (36) 
-8.13

>  <cluster_rmsd>  (36) 
1.36

>  <cluster>  (36) 
3

$$$$

     RDKit          3D

 63 66  0  0  0  0  0  0  0  0999 V2000
  137.9170   81.6390  223.5480 C   0  0  0  0  0  0  0  0  0  0  0  0
  137.8290   80.1540  223.8440 C   0  0  0  0  0  0  0  0  0  0  0  0
  137.8590   79.3850  222.5610 C   0  0  0  0  0  0  0  0  0  0  0  0
  136.8490   79.4410  221.8430 O   0  0  0  0  0  0  0  0  0  0  0  0
  139.0350   78.6350  222.2370 N   0  0  0  0  0  0  0  0  0  0  0  0
  140.3350   79.2080  222.4550 C   0  0  0  0  0  0  0  0  0  0  0  0
  140.7460   80.2280  221.6110 C   0  0  0  0  0  0  0  0  0  0  0  0
  141.9830   80.8360  221.7520 C   0  0  0  0  0  0  0  0  0  0  0  0
  142.8270   80.3960  222.7800 C   0  0  0  0  0  0  0  0  0  0  0  0
  142.4150   79.3750  223.6260 C   0  0  0  0  0  0  0  0  0  0  0  0
  141.1630   78.7690  223.4720 C   0  0  0  0  0  0  0  0  0  0  0  0
  138.9830   77.3050  221.6890 C   0  0  0  0  0  0  0  0  0  0  0  0
  139.1540   76.2420  222.7380 C   0  0  0  0  0  0  0  0  0  0  0  0
  139.2470   74.8580  222.1350 C   0  0  0  0  0  0  0  0  0  0  0  0
  140.0380   74.7850  220.9440 N   0  0  0  0  0  0  0  0  0  0  0  0
  140.9360   73.7320  220.6290 C   0  0  0  0  0  0  0  0  0  0  0  0
  141.6290   73.7340  219.5540 O   0  0  0  0  0  0  0  0  0  0  0  0
  141.1450   72.5510  221.5090 C   0  0  2  0  0  0  0  0  0  0  0  0
  141.9050   71.5160  220.7990 N   0  0  0  0  0  0  0  0  0  0  0  0
  139.8140   71.8890  221.8470 C   0  0  0  0  0  0  0  0  0  0  0  0
  139.9180   71.2060  223.1850 C   0  0  0  0  0  0  0  0  0  0  0  0
  139.4980   69.8950  223.2890 C   0  0  0  0  0  0  0  0  0  0  0  0
  139.5480   69.1710  224.4600 C   0  0  0  0  0  0  0  0  0  0  0  0
  140.0500   69.8230  225.5750 C   0  0  0  0  0  0  0  0  0  0  0  0
  140.0950   69.0890  226.7450 C   0  0  0  0  0  0  0  0  0  0  0  0
  140.5860   69.6790  227.8990 C   0  0  0  0  0  0  0  0  0  0  0  0
  140.6340   68.9600  229.0670 F   0  0  0  0  0  0  0  0  0  0  0  0
  141.0110   70.9840  227.8220 C   0  0  0  0  0  0  0  0  0  0  0  0
  140.9690   71.7260  226.6520 C   0  0  0  0  0  0  0  0  0  0  0  0
  140.4760   71.1320  225.4980 C   0  0  0  0  0  0  0  0  0  0  0  0
  140.4140   71.8390  224.2980 C   0  0  0  0  0  0  0  0  0  0  0  0
  139.9150   75.8640  219.9780 C   0  0  0  0  0  0  0  0  0  0  0  0
  140.1280   77.1610  220.7030 C   0  0  0  0  0  0  0  0  0  0  0  0
  137.9503   82.2000  224.4936 H   0  0  0  0  0  0  0  0  0  0  0  0
  138.8289   81.8438  222.9679 H   0  0  0  0  0  0  0  0  0  0  0  0
  137.0357   81.9501  222.9679 H   0  0  0  0  0  0  0  0  0  0  0  0
  138.6818   79.8543  224.4707 H   0  0  0  0  0  0  0  0  0  0  0  0
  136.8896   79.9420  224.3756 H   0  0  0  0  0  0  0  0  0  0  0  0
  140.0726   80.5634  220.8085 H   0  0  0  0  0  0  0  0  0  0  0  0
  142.2946   81.6440  221.0737 H   0  0  0  0  0  0  0  0  0  0  0  0
  143.8154   80.8591  222.9168 H   0  0  0  0  0  0  0  0  0  0  0  0
  143.0841   79.0367  224.4309 H   0  0  0  0  0  0  0  0  0  0  0  0
  140.8441   77.9602  224.1459 H   0  0  0  0  0  0  0  0  0  0  0  0
  137.9965   77.1719  221.2210 H   0  0  0  0  0  0  0  0  0  0  0  0
  140.0759   76.4457  223.3025 H   0  0  0  0  0  0  0  0  0  0  0  0
  138.2710   76.2675  223.3935 H   0  0  0  0  0  0  0  0  0  0  0  0
  139.6898   74.1851  222.8841 H   0  0  0  0  0  0  0  0  0  0  0  0
  138.2242   74.5692  221.8514 H   0  0  0  0  0  0  0  0  0  0  0  0
  141.6662   72.9146  222.4069 H   0  0  0  0  0  0  0  0  0  0  0  0
  142.6170   71.9150  220.1610 H   0  0  0  0  0  0  0  0  0  0  0  0
  141.2870   70.8070  220.3850 H   0  0  0  0  0  0  0  0  0  0  0  0
  139.0239   72.6533  221.8860 H   0  0  0  0  0  0  0  0  0  0  0  0
  139.5677   71.1458  221.0743 H   0  0  0  0  0  0  0  0  0  0  0  0
  139.1023   69.4021  222.3887 H   0  0  0  0  0  0  0  0  0  0  0  0
  139.2062   68.1265  224.5076 H   0  0  0  0  0  0  0  0  0  0  0  0
  139.7445   68.0464  226.7603 H   0  0  0  0  0  0  0  0  0  0  0  0
  141.4029   71.4620  228.7319 H   0  0  0  0  0  0  0  0  0  0  0  0
  141.3205   72.7682  226.6380 H   0  0  0  0  0  0  0  0  0  0  0  0
  140.7557   72.8832  224.2439 H   0  0  0  0  0  0  0  0  0  0  0  0
  140.6734   75.7478  219.1898 H   0  0  0  0  0  0  0  0  0  0  0  0
  138.9198   75.8465  219.5097 H   0  0  0  0  0  0  0  0  0  0  0  0
  141.0888   77.1423  221.2384 H   0  0  0  0  0  0  0  0  0  0  0  0
  140.1526   78.0068  220.0002 H   0  0  0  0  0  0  0  0  0  0  0  0
  1  2  1  0
  2  3  1  0
  3  4  2  0
  3  5  1  0
  5  6  1  0
  6  7  2  0
  7  8  1  0
  8  9  2  0
  9 10  1  0
 10 11  2  0
  5 12  1  0
 12 13  1  0
 13 14  1  0
 14 15  1  0
 15 16  1  0
 16 17  2  0
 16 18  1  0
 18 19  1  0
 18 20  1  0
 20 21  1  0
 21 22  2  0
 22 23  1  0
 23 24  2  0
 24 25  1  0
 25 26  2  0
 26 27  1  0
 26 28  1  0
 28 29  2  0
 29 30  1  0
 30 31  2  0
 15 32  1  0
 32 33  1  0
 11  6  1  0
 33 12  1  0
 31 21  1  0
 30 24  1  0
  1 34  1  0
  1 35  1  0
  1 36  1  0
  2 37  1  0
  2 38  1  0
  7 39  1  0
  8 40  1  0
  9 41  1  0
 10 42  1  0
 11 43  1  0
 12 44  1  0
 13 45  1  0
 13 46  1  0
 14 47  1  0
 14 48  1  0
 18 49  1  1
 19 50  1  0
 19 51  1  0
 20 52  1  0
 20 53  1  0
 22 54  1  0
 23 55  1  0
 25 56  1  0
 28 57  1  0
 29 58  1  0
 31 59  1  0
 32 60  1  0
 32 61  1  0
 33 62  1  0
 33 63  1  0
M  END
>  <smiles>  (37) 
CCC(=O)N(c1ccccc1)C1CCN(C(=O)[C@H](N)Cc2ccc3cc(F)ccc3c2)CC1

>  <score_type>  (37) 
oracle

>  <origin>  (37) 
autodockgpu

>  <m_score__min__energy>  (37) 
-8.7699999999999996

>  <m_primary>  (37) 
energy

>  <rmsd>  (37) 
5.8631044990967185

>  <m_score__min__rmsd>  (37) 
5.8631044990967185

>  <meeko>  (37) 
{"free_energy": -7.57, "intermolecular_energy": -9.95, "internal_energy": -2.28, "cluster_size": 26, "cluster_id": 1, "rank_in_cluster": 25}

>  <energy>  (37) 
-8.08

>  <cluster_rmsd>  (37) 
1.48

>  <cluster>  (37) 
3

$$$$

     RDKit          3D

 63 66  0  0  0  0  0  0  0  0999 V2000
  137.9940   80.9530  222.6800 C   0  0  0  0  0  0  0  0  0  0  0  0
  138.1280   79.7450  223.5870 C   0  0  0  0  0  0  0  0  0  0  0  0
  138.2190   78.5030  222.7580 C   0  0  0  0  0  0  0  0  0  0  0  0
  137.1610   77.9020  222.5200 O   0  0  0  0  0  0  0  0  0  0  0  0
  139.5060   78.0820  222.2920 N   0  0  0  0  0  0  0  0  0  0  0  0
  140.6620   78.8990  222.5380 C   0  0  0  0  0  0  0  0  0  0  0  0
  141.1660   79.6460  221.4860 C   0  0  0  0  0  0  0  0  0  0  0  0
  142.2760   80.4610  221.6360 C   0  0  0  0  0  0  0  0  0  0  0  0
  142.8930   80.5200  222.8930 C   0  0  0  0  0  0  0  0  0  0  0  0
  142.3880   79.7720  223.9480 C   0  0  0  0  0  0  0  0  0  0  0  0
  141.2650   78.9520  223.7820 C   0  0  0  0  0  0  0  0  0  0  0  0
  139.7070   76.8520  221.5700 C   0  0  0  0  0  0  0  0  0  0  0  0
  138.6870   75.8050  221.9200 C   0  0  0  0  0  0  0  0  0  0  0  0
  138.9940   74.4740  221.2720 C   0  0  0  0  0  0  0  0  0  0  0  0
  140.3800   74.1170  221.2840 N   0  0  0  0  0  0  0  0  0  0  0  0
  140.8810   72.8110  221.5320 C   0  0  0  0  0  0  0  0  0  0  0  0
  142.1350   72.5610  221.5480 O   0  0  0  0  0  0  0  0  0  0  0  0
  140.0020   71.6400  221.7910 C   0  0  2  0  0  0  0  0  0  0  0  0
  139.0910   71.4290  220.6610 N   0  0  0  0  0  0  0  0  0  0  0  0
  139.0860   71.9060  222.9810 C   0  0  0  0  0  0  0  0  0  0  0  0
  139.4630   70.9940  224.1190 C   0  0  0  0  0  0  0  0  0  0  0  0
  139.1440   69.6550  224.0230 C   0  0  0  0  0  0  0  0  0  0  0  0
  139.4400   68.7310  225.0000 C   0  0  0  0  0  0  0  0  0  0  0  0
  140.0920   69.2030  226.1280 C   0  0  0  0  0  0  0  0  0  0  0  0
  140.3840   68.2690  227.1030 C   0  0  0  0  0  0  0  0  0  0  0  0
  141.0360   68.6730  228.2580 C   0  0  0  0  0  0  0  0  0  0  0  0
  141.3290   67.7530  229.2340 F   0  0  0  0  0  0  0  0  0  0  0  0
  141.3650   70.0020  228.3790 C   0  0  0  0  0  0  0  0  0  0  0  0
  141.0750   70.9440  227.4040 C   0  0  0  0  0  0  0  0  0  0  0  0
  140.4220   70.5360  226.2490 C   0  0  0  0  0  0  0  0  0  0  0  0
  140.1100   71.4490  225.2420 C   0  0  0  0  0  0  0  0  0  0  0  0
  141.3540   75.1620  221.0210 C   0  0  0  0  0  0  0  0  0  0  0  0
  141.0710   76.3050  221.9510 C   0  0  0  0  0  0  0  0  0  0  0  0
  137.8932   81.8616  223.2919 H   0  0  0  0  0  0  0  0  0  0  0  0
  138.8885   81.0359  222.0451 H   0  0  0  0  0  0  0  0  0  0  0  0
  137.1031   80.8378  222.0451 H   0  0  0  0  0  0  0  0  0  0  0  0
  139.0373   79.8449  224.1979 H   0  0  0  0  0  0  0  0  0  0  0  0
  137.2481   79.6821  224.2442 H   0  0  0  0  0  0  0  0  0  0  0  0
  140.6714   79.5905  220.5050 H   0  0  0  0  0  0  0  0  0  0  0  0
  142.6635   81.0472  220.7897 H   0  0  0  0  0  0  0  0  0  0  0  0
  143.7763   81.1581  223.0435 H   0  0  0  0  0  0  0  0  0  0  0  0
  142.8785   79.8244  224.9312 H   0  0  0  0  0  0  0  0  0  0  0  0
  140.8707   78.3625  224.6229 H   0  0  0  0  0  0  0  0  0  0  0  0
  139.6195   77.0732  220.4960 H   0  0  0  0  0  0  0  0  0  0  0  0
  138.6739   75.6734  223.0120 H   0  0  0  0  0  0  0  0  0  0  0  0
  137.7097   76.1459  221.5478 H   0  0  0  0  0  0  0  0  0  0  0  0
  138.4329   73.6934  221.8066 H   0  0  0  0  0  0  0  0  0  0  0  0
  138.7019   74.5641  220.2153 H   0  0  0  0  0  0  0  0  0  0  0  0
  140.6652   70.7796  221.9638 H   0  0  0  0  0  0  0  0  0  0  0  0
  139.4650   71.8130  219.7740 H   0  0  0  0  0  0  0  0  0  0  0  0
  138.1280   71.7040  220.8920 H   0  0  0  0  0  0  0  0  0  0  0  0
  139.1935   72.9534  223.2995 H   0  0  0  0  0  0  0  0  0  0  0  0
  138.0423   71.7165  222.6897 H   0  0  0  0  0  0  0  0  0  0  0  0
  138.6254   69.3071  223.1174 H   0  0  0  0  0  0  0  0  0  0  0  0
  139.1720   67.6698  224.8904 H   0  0  0  0  0  0  0  0  0  0  0  0
  140.1020   67.2148  226.9644 H   0  0  0  0  0  0  0  0  0  0  0  0
  141.8822   70.3335  229.2915 H   0  0  0  0  0  0  0  0  0  0  0  0
  141.3578   71.9978  227.5435 H   0  0  0  0  0  0  0  0  0  0  0  0
  140.3765   72.5113  225.3449 H   0  0  0  0  0  0  0  0  0  0  0  0
  142.3697   74.7789  221.1988 H   0  0  0  0  0  0  0  0  0  0  0  0
  141.2842   75.4946  219.9748 H   0  0  0  0  0  0  0  0  0  0  0  0
  141.0601   75.9520  222.9928 H   0  0  0  0  0  0  0  0  0  0  0  0
  141.8452   77.0821  221.8689 H   0  0  0  0  0  0  0  0  0  0  0  0
  1  2  1  0
  2  3  1  0
  3  4  2  0
  3  5  1  0
  5  6  1  0
  6  7  2  0
  7  8  1  0
  8  9  2  0
  9 10  1  0
 10 11  2  0
  5 12  1  0
 12 13  1  0
 13 14  1  0
 14 15  1  0
 15 16  1  0
 16 17  2  0
 16 18  1  0
 18 19  1  0
 18 20  1  0
 20 21  1  0
 21 22  2  0
 22 23  1  0
 23 24  2  0
 24 25  1  0
 25 26  2  0
 26 27  1  0
 26 28  1  0
 28 29  2  0
 29 30  1  0
 30 31  2  0
 15 32  1  0
 32 33  1  0
 11  6  1  0
 33 12  1  0
 31 21  1  0
 30 24  1  0
  1 34  1  0
  1 35  1  0
  1 36  1  0
  2 37  1  0
  2 38  1  0
  7 39  1  0
  8 40  1  0
  9 41  1  0
 10 42  1  0
 11 43  1  0
 12 44  1  0
 13 45  1  0
 13 46  1  0
 14 47  1  0
 14 48  1  0
 18 49  1  1
 19 50  1  0
 19 51  1  0
 20 52  1  0
 20 53  1  0
 22 54  1  0
 23 55  1  0
 25 56  1  0
 28 57  1  0
 29 58  1  0
 31 59  1  0
 32 60  1  0
 32 61  1  0
 33 62  1  0
 33 63  1  0
M  END
>  <smiles>  (38) 
CCC(=O)N(c1ccccc1)C1CCN(C(=O)[C@H](N)Cc2ccc3cc(F)ccc3c2)CC1

>  <score_type>  (38) 
oracle

>  <origin>  (38) 
autodockgpu

>  <m_score__min__energy>  (38) 
-8.7699999999999996

>  <m_primary>  (38) 
energy

>  <rmsd>  (38) 
6.435879875667026

>  <m_score__min__rmsd>  (38) 
6.435879875667026

>  <meeko>  (38) 
{"free_energy": -8.62, "intermolecular_energy": -11.0, "internal_energy": -1.43, "cluster_size": 26, "cluster_id": 1, "rank_in_cluster": 7}

>  <energy>  (38) 
-8.04

>  <cluster_rmsd>  (38) 
1.59

>  <cluster>  (38) 
3

$$$$

     RDKit          3D

 63 66  0  0  0  0  0  0  0  0999 V2000
  137.9470   80.7640  224.5290 C   0  0  0  0  0  0  0  0  0  0  0  0
  137.9700   81.0410  223.0380 C   0  0  0  0  0  0  0  0  0  0  0  0
  137.8650   79.7510  222.2870 C   0  0  0  0  0  0  0  0  0  0  0  0
  136.7460   79.4340  221.8580 O   0  0  0  0  0  0  0  0  0  0  0  0
  139.0480   78.9630  222.1080 N   0  0  0  0  0  0  0  0  0  0  0  0
  140.3350   79.5160  222.4270 C   0  0  0  0  0  0  0  0  0  0  0  0
  140.9520   79.0980  223.5950 C   0  0  0  0  0  0  0  0  0  0  0  0
  142.1930   79.5790  223.9780 C   0  0  0  0  0  0  0  0  0  0  0  0
  142.8280   80.5140  223.1490 C   0  0  0  0  0  0  0  0  0  0  0  0
  142.2110   80.9330  221.9780 C   0  0  0  0  0  0  0  0  0  0  0  0
  140.9560   80.4390  221.6040 C   0  0  0  0  0  0  0  0  0  0  0  0
  139.0140   77.6120  221.6100 C   0  0  0  0  0  0  0  0  0  0  0  0
  139.0910   76.5910  222.7090 C   0  0  0  0  0  0  0  0  0  0  0  0
  139.2050   75.1830  222.1700 C   0  0  0  0  0  0  0  0  0  0  0  0
  140.0800   75.0510  221.0450 N   0  0  0  0  0  0  0  0  0  0  0  0
  140.9820   73.9740  220.8380 C   0  0  0  0  0  0  0  0  0  0  0  0
  141.7520   73.9240  219.8180 O   0  0  0  0  0  0  0  0  0  0  0  0
  141.1070   72.8270  221.7770 C   0  0  2  0  0  0  0  0  0  0  0  0
  142.0100   71.8130  221.2220 N   0  0  0  0  0  0  0  0  0  0  0  0
  139.7700   72.1100  221.9330 C   0  0  0  0  0  0  0  0  0  0  0  0
  139.7380   71.3870  223.2540 C   0  0  0  0  0  0  0  0  0  0  0  0
  139.0160   70.2150  223.3440 C   0  0  0  0  0  0  0  0  0  0  0  0
  138.9170   69.4710  224.4990 C   0  0  0  0  0  0  0  0  0  0  0  0
  139.5890   69.9520  225.6110 C   0  0  0  0  0  0  0  0  0  0  0  0
  139.4830   69.1990  226.7640 C   0  0  0  0  0  0  0  0  0  0  0  0
  140.1310   69.6230  227.9150 C   0  0  0  0  0  0  0  0  0  0  0  0
  140.0320   68.8830  229.0670 F   0  0  0  0  0  0  0  0  0  0  0  0
  140.8580   70.7880  227.8510 C   0  0  0  0  0  0  0  0  0  0  0  0
  140.9680   71.5480  226.6960 C   0  0  0  0  0  0  0  0  0  0  0  0
  140.3180   71.1210  225.5470 C   0  0  0  0  0  0  0  0  0  0  0  0
  140.4000   71.8530  224.3630 C   0  0  0  0  0  0  0  0  0  0  0  0
  140.0450   76.0910  220.0310 C   0  0  0  0  0  0  0  0  0  0  0  0
  140.2260   77.4140  220.7180 C   0  0  0  0  0  0  0  0  0  0  0  0
  138.0258   81.7131  225.0795 H   0  0  0  0  0  0  0  0  0  0  0  0
  137.0042   80.2633  224.7944 H   0  0  0  0  0  0  0  0  0  0  0  0
  138.7943   80.1147  224.7944 H   0  0  0  0  0  0  0  0  0  0  0  0
  137.1218   81.6893  222.7728 H   0  0  0  0  0  0  0  0  0  0  0  0
  138.9128   81.5423  222.7737 H   0  0  0  0  0  0  0  0  0  0  0  0
  140.4420   78.3637  224.2359 H   0  0  0  0  0  0  0  0  0  0  0  0
  142.6681   79.2361  224.9089 H   0  0  0  0  0  0  0  0  0  0  0  0
  143.8140   80.9153  223.4259 H   0  0  0  0  0  0  0  0  0  0  0  0
  142.7173   81.6661  221.3328 H   0  0  0  0  0  0  0  0  0  0  0  0
  140.4734   80.7774  220.6753 H   0  0  0  0  0  0  0  0  0  0  0  0
  138.0623   77.4727  221.0763 H   0  0  0  0  0  0  0  0  0  0  0  0
  139.9726   76.8052  223.3310 H   0  0  0  0  0  0  0  0  0  0  0  0
  138.1632   76.6549  223.2964 H   0  0  0  0  0  0  0  0  0  0  0  0
  139.5802   74.5351  222.9759 H   0  0  0  0  0  0  0  0  0  0  0  0
  138.2012   74.8968  221.8230 H   0  0  0  0  0  0  0  0  0  0  0  0
  141.4698   73.2374  222.7309 H   0  0  0  0  0  0  0  0  0  0  0  0
  142.7780   72.2280  220.6660 H   0  0  0  0  0  0  0  0  0  0  0  0
  141.4920   71.0510  220.7650 H   0  0  0  0  0  0  0  0  0  0  0  0
  138.9532   72.8460  221.8981 H   0  0  0  0  0  0  0  0  0  0  0  0
  139.6458   71.3847  221.1154 H   0  0  0  0  0  0  0  0  0  0  0  0
  138.4918   69.8557  222.4462 H   0  0  0  0  0  0  0  0  0  0  0  0
  138.3326   68.5399  224.5367 H   0  0  0  0  0  0  0  0  0  0  0  0
  138.8906   68.2722  226.7696 H   0  0  0  0  0  0  0  0  0  0  0  0
  141.3764   71.1334  228.7576 H   0  0  0  0  0  0  0  0  0  0  0  0
  141.5611   72.4744  226.6910 H   0  0  0  0  0  0  0  0  0  0  0  0
  140.9831   72.7847  224.3184 H   0  0  0  0  0  0  0  0  0  0  0  0
  140.8566   75.9328  219.3056 H   0  0  0  0  0  0  0  0  0  0  0  0
  139.0863   76.0678  219.4922 H   0  0  0  0  0  0  0  0  0  0  0  0
  141.1445   77.4043  221.3232 H   0  0  0  0  0  0  0  0  0  0  0  0
  140.3163   78.2305  219.9864 H   0  0  0  0  0  0  0  0  0  0  0  0
  1  2  1  0
  2  3  1  0
  3  4  2  0
  3  5  1  0
  5  6  1  0
  6  7  2  0
  7  8  1  0
  8  9  2  0
  9 10  1  0
 10 11  2  0
  5 12  1  0
 12 13  1  0
 13 14  1  0
 14 15  1  0
 15 16  1  0
 16 17  2  0
 16 18  1  0
 18 19  1  0
 18 20  1  0
 20 21  1  0
 21 22  2  0
 22 23  1  0
 23 24  2  0
 24 25  1  0
 25 26  2  0
 26 27  1  0
 26 28  1  0
 28 29  2  0
 29 30  1  0
 30 31  2  0
 15 32  1  0
 32 33  1  0
 11  6  1  0
 33 12  1  0
 31 21  1  0
 30 24  1  0
  1 34  1  0
  1 35  1  0
  1 36  1  0
  2 37  1  0
  2 38  1  0
  7 39  1  0
  8 40  1  0
  9 41  1  0
 10 42  1  0
 11 43  1  0
 12 44  1  0
 13 45  1  0
 13 46  1  0
 14 47  1  0
 14 48  1  0
 18 49  1  1
 19 50  1  0
 19 51  1  0
 20 52  1  0
 20 53  1  0
 22 54  1  0
 23 55  1  0
 25 56  1  0
 28 57  1  0
 29 58  1  0
 31 59  1  0
 32 60  1  0
 32 61  1  0
 33 62  1  0
 33 63  1  0
M  END
>  <smiles>  (39) 
CCC(=O)N(c1ccccc1)C1CCN(C(=O)[C@H](N)Cc2ccc3cc(F)ccc3c2)CC1

>  <score_type>  (39) 
oracle

>  <origin>  (39) 
autodockgpu

>  <m_score__min__energy>  (39) 
-8.7699999999999996

>  <m_primary>  (39) 
energy

>  <rmsd>  (39) 
5.684199466194248

>  <m_score__min__rmsd>  (39) 
5.684199466194248

>  <meeko>  (39) 
{"free_energy": -7.9, "intermolecular_energy": -10.28, "internal_energy": -2.3, "cluster_size": 26, "cluster_id": 1, "rank_in_cluster": 17}

>  <energy>  (39) 
-8.03

>  <cluster_rmsd>  (39) 
1.31

>  <cluster>  (39) 
3

$$$$

     RDKit          3D

 63 66  0  0  0  0  0  0  0  0999 V2000
  142.2250   78.6030  217.5400 C   0  0  0  0  0  0  0  0  0  0  0  0
  142.2100   79.5040  218.7610 C   0  0  0  0  0  0  0  0  0  0  0  0
  140.8430   79.5020  219.3680 C   0  0  0  0  0  0  0  0  0  0  0  0
  139.9200   79.9750  218.6880 O   0  0  0  0  0  0  0  0  0  0  0  0
  140.6770   78.9630  220.6850 N   0  0  0  0  0  0  0  0  0  0  0  0
  141.1820   79.6800  221.8230 C   0  0  0  0  0  0  0  0  0  0  0  0
  142.5340   79.5780  222.1090 C   0  0  0  0  0  0  0  0  0  0  0  0
  143.1040   80.2370  223.1860 C   0  0  0  0  0  0  0  0  0  0  0  0
  142.2740   81.0230  223.9980 C   0  0  0  0  0  0  0  0  0  0  0  0
  140.9200   81.1260  223.7120 C   0  0  0  0  0  0  0  0  0  0  0  0
  140.3580   80.4540  222.6200 C   0  0  0  0  0  0  0  0  0  0  0  0
  140.0150   77.7090  220.9330 C   0  0  0  0  0  0  0  0  0  0  0  0
  140.5460   77.0090  222.1530 C   0  0  0  0  0  0  0  0  0  0  0  0
  139.9510   75.6290  222.3200 C   0  0  0  0  0  0  0  0  0  0  0  0
  139.8250   74.8890  221.1010 N   0  0  0  0  0  0  0  0  0  0  0  0
  140.0950   73.5020  220.9600 C   0  0  0  0  0  0  0  0  0  0  0  0
  139.9810   72.9020  219.8360 O   0  0  0  0  0  0  0  0  0  0  0  0
  140.5270   72.6400  222.0920 C   0  0  2  0  0  0  0  0  0  0  0  0
  141.4540   71.6060  221.6190 N   0  0  0  0  0  0  0  0  0  0  0  0
  139.3440   71.8650  222.6610 C   0  0  0  0  0  0  0  0  0  0  0  0
  139.7610   71.1720  223.9320 C   0  0  0  0  0  0  0  0  0  0  0  0
  140.6630   71.8060  224.7610 C   0  0  0  0  0  0  0  0  0  0  0  0
  141.1150   71.2690  225.9470 C   0  0  0  0  0  0  0  0  0  0  0  0
  140.6170   70.0250  226.2970 C   0  0  0  0  0  0  0  0  0  0  0  0
  141.0750   69.4930  227.4870 C   0  0  0  0  0  0  0  0  0  0  0  0
  140.6180   68.2500  227.8980 C   0  0  0  0  0  0  0  0  0  0  0  0
  141.0680   67.7130  229.0780 F   0  0  0  0  0  0  0  0  0  0  0  0
  139.7170   67.5980  227.0900 C   0  0  0  0  0  0  0  0  0  0  0  0
  139.2530   68.1250  225.8950 C   0  0  0  0  0  0  0  0  0  0  0  0
  139.7130   69.3690  225.4860 C   0  0  0  0  0  0  0  0  0  0  0  0
  139.2750   69.9390  224.2910 C   0  0  0  0  0  0  0  0  0  0  0  0
  139.3860   75.6030  219.9140 C   0  0  0  0  0  0  0  0  0  0  0  0
  140.2700   76.8040  219.7420 C   0  0  0  0  0  0  0  0  0  0  0  0
  142.2425   77.5510  217.8608 H   0  0  0  0  0  0  0  0  0  0  0  0
  141.3237   78.7875  216.9371 H   0  0  0  0  0  0  0  0  0  0  0  0
  143.1197   78.8174  216.9371 H   0  0  0  0  0  0  0  0  0  0  0  0
  142.9385   79.1346  219.4978 H   0  0  0  0  0  0  0  0  0  0  0  0
  142.4762   80.5288  218.4627 H   0  0  0  0  0  0  0  0  0  0  0  0
  143.1721   78.9568  221.4632 H   0  0  0  0  0  0  0  0  0  0  0  0
  144.1794   80.1460  223.3986 H   0  0  0  0  0  0  0  0  0  0  0  0
  142.6961   81.5579  224.8616 H   0  0  0  0  0  0  0  0  0  0  0  0
  140.2774   81.7462  224.3542 H   0  0  0  0  0  0  0  0  0  0  0  0
  139.2836   80.5397  222.4004 H   0  0  0  0  0  0  0  0  0  0  0  0
  138.9465   77.9169  221.0917 H   0  0  0  0  0  0  0  0  0  0  0  0
  141.6382   76.9158  222.0615 H   0  0  0  0  0  0  0  0  0  0  0  0
  140.2693   77.6065  223.0342 H   0  0  0  0  0  0  0  0  0  0  0  0
  140.5945   75.0572  223.0049 H   0  0  0  0  0  0  0  0  0  0  0  0
  138.9317   75.7710  222.7085 H   0  0  0  0  0  0  0  0  0  0  0  0
  140.9839   73.3059  222.8388 H   0  0  0  0  0  0  0  0  0  0  0  0
  142.4390   71.8140  221.8640 H   0  0  0  0  0  0  0  0  0  0  0  0
  141.2840   71.3640  220.6340 H   0  0  0  0  0  0  0  0  0  0  0  0
  138.5196   72.5607  222.8764 H   0  0  0  0  0  0  0  0  0  0  0  0
  139.0102   71.1159  221.9279 H   0  0  0  0  0  0  0  0  0  0  0  0
  141.0420   72.7935  224.4591 H   0  0  0  0  0  0  0  0  0  0  0  0
  141.8358   71.8022  226.5843 H   0  0  0  0  0  0  0  0  0  0  0  0
  141.7958   70.0506  228.1030 H   0  0  0  0  0  0  0  0  0  0  0  0
  139.3469   66.6117  227.4067 H   0  0  0  0  0  0  0  0  0  0  0  0
  138.5317   67.5663  225.2806 H   0  0  0  0  0  0  0  0  0  0  0  0
  138.5545   69.4113  223.6488 H   0  0  0  0  0  0  0  0  0  0  0  0
  139.4687   74.9493  219.0332 H   0  0  0  0  0  0  0  0  0  0  0  0
  138.3361   75.9133  220.0210 H   0  0  0  0  0  0  0  0  0  0  0  0
  141.3260   76.4969  219.7188 H   0  0  0  0  0  0  0  0  0  0  0  0
  140.0516   77.3233  218.7972 H   0  0  0  0  0  0  0  0  0  0  0  0
  1  2  1  0
  2  3  1  0
  3  4  2  0
  3  5  1  0
  5  6  1  0
  6  7  2  0
  7  8  1  0
  8  9  2  0
  9 10  1  0
 10 11  2  0
  5 12  1  0
 12 13  1  0
 13 14  1  0
 14 15  1  0
 15 16  1  0
 16 17  2  0
 16 18  1  0
 18 19  1  0
 18 20  1  0
 20 21  1  0
 21 22  2  0
 22 23  1  0
 23 24  2  0
 24 25  1  0
 25 26  2  0
 26 27  1  0
 26 28  1  0
 28 29  2  0
 29 30  1  0
 30 31  2  0
 15 32  1  0
 32 33  1  0
 11  6  1  0
 33 12  1  0
 31 21  1  0
 30 24  1  0
  1 34  1  0
  1 35  1  0
  1 36  1  0
  2 37  1  0
  2 38  1  0
  7 39  1  0
  8 40  1  0
  9 41  1  0
 10 42  1  0
 11 43  1  0
 12 44  1  0
 13 45  1  0
 13 46  1  0
 14 47  1  0
 14 48  1  0
 18 49  1  1
 19 50  1  0
 19 51  1  0
 20 52  1  0
 20 53  1  0
 22 54  1  0
 23 55  1  0
 25 56  1  0
 28 57  1  0
 29 58  1  0
 31 59  1  0
 32 60  1  0
 32 61  1  0
 33 62  1  0
 33 63  1  0
M  END
>  <smiles>  (40) 
CCC(=O)N(c1ccccc1)C1CCN(C(=O)[C@H](N)Cc2ccc3cc(F)ccc3c2)CC1

>  <score_type>  (40) 
oracle

>  <origin>  (40) 
autodockgpu

>  <m_score__min__energy>  (40) 
-8.7699999999999996

>  <m_primary>  (40) 
energy

>  <rmsd>  (40) 
5.976280457764816

>  <m_score__min__rmsd>  (40) 
5.976280457764816

>  <meeko>  (40) 
{"free_energy": -7.9, "intermolecular_energy": -10.29, "internal_energy": -2.16, "cluster_size": 20, "cluster_id": 3, "rank_in_cluster": 12}

>  <energy>  (40) 
-7.96

>  <cluster_rmsd>  (40) 
1.52

>  <cluster>  (40) 
3

$$$$

     RDKit          3D

 63 66  0  0  0  0  0  0  0  0999 V2000
  137.9330   80.7000  224.4020 C   0  0  0  0  0  0  0  0  0  0  0  0
  138.1100   81.1390  222.9610 C   0  0  0  0  0  0  0  0  0  0  0  0
  138.0700   79.9420  222.0640 C   0  0  0  0  0  0  0  0  0  0  0  0
  137.0430   79.7740  221.3880 O   0  0  0  0  0  0  0  0  0  0  0  0
  139.2030   79.0670  222.0350 N   0  0  0  0  0  0  0  0  0  0  0  0
  140.4900   79.5430  222.4600 C   0  0  0  0  0  0  0  0  0  0  0  0
  140.9610   79.1310  223.6960 C   0  0  0  0  0  0  0  0  0  0  0  0
  142.1920   79.5420  224.1810 C   0  0  0  0  0  0  0  0  0  0  0  0
  142.9680   80.3970  223.3870 C   0  0  0  0  0  0  0  0  0  0  0  0
  142.4970   80.8100  222.1480 C   0  0  0  0  0  0  0  0  0  0  0  0
  141.2500   80.3870  221.6710 C   0  0  0  0  0  0  0  0  0  0  0  0
  139.1180   77.6990  221.5910 C   0  0  0  0  0  0  0  0  0  0  0  0
  139.1990   76.7180  222.7260 C   0  0  0  0  0  0  0  0  0  0  0  0
  139.2600   75.2880  222.2380 C   0  0  0  0  0  0  0  0  0  0  0  0
  140.0970   75.0900  221.0940 N   0  0  0  0  0  0  0  0  0  0  0  0
  140.9630   73.9810  220.9040 C   0  0  0  0  0  0  0  0  0  0  0  0
  141.7010   73.8710  219.8650 O   0  0  0  0  0  0  0  0  0  0  0  0
  141.0840   72.8670  221.8820 C   0  0  2  0  0  0  0  0  0  0  0  0
  141.9290   71.8000  221.3340 N   0  0  0  0  0  0  0  0  0  0  0  0
  139.7310   72.2060  222.1170 C   0  0  0  0  0  0  0  0  0  0  0  0
  139.7720   71.4190  223.4000 C   0  0  0  0  0  0  0  0  0  0  0  0
  139.1440   70.1900  223.4380 C   0  0  0  0  0  0  0  0  0  0  0  0
  139.1180   69.3840  224.5550 C   0  0  0  0  0  0  0  0  0  0  0  0
  139.7640   69.8610  225.6830 C   0  0  0  0  0  0  0  0  0  0  0  0
  139.7320   69.0460  226.7990 C   0  0  0  0  0  0  0  0  0  0  0  0
  140.3590   69.4620  227.9630 C   0  0  0  0  0  0  0  0  0  0  0  0
  140.3320   68.6610  229.0770 F   0  0  0  0  0  0  0  0  0  0  0  0
  140.9910   70.6820  227.9520 C   0  0  0  0  0  0  0  0  0  0  0  0
  141.0270   71.5040  226.8360 C   0  0  0  0  0  0  0  0  0  0  0  0
  140.3990   71.0850  225.6720 C   0  0  0  0  0  0  0  0  0  0  0  0
  140.4090   71.8790  224.5260 C   0  0  0  0  0  0  0  0  0  0  0  0
  140.0610   76.0920  220.0430 C   0  0  0  0  0  0  0  0  0  0  0  0
  140.2970   77.4330  220.6730 C   0  0  0  0  0  0  0  0  0  0  0  0
  138.2587   81.5077  225.0740 H   0  0  0  0  0  0  0  0  0  0  0  0
  136.8730   80.4728  224.5885 H   0  0  0  0  0  0  0  0  0  0  0  0
  138.5390   79.8011  224.5885 H   0  0  0  0  0  0  0  0  0  0  0  0
  137.2992   81.8297  222.6863 H   0  0  0  0  0  0  0  0  0  0  0  0
  139.0793   81.6470  222.8499 H   0  0  0  0  0  0  0  0  0  0  0  0
  140.3412   78.4597  224.3086 H   0  0  0  0  0  0  0  0  0  0  0  0
  142.5512   79.2056  225.1648 H   0  0  0  0  0  0  0  0  0  0  0  0
  143.9496   80.7407  223.7451 H   0  0  0  0  0  0  0  0  0  0  0  0
  143.1133   81.4804  221.5309 H   0  0  0  0  0  0  0  0  0  0  0  0
  140.8826   80.7193  220.6889 H   0  0  0  0  0  0  0  0  0  0  0  0
  138.1474   77.5667  221.0905 H   0  0  0  0  0  0  0  0  0  0  0  0
  140.1034   76.9308  223.3150 H   0  0  0  0  0  0  0  0  0  0  0  0
  138.2904   76.8295  223.3359 H   0  0  0  0  0  0  0  0  0  0  0  0
  139.6422   74.6608  223.0569 H   0  0  0  0  0  0  0  0  0  0  0  0
  138.2391   75.0166  221.9314 H   0  0  0  0  0  0  0  0  0  0  0  0
  141.4977   73.3004  222.8045 H   0  0  0  0  0  0  0  0  0  0  0  0
  142.8870   71.8100  221.7280 H   0  0  0  0  0  0  0  0  0  0  0  0
  141.8710   71.7570  220.3090 H   0  0  0  0  0  0  0  0  0  0  0  0
  138.9522   72.9797  222.1864 H   0  0  0  0  0  0  0  0  0  0  0  0
  139.5032   71.5299  221.2797 H   0  0  0  0  0  0  0  0  0  0  0  0
  138.6375   69.8356  222.5281 H   0  0  0  0  0  0  0  0  0  0  0  0
  138.6088   68.4090  224.5509 H   0  0  0  0  0  0  0  0  0  0  0  0
  139.2138   68.0764  226.7636 H   0  0  0  0  0  0  0  0  0  0  0  0
  141.4913   71.0221  228.8707 H   0  0  0  0  0  0  0  0  0  0  0  0
  141.5455   72.4734  226.8729 H   0  0  0  0  0  0  0  0  0  0  0  0
  140.9171   72.8546  224.5240 H   0  0  0  0  0  0  0  0  0  0  0  0
  140.8469   75.8842  219.3019 H   0  0  0  0  0  0  0  0  0  0  0  0
  139.0868   76.0756  219.5325 H   0  0  0  0  0  0  0  0  0  0  0  0
  141.2324   77.4203  221.2517 H   0  0  0  0  0  0  0  0  0  0  0  0
  140.3871   78.2184  219.9081 H   0  0  0  0  0  0  0  0  0  0  0  0
  1  2  1  0
  2  3  1  0
  3  4  2  0
  3  5  1  0
  5  6  1  0
  6  7  2  0
  7  8  1  0
  8  9  2  0
  9 10  1  0
 10 11  2  0
  5 12  1  0
 12 13  1  0
 13 14  1  0
 14 15  1  0
 15 16  1  0
 16 17  2  0
 16 18  1  0
 18 19  1  0
 18 20  1  0
 20 21  1  0
 21 22  2  0
 22 23  1  0
 23 24  2  0
 24 25  1  0
 25 26  2  0
 26 27  1  0
 26 28  1  0
 28 29  2  0
 29 30  1  0
 30 31  2  0
 15 32  1  0
 32 33  1  0
 11  6  1  0
 33 12  1  0
 31 21  1  0
 30 24  1  0
  1 34  1  0
  1 35  1  0
  1 36  1  0
  2 37  1  0
  2 38  1  0
  7 39  1  0
  8 40  1  0
  9 41  1  0
 10 42  1  0
 11 43  1  0
 12 44  1  0
 13 45  1  0
 13 46  1  0
 14 47  1  0
 14 48  1  0
 18 49  1  1
 19 50  1  0
 19 51  1  0
 20 52  1  0
 20 53  1  0
 22 54  1  0
 23 55  1  0
 25 56  1  0
 28 57  1  0
 29 58  1  0
 31 59  1  0
 32 60  1  0
 32 61  1  0
 33 62  1  0
 33 63  1  0
M  END
>  <smiles>  (41) 
CCC(=O)N(c1ccccc1)C1CCN(C(=O)[C@H](N)Cc2ccc3cc(F)ccc3c2)CC1

>  <score_type>  (41) 
oracle

>  <origin>  (41) 
autodockgpu

>  <m_score__min__energy>  (41) 
-8.7699999999999996

>  <m_primary>  (41) 
energy

>  <rmsd>  (41) 
5.681888208300664

>  <m_score__min__rmsd>  (41) 
5.681888208300664

>  <meeko>  (41) 
{"free_energy": -7.91, "intermolecular_energy": -10.29, "internal_energy": -2.27, "cluster_size": 26, "cluster_id": 1, "rank_in_cluster": 16}

>  <energy>  (41) 
-7.92

>  <cluster_rmsd>  (41) 
1.45

>  <cluster>  (41) 
3

$$$$

     RDKit          3D

 63 66  0  0  0  0  0  0  0  0999 V2000
  142.5150   78.6260  217.4570 C   0  0  0  0  0  0  0  0  0  0  0  0
  142.1140   79.1380  218.8280 C   0  0  0  0  0  0  0  0  0  0  0  0
  142.1220   78.0060  219.8070 C   0  0  0  0  0  0  0  0  0  0  0  0
  142.9440   77.0980  219.6160 O   0  0  0  0  0  0  0  0  0  0  0  0
  141.1910   78.0340  220.8950 N   0  0  0  0  0  0  0  0  0  0  0  0
  141.2960   79.0500  221.9040 C   0  0  0  0  0  0  0  0  0  0  0  0
  142.5620   79.4080  222.3390 C   0  0  0  0  0  0  0  0  0  0  0  0
  142.7530   80.3800  223.3080 C   0  0  0  0  0  0  0  0  0  0  0  0
  141.6240   81.0080  223.8510 C   0  0  0  0  0  0  0  0  0  0  0  0
  140.3550   80.6510  223.4150 C   0  0  0  0  0  0  0  0  0  0  0  0
  140.1770   79.6660  222.4360 C   0  0  0  0  0  0  0  0  0  0  0  0
  140.1300   77.0700  221.0350 C   0  0  0  0  0  0  0  0  0  0  0  0
  140.3650   76.1150  222.1710 C   0  0  0  0  0  0  0  0  0  0  0  0
  139.3240   75.0190  222.2160 C   0  0  0  0  0  0  0  0  0  0  0  0
  138.9680   74.4900  220.9350 N   0  0  0  0  0  0  0  0  0  0  0  0
  138.7400   73.1160  220.6570 C   0  0  0  0  0  0  0  0  0  0  0  0
  138.4410   72.7050  219.4830 O   0  0  0  0  0  0  0  0  0  0  0  0
  138.8270   72.0530  221.6930 C   0  0  2  0  0  0  0  0  0  0  0  0
  137.8660   72.3140  222.7700 N   0  0  0  0  0  0  0  0  0  0  0  0
  140.1890   72.0770  222.3770 C   0  0  0  0  0  0  0  0  0  0  0  0
  140.1460   71.2190  223.6140 C   0  0  0  0  0  0  0  0  0  0  0  0
  139.5730   69.9670  223.5260 C   0  0  0  0  0  0  0  0  0  0  0  0
  139.4790   69.0970  224.5910 C   0  0  0  0  0  0  0  0  0  0  0  0
  139.9950   69.5340  225.8000 C   0  0  0  0  0  0  0  0  0  0  0  0
  139.8960   68.6560  226.8620 C   0  0  0  0  0  0  0  0  0  0  0  0
  140.3920   69.0290  228.1020 C   0  0  0  0  0  0  0  0  0  0  0  0
  140.2980   68.1650  229.1640 F   0  0  0  0  0  0  0  0  0  0  0  0
  140.9680   70.2720  228.2160 C   0  0  0  0  0  0  0  0  0  0  0  0
  141.0710   71.1580  227.1540 C   0  0  0  0  0  0  0  0  0  0  0  0
  140.5730   70.7810  225.9150 C   0  0  0  0  0  0  0  0  0  0  0  0
  140.6530   71.6390  224.8190 C   0  0  0  0  0  0  0  0  0  0  0  0
  138.8230   75.4230  219.8300 C   0  0  0  0  0  0  0  0  0  0  0  0
  140.0720   76.2520  219.7570 C   0  0  0  0  0  0  0  0  0  0  0  0
  143.1897   77.7646  217.5702 H   0  0  0  0  0  0  0  0  0  0  0  0
  141.6159   78.3173  216.9035 H   0  0  0  0  0  0  0  0  0  0  0  0
  143.0301   79.4249  216.9035 H   0  0  0  0  0  0  0  0  0  0  0  0
  142.8272   79.9094  219.1540 H   0  0  0  0  0  0  0  0  0  0  0  0
  141.1037   79.5700  218.7763 H   0  0  0  0  0  0  0  0  0  0  0  0
  143.4391   78.9071  221.9033 H   0  0  0  0  0  0  0  0  0  0  0  0
  143.7651   80.6517  223.6425 H   0  0  0  0  0  0  0  0  0  0  0  0
  141.7431   81.7833  224.6222 H   0  0  0  0  0  0  0  0  0  0  0  0
  139.4747   81.1504  223.8459 H   0  0  0  0  0  0  0  0  0  0  0  0
  139.1683   79.3876  222.0968 H   0  0  0  0  0  0  0  0  0  0  0  0
  139.1986   77.6202  221.2342 H   0  0  0  0  0  0  0  0  0  0  0  0
  141.3577   75.6568  222.0499 H   0  0  0  0  0  0  0  0  0  0  0  0
  140.3002   76.6831  223.1107 H   0  0  0  0  0  0  0  0  0  0  0  0
  139.7170   74.1961  222.8311 H   0  0  0  0  0  0  0  0  0  0  0  0
  138.4118   75.4690  222.6348 H   0  0  0  0  0  0  0  0  0  0  0  0
  138.6379   71.0976  221.1817 H   0  0  0  0  0  0  0  0  0  0  0  0
  136.9140   72.5150  222.4130 H   0  0  0  0  0  0  0  0  0  0  0  0
  138.2340   72.9880  223.4540 H   0  0  0  0  0  0  0  0  0  0  0  0
  140.9524   71.6876  221.6873 H   0  0  0  0  0  0  0  0  0  0  0  0
  140.4400   73.1108  222.6569 H   0  0  0  0  0  0  0  0  0  0  0  0
  139.1697   69.6460  222.5542 H   0  0  0  0  0  0  0  0  0  0  0  0
  139.0169   68.1043  224.4860 H   0  0  0  0  0  0  0  0  0  0  0  0
  139.4280   67.6700  226.7252 H   0  0  0  0  0  0  0  0  0  0  0  0
  141.3656   70.5781  229.1949 H   0  0  0  0  0  0  0  0  0  0  0  0
  141.5398   72.1435  227.2917 H   0  0  0  0  0  0  0  0  0  0  0  0
  141.1134   72.6331  224.9177 H   0  0  0  0  0  0  0  0  0  0  0  0
  138.6867   74.8694  218.8893 H   0  0  0  0  0  0  0  0  0  0  0  0
  137.9450   76.0671  219.9860 H   0  0  0  0  0  0  0  0  0  0  0  0
  140.9553   75.6005  219.6838 H   0  0  0  0  0  0  0  0  0  0  0  0
  140.0623   76.9038  218.8709 H   0  0  0  0  0  0  0  0  0  0  0  0
  1  2  1  0
  2  3  1  0
  3  4  2  0
  3  5  1  0
  5  6  1  0
  6  7  2  0
  7  8  1  0
  8  9  2  0
  9 10  1  0
 10 11  2  0
  5 12  1  0
 12 13  1  0
 13 14  1  0
 14 15  1  0
 15 16  1  0
 16 17  2  0
 16 18  1  0
 18 19  1  0
 18 20  1  0
 20 21  1  0
 21 22  2  0
 22 23  1  0
 23 24  2  0
 24 25  1  0
 25 26  2  0
 26 27  1  0
 26 28  1  0
 28 29  2  0
 29 30  1  0
 30 31  2  0
 15 32  1  0
 32 33  1  0
 11  6  1  0
 33 12  1  0
 31 21  1  0
 30 24  1  0
  1 34  1  0
  1 35  1  0
  1 36  1  0
  2 37  1  0
  2 38  1  0
  7 39  1  0
  8 40  1  0
  9 41  1  0
 10 42  1  0
 11 43  1  0
 12 44  1  0
 13 45  1  0
 13 46  1  0
 14 47  1  0
 14 48  1  0
 18 49  1  6
 19 50  1  0
 19 51  1  0
 20 52  1  0
 20 53  1  0
 22 54  1  0
 23 55  1  0
 25 56  1  0
 28 57  1  0
 29 58  1  0
 31 59  1  0
 32 60  1  0
 32 61  1  0
 33 62  1  0
 33 63  1  0
M  END
>  <smiles>  (42) 
CCC(=O)N(c1ccccc1)C1CCN(C(=O)[C@H](N)Cc2ccc3cc(F)ccc3c2)CC1

>  <score_type>  (42) 
oracle

>  <origin>  (42) 
autodockgpu

>  <m_score__min__energy>  (42) 
-8.7699999999999996

>  <m_primary>  (42) 
energy

>  <rmsd>  (42) 
6.174916284496498

>  <m_score__min__rmsd>  (42) 
6.174916284496498

>  <meeko>  (42) 
{"free_energy": -8.44, "intermolecular_energy": -10.82, "internal_energy": -1.54, "cluster_size": 20, "cluster_id": 3, "rank_in_cluster": 4}

>  <energy>  (42) 
-7.9

>  <cluster_rmsd>  (42) 
1.64

>  <cluster>  (42) 
3

$$$$

     RDKit          3D

 63 66  0  0  0  0  0  0  0  0999 V2000
  137.9070   80.7220  224.4650 C   0  0  0  0  0  0  0  0  0  0  0  0
  137.9810   81.0260  222.9810 C   0  0  0  0  0  0  0  0  0  0  0  0
  137.8880   79.7520  222.2030 C   0  0  0  0  0  0  0  0  0  0  0  0
  136.7900   79.4750  221.6970 O   0  0  0  0  0  0  0  0  0  0  0  0
  139.0560   78.9310  222.0870 N   0  0  0  0  0  0  0  0  0  0  0  0
  140.3400   79.4520  222.4670 C   0  0  0  0  0  0  0  0  0  0  0  0
  140.9410   80.3780  221.6290 C   0  0  0  0  0  0  0  0  0  0  0  0
  142.1770   80.9310  221.9200 C   0  0  0  0  0  0  0  0  0  0  0  0
  142.8230   80.5320  223.0980 C   0  0  0  0  0  0  0  0  0  0  0  0
  142.2220   79.6050  223.9380 C   0  0  0  0  0  0  0  0  0  0  0  0
  140.9720   79.0530  223.6310 C   0  0  0  0  0  0  0  0  0  0  0  0
  139.0100   77.5780  221.5970 C   0  0  0  0  0  0  0  0  0  0  0  0
  139.0970   76.5620  222.7000 C   0  0  0  0  0  0  0  0  0  0  0  0
  139.1990   75.1500  222.1660 C   0  0  0  0  0  0  0  0  0  0  0  0
  140.0570   75.0090  221.0290 N   0  0  0  0  0  0  0  0  0  0  0  0
  140.9520   73.9280  220.8160 C   0  0  0  0  0  0  0  0  0  0  0  0
  141.7080   73.8700  219.7850 O   0  0  0  0  0  0  0  0  0  0  0  0
  141.0850   72.7850  221.7580 C   0  0  2  0  0  0  0  0  0  0  0  0
  141.9610   71.7560  221.1880 N   0  0  0  0  0  0  0  0  0  0  0  0
  139.7430   72.0870  221.9510 C   0  0  0  0  0  0  0  0  0  0  0  0
  139.7370   71.3660  223.2730 C   0  0  0  0  0  0  0  0  0  0  0  0
  139.0630   70.1660  223.3650 C   0  0  0  0  0  0  0  0  0  0  0  0
  138.9900   69.4210  224.5220 C   0  0  0  0  0  0  0  0  0  0  0  0
  139.6380   69.9320  225.6340 C   0  0  0  0  0  0  0  0  0  0  0  0
  139.5600   69.1780  226.7890 C   0  0  0  0  0  0  0  0  0  0  0  0
  140.1850   69.6320  227.9410 C   0  0  0  0  0  0  0  0  0  0  0  0
  140.1120   68.8910  229.0940 F   0  0  0  0  0  0  0  0  0  0  0  0
  140.8640   70.8260  227.8760 C   0  0  0  0  0  0  0  0  0  0  0  0
  140.9460   71.5860  226.7200 C   0  0  0  0  0  0  0  0  0  0  0  0
  140.3190   71.1300  225.5690 C   0  0  0  0  0  0  0  0  0  0  0  0
  140.3740   71.8620  224.3840 C   0  0  0  0  0  0  0  0  0  0  0  0
  140.0130   76.0450  220.0110 C   0  0  0  0  0  0  0  0  0  0  0  0
  140.2090   77.3700  220.6890 C   0  0  0  0  0  0  0  0  0  0  0  0
  138.1291   81.6345  225.0377 H   0  0  0  0  0  0  0  0  0  0  0  0
  136.8964   80.3679  224.7168 H   0  0  0  0  0  0  0  0  0  0  0  0
  138.6418   79.9431  224.7168 H   0  0  0  0  0  0  0  0  0  0  0  0
  137.1482   81.6877  222.7008 H   0  0  0  0  0  0  0  0  0  0  0  0
  138.9368   81.5222  222.7568 H   0  0  0  0  0  0  0  0  0  0  0  0
  140.4223   80.6820  220.7078 H   0  0  0  0  0  0  0  0  0  0  0  0
  142.6399   81.6647  221.2437 H   0  0  0  0  0  0  0  0  0  0  0  0
  143.8057   80.9533  223.3566 H   0  0  0  0  0  0  0  0  0  0  0  0
  142.7363   79.2985  224.8608 H   0  0  0  0  0  0  0  0  0  0  0  0
  140.5028   78.3178  224.3012 H   0  0  0  0  0  0  0  0  0  0  0  0
  138.0505   77.4401  221.0771 H   0  0  0  0  0  0  0  0  0  0  0  0
  139.9871   76.7758  223.3099 H   0  0  0  0  0  0  0  0  0  0  0  0
  138.1769   76.6322  223.2988 H   0  0  0  0  0  0  0  0  0  0  0  0
  139.5839   74.5051  222.9697 H   0  0  0  0  0  0  0  0  0  0  0  0
  138.1893   74.8656  221.8349 H   0  0  0  0  0  0  0  0  0  0  0  0
  141.4766   73.1961  222.7002 H   0  0  0  0  0  0  0  0  0  0  0  0
  142.7230   72.1580  220.6130 H   0  0  0  0  0  0  0  0  0  0  0  0
  141.4230   71.0000  220.7450 H   0  0  0  0  0  0  0  0  0  0  0  0
  138.9359   72.8342  221.9374 H   0  0  0  0  0  0  0  0  0  0  0  0
  139.5864   71.3628  221.1380 H   0  0  0  0  0  0  0  0  0  0  0  0
  138.5566   69.7832  222.4666 H   0  0  0  0  0  0  0  0  0  0  0  0
  138.4437   68.4670  224.5604 H   0  0  0  0  0  0  0  0  0  0  0  0
  139.0076   68.2268  226.7950 H   0  0  0  0  0  0  0  0  0  0  0  0
  141.3651   71.1948  228.7832 H   0  0  0  0  0  0  0  0  0  0  0  0
  141.4998   72.5364  226.7149 H   0  0  0  0  0  0  0  0  0  0  0  0
  140.9167   72.8178  224.3396 H   0  0  0  0  0  0  0  0  0  0  0  0
  140.8141   75.8799  219.2755 H   0  0  0  0  0  0  0  0  0  0  0  0
  139.0468   76.0237  219.4856 H   0  0  0  0  0  0  0  0  0  0  0  0
  141.1357   77.3591  221.2815 H   0  0  0  0  0  0  0  0  0  0  0  0
  140.2926   78.1825  219.9522 H   0  0  0  0  0  0  0  0  0  0  0  0
  1  2  1  0
  2  3  1  0
  3  4  2  0
  3  5  1  0
  5  6  1  0
  6  7  2  0
  7  8  1  0
  8  9  2  0
  9 10  1  0
 10 11  2  0
  5 12  1  0
 12 13  1  0
 13 14  1  0
 14 15  1  0
 15 16  1  0
 16 17  2  0
 16 18  1  0
 18 19  1  0
 18 20  1  0
 20 21  1  0
 21 22  2  0
 22 23  1  0
 23 24  2  0
 24 25  1  0
 25 26  2  0
 26 27  1  0
 26 28  1  0
 28 29  2  0
 29 30  1  0
 30 31  2  0
 15 32  1  0
 32 33  1  0
 11  6  1  0
 33 12  1  0
 31 21  1  0
 30 24  1  0
  1 34  1  0
  1 35  1  0
  1 36  1  0
  2 37  1  0
  2 38  1  0
  7 39  1  0
  8 40  1  0
  9 41  1  0
 10 42  1  0
 11 43  1  0
 12 44  1  0
 13 45  1  0
 13 46  1  0
 14 47  1  0
 14 48  1  0
 18 49  1  1
 19 50  1  0
 19 51  1  0
 20 52  1  0
 20 53  1  0
 22 54  1  0
 23 55  1  0
 25 56  1  0
 28 57  1  0
 29 58  1  0
 31 59  1  0
 32 60  1  0
 32 61  1  0
 33 62  1  0
 33 63  1  0
M  END
>  <smiles>  (43) 
CCC(=O)N(c1ccccc1)C1CCN(C(=O)[C@H](N)Cc2ccc3cc(F)ccc3c2)CC1

>  <score_type>  (43) 
oracle

>  <origin>  (43) 
autodockgpu

>  <m_score__min__energy>  (43) 
-8.7699999999999996

>  <m_primary>  (43) 
energy

>  <rmsd>  (43) 
5.716163843117907

>  <m_score__min__rmsd>  (43) 
5.716163843117907

>  <meeko>  (43) 
{"free_energy": -7.88, "intermolecular_energy": -10.27, "internal_energy": -2.29, "cluster_size": 26, "cluster_id": 1, "rank_in_cluster": 19}

>  <energy>  (43) 
-7.88

>  <cluster_rmsd>  (43) 
1.46

>  <cluster>  (43) 
3

$$$$

     RDKit          3D

 63 66  0  0  0  0  0  0  0  0999 V2000
  142.3320   80.2350  218.3480 C   0  0  0  0  0  0  0  0  0  0  0  0
  142.1790   78.7970  218.8080 C   0  0  0  0  0  0  0  0  0  0  0  0
  140.9620   78.6730  219.6680 C   0  0  0  0  0  0  0  0  0  0  0  0
  139.8610   78.8120  219.1150 O   0  0  0  0  0  0  0  0  0  0  0  0
  141.1320   78.4050  221.0650 N   0  0  0  0  0  0  0  0  0  0  0  0
  141.5120   79.4640  221.9580 C   0  0  0  0  0  0  0  0  0  0  0  0
  141.0810   80.7480  221.6660 C   0  0  0  0  0  0  0  0  0  0  0  0
  141.4000   81.8270  222.4750 C   0  0  0  0  0  0  0  0  0  0  0  0
  142.1810   81.5940  223.6160 C   0  0  0  0  0  0  0  0  0  0  0  0
  142.6130   80.3070  223.9090 C   0  0  0  0  0  0  0  0  0  0  0  0
  142.2830   79.2270  223.0820 C   0  0  0  0  0  0  0  0  0  0  0  0
  140.9400   77.0960  221.6340 C   0  0  0  0  0  0  0  0  0  0  0  0
  141.3700   75.9950  220.7070 C   0  0  0  0  0  0  0  0  0  0  0  0
  141.0270   74.6270  221.2510 C   0  0  0  0  0  0  0  0  0  0  0  0
  139.7380   74.5440  221.8680 N   0  0  0  0  0  0  0  0  0  0  0  0
  138.8410   73.4500  221.7340 C   0  0  0  0  0  0  0  0  0  0  0  0
  137.6930   73.4450  222.2980 O   0  0  0  0  0  0  0  0  0  0  0  0
  139.1570   72.2340  220.9380 C   0  0  2  0  0  0  0  0  0  0  0  0
  138.0980   71.2320  221.1010 N   0  0  0  0  0  0  0  0  0  0  0  0
  140.4150   71.5550  221.4670 C   0  0  0  0  0  0  0  0  0  0  0  0
  140.1760   71.0830  222.8780 C   0  0  0  0  0  0  0  0  0  0  0  0
  139.4320   69.9360  223.0700 C   0  0  0  0  0  0  0  0  0  0  0  0
  139.1510   69.4120  224.3120 C   0  0  0  0  0  0  0  0  0  0  0  0
  139.6560   70.0950  225.4060 C   0  0  0  0  0  0  0  0  0  0  0  0
  139.3680   69.5620  226.6480 C   0  0  0  0  0  0  0  0  0  0  0  0
  139.8420   70.1950  227.7860 C   0  0  0  0  0  0  0  0  0  0  0  0
  139.5610   69.6750  229.0250 F   0  0  0  0  0  0  0  0  0  0  0  0
  140.5870   71.3400  227.6220 C   0  0  0  0  0  0  0  0  0  0  0  0
  140.8780   71.8790  226.3790 C   0  0  0  0  0  0  0  0  0  0  0  0
  140.4020   71.2430  225.2420 C   0  0  0  0  0  0  0  0  0  0  0  0
  140.6700   71.7500  223.9710 C   0  0  0  0  0  0  0  0  0  0  0  0
  139.3080   75.6560  222.6990 C   0  0  0  0  0  0  0  0  0  0  0  0
  139.4560   76.9170  221.8970 C   0  0  0  0  0  0  0  0  0  0  0  0
  142.4022   80.8951  219.2252 H   0  0  0  0  0  0  0  0  0  0  0  0
  143.2454   80.3311  217.7427 H   0  0  0  0  0  0  0  0  0  0  0  0
  141.4592   80.5212  217.7427 H   0  0  0  0  0  0  0  0  0  0  0  0
  142.0761   78.1410  217.9311 H   0  0  0  0  0  0  0  0  0  0  0  0
  143.0669   78.5016  219.3862 H   0  0  0  0  0  0  0  0  0  0  0  0
  140.4689   80.9155  220.7675 H   0  0  0  0  0  0  0  0  0  0  0  0
  141.0496   82.8401  222.2284 H   0  0  0  0  0  0  0  0  0  0  0  0
  142.4512   82.4297  224.2783 H   0  0  0  0  0  0  0  0  0  0  0  0
  143.2250   80.1334  224.8064 H   0  0  0  0  0  0  0  0  0  0  0  0
  142.6296   78.2107  223.3209 H   0  0  0  0  0  0  0  0  0  0  0  0
  141.5484   77.0328  222.5483 H   0  0  0  0  0  0  0  0  0  0  0  0
  140.8647   76.1287  219.7391 H   0  0  0  0  0  0  0  0  0  0  0  0
  142.4631   76.0517  220.5979 H   0  0  0  0  0  0  0  0  0  0  0  0
  141.0575   73.9080  220.4191 H   0  0  0  0  0  0  0  0  0  0  0  0
  141.7661   74.4057  222.0351 H   0  0  0  0  0  0  0  0  0  0  0  0
  139.2716   72.5608  219.8939 H   0  0  0  0  0  0  0  0  0  0  0  0
  137.9070   70.7120  220.2250 H   0  0  0  0  0  0  0  0  0  0  0  0
  137.2730   71.6230  221.5740 H   0  0  0  0  0  0  0  0  0  0  0  0
  140.6624   70.6936  220.8292 H   0  0  0  0  0  0  0  0  0  0  0  0
  141.2500   72.2710  221.4565 H   0  0  0  0  0  0  0  0  0  0  0  0
  139.0431   69.4130  222.1839 H   0  0  0  0  0  0  0  0  0  0  0  0
  138.5544   68.4954  224.4296 H   0  0  0  0  0  0  0  0  0  0  0  0
  138.7681   68.6439  226.7325 H   0  0  0  0  0  0  0  0  0  0  0  0
  140.9690   71.8507  228.5182 H   0  0  0  0  0  0  0  0  0  0  0  0
  141.4775   72.7975  226.2953 H   0  0  0  0  0  0  0  0  0  0  0  0
  141.2656   72.6664  223.8468 H   0  0  0  0  0  0  0  0  0  0  0  0
  138.2560   75.5198  222.9902 H   0  0  0  0  0  0  0  0  0  0  0  0
  139.9183   75.7095  223.6126 H   0  0  0  0  0  0  0  0  0  0  0  0
  138.9107   76.8274  220.9459 H   0  0  0  0  0  0  0  0  0  0  0  0
  139.0435   77.7808  222.4389 H   0  0  0  0  0  0  0  0  0  0  0  0
  1  2  1  0
  2  3  1  0
  3  4  2  0
  3  5  1  0
  5  6  1  0
  6  7  2  0
  7  8  1  0
  8  9  2  0
  9 10  1  0
 10 11  2  0
  5 12  1  0
 12 13  1  0
 13 14  1  0
 14 15  1  0
 15 16  1  0
 16 17  2  0
 16 18  1  0
 18 19  1  0
 18 20  1  0
 20 21  1  0
 21 22  2  0
 22 23  1  0
 23 24  2  0
 24 25  1  0
 25 26  2  0
 26 27  1  0
 26 28  1  0
 28 29  2  0
 29 30  1  0
 30 31  2  0
 15 32  1  0
 32 33  1  0
 11  6  1  0
 33 12  1  0
 31 21  1  0
 30 24  1  0
  1 34  1  0
  1 35  1  0
  1 36  1  0
  2 37  1  0
  2 38  1  0
  7 39  1  0
  8 40  1  0
  9 41  1  0
 10 42  1  0
 11 43  1  0
 12 44  1  0
 13 45  1  0
 13 46  1  0
 14 47  1  0
 14 48  1  0
 18 49  1  6
 19 50  1  0
 19 51  1  0
 20 52  1  0
 20 53  1  0
 22 54  1  0
 23 55  1  0
 25 56  1  0
 28 57  1  0
 29 58  1  0
 31 59  1  0
 32 60  1  0
 32 61  1  0
 33 62  1  0
 33 63  1  0
M  END
>  <smiles>  (44) 
CCC(=O)N(c1ccccc1)C1CCN(C(=O)[C@H](N)Cc2ccc3cc(F)ccc3c2)CC1

>  <score_type>  (44) 
oracle

>  <origin>  (44) 
autodockgpu

>  <m_score__min__energy>  (44) 
-8.7699999999999996

>  <m_primary>  (44) 
energy

>  <rmsd>  (44) 
5.766942199215399

>  <m_score__min__rmsd>  (44) 
5.766942199215399

>  <meeko>  (44) 
{"free_energy": -7.82, "intermolecular_energy": -10.21, "internal_energy": -2.26, "cluster_size": 20, "cluster_id": 3, "rank_in_cluster": 16}

>  <energy>  (44) 
-7.88

>  <cluster_rmsd>  (44) 
1.43

>  <cluster>  (44) 
3

$$$$

     RDKit          3D

 63 66  0  0  0  0  0  0  0  0999 V2000
  142.2030   80.0800  218.7550 C   0  0  0  0  0  0  0  0  0  0  0  0
  141.3700   78.8260  218.5730 C   0  0  0  0  0  0  0  0  0  0  0  0
  141.7070   77.8400  219.6480 C   0  0  0  0  0  0  0  0  0  0  0  0
  142.6760   77.0930  219.4470 O   0  0  0  0  0  0  0  0  0  0  0  0
  140.9020   77.8140  220.8320 N   0  0  0  0  0  0  0  0  0  0  0  0
  141.0970   78.8020  221.8560 C   0  0  0  0  0  0  0  0  0  0  0  0
  142.3970   79.0960  222.2370 C   0  0  0  0  0  0  0  0  0  0  0  0
  142.6750   80.0360  223.2160 C   0  0  0  0  0  0  0  0  0  0  0  0
  141.6010   80.6990  223.8250 C   0  0  0  0  0  0  0  0  0  0  0  0
  140.2990   80.4060  223.4430 C   0  0  0  0  0  0  0  0  0  0  0  0
  140.0320   79.4520  222.4530 C   0  0  0  0  0  0  0  0  0  0  0  0
  139.8820   76.8220  221.0560 C   0  0  0  0  0  0  0  0  0  0  0  0
  140.2150   75.8990  222.1940 C   0  0  0  0  0  0  0  0  0  0  0  0
  139.2130   74.7740  222.3250 C   0  0  0  0  0  0  0  0  0  0  0  0
  138.7950   74.2080  221.0780 N   0  0  0  0  0  0  0  0  0  0  0  0
  138.5920   72.8220  220.8420 C   0  0  0  0  0  0  0  0  0  0  0  0
  138.2350   72.3780  219.6970 O   0  0  0  0  0  0  0  0  0  0  0  0
  138.7760   71.7840  221.8900 C   0  0  2  0  0  0  0  0  0  0  0  0
  137.9550   72.0980  223.0650 N   0  0  0  0  0  0  0  0  0  0  0  0
  140.2090   71.7900  222.4090 C   0  0  0  0  0  0  0  0  0  0  0  0
  140.2540   71.1450  223.7700 C   0  0  0  0  0  0  0  0  0  0  0  0
  140.7190   71.8880  224.8350 C   0  0  0  0  0  0  0  0  0  0  0  0
  140.8040   71.4030  226.1220 C   0  0  0  0  0  0  0  0  0  0  0  0
  140.3930   70.0950  226.3230 C   0  0  0  0  0  0  0  0  0  0  0  0
  140.4810   69.6170  227.6160 C   0  0  0  0  0  0  0  0  0  0  0  0
  140.0870   68.3160  227.8890 C   0  0  0  0  0  0  0  0  0  0  0  0
  140.1720   67.8310  229.1700 F   0  0  0  0  0  0  0  0  0  0  0  0
  139.6190   67.5540  226.8450 C   0  0  0  0  0  0  0  0  0  0  0  0
  139.5270   68.0280  225.5450 C   0  0  0  0  0  0  0  0  0  0  0  0
  139.9240   69.3310  225.2760 C   0  0  0  0  0  0  0  0  0  0  0  0
  139.8500   69.8500  223.9840 C   0  0  0  0  0  0  0  0  0  0  0  0
  138.5530   75.1130  219.9680 C   0  0  0  0  0  0  0  0  0  0  0  0
  139.7700   75.9770  219.8010 C   0  0  0  0  0  0  0  0  0  0  0  0
  142.3355   80.2795  219.8286 H   0  0  0  0  0  0  0  0  0  0  0  0
  143.1870   79.9381  218.2842 H   0  0  0  0  0  0  0  0  0  0  0  0
  141.6907   80.9320  218.2842 H   0  0  0  0  0  0  0  0  0  0  0  0
  140.3023   79.0835  218.6338 H   0  0  0  0  0  0  0  0  0  0  0  0
  141.5860   78.3830  217.5896 H   0  0  0  0  0  0  0  0  0  0  0  0
  143.2301   78.5689  221.7490 H   0  0  0  0  0  0  0  0  0  0  0  0
  143.7124   80.2564  223.5079 H   0  0  0  0  0  0  0  0  0  0  0  0
  141.7896   81.4511  224.6052 H   0  0  0  0  0  0  0  0  0  0  0  0
  139.4625   80.9322  223.9262 H   0  0  0  0  0  0  0  0  0  0  0  0
  138.9974   79.2245  222.1566 H   0  0  0  0  0  0  0  0  0  0  0  0
  138.9480   77.3485  221.3020 H   0  0  0  0  0  0  0  0  0  0  0  0
  141.2120   75.4678  222.0210 H   0  0  0  0  0  0  0  0  0  0  0  0
  140.1901   76.4853  223.1244 H   0  0  0  0  0  0  0  0  0  0  0  0
  139.6683   73.9760  222.9299 H   0  0  0  0  0  0  0  0  0  0  0  0
  138.3150   75.2052  222.7915 H   0  0  0  0  0  0  0  0  0  0  0  0
  138.5060   70.8212  221.4316 H   0  0  0  0  0  0  0  0  0  0  0  0
  137.1490   71.4540  223.1690 H   0  0  0  0  0  0  0  0  0  0  0  0
  137.7310   73.1000  223.1160 H   0  0  0  0  0  0  0  0  0  0  0  0
  140.8522   71.2282  221.7157 H   0  0  0  0  0  0  0  0  0  0  0  0
  140.5673   72.8274  222.4833 H   0  0  0  0  0  0  0  0  0  0  0  0
  141.0392   72.9234  224.6468 H   0  0  0  0  0  0  0  0  0  0  0  0
  141.1796   72.0235  226.9490 H   0  0  0  0  0  0  0  0  0  0  0  0
  140.8602   70.2627  228.4218 H   0  0  0  0  0  0  0  0  0  0  0  0
  139.3029   66.5206  227.0502 H   0  0  0  0  0  0  0  0  0  0  0  0
  139.1458   67.3823  224.7402 H   0  0  0  0  0  0  0  0  0  0  0  0
  139.4755   69.2345  223.1528 H   0  0  0  0  0  0  0  0  0  0  0  0
  138.3751   74.5366  219.0482 H   0  0  0  0  0  0  0  0  0  0  0  0
  137.6673   75.7342  220.1671 H   0  0  0  0  0  0  0  0  0  0  0  0
  140.6665   75.3503  219.6850 H   0  0  0  0  0  0  0  0  0  0  0  0
  139.6856   76.6095  218.9050 H   0  0  0  0  0  0  0  0  0  0  0  0
  1  2  1  0
  2  3  1  0
  3  4  2  0
  3  5  1  0
  5  6  1  0
  6  7  2  0
  7  8  1  0
  8  9  2  0
  9 10  1  0
 10 11  2  0
  5 12  1  0
 12 13  1  0
 13 14  1  0
 14 15  1  0
 15 16  1  0
 16 17  2  0
 16 18  1  0
 18 19  1  0
 18 20  1  0
 20 21  1  0
 21 22  2  0
 22 23  1  0
 23 24  2  0
 24 25  1  0
 25 26  2  0
 26 27  1  0
 26 28  1  0
 28 29  2  0
 29 30  1  0
 30 31  2  0
 15 32  1  0
 32 33  1  0
 11  6  1  0
 33 12  1  0
 31 21  1  0
 30 24  1  0
  1 34  1  0
  1 35  1  0
  1 36  1  0
  2 37  1  0
  2 38  1  0
  7 39  1  0
  8 40  1  0
  9 41  1  0
 10 42  1  0
 11 43  1  0
 12 44  1  0
 13 45  1  0
 13 46  1  0
 14 47  1  0
 14 48  1  0
 18 49  1  6
 19 50  1  0
 19 51  1  0
 20 52  1  0
 20 53  1  0
 22 54  1  0
 23 55  1  0
 25 56  1  0
 28 57  1  0
 29 58  1  0
 31 59  1  0
 32 60  1  0
 32 61  1  0
 33 62  1  0
 33 63  1  0
M  END
>  <smiles>  (45) 
CCC(=O)N(c1ccccc1)C1CCN(C(=O)[C@H](N)Cc2ccc3cc(F)ccc3c2)CC1

>  <score_type>  (45) 
oracle

>  <origin>  (45) 
autodockgpu

>  <m_score__min__energy>  (45) 
-8.7699999999999996

>  <m_primary>  (45) 
energy

>  <rmsd>  (45) 
6.433355204309801

>  <m_score__min__rmsd>  (45) 
6.433355204309801

>  <meeko>  (45) 
{"free_energy": -7.87, "intermolecular_energy": -10.25, "internal_energy": -1.67, "cluster_size": 20, "cluster_id": 3, "rank_in_cluster": 15}

>  <energy>  (45) 
-7.87

>  <cluster_rmsd>  (45) 
0.68

>  <cluster>  (45) 
3

$$$$

     RDKit          3D

 63 66  0  0  0  0  0  0  0  0999 V2000
  137.9330   80.6870  224.3540 C   0  0  0  0  0  0  0  0  0  0  0  0
  138.1160   81.1750  222.9300 C   0  0  0  0  0  0  0  0  0  0  0  0
  138.1070   80.0080  221.9950 C   0  0  0  0  0  0  0  0  0  0  0  0
  137.1110   79.8710  221.2680 O   0  0  0  0  0  0  0  0  0  0  0  0
  139.2330   79.1230  221.9910 N   0  0  0  0  0  0  0  0  0  0  0  0
  140.5200   79.5960  222.4170 C   0  0  0  0  0  0  0  0  0  0  0  0
  140.9870   79.1860  223.6560 C   0  0  0  0  0  0  0  0  0  0  0  0
  142.2180   79.5940  224.1440 C   0  0  0  0  0  0  0  0  0  0  0  0
  142.9990   80.4440  223.3490 C   0  0  0  0  0  0  0  0  0  0  0  0
  142.5330   80.8550  222.1070 C   0  0  0  0  0  0  0  0  0  0  0  0
  141.2860   80.4350  221.6270 C   0  0  0  0  0  0  0  0  0  0  0  0
  139.1400   77.7490  221.5690 C   0  0  0  0  0  0  0  0  0  0  0  0
  139.2140   76.7860  222.7210 C   0  0  0  0  0  0  0  0  0  0  0  0
  139.2670   75.3480  222.2570 C   0  0  0  0  0  0  0  0  0  0  0  0
  140.1040   75.1250  221.1170 N   0  0  0  0  0  0  0  0  0  0  0  0
  140.9640   74.0080  220.9470 C   0  0  0  0  0  0  0  0  0  0  0  0
  141.7020   73.8760  219.9100 O   0  0  0  0  0  0  0  0  0  0  0  0
  141.0770   72.9100  221.9440 C   0  0  2  0  0  0  0  0  0  0  0  0
  141.9340   71.8390  221.4240 N   0  0  0  0  0  0  0  0  0  0  0  0
  139.7240   72.2460  222.1700 C   0  0  0  0  0  0  0  0  0  0  0  0
  139.7630   71.4450  223.4450 C   0  0  0  0  0  0  0  0  0  0  0  0
  139.1110   70.2300  223.4790 C   0  0  0  0  0  0  0  0  0  0  0  0
  139.0810   69.4140  224.5880 C   0  0  0  0  0  0  0  0  0  0  0  0
  139.7510   69.8670  225.7130 C   0  0  0  0  0  0  0  0  0  0  0  0
  139.7140   69.0420  226.8220 C   0  0  0  0  0  0  0  0  0  0  0  0
  140.3640   69.4340  227.9820 C   0  0  0  0  0  0  0  0  0  0  0  0
  140.3330   68.6220  229.0890 F   0  0  0  0  0  0  0  0  0  0  0  0
  141.0210   70.6410  227.9750 C   0  0  0  0  0  0  0  0  0  0  0  0
  141.0610   71.4730  226.8660 C   0  0  0  0  0  0  0  0  0  0  0  0
  140.4100   71.0780  225.7060 C   0  0  0  0  0  0  0  0  0  0  0  0
  140.4230   71.8820  224.5670 C   0  0  0  0  0  0  0  0  0  0  0  0
  140.0750   76.1100  220.0490 C   0  0  0  0  0  0  0  0  0  0  0  0
  140.3180   77.4600  220.6570 C   0  0  0  0  0  0  0  0  0  0  0  0
  138.2307   81.4809  225.0548 H   0  0  0  0  0  0  0  0  0  0  0  0
  136.8768   80.4284  224.5201 H   0  0  0  0  0  0  0  0  0  0  0  0
  138.5587   79.7977  224.5201 H   0  0  0  0  0  0  0  0  0  0  0  0
  137.2953   81.8594  222.6692 H   0  0  0  0  0  0  0  0  0  0  0  0
  139.0770   81.7035  222.8455 H   0  0  0  0  0  0  0  0  0  0  0  0
  140.3633   78.5184  224.2686 H   0  0  0  0  0  0  0  0  0  0  0  0
  142.5731   79.2594  225.1299 H   0  0  0  0  0  0  0  0  0  0  0  0
  143.9808   80.7855  223.7088 H   0  0  0  0  0  0  0  0  0  0  0  0
  143.1535   81.5215  221.4899 H   0  0  0  0  0  0  0  0  0  0  0  0
  140.9231   80.7652  220.6425 H   0  0  0  0  0  0  0  0  0  0  0  0
  138.1693   77.6150  221.0692 H   0  0  0  0  0  0  0  0  0  0  0  0
  140.1190   77.0032  223.3074 H   0  0  0  0  0  0  0  0  0  0  0  0
  138.3054   76.9131  223.3279 H   0  0  0  0  0  0  0  0  0  0  0  0
  139.6446   74.7324  223.0868 H   0  0  0  0  0  0  0  0  0  0  0  0
  138.2447   75.0781  221.9536 H   0  0  0  0  0  0  0  0  0  0  0  0
  141.4760   73.3595  222.8653 H   0  0  0  0  0  0  0  0  0  0  0  0
  142.6990   72.1990  220.8250 H   0  0  0  0  0  0  0  0  0  0  0  0
  141.3820   71.0700  221.0240 H   0  0  0  0  0  0  0  0  0  0  0  0
  138.9448   73.0187  222.2464 H   0  0  0  0  0  0  0  0  0  0  0  0
  139.4980   71.5787  221.3252 H   0  0  0  0  0  0  0  0  0  0  0  0
  138.5869   69.8949  222.5718 H   0  0  0  0  0  0  0  0  0  0  0  0
  138.5512   68.4500  224.5810 H   0  0  0  0  0  0  0  0  0  0  0  0
  139.1742   68.0843  226.7842 H   0  0  0  0  0  0  0  0  0  0  0  0
  141.5389   70.9620  228.8909 H   0  0  0  0  0  0  0  0  0  0  0  0
  141.6003   72.4309  226.9054 H   0  0  0  0  0  0  0  0  0  0  0  0
  140.9513   72.8468  224.5672 H   0  0  0  0  0  0  0  0  0  0  0  0
  140.8606   75.8854  219.3125 H   0  0  0  0  0  0  0  0  0  0  0  0
  139.1013   76.0908  219.5376 H   0  0  0  0  0  0  0  0  0  0  0  0
  141.2526   77.4514  221.2370 H   0  0  0  0  0  0  0  0  0  0  0  0
  140.4133   78.2318  219.8790 H   0  0  0  0  0  0  0  0  0  0  0  0
  1  2  1  0
  2  3  1  0
  3  4  2  0
  3  5  1  0
  5  6  1  0
  6  7  2  0
  7  8  1  0
  8  9  2  0
  9 10  1  0
 10 11  2  0
  5 12  1  0
 12 13  1  0
 13 14  1  0
 14 15  1  0
 15 16  1  0
 16 17  2  0
 16 18  1  0
 18 19  1  0
 18 20  1  0
 20 21  1  0
 21 22  2  0
 22 23  1  0
 23 24  2  0
 24 25  1  0
 25 26  2  0
 26 27  1  0
 26 28  1  0
 28 29  2  0
 29 30  1  0
 30 31  2  0
 15 32  1  0
 32 33  1  0
 11  6  1  0
 33 12  1  0
 31 21  1  0
 30 24  1  0
  1 34  1  0
  1 35  1  0
  1 36  1  0
  2 37  1  0
  2 38  1  0
  7 39  1  0
  8 40  1  0
  9 41  1  0
 10 42  1  0
 11 43  1  0
 12 44  1  0
 13 45  1  0
 13 46  1  0
 14 47  1  0
 14 48  1  0
 18 49  1  1
 19 50  1  0
 19 51  1  0
 20 52  1  0
 20 53  1  0
 22 54  1  0
 23 55  1  0
 25 56  1  0
 28 57  1  0
 29 58  1  0
 31 59  1  0
 32 60  1  0
 32 61  1  0
 33 62  1  0
 33 63  1  0
M  END
>  <smiles>  (46) 
CCC(=O)N(c1ccccc1)C1CCN(C(=O)[C@H](N)Cc2ccc3cc(F)ccc3c2)CC1

>  <score_type>  (46) 
oracle

>  <origin>  (46) 
autodockgpu

>  <m_score__min__energy>  (46) 
-8.7699999999999996

>  <m_primary>  (46) 
energy

>  <rmsd>  (46) 
5.665894056597705

>  <m_score__min__rmsd>  (46) 
5.665894056597705

>  <meeko>  (46) 
{"free_energy": -7.92, "intermolecular_energy": -10.3, "internal_energy": -2.27, "cluster_size": 26, "cluster_id": 1, "rank_in_cluster": 15}

>  <energy>  (46) 
-7.82

>  <cluster_rmsd>  (46) 
1.48

>  <cluster>  (46) 
3

$$$$

     RDKit          3D

 63 66  0  0  0  0  0  0  0  0999 V2000
  142.5040   79.9880  218.2300 C   0  0  0  0  0  0  0  0  0  0  0  0
  142.2430   78.5930  218.7650 C   0  0  0  0  0  0  0  0  0  0  0  0
  141.0170   78.6080  219.6230 C   0  0  0  0  0  0  0  0  0  0  0  0
  139.9340   78.8250  219.0600 O   0  0  0  0  0  0  0  0  0  0  0  0
  141.1600   78.3740  221.0290 N   0  0  0  0  0  0  0  0  0  0  0  0
  141.5320   79.4520  221.9020 C   0  0  0  0  0  0  0  0  0  0  0  0
  141.1260   80.7330  221.5640 C   0  0  0  0  0  0  0  0  0  0  0  0
  141.4400   81.8290  222.3510 C   0  0  0  0  0  0  0  0  0  0  0  0
  142.1890   81.6180  223.5170 C   0  0  0  0  0  0  0  0  0  0  0  0
  142.5960   80.3350  223.8560 C   0  0  0  0  0  0  0  0  0  0  0  0
  142.2720   79.2360  223.0510 C   0  0  0  0  0  0  0  0  0  0  0  0
  140.9470   77.0820  221.6270 C   0  0  0  0  0  0  0  0  0  0  0  0
  141.3730   75.9540  220.7300 C   0  0  0  0  0  0  0  0  0  0  0  0
  141.0080   74.6030  221.3040 C   0  0  0  0  0  0  0  0  0  0  0  0
  139.7130   74.5490  221.9110 N   0  0  0  0  0  0  0  0  0  0  0  0
  138.8050   73.4640  221.7950 C   0  0  0  0  0  0  0  0  0  0  0  0
  137.6520   73.4850  222.3480 O   0  0  0  0  0  0  0  0  0  0  0  0
  139.1130   72.2250  221.0310 C   0  0  2  0  0  0  0  0  0  0  0  0
  138.0740   71.2150  221.2620 N   0  0  0  0  0  0  0  0  0  0  0  0
  140.3970   71.5820  221.5420 C   0  0  0  0  0  0  0  0  0  0  0  0
  140.1850   71.0850  222.9490 C   0  0  0  0  0  0  0  0  0  0  0  0
  139.5210   69.8900  223.1300 C   0  0  0  0  0  0  0  0  0  0  0  0
  139.2720   69.3390  224.3680 C   0  0  0  0  0  0  0  0  0  0  0  0
  139.7230   70.0490  225.4690 C   0  0  0  0  0  0  0  0  0  0  0  0
  139.4680   69.4890  226.7060 C   0  0  0  0  0  0  0  0  0  0  0  0
  139.8930   70.1470  227.8500 C   0  0  0  0  0  0  0  0  0  0  0  0
  139.6430   69.6010  229.0850 F   0  0  0  0  0  0  0  0  0  0  0  0
  140.5570   71.3410  227.6970 C   0  0  0  0  0  0  0  0  0  0  0  0
  140.8160   71.9070  226.4580 C   0  0  0  0  0  0  0  0  0  0  0  0
  140.3890   71.2460  225.3150 C   0  0  0  0  0  0  0  0  0  0  0  0
  140.6270   71.7790  224.0480 C   0  0  0  0  0  0  0  0  0  0  0  0
  139.2890   75.6860  222.7110 C   0  0  0  0  0  0  0  0  0  0  0  0
  139.4590   76.9250  221.8810 C   0  0  0  0  0  0  0  0  0  0  0  0
  142.6344   80.6848  219.0711 H   0  0  0  0  0  0  0  0  0  0  0  0
  143.4163   79.9803  217.6154 H   0  0  0  0  0  0  0  0  0  0  0  0
  141.6506   80.3106  217.6154 H   0  0  0  0  0  0  0  0  0  0  0  0
  142.0933   77.9000  217.9240 H   0  0  0  0  0  0  0  0  0  0  0  0
  143.1049   78.2631  219.3636 H   0  0  0  0  0  0  0  0  0  0  0  0
  140.5387   80.8837  220.6462 H   0  0  0  0  0  0  0  0  0  0  0  0
  141.1099   82.8394  222.0681 H   0  0  0  0  0  0  0  0  0  0  0  0
  142.4539   82.4683  224.1626 H   0  0  0  0  0  0  0  0  0  0  0  0
  143.1832   80.1789  224.7729 H   0  0  0  0  0  0  0  0  0  0  0  0
  142.5989   78.2224  223.3263 H   0  0  0  0  0  0  0  0  0  0  0  0
  141.5458   77.0346  222.5485 H   0  0  0  0  0  0  0  0  0  0  0  0
  140.8786   76.0704  219.7543 H   0  0  0  0  0  0  0  0  0  0  0  0
  142.4676   75.9954  220.6296 H   0  0  0  0  0  0  0  0  0  0  0  0
  141.0375   73.8639  220.4898 H   0  0  0  0  0  0  0  0  0  0  0  0
  141.7371   74.3928  222.1004 H   0  0  0  0  0  0  0  0  0  0  0  0
  139.1895   72.5167  219.9731 H   0  0  0  0  0  0  0  0  0  0  0  0
  137.4300   71.1180  220.4560 H   0  0  0  0  0  0  0  0  0  0  0  0
  137.6240   71.3340  222.1780 H   0  0  0  0  0  0  0  0  0  0  0  0
  140.6679   70.7372  220.8917 H   0  0  0  0  0  0  0  0  0  0  0  0
  141.2076   72.3256  221.5342 H   0  0  0  0  0  0  0  0  0  0  0  0
  139.1717   69.3480  222.2388 H   0  0  0  0  0  0  0  0  0  0  0  0
  138.7409   68.3819  224.4770 H   0  0  0  0  0  0  0  0  0  0  0  0
  138.9332   68.5308  226.7825 H   0  0  0  0  0  0  0  0  0  0  0  0
  140.8983   71.8713  228.5983 H   0  0  0  0  0  0  0  0  0  0  0  0
  141.3515   72.8649  226.3823 H   0  0  0  0  0  0  0  0  0  0  0  0
  141.1578   72.7355  223.9319 H   0  0  0  0  0  0  0  0  0  0  0  0
  138.2329   75.5692  222.9958 H   0  0  0  0  0  0  0  0  0  0  0  0
  139.8920   75.7544  223.6284 H   0  0  0  0  0  0  0  0  0  0  0  0
  138.9212   76.8187  220.9273 H   0  0  0  0  0  0  0  0  0  0  0  0
  139.0519   77.8059  222.3989 H   0  0  0  0  0  0  0  0  0  0  0  0
  1  2  1  0
  2  3  1  0
  3  4  2  0
  3  5  1  0
  5  6  1  0
  6  7  2  0
  7  8  1  0
  8  9  2  0
  9 10  1  0
 10 11  2  0
  5 12  1  0
 12 13  1  0
 13 14  1  0
 14 15  1  0
 15 16  1  0
 16 17  2  0
 16 18  1  0
 18 19  1  0
 18 20  1  0
 20 21  1  0
 21 22  2  0
 22 23  1  0
 23 24  2  0
 24 25  1  0
 25 26  2  0
 26 27  1  0
 26 28  1  0
 28 29  2  0
 29 30  1  0
 30 31  2  0
 15 32  1  0
 32 33  1  0
 11  6  1  0
 33 12  1  0
 31 21  1  0
 30 24  1  0
  1 34  1  0
  1 35  1  0
  1 36  1  0
  2 37  1  0
  2 38  1  0
  7 39  1  0
  8 40  1  0
  9 41  1  0
 10 42  1  0
 11 43  1  0
 12 44  1  0
 13 45  1  0
 13 46  1  0
 14 47  1  0
 14 48  1  0
 18 49  1  6
 19 50  1  0
 19 51  1  0
 20 52  1  0
 20 53  1  0
 22 54  1  0
 23 55  1  0
 25 56  1  0
 28 57  1  0
 29 58  1  0
 31 59  1  0
 32 60  1  0
 32 61  1  0
 33 62  1  0
 33 63  1  0
M  END
>  <smiles>  (47) 
CCC(=O)N(c1ccccc1)C1CCN(C(=O)[C@H](N)Cc2ccc3cc(F)ccc3c2)CC1

>  <score_type>  (47) 
oracle

>  <origin>  (47) 
autodockgpu

>  <m_score__min__energy>  (47) 
-8.7699999999999996

>  <m_primary>  (47) 
energy

>  <rmsd>  (47) 
5.794862020618894

>  <m_score__min__rmsd>  (47) 
5.794862020618894

>  <meeko>  (47) 
{"free_energy": -7.87, "intermolecular_energy": -10.26, "internal_energy": -2.25, "cluster_size": 26, "cluster_id": 1, "rank_in_cluster": 20}

>  <energy>  (47) 
-7.82

>  <cluster_rmsd>  (47) 
1.37

>  <cluster>  (47) 
3

$$$$

     RDKit          3D

 63 66  0  0  0  0  0  0  0  0999 V2000
  142.7300   80.7180  223.8310 C   0  0  0  0  0  0  0  0  0  0  0  0
  142.8240   79.5520  222.8660 C   0  0  0  0  0  0  0  0  0  0  0  0
  141.8350   79.7370  221.7580 C   0  0  0  0  0  0  0  0  0  0  0  0
  142.1990   80.4070  220.7810 O   0  0  0  0  0  0  0  0  0  0  0  0
  140.5410   79.1380  221.8860 N   0  0  0  0  0  0  0  0  0  0  0  0
  139.4690   79.8680  222.5030 C   0  0  0  0  0  0  0  0  0  0  0  0
  139.3650   79.8290  223.8840 C   0  0  0  0  0  0  0  0  0  0  0  0
  138.3620   80.5070  224.5600 C   0  0  0  0  0  0  0  0  0  0  0  0
  137.4380   81.2460  223.8090 C   0  0  0  0  0  0  0  0  0  0  0  0
  137.5420   81.2860  222.4250 C   0  0  0  0  0  0  0  0  0  0  0  0
  138.5600   80.5960  221.7560 C   0  0  0  0  0  0  0  0  0  0  0  0
  140.2510   77.8070  221.4180 C   0  0  0  0  0  0  0  0  0  0  0  0
  140.1990   76.8020  222.5350 C   0  0  0  0  0  0  0  0  0  0  0  0
  140.0430   75.3890  222.0200 C   0  0  0  0  0  0  0  0  0  0  0  0
  140.8290   75.0920  220.8610 N   0  0  0  0  0  0  0  0  0  0  0  0
  141.5210   73.8720  220.6390 C   0  0  0  0  0  0  0  0  0  0  0  0
  142.2230   73.6750  219.5880 O   0  0  0  0  0  0  0  0  0  0  0  0
  141.4870   72.7330  221.5950 C   0  0  2  0  0  0  0  0  0  0  0  0
  142.2170   71.5860  221.0440 N   0  0  0  0  0  0  0  0  0  0  0  0
  140.0610   72.2290  221.7830 C   0  0  0  0  0  0  0  0  0  0  0  0
  139.9670   71.4550  223.0710 C   0  0  0  0  0  0  0  0  0  0  0  0
  139.2200   70.2950  223.0890 C   0  0  0  0  0  0  0  0  0  0  0  0
  139.0640   69.5070  224.2080 C   0  0  0  0  0  0  0  0  0  0  0  0
  139.7040   69.9300  225.3610 C   0  0  0  0  0  0  0  0  0  0  0  0
  139.5420   69.1340  226.4790 C   0  0  0  0  0  0  0  0  0  0  0  0
  140.1560   69.4980  227.6680 C   0  0  0  0  0  0  0  0  0  0  0  0
  140.0000   68.7150  228.7850 F   0  0  0  0  0  0  0  0  0  0  0  0
  140.9070   70.6500  227.6770 C   0  0  0  0  0  0  0  0  0  0  0  0
  141.0730   71.4520  226.5600 C   0  0  0  0  0  0  0  0  0  0  0  0
  140.4570   71.0850  225.3710 C   0  0  0  0  0  0  0  0  0  0  0  0
  140.5960   71.8620  224.2220 C   0  0  0  0  0  0  0  0  0  0  0  0
  140.9300   76.1090  219.8280 C   0  0  0  0  0  0  0  0  0  0  0  0
  141.3680   77.3890  220.4800 C   0  0  0  0  0  0  0  0  0  0  0  0
  142.7603   80.3421  224.8643 H   0  0  0  0  0  0  0  0  0  0  0  0
  143.5760   81.4010  223.6643 H   0  0  0  0  0  0  0  0  0  0  0  0
  141.7855   81.2567  223.6643 H   0  0  0  0  0  0  0  0  0  0  0  0
  143.8397   79.5051  222.4462 H   0  0  0  0  0  0  0  0  0  0  0  0
  142.6032   78.6164  223.4006 H   0  0  0  0  0  0  0  0  0  0  0  0
  140.0978   79.2445  224.4596 H   0  0  0  0  0  0  0  0  0  0  0  0
  138.2934   80.4659  225.6571 H   0  0  0  0  0  0  0  0  0  0  0  0
  136.6304   81.7944  224.3160 H   0  0  0  0  0  0  0  0  0  0  0  0
  136.8123   81.8696  221.8445 H   0  0  0  0  0  0  0  0  0  0  0  0
  138.6356   80.6319  220.6592 H   0  0  0  0  0  0  0  0  0  0  0  0
  139.2666   77.8287  220.9277 H   0  0  0  0  0  0  0  0  0  0  0  0
  141.1313   76.8675  223.1151 H   0  0  0  0  0  0  0  0  0  0  0  0
  139.3239   77.0340  223.1598 H   0  0  0  0  0  0  0  0  0  0  0  0
  140.3372   74.6960  222.8220 H   0  0  0  0  0  0  0  0  0  0  0  0
  138.9899   75.2778  221.7222 H   0  0  0  0  0  0  0  0  0  0  0  0
  141.9237   73.0978  222.5364 H   0  0  0  0  0  0  0  0  0  0  0  0
  143.1650   71.4860  221.4520 H   0  0  0  0  0  0  0  0  0  0  0  0
  142.1720   71.5630  220.0180 H   0  0  0  0  0  0  0  0  0  0  0  0
  139.3714   73.0852  221.8188 H   0  0  0  0  0  0  0  0  0  0  0  0
  139.7900   71.5743  220.9416 H   0  0  0  0  0  0  0  0  0  0  0  0
  138.7220   69.9825  222.1593 H   0  0  0  0  0  0  0  0  0  0  0  0
  138.4609   68.5873  224.1868 H   0  0  0  0  0  0  0  0  0  0  0  0
  138.9318   68.2203  226.4263 H   0  0  0  0  0  0  0  0  0  0  0  0
  141.3986   70.9483  228.6147 H   0  0  0  0  0  0  0  0  0  0  0  0
  141.6834   72.3655  226.6140 H   0  0  0  0  0  0  0  0  0  0  0  0
  141.1975   72.7828  224.2369 H   0  0  0  0  0  0  0  0  0  0  0  0
  141.6689   75.8025  219.0730 H   0  0  0  0  0  0  0  0  0  0  0  0
  139.9589   76.2461  219.3297 H   0  0  0  0  0  0  0  0  0  0  0  0
  142.2973   77.2272  221.0459 H   0  0  0  0  0  0  0  0  0  0  0  0
  141.5649   78.1678  219.7285 H   0  0  0  0  0  0  0  0  0  0  0  0
  1  2  1  0
  2  3  1  0
  3  4  2  0
  3  5  1  0
  5  6  1  0
  6  7  2  0
  7  8  1  0
  8  9  2  0
  9 10  1  0
 10 11  2  0
  5 12  1  0
 12 13  1  0
 13 14  1  0
 14 15  1  0
 15 16  1  0
 16 17  2  0
 16 18  1  0
 18 19  1  0
 18 20  1  0
 20 21  1  0
 21 22  2  0
 22 23  1  0
 23 24  2  0
 24 25  1  0
 25 26  2  0
 26 27  1  0
 26 28  1  0
 28 29  2  0
 29 30  1  0
 30 31  2  0
 15 32  1  0
 32 33  1  0
 11  6  1  0
 33 12  1  0
 31 21  1  0
 30 24  1  0
  1 34  1  0
  1 35  1  0
  1 36  1  0
  2 37  1  0
  2 38  1  0
  7 39  1  0
  8 40  1  0
  9 41  1  0
 10 42  1  0
 11 43  1  0
 12 44  1  0
 13 45  1  0
 13 46  1  0
 14 47  1  0
 14 48  1  0
 18 49  1  1
 19 50  1  0
 19 51  1  0
 20 52  1  0
 20 53  1  0
 22 54  1  0
 23 55  1  0
 25 56  1  0
 28 57  1  0
 29 58  1  0
 31 59  1  0
 32 60  1  0
 32 61  1  0
 33 62  1  0
 33 63  1  0
M  END
>  <smiles>  (48) 
CCC(=O)N(c1ccccc1)C1CCN(C(=O)[C@H](N)Cc2ccc3cc(F)ccc3c2)CC1

>  <score_type>  (48) 
oracle

>  <origin>  (48) 
autodockgpu

>  <m_score__min__energy>  (48) 
-8.7699999999999996

>  <m_primary>  (48) 
energy

>  <rmsd>  (48) 
5.539628316394738

>  <m_score__min__rmsd>  (48) 
5.539628316394738

>  <meeko>  (48) 
{"free_energy": -7.75, "intermolecular_energy": -10.14, "internal_energy": -2.27, "cluster_size": 4, "cluster_id": 2, "rank_in_cluster": 3}

>  <energy>  (48) 
-7.81

>  <cluster_rmsd>  (48) 
1.6

>  <cluster>  (48) 
3

$$$$

     RDKit          3D

 63 66  0  0  0  0  0  0  0  0999 V2000
  142.2650   80.4340  218.5800 C   0  0  0  0  0  0  0  0  0  0  0  0
  142.1830   79.0030  219.0760 C   0  0  0  0  0  0  0  0  0  0  0  0
  140.9650   78.8390  219.9300 C   0  0  0  0  0  0  0  0  0  0  0  0
  139.8650   79.0310  219.3920 O   0  0  0  0  0  0  0  0  0  0  0  0
  141.1350   78.4740  221.3050 N   0  0  0  0  0  0  0  0  0  0  0  0
  141.5430   79.4620  222.2650 C   0  0  0  0  0  0  0  0  0  0  0  0
  142.8920   79.5580  222.5670 C   0  0  0  0  0  0  0  0  0  0  0  0
  143.3710   80.4830  223.4800 C   0  0  0  0  0  0  0  0  0  0  0  0
  142.4530   81.3370  224.1050 C   0  0  0  0  0  0  0  0  0  0  0  0
  141.1010   81.2430  223.8020 C   0  0  0  0  0  0  0  0  0  0  0  0
  140.6310   80.3020  222.8780 C   0  0  0  0  0  0  0  0  0  0  0  0
  140.9140   77.1350  221.7870 C   0  0  0  0  0  0  0  0  0  0  0  0
  141.3620   76.0890  220.8060 C   0  0  0  0  0  0  0  0  0  0  0  0
  140.9900   74.6930  221.2550 C   0  0  0  0  0  0  0  0  0  0  0  0
  139.6830   74.5860  221.8290 N   0  0  0  0  0  0  0  0  0  0  0  0
  138.7810   73.5130  221.6030 C   0  0  0  0  0  0  0  0  0  0  0  0
  137.6170   73.4860  222.1330 O   0  0  0  0  0  0  0  0  0  0  0  0
  139.1080   72.3450  220.7430 C   0  0  2  0  0  0  0  0  0  0  0  0
  138.0610   71.3230  220.8540 N   0  0  0  0  0  0  0  0  0  0  0  0
  140.3750   71.6530  221.2330 C   0  0  0  0  0  0  0  0  0  0  0  0
  140.1660   71.1610  222.6410 C   0  0  0  0  0  0  0  0  0  0  0  0
  139.4140   70.0210  222.8350 C   0  0  0  0  0  0  0  0  0  0  0  0
  139.1580   69.4800  224.0760 C   0  0  0  0  0  0  0  0  0  0  0  0
  139.7000   70.1400  225.1670 C   0  0  0  0  0  0  0  0  0  0  0  0
  139.4380   69.5910  226.4080 C   0  0  0  0  0  0  0  0  0  0  0  0
  139.9490   70.2010  227.5430 C   0  0  0  0  0  0  0  0  0  0  0  0
  139.6940   69.6640  228.7800 F   0  0  0  0  0  0  0  0  0  0  0  0
  140.7020   71.3390  227.3770 C   0  0  0  0  0  0  0  0  0  0  0  0
  140.9690   71.8940  226.1350 C   0  0  0  0  0  0  0  0  0  0  0  0
  140.4550   71.2820  225.0010 C   0  0  0  0  0  0  0  0  0  0  0  0
  140.6970   71.8050  223.7320 C   0  0  0  0  0  0  0  0  0  0  0  0
  139.2390   75.6500  222.7140 C   0  0  0  0  0  0  0  0  0  0  0  0
  139.4220   76.9560  221.9970 C   0  0  0  0  0  0  0  0  0  0  0  0
  142.3042   81.1185  219.4402 H   0  0  0  0  0  0  0  0  0  0  0  0
  143.1718   80.5593  217.9701 H   0  0  0  0  0  0  0  0  0  0  0  0
  141.3784   80.6620  217.9701 H   0  0  0  0  0  0  0  0  0  0  0  0
  142.1222   78.3199  218.2159 H   0  0  0  0  0  0  0  0  0  0  0  0
  143.0798   78.7687  219.6683 H   0  0  0  0  0  0  0  0  0  0  0  0
  143.6016   78.8814  222.0683 H   0  0  0  0  0  0  0  0  0  0  0  0
  144.4452   80.5455  223.7086 H   0  0  0  0  0  0  0  0  0  0  0  0
  142.8029   82.0815  224.8353 H   0  0  0  0  0  0  0  0  0  0  0  0
  140.3876   81.9190  224.2961 H   0  0  0  0  0  0  0  0  0  0  0  0
  139.5584   80.2321  222.6443 H   0  0  0  0  0  0  0  0  0  0  0  0
  141.4939   77.0090  222.7132 H   0  0  0  0  0  0  0  0  0  0  0  0
  140.8871   76.2875  219.8339 H   0  0  0  0  0  0  0  0  0  0  0  0
  142.4583   76.1407  220.7319 H   0  0  0  0  0  0  0  0  0  0  0  0
  141.0380   74.0262  220.3814 H   0  0  0  0  0  0  0  0  0  0  0  0
  141.7038   74.4162  222.0448 H   0  0  0  0  0  0  0  0  0  0  0  0
  139.2156   72.7285  219.7177 H   0  0  0  0  0  0  0  0  0  0  0  0
  137.9740   70.7490  219.9950 H   0  0  0  0  0  0  0  0  0  0  0  0
  137.1820   71.7160  221.2150 H   0  0  0  0  0  0  0  0  0  0  0  0
  140.6042   70.8004  220.5769 H   0  0  0  0  0  0  0  0  0  0  0  0
  141.2126   72.3657  221.2143 H   0  0  0  0  0  0  0  0  0  0  0  0
  138.9962   69.5166  221.9513 H   0  0  0  0  0  0  0  0  0  0  0  0
  138.5531   68.5690  224.1948 H   0  0  0  0  0  0  0  0  0  0  0  0
  138.8297   68.6786  226.4942 H   0  0  0  0  0  0  0  0  0  0  0  0
  141.1116   71.8320  228.2709 H   0  0  0  0  0  0  0  0  0  0  0  0
  141.5789   72.8055  226.0500 H   0  0  0  0  0  0  0  0  0  0  0  0
  141.3013   72.7155  223.6065 H   0  0  0  0  0  0  0  0  0  0  0  0
  138.1777   75.5078  222.9657 H   0  0  0  0  0  0  0  0  0  0  0  0
  139.8230   75.6406  223.6461 H   0  0  0  0  0  0  0  0  0  0  0  0
  138.9033   76.9316  221.0273 H   0  0  0  0  0  0  0  0  0  0  0  0
  139.0026   77.7889  222.5804 H   0  0  0  0  0  0  0  0  0  0  0  0
  1  2  1  0
  2  3  1  0
  3  4  2  0
  3  5  1  0
  5  6  1  0
  6  7  2  0
  7  8  1  0
  8  9  2  0
  9 10  1  0
 10 11  2  0
  5 12  1  0
 12 13  1  0
 13 14  1  0
 14 15  1  0
 15 16  1  0
 16 17  2  0
 16 18  1  0
 18 19  1  0
 18 20  1  0
 20 21  1  0
 21 22  2  0
 22 23  1  0
 23 24  2  0
 24 25  1  0
 25 26  2  0
 26 27  1  0
 26 28  1  0
 28 29  2  0
 29 30  1  0
 30 31  2  0
 15 32  1  0
 32 33  1  0
 11  6  1  0
 33 12  1  0
 31 21  1  0
 30 24  1  0
  1 34  1  0
  1 35  1  0
  1 36  1  0
  2 37  1  0
  2 38  1  0
  7 39  1  0
  8 40  1  0
  9 41  1  0
 10 42  1  0
 11 43  1  0
 12 44  1  0
 13 45  1  0
 13 46  1  0
 14 47  1  0
 14 48  1  0
 18 49  1  6
 19 50  1  0
 19 51  1  0
 20 52  1  0
 20 53  1  0
 22 54  1  0
 23 55  1  0
 25 56  1  0
 28 57  1  0
 29 58  1  0
 31 59  1  0
 32 60  1  0
 32 61  1  0
 33 62  1  0
 33 63  1  0
M  END
>  <smiles>  (49) 
CCC(=O)N(c1ccccc1)C1CCN(C(=O)[C@H](N)Cc2ccc3cc(F)ccc3c2)CC1

>  <score_type>  (49) 
oracle

>  <origin>  (49) 
autodockgpu

>  <m_score__min__energy>  (49) 
-8.7699999999999996

>  <m_primary>  (49) 
energy

>  <rmsd>  (49) 
5.654999295721526

>  <m_score__min__rmsd>  (49) 
5.654999295721526

>  <meeko>  (49) 
{"free_energy": -7.79, "intermolecular_energy": -10.18, "internal_energy": -2.29, "cluster_size": 26, "cluster_id": 1, "rank_in_cluster": 22}

>  <energy>  (49) 
-7.77

>  <cluster_rmsd>  (49) 
1.49

>  <cluster>  (49) 
3

$$$$

     RDKit          3D

 63 66  0  0  0  0  0  0  0  0999 V2000
  142.5450   80.9310  217.9200 C   0  0  0  0  0  0  0  0  0  0  0  0
  141.3600   80.1730  218.4880 C   0  0  0  0  0  0  0  0  0  0  0  0
  141.8470   78.9860  219.2580 C   0  0  0  0  0  0  0  0  0  0  0  0
  142.6940   78.2650  218.7100 O   0  0  0  0  0  0  0  0  0  0  0  0
  141.3140   78.7500  220.5660 N   0  0  0  0  0  0  0  0  0  0  0  0
  141.6290   79.6480  221.6420 C   0  0  0  0  0  0  0  0  0  0  0  0
  140.8320   80.7690  221.8090 C   0  0  0  0  0  0  0  0  0  0  0  0
  141.0640   81.6850  222.8220 C   0  0  0  0  0  0  0  0  0  0  0  0
  142.1390   81.4570  223.6920 C   0  0  0  0  0  0  0  0  0  0  0  0
  142.9380   80.3330  223.5260 C   0  0  0  0  0  0  0  0  0  0  0  0
  142.6920   79.4160  222.4970 C   0  0  0  0  0  0  0  0  0  0  0  0
  140.4590   77.6310  220.8670 C   0  0  0  0  0  0  0  0  0  0  0  0
  140.8690   76.9140  222.1220 C   0  0  0  0  0  0  0  0  0  0  0  0
  140.0600   75.6560  222.3480 C   0  0  0  0  0  0  0  0  0  0  0  0
  139.8180   74.8900  221.1640 N   0  0  0  0  0  0  0  0  0  0  0  0
  139.8600   73.4720  221.0900 C   0  0  0  0  0  0  0  0  0  0  0  0
  139.6510   72.8460  219.9940 O   0  0  0  0  0  0  0  0  0  0  0  0
  140.1470   72.6060  222.2650 C   0  0  2  0  0  0  0  0  0  0  0  0
  141.0750   71.5330  221.8890 N   0  0  0  0  0  0  0  0  0  0  0  0
  138.8860   71.8830  222.7220 C   0  0  0  0  0  0  0  0  0  0  0  0
  139.2060   71.0170  223.9120 C   0  0  0  0  0  0  0  0  0  0  0  0
  138.7770   69.7060  223.9070 C   0  0  0  0  0  0  0  0  0  0  0  0
  139.0120   68.8240  224.9390 C   0  0  0  0  0  0  0  0  0  0  0  0
  139.7200   69.3120  226.0250 C   0  0  0  0  0  0  0  0  0  0  0  0
  139.9510   68.4200  227.0560 C   0  0  0  0  0  0  0  0  0  0  0  0
  140.6530   68.8420  228.1750 C   0  0  0  0  0  0  0  0  0  0  0  0
  140.8870   67.9650  229.2050 F   0  0  0  0  0  0  0  0  0  0  0  0
  141.0920   70.1440  228.2050 C   0  0  0  0  0  0  0  0  0  0  0  0
  140.8640   71.0430  227.1750 C   0  0  0  0  0  0  0  0  0  0  0  0
  140.1600   70.6180  226.0560 C   0  0  0  0  0  0  0  0  0  0  0  0
  139.9060   71.4870  224.9960 C   0  0  0  0  0  0  0  0  0  0  0  0
  139.4990   75.6080  219.9420 C   0  0  0  0  0  0  0  0  0  0  0  0
  140.5650   76.6420  219.7210 C   0  0  0  0  0  0  0  0  0  0  0  0
  143.1585   81.3234  218.7444 H   0  0  0  0  0  0  0  0  0  0  0  0
  143.1518   80.2530  217.3019 H   0  0  0  0  0  0  0  0  0  0  0  0
  142.1839   81.7662  217.3019 H   0  0  0  0  0  0  0  0  0  0  0  0
  140.7887   80.8339  219.1564 H   0  0  0  0  0  0  0  0  0  0  0  0
  140.7135   79.8348  217.6648 H   0  0  0  0  0  0  0  0  0  0  0  0
  139.9922   80.9362  221.1185 H   0  0  0  0  0  0  0  0  0  0  0  0
  140.4206   82.5693  222.9406 H   0  0  0  0  0  0  0  0  0  0  0  0
  142.3496   82.1672  224.5051 H   0  0  0  0  0  0  0  0  0  0  0  0
  143.7782   80.1604  224.2146 H   0  0  0  0  0  0  0  0  0  0  0  0
  143.3306   78.5293  222.3708 H   0  0  0  0  0  0  0  0  0  0  0  0
  139.4378   78.0148  221.0076 H   0  0  0  0  0  0  0  0  0  0  0  0
  141.9323   76.6429  222.0445 H   0  0  0  0  0  0  0  0  0  0  0  0
  140.6905   77.5891  222.9719 H   0  0  0  0  0  0  0  0  0  0  0  0
  140.6030   75.0213  223.0637 H   0  0  0  0  0  0  0  0  0  0  0  0
  139.0765   75.9773  222.7214 H   0  0  0  0  0  0  0  0  0  0  0  0
  140.5549   73.2611  223.0489 H   0  0  0  0  0  0  0  0  0  0  0  0
  142.0260   71.6800  222.2740 H   0  0  0  0  0  0  0  0  0  0  0  0
  141.0300   71.3250  220.8840 H   0  0  0  0  0  0  0  0  0  0  0  0
  138.1208   72.6221  223.0017 H   0  0  0  0  0  0  0  0  0  0  0  0
  138.5070   71.2543  221.9028 H   0  0  0  0  0  0  0  0  0  0  0  0
  138.2169   69.3452  223.0317 H   0  0  0  0  0  0  0  0  0  0  0  0
  138.6552   67.7841  224.9024 H   0  0  0  0  0  0  0  0  0  0  0  0
  139.5816   67.3860  226.9892 H   0  0  0  0  0  0  0  0  0  0  0  0
  141.6504   70.4888  229.0878 H   0  0  0  0  0  0  0  0  0  0  0  0
  141.2347   72.0764  227.2429 H   0  0  0  0  0  0  0  0  0  0  0  0
  140.2592   72.5283  225.0272 H   0  0  0  0  0  0  0  0  0  0  0  0
  139.4753   74.9087  219.0933 H   0  0  0  0  0  0  0  0  0  0  0  0
  138.5126   76.0874  220.0263 H   0  0  0  0  0  0  0  0  0  0  0  0
  141.5578   76.1684  219.7198 H   0  0  0  0  0  0  0  0  0  0  0  0
  140.4330   77.1448  218.7516 H   0  0  0  0  0  0  0  0  0  0  0  0
  1  2  1  0
  2  3  1  0
  3  4  2  0
  3  5  1  0
  5  6  1  0
  6  7  2  0
  7  8  1  0
  8  9  2  0
  9 10  1  0
 10 11  2  0
  5 12  1  0
 12 13  1  0
 13 14  1  0
 14 15  1  0
 15 16  1  0
 16 17  2  0
 16 18  1  0
 18 19  1  0
 18 20  1  0
 20 21  1  0
 21 22  2  0
 22 23  1  0
 23 24  2  0
 24 25  1  0
 25 26  2  0
 26 27  1  0
 26 28  1  0
 28 29  2  0
 29 30  1  0
 30 31  2  0
 15 32  1  0
 32 33  1  0
 11  6  1  0
 33 12  1  0
 31 21  1  0
 30 24  1  0
  1 34  1  0
  1 35  1  0
  1 36  1  0
  2 37  1  0
  2 38  1  0
  7 39  1  0
  8 40  1  0
  9 41  1  0
 10 42  1  0
 11 43  1  0
 12 44  1  0
 13 45  1  0
 13 46  1  0
 14 47  1  0
 14 48  1  0
 18 49  1  1
 19 50  1  0
 19 51  1  0
 20 52  1  0
 20 53  1  0
 22 54  1  0
 23 55  1  0
 25 56  1  0
 28 57  1  0
 29 58  1  0
 31 59  1  0
 32 60  1  0
 32 61  1  0
 33 62  1  0
 33 63  1  0
M  END
>  <smiles>  (50) 
CCC(=O)N(c1ccccc1)C1CCN(C(=O)[C@H](N)Cc2ccc3cc(F)ccc3c2)CC1

>  <score_type>  (50) 
oracle

>  <origin>  (50) 
autodockgpu

>  <m_score__min__energy>  (50) 
-8.7699999999999996

>  <m_primary>  (50) 
energy

>  <rmsd>  (50) 
6.054531197126285

>  <m_score__min__rmsd>  (50) 
6.054531197126285

>  <meeko>  (50) 
{"free_energy": -8.13, "intermolecular_energy": -10.52, "internal_energy": -1.99, "cluster_size": 20, "cluster_id": 3, "rank_in_cluster": 6}

>  <energy>  (50) 
-7.72

>  <cluster_rmsd>  (50) 
1.39

>  <cluster>  (50) 
3

$$$$
