
     RDKit          3D

 66 69  0  0  0  0  0  0  0  0999 V2000
  142.5500   79.5510  218.3340 C   0  0  0  0  0  0  0  0  0  0  0  0
  141.0530   79.6730  218.4060 C   0  0  0  0  0  0  0  0  0  0  0  0
  140.5050   78.7880  219.4960 C   0  0  0  0  0  0  0  0  0  0  0  0
  139.3640   78.2750  219.3520 O   0  0  0  0  0  0  0  0  0  0  0  0
  141.2610   78.5330  220.6730 N   0  0  0  0  0  0  0  0  0  0  0  0
  141.4150   79.6150  221.5820 C   0  0  0  0  0  0  0  0  0  0  0  0
  140.7450   80.8130  221.4620 C   0  0  0  0  0  0  0  0  0  0  0  0
  140.9530   81.8260  222.3910 C   0  0  0  0  0  0  0  0  0  0  0  0
  141.8300   81.6570  223.4480 C   0  0  0  0  0  0  0  0  0  0  0  0
  142.5060   80.4520  223.5710 C   0  0  0  0  0  0  0  0  0  0  0  0
  142.2940   79.4500  222.6430 C   0  0  0  0  0  0  0  0  0  0  0  0
  141.8240   77.2190  220.8990 C   0  0  0  0  0  0  0  0  0  0  0  0
  141.0040   76.3390  221.7850 C   0  0  0  0  0  0  0  0  0  0  0  0
  140.5910   75.0480  221.0700 C   0  0  0  0  0  0  0  0  0  0  0  0
  141.7540   74.3530  220.5700 N   0  0  0  0  0  0  0  0  0  0  0  0
  141.9740   72.9630  220.6440 C   0  0  0  0  0  0  0  0  0  0  0  0
  143.0280   72.4380  220.1470 O   0  0  0  0  0  0  0  0  0  0  0  0
  141.0350   71.9980  221.2840 C   0  0  2  0  0  0  0  0  0  0  0  0
  139.9090   71.7280  220.3290 C   0  0  0  0  0  0  0  0  0  0  0  0
  140.5180   72.6050  222.5020 N   0  0  0  0  0  0  0  0  0  0  0  0
  139.2400   72.0780  222.9120 C   0  0  0  0  0  0  0  0  0  0  0  0
  139.4190   71.0060  223.9560 C   0  0  0  0  0  0  0  0  0  0  0  0
  138.9860   69.7140  223.7450 C   0  0  0  0  0  0  0  0  0  0  0  0
  139.2050   68.8150  224.7780 C   0  0  0  0  0  0  0  0  0  0  0  0
  139.8290   69.2120  225.9540 C   0  0  0  0  0  0  0  0  0  0  0  0
  140.0570   68.3320  226.9960 C   0  0  0  0  0  0  0  0  0  0  0  0
  140.6790   68.7410  228.1610 C   0  0  0  0  0  0  0  0  0  0  0  0
  140.9100   67.8910  229.1900 F   0  0  0  0  0  0  0  0  0  0  0  0
  141.0980   70.0490  228.3290 C   0  0  0  0  0  0  0  0  0  0  0  0
  140.8790   70.9430  227.2970 C   0  0  0  0  0  0  0  0  0  0  0  0
  140.2540   70.5120  226.1410 C   0  0  0  0  0  0  0  0  0  0  0  0
  140.0430   71.4110  225.1250 C   0  0  0  0  0  0  0  0  0  0  0  0
  142.7820   75.1830  219.9410 C   0  0  0  0  0  0  0  0  0  0  0  0
  142.1390   76.5090  219.6050 C   0  0  0  0  0  0  0  0  0  0  0  0
  142.9645   79.5172  219.3523 H   0  0  0  0  0  0  0  0  0  0  0  0
  142.8173   78.6281  217.7985 H   0  0  0  0  0  0  0  0  0  0  0  0
  142.9632   80.4184  217.7985 H   0  0  0  0  0  0  0  0  0  0  0  0
  140.7844   80.7183  218.6187 H   0  0  0  0  0  0  0  0  0  0  0  0
  140.6230   79.3604  217.4430 H   0  0  0  0  0  0  0  0  0  0  0  0
  140.0437   80.9682  220.6289 H   0  0  0  0  0  0  0  0  0  0  0  0
  140.4116   82.7775  222.2842 H   0  0  0  0  0  0  0  0  0  0  0  0
  141.9883   82.4644  224.1781 H   0  0  0  0  0  0  0  0  0  0  0  0
  143.2077   80.2946  224.4034 H   0  0  0  0  0  0  0  0  0  0  0  0
  142.8354   78.4982  222.7481 H   0  0  0  0  0  0  0  0  0  0  0  0
  142.7618   77.4140  221.4398 H   0  0  0  0  0  0  0  0  0  0  0  0
  141.5941   76.0804  222.6766 H   0  0  0  0  0  0  0  0  0  0  0  0
  140.0910   76.8856  222.0638 H   0  0  0  0  0  0  0  0  0  0  0  0
  140.0567   74.3971  221.7778 H   0  0  0  0  0  0  0  0  0  0  0  0
  139.9376   75.3037  220.2229 H   0  0  0  0  0  0  0  0  0  0  0  0
  141.5429   71.0534  221.5285 H   0  0  0  0  0  0  0  0  0  0  0  0
  138.9922   71.5082  220.8958 H   0  0  0  0  0  0  0  0  0  0  0  0
  139.7453   72.6124  219.6957 H   0  0  0  0  0  0  0  0  0  0  0  0
  140.1642   70.8656  219.6957 H   0  0  0  0  0  0  0  0  0  0  0  0
  141.1810   72.4810  223.2920 H   0  0  0  0  0  0  0  0  0  0  0  0
  138.6306   72.8924  223.3308 H   0  0  0  0  0  0  0  0  0  0  0  0
  138.7392   71.6400  222.0360 H   0  0  0  0  0  0  0  0  0  0  0  0
  138.4938   69.4128  222.8085 H   0  0  0  0  0  0  0  0  0  0  0  0
  138.8793   67.7705  224.6643 H   0  0  0  0  0  0  0  0  0  0  0  0
  139.7367   67.2844  226.8959 H   0  0  0  0  0  0  0  0  0  0  0  0
  141.5919   70.3690  229.2583 H   0  0  0  0  0  0  0  0  0  0  0  0
  141.1999   71.9906  227.3949 H   0  0  0  0  0  0  0  0  0  0  0  0
  140.3700   72.4550  225.2393 H   0  0  0  0  0  0  0  0  0  0  0  0
  143.6208   75.3358  220.6360 H   0  0  0  0  0  0  0  0  0  0  0  0
  143.1761   74.6986  219.0355 H   0  0  0  0  0  0  0  0  0  0  0  0
  142.8314   77.1176  219.0048 H   0  0  0  0  0  0  0  0  0  0  0  0
  141.2186   76.3497  219.0240 H   0  0  0  0  0  0  0  0  0  0  0  0
  1  2  1  0
  2  3  1  0
  3  4  2  0
  3  5  1  0
  5  6  1  0
  6  7  2  0
  7  8  1  0
  8  9  2  0
  9 10  1  0
 10 11  2  0
  5 12  1  0
 12 13  1  0
 13 14  1  0
 14 15  1  0
 15 16  1  0
 16 17  2  0
 16 18  1  0
 18 19  1  0
 18 20  1  0
 20 21  1  0
 21 22  1  0
 22 23  2  0
 23 24  1  0
 24 25  2  0
 25 26  1  0
 26 27  2  0
 27 28  1  0
 27 29  1  0
 29 30  2  0
 30 31  1  0
 31 32  2  0
 15 33  1  0
 33 34  1  0
 11  6  1  0
 34 12  1  0
 32 22  1  0
 31 25  1  0
  1 35  1  0
  1 36  1  0
  1 37  1  0
  2 38  1  0
  2 39  1  0
  7 40  1  0
  8 41  1  0
  9 42  1  0
 10 43  1  0
 11 44  1  0
 12 45  1  0
 13 46  1  0
 13 47  1  0
 14 48  1  0
 14 49  1  0
 18 50  1  1
 19 51  1  0
 19 52  1  0
 19 53  1  0
 20 54  1  0
 21 55  1  0
 21 56  1  0
 23 57  1  0
 24 58  1  0
 26 59  1  0
 29 60  1  0
 30 61  1  0
 32 62  1  0
 33 63  1  0
 33 64  1  0
 34 65  1  0
 34 66  1  0
M  END
>  <smiles>  (1) 
CCC(=O)N(c1ccccc1)C1CCN(C(=O)[C@H](C)NCc2ccc3cc(F)ccc3c2)CC1

>  <score_type>  (1) 
oracle

>  <origin>  (1) 
autodockgpu

>  <m_score__min__energy>  (1) 
-9.0899999999999999

>  <m_primary>  (1) 
energy

>  <rmsd>  (1) 
8.97930923246531

>  <m_score__min__rmsd>  (1) 
8.97930923246531

>  <meeko>  (1) 
{"free_energy": -8.63, "intermolecular_energy": -11.02, "internal_energy": -1.63, "cluster_size": 28, "cluster_id": 3, "rank_in_cluster": 16}

>  <energy>  (1) 
-9.09

>  <cluster_rmsd>  (1) 
0.0

>  <cluster>  (1) 
1

$$$$

     RDKit          3D

 66 69  0  0  0  0  0  0  0  0999 V2000
  142.7020   81.4230  217.5360 C   0  0  0  0  0  0  0  0  0  0  0  0
  142.4650   80.0870  218.1810 C   0  0  0  0  0  0  0  0  0  0  0  0
  141.2650   80.1480  219.0920 C   0  0  0  0  0  0  0  0  0  0  0  0
  140.3700   81.0050  218.8690 O   0  0  0  0  0  0  0  0  0  0  0  0
  141.1410   79.2520  220.1900 N   0  0  0  0  0  0  0  0  0  0  0  0
  141.3630   79.7930  221.4860 C   0  0  0  0  0  0  0  0  0  0  0  0
  142.6100   79.9060  222.0600 C   0  0  0  0  0  0  0  0  0  0  0  0
  142.7450   80.4430  223.3350 C   0  0  0  0  0  0  0  0  0  0  0  0
  141.6400   80.8720  224.0510 C   0  0  0  0  0  0  0  0  0  0  0  0
  140.3840   80.7590  223.4740 C   0  0  0  0  0  0  0  0  0  0  0  0
  140.2580   80.2230  222.2070 C   0  0  0  0  0  0  0  0  0  0  0  0
  140.7970   77.8660  219.9550 C   0  0  0  0  0  0  0  0  0  0  0  0
  141.8320   76.8870  220.4050 C   0  0  0  0  0  0  0  0  0  0  0  0
  141.2700   75.9100  221.4430 C   0  0  0  0  0  0  0  0  0  0  0  0
  140.1010   75.2390  220.9260 N   0  0  0  0  0  0  0  0  0  0  0  0
  139.8130   73.8670  221.0680 C   0  0  0  0  0  0  0  0  0  0  0  0
  138.7340   73.3700  220.5940 O   0  0  0  0  0  0  0  0  0  0  0  0
  140.7000   72.8910  221.7620 C   0  0  2  0  0  0  0  0  0  0  0  0
  141.8920   72.6290  220.8890 C   0  0  0  0  0  0  0  0  0  0  0  0
  139.9530   71.6590  221.9640 N   0  0  0  0  0  0  0  0  0  0  0  0
  139.0140   71.7240  223.0560 C   0  0  0  0  0  0  0  0  0  0  0  0
  139.3370   70.6800  224.0940 C   0  0  0  0  0  0  0  0  0  0  0  0
  138.9590   69.3630  223.9370 C   0  0  0  0  0  0  0  0  0  0  0  0
  139.3110   68.4950  224.9590 C   0  0  0  0  0  0  0  0  0  0  0  0
  140.0070   68.9440  226.0740 C   0  0  0  0  0  0  0  0  0  0  0  0
  140.3670   68.0950  227.1040 C   0  0  0  0  0  0  0  0  0  0  0  0
  141.0600   68.5570  228.2090 C   0  0  0  0  0  0  0  0  0  0  0  0
  141.4200   67.7380  229.2250 F   0  0  0  0  0  0  0  0  0  0  0  0
  141.4180   69.8880  228.3260 C   0  0  0  0  0  0  0  0  0  0  0  0
  141.0660   70.7510  227.3040 C   0  0  0  0  0  0  0  0  0  0  0  0
  140.3740   70.2680  226.2090 C   0  0  0  0  0  0  0  0  0  0  0  0
  140.0310   71.1380  225.2030 C   0  0  0  0  0  0  0  0  0  0  0  0
  139.1500   76.0720  220.1880 C   0  0  0  0  0  0  0  0  0  0  0  0
  139.4520   77.5100  220.5420 C   0  0  0  0  0  0  0  0  0  0  0  0
  142.8376   82.1875  218.3152 H   0  0  0  0  0  0  0  0  0  0  0  0
  143.6053   81.3730  216.9103 H   0  0  0  0  0  0  0  0  0  0  0  0
  141.8366   81.6867  216.9103 H   0  0  0  0  0  0  0  0  0  0  0  0
  142.2886   79.3334  217.3993 H   0  0  0  0  0  0  0  0  0  0  0  0
  143.3502   79.8157  218.7750 H   0  0  0  0  0  0  0  0  0  0  0  0
  143.5007   79.5707  221.5084 H   0  0  0  0  0  0  0  0  0  0  0  0
  143.7461   80.5286  223.7827 H   0  0  0  0  0  0  0  0  0  0  0  0
  141.7565   81.2950  225.0597 H   0  0  0  0  0  0  0  0  0  0  0  0
  139.4918   81.0948  224.0229 H   0  0  0  0  0  0  0  0  0  0  0  0
  139.2574   80.1349  221.7587 H   0  0  0  0  0  0  0  0  0  0  0  0
  140.7459   77.7803  218.8595 H   0  0  0  0  0  0  0  0  0  0  0  0
  142.1872   76.3171  219.5338 H   0  0  0  0  0  0  0  0  0  0  0  0
  142.6565   77.4471  220.8704 H   0  0  0  0  0  0  0  0  0  0  0  0
  142.0379   75.1616  221.6885 H   0  0  0  0  0  0  0  0  0  0  0  0
  140.9869   76.4732  222.3445 H   0  0  0  0  0  0  0  0  0  0  0  0
  141.0360   73.2828  222.7334 H   0  0  0  0  0  0  0  0  0  0  0  0
  142.7726   72.4355  221.5192 H   0  0  0  0  0  0  0  0  0  0  0  0
  141.6958   71.7525  220.2539 H   0  0  0  0  0  0  0  0  0  0  0  0
  142.0814   73.5069  220.2539 H   0  0  0  0  0  0  0  0  0  0  0  0
  139.4260   71.3970  221.1080 H   0  0  0  0  0  0  0  0  0  0  0  0
  139.0645   72.7211  223.5178 H   0  0  0  0  0  0  0  0  0  0  0  0
  138.0025   71.5368  222.6665 H   0  0  0  0  0  0  0  0  0  0  0  0
  138.4080   69.0199  223.0489 H   0  0  0  0  0  0  0  0  0  0  0  0
  139.0345   67.4329  224.8857 H   0  0  0  0  0  0  0  0  0  0  0  0
  140.0970   67.0304  227.0439 H   0  0  0  0  0  0  0  0  0  0  0  0
  141.9674   70.2501  229.2075 H   0  0  0  0  0  0  0  0  0  0  0  0
  141.3352   71.8160  227.3622 H   0  0  0  0  0  0  0  0  0  0  0  0
  140.3076   72.2001  225.2776 H   0  0  0  0  0  0  0  0  0  0  0  0
  139.2720   75.9160  219.1060 H   0  0  0  0  0  0  0  0  0  0  0  0
  138.1143   75.8125  220.4525 H   0  0  0  0  0  0  0  0  0  0  0  0
  138.6765   78.1678  220.1227 H   0  0  0  0  0  0  0  0  0  0  0  0
  139.4674   77.6380  221.6344 H   0  0  0  0  0  0  0  0  0  0  0  0
  1  2  1  0
  2  3  1  0
  3  4  2  0
  3  5  1  0
  5  6  1  0
  6  7  2  0
  7  8  1  0
  8  9  2  0
  9 10  1  0
 10 11  2  0
  5 12  1  0
 12 13  1  0
 13 14  1  0
 14 15  1  0
 15 16  1  0
 16 17  2  0
 16 18  1  0
 18 19  1  0
 18 20  1  0
 20 21  1  0
 21 22  1  0
 22 23  2  0
 23 24  1  0
 24 25  2  0
 25 26  1  0
 26 27  2  0
 27 28  1  0
 27 29  1  0
 29 30  2  0
 30 31  1  0
 31 32  2  0
 15 33  1  0
 33 34  1  0
 11  6  1  0
 34 12  1  0
 32 22  1  0
 31 25  1  0
  1 35  1  0
  1 36  1  0
  1 37  1  0
  2 38  1  0
  2 39  1  0
  7 40  1  0
  8 41  1  0
  9 42  1  0
 10 43  1  0
 11 44  1  0
 12 45  1  0
 13 46  1  0
 13 47  1  0
 14 48  1  0
 14 49  1  0
 18 50  1  1
 19 51  1  0
 19 52  1  0
 19 53  1  0
 20 54  1  0
 21 55  1  0
 21 56  1  0
 23 57  1  0
 24 58  1  0
 26 59  1  0
 29 60  1  0
 30 61  1  0
 32 62  1  0
 33 63  1  0
 33 64  1  0
 34 65  1  0
 34 66  1  0
M  END
>  <smiles>  (2) 
CCC(=O)N(c1ccccc1)C1CCN(C(=O)[C@H](C)NCc2ccc3cc(F)ccc3c2)CC1

>  <score_type>  (2) 
oracle

>  <origin>  (2) 
autodockgpu

>  <m_score__min__energy>  (2) 
-9.0899999999999999

>  <m_primary>  (2) 
energy

>  <rmsd>  (2) 
9.07195102220272

>  <m_score__min__rmsd>  (2) 
9.07195102220272

>  <meeko>  (2) 
{"free_energy": -8.19, "intermolecular_energy": -10.58, "internal_energy": -2.25, "cluster_size": 28, "cluster_id": 3, "rank_in_cluster": 26}

>  <energy>  (2) 
-8.9

>  <cluster_rmsd>  (2) 
0.42

>  <cluster>  (2) 
1

$$$$

     RDKit          3D

 66 69  0  0  0  0  0  0  0  0999 V2000
  142.1990   80.5020  218.7890 C   0  0  0  0  0  0  0  0  0  0  0  0
  141.5820   79.1480  218.5770 C   0  0  0  0  0  0  0  0  0  0  0  0
  141.7760   78.2860  219.7980 C   0  0  0  0  0  0  0  0  0  0  0  0
  142.6590   77.3880  219.7800 O   0  0  0  0  0  0  0  0  0  0  0  0
  140.9740   78.4780  220.9570 N   0  0  0  0  0  0  0  0  0  0  0  0
  141.4410   79.4240  221.9100 C   0  0  0  0  0  0  0  0  0  0  0  0
  142.4900   79.1840  222.7700 C   0  0  0  0  0  0  0  0  0  0  0  0
  142.8870   80.1590  223.6770 C   0  0  0  0  0  0  0  0  0  0  0  0
  142.2430   81.3830  223.7370 C   0  0  0  0  0  0  0  0  0  0  0  0
  141.1870   81.6270  222.8710 C   0  0  0  0  0  0  0  0  0  0  0  0
  140.7980   80.6520  221.9730 C   0  0  0  0  0  0  0  0  0  0  0  0
  139.7450   77.7300  221.1170 C   0  0  0  0  0  0  0  0  0  0  0  0
  139.6860   76.4620  220.3290 C   0  0  0  0  0  0  0  0  0  0  0  0
  139.4840   75.2440  221.2370 C   0  0  0  0  0  0  0  0  0  0  0  0
  138.3040   75.4120  222.0530 N   0  0  0  0  0  0  0  0  0  0  0  0
  137.3450   74.4160  222.3210 C   0  0  0  0  0  0  0  0  0  0  0  0
  136.3440   74.6560  223.0810 O   0  0  0  0  0  0  0  0  0  0  0  0
  137.3950   73.0320  221.7710 C   0  0  2  0  0  0  0  0  0  0  0  0
  136.0500   72.7020  221.1920 C   0  0  0  0  0  0  0  0  0  0  0  0
  137.7030   72.1180  222.8610 N   0  0  0  0  0  0  0  0  0  0  0  0
  139.0760   71.6770  222.8750 C   0  0  0  0  0  0  0  0  0  0  0  0
  139.2940   70.6570  223.9630 C   0  0  0  0  0  0  0  0  0  0  0  0
  138.8730   69.3520  223.8230 C   0  0  0  0  0  0  0  0  0  0  0  0
  139.1270   68.5050  224.8910 C   0  0  0  0  0  0  0  0  0  0  0  0
  139.7730   68.9640  226.0320 C   0  0  0  0  0  0  0  0  0  0  0  0
  140.0370   68.1360  227.1070 C   0  0  0  0  0  0  0  0  0  0  0  0
  140.6810   68.6070  228.2380 C   0  0  0  0  0  0  0  0  0  0  0  0
  140.9470   67.8090  229.2990 F   0  0  0  0  0  0  0  0  0  0  0  0
  141.0870   69.9260  228.3350 C   0  0  0  0  0  0  0  0  0  0  0  0
  140.8310   70.7680  227.2680 C   0  0  0  0  0  0  0  0  0  0  0  0
  140.1860   70.2760  226.1480 C   0  0  0  0  0  0  0  0  0  0  0  0
  139.9390   71.1240  225.0970 C   0  0  0  0  0  0  0  0  0  0  0  0
  138.1050   76.7390  222.6370 C   0  0  0  0  0  0  0  0  0  0  0  0
  139.4330   77.4580  222.5680 C   0  0  0  0  0  0  0  0  0  0  0  0
  142.2889   80.6992  219.8674 H   0  0  0  0  0  0  0  0  0  0  0  0
  143.1971   80.5264  218.3274 H   0  0  0  0  0  0  0  0  0  0  0  0
  141.5626   81.2713  218.3274 H   0  0  0  0  0  0  0  0  0  0  0  0
  140.5055   79.2663  218.3840 H   0  0  0  0  0  0  0  0  0  0  0  0
  142.0689   78.6643  217.7174 H   0  0  0  0  0  0  0  0  0  0  0  0
  143.0149   78.2178  222.7386 H   0  0  0  0  0  0  0  0  0  0  0  0
  143.7263   79.9550  224.3581 H   0  0  0  0  0  0  0  0  0  0  0  0
  142.5631   82.1488  224.4588 H   0  0  0  0  0  0  0  0  0  0  0  0
  140.6615   82.5930  222.8993 H   0  0  0  0  0  0  0  0  0  0  0  0
  139.9584   80.8540  221.2916 H   0  0  0  0  0  0  0  0  0  0  0  0
  138.9692   78.3893  220.7004 H   0  0  0  0  0  0  0  0  0  0  0  0
  138.8479   76.5213  219.6191 H   0  0  0  0  0  0  0  0  0  0  0  0
  140.6418   76.3414  219.7981 H   0  0  0  0  0  0  0  0  0  0  0  0
  139.3691   74.3439  220.6152 H   0  0  0  0  0  0  0  0  0  0  0  0
  140.3598   75.1411  221.8946 H   0  0  0  0  0  0  0  0  0  0  0  0
  138.1627   72.9454  220.9880 H   0  0  0  0  0  0  0  0  0  0  0  0
  135.3329   72.5261  222.0074 H   0  0  0  0  0  0  0  0  0  0  0  0
  135.7017   73.5413  220.5722 H   0  0  0  0  0  0  0  0  0  0  0  0
  136.1297   71.7968  220.5722 H   0  0  0  0  0  0  0  0  0  0  0  0
  137.5010   72.5530  223.7820 H   0  0  0  0  0  0  0  0  0  0  0  0
  139.3208   71.2259  221.9021 H   0  0  0  0  0  0  0  0  0  0  0  0
  139.7253   72.5441  223.0663 H   0  0  0  0  0  0  0  0  0  0  0  0
  138.3632   69.0015  222.9134 H   0  0  0  0  0  0  0  0  0  0  0  0
  138.8119   67.4526  224.8339 H   0  0  0  0  0  0  0  0  0  0  0  0
  139.7289   67.0810  227.0626 H   0  0  0  0  0  0  0  0  0  0  0  0
  141.5993   70.2949  229.2358 H   0  0  0  0  0  0  0  0  0  0  0  0
  141.1387   71.8232  227.3101 H   0  0  0  0  0  0  0  0  0  0  0  0
  140.2538   72.1764  225.1552 H   0  0  0  0  0  0  0  0  0  0  0  0
  137.3457   77.2929  222.0654 H   0  0  0  0  0  0  0  0  0  0  0  0
  137.7553   76.6609  223.6770 H   0  0  0  0  0  0  0  0  0  0  0  0
  139.3720   78.4073  223.1204 H   0  0  0  0  0  0  0  0  0  0  0  0
  140.2241   76.8404  223.0182 H   0  0  0  0  0  0  0  0  0  0  0  0
  1  2  1  0
  2  3  1  0
  3  4  2  0
  3  5  1  0
  5  6  1  0
  6  7  2  0
  7  8  1  0
  8  9  2  0
  9 10  1  0
 10 11  2  0
  5 12  1  0
 12 13  1  0
 13 14  1  0
 14 15  1  0
 15 16  1  0
 16 17  2  0
 16 18  1  0
 18 19  1  0
 18 20  1  0
 20 21  1  0
 21 22  1  0
 22 23  2  0
 23 24  1  0
 24 25  2  0
 25 26  1  0
 26 27  2  0
 27 28  1  0
 27 29  1  0
 29 30  2  0
 30 31  1  0
 31 32  2  0
 15 33  1  0
 33 34  1  0
 11  6  1  0
 34 12  1  0
 32 22  1  0
 31 25  1  0
  1 35  1  0
  1 36  1  0
  1 37  1  0
  2 38  1  0
  2 39  1  0
  7 40  1  0
  8 41  1  0
  9 42  1  0
 10 43  1  0
 11 44  1  0
 12 45  1  0
 13 46  1  0
 13 47  1  0
 14 48  1  0
 14 49  1  0
 18 50  1  6
 19 51  1  0
 19 52  1  0
 19 53  1  0
 20 54  1  0
 21 55  1  0
 21 56  1  0
 23 57  1  0
 24 58  1  0
 26 59  1  0
 29 60  1  0
 30 61  1  0
 32 62  1  0
 33 63  1  0
 33 64  1  0
 34 65  1  0
 34 66  1  0
M  END
>  <smiles>  (3) 
CCC(=O)N(c1ccccc1)C1CCN(C(=O)[C@H](C)NCc2ccc3cc(F)ccc3c2)CC1

>  <score_type>  (3) 
oracle

>  <origin>  (3) 
autodockgpu

>  <m_score__min__energy>  (3) 
-9.0899999999999999

>  <m_primary>  (3) 
energy

>  <rmsd>  (3) 
9.179997033549332

>  <m_score__min__rmsd>  (3) 
9.179997033549332

>  <meeko>  (3) 
{"free_energy": -8.87, "intermolecular_energy": -11.25, "internal_energy": -1.95, "cluster_size": 28, "cluster_id": 3, "rank_in_cluster": 6}

>  <energy>  (3) 
-8.88

>  <cluster_rmsd>  (3) 
0.34

>  <cluster>  (3) 
1

$$$$

     RDKit          3D

 66 69  0  0  0  0  0  0  0  0999 V2000
  142.8630   75.1310  216.9890 C   0  0  0  0  0  0  0  0  0  0  0  0
  143.3090   76.2290  217.9130 C   0  0  0  0  0  0  0  0  0  0  0  0
  142.7950   75.9840  219.3090 C   0  0  0  0  0  0  0  0  0  0  0  0
  142.4750   76.9680  220.0250 O   0  0  0  0  0  0  0  0  0  0  0  0
  142.6720   74.6600  219.8140 N   0  0  0  0  0  0  0  0  0  0  0  0
  143.8770   73.9270  219.9900 C   0  0  0  0  0  0  0  0  0  0  0  0
  144.1210   72.7090  219.3950 C   0  0  0  0  0  0  0  0  0  0  0  0
  145.3240   72.0500  219.6190 C   0  0  0  0  0  0  0  0  0  0  0  0
  146.2960   72.5980  220.4390 C   0  0  0  0  0  0  0  0  0  0  0  0
  146.0530   73.8250  221.0390 C   0  0  0  0  0  0  0  0  0  0  0  0
  144.8540   74.4720  220.8120 C   0  0  0  0  0  0  0  0  0  0  0  0
  141.3630   74.1260  220.1280 C   0  0  0  0  0  0  0  0  0  0  0  0
  141.0860   72.7820  219.5380 C   0  0  0  0  0  0  0  0  0  0  0  0
  140.7720   71.7450  220.6210 C   0  0  0  0  0  0  0  0  0  0  0  0
  139.6760   72.1920  221.4480 N   0  0  0  0  0  0  0  0  0  0  0  0
  138.6060   71.3920  221.8950 C   0  0  0  0  0  0  0  0  0  0  0  0
  137.6940   71.8770  222.6480 O   0  0  0  0  0  0  0  0  0  0  0  0
  138.4360   69.9520  221.5520 C   0  0  2  0  0  0  0  0  0  0  0  0
  137.5540   69.8540  220.3410 C   0  0  0  0  0  0  0  0  0  0  0  0
  137.8030   69.2860  222.6800 N   0  0  0  0  0  0  0  0  0  0  0  0
  138.5920   68.2150  223.2360 C   0  0  0  0  0  0  0  0  0  0  0  0
  139.2030   68.6330  224.5490 C   0  0  0  0  0  0  0  0  0  0  0  0
  139.2480   67.7780  225.6290 C   0  0  0  0  0  0  0  0  0  0  0  0
  139.8340   68.2750  226.7840 C   0  0  0  0  0  0  0  0  0  0  0  0
  140.3430   69.5670  226.8320 C   0  0  0  0  0  0  0  0  0  0  0  0
  140.9300   70.0810  227.9730 C   0  0  0  0  0  0  0  0  0  0  0  0
  141.4330   71.3690  228.0060 C   0  0  0  0  0  0  0  0  0  0  0  0
  142.0110   71.8880  229.1150 F   0  0  0  0  0  0  0  0  0  0  0  0
  141.3660   72.1940  226.8970 C   0  0  0  0  0  0  0  0  0  0  0  0
  140.7820   71.6950  225.7470 C   0  0  0  0  0  0  0  0  0  0  0  0
  140.2860   70.4040  225.7360 C   0  0  0  0  0  0  0  0  0  0  0  0
  139.7080   69.9240  224.5870 C   0  0  0  0  0  0  0  0  0  0  0  0
  139.6950   73.6030  221.8380 C   0  0  0  0  0  0  0  0  0  0  0  0
  141.1020   74.1070  221.6140 C   0  0  0  0  0  0  0  0  0  0  0  0
  142.5142   74.2723  217.5814 H   0  0  0  0  0  0  0  0  0  0  0  0
  142.0421   75.4965  216.3546 H   0  0  0  0  0  0  0  0  0  0  0  0
  143.7063   74.8205  216.3546 H   0  0  0  0  0  0  0  0  0  0  0  0
  144.4083   76.2619  217.9324 H   0  0  0  0  0  0  0  0  0  0  0  0
  142.9079   77.1862  217.5485 H   0  0  0  0  0  0  0  0  0  0  0  0
  143.3615   72.2565  218.7406 H   0  0  0  0  0  0  0  0  0  0  0  0
  145.5068   71.0781  219.1374 H   0  0  0  0  0  0  0  0  0  0  0  0
  147.2450   72.0692  220.6117 H   0  0  0  0  0  0  0  0  0  0  0  0
  146.8116   74.2805  221.6925 H   0  0  0  0  0  0  0  0  0  0  0  0
  144.6687   75.4430  221.2944 H   0  0  0  0  0  0  0  0  0  0  0  0
  140.6618   74.8248  219.6485 H   0  0  0  0  0  0  0  0  0  0  0  0
  140.2244   72.8609  218.8587 H   0  0  0  0  0  0  0  0  0  0  0  0
  141.9845   72.4522  218.9958 H   0  0  0  0  0  0  0  0  0  0  0  0
  140.4991   70.7931  220.1421 H   0  0  0  0  0  0  0  0  0  0  0  0
  141.6622   71.6106  221.2530 H   0  0  0  0  0  0  0  0  0  0  0  0
  139.4060   69.4786  221.3396 H   0  0  0  0  0  0  0  0  0  0  0  0
  136.5072   69.7377  220.6583 H   0  0  0  0  0  0  0  0  0  0  0  0
  137.6551   70.7689  219.7387 H   0  0  0  0  0  0  0  0  0  0  0  0
  137.8535   68.9836  219.7387 H   0  0  0  0  0  0  0  0  0  0  0  0
  137.5980   69.9590  223.4440 H   0  0  0  0  0  0  0  0  0  0  0  0
  137.9477   67.3386  223.3997 H   0  0  0  0  0  0  0  0  0  0  0  0
  139.3998   67.9669  222.5318 H   0  0  0  0  0  0  0  0  0  0  0  0
  138.8414   66.7572  225.5779 H   0  0  0  0  0  0  0  0  0  0  0  0
  139.8968   67.6355  227.6768 H   0  0  0  0  0  0  0  0  0  0  0  0
  140.9985   69.4527  228.8733 H   0  0  0  0  0  0  0  0  0  0  0  0
  141.7661   73.2181  226.9293 H   0  0  0  0  0  0  0  0  0  0  0  0
  140.7123   72.3217  224.8456 H   0  0  0  0  0  0  0  0  0  0  0  0
  139.6453   70.5646  223.6949 H   0  0  0  0  0  0  0  0  0  0  0  0
  138.9866   74.1747  221.2205 H   0  0  0  0  0  0  0  0  0  0  0  0
  139.3994   73.7222  222.8908 H   0  0  0  0  0  0  0  0  0  0  0  0
  141.2035   75.1230  222.0233 H   0  0  0  0  0  0  0  0  0  0  0  0
  141.8263   73.4513  222.1194 H   0  0  0  0  0  0  0  0  0  0  0  0
  1  2  1  0
  2  3  1  0
  3  4  2  0
  3  5  1  0
  5  6  1  0
  6  7  2  0
  7  8  1  0
  8  9  2  0
  9 10  1  0
 10 11  2  0
  5 12  1  0
 12 13  1  0
 13 14  1  0
 14 15  1  0
 15 16  1  0
 16 17  2  0
 16 18  1  0
 18 19  1  0
 18 20  1  0
 20 21  1  0
 21 22  1  0
 22 23  2  0
 23 24  1  0
 24 25  2  0
 25 26  1  0
 26 27  2  0
 27 28  1  0
 27 29  1  0
 29 30  2  0
 30 31  1  0
 31 32  2  0
 15 33  1  0
 33 34  1  0
 11  6  1  0
 34 12  1  0
 32 22  1  0
 31 25  1  0
  1 35  1  0
  1 36  1  0
  1 37  1  0
  2 38  1  0
  2 39  1  0
  7 40  1  0
  8 41  1  0
  9 42  1  0
 10 43  1  0
 11 44  1  0
 12 45  1  0
 13 46  1  0
 13 47  1  0
 14 48  1  0
 14 49  1  0
 18 50  1  6
 19 51  1  0
 19 52  1  0
 19 53  1  0
 20 54  1  0
 21 55  1  0
 21 56  1  0
 23 57  1  0
 24 58  1  0
 26 59  1  0
 29 60  1  0
 30 61  1  0
 32 62  1  0
 33 63  1  0
 33 64  1  0
 34 65  1  0
 34 66  1  0
M  END
>  <smiles>  (4) 
CCC(=O)N(c1ccccc1)C1CCN(C(=O)[C@H](C)NCc2ccc3cc(F)ccc3c2)CC1

>  <score_type>  (4) 
oracle

>  <origin>  (4) 
autodockgpu

>  <m_score__min__energy>  (4) 
-9.0899999999999999

>  <m_primary>  (4) 
energy

>  <rmsd>  (4) 
9.921667000836578

>  <m_score__min__rmsd>  (4) 
9.921667000836578

>  <meeko>  (4) 
{"free_energy": -7.82, "intermolecular_energy": -10.21, "internal_energy": -2.67, "cluster_size": 1, "cluster_id": 7, "rank_in_cluster": 1}

>  <energy>  (4) 
-8.82

>  <cluster_rmsd>  (4) 
0.66

>  <cluster>  (4) 
1

$$$$

     RDKit          3D

 66 69  0  0  0  0  0  0  0  0999 V2000
  141.1520   81.2360  223.8660 C   0  0  0  0  0  0  0  0  0  0  0  0
  142.2020   81.2740  222.7910 C   0  0  0  0  0  0  0  0  0  0  0  0
  142.2560   79.9560  222.0620 C   0  0  0  0  0  0  0  0  0  0  0  0
  142.9830   79.0340  222.5160 O   0  0  0  0  0  0  0  0  0  0  0  0
  141.4990   79.7520  220.8750 N   0  0  0  0  0  0  0  0  0  0  0  0
  141.8270   80.5650  219.7570 C   0  0  0  0  0  0  0  0  0  0  0  0
  142.5770   80.1240  218.6880 C   0  0  0  0  0  0  0  0  0  0  0  0
  142.8600   80.9820  217.6320 C   0  0  0  0  0  0  0  0  0  0  0  0
  142.4000   82.2880  217.6300 C   0  0  0  0  0  0  0  0  0  0  0  0
  141.6450   82.7340  218.7050 C   0  0  0  0  0  0  0  0  0  0  0  0
  141.3690   81.8750  219.7510 C   0  0  0  0  0  0  0  0  0  0  0  0
  140.4560   78.7480  220.8490 C   0  0  0  0  0  0  0  0  0  0  0  0
  140.8050   77.5130  220.0840 C   0  0  0  0  0  0  0  0  0  0  0  0
  140.7350   76.2640  220.9680 C   0  0  0  0  0  0  0  0  0  0  0  0
  139.4330   76.1510  221.5830 N   0  0  0  0  0  0  0  0  0  0  0  0
  138.6870   74.9630  221.7110 C   0  0  0  0  0  0  0  0  0  0  0  0
  137.5500   74.9620  222.2960 O   0  0  0  0  0  0  0  0  0  0  0  0
  139.1300   73.6350  221.2000 C   0  0  2  0  0  0  0  0  0  0  0  0
  138.2150   73.2280  220.0810 C   0  0  0  0  0  0  0  0  0  0  0  0
  139.0390   72.6740  222.2880 N   0  0  0  0  0  0  0  0  0  0  0  0
  140.3170   72.3170  222.8520 C   0  0  0  0  0  0  0  0  0  0  0  0
  140.1590   71.2150  223.8690 C   0  0  0  0  0  0  0  0  0  0  0  0
  139.5400   70.0240  223.5530 C   0  0  0  0  0  0  0  0  0  0  0  0
  139.4530   69.0870  224.5700 C   0  0  0  0  0  0  0  0  0  0  0  0
  139.9660   69.3490  225.8340 C   0  0  0  0  0  0  0  0  0  0  0  0
  139.8890   68.4280  226.8620 C   0  0  0  0  0  0  0  0  0  0  0  0
  140.4040   68.7030  228.1160 C   0  0  0  0  0  0  0  0  0  0  0  0
  140.3370   67.8120  229.1330 F   0  0  0  0  0  0  0  0  0  0  0  0
  141.0170   69.9130  228.3890 C   0  0  0  0  0  0  0  0  0  0  0  0
  141.1040   70.8460  227.3720 C   0  0  0  0  0  0  0  0  0  0  0  0
  140.5810   70.5500  226.1260 C   0  0  0  0  0  0  0  0  0  0  0  0
  140.6740   71.4870  225.1270 C   0  0  0  0  0  0  0  0  0  0  0  0
  138.8550   77.3900  222.1040 C   0  0  0  0  0  0  0  0  0  0  0  0
  139.9840   78.3870  222.2360 C   0  0  0  0  0  0  0  0  0  0  0  0
  141.6371   81.2536  224.8531 H   0  0  0  0  0  0  0  0  0  0  0  0
  140.4928   82.1109  223.7658 H   0  0  0  0  0  0  0  0  0  0  0  0
  140.5578   80.3158  223.7658 H   0  0  0  0  0  0  0  0  0  0  0  0
  141.9597   82.0740  222.0759 H   0  0  0  0  0  0  0  0  0  0  0  0
  143.1808   81.4653  223.2551 H   0  0  0  0  0  0  0  0  0  0  0  0
  142.9525   79.0902  218.6706 H   0  0  0  0  0  0  0  0  0  0  0  0
  143.4590   80.6178  216.7843 H   0  0  0  0  0  0  0  0  0  0  0  0
  142.6293   82.9605  216.7903 H   0  0  0  0  0  0  0  0  0  0  0  0
  141.2678   83.7671  218.7244 H   0  0  0  0  0  0  0  0  0  0  0  0
  140.7715   82.2383  220.6001 H   0  0  0  0  0  0  0  0  0  0  0  0
  139.6309   79.2274  220.3018 H   0  0  0  0  0  0  0  0  0  0  0  0
  140.0987   77.3991  219.2484 H   0  0  0  0  0  0  0  0  0  0  0  0
  141.8362   77.6164  219.7152 H   0  0  0  0  0  0  0  0  0  0  0  0
  140.9222   75.3729  220.3508 H   0  0  0  0  0  0  0  0  0  0  0  0
  141.4957   76.3449  221.7585 H   0  0  0  0  0  0  0  0  0  0  0  0
  140.1652   73.6784  220.8307 H   0  0  0  0  0  0  0  0  0  0  0  0
  137.2855   72.8145  220.4994 H   0  0  0  0  0  0  0  0  0  0  0  0
  137.9796   74.1063  219.4620 H   0  0  0  0  0  0  0  0  0  0  0  0
  138.7096   72.4650  219.4620 H   0  0  0  0  0  0  0  0  0  0  0  0
  138.4430   73.0350  223.0580 H   0  0  0  0  0  0  0  0  0  0  0  0
  140.9840   71.9736  222.0475 H   0  0  0  0  0  0  0  0  0  0  0  0
  140.7443   73.2001  223.3495 H   0  0  0  0  0  0  0  0  0  0  0  0
  139.1372   69.8285  222.5482 H   0  0  0  0  0  0  0  0  0  0  0  0
  138.9693   68.1189  224.3730 H   0  0  0  0  0  0  0  0  0  0  0  0
  139.4080   67.4558  226.6789 H   0  0  0  0  0  0  0  0  0  0  0  0
  141.4242   70.1271  229.3882 H   0  0  0  0  0  0  0  0  0  0  0  0
  141.5863   71.8179  227.5528 H   0  0  0  0  0  0  0  0  0  0  0  0
  141.1578   72.4549  225.3250 H   0  0  0  0  0  0  0  0  0  0  0  0
  138.0933   77.7725  221.4086 H   0  0  0  0  0  0  0  0  0  0  0  0
  138.3702   77.2170  223.0761 H   0  0  0  0  0  0  0  0  0  0  0  0
  139.6262   79.2888  222.7544 H   0  0  0  0  0  0  0  0  0  0  0  0
  140.8099   77.9523  222.8182 H   0  0  0  0  0  0  0  0  0  0  0  0
  1  2  1  0
  2  3  1  0
  3  4  2  0
  3  5  1  0
  5  6  1  0
  6  7  2  0
  7  8  1  0
  8  9  2  0
  9 10  1  0
 10 11  2  0
  5 12  1  0
 12 13  1  0
 13 14  1  0
 14 15  1  0
 15 16  1  0
 16 17  2  0
 16 18  1  0
 18 19  1  0
 18 20  1  0
 20 21  1  0
 21 22  1  0
 22 23  2  0
 23 24  1  0
 24 25  2  0
 25 26  1  0
 26 27  2  0
 27 28  1  0
 27 29  1  0
 29 30  2  0
 30 31  1  0
 31 32  2  0
 15 33  1  0
 33 34  1  0
 11  6  1  0
 34 12  1  0
 32 22  1  0
 31 25  1  0
  1 35  1  0
  1 36  1  0
  1 37  1  0
  2 38  1  0
  2 39  1  0
  7 40  1  0
  8 41  1  0
  9 42  1  0
 10 43  1  0
 11 44  1  0
 12 45  1  0
 13 46  1  0
 13 47  1  0
 14 48  1  0
 14 49  1  0
 18 50  1  6
 19 51  1  0
 19 52  1  0
 19 53  1  0
 20 54  1  0
 21 55  1  0
 21 56  1  0
 23 57  1  0
 24 58  1  0
 26 59  1  0
 29 60  1  0
 30 61  1  0
 32 62  1  0
 33 63  1  0
 33 64  1  0
 34 65  1  0
 34 66  1  0
M  END
>  <smiles>  (5) 
CCC(=O)N(c1ccccc1)C1CCN(C(=O)[C@H](C)NCc2ccc3cc(F)ccc3c2)CC1

>  <score_type>  (5) 
oracle

>  <origin>  (5) 
autodockgpu

>  <m_score__min__energy>  (5) 
-9.0899999999999999

>  <m_primary>  (5) 
energy

>  <rmsd>  (5) 
8.771698936878837

>  <m_score__min__rmsd>  (5) 
8.771698936878837

>  <meeko>  (5) 
{"free_energy": -8.46, "intermolecular_energy": -10.85, "internal_energy": -2.11, "cluster_size": 8, "cluster_id": 2, "rank_in_cluster": 7}

>  <energy>  (5) 
-8.77

>  <cluster_rmsd>  (5) 
1.93

>  <cluster>  (5) 
1

$$$$

     RDKit          3D

 66 69  0  0  0  0  0  0  0  0999 V2000
  142.9520   81.7890  217.4680 C   0  0  0  0  0  0  0  0  0  0  0  0
  142.7460   80.4150  218.0400 C   0  0  0  0  0  0  0  0  0  0  0  0
  141.5240   80.3900  218.9220 C   0  0  0  0  0  0  0  0  0  0  0  0
  140.5970   81.2150  218.7080 O   0  0  0  0  0  0  0  0  0  0  0  0
  141.4150   79.4510  219.9850 N   0  0  0  0  0  0  0  0  0  0  0  0
  141.7160   79.9240  221.2910 C   0  0  0  0  0  0  0  0  0  0  0  0
  142.1890   79.1180  222.3030 C   0  0  0  0  0  0  0  0  0  0  0  0
  142.4560   79.6550  223.5570 C   0  0  0  0  0  0  0  0  0  0  0  0
  142.2540   81.0000  223.8160 C   0  0  0  0  0  0  0  0  0  0  0  0
  141.7780   81.8140  222.7990 C   0  0  0  0  0  0  0  0  0  0  0  0
  141.5140   81.2720  221.5550 C   0  0  0  0  0  0  0  0  0  0  0  0
  141.0080   78.0900  219.7060 C   0  0  0  0  0  0  0  0  0  0  0  0
  142.0910   77.0740  219.8750 C   0  0  0  0  0  0  0  0  0  0  0  0
  141.7130   76.0160  220.9160 C   0  0  0  0  0  0  0  0  0  0  0  0
  140.4560   75.3930  220.5720 N   0  0  0  0  0  0  0  0  0  0  0  0
  140.1740   74.0150  220.6540 C   0  0  0  0  0  0  0  0  0  0  0  0
  139.0180   73.5630  220.3500 O   0  0  0  0  0  0  0  0  0  0  0  0
  141.1570   72.9820  221.0890 C   0  0  2  0  0  0  0  0  0  0  0  0
  141.9080   72.5030  219.8810 C   0  0  0  0  0  0  0  0  0  0  0  0
  140.4220   71.8780  221.6870 N   0  0  0  0  0  0  0  0  0  0  0  0
  139.6730   72.2490  222.8610 C   0  0  0  0  0  0  0  0  0  0  0  0
  139.7330   71.1550  223.8960 C   0  0  0  0  0  0  0  0  0  0  0  0
  139.2410   69.8930  223.6420 C   0  0  0  0  0  0  0  0  0  0  0  0
  139.3510   68.9700  224.6720 C   0  0  0  0  0  0  0  0  0  0  0  0
  139.9300   69.3160  225.8860 C   0  0  0  0  0  0  0  0  0  0  0  0
  140.0500   68.4120  226.9250 C   0  0  0  0  0  0  0  0  0  0  0  0
  140.6280   68.7700  228.1290 C   0  0  0  0  0  0  0  0  0  0  0  0
  140.7540   67.8970  229.1560 F   0  0  0  0  0  0  0  0  0  0  0  0
  141.1090   70.0500  228.3400 C   0  0  0  0  0  0  0  0  0  0  0  0
  140.9980   70.9680  227.3120 C   0  0  0  0  0  0  0  0  0  0  0  0
  140.4160   70.5880  226.1160 C   0  0  0  0  0  0  0  0  0  0  0  0
  140.3120   71.5100  225.1050 C   0  0  0  0  0  0  0  0  0  0  0  0
  139.4010   76.2870  220.0940 C   0  0  0  0  0  0  0  0  0  0  0  0
  139.7900   77.6910  220.5020 C   0  0  0  0  0  0  0  0  0  0  0  0
  143.0608   82.5148  218.2874 H   0  0  0  0  0  0  0  0  0  0  0  0
  143.8612   81.7959  216.8489 H   0  0  0  0  0  0  0  0  0  0  0  0
  142.0848   82.0623  216.8489 H   0  0  0  0  0  0  0  0  0  0  0  0
  142.6141   79.6963  217.2178 H   0  0  0  0  0  0  0  0  0  0  0  0
  143.6258   80.1439  218.6420 H   0  0  0  0  0  0  0  0  0  0  0  0
  142.3559   78.0465  222.1183 H   0  0  0  0  0  0  0  0  0  0  0  0
  142.8339   79.0008  224.3565 H   0  0  0  0  0  0  0  0  0  0  0  0
  142.4675   81.4160  224.8117 H   0  0  0  0  0  0  0  0  0  0  0  0
  141.6113   82.8859  222.9814 H   0  0  0  0  0  0  0  0  0  0  0  0
  141.1347   81.9246  220.7548 H   0  0  0  0  0  0  0  0  0  0  0  0
  140.7532   78.0953  218.6359 H   0  0  0  0  0  0  0  0  0  0  0  0
  142.2688   76.5776  218.9096 H   0  0  0  0  0  0  0  0  0  0  0  0
  142.9972   77.5913  220.2231 H   0  0  0  0  0  0  0  0  0  0  0  0
  142.4994   75.2477  220.9531 H   0  0  0  0  0  0  0  0  0  0  0  0
  141.6115   76.5031  221.8970 H   0  0  0  0  0  0  0  0  0  0  0  0
  141.8668   73.3935  221.8217 H   0  0  0  0  0  0  0  0  0  0  0  0
  142.7952   71.9371  220.2014 H   0  0  0  0  0  0  0  0  0  0  0  0
  141.2566   71.8532  219.2781 H   0  0  0  0  0  0  0  0  0  0  0  0
  142.2226   73.3676  219.2781 H   0  0  0  0  0  0  0  0  0  0  0  0
  139.7590   71.4580  221.0060 H   0  0  0  0  0  0  0  0  0  0  0  0
  140.0979   73.1710  223.2845 H   0  0  0  0  0  0  0  0  0  0  0  0
  138.6230   72.4101  222.5756 H   0  0  0  0  0  0  0  0  0  0  0  0
  138.7859   69.6317  222.6753 H   0  0  0  0  0  0  0  0  0  0  0  0
  138.9734   67.9474  224.5247 H   0  0  0  0  0  0  0  0  0  0  0  0
  139.6776   67.3857  226.7910 H   0  0  0  0  0  0  0  0  0  0  0  0
  141.5675   70.3299  229.2999 H   0  0  0  0  0  0  0  0  0  0  0  0
  141.3703   71.9946  227.4445 H   0  0  0  0  0  0  0  0  0  0  0  0
  140.6887   72.5327  225.2539 H   0  0  0  0  0  0  0  0  0  0  0  0
  139.3180   76.2214  218.9991 H   0  0  0  0  0  0  0  0  0  0  0  0
  138.4274   76.0095  220.5243 H   0  0  0  0  0  0  0  0  0  0  0  0
  138.9624   78.3838  220.2896 H   0  0  0  0  0  0  0  0  0  0  0  0
  140.0099   77.7277  221.5792 H   0  0  0  0  0  0  0  0  0  0  0  0
  1  2  1  0
  2  3  1  0
  3  4  2  0
  3  5  1  0
  5  6  1  0
  6  7  2  0
  7  8  1  0
  8  9  2  0
  9 10  1  0
 10 11  2  0
  5 12  1  0
 12 13  1  0
 13 14  1  0
 14 15  1  0
 15 16  1  0
 16 17  2  0
 16 18  1  0
 18 19  1  0
 18 20  1  0
 20 21  1  0
 21 22  1  0
 22 23  2  0
 23 24  1  0
 24 25  2  0
 25 26  1  0
 26 27  2  0
 27 28  1  0
 27 29  1  0
 29 30  2  0
 30 31  1  0
 31 32  2  0
 15 33  1  0
 33 34  1  0
 11  6  1  0
 34 12  1  0
 32 22  1  0
 31 25  1  0
  1 35  1  0
  1 36  1  0
  1 37  1  0
  2 38  1  0
  2 39  1  0
  7 40  1  0
  8 41  1  0
  9 42  1  0
 10 43  1  0
 11 44  1  0
 12 45  1  0
 13 46  1  0
 13 47  1  0
 14 48  1  0
 14 49  1  0
 18 50  1  1
 19 51  1  0
 19 52  1  0
 19 53  1  0
 20 54  1  0
 21 55  1  0
 21 56  1  0
 23 57  1  0
 24 58  1  0
 26 59  1  0
 29 60  1  0
 30 61  1  0
 32 62  1  0
 33 63  1  0
 33 64  1  0
 34 65  1  0
 34 66  1  0
M  END
>  <smiles>  (6) 
CCC(=O)N(c1ccccc1)C1CCN(C(=O)[C@H](C)NCc2ccc3cc(F)ccc3c2)CC1

>  <score_type>  (6) 
oracle

>  <origin>  (6) 
autodockgpu

>  <m_score__min__energy>  (6) 
-9.0899999999999999

>  <m_primary>  (6) 
energy

>  <rmsd>  (6) 
8.753449035379411

>  <m_score__min__rmsd>  (6) 
8.753449035379411

>  <meeko>  (6) 
{"free_energy": -8.42, "intermolecular_energy": -10.81, "internal_energy": -1.99, "cluster_size": 28, "cluster_id": 3, "rank_in_cluster": 22}

>  <energy>  (6) 
-8.75

>  <cluster_rmsd>  (6) 
0.5

>  <cluster>  (6) 
1

$$$$

     RDKit          3D

 66 69  0  0  0  0  0  0  0  0999 V2000
  142.4710   80.1180  218.5620 C   0  0  0  0  0  0  0  0  0  0  0  0
  141.9080   78.7280  218.4660 C   0  0  0  0  0  0  0  0  0  0  0  0
  141.9850   78.0360  219.8030 C   0  0  0  0  0  0  0  0  0  0  0  0
  142.8780   77.1700  219.9940 O   0  0  0  0  0  0  0  0  0  0  0  0
  141.0620   78.3530  220.8380 N   0  0  0  0  0  0  0  0  0  0  0  0
  141.4320   79.3950  221.7300 C   0  0  0  0  0  0  0  0  0  0  0  0
  141.0810   80.7150  221.5470 C   0  0  0  0  0  0  0  0  0  0  0  0
  141.4860   81.6790  222.4620 C   0  0  0  0  0  0  0  0  0  0  0  0
  142.2440   81.3390  223.5690 C   0  0  0  0  0  0  0  0  0  0  0  0
  142.5990   80.0110  223.7560 C   0  0  0  0  0  0  0  0  0  0  0  0
  142.1930   79.0590  222.8410 C   0  0  0  0  0  0  0  0  0  0  0  0
  139.8130   77.6270  220.9390 C   0  0  0  0  0  0  0  0  0  0  0  0
  139.8140   76.2980  220.2580 C   0  0  0  0  0  0  0  0  0  0  0  0
  139.5100   75.1610  221.2390 C   0  0  0  0  0  0  0  0  0  0  0  0
  138.2590   75.4020  221.9210 N   0  0  0  0  0  0  0  0  0  0  0  0
  137.2650   74.4370  222.1760 C   0  0  0  0  0  0  0  0  0  0  0  0
  136.2000   74.7450  222.8120 O   0  0  0  0  0  0  0  0  0  0  0  0
  137.3510   73.0120  221.7500 C   0  0  2  0  0  0  0  0  0  0  0  0
  136.3050   72.2310  222.4920 C   0  0  0  0  0  0  0  0  0  0  0  0
  138.6750   72.5130  222.0890 N   0  0  0  0  0  0  0  0  0  0  0  0
  138.7020   71.1040  222.3960 C   0  0  0  0  0  0  0  0  0  0  0  0
  139.3860   70.8620  223.7160 C   0  0  0  0  0  0  0  0  0  0  0  0
  140.2300   71.7990  224.2750 C   0  0  0  0  0  0  0  0  0  0  0  0
  140.8030   71.4640  225.4920 C   0  0  0  0  0  0  0  0  0  0  0  0
  140.5290   70.2460  226.1030 C   0  0  0  0  0  0  0  0  0  0  0  0
  141.0890   69.8930  227.3160 C   0  0  0  0  0  0  0  0  0  0  0  0
  140.8080   68.6770  227.9130 C   0  0  0  0  0  0  0  0  0  0  0  0
  141.3480   68.3160  229.1010 F   0  0  0  0  0  0  0  0  0  0  0  0
  139.9550   67.7660  227.3160 C   0  0  0  0  0  0  0  0  0  0  0  0
  139.3850   68.1040  226.1020 C   0  0  0  0  0  0  0  0  0  0  0  0
  139.6800   69.3250  225.5240 C   0  0  0  0  0  0  0  0  0  0  0  0
  139.1080   69.6450  224.3180 C   0  0  0  0  0  0  0  0  0  0  0  0
  138.0220   76.7750  222.3700 C   0  0  0  0  0  0  0  0  0  0  0  0
  139.3600   77.4790  222.3710 C   0  0  0  0  0  0  0  0  0  0  0  0
  142.5835   80.3957  219.6204 H   0  0  0  0  0  0  0  0  0  0  0  0
  143.4533   80.1507  218.0679 H   0  0  0  0  0  0  0  0  0  0  0  0
  141.7883   80.8250  218.0679 H   0  0  0  0  0  0  0  0  0  0  0  0
  140.8568   78.7840  218.1470 H   0  0  0  0  0  0  0  0  0  0  0  0
  142.4955   78.1550  217.7335 H   0  0  0  0  0  0  0  0  0  0  0  0
  140.4784   81.0063  220.6740 H   0  0  0  0  0  0  0  0  0  0  0  0
  141.1996   82.7293  222.3041 H   0  0  0  0  0  0  0  0  0  0  0  0
  142.5597   82.1089  224.2885 H   0  0  0  0  0  0  0  0  0  0  0  0
  143.2009   79.7175  224.6287 H   0  0  0  0  0  0  0  0  0  0  0  0
  142.4799   78.0086  222.9968 H   0  0  0  0  0  0  0  0  0  0  0  0
  139.0896   78.2524  220.3954 H   0  0  0  0  0  0  0  0  0  0  0  0
  139.0491   76.3014  219.4675 H   0  0  0  0  0  0  0  0  0  0  0  0
  140.8153   76.1289  219.8352 H   0  0  0  0  0  0  0  0  0  0  0  0
  139.4435   74.2130  220.6850 H   0  0  0  0  0  0  0  0  0  0  0  0
  140.3173   75.1088  221.9844 H   0  0  0  0  0  0  0  0  0  0  0  0
  137.1846   72.9122  220.6672 H   0  0  0  0  0  0  0  0  0  0  0  0
  136.4602   72.3469  223.5748 H   0  0  0  0  0  0  0  0  0  0  0  0
  135.3069   72.6067  222.2224 H   0  0  0  0  0  0  0  0  0  0  0  0
  136.3816   71.1673  222.2224 H   0  0  0  0  0  0  0  0  0  0  0  0
  139.3480   72.6830  221.3160 H   0  0  0  0  0  0  0  0  0  0  0  0
  137.6705   70.7257  222.4486 H   0  0  0  0  0  0  0  0  0  0  0  0
  139.2598   70.5796  221.6062 H   0  0  0  0  0  0  0  0  0  0  0  0
  140.4372   72.7601  223.7817 H   0  0  0  0  0  0  0  0  0  0  0  0
  141.4857   72.1737  225.9822 H   0  0  0  0  0  0  0  0  0  0  0  0
  141.7727   70.5937  227.8175 H   0  0  0  0  0  0  0  0  0  0  0  0
  139.7362   66.7996  227.7936 H   0  0  0  0  0  0  0  0  0  0  0  0
  138.7005   67.4051  225.5989 H   0  0  0  0  0  0  0  0  0  0  0  0
  138.4271   68.9335  223.8279 H   0  0  0  0  0  0  0  0  0  0  0  0
  137.3290   77.2825  221.6828 H   0  0  0  0  0  0  0  0  0  0  0  0
  137.5724   76.7868  223.3738 H   0  0  0  0  0  0  0  0  0  0  0  0
  139.2588   78.4714  222.8345 H   0  0  0  0  0  0  0  0  0  0  0  0
  140.0961   76.8975  222.9454 H   0  0  0  0  0  0  0  0  0  0  0  0
  1  2  1  0
  2  3  1  0
  3  4  2  0
  3  5  1  0
  5  6  1  0
  6  7  2  0
  7  8  1  0
  8  9  2  0
  9 10  1  0
 10 11  2  0
  5 12  1  0
 12 13  1  0
 13 14  1  0
 14 15  1  0
 15 16  1  0
 16 17  2  0
 16 18  1  0
 18 19  1  0
 18 20  1  0
 20 21  1  0
 21 22  1  0
 22 23  2  0
 23 24  1  0
 24 25  2  0
 25 26  1  0
 26 27  2  0
 27 28  1  0
 27 29  1  0
 29 30  2  0
 30 31  1  0
 31 32  2  0
 15 33  1  0
 33 34  1  0
 11  6  1  0
 34 12  1  0
 32 22  1  0
 31 25  1  0
  1 35  1  0
  1 36  1  0
  1 37  1  0
  2 38  1  0
  2 39  1  0
  7 40  1  0
  8 41  1  0
  9 42  1  0
 10 43  1  0
 11 44  1  0
 12 45  1  0
 13 46  1  0
 13 47  1  0
 14 48  1  0
 14 49  1  0
 18 50  1  6
 19 51  1  0
 19 52  1  0
 19 53  1  0
 20 54  1  0
 21 55  1  0
 21 56  1  0
 23 57  1  0
 24 58  1  0
 26 59  1  0
 29 60  1  0
 30 61  1  0
 32 62  1  0
 33 63  1  0
 33 64  1  0
 34 65  1  0
 34 66  1  0
M  END
>  <smiles>  (7) 
CCC(=O)N(c1ccccc1)C1CCN(C(=O)[C@H](C)NCc2ccc3cc(F)ccc3c2)CC1

>  <score_type>  (7) 
oracle

>  <origin>  (7) 
autodockgpu

>  <m_score__min__energy>  (7) 
-9.0899999999999999

>  <m_primary>  (7) 
energy

>  <rmsd>  (7) 
8.142661820912522

>  <m_score__min__rmsd>  (7) 
8.142661820912522

>  <meeko>  (7) 
{"free_energy": -8.34, "intermolecular_energy": -10.73, "internal_energy": -1.68, "cluster_size": 28, "cluster_id": 3, "rank_in_cluster": 24}

>  <energy>  (7) 
-8.69

>  <cluster_rmsd>  (7) 
1.06

>  <cluster>  (7) 
1

$$$$

     RDKit          3D

 66 69  0  0  0  0  0  0  0  0999 V2000
  142.5560   81.2570  224.1870 C   0  0  0  0  0  0  0  0  0  0  0  0
  142.4060   79.9450  223.4690 C   0  0  0  0  0  0  0  0  0  0  0  0
  141.5130   80.1040  222.2650 C   0  0  0  0  0  0  0  0  0  0  0  0
  141.9610   80.6890  221.2440 O   0  0  0  0  0  0  0  0  0  0  0  0
  140.1820   79.6030  222.2770 N   0  0  0  0  0  0  0  0  0  0  0  0
  139.2110   80.3810  222.9630 C   0  0  0  0  0  0  0  0  0  0  0  0
  138.8120   80.1340  224.2580 C   0  0  0  0  0  0  0  0  0  0  0  0
  137.8520   80.9400  224.8600 C   0  0  0  0  0  0  0  0  0  0  0  0
  137.2790   81.9990  224.1770 C   0  0  0  0  0  0  0  0  0  0  0  0
  137.6780   82.2500  222.8720 C   0  0  0  0  0  0  0  0  0  0  0  0
  138.6330   81.4440  222.2820 C   0  0  0  0  0  0  0  0  0  0  0  0
  139.8740   78.3580  221.6060 C   0  0  0  0  0  0  0  0  0  0  0  0
  141.0620   77.4990  221.3200 C   0  0  0  0  0  0  0  0  0  0  0  0
  140.9360   76.1240  221.9840 C   0  0  0  0  0  0  0  0  0  0  0  0
  139.7090   75.4770  221.5800 N   0  0  0  0  0  0  0  0  0  0  0  0
  139.5760   74.1190  221.2290 C   0  0  0  0  0  0  0  0  0  0  0  0
  138.4370   73.6340  220.9080 O   0  0  0  0  0  0  0  0  0  0  0  0
  140.7040   73.1460  221.1980 C   0  0  2  0  0  0  0  0  0  0  0  0
  140.4390   72.1480  220.1080 C   0  0  0  0  0  0  0  0  0  0  0  0
  140.7580   72.4700  222.4850 N   0  0  0  0  0  0  0  0  0  0  0  0
  139.4740   72.0120  222.9530 C   0  0  0  0  0  0  0  0  0  0  0  0
  139.6420   70.9250  223.9840 C   0  0  0  0  0  0  0  0  0  0  0  0
  139.2310   69.6320  223.7440 C   0  0  0  0  0  0  0  0  0  0  0  0
  139.4370   68.7190  224.7670 C   0  0  0  0  0  0  0  0  0  0  0  0
  140.0290   69.1050  225.9630 C   0  0  0  0  0  0  0  0  0  0  0  0
  140.2430   68.2120  226.9960 C   0  0  0  0  0  0  0  0  0  0  0  0
  140.8340   68.6100  228.1820 C   0  0  0  0  0  0  0  0  0  0  0  0
  141.0510   67.7470  229.2030 F   0  0  0  0  0  0  0  0  0  0  0  0
  141.2320   69.9200  228.3800 C   0  0  0  0  0  0  0  0  0  0  0  0
  141.0250   70.8270  227.3570 C   0  0  0  0  0  0  0  0  0  0  0  0
  140.4330   70.4070  226.1800 C   0  0  0  0  0  0  0  0  0  0  0  0
  140.2330   71.3200  225.1740 C   0  0  0  0  0  0  0  0  0  0  0  0
  138.5170   76.3240  221.5330 C   0  0  0  0  0  0  0  0  0  0  0  0
  138.8210   77.5650  222.3410 C   0  0  0  0  0  0  0  0  0  0  0  0
  142.5363   81.0849  225.2733 H   0  0  0  0  0  0  0  0  0  0  0  0
  143.5131   81.7211  223.9066 H   0  0  0  0  0  0  0  0  0  0  0  0
  141.7284   81.9252  223.9066 H   0  0  0  0  0  0  0  0  0  0  0  0
  143.3964   79.5954  223.1420 H   0  0  0  0  0  0  0  0  0  0  0  0
  141.9540   79.2128  224.1543 H   0  0  0  0  0  0  0  0  0  0  0  0
  139.2541   79.2966  224.8177 H   0  0  0  0  0  0  0  0  0  0  0  0
  137.5431   80.7328  225.8952 H   0  0  0  0  0  0  0  0  0  0  0  0
  136.5199   82.6311  224.6609 H   0  0  0  0  0  0  0  0  0  0  0  0
  137.2364   83.0862  222.3100 H   0  0  0  0  0  0  0  0  0  0  0  0
  138.9430   81.6498  221.2468 H   0  0  0  0  0  0  0  0  0  0  0  0
  139.4744   78.6674  220.6290 H   0  0  0  0  0  0  0  0  0  0  0  0
  141.1510   77.3634  220.2320 H   0  0  0  0  0  0  0  0  0  0  0  0
  141.9537   77.9978  221.7276 H   0  0  0  0  0  0  0  0  0  0  0  0
  141.7902   75.4984  221.6857 H   0  0  0  0  0  0  0  0  0  0  0  0
  140.9254   76.2561  223.0760 H   0  0  0  0  0  0  0  0  0  0  0  0
  141.6605   73.6543  221.0064 H   0  0  0  0  0  0  0  0  0  0  0  0
  140.1811   71.1766  220.5551 H   0  0  0  0  0  0  0  0  0  0  0  0
  139.6028   72.4986  219.4852 H   0  0  0  0  0  0  0  0  0  0  0  0
  141.3390   72.0376  219.4852 H   0  0  0  0  0  0  0  0  0  0  0  0
  141.3950   71.6500  222.4510 H   0  0  0  0  0  0  0  0  0  0  0  0
  138.9310   72.8562  223.4029 H   0  0  0  0  0  0  0  0  0  0  0  0
  138.9092   71.6076  222.1001 H   0  0  0  0  0  0  0  0  0  0  0  0
  138.7644   69.3397  222.7917 H   0  0  0  0  0  0  0  0  0  0  0  0
  139.1268   67.6727  224.6294 H   0  0  0  0  0  0  0  0  0  0  0  0
  139.9370   67.1627  226.8726 H   0  0  0  0  0  0  0  0  0  0  0  0
  141.7003   70.2316  229.3253 H   0  0  0  0  0  0  0  0  0  0  0  0
  141.3296   71.8769  227.4788 H   0  0  0  0  0  0  0  0  0  0  0  0
  140.5423   72.3665  225.3127 H   0  0  0  0  0  0  0  0  0  0  0  0
  138.2895   76.5978  220.4922 H   0  0  0  0  0  0  0  0  0  0  0  0
  137.6442   75.7944  221.9425 H   0  0  0  0  0  0  0  0  0  0  0  0
  137.9090   78.1699  222.4523 H   0  0  0  0  0  0  0  0  0  0  0  0
  139.1827   77.2882  223.3423 H   0  0  0  0  0  0  0  0  0  0  0  0
  1  2  1  0
  2  3  1  0
  3  4  2  0
  3  5  1  0
  5  6  1  0
  6  7  2  0
  7  8  1  0
  8  9  2  0
  9 10  1  0
 10 11  2  0
  5 12  1  0
 12 13  1  0
 13 14  1  0
 14 15  1  0
 15 16  1  0
 16 17  2  0
 16 18  1  0
 18 19  1  0
 18 20  1  0
 20 21  1  0
 21 22  1  0
 22 23  2  0
 23 24  1  0
 24 25  2  0
 25 26  1  0
 26 27  2  0
 27 28  1  0
 27 29  1  0
 29 30  2  0
 30 31  1  0
 31 32  2  0
 15 33  1  0
 33 34  1  0
 11  6  1  0
 34 12  1  0
 32 22  1  0
 31 25  1  0
  1 35  1  0
  1 36  1  0
  1 37  1  0
  2 38  1  0
  2 39  1  0
  7 40  1  0
  8 41  1  0
  9 42  1  0
 10 43  1  0
 11 44  1  0
 12 45  1  0
 13 46  1  0
 13 47  1  0
 14 48  1  0
 14 49  1  0
 18 50  1  6
 19 51  1  0
 19 52  1  0
 19 53  1  0
 20 54  1  0
 21 55  1  0
 21 56  1  0
 23 57  1  0
 24 58  1  0
 26 59  1  0
 29 60  1  0
 30 61  1  0
 32 62  1  0
 33 63  1  0
 33 64  1  0
 34 65  1  0
 34 66  1  0
M  END
>  <smiles>  (8) 
CCC(=O)N(c1ccccc1)C1CCN(C(=O)[C@H](C)NCc2ccc3cc(F)ccc3c2)CC1

>  <score_type>  (8) 
oracle

>  <origin>  (8) 
autodockgpu

>  <m_score__min__energy>  (8) 
-9.0899999999999999

>  <m_primary>  (8) 
energy

>  <rmsd>  (8) 
8.962151855465114

>  <m_score__min__rmsd>  (8) 
8.962151855465114

>  <meeko>  (8) 
{"free_energy": -8.75, "intermolecular_energy": -11.14, "internal_energy": -1.61, "cluster_size": 9, "cluster_id": 1, "rank_in_cluster": 6}

>  <energy>  (8) 
-8.68

>  <cluster_rmsd>  (8) 
1.36

>  <cluster>  (8) 
1

$$$$

     RDKit          3D

 66 69  0  0  0  0  0  0  0  0999 V2000
  137.4360   81.6530  225.4270 C   0  0  0  0  0  0  0  0  0  0  0  0
  137.0540   80.5450  224.4860 C   0  0  0  0  0  0  0  0  0  0  0  0
  137.7520   80.7160  223.1610 C   0  0  0  0  0  0  0  0  0  0  0  0
  137.4670   81.7100  222.4430 O   0  0  0  0  0  0  0  0  0  0  0  0
  138.7200   79.7700  222.7230 N   0  0  0  0  0  0  0  0  0  0  0  0
  140.0720   80.0260  223.0780 C   0  0  0  0  0  0  0  0  0  0  0  0
  140.8430   79.1570  223.8200 C   0  0  0  0  0  0  0  0  0  0  0  0
  142.1590   79.4810  224.1300 C   0  0  0  0  0  0  0  0  0  0  0  0
  142.7200   80.6730  223.7050 C   0  0  0  0  0  0  0  0  0  0  0  0
  141.9460   81.5490  222.9580 C   0  0  0  0  0  0  0  0  0  0  0  0
  140.6390   81.2200  222.6550 C   0  0  0  0  0  0  0  0  0  0  0  0
  138.3040   78.6120  221.9600 C   0  0  0  0  0  0  0  0  0  0  0  0
  139.4160   77.6910  221.5790 C   0  0  0  0  0  0  0  0  0  0  0  0
  139.1930   76.2790  222.1320 C   0  0  0  0  0  0  0  0  0  0  0  0
  137.9140   75.7640  221.7050 N   0  0  0  0  0  0  0  0  0  0  0  0
  137.6680   74.4540  221.2480 C   0  0  0  0  0  0  0  0  0  0  0  0
  136.4900   74.0860  220.9160 O   0  0  0  0  0  0  0  0  0  0  0  0
  138.7150   73.4030  221.1130 C   0  0  2  0  0  0  0  0  0  0  0  0
  138.3890   72.5600  219.9140 C   0  0  0  0  0  0  0  0  0  0  0  0
  138.6970   72.5830  222.3150 N   0  0  0  0  0  0  0  0  0  0  0  0
  140.0090   72.2960  222.8390 C   0  0  0  0  0  0  0  0  0  0  0  0
  139.9390   71.1950  223.8670 C   0  0  0  0  0  0  0  0  0  0  0  0
  139.3440   69.9830  223.5880 C   0  0  0  0  0  0  0  0  0  0  0  0
  139.3400   69.0490  224.6120 C   0  0  0  0  0  0  0  0  0  0  0  0
  139.9090   69.3350  225.8470 C   0  0  0  0  0  0  0  0  0  0  0  0
  139.9150   68.4180  226.8810 C   0  0  0  0  0  0  0  0  0  0  0  0
  140.4850   68.7170  228.1060 C   0  0  0  0  0  0  0  0  0  0  0  0
  140.5000   67.8300  229.1290 F   0  0  0  0  0  0  0  0  0  0  0  0
  141.0720   69.9480  228.3420 C   0  0  0  0  0  0  0  0  0  0  0  0
  141.0750   70.8770  227.3180 C   0  0  0  0  0  0  0  0  0  0  0  0
  140.4990   70.5570  226.1020 C   0  0  0  0  0  0  0  0  0  0  0  0
  140.5090   71.4900  225.0950 C   0  0  0  0  0  0  0  0  0  0  0  0
  136.7910   76.7010  221.7540 C   0  0  0  0  0  0  0  0  0  0  0  0
  137.2050   77.8450  222.6530 C   0  0  0  0  0  0  0  0  0  0  0  0
  137.3176   81.3095  226.4652 H   0  0  0  0  0  0  0  0  0  0  0  0
  138.4841   81.9375  225.2522 H   0  0  0  0  0  0  0  0  0  0  0  0
  136.7859   82.5230  225.2522 H   0  0  0  0  0  0  0  0  0  0  0  0
  137.3439   79.5796  224.9263 H   0  0  0  0  0  0  0  0  0  0  0  0
  135.9666   80.5750  224.3226 H   0  0  0  0  0  0  0  0  0  0  0  0
  140.4160   78.2048  224.1677 H   0  0  0  0  0  0  0  0  0  0  0  0
  142.7641   78.7789  224.7225 H   0  0  0  0  0  0  0  0  0  0  0  0
  143.7619   80.9214  223.9554 H   0  0  0  0  0  0  0  0  0  0  0  0
  142.3711   82.5014  222.6085 H   0  0  0  0  0  0  0  0  0  0  0  0
  140.0326   81.9219  222.0637 H   0  0  0  0  0  0  0  0  0  0  0  0
  137.9139   79.0301  221.0203 H   0  0  0  0  0  0  0  0  0  0  0  0
  139.4768   77.6393  220.4819 H   0  0  0  0  0  0  0  0  0  0  0  0
  140.3504   78.0843  222.0059 H   0  0  0  0  0  0  0  0  0  0  0  0
  139.9907   75.6165  221.7649 H   0  0  0  0  0  0  0  0  0  0  0  0
  139.2101   76.3210  223.2311 H   0  0  0  0  0  0  0  0  0  0  0  0
  139.7115   73.8513  220.9868 H   0  0  0  0  0  0  0  0  0  0  0  0
  138.0107   71.5817  220.2455 H   0  0  0  0  0  0  0  0  0  0  0  0
  137.6211   73.0643  219.3091 H   0  0  0  0  0  0  0  0  0  0  0  0
  139.2964   72.4164  219.3091 H   0  0  0  0  0  0  0  0  0  0  0  0
  138.1460   73.0380  223.0690 H   0  0  0  0  0  0  0  0  0  0  0  0
  140.6665   71.9807  222.0154 H   0  0  0  0  0  0  0  0  0  0  0  0
  140.4071   73.2034  223.3167 H   0  0  0  0  0  0  0  0  0  0  0  0
  138.8968   69.7689  222.6061 H   0  0  0  0  0  0  0  0  0  0  0  0
  138.8786   68.0647  224.4442 H   0  0  0  0  0  0  0  0  0  0  0  0
  139.4571   67.4298  226.7270 H   0  0  0  0  0  0  0  0  0  0  0  0
  141.5238   70.1809  229.3175 H   0  0  0  0  0  0  0  0  0  0  0  0
  141.5331   71.8655  227.4697 H   0  0  0  0  0  0  0  0  0  0  0  0
  140.9706   72.4741  225.2634 H   0  0  0  0  0  0  0  0  0  0  0  0
  136.5683   77.0762  220.7442 H   0  0  0  0  0  0  0  0  0  0  0  0
  135.8863   76.2080  222.1393 H   0  0  0  0  0  0  0  0  0  0  0  0
  136.3453   78.5069  222.8339 H   0  0  0  0  0  0  0  0  0  0  0  0
  137.5605   77.4601  223.6202 H   0  0  0  0  0  0  0  0  0  0  0  0
  1  2  1  0
  2  3  1  0
  3  4  2  0
  3  5  1  0
  5  6  1  0
  6  7  2  0
  7  8  1  0
  8  9  2  0
  9 10  1  0
 10 11  2  0
  5 12  1  0
 12 13  1  0
 13 14  1  0
 14 15  1  0
 15 16  1  0
 16 17  2  0
 16 18  1  0
 18 19  1  0
 18 20  1  0
 20 21  1  0
 21 22  1  0
 22 23  2  0
 23 24  1  0
 24 25  2  0
 25 26  1  0
 26 27  2  0
 27 28  1  0
 27 29  1  0
 29 30  2  0
 30 31  1  0
 31 32  2  0
 15 33  1  0
 33 34  1  0
 11  6  1  0
 34 12  1  0
 32 22  1  0
 31 25  1  0
  1 35  1  0
  1 36  1  0
  1 37  1  0
  2 38  1  0
  2 39  1  0
  7 40  1  0
  8 41  1  0
  9 42  1  0
 10 43  1  0
 11 44  1  0
 12 45  1  0
 13 46  1  0
 13 47  1  0
 14 48  1  0
 14 49  1  0
 18 50  1  6
 19 51  1  0
 19 52  1  0
 19 53  1  0
 20 54  1  0
 21 55  1  0
 21 56  1  0
 23 57  1  0
 24 58  1  0
 26 59  1  0
 29 60  1  0
 30 61  1  0
 32 62  1  0
 33 63  1  0
 33 64  1  0
 34 65  1  0
 34 66  1  0
M  END
>  <smiles>  (9) 
CCC(=O)N(c1ccccc1)C1CCN(C(=O)[C@H](C)NCc2ccc3cc(F)ccc3c2)CC1

>  <score_type>  (9) 
oracle

>  <origin>  (9) 
autodockgpu

>  <m_score__min__energy>  (9) 
-9.0899999999999999

>  <m_primary>  (9) 
energy

>  <rmsd>  (9) 
8.90861456019818

>  <m_score__min__rmsd>  (9) 
8.90861456019818

>  <meeko>  (9) 
{"free_energy": -8.85, "intermolecular_energy": -11.24, "internal_energy": -1.56, "cluster_size": 2, "cluster_id": 4, "rank_in_cluster": 1}

>  <energy>  (9) 
-8.52

>  <cluster_rmsd>  (9) 
1.19

>  <cluster>  (9) 
1

$$$$

     RDKit          3D

 66 69  0  0  0  0  0  0  0  0999 V2000
  142.7200   81.3680  217.6530 C   0  0  0  0  0  0  0  0  0  0  0  0
  142.5600   79.9360  218.0790 C   0  0  0  0  0  0  0  0  0  0  0  0
  141.4480   79.8090  219.0890 C   0  0  0  0  0  0  0  0  0  0  0  0
  140.4830   80.6170  219.0420 O   0  0  0  0  0  0  0  0  0  0  0  0
  141.4830   78.7920  220.0830 N   0  0  0  0  0  0  0  0  0  0  0  0
  141.6930   79.2140  221.4240 C   0  0  0  0  0  0  0  0  0  0  0  0
  141.2640   78.5030  222.5230 C   0  0  0  0  0  0  0  0  0  0  0  0
  141.5050   78.9850  223.8040 C   0  0  0  0  0  0  0  0  0  0  0  0
  142.1760   80.1790  224.0040 C   0  0  0  0  0  0  0  0  0  0  0  0
  142.6090   80.8970  222.8990 C   0  0  0  0  0  0  0  0  0  0  0  0
  142.3650   80.4120  221.6290 C   0  0  0  0  0  0  0  0  0  0  0  0
  141.3010   77.4070  219.7050 C   0  0  0  0  0  0  0  0  0  0  0  0
  142.1820   76.4460  220.4360 C   0  0  0  0  0  0  0  0  0  0  0  0
  141.3630   75.4030  221.2030 C   0  0  0  0  0  0  0  0  0  0  0  0
  140.4590   74.7140  220.3120 N   0  0  0  0  0  0  0  0  0  0  0  0
  140.2070   73.3280  220.3100 C   0  0  0  0  0  0  0  0  0  0  0  0
  139.3660   72.8150  219.4950 O   0  0  0  0  0  0  0  0  0  0  0  0
  140.8690   72.3540  221.2230 C   0  0  2  0  0  0  0  0  0  0  0  0
  142.1580   71.9130  220.5940 C   0  0  0  0  0  0  0  0  0  0  0  0
  139.9830   71.2120  221.3910 N   0  0  0  0  0  0  0  0  0  0  0  0
  139.0120   71.3820  222.4430 C   0  0  0  0  0  0  0  0  0  0  0  0
  139.6140   71.0330  223.7800 C   0  0  0  0  0  0  0  0  0  0  0  0
  140.4610   71.8980  224.4390 C   0  0  0  0  0  0  0  0  0  0  0  0
  140.9530   71.4680  225.6610 C   0  0  0  0  0  0  0  0  0  0  0  0
  140.6010   70.2280  226.1800 C   0  0  0  0  0  0  0  0  0  0  0  0
  141.0800   69.7800  227.3970 C   0  0  0  0  0  0  0  0  0  0  0  0
  140.7200   68.5430  227.9020 C   0  0  0  0  0  0  0  0  0  0  0  0
  141.1800   68.0900  229.0910 F   0  0  0  0  0  0  0  0  0  0  0  0
  139.8660   67.7060  227.2060 C   0  0  0  0  0  0  0  0  0  0  0  0
  139.3760   68.1390  225.9870 C   0  0  0  0  0  0  0  0  0  0  0  0
  139.7490   69.3790  225.5020 C   0  0  0  0  0  0  0  0  0  0  0  0
  139.2560   69.7940  224.2900 C   0  0  0  0  0  0  0  0  0  0  0  0
  139.7580   75.5460  219.3320 C   0  0  0  0  0  0  0  0  0  0  0  0
  139.8590   76.9760  219.8110 C   0  0  0  0  0  0  0  0  0  0  0  0
  142.7917   82.0096  218.5436 H   0  0  0  0  0  0  0  0  0  0  0  0
  143.6353   81.4716  217.0518 H   0  0  0  0  0  0  0  0  0  0  0  0
  141.8501   81.6711  217.0518 H   0  0  0  0  0  0  0  0  0  0  0  0
  142.3222   79.3205  217.1989 H   0  0  0  0  0  0  0  0  0  0  0  0
  143.4993   79.5932  218.5376 H   0  0  0  0  0  0  0  0  0  0  0  0
  140.7294   77.5514  222.3864 H   0  0  0  0  0  0  0  0  0  0  0  0
  141.1567   78.4081  224.6734 H   0  0  0  0  0  0  0  0  0  0  0  0
  142.3627   80.5521  225.0218 H   0  0  0  0  0  0  0  0  0  0  0  0
  143.1443   81.8485  223.0336 H   0  0  0  0  0  0  0  0  0  0  0  0
  142.7114   80.9887  220.7587 H   0  0  0  0  0  0  0  0  0  0  0  0
  141.6103   77.3704  218.6500 H   0  0  0  0  0  0  0  0  0  0  0  0
  142.8274   75.9299  219.7100 H   0  0  0  0  0  0  0  0  0  0  0  0
  142.7833   77.0134  221.1616 H   0  0  0  0  0  0  0  0  0  0  0  0
  142.0458   74.6726  221.6617 H   0  0  0  0  0  0  0  0  0  0  0  0
  140.7757   75.9136  221.9804 H   0  0  0  0  0  0  0  0  0  0  0  0
  141.0766   72.8085  222.2030 H   0  0  0  0  0  0  0  0  0  0  0  0
  142.8843   71.6645  221.3819 H   0  0  0  0  0  0  0  0  0  0  0  0
  141.9766   71.0258  219.9695 H   0  0  0  0  0  0  0  0  0  0  0  0
  142.5580   72.7254  219.9695 H   0  0  0  0  0  0  0  0  0  0  0  0
  139.4670   71.0070  220.5130 H   0  0  0  0  0  0  0  0  0  0  0  0
  138.6763   72.4294  222.4597 H   0  0  0  0  0  0  0  0  0  0  0  0
  138.1600   70.7131  222.2515 H   0  0  0  0  0  0  0  0  0  0  0  0
  140.7319   72.8772  224.0174 H   0  0  0  0  0  0  0  0  0  0  0  0
  141.6334   72.1190  226.2295 H   0  0  0  0  0  0  0  0  0  0  0  0
  141.7616   70.4203  227.9761 H   0  0  0  0  0  0  0  0  0  0  0  0
  139.5843   66.7228  227.6110 H   0  0  0  0  0  0  0  0  0  0  0  0
  138.6936   67.5005  225.4068 H   0  0  0  0  0  0  0  0  0  0  0  0
  138.5756   69.1425  223.7221 H   0  0  0  0  0  0  0  0  0  0  0  0
  140.2306   75.4446  218.3439 H   0  0  0  0  0  0  0  0  0  0  0  0
  138.7063   75.2379  219.2372 H   0  0  0  0  0  0  0  0  0  0  0  0
  139.2294   77.6243  219.1839 H   0  0  0  0  0  0  0  0  0  0  0  0
  139.5145   77.0534  220.8528 H   0  0  0  0  0  0  0  0  0  0  0  0
  1  2  1  0
  2  3  1  0
  3  4  2  0
  3  5  1  0
  5  6  1  0
  6  7  2  0
  7  8  1  0
  8  9  2  0
  9 10  1  0
 10 11  2  0
  5 12  1  0
 12 13  1  0
 13 14  1  0
 14 15  1  0
 15 16  1  0
 16 17  2  0
 16 18  1  0
 18 19  1  0
 18 20  1  0
 20 21  1  0
 21 22  1  0
 22 23  2  0
 23 24  1  0
 24 25  2  0
 25 26  1  0
 26 27  2  0
 27 28  1  0
 27 29  1  0
 29 30  2  0
 30 31  1  0
 31 32  2  0
 15 33  1  0
 33 34  1  0
 11  6  1  0
 34 12  1  0
 32 22  1  0
 31 25  1  0
  1 35  1  0
  1 36  1  0
  1 37  1  0
  2 38  1  0
  2 39  1  0
  7 40  1  0
  8 41  1  0
  9 42  1  0
 10 43  1  0
 11 44  1  0
 12 45  1  0
 13 46  1  0
 13 47  1  0
 14 48  1  0
 14 49  1  0
 18 50  1  1
 19 51  1  0
 19 52  1  0
 19 53  1  0
 20 54  1  0
 21 55  1  0
 21 56  1  0
 23 57  1  0
 24 58  1  0
 26 59  1  0
 29 60  1  0
 30 61  1  0
 32 62  1  0
 33 63  1  0
 33 64  1  0
 34 65  1  0
 34 66  1  0
M  END
>  <smiles>  (10) 
CCC(=O)N(c1ccccc1)C1CCN(C(=O)[C@H](C)NCc2ccc3cc(F)ccc3c2)CC1

>  <score_type>  (10) 
oracle

>  <origin>  (10) 
autodockgpu

>  <m_score__min__energy>  (10) 
-9.0899999999999999

>  <m_primary>  (10) 
energy

>  <rmsd>  (10) 
8.117234726698332

>  <m_score__min__rmsd>  (10) 
8.117234726698332

>  <meeko>  (10) 
{"free_energy": -8.16, "intermolecular_energy": -10.55, "internal_energy": -2.27, "cluster_size": 28, "cluster_id": 3, "rank_in_cluster": 27}

>  <energy>  (10) 
-9.07

>  <cluster_rmsd>  (10) 
0.0

>  <cluster>  (10) 
2

$$$$

     RDKit          3D

 66 69  0  0  0  0  0  0  0  0999 V2000
  142.4560   78.1400  217.5880 C   0  0  0  0  0  0  0  0  0  0  0  0
  141.9740   78.9530  218.7570 C   0  0  0  0  0  0  0  0  0  0  0  0
  141.8880   78.0960  219.9940 C   0  0  0  0  0  0  0  0  0  0  0  0
  142.6250   77.0800  220.0870 O   0  0  0  0  0  0  0  0  0  0  0  0
  140.9860   78.4260  221.0440 N   0  0  0  0  0  0  0  0  0  0  0  0
  141.3780   79.4760  221.9180 C   0  0  0  0  0  0  0  0  0  0  0  0
  141.0120   80.7920  221.7390 C   0  0  0  0  0  0  0  0  0  0  0  0
  141.4390   81.7630  222.6370 C   0  0  0  0  0  0  0  0  0  0  0  0
  142.2340   81.4340  223.7210 C   0  0  0  0  0  0  0  0  0  0  0  0
  142.6040   80.1100  223.9030 C   0  0  0  0  0  0  0  0  0  0  0  0
  142.1760   79.1500  223.0060 C   0  0  0  0  0  0  0  0  0  0  0  0
  139.7370   77.7060  221.1750 C   0  0  0  0  0  0  0  0  0  0  0  0
  139.6490   76.4640  220.3500 C   0  0  0  0  0  0  0  0  0  0  0  0
  139.4120   75.2250  221.2190 C   0  0  0  0  0  0  0  0  0  0  0  0
  138.2330   75.3980  222.0360 N   0  0  0  0  0  0  0  0  0  0  0  0
  137.2470   74.4200  222.2700 C   0  0  0  0  0  0  0  0  0  0  0  0
  136.2490   74.6630  223.0320 O   0  0  0  0  0  0  0  0  0  0  0  0
  137.2640   73.0520  221.6780 C   0  0  2  0  0  0  0  0  0  0  0  0
  135.8920   72.7450  221.1520 C   0  0  0  0  0  0  0  0  0  0  0  0
  137.6170   72.1070  222.7260 N   0  0  0  0  0  0  0  0  0  0  0  0
  138.8750   71.4380  222.5020 C   0  0  0  0  0  0  0  0  0  0  0  0
  139.5170   71.0650  223.8140 C   0  0  0  0  0  0  0  0  0  0  0  0
  140.4180   71.9000  224.4400 C   0  0  0  0  0  0  0  0  0  0  0  0
  140.9430   71.4480  225.6420 C   0  0  0  0  0  0  0  0  0  0  0  0
  140.5700   70.2200  226.1710 C   0  0  0  0  0  0  0  0  0  0  0  0
  141.0810   69.7520  227.3670 C   0  0  0  0  0  0  0  0  0  0  0  0
  140.7000   68.5260  227.8830 C   0  0  0  0  0  0  0  0  0  0  0  0
  141.1920   68.0530  229.0530 F   0  0  0  0  0  0  0  0  0  0  0  0
  139.7920   67.7200  227.2200 C   0  0  0  0  0  0  0  0  0  0  0  0
  139.2700   68.1730  226.0220 C   0  0  0  0  0  0  0  0  0  0  0  0
  139.6650   69.4020  225.5250 C   0  0  0  0  0  0  0  0  0  0  0  0
  139.1380   69.8370  224.3340 C   0  0  0  0  0  0  0  0  0  0  0  0
  138.0660   76.7120  222.6590 C   0  0  0  0  0  0  0  0  0  0  0  0
  139.4120   77.3990  222.6160 C   0  0  0  0  0  0  0  0  0  0  0  0
  142.9848   77.2480  217.9549 H   0  0  0  0  0  0  0  0  0  0  0  0
  141.5953   77.8305  216.9768 H   0  0  0  0  0  0  0  0  0  0  0  0
  143.1405   78.7466  216.9768 H   0  0  0  0  0  0  0  0  0  0  0  0
  142.6764   79.7801  218.9373 H   0  0  0  0  0  0  0  0  0  0  0  0
  140.9739   79.3493  218.5275 H   0  0  0  0  0  0  0  0  0  0  0  0
  140.3806   81.0748  220.8838 H   0  0  0  0  0  0  0  0  0  0  0  0
  141.1401   82.8104  222.4836 H   0  0  0  0  0  0  0  0  0  0  0  0
  142.5668   82.2097  224.4264 H   0  0  0  0  0  0  0  0  0  0  0  0
  143.2354   79.8253  224.7576 H   0  0  0  0  0  0  0  0  0  0  0  0
  142.4748   78.1023  223.1578 H   0  0  0  0  0  0  0  0  0  0  0  0
  138.9808   78.3968  220.7738 H   0  0  0  0  0  0  0  0  0  0  0  0
  138.8158   76.5660  219.6391 H   0  0  0  0  0  0  0  0  0  0  0  0
  140.6042   76.3348  219.8201 H   0  0  0  0  0  0  0  0  0  0  0  0
  139.2767   74.3477  220.5694 H   0  0  0  0  0  0  0  0  0  0  0  0
  140.2821   75.0796  221.8762 H   0  0  0  0  0  0  0  0  0  0  0  0
  137.9939   72.9841  220.8578 H   0  0  0  0  0  0  0  0  0  0  0  0
  135.2022   72.5907  221.9948 H   0  0  0  0  0  0  0  0  0  0  0  0
  135.5381   73.5862  220.5378 H   0  0  0  0  0  0  0  0  0  0  0  0
  135.9303   71.8332  220.5378 H   0  0  0  0  0  0  0  0  0  0  0  0
  137.6660   72.5750  223.6510 H   0  0  0  0  0  0  0  0  0  0  0  0
  138.6998   70.5258  221.9127 H   0  0  0  0  0  0  0  0  0  0  0  0
  139.5472   72.1181  221.9583 H   0  0  0  0  0  0  0  0  0  0  0  0
  140.7048   72.8711  224.0101 H   0  0  0  0  0  0  0  0  0  0  0  0
  141.6670   72.0732  226.1850 H   0  0  0  0  0  0  0  0  0  0  0  0
  141.8058   70.3672  227.9203 H   0  0  0  0  0  0  0  0  0  0  0  0
  139.4934   66.7457  227.6342 H   0  0  0  0  0  0  0  0  0  0  0  0
  138.5448   67.5594  225.4675 H   0  0  0  0  0  0  0  0  0  0  0  0
  138.4144   69.2105  223.7919 H   0  0  0  0  0  0  0  0  0  0  0  0
  137.3233   77.3020  222.1019 H   0  0  0  0  0  0  0  0  0  0  0  0
  137.7108   76.6116  223.6952 H   0  0  0  0  0  0  0  0  0  0  0  0
  139.3725   78.3327  223.1962 H   0  0  0  0  0  0  0  0  0  0  0  0
  140.1854   76.7485  223.0503 H   0  0  0  0  0  0  0  0  0  0  0  0
  1  2  1  0
  2  3  1  0
  3  4  2  0
  3  5  1  0
  5  6  1  0
  6  7  2  0
  7  8  1  0
  8  9  2  0
  9 10  1  0
 10 11  2  0
  5 12  1  0
 12 13  1  0
 13 14  1  0
 14 15  1  0
 15 16  1  0
 16 17  2  0
 16 18  1  0
 18 19  1  0
 18 20  1  0
 20 21  1  0
 21 22  1  0
 22 23  2  0
 23 24  1  0
 24 25  2  0
 25 26  1  0
 26 27  2  0
 27 28  1  0
 27 29  1  0
 29 30  2  0
 30 31  1  0
 31 32  2  0
 15 33  1  0
 33 34  1  0
 11  6  1  0
 34 12  1  0
 32 22  1  0
 31 25  1  0
  1 35  1  0
  1 36  1  0
  1 37  1  0
  2 38  1  0
  2 39  1  0
  7 40  1  0
  8 41  1  0
  9 42  1  0
 10 43  1  0
 11 44  1  0
 12 45  1  0
 13 46  1  0
 13 47  1  0
 14 48  1  0
 14 49  1  0
 18 50  1  6
 19 51  1  0
 19 52  1  0
 19 53  1  0
 20 54  1  0
 21 55  1  0
 21 56  1  0
 23 57  1  0
 24 58  1  0
 26 59  1  0
 29 60  1  0
 30 61  1  0
 32 62  1  0
 33 63  1  0
 33 64  1  0
 34 65  1  0
 34 66  1  0
M  END
>  <smiles>  (11) 
CCC(=O)N(c1ccccc1)C1CCN(C(=O)[C@H](C)NCc2ccc3cc(F)ccc3c2)CC1

>  <score_type>  (11) 
oracle

>  <origin>  (11) 
autodockgpu

>  <m_score__min__energy>  (11) 
-9.0899999999999999

>  <m_primary>  (11) 
energy

>  <rmsd>  (11) 
8.259832521093452

>  <m_score__min__rmsd>  (11) 
8.259832521093452

>  <meeko>  (11) 
{"free_energy": -8.84, "intermolecular_energy": -11.23, "internal_energy": -1.88, "cluster_size": 28, "cluster_id": 3, "rank_in_cluster": 7}

>  <energy>  (11) 
-8.83

>  <cluster_rmsd>  (11) 
1.06

>  <cluster>  (11) 
2

$$$$

     RDKit          3D

 66 69  0  0  0  0  0  0  0  0999 V2000
  142.0990   79.2190  217.5550 C   0  0  0  0  0  0  0  0  0  0  0  0
  142.5200   80.2920  218.5200 C   0  0  0  0  0  0  0  0  0  0  0  0
  141.3760   80.6570  219.4320 C   0  0  0  0  0  0  0  0  0  0  0  0
  140.6410   81.6330  219.1310 O   0  0  0  0  0  0  0  0  0  0  0  0
  141.1270   79.9110  220.6170 N   0  0  0  0  0  0  0  0  0  0  0  0
  141.6810   80.4220  221.8230 C   0  0  0  0  0  0  0  0  0  0  0  0
  141.2310   81.5670  222.4420 C   0  0  0  0  0  0  0  0  0  0  0  0
  141.8270   82.0050  223.6190 C   0  0  0  0  0  0  0  0  0  0  0  0
  142.8770   81.3070  224.1910 C   0  0  0  0  0  0  0  0  0  0  0  0
  143.3310   80.1530  223.5690 C   0  0  0  0  0  0  0  0  0  0  0  0
  142.7340   79.7250  222.3990 C   0  0  0  0  0  0  0  0  0  0  0  0
  140.3380   78.6990  220.5560 C   0  0  0  0  0  0  0  0  0  0  0  0
  141.1290   77.4590  220.2980 C   0  0  0  0  0  0  0  0  0  0  0  0
  140.9580   76.4370  221.4270 C   0  0  0  0  0  0  0  0  0  0  0  0
  139.5600   76.1370  221.6300 N   0  0  0  0  0  0  0  0  0  0  0  0
  139.0200   74.8540  221.8490 C   0  0  0  0  0  0  0  0  0  0  0  0
  137.7660   74.6940  222.0440 O   0  0  0  0  0  0  0  0  0  0  0  0
  139.8230   73.5990  221.8760 C   0  0  2  0  0  0  0  0  0  0  0  0
  140.4170   73.3860  220.5140 C   0  0  0  0  0  0  0  0  0  0  0  0
  138.9340   72.4960  222.2070 N   0  0  0  0  0  0  0  0  0  0  0  0
  139.6080   71.2270  222.3270 C   0  0  0  0  0  0  0  0  0  0  0  0
  139.9600   70.9490  223.7660 C   0  0  0  0  0  0  0  0  0  0  0  0
  140.6320   71.8740  224.5370 C   0  0  0  0  0  0  0  0  0  0  0  0
  140.9020   71.5060  225.8460 C   0  0  0  0  0  0  0  0  0  0  0  0
  140.5090   70.2680  226.3380 C   0  0  0  0  0  0  0  0  0  0  0  0
  140.7680   69.8810  227.6400 C   0  0  0  0  0  0  0  0  0  0  0  0
  140.3710   68.6450  228.1170 C   0  0  0  0  0  0  0  0  0  0  0  0
  140.6170   68.2510  229.3890 F   0  0  0  0  0  0  0  0  0  0  0  0
  139.6990   67.7460  227.3080 C   0  0  0  0  0  0  0  0  0  0  0  0
  139.4310   68.1170  226.0020 C   0  0  0  0  0  0  0  0  0  0  0  0
  139.8370   69.3580  225.5470 C   0  0  0  0  0  0  0  0  0  0  0  0
  139.5650   69.7110  224.2480 C   0  0  0  0  0  0  0  0  0  0  0  0
  138.6420   77.2760  221.5960 C   0  0  0  0  0  0  0  0  0  0  0  0
  139.4760   78.5240  221.7820 C   0  0  0  0  0  0  0  0  0  0  0  0
  141.7531   78.3375  218.1148 H   0  0  0  0  0  0  0  0  0  0  0  0
  141.2818   79.5952  216.9220 H   0  0  0  0  0  0  0  0  0  0  0  0
  142.9540   78.9391  216.9220 H   0  0  0  0  0  0  0  0  0  0  0  0
  143.3627   79.9255  219.1245 H   0  0  0  0  0  0  0  0  0  0  0  0
  142.8222   81.1842  217.9520 H   0  0  0  0  0  0  0  0  0  0  0  0
  140.3979   82.1363  222.0040 H   0  0  0  0  0  0  0  0  0  0  0  0
  141.4584   82.9210  224.1038 H   0  0  0  0  0  0  0  0  0  0  0  0
  143.3431   81.6612  225.1223 H   0  0  0  0  0  0  0  0  0  0  0  0
  144.1630   79.5811  224.0057 H   0  0  0  0  0  0  0  0  0  0  0  0
  143.1020   78.8098  221.9122 H   0  0  0  0  0  0  0  0  0  0  0  0
  139.6899   78.8394  219.6783 H   0  0  0  0  0  0  0  0  0  0  0  0
  140.7890   77.0084  219.3538 H   0  0  0  0  0  0  0  0  0  0  0  0
  142.1924   77.7344  220.2407 H   0  0  0  0  0  0  0  0  0  0  0  0
  141.4919   75.5124  221.1623 H   0  0  0  0  0  0  0  0  0  0  0  0
  141.3696   76.8600  222.3553 H   0  0  0  0  0  0  0  0  0  0  0  0
  140.6291   73.6609  222.6219 H   0  0  0  0  0  0  0  0  0  0  0  0
  141.4479   73.0164  220.6173 H   0  0  0  0  0  0  0  0  0  0  0  0
  139.8161   72.6473  219.9633 H   0  0  0  0  0  0  0  0  0  0  0  0
  140.4224   74.3382  219.9633 H   0  0  0  0  0  0  0  0  0  0  0  0
  138.4320   72.6740  223.0980 H   0  0  0  0  0  0  0  0  0  0  0  0
  138.9472   70.4298  221.9557 H   0  0  0  0  0  0  0  0  0  0  0  0
  140.5342   71.2592  221.7345 H   0  0  0  0  0  0  0  0  0  0  0  0
  140.9374   72.8513  224.1350 H   0  0  0  0  0  0  0  0  0  0  0  0
  141.4361   72.2057  226.5056 H   0  0  0  0  0  0  0  0  0  0  0  0
  141.3012   70.5709  228.3107 H   0  0  0  0  0  0  0  0  0  0  0  0
  139.3865   66.7638  227.6922 H   0  0  0  0  0  0  0  0  0  0  0  0
  138.8980   67.4286  225.3297 H   0  0  0  0  0  0  0  0  0  0  0  0
  139.0325   69.0097  223.5887 H   0  0  0  0  0  0  0  0  0  0  0  0
  138.1202   77.3115  220.6283 H   0  0  0  0  0  0  0  0  0  0  0  0
  137.8824   77.1908  222.3870 H   0  0  0  0  0  0  0  0  0  0  0  0
  138.8183   79.3973  221.9030 H   0  0  0  0  0  0  0  0  0  0  0  0
  140.1048   78.4318  222.6799 H   0  0  0  0  0  0  0  0  0  0  0  0
  1  2  1  0
  2  3  1  0
  3  4  2  0
  3  5  1  0
  5  6  1  0
  6  7  2  0
  7  8  1  0
  8  9  2  0
  9 10  1  0
 10 11  2  0
  5 12  1  0
 12 13  1  0
 13 14  1  0
 14 15  1  0
 15 16  1  0
 16 17  2  0
 16 18  1  0
 18 19  1  0
 18 20  1  0
 20 21  1  0
 21 22  1  0
 22 23  2  0
 23 24  1  0
 24 25  2  0
 25 26  1  0
 26 27  2  0
 27 28  1  0
 27 29  1  0
 29 30  2  0
 30 31  1  0
 31 32  2  0
 15 33  1  0
 33 34  1  0
 11  6  1  0
 34 12  1  0
 32 22  1  0
 31 25  1  0
  1 35  1  0
  1 36  1  0
  1 37  1  0
  2 38  1  0
  2 39  1  0
  7 40  1  0
  8 41  1  0
  9 42  1  0
 10 43  1  0
 11 44  1  0
 12 45  1  0
 13 46  1  0
 13 47  1  0
 14 48  1  0
 14 49  1  0
 18 50  1  1
 19 51  1  0
 19 52  1  0
 19 53  1  0
 20 54  1  0
 21 55  1  0
 21 56  1  0
 23 57  1  0
 24 58  1  0
 26 59  1  0
 29 60  1  0
 30 61  1  0
 32 62  1  0
 33 63  1  0
 33 64  1  0
 34 65  1  0
 34 66  1  0
M  END
>  <smiles>  (12) 
CCC(=O)N(c1ccccc1)C1CCN(C(=O)[C@H](C)NCc2ccc3cc(F)ccc3c2)CC1

>  <score_type>  (12) 
oracle

>  <origin>  (12) 
autodockgpu

>  <m_score__min__energy>  (12) 
-9.0899999999999999

>  <m_primary>  (12) 
energy

>  <rmsd>  (12) 
8.235223143221804

>  <m_score__min__rmsd>  (12) 
8.235223143221804

>  <meeko>  (12) 
{"free_energy": -8.76, "intermolecular_energy": -11.15, "internal_energy": -2.05, "cluster_size": 28, "cluster_id": 3, "rank_in_cluster": 10}

>  <energy>  (12) 
-8.82

>  <cluster_rmsd>  (12) 
1.04

>  <cluster>  (12) 
2

$$$$

     RDKit          3D

 66 69  0  0  0  0  0  0  0  0999 V2000
  142.5710   78.4380  217.8880 C   0  0  0  0  0  0  0  0  0  0  0  0
  142.2660   79.7690  218.5150 C   0  0  0  0  0  0  0  0  0  0  0  0
  141.0730   79.6590  219.4290 C   0  0  0  0  0  0  0  0  0  0  0  0
  140.0850   80.4160  219.2400 O   0  0  0  0  0  0  0  0  0  0  0  0
  141.0580   78.7140  220.4930 N   0  0  0  0  0  0  0  0  0  0  0  0
  141.5200   79.1670  221.7580 C   0  0  0  0  0  0  0  0  0  0  0  0
  141.3190   78.4780  222.9340 C   0  0  0  0  0  0  0  0  0  0  0  0
  141.7990   78.9890  224.1340 C   0  0  0  0  0  0  0  0  0  0  0  0
  142.4830   80.1910  224.1760 C   0  0  0  0  0  0  0  0  0  0  0  0
  142.6870   80.8870  222.9930 C   0  0  0  0  0  0  0  0  0  0  0  0
  142.2070   80.3720  221.8050 C   0  0  0  0  0  0  0  0  0  0  0  0
  140.5820   77.3680  220.2560 C   0  0  0  0  0  0  0  0  0  0  0  0
  141.5530   76.2940  220.6250 C   0  0  0  0  0  0  0  0  0  0  0  0
  140.9700   75.3460  221.6790 C   0  0  0  0  0  0  0  0  0  0  0  0
  139.7190   74.7890  221.2210 N   0  0  0  0  0  0  0  0  0  0  0  0
  139.3210   73.4440  221.3580 C   0  0  0  0  0  0  0  0  0  0  0  0
  138.1780   73.0530  220.9410 O   0  0  0  0  0  0  0  0  0  0  0  0
  140.1590   72.3810  221.9810 C   0  0  2  0  0  0  0  0  0  0  0  0
  141.3930   72.2000  221.1450 C   0  0  0  0  0  0  0  0  0  0  0  0
  139.3890   71.1470  222.0010 N   0  0  0  0  0  0  0  0  0  0  0  0
  138.4350   71.0790  223.0790 C   0  0  0  0  0  0  0  0  0  0  0  0
  138.9170   70.1390  224.1550 C   0  0  0  0  0  0  0  0  0  0  0  0
  138.6980   68.7800  224.0790 C   0  0  0  0  0  0  0  0  0  0  0  0
  139.1880   68.0180  225.1280 C   0  0  0  0  0  0  0  0  0  0  0  0
  139.8600   68.6070  226.1910 C   0  0  0  0  0  0  0  0  0  0  0  0
  140.3560   67.8650  227.2470 C   0  0  0  0  0  0  0  0  0  0  0  0
  141.0240   68.4660  228.2990 C   0  0  0  0  0  0  0  0  0  0  0  0
  141.5160   67.7530  229.3400 F   0  0  0  0  0  0  0  0  0  0  0  0
  141.2210   69.8350  228.3340 C   0  0  0  0  0  0  0  0  0  0  0  0
  140.7320   70.5930  227.2860 C   0  0  0  0  0  0  0  0  0  0  0  0
  140.0670   69.9710  226.2450 C   0  0  0  0  0  0  0  0  0  0  0  0
  139.5870   70.7370  225.2110 C   0  0  0  0  0  0  0  0  0  0  0  0
  138.8020   75.7170  220.5570 C   0  0  0  0  0  0  0  0  0  0  0  0
  139.2490   77.1160  220.9160 C   0  0  0  0  0  0  0  0  0  0  0  0
  142.7421   77.6914  218.6775 H   0  0  0  0  0  0  0  0  0  0  0  0
  141.7216   78.1235  217.2638 H   0  0  0  0  0  0  0  0  0  0  0  0
  143.4726   78.5247  217.2638 H   0  0  0  0  0  0  0  0  0  0  0  0
  143.1379   80.1041  219.0960 H   0  0  0  0  0  0  0  0  0  0  0  0
  142.0399   80.4943  217.7195 H   0  0  0  0  0  0  0  0  0  0  0  0
  140.7771   77.5208  222.9231 H   0  0  0  0  0  0  0  0  0  0  0  0
  141.6324   78.4286  225.0658 H   0  0  0  0  0  0  0  0  0  0  0  0
  142.8586   80.5880  225.1306 H   0  0  0  0  0  0  0  0  0  0  0  0
  143.2285   81.8444  223.0015 H   0  0  0  0  0  0  0  0  0  0  0  0
  142.3734   80.9310  220.8723 H   0  0  0  0  0  0  0  0  0  0  0  0
  140.4595   77.3111  219.1643 H   0  0  0  0  0  0  0  0  0  0  0  0
  141.8048   75.7152  219.7241 H   0  0  0  0  0  0  0  0  0  0  0  0
  142.4495   76.7705  221.0483 H   0  0  0  0  0  0  0  0  0  0  0  0
  141.6831   74.5295  221.8656 H   0  0  0  0  0  0  0  0  0  0  0  0
  140.7900   75.9112  222.6054 H   0  0  0  0  0  0  0  0  0  0  0  0
  140.4471   72.6537  223.0070 H   0  0  0  0  0  0  0  0  0  0  0  0
  142.2657   72.0720  221.8023 H   0  0  0  0  0  0  0  0  0  0  0  0
  141.2784   71.3091  220.5101 H   0  0  0  0  0  0  0  0  0  0  0  0
  141.5390   73.0863  220.5101 H   0  0  0  0  0  0  0  0  0  0  0  0
  138.8710   71.0140  221.1100 H   0  0  0  0  0  0  0  0  0  0  0  0
  138.3026   72.0830  223.5086 H   0  0  0  0  0  0  0  0  0  0  0  0
  137.4789   70.7055  222.6837 H   0  0  0  0  0  0  0  0  0  0  0  0
  138.1635   68.3252  223.2320 H   0  0  0  0  0  0  0  0  0  0  0  0
  139.0420   66.9278  225.1183 H   0  0  0  0  0  0  0  0  0  0  0  0
  140.2166   66.7739  227.2508 H   0  0  0  0  0  0  0  0  0  0  0  0
  141.7524   70.3078  229.1731 H   0  0  0  0  0  0  0  0  0  0  0  0
  140.8711   71.6842  227.2803 H   0  0  0  0  0  0  0  0  0  0  0  0
  139.7345   71.8270  225.2208 H   0  0  0  0  0  0  0  0  0  0  0  0
  138.8451   75.5751  219.4671 H   0  0  0  0  0  0  0  0  0  0  0  0
  137.7653   75.5419  220.8804 H   0  0  0  0  0  0  0  0  0  0  0  0
  138.5105   77.8471  220.5552 H   0  0  0  0  0  0  0  0  0  0  0  0
  139.3397   77.2179  222.0075 H   0  0  0  0  0  0  0  0  0  0  0  0
  1  2  1  0
  2  3  1  0
  3  4  2  0
  3  5  1  0
  5  6  1  0
  6  7  2  0
  7  8  1  0
  8  9  2  0
  9 10  1  0
 10 11  2  0
  5 12  1  0
 12 13  1  0
 13 14  1  0
 14 15  1  0
 15 16  1  0
 16 17  2  0
 16 18  1  0
 18 19  1  0
 18 20  1  0
 20 21  1  0
 21 22  1  0
 22 23  2  0
 23 24  1  0
 24 25  2  0
 25 26  1  0
 26 27  2  0
 27 28  1  0
 27 29  1  0
 29 30  2  0
 30 31  1  0
 31 32  2  0
 15 33  1  0
 33 34  1  0
 11  6  1  0
 34 12  1  0
 32 22  1  0
 31 25  1  0
  1 35  1  0
  1 36  1  0
  1 37  1  0
  2 38  1  0
  2 39  1  0
  7 40  1  0
  8 41  1  0
  9 42  1  0
 10 43  1  0
 11 44  1  0
 12 45  1  0
 13 46  1  0
 13 47  1  0
 14 48  1  0
 14 49  1  0
 18 50  1  1
 19 51  1  0
 19 52  1  0
 19 53  1  0
 20 54  1  0
 21 55  1  0
 21 56  1  0
 23 57  1  0
 24 58  1  0
 26 59  1  0
 29 60  1  0
 30 61  1  0
 32 62  1  0
 33 63  1  0
 33 64  1  0
 34 65  1  0
 34 66  1  0
M  END
>  <smiles>  (13) 
CCC(=O)N(c1ccccc1)C1CCN(C(=O)[C@H](C)NCc2ccc3cc(F)ccc3c2)CC1

>  <score_type>  (13) 
oracle

>  <origin>  (13) 
autodockgpu

>  <m_score__min__energy>  (13) 
-9.0899999999999999

>  <m_primary>  (13) 
energy

>  <rmsd>  (13) 
9.385118192344022

>  <m_score__min__rmsd>  (13) 
9.385118192344022

>  <meeko>  (13) 
{"free_energy": -8.58, "intermolecular_energy": -10.97, "internal_energy": -2.19, "cluster_size": 28, "cluster_id": 3, "rank_in_cluster": 17}

>  <energy>  (13) 
-8.69

>  <cluster_rmsd>  (13) 
0.98

>  <cluster>  (13) 
2

$$$$

     RDKit          3D

 66 69  0  0  0  0  0  0  0  0999 V2000
  143.2130   80.1410  223.0920 C   0  0  0  0  0  0  0  0  0  0  0  0
  142.4030   81.2690  223.6670 C   0  0  0  0  0  0  0  0  0  0  0  0
  140.9510   81.1160  223.2940 C   0  0  0  0  0  0  0  0  0  0  0  0
  140.0740   81.2260  224.1910 O   0  0  0  0  0  0  0  0  0  0  0  0
  140.5700   80.8500  221.9490 N   0  0  0  0  0  0  0  0  0  0  0  0
  140.7590   81.8990  221.0100 C   0  0  0  0  0  0  0  0  0  0  0  0
  141.3670   81.7260  219.7860 C   0  0  0  0  0  0  0  0  0  0  0  0
  141.5190   82.8050  218.9230 C   0  0  0  0  0  0  0  0  0  0  0  0
  141.0680   84.0660  219.2700 C   0  0  0  0  0  0  0  0  0  0  0  0
  140.4550   84.2440  220.5020 C   0  0  0  0  0  0  0  0  0  0  0  0
  140.3090   83.1660  221.3540 C   0  0  0  0  0  0  0  0  0  0  0  0
  140.0260   79.5560  221.5960 C   0  0  0  0  0  0  0  0  0  0  0  0
  141.0490   78.5410  221.2030 C   0  0  0  0  0  0  0  0  0  0  0  0
  140.9970   77.3070  222.1110 C   0  0  0  0  0  0  0  0  0  0  0  0
  139.6690   76.7400  222.1170 N   0  0  0  0  0  0  0  0  0  0  0  0
  139.3640   75.3660  222.0510 C   0  0  0  0  0  0  0  0  0  0  0  0
  138.1520   74.9600  222.0890 O   0  0  0  0  0  0  0  0  0  0  0  0
  140.3840   74.2850  221.9360 C   0  0  2  0  0  0  0  0  0  0  0  0
  140.9050   74.2730  220.5280 C   0  0  0  0  0  0  0  0  0  0  0  0
  139.7390   73.0160  222.2370 N   0  0  0  0  0  0  0  0  0  0  0  0
  140.6620   71.9190  222.3860 C   0  0  0  0  0  0  0  0  0  0  0  0
  140.2990   71.0810  223.5850 C   0  0  0  0  0  0  0  0  0  0  0  0
  139.5910   69.9050  223.4570 C   0  0  0  0  0  0  0  0  0  0  0  0
  139.3150   69.2210  224.6310 C   0  0  0  0  0  0  0  0  0  0  0  0
  139.7380   69.7080  225.8610 C   0  0  0  0  0  0  0  0  0  0  0  0
  139.4730   69.0410  227.0430 C   0  0  0  0  0  0  0  0  0  0  0  0
  139.9010   69.5370  228.2610 C   0  0  0  0  0  0  0  0  0  0  0  0
  139.6500   68.8970  229.4280 F   0  0  0  0  0  0  0  0  0  0  0  0
  140.6100   70.7230  228.3440 C   0  0  0  0  0  0  0  0  0  0  0  0
  140.8840   71.4030  227.1710 C   0  0  0  0  0  0  0  0  0  0  0  0
  140.4470   70.8880  225.9640 C   0  0  0  0  0  0  0  0  0  0  0  0
  140.7250   71.5750  224.8080 C   0  0  0  0  0  0  0  0  0  0  0  0
  138.5600   77.6910  222.1940 C   0  0  0  0  0  0  0  0  0  0  0  0
  139.1330   79.0030  222.6800 C   0  0  0  0  0  0  0  0  0  0  0  0
  143.6420   79.5436  223.9099 H   0  0  0  0  0  0  0  0  0  0  0  0
  142.5654   79.5031  222.4726 H   0  0  0  0  0  0  0  0  0  0  0  0
  144.0244   80.5508  222.4726 H   0  0  0  0  0  0  0  0  0  0  0  0
  142.4985   81.2620  224.7628 H   0  0  0  0  0  0  0  0  0  0  0  0
  142.7775   82.2204  223.2612 H   0  0  0  0  0  0  0  0  0  0  0  0
  141.7331   80.7316  219.4909 H   0  0  0  0  0  0  0  0  0  0  0  0
  142.0058   82.6538  217.9483 H   0  0  0  0  0  0  0  0  0  0  0  0
  141.1933   84.9138  218.5804 H   0  0  0  0  0  0  0  0  0  0  0  0
  140.0874   85.2374  220.7987 H   0  0  0  0  0  0  0  0  0  0  0  0
  139.8238   83.3159  222.3298 H   0  0  0  0  0  0  0  0  0  0  0  0
  139.4228   79.7513  220.6971 H   0  0  0  0  0  0  0  0  0  0  0  0
  140.8617   78.2287  220.1650 H   0  0  0  0  0  0  0  0  0  0  0  0
  142.0441   78.9992  221.3017 H   0  0  0  0  0  0  0  0  0  0  0  0
  141.7100   76.5553  221.7416 H   0  0  0  0  0  0  0  0  0  0  0  0
  141.2604   77.6076  223.1358 H   0  0  0  0  0  0  0  0  0  0  0  0
  141.2176   74.4506  222.6343 H   0  0  0  0  0  0  0  0  0  0  0  0
  142.0046   74.2477  220.5441 H   0  0  0  0  0  0  0  0  0  0  0  0
  140.5254   73.3834  220.0041 H   0  0  0  0  0  0  0  0  0  0  0  0
  140.5667   75.1792  220.0041 H   0  0  0  0  0  0  0  0  0  0  0  0
  139.1770   73.0790  223.1080 H   0  0  0  0  0  0  0  0  0  0  0  0
  140.6276   71.2921  221.4828 H   0  0  0  0  0  0  0  0  0  0  0  0
  141.6747   72.3239  222.5292 H   0  0  0  0  0  0  0  0  0  0  0  0
  139.2628   69.5297  222.4765 H   0  0  0  0  0  0  0  0  0  0  0  0
  138.7518   68.2771  224.5875 H   0  0  0  0  0  0  0  0  0  0  0  0
  138.9101   68.0964  227.0139 H   0  0  0  0  0  0  0  0  0  0  0  0
  140.9462   71.1138  229.3157 H   0  0  0  0  0  0  0  0  0  0  0  0
  141.4463   72.3480  227.1980 H   0  0  0  0  0  0  0  0  0  0  0  0
  141.2871   72.5195  224.8526 H   0  0  0  0  0  0  0  0  0  0  0  0
  138.1058   77.8224  221.2008 H   0  0  0  0  0  0  0  0  0  0  0  0
  137.7789   77.3274  222.8779 H   0  0  0  0  0  0  0  0  0  0  0  0
  138.3176   79.7113  222.8886 H   0  0  0  0  0  0  0  0  0  0  0  0
  139.7081   78.8480  223.6048 H   0  0  0  0  0  0  0  0  0  0  0  0
  1  2  1  0
  2  3  1  0
  3  4  2  0
  3  5  1  0
  5  6  1  0
  6  7  2  0
  7  8  1  0
  8  9  2  0
  9 10  1  0
 10 11  2  0
  5 12  1  0
 12 13  1  0
 13 14  1  0
 14 15  1  0
 15 16  1  0
 16 17  2  0
 16 18  1  0
 18 19  1  0
 18 20  1  0
 20 21  1  0
 21 22  1  0
 22 23  2  0
 23 24  1  0
 24 25  2  0
 25 26  1  0
 26 27  2  0
 27 28  1  0
 27 29  1  0
 29 30  2  0
 30 31  1  0
 31 32  2  0
 15 33  1  0
 33 34  1  0
 11  6  1  0
 34 12  1  0
 32 22  1  0
 31 25  1  0
  1 35  1  0
  1 36  1  0
  1 37  1  0
  2 38  1  0
  2 39  1  0
  7 40  1  0
  8 41  1  0
  9 42  1  0
 10 43  1  0
 11 44  1  0
 12 45  1  0
 13 46  1  0
 13 47  1  0
 14 48  1  0
 14 49  1  0
 18 50  1  1
 19 51  1  0
 19 52  1  0
 19 53  1  0
 20 54  1  0
 21 55  1  0
 21 56  1  0
 23 57  1  0
 24 58  1  0
 26 59  1  0
 29 60  1  0
 30 61  1  0
 32 62  1  0
 33 63  1  0
 33 64  1  0
 34 65  1  0
 34 66  1  0
M  END
>  <smiles>  (14) 
CCC(=O)N(c1ccccc1)C1CCN(C(=O)[C@H](C)NCc2ccc3cc(F)ccc3c2)CC1

>  <score_type>  (14) 
oracle

>  <origin>  (14) 
autodockgpu

>  <m_score__min__energy>  (14) 
-9.0899999999999999

>  <m_primary>  (14) 
energy

>  <rmsd>  (14) 
8.841819323257102

>  <m_score__min__rmsd>  (14) 
8.841819323257102

>  <meeko>  (14) 
{"free_energy": -8.83, "intermolecular_energy": -11.22, "internal_energy": -1.99, "cluster_size": 8, "cluster_id": 2, "rank_in_cluster": 2}

>  <energy>  (14) 
-8.68

>  <cluster_rmsd>  (14) 
0.87

>  <cluster>  (14) 
2

$$$$

     RDKit          3D

 66 69  0  0  0  0  0  0  0  0999 V2000
  142.8990   80.5590  223.6460 C   0  0  0  0  0  0  0  0  0  0  0  0
  141.8370   79.5090  223.8160 C   0  0  0  0  0  0  0  0  0  0  0  0
  140.6430   79.8230  222.9530 C   0  0  0  0  0  0  0  0  0  0  0  0
  139.6330   80.3630  223.4770 O   0  0  0  0  0  0  0  0  0  0  0  0
  140.6500   79.5160  221.5640 N   0  0  0  0  0  0  0  0  0  0  0  0
  141.0110   80.5660  220.6770 C   0  0  0  0  0  0  0  0  0  0  0  0
  140.6900   81.8890  220.8920 C   0  0  0  0  0  0  0  0  0  0  0  0
  141.0760   82.8590  219.9750 C   0  0  0  0  0  0  0  0  0  0  0  0
  141.7850   82.5230  218.8350 C   0  0  0  0  0  0  0  0  0  0  0  0
  142.1090   81.1920  218.6160 C   0  0  0  0  0  0  0  0  0  0  0  0
  141.7210   80.2330  219.5320 C   0  0  0  0  0  0  0  0  0  0  0  0
  140.3060   78.1820  221.1180 C   0  0  0  0  0  0  0  0  0  0  0  0
  141.3570   77.1530  221.3790 C   0  0  0  0  0  0  0  0  0  0  0  0
  140.8260   76.0170  222.2600 C   0  0  0  0  0  0  0  0  0  0  0  0
  139.6470   75.4280  221.6700 N   0  0  0  0  0  0  0  0  0  0  0  0
  139.3690   74.0480  221.5980 C   0  0  0  0  0  0  0  0  0  0  0  0
  138.2810   73.6250  221.0770 O   0  0  0  0  0  0  0  0  0  0  0  0
  140.2780   72.9810  222.1040 C   0  0  2  0  0  0  0  0  0  0  0  0
  141.4850   72.9240  221.2130 C   0  0  0  0  0  0  0  0  0  0  0  0
  139.5650   71.7140  222.0550 N   0  0  0  0  0  0  0  0  0  0  0  0
  138.5570   71.5780  223.0760 C   0  0  0  0  0  0  0  0  0  0  0  0
  138.9890   70.5770  224.1170 C   0  0  0  0  0  0  0  0  0  0  0  0
  138.7470   69.2280  223.9660 C   0  0  0  0  0  0  0  0  0  0  0  0
  139.1900   68.4040  224.9900 C   0  0  0  0  0  0  0  0  0  0  0  0
  139.8410   68.9270  226.1000 C   0  0  0  0  0  0  0  0  0  0  0  0
  140.2910   68.1230  227.1310 C   0  0  0  0  0  0  0  0  0  0  0  0
  140.9380   68.6580  228.2310 C   0  0  0  0  0  0  0  0  0  0  0  0
  141.3850   67.8850  229.2490 F   0  0  0  0  0  0  0  0  0  0  0  0
  141.1600   70.0190  228.3410 C   0  0  0  0  0  0  0  0  0  0  0  0
  140.7170   70.8380  227.3180 C   0  0  0  0  0  0  0  0  0  0  0  0
  140.0720   70.2820  226.2280 C   0  0  0  0  0  0  0  0  0  0  0  0
  139.6370   71.1080  225.2210 C   0  0  0  0  0  0  0  0  0  0  0  0
  138.6740   76.3600  221.1000 C   0  0  0  0  0  0  0  0  0  0  0  0
  138.9790   77.7260  221.6720 C   0  0  0  0  0  0  0  0  0  0  0  0
  143.2415   80.8976  224.6350 H   0  0  0  0  0  0  0  0  0  0  0  0
  143.7478   80.1352  223.0893 H   0  0  0  0  0  0  0  0  0  0  0  0
  142.4849   81.4126  223.0893 H   0  0  0  0  0  0  0  0  0  0  0  0
  142.2460   78.5299  223.5260 H   0  0  0  0  0  0  0  0  0  0  0  0
  141.5201   79.4902  224.8692 H   0  0  0  0  0  0  0  0  0  0  0  0
  140.1269   82.1777  221.7917 H   0  0  0  0  0  0  0  0  0  0  0  0
  140.8137   83.9114  220.1583 H   0  0  0  0  0  0  0  0  0  0  0  0
  142.0865   83.2980  218.1149 H   0  0  0  0  0  0  0  0  0  0  0  0
  142.6723   80.9013  217.7170 H   0  0  0  0  0  0  0  0  0  0  0  0
  141.9812   79.1800  219.3492 H   0  0  0  0  0  0  0  0  0  0  0  0
  140.2269   78.2719  220.0245 H   0  0  0  0  0  0  0  0  0  0  0  0
  141.6925   76.7336  220.4190 H   0  0  0  0  0  0  0  0  0  0  0  0
  142.1906   77.6383  221.9077 H   0  0  0  0  0  0  0  0  0  0  0  0
  141.6032   75.2454  222.3631 H   0  0  0  0  0  0  0  0  0  0  0  0
  140.5636   76.4254  223.2471 H   0  0  0  0  0  0  0  0  0  0  0  0
  140.5945   73.1872  223.1371 H   0  0  0  0  0  0  0  0  0  0  0  0
  142.3946   72.8810  221.8301 H   0  0  0  0  0  0  0  0  0  0  0  0
  141.4300   72.0275  220.5780 H   0  0  0  0  0  0  0  0  0  0  0  0
  141.5147   73.8217  220.5780 H   0  0  0  0  0  0  0  0  0  0  0  0
  139.1040   71.5800  221.1340 H   0  0  0  0  0  0  0  0  0  0  0  0
  138.3960   72.5538  223.5575 H   0  0  0  0  0  0  0  0  0  0  0  0
  137.6250   71.2256  222.6100 H   0  0  0  0  0  0  0  0  0  0  0  0
  138.2306   68.8270  223.0814 H   0  0  0  0  0  0  0  0  0  0  0  0
  139.0231   67.3189  224.9220 H   0  0  0  0  0  0  0  0  0  0  0  0
  140.1314   67.0360  227.0757 H   0  0  0  0  0  0  0  0  0  0  0  0
  141.6747   70.4385  229.2180 H   0  0  0  0  0  0  0  0  0  0  0  0
  140.8767   71.9250  227.3710 H   0  0  0  0  0  0  0  0  0  0  0  0
  139.8032   72.1931  225.2907 H   0  0  0  0  0  0  0  0  0  0  0  0
  138.7679   76.3802  220.0042 H   0  0  0  0  0  0  0  0  0  0  0  0
  137.6468   76.0529  221.3462 H   0  0  0  0  0  0  0  0  0  0  0  0
  138.1904   78.4359  221.3820 H   0  0  0  0  0  0  0  0  0  0  0  0
  139.0214   77.6779  222.7701 H   0  0  0  0  0  0  0  0  0  0  0  0
  1  2  1  0
  2  3  1  0
  3  4  2  0
  3  5  1  0
  5  6  1  0
  6  7  2  0
  7  8  1  0
  8  9  2  0
  9 10  1  0
 10 11  2  0
  5 12  1  0
 12 13  1  0
 13 14  1  0
 14 15  1  0
 15 16  1  0
 16 17  2  0
 16 18  1  0
 18 19  1  0
 18 20  1  0
 20 21  1  0
 21 22  1  0
 22 23  2  0
 23 24  1  0
 24 25  2  0
 25 26  1  0
 26 27  2  0
 27 28  1  0
 27 29  1  0
 29 30  2  0
 30 31  1  0
 31 32  2  0
 15 33  1  0
 33 34  1  0
 11  6  1  0
 34 12  1  0
 32 22  1  0
 31 25  1  0
  1 35  1  0
  1 36  1  0
  1 37  1  0
  2 38  1  0
  2 39  1  0
  7 40  1  0
  8 41  1  0
  9 42  1  0
 10 43  1  0
 11 44  1  0
 12 45  1  0
 13 46  1  0
 13 47  1  0
 14 48  1  0
 14 49  1  0
 18 50  1  1
 19 51  1  0
 19 52  1  0
 19 53  1  0
 20 54  1  0
 21 55  1  0
 21 56  1  0
 23 57  1  0
 24 58  1  0
 26 59  1  0
 29 60  1  0
 30 61  1  0
 32 62  1  0
 33 63  1  0
 33 64  1  0
 34 65  1  0
 34 66  1  0
M  END
>  <smiles>  (15) 
CCC(=O)N(c1ccccc1)C1CCN(C(=O)[C@H](C)NCc2ccc3cc(F)ccc3c2)CC1

>  <score_type>  (15) 
oracle

>  <origin>  (15) 
autodockgpu

>  <m_score__min__energy>  (15) 
-9.0899999999999999

>  <m_primary>  (15) 
energy

>  <rmsd>  (15) 
9.210897122870044

>  <m_score__min__rmsd>  (15) 
9.210897122870044

>  <meeko>  (15) 
{"free_energy": -8.31, "intermolecular_energy": -10.7, "internal_energy": -2.25, "cluster_size": 8, "cluster_id": 2, "rank_in_cluster": 8}

>  <energy>  (15) 
-8.52

>  <cluster_rmsd>  (15) 
1.1

>  <cluster>  (15) 
2

$$$$

     RDKit          3D

 66 69  0  0  0  0  0  0  0  0999 V2000
  142.8970   81.4650  217.5470 C   0  0  0  0  0  0  0  0  0  0  0  0
  141.8600   81.0700  218.5610 C   0  0  0  0  0  0  0  0  0  0  0  0
  142.1360   79.6840  219.0840 C   0  0  0  0  0  0  0  0  0  0  0  0
  142.9190   78.9330  218.4440 O   0  0  0  0  0  0  0  0  0  0  0  0
  141.5240   79.2240  220.2830 N   0  0  0  0  0  0  0  0  0  0  0  0
  141.7450   80.0000  221.4530 C   0  0  0  0  0  0  0  0  0  0  0  0
  141.2080   81.2530  221.6490 C   0  0  0  0  0  0  0  0  0  0  0  0
  141.4730   81.9520  222.8210 C   0  0  0  0  0  0  0  0  0  0  0  0
  142.2770   81.4100  223.8090 C   0  0  0  0  0  0  0  0  0  0  0  0
  142.8190   80.1480  223.6140 C   0  0  0  0  0  0  0  0  0  0  0  0
  142.5500   79.4610  222.4460 C   0  0  0  0  0  0  0  0  0  0  0  0
  140.7170   78.0230  220.2660 C   0  0  0  0  0  0  0  0  0  0  0  0
  141.4930   76.7540  220.4000 C   0  0  0  0  0  0  0  0  0  0  0  0
  141.0510   75.9490  221.6270 C   0  0  0  0  0  0  0  0  0  0  0  0
  139.6300   75.6940  221.5790 N   0  0  0  0  0  0  0  0  0  0  0  0
  139.0060   74.4710  221.8970 C   0  0  0  0  0  0  0  0  0  0  0  0
  137.7340   74.3520  221.8470 O   0  0  0  0  0  0  0  0  0  0  0  0
  139.7350   73.2390  222.3100 C   0  0  2  0  0  0  0  0  0  0  0  0
  140.5100   72.7280  221.1310 C   0  0  0  0  0  0  0  0  0  0  0  0
  138.7550   72.2480  222.7270 N   0  0  0  0  0  0  0  0  0  0  0  0
  139.1190   70.8960  222.3820 C   0  0  0  0  0  0  0  0  0  0  0  0
  139.3370   70.0720  223.6260 C   0  0  0  0  0  0  0  0  0  0  0  0
  138.9450   68.7520  223.6960 C   0  0  0  0  0  0  0  0  0  0  0  0
  139.1970   68.0980  224.8920 C   0  0  0  0  0  0  0  0  0  0  0  0
  139.8130   68.7520  225.9520 C   0  0  0  0  0  0  0  0  0  0  0  0
  140.0730   68.1180  227.1520 C   0  0  0  0  0  0  0  0  0  0  0  0
  140.6870   68.7820  228.2000 C   0  0  0  0  0  0  0  0  0  0  0  0
  140.9490   68.1750  229.3810 F   0  0  0  0  0  0  0  0  0  0  0  0
  141.0640   70.1080  228.0850 C   0  0  0  0  0  0  0  0  0  0  0  0
  140.8110   70.7580  226.8900 C   0  0  0  0  0  0  0  0  0  0  0  0
  140.1960   70.0750  225.8570 C   0  0  0  0  0  0  0  0  0  0  0  0
  139.9510   70.7340  224.6780 C   0  0  0  0  0  0  0  0  0  0  0  0
  138.7860   76.8110  221.1540 C   0  0  0  0  0  0  0  0  0  0  0  0
  139.6120   78.0700  221.2940 C   0  0  0  0  0  0  0  0  0  0  0  0
  143.8037   81.8104  218.0653 H   0  0  0  0  0  0  0  0  0  0  0  0
  143.1428   80.5975  216.9169 H   0  0  0  0  0  0  0  0  0  0  0  0
  142.5034   82.2762  216.9169 H   0  0  0  0  0  0  0  0  0  0  0  0
  141.8813   81.7838  219.3977 H   0  0  0  0  0  0  0  0  0  0  0  0
  140.8705   81.0790  218.0807 H   0  0  0  0  0  0  0  0  0  0  0  0
  140.5674   81.7020  220.8757 H   0  0  0  0  0  0  0  0  0  0  0  0
  141.0370   82.9515  222.9656 H   0  0  0  0  0  0  0  0  0  0  0  0
  142.4826   81.9704  224.7329 H   0  0  0  0  0  0  0  0  0  0  0  0
  143.4599   79.6965  224.3856 H   0  0  0  0  0  0  0  0  0  0  0  0
  142.9851   78.4614  222.2997 H   0  0  0  0  0  0  0  0  0  0  0  0
  140.2726   78.0083  219.2599 H   0  0  0  0  0  0  0  0  0  0  0  0
  141.3379   76.1438  219.4980 H   0  0  0  0  0  0  0  0  0  0  0  0
  142.5554   77.0117  220.5222 H   0  0  0  0  0  0  0  0  0  0  0  0
  141.5905   74.9905  221.6448 H   0  0  0  0  0  0  0  0  0  0  0  0
  141.2783   76.5286  222.5338 H   0  0  0  0  0  0  0  0  0  0  0  0
  140.4262   73.4473  223.1400 H   0  0  0  0  0  0  0  0  0  0  0  0
  141.3796   72.1546  221.4845 H   0  0  0  0  0  0  0  0  0  0  0  0
  139.8648   72.0776  220.5221 H   0  0  0  0  0  0  0  0  0  0  0  0
  140.8536   73.5772  220.5221 H   0  0  0  0  0  0  0  0  0  0  0  0
  138.6000   72.2830  223.7530 H   0  0  0  0  0  0  0  0  0  0  0  0
  138.3117   70.4449  221.7863 H   0  0  0  0  0  0  0  0  0  0  0  0
  140.0533   70.9170  221.8019 H   0  0  0  0  0  0  0  0  0  0  0  0
  138.4589   68.2455  222.8491 H   0  0  0  0  0  0  0  0  0  0  0  0
  138.9044   67.0435  225.0038 H   0  0  0  0  0  0  0  0  0  0  0  0
  139.7860   67.0635  227.2771 H   0  0  0  0  0  0  0  0  0  0  0  0
  141.5516   70.6313  228.9207 H   0  0  0  0  0  0  0  0  0  0  0  0
  141.0976   71.8123  226.7625 H   0  0  0  0  0  0  0  0  0  0  0  0
  140.2423   71.7890  224.5678 H   0  0  0  0  0  0  0  0  0  0  0  0
  138.4795   76.6752  220.1063 H   0  0  0  0  0  0  0  0  0  0  0  0
  137.8752   76.8696  221.7681 H   0  0  0  0  0  0  0  0  0  0  0  0
  138.9787   78.9526  221.1206 H   0  0  0  0  0  0  0  0  0  0  0  0
  140.0363   78.1367  222.3067 H   0  0  0  0  0  0  0  0  0  0  0  0
  1  2  1  0
  2  3  1  0
  3  4  2  0
  3  5  1  0
  5  6  1  0
  6  7  2  0
  7  8  1  0
  8  9  2  0
  9 10  1  0
 10 11  2  0
  5 12  1  0
 12 13  1  0
 13 14  1  0
 14 15  1  0
 15 16  1  0
 16 17  2  0
 16 18  1  0
 18 19  1  0
 18 20  1  0
 20 21  1  0
 21 22  1  0
 22 23  2  0
 23 24  1  0
 24 25  2  0
 25 26  1  0
 26 27  2  0
 27 28  1  0
 27 29  1  0
 29 30  2  0
 30 31  1  0
 31 32  2  0
 15 33  1  0
 33 34  1  0
 11  6  1  0
 34 12  1  0
 32 22  1  0
 31 25  1  0
  1 35  1  0
  1 36  1  0
  1 37  1  0
  2 38  1  0
  2 39  1  0
  7 40  1  0
  8 41  1  0
  9 42  1  0
 10 43  1  0
 11 44  1  0
 12 45  1  0
 13 46  1  0
 13 47  1  0
 14 48  1  0
 14 49  1  0
 18 50  1  1
 19 51  1  0
 19 52  1  0
 19 53  1  0
 20 54  1  0
 21 55  1  0
 21 56  1  0
 23 57  1  0
 24 58  1  0
 26 59  1  0
 29 60  1  0
 30 61  1  0
 32 62  1  0
 33 63  1  0
 33 64  1  0
 34 65  1  0
 34 66  1  0
M  END
>  <smiles>  (16) 
CCC(=O)N(c1ccccc1)C1CCN(C(=O)[C@H](C)NCc2ccc3cc(F)ccc3c2)CC1

>  <score_type>  (16) 
oracle

>  <origin>  (16) 
autodockgpu

>  <m_score__min__energy>  (16) 
-9.0899999999999999

>  <m_primary>  (16) 
energy

>  <rmsd>  (16) 
9.346020911690875

>  <m_score__min__rmsd>  (16) 
9.346020911690875

>  <meeko>  (16) 
{"free_energy": -8.93, "intermolecular_energy": -11.31, "internal_energy": -1.58, "cluster_size": 28, "cluster_id": 3, "rank_in_cluster": 3}

>  <energy>  (16) 
-8.46

>  <cluster_rmsd>  (16) 
1.01

>  <cluster>  (16) 
2

$$$$

     RDKit          3D

 66 69  0  0  0  0  0  0  0  0999 V2000
  143.3700   80.5460  223.4050 C   0  0  0  0  0  0  0  0  0  0  0  0
  142.1840   79.6360  223.5560 C   0  0  0  0  0  0  0  0  0  0  0  0
  140.9370   80.3060  223.0380 C   0  0  0  0  0  0  0  0  0  0  0  0
  140.3450   81.1450  223.7670 O   0  0  0  0  0  0  0  0  0  0  0  0
  140.4320   79.9990  221.7450 N   0  0  0  0  0  0  0  0  0  0  0  0
  140.8910   80.8060  220.6690 C   0  0  0  0  0  0  0  0  0  0  0  0
  140.5570   82.1340  220.5160 C   0  0  0  0  0  0  0  0  0  0  0  0
  141.0450   82.8560  219.4330 C   0  0  0  0  0  0  0  0  0  0  0  0
  141.8690   82.2640  218.4920 C   0  0  0  0  0  0  0  0  0  0  0  0
  142.2070   80.9270  218.6440 C   0  0  0  0  0  0  0  0  0  0  0  0
  141.7180   80.2160  219.7230 C   0  0  0  0  0  0  0  0  0  0  0  0
  139.5000   78.9040  221.5750 C   0  0  0  0  0  0  0  0  0  0  0  0
  139.9850   77.8120  220.6790 C   0  0  0  0  0  0  0  0  0  0  0  0
  140.0360   76.4660  221.4080 C   0  0  0  0  0  0  0  0  0  0  0  0
  138.7460   76.1470  221.9730 N   0  0  0  0  0  0  0  0  0  0  0  0
  138.1260   74.8820  221.9430 C   0  0  0  0  0  0  0  0  0  0  0  0
  136.9890   74.6950  222.4970 O   0  0  0  0  0  0  0  0  0  0  0  0
  138.7110   73.6780  221.2890 C   0  0  2  0  0  0  0  0  0  0  0  0
  137.8590   73.3180  220.1070 C   0  0  0  0  0  0  0  0  0  0  0  0
  138.7060   72.5880  222.2530 N   0  0  0  0  0  0  0  0  0  0  0  0
  139.9910   72.3490  222.8630 C   0  0  0  0  0  0  0  0  0  0  0  0
  139.8920   71.2550  223.8950 C   0  0  0  0  0  0  0  0  0  0  0  0
  139.2310   70.0730  223.6340 C   0  0  0  0  0  0  0  0  0  0  0  0
  139.2050   69.1420  224.6610 C   0  0  0  0  0  0  0  0  0  0  0  0
  139.8190   69.4010  225.8800 C   0  0  0  0  0  0  0  0  0  0  0  0
  139.8050   68.4860  226.9160 C   0  0  0  0  0  0  0  0  0  0  0  0
  140.4200   68.7580  228.1250 C   0  0  0  0  0  0  0  0  0  0  0  0
  140.4160   67.8730  229.1500 F   0  0  0  0  0  0  0  0  0  0  0  0
  141.0730   69.9580  228.3440 C   0  0  0  0  0  0  0  0  0  0  0  0
  141.0970   70.8850  227.3170 C   0  0  0  0  0  0  0  0  0  0  0  0
  140.4750   70.5920  226.1170 C   0  0  0  0  0  0  0  0  0  0  0  0
  140.5060   71.5230  225.1080 C   0  0  0  0  0  0  0  0  0  0  0  0
  138.0350   77.2490  222.6240 C   0  0  0  0  0  0  0  0  0  0  0  0
  139.0530   78.3330  222.8990 C   0  0  0  0  0  0  0  0  0  0  0  0
  143.7421   80.8315  224.4000 H   0  0  0  0  0  0  0  0  0  0  0  0
  144.1648   80.0238  222.8522 H   0  0  0  0  0  0  0  0  0  0  0  0
  143.0713   81.4489  222.8522 H   0  0  0  0  0  0  0  0  0  0  0  0
  142.3618   78.7117  222.9867 H   0  0  0  0  0  0  0  0  0  0  0  0
  142.0468   79.4033  224.6223 H   0  0  0  0  0  0  0  0  0  0  0  0
  139.9029   82.6238  221.2523 H   0  0  0  0  0  0  0  0  0  0  0  0
  140.7716   83.9157  219.3221 H   0  0  0  0  0  0  0  0  0  0  0  0
  142.2496   82.8436  217.6380 H   0  0  0  0  0  0  0  0  0  0  0  0
  142.8612   80.4354  217.9089 H   0  0  0  0  0  0  0  0  0  0  0  0
  141.9907   79.1563  219.8352 H   0  0  0  0  0  0  0  0  0  0  0  0
  138.6359   79.3580  221.0679 H   0  0  0  0  0  0  0  0  0  0  0  0
  139.3042   77.7268  219.8192 H   0  0  0  0  0  0  0  0  0  0  0  0
  141.0039   78.0639  220.3497 H   0  0  0  0  0  0  0  0  0  0  0  0
  140.3235   75.6791  220.6952 H   0  0  0  0  0  0  0  0  0  0  0  0
  140.7742   76.5298  222.2210 H   0  0  0  0  0  0  0  0  0  0  0  0
  139.7407   73.8711  220.9536 H   0  0  0  0  0  0  0  0  0  0  0  0
  136.8985   72.9122  220.4574 H   0  0  0  0  0  0  0  0  0  0  0  0
  137.6774   74.2163  219.4987 H   0  0  0  0  0  0  0  0  0  0  0  0
  138.3766   72.5617  219.4987 H   0  0  0  0  0  0  0  0  0  0  0  0
  138.0220   72.7650  223.0140 H   0  0  0  0  0  0  0  0  0  0  0  0
  140.7100   72.0495  222.0863 H   0  0  0  0  0  0  0  0  0  0  0  0
  140.3272   73.2730  223.3562 H   0  0  0  0  0  0  0  0  0  0  0  0
  138.7505   69.8794  222.6636 H   0  0  0  0  0  0  0  0  0  0  0  0
  138.6896   68.1823  224.5081 H   0  0  0  0  0  0  0  0  0  0  0  0
  139.2944   67.5218  226.7763 H   0  0  0  0  0  0  0  0  0  0  0  0
  141.5595   70.1692  229.3077 H   0  0  0  0  0  0  0  0  0  0  0  0
  141.6079   71.8495  227.4542 H   0  0  0  0  0  0  0  0  0  0  0  0
  141.0193   72.4835  225.2630 H   0  0  0  0  0  0  0  0  0  0  0  0
  137.2451   77.6323  221.9613 H   0  0  0  0  0  0  0  0  0  0  0  0
  137.5598   76.9119  223.5570 H   0  0  0  0  0  0  0  0  0  0  0  0
  138.5979   79.1250  223.5119 H   0  0  0  0  0  0  0  0  0  0  0  0
  139.9132   77.9181  223.4448 H   0  0  0  0  0  0  0  0  0  0  0  0
  1  2  1  0
  2  3  1  0
  3  4  2  0
  3  5  1  0
  5  6  1  0
  6  7  2  0
  7  8  1  0
  8  9  2  0
  9 10  1  0
 10 11  2  0
  5 12  1  0
 12 13  1  0
 13 14  1  0
 14 15  1  0
 15 16  1  0
 16 17  2  0
 16 18  1  0
 18 19  1  0
 18 20  1  0
 20 21  1  0
 21 22  1  0
 22 23  2  0
 23 24  1  0
 24 25  2  0
 25 26  1  0
 26 27  2  0
 27 28  1  0
 27 29  1  0
 29 30  2  0
 30 31  1  0
 31 32  2  0
 15 33  1  0
 33 34  1  0
 11  6  1  0
 34 12  1  0
 32 22  1  0
 31 25  1  0
  1 35  1  0
  1 36  1  0
  1 37  1  0
  2 38  1  0
  2 39  1  0
  7 40  1  0
  8 41  1  0
  9 42  1  0
 10 43  1  0
 11 44  1  0
 12 45  1  0
 13 46  1  0
 13 47  1  0
 14 48  1  0
 14 49  1  0
 18 50  1  6
 19 51  1  0
 19 52  1  0
 19 53  1  0
 20 54  1  0
 21 55  1  0
 21 56  1  0
 23 57  1  0
 24 58  1  0
 26 59  1  0
 29 60  1  0
 30 61  1  0
 32 62  1  0
 33 63  1  0
 33 64  1  0
 34 65  1  0
 34 66  1  0
M  END
>  <smiles>  (17) 
CCC(=O)N(c1ccccc1)C1CCN(C(=O)[C@H](C)NCc2ccc3cc(F)ccc3c2)CC1

>  <score_type>  (17) 
oracle

>  <origin>  (17) 
autodockgpu

>  <m_score__min__energy>  (17) 
-9.0899999999999999

>  <m_primary>  (17) 
energy

>  <rmsd>  (17) 
8.844939897736722

>  <m_score__min__rmsd>  (17) 
8.844939897736722

>  <meeko>  (17) 
{"free_energy": -8.52, "intermolecular_energy": -10.91, "internal_energy": -2.12, "cluster_size": 8, "cluster_id": 2, "rank_in_cluster": 6}

>  <energy>  (17) 
-8.31

>  <cluster_rmsd>  (17) 
1.41

>  <cluster>  (17) 
2

$$$$

     RDKit          3D

 66 69  0  0  0  0  0  0  0  0999 V2000
  142.7920   81.5890  217.5130 C   0  0  0  0  0  0  0  0  0  0  0  0
  142.5690   80.2660  218.1910 C   0  0  0  0  0  0  0  0  0  0  0  0
  141.5870   80.4150  219.3250 C   0  0  0  0  0  0  0  0  0  0  0  0
  140.7360   81.3420  219.2800 O   0  0  0  0  0  0  0  0  0  0  0  0
  141.6160   79.5230  220.4330 N   0  0  0  0  0  0  0  0  0  0  0  0
  141.8430   80.0990  221.7120 C   0  0  0  0  0  0  0  0  0  0  0  0
  142.9780   79.8730  222.4600 C   0  0  0  0  0  0  0  0  0  0  0  0
  143.1250   80.4700  223.7060 C   0  0  0  0  0  0  0  0  0  0  0  0
  142.1420   81.2980  224.2210 C   0  0  0  0  0  0  0  0  0  0  0  0
  140.9980   81.5280  223.4710 C   0  0  0  0  0  0  0  0  0  0  0  0
  140.8600   80.9300  222.2330 C   0  0  0  0  0  0  0  0  0  0  0  0
  141.4140   78.1050  220.2240 C   0  0  0  0  0  0  0  0  0  0  0  0
  141.1610   77.3260  221.4720 C   0  0  0  0  0  0  0  0  0  0  0  0
  139.8090   76.6060  221.4220 C   0  0  0  0  0  0  0  0  0  0  0  0
  139.7270   75.7650  220.2510 N   0  0  0  0  0  0  0  0  0  0  0  0
  139.2030   74.4570  220.2160 C   0  0  0  0  0  0  0  0  0  0  0  0
  139.1500   73.8010  219.1200 O   0  0  0  0  0  0  0  0  0  0  0  0
  138.6750   73.7330  221.4070 C   0  0  2  0  0  0  0  0  0  0  0  0
  137.5240   74.5170  221.9670 C   0  0  0  0  0  0  0  0  0  0  0  0
  139.7400   73.6420  222.3940 N   0  0  0  0  0  0  0  0  0  0  0  0
  140.5200   72.4330  222.2940 C   0  0  0  0  0  0  0  0  0  0  0  0
  140.1970   71.4980  223.4310 C   0  0  0  0  0  0  0  0  0  0  0  0
  139.4410   70.3610  223.2400 C   0  0  0  0  0  0  0  0  0  0  0  0
  139.2090   69.5800  224.3610 C   0  0  0  0  0  0  0  0  0  0  0  0
  139.7190   69.9370  225.6030 C   0  0  0  0  0  0  0  0  0  0  0  0
  139.5000   69.1720  226.7330 C   0  0  0  0  0  0  0  0  0  0  0  0
  140.0140   69.5410  227.9640 C   0  0  0  0  0  0  0  0  0  0  0  0
  139.8080   68.8020  229.0800 F   0  0  0  0  0  0  0  0  0  0  0  0
  140.7680   70.6910  228.1100 C   0  0  0  0  0  0  0  0  0  0  0  0
  140.9980   71.4690  226.9890 C   0  0  0  0  0  0  0  0  0  0  0  0
  140.4740   71.0810  225.7690 C   0  0  0  0  0  0  0  0  0  0  0  0
  140.7100   71.8640  224.6660 C   0  0  0  0  0  0  0  0  0  0  0  0
  140.2420   76.3370  219.0070 C   0  0  0  0  0  0  0  0  0  0  0  0
  140.3310   77.8330  219.2090 C   0  0  0  0  0  0  0  0  0  0  0  0
  142.9242   82.3729  218.2732 H   0  0  0  0  0  0  0  0  0  0  0  0
  143.6932   81.5318  216.8848 H   0  0  0  0  0  0  0  0  0  0  0  0
  141.9219   81.8304  216.8848 H   0  0  0  0  0  0  0  0  0  0  0  0
  142.1718   79.5465  217.4598 H   0  0  0  0  0  0  0  0  0  0  0  0
  143.5271   79.9058  218.5939 H   0  0  0  0  0  0  0  0  0  0  0  0
  143.7704   79.2177  222.0693 H   0  0  0  0  0  0  0  0  0  0  0  0
  144.0365   80.2819  224.2924 H   0  0  0  0  0  0  0  0  0  0  0  0
  142.2662   81.7658  225.2088 H   0  0  0  0  0  0  0  0  0  0  0  0
  140.2046   82.1832  223.8599 H   0  0  0  0  0  0  0  0  0  0  0  0
  139.9489   81.1168  221.6456 H   0  0  0  0  0  0  0  0  0  0  0  0
  142.3761   77.7479  219.8279 H   0  0  0  0  0  0  0  0  0  0  0  0
  141.9591   76.5791  221.5948 H   0  0  0  0  0  0  0  0  0  0  0  0
  141.1466   78.0276  222.3191 H   0  0  0  0  0  0  0  0  0  0  0  0
  139.6963   75.9846  222.3226 H   0  0  0  0  0  0  0  0  0  0  0  0
  139.0071   77.3576  221.3771 H   0  0  0  0  0  0  0  0  0  0  0  0
  138.3336   72.7227  221.1373 H   0  0  0  0  0  0  0  0  0  0  0  0
  137.5626   74.4907  223.0660 H   0  0  0  0  0  0  0  0  0  0  0  0
  137.5886   75.5597  221.6227 H   0  0  0  0  0  0  0  0  0  0  0  0
  136.5773   74.0751  221.6227 H   0  0  0  0  0  0  0  0  0  0  0  0
  140.3910   74.4470  222.3170 H   0  0  0  0  0  0  0  0  0  0  0  0
  140.2931   71.9342  221.3402 H   0  0  0  0  0  0  0  0  0  0  0  0
  141.5874   72.6945  222.3421 H   0  0  0  0  0  0  0  0  0  0  0  0
  139.0434   70.0885  222.2512 H   0  0  0  0  0  0  0  0  0  0  0  0
  138.6109   68.6618  224.2658 H   0  0  0  0  0  0  0  0  0  0  0  0
  138.9047   68.2505  226.6524 H   0  0  0  0  0  0  0  0  0  0  0  0
  141.1740   70.9795  229.0908 H   0  0  0  0  0  0  0  0  0  0  0  0
  141.5938   72.3903  227.0675 H   0  0  0  0  0  0  0  0  0  0  0  0
  141.3069   72.7829  224.7623 H   0  0  0  0  0  0  0  0  0  0  0  0
  141.2383   75.9260  218.7868 H   0  0  0  0  0  0  0  0  0  0  0  0
  139.5813   76.0946  218.1616 H   0  0  0  0  0  0  0  0  0  0  0  0
  140.5807   78.3237  218.2567 H   0  0  0  0  0  0  0  0  0  0  0  0
  139.3677   78.2277  219.5643 H   0  0  0  0  0  0  0  0  0  0  0  0
  1  2  1  0
  2  3  1  0
  3  4  2  0
  3  5  1  0
  5  6  1  0
  6  7  2  0
  7  8  1  0
  8  9  2  0
  9 10  1  0
 10 11  2  0
  5 12  1  0
 12 13  1  0
 13 14  1  0
 14 15  1  0
 15 16  1  0
 16 17  2  0
 16 18  1  0
 18 19  1  0
 18 20  1  0
 20 21  1  0
 21 22  1  0
 22 23  2  0
 23 24  1  0
 24 25  2  0
 25 26  1  0
 26 27  2  0
 27 28  1  0
 27 29  1  0
 29 30  2  0
 30 31  1  0
 31 32  2  0
 15 33  1  0
 33 34  1  0
 11  6  1  0
 34 12  1  0
 32 22  1  0
 31 25  1  0
  1 35  1  0
  1 36  1  0
  1 37  1  0
  2 38  1  0
  2 39  1  0
  7 40  1  0
  8 41  1  0
  9 42  1  0
 10 43  1  0
 11 44  1  0
 12 45  1  0
 13 46  1  0
 13 47  1  0
 14 48  1  0
 14 49  1  0
 18 50  1  6
 19 51  1  0
 19 52  1  0
 19 53  1  0
 20 54  1  0
 21 55  1  0
 21 56  1  0
 23 57  1  0
 24 58  1  0
 26 59  1  0
 29 60  1  0
 30 61  1  0
 32 62  1  0
 33 63  1  0
 33 64  1  0
 34 65  1  0
 34 66  1  0
M  END
>  <smiles>  (18) 
CCC(=O)N(c1ccccc1)C1CCN(C(=O)[C@H](C)NCc2ccc3cc(F)ccc3c2)CC1

>  <score_type>  (18) 
oracle

>  <origin>  (18) 
autodockgpu

>  <m_score__min__energy>  (18) 
-9.0899999999999999

>  <m_primary>  (18) 
energy

>  <rmsd>  (18) 
8.400423963042828

>  <m_score__min__rmsd>  (18) 
8.400423963042828

>  <meeko>  (18) 
{"free_energy": -8.67, "intermolecular_energy": -11.05, "internal_energy": -1.63, "cluster_size": 28, "cluster_id": 3, "rank_in_cluster": 15}

>  <energy>  (18) 
-8.99

>  <cluster_rmsd>  (18) 
0.0

>  <cluster>  (18) 
3

$$$$

     RDKit          3D

 66 69  0  0  0  0  0  0  0  0999 V2000
  146.3120   70.9130  215.6980 C   0  0  0  0  0  0  0  0  0  0  0  0
  145.2520   71.9170  216.0540 C   0  0  0  0  0  0  0  0  0  0  0  0
  145.3730   72.3190  217.5020 C   0  0  0  0  0  0  0  0  0  0  0  0
  146.3080   73.0870  217.8480 O   0  0  0  0  0  0  0  0  0  0  0  0
  144.4460   71.8380  218.4690 N   0  0  0  0  0  0  0  0  0  0  0  0
  144.6120   70.4960  218.9040 C   0  0  0  0  0  0  0  0  0  0  0  0
  143.5690   69.6880  219.2980 C   0  0  0  0  0  0  0  0  0  0  0  0
  143.8130   68.3850  219.7150 C   0  0  0  0  0  0  0  0  0  0  0  0
  145.0990   67.8730  219.7450 C   0  0  0  0  0  0  0  0  0  0  0  0
  146.1520   68.6850  219.3490 C   0  0  0  0  0  0  0  0  0  0  0  0
  145.9000   69.9790  218.9360 C   0  0  0  0  0  0  0  0  0  0  0  0
  143.4020   72.7110  218.9630 C   0  0  0  0  0  0  0  0  0  0  0  0
  142.0200   72.3130  218.5580 C   0  0  0  0  0  0  0  0  0  0  0  0
  141.1290   72.0510  219.7770 C   0  0  0  0  0  0  0  0  0  0  0  0
  141.1110   73.2030  220.6470 N   0  0  0  0  0  0  0  0  0  0  0  0
  139.9710   73.7340  221.2820 C   0  0  0  0  0  0  0  0  0  0  0  0
  140.0620   74.7460  222.0580 O   0  0  0  0  0  0  0  0  0  0  0  0
  138.5920   73.1890  221.1220 C   0  0  2  0  0  0  0  0  0  0  0  0
  137.6470   74.3400  220.9360 C   0  0  0  0  0  0  0  0  0  0  0  0
  138.2490   72.4560  222.3310 N   0  0  0  0  0  0  0  0  0  0  0  0
  138.8190   71.1330  222.3860 C   0  0  0  0  0  0  0  0  0  0  0  0
  139.4710   70.8930  223.7240 C   0  0  0  0  0  0  0  0  0  0  0  0
  140.3100   71.8260  224.2960 C   0  0  0  0  0  0  0  0  0  0  0  0
  140.8520   71.4930  225.5280 C   0  0  0  0  0  0  0  0  0  0  0  0
  140.5550   70.2810  226.1390 C   0  0  0  0  0  0  0  0  0  0  0  0
  141.0850   69.9300  227.3660 C   0  0  0  0  0  0  0  0  0  0  0  0
  140.7800   68.7190  227.9630 C   0  0  0  0  0  0  0  0  0  0  0  0
  141.2900   68.3600  229.1640 F   0  0  0  0  0  0  0  0  0  0  0  0
  139.9340   67.8120  227.3510 C   0  0  0  0  0  0  0  0  0  0  0  0
  139.3940   68.1470  226.1230 C   0  0  0  0  0  0  0  0  0  0  0  0
  139.7120   69.3630  225.5450 C   0  0  0  0  0  0  0  0  0  0  0  0
  139.1690   69.6810  224.3250 C   0  0  0  0  0  0  0  0  0  0  0  0
  142.3970   73.8640  220.8720 C   0  0  0  0  0  0  0  0  0  0  0  0
  143.4760   72.8890  220.4600 C   0  0  0  0  0  0  0  0  0  0  0  0
  146.7490   70.4991  216.6187 H   0  0  0  0  0  0  0  0  0  0  0  0
  145.8638   70.1004  215.1074 H   0  0  0  0  0  0  0  0  0  0  0  0
  147.0991   71.4046  215.1074 H   0  0  0  0  0  0  0  0  0  0  0  0
  145.3692   72.8080  215.4196 H   0  0  0  0  0  0  0  0  0  0  0  0
  144.2629   71.4641  215.8912 H   0  0  0  0  0  0  0  0  0  0  0  0
  142.5395   70.0751  219.2826 H   0  0  0  0  0  0  0  0  0  0  0  0
  142.9705   67.7500  220.0264 H   0  0  0  0  0  0  0  0  0  0  0  0
  145.2827   66.8405  220.0770 H   0  0  0  0  0  0  0  0  0  0  0  0
  147.1824   68.3003  219.3638 H   0  0  0  0  0  0  0  0  0  0  0  0
  146.7412   70.6158  218.6246 H   0  0  0  0  0  0  0  0  0  0  0  0
  143.6010   73.6767  218.4753 H   0  0  0  0  0  0  0  0  0  0  0  0
  141.5766   73.1219  217.9588 H   0  0  0  0  0  0  0  0  0  0  0  0
  142.0867   71.3832  217.9740 H   0  0  0  0  0  0  0  0  0  0  0  0
  140.1047   71.8377  219.4375 H   0  0  0  0  0  0  0  0  0  0  0  0
  141.5309   71.1913  220.3332 H   0  0  0  0  0  0  0  0  0  0  0  0
  138.5288   72.5180  220.2526 H   0  0  0  0  0  0  0  0  0  0  0  0
  137.3346   74.7205  221.9197 H   0  0  0  0  0  0  0  0  0  0  0  0
  138.1511   75.1415  220.3760 H   0  0  0  0  0  0  0  0  0  0  0  0
  136.7627   74.0016  220.3760 H   0  0  0  0  0  0  0  0  0  0  0  0
  138.5560   72.9700  223.1800 H   0  0  0  0  0  0  0  0  0  0  0  0
  138.0230   70.3894  222.2329 H   0  0  0  0  0  0  0  0  0  0  0  0
  139.5810   71.0414  221.5979 H   0  0  0  0  0  0  0  0  0  0  0  0
  140.5369   72.7822  223.8019 H   0  0  0  0  0  0  0  0  0  0  0  0
  141.5285   72.2002  226.0301 H   0  0  0  0  0  0  0  0  0  0  0  0
  141.7635   70.6275  227.8790 H   0  0  0  0  0  0  0  0  0  0  0  0
  139.6971   66.8498  227.8285 H   0  0  0  0  0  0  0  0  0  0  0  0
  138.7154   67.4506  225.6086 H   0  0  0  0  0  0  0  0  0  0  0  0
  138.4931   68.9728  223.8235 H   0  0  0  0  0  0  0  0  0  0  0  0
  142.4627   74.7784  220.2641 H   0  0  0  0  0  0  0  0  0  0  0  0
  142.5105   74.1504  221.9280 H   0  0  0  0  0  0  0  0  0  0  0  0
  144.4632   73.2855  220.7398 H   0  0  0  0  0  0  0  0  0  0  0  0
  143.3296   71.9232  220.9658 H   0  0  0  0  0  0  0  0  0  0  0  0
  1  2  1  0
  2  3  1  0
  3  4  2  0
  3  5  1  0
  5  6  1  0
  6  7  2  0
  7  8  1  0
  8  9  2  0
  9 10  1  0
 10 11  2  0
  5 12  1  0
 12 13  1  0
 13 14  1  0
 14 15  1  0
 15 16  1  0
 16 17  2  0
 16 18  1  0
 18 19  1  0
 18 20  1  0
 20 21  1  0
 21 22  1  0
 22 23  2  0
 23 24  1  0
 24 25  2  0
 25 26  1  0
 26 27  2  0
 27 28  1  0
 27 29  1  0
 29 30  2  0
 30 31  1  0
 31 32  2  0
 15 33  1  0
 33 34  1  0
 11  6  1  0
 34 12  1  0
 32 22  1  0
 31 25  1  0
  1 35  1  0
  1 36  1  0
  1 37  1  0
  2 38  1  0
  2 39  1  0
  7 40  1  0
  8 41  1  0
  9 42  1  0
 10 43  1  0
 11 44  1  0
 12 45  1  0
 13 46  1  0
 13 47  1  0
 14 48  1  0
 14 49  1  0
 18 50  1  6
 19 51  1  0
 19 52  1  0
 19 53  1  0
 20 54  1  0
 21 55  1  0
 21 56  1  0
 23 57  1  0
 24 58  1  0
 26 59  1  0
 29 60  1  0
 30 61  1  0
 32 62  1  0
 33 63  1  0
 33 64  1  0
 34 65  1  0
 34 66  1  0
M  END
>  <smiles>  (19) 
CCC(=O)N(c1ccccc1)C1CCN(C(=O)[C@H](C)NCc2ccc3cc(F)ccc3c2)CC1

>  <score_type>  (19) 
oracle

>  <origin>  (19) 
autodockgpu

>  <m_score__min__energy>  (19) 
-9.0899999999999999

>  <m_primary>  (19) 
energy

>  <rmsd>  (19) 
8.362972733644028

>  <m_score__min__rmsd>  (19) 
8.362972733644028

>  <meeko>  (19) 
{"free_energy": -8.32, "intermolecular_energy": -10.7, "internal_energy": -2.17, "cluster_size": 1, "cluster_id": 5, "rank_in_cluster": 1}

>  <energy>  (19) 
-8.94

>  <cluster_rmsd>  (19) 
0.59

>  <cluster>  (19) 
3

$$$$

     RDKit          3D

 66 69  0  0  0  0  0  0  0  0999 V2000
  142.2810   80.0250  218.4200 C   0  0  0  0  0  0  0  0  0  0  0  0
  141.6010   81.1230  219.1870 C   0  0  0  0  0  0  0  0  0  0  0  0
  140.2830   80.6420  219.7380 C   0  0  0  0  0  0  0  0  0  0  0  0
  139.2220   80.9210  219.1190 O   0  0  0  0  0  0  0  0  0  0  0  0
  140.2320   79.8830  220.9400 N   0  0  0  0  0  0  0  0  0  0  0  0
  141.2020   80.1890  221.9320 C   0  0  0  0  0  0  0  0  0  0  0  0
  142.3920   79.5080  222.0710 C   0  0  0  0  0  0  0  0  0  0  0  0
  143.2890   79.8650  223.0700 C   0  0  0  0  0  0  0  0  0  0  0  0
  143.0120   80.9030  223.9410 C   0  0  0  0  0  0  0  0  0  0  0  0
  141.8150   81.5910  223.8050 C   0  0  0  0  0  0  0  0  0  0  0  0
  140.9280   81.2300  222.8090 C   0  0  0  0  0  0  0  0  0  0  0  0
  139.2200   78.8620  221.1070 C   0  0  0  0  0  0  0  0  0  0  0  0
  139.3430   77.7090  220.1650 C   0  0  0  0  0  0  0  0  0  0  0  0
  139.5150   76.3840  220.9150 C   0  0  0  0  0  0  0  0  0  0  0  0
  138.4310   76.1870  221.8480 N   0  0  0  0  0  0  0  0  0  0  0  0
  137.7460   74.9750  222.0650 C   0  0  0  0  0  0  0  0  0  0  0  0
  136.8130   74.8950  222.9350 O   0  0  0  0  0  0  0  0  0  0  0  0
  138.0280   73.7090  221.3310 C   0  0  2  0  0  0  0  0  0  0  0  0
  136.8780   73.4280  220.4080 C   0  0  0  0  0  0  0  0  0  0  0  0
  138.1550   72.6360  222.3060 N   0  0  0  0  0  0  0  0  0  0  0  0
  139.5070   72.1620  222.4710 C   0  0  0  0  0  0  0  0  0  0  0  0
  139.5750   71.1290  223.5660 C   0  0  0  0  0  0  0  0  0  0  0  0
  139.0670   69.8590  223.3930 C   0  0  0  0  0  0  0  0  0  0  0  0
  139.1870   68.9950  224.4720 C   0  0  0  0  0  0  0  0  0  0  0  0
  139.7900   69.4040  225.6550 C   0  0  0  0  0  0  0  0  0  0  0  0
  139.9200   68.5590  226.7410 C   0  0  0  0  0  0  0  0  0  0  0  0
  140.5230   68.9800  227.9130 C   0  0  0  0  0  0  0  0  0  0  0  0
  140.6580   68.1650  228.9860 F   0  0  0  0  0  0  0  0  0  0  0  0
  141.0190   70.2650  228.0420 C   0  0  0  0  0  0  0  0  0  0  0  0
  140.8980   71.1240  226.9650 C   0  0  0  0  0  0  0  0  0  0  0  0
  140.2920   70.6820  225.8030 C   0  0  0  0  0  0  0  0  0  0  0  0
  140.1780   71.5460  224.7420 C   0  0  0  0  0  0  0  0  0  0  0  0
  138.0210   77.3600  222.6200 C   0  0  0  0  0  0  0  0  0  0  0  0
  139.1450   78.3670  222.5300 C   0  0  0  0  0  0  0  0  0  0  0  0
  142.7258   79.3068  219.1245 H   0  0  0  0  0  0  0  0  0  0  0  0
  141.5440   79.5092  217.7869 H   0  0  0  0  0  0  0  0  0  0  0  0
  143.0712   80.4550  217.7869 H   0  0  0  0  0  0  0  0  0  0  0  0
  142.2480   81.4382  220.0188 H   0  0  0  0  0  0  0  0  0  0  0  0
  141.4163   81.9696  218.5093 H   0  0  0  0  0  0  0  0  0  0  0  0
  142.6324   78.6792  221.3888 H   0  0  0  0  0  0  0  0  0  0  0  0
  144.2352   79.3130  223.1699 H   0  0  0  0  0  0  0  0  0  0  0  0
  143.7289   81.1785  224.7285 H   0  0  0  0  0  0  0  0  0  0  0  0
  141.5733   82.4198  224.4867 H   0  0  0  0  0  0  0  0  0  0  0  0
  139.9813   81.7810  222.7084 H   0  0  0  0  0  0  0  0  0  0  0  0
  138.2779   79.3697  220.8529 H   0  0  0  0  0  0  0  0  0  0  0  0
  138.4345   77.6542  219.5472 H   0  0  0  0  0  0  0  0  0  0  0  0
  140.2340   77.8688  219.5400 H   0  0  0  0  0  0  0  0  0  0  0  0
  139.5240   75.5564  220.1904 H   0  0  0  0  0  0  0  0  0  0  0  0
  140.4633   76.4107  221.4717 H   0  0  0  0  0  0  0  0  0  0  0  0
  138.9559   73.7891  220.7457 H   0  0  0  0  0  0  0  0  0  0  0  0
  135.9777   73.2080  221.0004 H   0  0  0  0  0  0  0  0  0  0  0  0
  136.6936   74.3075  219.7736 H   0  0  0  0  0  0  0  0  0  0  0  0
  137.1200   72.5626  219.7736 H   0  0  0  0  0  0  0  0  0  0  0  0
  137.8070   72.9340  223.2370 H   0  0  0  0  0  0  0  0  0  0  0  0
  139.8505   71.7125  221.5276 H   0  0  0  0  0  0  0  0  0  0  0  0
  140.1507   73.0114  222.7432 H   0  0  0  0  0  0  0  0  0  0  0  0
  138.5924   69.5477  222.4508 H   0  0  0  0  0  0  0  0  0  0  0  0
  138.7983   67.9693  224.3895 H   0  0  0  0  0  0  0  0  0  0  0  0
  139.5361   67.5305  226.6721 H   0  0  0  0  0  0  0  0  0  0  0  0
  141.4969   70.5947  228.9763 H   0  0  0  0  0  0  0  0  0  0  0  0
  141.2815   72.1528  227.0321 H   0  0  0  0  0  0  0  0  0  0  0  0
  140.5663   72.5718  224.8257 H   0  0  0  0  0  0  0  0  0  0  0  0
  137.0985   77.7856  222.1982 H   0  0  0  0  0  0  0  0  0  0  0  0
  137.8212   77.0890  223.6672 H   0  0  0  0  0  0  0  0  0  0  0  0
  138.9451   79.2101  223.2077 H   0  0  0  0  0  0  0  0  0  0  0  0
  140.0978   77.9007  222.8213 H   0  0  0  0  0  0  0  0  0  0  0  0
  1  2  1  0
  2  3  1  0
  3  4  2  0
  3  5  1  0
  5  6  1  0
  6  7  2  0
  7  8  1  0
  8  9  2  0
  9 10  1  0
 10 11  2  0
  5 12  1  0
 12 13  1  0
 13 14  1  0
 14 15  1  0
 15 16  1  0
 16 17  2  0
 16 18  1  0
 18 19  1  0
 18 20  1  0
 20 21  1  0
 21 22  1  0
 22 23  2  0
 23 24  1  0
 24 25  2  0
 25 26  1  0
 26 27  2  0
 27 28  1  0
 27 29  1  0
 29 30  2  0
 30 31  1  0
 31 32  2  0
 15 33  1  0
 33 34  1  0
 11  6  1  0
 34 12  1  0
 32 22  1  0
 31 25  1  0
  1 35  1  0
  1 36  1  0
  1 37  1  0
  2 38  1  0
  2 39  1  0
  7 40  1  0
  8 41  1  0
  9 42  1  0
 10 43  1  0
 11 44  1  0
 12 45  1  0
 13 46  1  0
 13 47  1  0
 14 48  1  0
 14 49  1  0
 18 50  1  6
 19 51  1  0
 19 52  1  0
 19 53  1  0
 20 54  1  0
 21 55  1  0
 21 56  1  0
 23 57  1  0
 24 58  1  0
 26 59  1  0
 29 60  1  0
 30 61  1  0
 32 62  1  0
 33 63  1  0
 33 64  1  0
 34 65  1  0
 34 66  1  0
M  END
>  <smiles>  (20) 
CCC(=O)N(c1ccccc1)C1CCN(C(=O)[C@H](C)NCc2ccc3cc(F)ccc3c2)CC1

>  <score_type>  (20) 
oracle

>  <origin>  (20) 
autodockgpu

>  <m_score__min__energy>  (20) 
-9.0899999999999999

>  <m_primary>  (20) 
energy

>  <rmsd>  (20) 
8.855366838941446

>  <m_score__min__rmsd>  (20) 
8.855366838941446

>  <meeko>  (20) 
{"free_energy": -8.48, "intermolecular_energy": -10.87, "internal_energy": -2.26, "cluster_size": 28, "cluster_id": 3, "rank_in_cluster": 21}

>  <energy>  (20) 
-8.93

>  <cluster_rmsd>  (20) 
1.17

>  <cluster>  (20) 
3

$$$$

     RDKit          3D

 66 69  0  0  0  0  0  0  0  0999 V2000
  140.2400   82.9960  220.1970 C   0  0  0  0  0  0  0  0  0  0  0  0
  139.9250   81.8030  219.3400 C   0  0  0  0  0  0  0  0  0  0  0  0
  140.7860   80.6300  219.7350 C   0  0  0  0  0  0  0  0  0  0  0  0
  141.7060   80.2570  218.9600 O   0  0  0  0  0  0  0  0  0  0  0  0
  140.5650   79.9490  220.9640 N   0  0  0  0  0  0  0  0  0  0  0  0
  141.3430   80.3680  222.0770 C   0  0  0  0  0  0  0  0  0  0  0  0
  140.9040   81.2750  223.0160 C   0  0  0  0  0  0  0  0  0  0  0  0
  141.7260   81.6380  224.0760 C   0  0  0  0  0  0  0  0  0  0  0  0
  142.9950   81.1020  224.2110 C   0  0  0  0  0  0  0  0  0  0  0  0
  143.4410   80.1890  223.2670 C   0  0  0  0  0  0  0  0  0  0  0  0
  142.6170   79.8340  222.2160 C   0  0  0  0  0  0  0  0  0  0  0  0
  139.5810   78.8900  221.0370 C   0  0  0  0  0  0  0  0  0  0  0  0
  139.8720   77.7140  220.1630 C   0  0  0  0  0  0  0  0  0  0  0  0
  139.9960   76.4230  220.9790 C   0  0  0  0  0  0  0  0  0  0  0  0
  138.8070   76.2090  221.7700 N   0  0  0  0  0  0  0  0  0  0  0  0
  138.1480   74.9750  221.9420 C   0  0  0  0  0  0  0  0  0  0  0  0
  137.1130   74.8830  222.6860 O   0  0  0  0  0  0  0  0  0  0  0  0
  138.5740   73.7000  221.3000 C   0  0  2  0  0  0  0  0  0  0  0  0
  137.5790   73.3510  220.2310 C   0  0  0  0  0  0  0  0  0  0  0  0
  138.5930   72.6610  222.3180 N   0  0  0  0  0  0  0  0  0  0  0  0
  139.9200   72.2390  222.6900 C   0  0  0  0  0  0  0  0  0  0  0  0
  139.8600   71.1960  223.7760 C   0  0  0  0  0  0  0  0  0  0  0  0
  139.2730   69.9670  223.5650 C   0  0  0  0  0  0  0  0  0  0  0  0
  139.2770   69.0900  224.6390 C   0  0  0  0  0  0  0  0  0  0  0  0
  139.8470   69.4460  225.8540 C   0  0  0  0  0  0  0  0  0  0  0  0
  139.8620   68.5870  226.9370 C   0  0  0  0  0  0  0  0  0  0  0  0
  140.4330   68.9550  228.1410 C   0  0  0  0  0  0  0  0  0  0  0  0
  140.4560   68.1250  229.2110 F   0  0  0  0  0  0  0  0  0  0  0  0
  141.0130   70.2010  228.3090 C   0  0  0  0  0  0  0  0  0  0  0  0
  141.0070   71.0730  227.2360 C   0  0  0  0  0  0  0  0  0  0  0  0
  140.4300   70.6840  226.0410 C   0  0  0  0  0  0  0  0  0  0  0  0
  140.4320   71.5610  224.9850 C   0  0  0  0  0  0  0  0  0  0  0  0
  138.2530   77.3870  222.4380 C   0  0  0  0  0  0  0  0  0  0  0  0
  139.3400   78.4390  222.4560 C   0  0  0  0  0  0  0  0  0  0  0  0
  140.1659   82.7152  221.2580 H   0  0  0  0  0  0  0  0  0  0  0  0
  141.2608   83.3439  219.9803 H   0  0  0  0  0  0  0  0  0  0  0  0
  139.5240   83.8025  219.9803 H   0  0  0  0  0  0  0  0  0  0  0  0
  138.8659   81.5345  219.4677 H   0  0  0  0  0  0  0  0  0  0  0  0
  140.1268   82.0557  218.2886 H   0  0  0  0  0  0  0  0  0  0  0  0
  139.8992   81.7136  222.9265 H   0  0  0  0  0  0  0  0  0  0  0  0
  141.3625   82.3627  224.8195 H   0  0  0  0  0  0  0  0  0  0  0  0
  143.6391   81.3953  225.0531 H   0  0  0  0  0  0  0  0  0  0  0  0
  144.4456   79.7497  223.3545 H   0  0  0  0  0  0  0  0  0  0  0  0
  142.9795   79.1104  221.4710 H   0  0  0  0  0  0  0  0  0  0  0  0
  138.6606   79.3466  220.6440 H   0  0  0  0  0  0  0  0  0  0  0  0
  139.0554   77.5993  219.4350 H   0  0  0  0  0  0  0  0  0  0  0  0
  140.8301   77.8925  219.6530 H   0  0  0  0  0  0  0  0  0  0  0  0
  140.1329   75.5734  220.2939 H   0  0  0  0  0  0  0  0  0  0  0  0
  140.8611   76.5096  221.6529 H   0  0  0  0  0  0  0  0  0  0  0  0
  139.5741   73.7970  220.8523 H   0  0  0  0  0  0  0  0  0  0  0  0
  136.6393   73.0214  220.6983 H   0  0  0  0  0  0  0  0  0  0  0  0
  137.3871   74.2355  219.6058 H   0  0  0  0  0  0  0  0  0  0  0  0
  137.9817   72.5404  219.6058 H   0  0  0  0  0  0  0  0  0  0  0  0
  138.1060   72.9740  223.1800 H   0  0  0  0  0  0  0  0  0  0  0  0
  140.4248   71.8152  221.8093 H   0  0  0  0  0  0  0  0  0  0  0  0
  140.4770   73.1101  223.0654 H   0  0  0  0  0  0  0  0  0  0  0  0
  138.8256   69.6965  222.5972 H   0  0  0  0  0  0  0  0  0  0  0  0
  138.8209   68.0954  224.5266 H   0  0  0  0  0  0  0  0  0  0  0  0
  139.4098   67.5891  226.8386 H   0  0  0  0  0  0  0  0  0  0  0  0
  141.4659   70.4891  229.2692 H   0  0  0  0  0  0  0  0  0  0  0  0
  141.4590   72.0712  227.3324 H   0  0  0  0  0  0  0  0  0  0  0  0
  140.8884   72.5554  225.0983 H   0  0  0  0  0  0  0  0  0  0  0  0
  137.3777   77.7580  221.8847 H   0  0  0  0  0  0  0  0  0  0  0  0
  137.9280   77.1416  223.4598 H   0  0  0  0  0  0  0  0  0  0  0  0
  139.0207   79.2943  223.0697 H   0  0  0  0  0  0  0  0  0  0  0  0
  140.2638   78.0243  222.8856 H   0  0  0  0  0  0  0  0  0  0  0  0
  1  2  1  0
  2  3  1  0
  3  4  2  0
  3  5  1  0
  5  6  1  0
  6  7  2  0
  7  8  1  0
  8  9  2  0
  9 10  1  0
 10 11  2  0
  5 12  1  0
 12 13  1  0
 13 14  1  0
 14 15  1  0
 15 16  1  0
 16 17  2  0
 16 18  1  0
 18 19  1  0
 18 20  1  0
 20 21  1  0
 21 22  1  0
 22 23  2  0
 23 24  1  0
 24 25  2  0
 25 26  1  0
 26 27  2  0
 27 28  1  0
 27 29  1  0
 29 30  2  0
 30 31  1  0
 31 32  2  0
 15 33  1  0
 33 34  1  0
 11  6  1  0
 34 12  1  0
 32 22  1  0
 31 25  1  0
  1 35  1  0
  1 36  1  0
  1 37  1  0
  2 38  1  0
  2 39  1  0
  7 40  1  0
  8 41  1  0
  9 42  1  0
 10 43  1  0
 11 44  1  0
 12 45  1  0
 13 46  1  0
 13 47  1  0
 14 48  1  0
 14 49  1  0
 18 50  1  6
 19 51  1  0
 19 52  1  0
 19 53  1  0
 20 54  1  0
 21 55  1  0
 21 56  1  0
 23 57  1  0
 24 58  1  0
 26 59  1  0
 29 60  1  0
 30 61  1  0
 32 62  1  0
 33 63  1  0
 33 64  1  0
 34 65  1  0
 34 66  1  0
M  END
>  <smiles>  (21) 
CCC(=O)N(c1ccccc1)C1CCN(C(=O)[C@H](C)NCc2ccc3cc(F)ccc3c2)CC1

>  <score_type>  (21) 
oracle

>  <origin>  (21) 
autodockgpu

>  <m_score__min__energy>  (21) 
-9.0899999999999999

>  <m_primary>  (21) 
energy

>  <rmsd>  (21) 
8.806745753476486

>  <m_score__min__rmsd>  (21) 
8.806745753476486

>  <meeko>  (21) 
{"free_energy": -8.5, "intermolecular_energy": -10.88, "internal_energy": -2.23, "cluster_size": 28, "cluster_id": 3, "rank_in_cluster": 20}

>  <energy>  (21) 
-8.9

>  <cluster_rmsd>  (21) 
1.56

>  <cluster>  (21) 
3

$$$$

     RDKit          3D

 66 69  0  0  0  0  0  0  0  0999 V2000
  141.8560   81.1190  218.7720 C   0  0  0  0  0  0  0  0  0  0  0  0
  141.0020   82.0730  219.5580 C   0  0  0  0  0  0  0  0  0  0  0  0
  139.9590   81.3210  220.3440 C   0  0  0  0  0  0  0  0  0  0  0  0
  138.7560   81.6820  220.2680 O   0  0  0  0  0  0  0  0  0  0  0  0
  140.3250   80.2170  221.1630 N   0  0  0  0  0  0  0  0  0  0  0  0
  141.3310   80.4490  222.1400 C   0  0  0  0  0  0  0  0  0  0  0  0
  142.5740   79.8570  222.1090 C   0  0  0  0  0  0  0  0  0  0  0  0
  143.5050   80.1320  223.1040 C   0  0  0  0  0  0  0  0  0  0  0  0
  143.2060   80.9990  224.1400 C   0  0  0  0  0  0  0  0  0  0  0  0
  141.9550   81.5970  224.1740 C   0  0  0  0  0  0  0  0  0  0  0  0
  141.0360   81.3170  223.1810 C   0  0  0  0  0  0  0  0  0  0  0  0
  139.6740   78.9370  220.9820 C   0  0  0  0  0  0  0  0  0  0  0  0
  140.6050   77.8030  220.7030 C   0  0  0  0  0  0  0  0  0  0  0  0
  140.4800   76.6980  221.7580 C   0  0  0  0  0  0  0  0  0  0  0  0
  139.1130   76.2440  221.8550 N   0  0  0  0  0  0  0  0  0  0  0  0
  138.7000   74.9010  221.9640 C   0  0  0  0  0  0  0  0  0  0  0  0
  137.4620   74.6010  222.0710 O   0  0  0  0  0  0  0  0  0  0  0  0
  139.6300   73.7360  221.9700 C   0  0  2  0  0  0  0  0  0  0  0  0
  140.2440   73.6130  220.6050 C   0  0  0  0  0  0  0  0  0  0  0  0
  138.8600   72.5400  222.2770 N   0  0  0  0  0  0  0  0  0  0  0  0
  139.6580   71.3410  222.3440 C   0  0  0  0  0  0  0  0  0  0  0  0
  140.0060   71.0160  223.7740 C   0  0  0  0  0  0  0  0  0  0  0  0
  140.6950   71.9060  224.5700 C   0  0  0  0  0  0  0  0  0  0  0  0
  140.9590   71.4950  225.8680 C   0  0  0  0  0  0  0  0  0  0  0  0
  140.5430   70.2510  226.3250 C   0  0  0  0  0  0  0  0  0  0  0  0
  140.7950   69.8230  227.6150 C   0  0  0  0  0  0  0  0  0  0  0  0
  140.3750   68.5810  228.0570 C   0  0  0  0  0  0  0  0  0  0  0  0
  140.6140   68.1470  229.3170 F   0  0  0  0  0  0  0  0  0  0  0  0
  139.6860   67.7190  227.2230 C   0  0  0  0  0  0  0  0  0  0  0  0
  139.4240   68.1320  225.9290 C   0  0  0  0  0  0  0  0  0  0  0  0
  139.8530   69.3770  225.5090 C   0  0  0  0  0  0  0  0  0  0  0  0
  139.5870   69.7720  224.2210 C   0  0  0  0  0  0  0  0  0  0  0  0
  138.0820   77.2830  221.8290 C   0  0  0  0  0  0  0  0  0  0  0  0
  138.7670   78.5950  222.1390 C   0  0  0  0  0  0  0  0  0  0  0  0
  142.4263   80.4819  219.4640 H   0  0  0  0  0  0  0  0  0  0  0  0
  141.2143   80.4893  218.1383 H   0  0  0  0  0  0  0  0  0  0  0  0
  142.5527   81.6873  218.1383 H   0  0  0  0  0  0  0  0  0  0  0  0
  141.6385   82.6415  220.2520 H   0  0  0  0  0  0  0  0  0  0  0  0
  140.4974   82.7574  218.8601 H   0  0  0  0  0  0  0  0  0  0  0  0
  142.8310   79.1642  221.2941 H   0  0  0  0  0  0  0  0  0  0  0  0
  144.4946   79.6530  223.0672 H   0  0  0  0  0  0  0  0  0  0  0  0
  143.9482   81.2105  224.9238 H   0  0  0  0  0  0  0  0  0  0  0  0
  141.6958   82.2907  224.9874 H   0  0  0  0  0  0  0  0  0  0  0  0
  140.0456   81.7944  223.2169 H   0  0  0  0  0  0  0  0  0  0  0  0
  139.0660   79.0677  220.0746 H   0  0  0  0  0  0  0  0  0  0  0  0
  140.3683   77.3816  219.7149 H   0  0  0  0  0  0  0  0  0  0  0  0
  141.6348   78.1888  220.7290 H   0  0  0  0  0  0  0  0  0  0  0  0
  141.1231   75.8520  221.4741 H   0  0  0  0  0  0  0  0  0  0  0  0
  140.7913   77.1004  222.7333 H   0  0  0  0  0  0  0  0  0  0  0  0
  140.4245   73.8665  222.7195 H   0  0  0  0  0  0  0  0  0  0  0  0
  141.3182   73.3978  220.7042 H   0  0  0  0  0  0  0  0  0  0  0  0
  139.7554   72.7949  220.0555 H   0  0  0  0  0  0  0  0  0  0  0  0
  140.1082   74.5562  220.0555 H   0  0  0  0  0  0  0  0  0  0  0  0
  138.3600   72.6390  223.1810 H   0  0  0  0  0  0  0  0  0  0  0  0
  139.0906   70.5042  221.9106 H   0  0  0  0  0  0  0  0  0  0  0  0
  140.5885   71.5017  221.7798 H   0  0  0  0  0  0  0  0  0  0  0  0
  141.0179   72.8888  224.1960 H   0  0  0  0  0  0  0  0  0  0  0  0
  141.5068   72.1652  226.5468 H   0  0  0  0  0  0  0  0  0  0  0  0
  141.3409   70.4837  228.3046 H   0  0  0  0  0  0  0  0  0  0  0  0
  139.3555   66.7321  227.5790 H   0  0  0  0  0  0  0  0  0  0  0  0
  138.8773   67.4733  225.2382 H   0  0  0  0  0  0  0  0  0  0  0  0
  139.0405   69.1003  223.5426 H   0  0  0  0  0  0  0  0  0  0  0  0
  137.6150   77.3267  220.8340 H   0  0  0  0  0  0  0  0  0  0  0  0
  137.2919   77.0699  222.5641 H   0  0  0  0  0  0  0  0  0  0  0  0
  138.0144   79.3866  222.2691 H   0  0  0  0  0  0  0  0  0  0  0  0
  139.3505   78.5095  223.0675 H   0  0  0  0  0  0  0  0  0  0  0  0
  1  2  1  0
  2  3  1  0
  3  4  2  0
  3  5  1  0
  5  6  1  0
  6  7  2  0
  7  8  1  0
  8  9  2  0
  9 10  1  0
 10 11  2  0
  5 12  1  0
 12 13  1  0
 13 14  1  0
 14 15  1  0
 15 16  1  0
 16 17  2  0
 16 18  1  0
 18 19  1  0
 18 20  1  0
 20 21  1  0
 21 22  1  0
 22 23  2  0
 23 24  1  0
 24 25  2  0
 25 26  1  0
 26 27  2  0
 27 28  1  0
 27 29  1  0
 29 30  2  0
 30 31  1  0
 31 32  2  0
 15 33  1  0
 33 34  1  0
 11  6  1  0
 34 12  1  0
 32 22  1  0
 31 25  1  0
  1 35  1  0
  1 36  1  0
  1 37  1  0
  2 38  1  0
  2 39  1  0
  7 40  1  0
  8 41  1  0
  9 42  1  0
 10 43  1  0
 11 44  1  0
 12 45  1  0
 13 46  1  0
 13 47  1  0
 14 48  1  0
 14 49  1  0
 18 50  1  1
 19 51  1  0
 19 52  1  0
 19 53  1  0
 20 54  1  0
 21 55  1  0
 21 56  1  0
 23 57  1  0
 24 58  1  0
 26 59  1  0
 29 60  1  0
 30 61  1  0
 32 62  1  0
 33 63  1  0
 33 64  1  0
 34 65  1  0
 34 66  1  0
M  END
>  <smiles>  (22) 
CCC(=O)N(c1ccccc1)C1CCN(C(=O)[C@H](C)NCc2ccc3cc(F)ccc3c2)CC1

>  <score_type>  (22) 
oracle

>  <origin>  (22) 
autodockgpu

>  <m_score__min__energy>  (22) 
-9.0899999999999999

>  <m_primary>  (22) 
energy

>  <rmsd>  (22) 
8.286829334162288

>  <m_score__min__rmsd>  (22) 
8.286829334162288

>  <meeko>  (22) 
{"free_energy": -8.8, "intermolecular_energy": -11.19, "internal_energy": -2.0, "cluster_size": 28, "cluster_id": 3, "rank_in_cluster": 9}

>  <energy>  (22) 
-8.87

>  <cluster_rmsd>  (22) 
1.56

>  <cluster>  (22) 
3

$$$$

     RDKit          3D

 66 69  0  0  0  0  0  0  0  0999 V2000
  141.0570   82.2860  220.2220 C   0  0  0  0  0  0  0  0  0  0  0  0
  141.4470   82.7390  221.6010 C   0  0  0  0  0  0  0  0  0  0  0  0
  141.4310   81.5770  222.5610 C   0  0  0  0  0  0  0  0  0  0  0  0
  142.2740   81.5430  223.4960 O   0  0  0  0  0  0  0  0  0  0  0  0
  140.4780   80.5300  222.4180 N   0  0  0  0  0  0  0  0  0  0  0  0
  139.1730   80.7790  222.9220 C   0  0  0  0  0  0  0  0  0  0  0  0
  138.1850   81.4120  222.1990 C   0  0  0  0  0  0  0  0  0  0  0  0
  136.9320   81.6220  222.7640 C   0  0  0  0  0  0  0  0  0  0  0  0
  136.6510   81.2050  224.0530 C   0  0  0  0  0  0  0  0  0  0  0  0
  137.6440   80.5670  224.7830 C   0  0  0  0  0  0  0  0  0  0  0  0
  138.8860   80.3630  224.2150 C   0  0  0  0  0  0  0  0  0  0  0  0
  140.8600   79.2900  221.7770 C   0  0  0  0  0  0  0  0  0  0  0  0
  141.4340   78.2670  222.7030 C   0  0  0  0  0  0  0  0  0  0  0  0
  140.6160   76.9720  222.6890 C   0  0  0  0  0  0  0  0  0  0  0  0
  140.5030   76.4590  221.3430 N   0  0  0  0  0  0  0  0  0  0  0  0
  140.6330   75.1070  220.9670 C   0  0  0  0  0  0  0  0  0  0  0  0
  140.4900   74.7490  219.7480 O   0  0  0  0  0  0  0  0  0  0  0  0
  140.9360   73.9980  221.9150 C   0  0  2  0  0  0  0  0  0  0  0  0
  141.7560   72.9690  221.1940 C   0  0  0  0  0  0  0  0  0  0  0  0
  139.6770   73.4130  222.3500 N   0  0  0  0  0  0  0  0  0  0  0  0
  139.5390   72.0190  222.0090 C   0  0  0  0  0  0  0  0  0  0  0  0
  139.5490   71.1660  223.2520 C   0  0  0  0  0  0  0  0  0  0  0  0
  138.9080   69.9470  223.2960 C   0  0  0  0  0  0  0  0  0  0  0  0
  138.9850   69.2530  224.4940 C   0  0  0  0  0  0  0  0  0  0  0  0
  139.6760   69.7740  225.5810 C   0  0  0  0  0  0  0  0  0  0  0  0
  139.7660   69.0990  226.7840 C   0  0  0  0  0  0  0  0  0  0  0  0
  140.4570   69.6290  227.8580 C   0  0  0  0  0  0  0  0  0  0  0  0
  140.5550   68.9810  229.0430 F   0  0  0  0  0  0  0  0  0  0  0  0
  141.0860   70.8590  227.7690 C   0  0  0  0  0  0  0  0  0  0  0  0
  141.0070   71.5480  226.5730 C   0  0  0  0  0  0  0  0  0  0  0  0
  140.3110   70.9980  225.5120 C   0  0  0  0  0  0  0  0  0  0  0  0
  140.2400   71.6940  224.3310 C   0  0  0  0  0  0  0  0  0  0  0  0
  140.2380   77.4460  220.2950 C   0  0  0  0  0  0  0  0  0  0  0  0
  139.7260   78.6940  220.9800 C   0  0  0  0  0  0  0  0  0  0  0  0
  140.3410   81.4544  220.2980 H   0  0  0  0  0  0  0  0  0  0  0  0
  140.5916   83.1220  219.6793 H   0  0  0  0  0  0  0  0  0  0  0  0
  141.9529   81.9501  219.6793 H   0  0  0  0  0  0  0  0  0  0  0  0
  142.4593   83.1682  221.5686 H   0  0  0  0  0  0  0  0  0  0  0  0
  140.7261   83.4953  221.9449 H   0  0  0  0  0  0  0  0  0  0  0  0
  138.3882   81.7518  221.1727 H   0  0  0  0  0  0  0  0  0  0  0  0
  136.1515   82.1279  222.1767 H   0  0  0  0  0  0  0  0  0  0  0  0
  135.6570   81.3763  224.4919 H   0  0  0  0  0  0  0  0  0  0  0  0
  137.4427   80.2255  225.8091 H   0  0  0  0  0  0  0  0  0  0  0  0
  139.6676   79.8582  224.8018 H   0  0  0  0  0  0  0  0  0  0  0  0
  141.6709   79.5760  221.0909 H   0  0  0  0  0  0  0  0  0  0  0  0
  142.4646   78.0417  222.3914 H   0  0  0  0  0  0  0  0  0  0  0  0
  141.4129   78.6764  223.7238 H   0  0  0  0  0  0  0  0  0  0  0  0
  141.1141   76.2224  223.3214 H   0  0  0  0  0  0  0  0  0  0  0  0
  139.6078   77.1840  223.0746 H   0  0  0  0  0  0  0  0  0  0  0  0
  141.4941   74.3653  222.7889 H   0  0  0  0  0  0  0  0  0  0  0  0
  142.2670   72.3278  221.9273 H   0  0  0  0  0  0  0  0  0  0  0  0
  141.0987   72.3527  220.5631 H   0  0  0  0  0  0  0  0  0  0  0  0
  142.5035   73.4721  220.5631 H   0  0  0  0  0  0  0  0  0  0  0  0
  139.5580   73.5020  223.3780 H   0  0  0  0  0  0  0  0  0  0  0  0
  138.5887   71.8695  221.4755 H   0  0  0  0  0  0  0  0  0  0  0  0
  140.3843   71.7246  221.3696 H   0  0  0  0  0  0  0  0  0  0  0  0
  138.3646   69.5461  222.4277 H   0  0  0  0  0  0  0  0  0  0  0  0
  138.4911   68.2743  224.5852 H   0  0  0  0  0  0  0  0  0  0  0  0
  139.2774   68.1191  226.8891 H   0  0  0  0  0  0  0  0  0  0  0  0
  141.6338   71.2768  228.6266 H   0  0  0  0  0  0  0  0  0  0  0  0
  141.4949   72.5280  226.4659 H   0  0  0  0  0  0  0  0  0  0  0  0
  140.7328   72.6733  224.2408 H   0  0  0  0  0  0  0  0  0  0  0  0
  141.1637   77.6702  219.7447 H   0  0  0  0  0  0  0  0  0  0  0  0
  139.5002   77.0638  219.5741 H   0  0  0  0  0  0  0  0  0  0  0  0
  139.3792   79.4170  220.2270 H   0  0  0  0  0  0  0  0  0  0  0  0
  138.8834   78.4467  221.6424 H   0  0  0  0  0  0  0  0  0  0  0  0
  1  2  1  0
  2  3  1  0
  3  4  2  0
  3  5  1  0
  5  6  1  0
  6  7  2  0
  7  8  1  0
  8  9  2  0
  9 10  1  0
 10 11  2  0
  5 12  1  0
 12 13  1  0
 13 14  1  0
 14 15  1  0
 15 16  1  0
 16 17  2  0
 16 18  1  0
 18 19  1  0
 18 20  1  0
 20 21  1  0
 21 22  1  0
 22 23  2  0
 23 24  1  0
 24 25  2  0
 25 26  1  0
 26 27  2  0
 27 28  1  0
 27 29  1  0
 29 30  2  0
 30 31  1  0
 31 32  2  0
 15 33  1  0
 33 34  1  0
 11  6  1  0
 34 12  1  0
 32 22  1  0
 31 25  1  0
  1 35  1  0
  1 36  1  0
  1 37  1  0
  2 38  1  0
  2 39  1  0
  7 40  1  0
  8 41  1  0
  9 42  1  0
 10 43  1  0
 11 44  1  0
 12 45  1  0
 13 46  1  0
 13 47  1  0
 14 48  1  0
 14 49  1  0
 18 50  1  1
 19 51  1  0
 19 52  1  0
 19 53  1  0
 20 54  1  0
 21 55  1  0
 21 56  1  0
 23 57  1  0
 24 58  1  0
 26 59  1  0
 29 60  1  0
 30 61  1  0
 32 62  1  0
 33 63  1  0
 33 64  1  0
 34 65  1  0
 34 66  1  0
M  END
>  <smiles>  (23) 
CCC(=O)N(c1ccccc1)C1CCN(C(=O)[C@H](C)NCc2ccc3cc(F)ccc3c2)CC1

>  <score_type>  (23) 
oracle

>  <origin>  (23) 
autodockgpu

>  <m_score__min__energy>  (23) 
-9.0899999999999999

>  <m_primary>  (23) 
energy

>  <rmsd>  (23) 
8.804989723835668

>  <m_score__min__rmsd>  (23) 
8.804989723835668

>  <meeko>  (23) 
{"free_energy": -8.68, "intermolecular_energy": -11.06, "internal_energy": -1.65, "cluster_size": 9, "cluster_id": 1, "rank_in_cluster": 8}

>  <energy>  (23) 
-8.87

>  <cluster_rmsd>  (23) 
0.34

>  <cluster>  (23) 
3

$$$$

     RDKit          3D

 66 69  0  0  0  0  0  0  0  0999 V2000
  142.5030   79.6720  217.6730 C   0  0  0  0  0  0  0  0  0  0  0  0
  142.1500   80.4180  218.9290 C   0  0  0  0  0  0  0  0  0  0  0  0
  141.1180   79.6560  219.7210 C   0  0  0  0  0  0  0  0  0  0  0  0
  139.9210   79.6620  219.3310 O   0  0  0  0  0  0  0  0  0  0  0  0
  141.4870   78.9390  220.8930 N   0  0  0  0  0  0  0  0  0  0  0  0
  141.8380   79.7120  222.0320 C   0  0  0  0  0  0  0  0  0  0  0  0
  143.1080   79.7520  222.5640 C   0  0  0  0  0  0  0  0  0  0  0  0
  143.3720   80.5300  223.6850 C   0  0  0  0  0  0  0  0  0  0  0  0
  142.3750   81.2760  224.2880 C   0  0  0  0  0  0  0  0  0  0  0  0
  141.0940   81.2380  223.7540 C   0  0  0  0  0  0  0  0  0  0  0  0
  140.8400   80.4610  222.6410 C   0  0  0  0  0  0  0  0  0  0  0  0
  141.4850   77.4920  220.8830 C   0  0  0  0  0  0  0  0  0  0  0  0
  140.5340   76.8680  221.8520 C   0  0  0  0  0  0  0  0  0  0  0  0
  139.5120   75.9740  221.1420 C   0  0  0  0  0  0  0  0  0  0  0  0
  140.1830   74.9730  220.3460 N   0  0  0  0  0  0  0  0  0  0  0  0
  139.8180   73.6150  220.2580 C   0  0  0  0  0  0  0  0  0  0  0  0
  140.4630   72.8100  219.5030 O   0  0  0  0  0  0  0  0  0  0  0  0
  138.6850   73.0010  221.0070 C   0  0  2  0  0  0  0  0  0  0  0  0
  137.4710   73.8640  220.8240 C   0  0  0  0  0  0  0  0  0  0  0  0
  139.0460   72.9450  222.4150 N   0  0  0  0  0  0  0  0  0  0  0  0
  140.3040   72.2860  222.6640 C   0  0  0  0  0  0  0  0  0  0  0  0
  140.1490   71.2370  223.7360 C   0  0  0  0  0  0  0  0  0  0  0  0
  139.5490   70.0230  223.4760 C   0  0  0  0  0  0  0  0  0  0  0  0
  139.4630   69.1380  224.5410 C   0  0  0  0  0  0  0  0  0  0  0  0
  139.9590   69.4740  225.7940 C   0  0  0  0  0  0  0  0  0  0  0  0
  139.8830   68.6070  226.8680 C   0  0  0  0  0  0  0  0  0  0  0  0
  140.3820   68.9540  228.1110 C   0  0  0  0  0  0  0  0  0  0  0  0
  140.3160   68.1170  229.1730 F   0  0  0  0  0  0  0  0  0  0  0  0
  140.9760   70.1850  228.3260 C   0  0  0  0  0  0  0  0  0  0  0  0
  141.0610   71.0640  227.2620 C   0  0  0  0  0  0  0  0  0  0  0  0
  140.5560   70.6960  226.0290 C   0  0  0  0  0  0  0  0  0  0  0  0
  140.6470   71.5810  224.9830 C   0  0  0  0  0  0  0  0  0  0  0  0
  141.3420   75.4280  219.5780 C   0  0  0  0  0  0  0  0  0  0  0  0
  141.2580   76.9360  219.4990 C   0  0  0  0  0  0  0  0  0  0  0  0
  142.9599   78.7066  217.9361 H   0  0  0  0  0  0  0  0  0  0  0  0
  141.5919   79.4975  217.0818 H   0  0  0  0  0  0  0  0  0  0  0  0
  143.2156   80.2659  217.0818 H   0  0  0  0  0  0  0  0  0  0  0  0
  143.0550   80.5456  219.5412 H   0  0  0  0  0  0  0  0  0  0  0  0
  141.7364   81.4001  218.6561 H   0  0  0  0  0  0  0  0  0  0  0  0
  143.9155   79.1665  222.1002 H   0  0  0  0  0  0  0  0  0  0  0  0
  144.3906   80.5530  224.0997 H   0  0  0  0  0  0  0  0  0  0  0  0
  142.5935   81.8886  225.1751 H   0  0  0  0  0  0  0  0  0  0  0  0
  140.2853   81.8240  224.2152 H   0  0  0  0  0  0  0  0  0  0  0  0
  139.8214   80.4348  222.2265 H   0  0  0  0  0  0  0  0  0  0  0  0
  142.4954   77.2170  221.2199 H   0  0  0  0  0  0  0  0  0  0  0  0
  141.1035   76.2591  222.5695 H   0  0  0  0  0  0  0  0  0  0  0  0
  139.9887   77.6731  222.3663 H   0  0  0  0  0  0  0  0  0  0  0  0
  138.8821   75.4762  221.8940 H   0  0  0  0  0  0  0  0  0  0  0  0
  138.8920   76.5975  220.4811 H   0  0  0  0  0  0  0  0  0  0  0  0
  138.4718   71.9864  220.6396 H   0  0  0  0  0  0  0  0  0  0  0  0
  137.0713   74.1481  221.8086 H   0  0  0  0  0  0  0  0  0  0  0  0
  137.7463   74.7703  220.2646 H   0  0  0  0  0  0  0  0  0  0  0  0
  136.7055   73.3062  220.2646 H   0  0  0  0  0  0  0  0  0  0  0  0
  139.1010   73.8980  222.8250 H   0  0  0  0  0  0  0  0  0  0  0  0
  140.6513   71.8070  221.7367 H   0  0  0  0  0  0  0  0  0  0  0  0
  141.0361   73.0341  223.0023 H   0  0  0  0  0  0  0  0  0  0  0  0
  139.1598   69.7701  222.4787 H   0  0  0  0  0  0  0  0  0  0  0  0
  138.9944   68.1543  224.3906 H   0  0  0  0  0  0  0  0  0  0  0  0
  139.4160   67.6205  226.7316 H   0  0  0  0  0  0  0  0  0  0  0  0
  141.3699   70.4570  229.3164 H   0  0  0  0  0  0  0  0  0  0  0  0
  141.5280   72.0509  227.3960 H   0  0  0  0  0  0  0  0  0  0  0  0
  141.1158   72.5644  225.1349 H   0  0  0  0  0  0  0  0  0  0  0  0
  142.2715   75.1277  220.0838 H   0  0  0  0  0  0  0  0  0  0  0  0
  141.3450   74.9825  218.5723 H   0  0  0  0  0  0  0  0  0  0  0  0
  142.0292   77.3168  218.8132 H   0  0  0  0  0  0  0  0  0  0  0  0
  140.2712   77.2432  219.1224 H   0  0  0  0  0  0  0  0  0  0  0  0
  1  2  1  0
  2  3  1  0
  3  4  2  0
  3  5  1  0
  5  6  1  0
  6  7  2  0
  7  8  1  0
  8  9  2  0
  9 10  1  0
 10 11  2  0
  5 12  1  0
 12 13  1  0
 13 14  1  0
 14 15  1  0
 15 16  1  0
 16 17  2  0
 16 18  1  0
 18 19  1  0
 18 20  1  0
 20 21  1  0
 21 22  1  0
 22 23  2  0
 23 24  1  0
 24 25  2  0
 25 26  1  0
 26 27  2  0
 27 28  1  0
 27 29  1  0
 29 30  2  0
 30 31  1  0
 31 32  2  0
 15 33  1  0
 33 34  1  0
 11  6  1  0
 34 12  1  0
 32 22  1  0
 31 25  1  0
  1 35  1  0
  1 36  1  0
  1 37  1  0
  2 38  1  0
  2 39  1  0
  7 40  1  0
  8 41  1  0
  9 42  1  0
 10 43  1  0
 11 44  1  0
 12 45  1  0
 13 46  1  0
 13 47  1  0
 14 48  1  0
 14 49  1  0
 18 50  1  6
 19 51  1  0
 19 52  1  0
 19 53  1  0
 20 54  1  0
 21 55  1  0
 21 56  1  0
 23 57  1  0
 24 58  1  0
 26 59  1  0
 29 60  1  0
 30 61  1  0
 32 62  1  0
 33 63  1  0
 33 64  1  0
 34 65  1  0
 34 66  1  0
M  END
>  <smiles>  (24) 
CCC(=O)N(c1ccccc1)C1CCN(C(=O)[C@H](C)NCc2ccc3cc(F)ccc3c2)CC1

>  <score_type>  (24) 
oracle

>  <origin>  (24) 
autodockgpu

>  <m_score__min__energy>  (24) 
-9.0899999999999999

>  <m_primary>  (24) 
energy

>  <rmsd>  (24) 
8.71503684874747

>  <m_score__min__rmsd>  (24) 
8.71503684874747

>  <meeko>  (24) 
{"free_energy": -8.87, "intermolecular_energy": -11.26, "internal_energy": -1.58, "cluster_size": 28, "cluster_id": 3, "rank_in_cluster": 5}

>  <energy>  (24) 
-8.84

>  <cluster_rmsd>  (24) 
0.48

>  <cluster>  (24) 
3

$$$$

     RDKit          3D

 66 69  0  0  0  0  0  0  0  0999 V2000
  142.9130   80.8690  224.2220 C   0  0  0  0  0  0  0  0  0  0  0  0
  142.9780   80.5020  222.7660 C   0  0  0  0  0  0  0  0  0  0  0  0
  141.9210   81.2440  221.9890 C   0  0  0  0  0  0  0  0  0  0  0  0
  141.5360   82.3700  222.4000 O   0  0  0  0  0  0  0  0  0  0  0  0
  141.3610   80.6840  220.8070 N   0  0  0  0  0  0  0  0  0  0  0  0
  141.7430   81.2790  219.5740 C   0  0  0  0  0  0  0  0  0  0  0  0
  142.5560   80.6600  218.6500 C   0  0  0  0  0  0  0  0  0  0  0  0
  142.8880   81.3090  217.4660 C   0  0  0  0  0  0  0  0  0  0  0  0
  142.4140   82.5800  217.1910 C   0  0  0  0  0  0  0  0  0  0  0  0
  141.5950   83.2050  218.1200 C   0  0  0  0  0  0  0  0  0  0  0  0
  141.2710   82.5530  219.2940 C   0  0  0  0  0  0  0  0  0  0  0  0
  140.4550   79.5590  220.9000 C   0  0  0  0  0  0  0  0  0  0  0  0
  140.8430   78.3820  220.0660 C   0  0  0  0  0  0  0  0  0  0  0  0
  141.0490   77.1280  220.9230 C   0  0  0  0  0  0  0  0  0  0  0  0
  139.8680   76.8510  221.7070 N   0  0  0  0  0  0  0  0  0  0  0  0
  139.2980   75.5790  221.9090 C   0  0  0  0  0  0  0  0  0  0  0  0
  138.2620   75.4330  222.6430 O   0  0  0  0  0  0  0  0  0  0  0  0
  139.8240   74.3190  221.3110 C   0  0  2  0  0  0  0  0  0  0  0  0
  139.1420   74.1000  219.9910 C   0  0  0  0  0  0  0  0  0  0  0  0
  139.5170   73.2220  222.2160 N   0  0  0  0  0  0  0  0  0  0  0  0
  140.6550   72.3920  222.5250 C   0  0  0  0  0  0  0  0  0  0  0  0
  140.3240   71.4330  223.6390 C   0  0  0  0  0  0  0  0  0  0  0  0
  139.5980   70.2840  223.4120 C   0  0  0  0  0  0  0  0  0  0  0  0
  139.3550   69.4800  224.5150 C   0  0  0  0  0  0  0  0  0  0  0  0
  139.8250   69.8290  225.7740 C   0  0  0  0  0  0  0  0  0  0  0  0
  139.5940   69.0410  226.8870 C   0  0  0  0  0  0  0  0  0  0  0  0
  140.0690   69.4010  228.1350 C   0  0  0  0  0  0  0  0  0  0  0  0
  139.8520   68.6410  229.2350 F   0  0  0  0  0  0  0  0  0  0  0  0
  140.7940   70.5650  228.3180 C   0  0  0  0  0  0  0  0  0  0  0  0
  141.0350   71.3650  227.2160 C   0  0  0  0  0  0  0  0  0  0  0  0
  140.5510   70.9850  225.9770 C   0  0  0  0  0  0  0  0  0  0  0  0
  140.7980   71.7900  224.8920 C   0  0  0  0  0  0  0  0  0  0  0  0
  139.2210   78.0060  222.3310 C   0  0  0  0  0  0  0  0  0  0  0  0
  140.2280   79.1340  222.3300 C   0  0  0  0  0  0  0  0  0  0  0  0
  143.0724   79.9692  224.8344 H   0  0  0  0  0  0  0  0  0  0  0  0
  143.6939   81.6098  224.4486 H   0  0  0  0  0  0  0  0  0  0  0  0
  141.9251   81.2966  224.4486 H   0  0  0  0  0  0  0  0  0  0  0  0
  143.9701   80.7646  222.3701 H   0  0  0  0  0  0  0  0  0  0  0  0
  142.8036   79.4209  222.6626 H   0  0  0  0  0  0  0  0  0  0  0  0
  142.9434   79.6500  218.8494 H   0  0  0  0  0  0  0  0  0  0  0  0
  143.5379   80.8042  216.7361 H   0  0  0  0  0  0  0  0  0  0  0  0
  142.6822   83.0859  216.2518 H   0  0  0  0  0  0  0  0  0  0  0  0
  141.2055   84.2147  217.9228 H   0  0  0  0  0  0  0  0  0  0  0  0
  140.6222   83.0570  220.0255 H   0  0  0  0  0  0  0  0  0  0  0  0
  139.5095   79.9349  220.4819 H   0  0  0  0  0  0  0  0  0  0  0  0
  140.0473   78.1864  219.3321 H   0  0  0  0  0  0  0  0  0  0  0  0
  141.7927   78.6148  219.5621 H   0  0  0  0  0  0  0  0  0  0  0  0
  141.2565   76.2706  220.2659 H   0  0  0  0  0  0  0  0  0  0  0  0
  141.8960   77.2979  221.6039 H   0  0  0  0  0  0  0  0  0  0  0  0
  140.9116   74.3773  221.1569 H   0  0  0  0  0  0  0  0  0  0  0  0
  138.1076   73.7678  220.1634 H   0  0  0  0  0  0  0  0  0  0  0  0
  139.1348   75.0410  219.4214 H   0  0  0  0  0  0  0  0  0  0  0  0
  139.6840   73.3307  219.4214 H   0  0  0  0  0  0  0  0  0  0  0  0
  139.1290   73.5740  223.1120 H   0  0  0  0  0  0  0  0  0  0  0  0
  140.9401   71.8210  221.6290 H   0  0  0  0  0  0  0  0  0  0  0  0
  141.4871   73.0357  222.8463 H   0  0  0  0  0  0  0  0  0  0  0  0
  139.2310   70.0189  222.4095 H   0  0  0  0  0  0  0  0  0  0  0  0
  138.7804   68.5503  224.3907 H   0  0  0  0  0  0  0  0  0  0  0  0
  139.0206   68.1087  226.7773 H   0  0  0  0  0  0  0  0  0  0  0  0
  141.1686   70.8466  229.3132 H   0  0  0  0  0  0  0  0  0  0  0  0
  141.6080   72.2977  227.3240 H   0  0  0  0  0  0  0  0  0  0  0  0
  141.3728   72.7195  225.0173 H   0  0  0  0  0  0  0  0  0  0  0  0
  138.3294   78.2956  221.7555 H   0  0  0  0  0  0  0  0  0  0  0  0
  138.9001   77.7686  223.3560 H   0  0  0  0  0  0  0  0  0  0  0  0
  139.8390   79.9815  222.9135 H   0  0  0  0  0  0  0  0  0  0  0  0
  141.1734   78.8010  222.7831 H   0  0  0  0  0  0  0  0  0  0  0  0
  1  2  1  0
  2  3  1  0
  3  4  2  0
  3  5  1  0
  5  6  1  0
  6  7  2  0
  7  8  1  0
  8  9  2  0
  9 10  1  0
 10 11  2  0
  5 12  1  0
 12 13  1  0
 13 14  1  0
 14 15  1  0
 15 16  1  0
 16 17  2  0
 16 18  1  0
 18 19  1  0
 18 20  1  0
 20 21  1  0
 21 22  1  0
 22 23  2  0
 23 24  1  0
 24 25  2  0
 25 26  1  0
 26 27  2  0
 27 28  1  0
 27 29  1  0
 29 30  2  0
 30 31  1  0
 31 32  2  0
 15 33  1  0
 33 34  1  0
 11  6  1  0
 34 12  1  0
 32 22  1  0
 31 25  1  0
  1 35  1  0
  1 36  1  0
  1 37  1  0
  2 38  1  0
  2 39  1  0
  7 40  1  0
  8 41  1  0
  9 42  1  0
 10 43  1  0
 11 44  1  0
 12 45  1  0
 13 46  1  0
 13 47  1  0
 14 48  1  0
 14 49  1  0
 18 50  1  6
 19 51  1  0
 19 52  1  0
 19 53  1  0
 20 54  1  0
 21 55  1  0
 21 56  1  0
 23 57  1  0
 24 58  1  0
 26 59  1  0
 29 60  1  0
 30 61  1  0
 32 62  1  0
 33 63  1  0
 33 64  1  0
 34 65  1  0
 34 66  1  0
M  END
>  <smiles>  (25) 
CCC(=O)N(c1ccccc1)C1CCN(C(=O)[C@H](C)NCc2ccc3cc(F)ccc3c2)CC1

>  <score_type>  (25) 
oracle

>  <origin>  (25) 
autodockgpu

>  <m_score__min__energy>  (25) 
-9.0899999999999999

>  <m_primary>  (25) 
energy

>  <rmsd>  (25) 
8.617808886765634

>  <m_score__min__rmsd>  (25) 
8.617808886765634

>  <meeko>  (25) 
{"free_energy": -9.07, "intermolecular_energy": -11.46, "internal_energy": -2.07, "cluster_size": 8, "cluster_id": 2, "rank_in_cluster": 1}

>  <energy>  (25) 
-8.83

>  <cluster_rmsd>  (25) 
1.6

>  <cluster>  (25) 
3

$$$$

     RDKit          3D

 66 69  0  0  0  0  0  0  0  0999 V2000
  141.8500   79.3200  224.2180 C   0  0  0  0  0  0  0  0  0  0  0  0
  141.8900   80.6670  223.5520 C   0  0  0  0  0  0  0  0  0  0  0  0
  140.9250   80.7100  222.3950 C   0  0  0  0  0  0  0  0  0  0  0  0
  141.2810   81.2650  221.3220 O   0  0  0  0  0  0  0  0  0  0  0  0
  139.6290   80.1350  222.5080 N   0  0  0  0  0  0  0  0  0  0  0  0
  138.6580   80.8810  223.2300 C   0  0  0  0  0  0  0  0  0  0  0  0
  137.9160   81.9010  222.6770 C   0  0  0  0  0  0  0  0  0  0  0  0
  136.9870   82.5870  223.4500 C   0  0  0  0  0  0  0  0  0  0  0  0
  136.7870   82.2640  224.7810 C   0  0  0  0  0  0  0  0  0  0  0  0
  137.5330   81.2370  225.3400 C   0  0  0  0  0  0  0  0  0  0  0  0
  138.4550   80.5610  224.5650 C   0  0  0  0  0  0  0  0  0  0  0  0
  139.3530   78.8520  221.8970 C   0  0  0  0  0  0  0  0  0  0  0  0
  140.5700   78.0550  221.5560 C   0  0  0  0  0  0  0  0  0  0  0  0
  140.5730   76.6990  222.2690 C   0  0  0  0  0  0  0  0  0  0  0  0
  139.3650   75.9670  221.9700 N   0  0  0  0  0  0  0  0  0  0  0  0
  139.2910   74.5920  221.6700 C   0  0  0  0  0  0  0  0  0  0  0  0
  138.1660   74.0300  221.4440 O   0  0  0  0  0  0  0  0  0  0  0  0
  140.4720   73.6870  221.5900 C   0  0  2  0  0  0  0  0  0  0  0  0
  140.3770   72.8940  220.3200 C   0  0  0  0  0  0  0  0  0  0  0  0
  140.4380   72.7920  222.7370 N   0  0  0  0  0  0  0  0  0  0  0  0
  139.3880   71.8060  222.6700 C   0  0  0  0  0  0  0  0  0  0  0  0
  139.5290   70.8050  223.7880 C   0  0  0  0  0  0  0  0  0  0  0  0
  139.0940   69.5040  223.6520 C   0  0  0  0  0  0  0  0  0  0  0  0
  139.2760   68.6760  224.7500 C   0  0  0  0  0  0  0  0  0  0  0  0
  139.8670   69.1480  225.9150 C   0  0  0  0  0  0  0  0  0  0  0  0
  140.0570   68.3390  227.0190 C   0  0  0  0  0  0  0  0  0  0  0  0
  140.6470   68.8230  228.1730 C   0  0  0  0  0  0  0  0  0  0  0  0
  140.8410   68.0440  229.2640 F   0  0  0  0  0  0  0  0  0  0  0  0
  141.0690   70.1380  228.2660 C   0  0  0  0  0  0  0  0  0  0  0  0
  140.8860   70.9610  227.1700 C   0  0  0  0  0  0  0  0  0  0  0  0
  140.2950   70.4560  226.0260 C   0  0  0  0  0  0  0  0  0  0  0  0
  140.1190   71.2860  224.9470 C   0  0  0  0  0  0  0  0  0  0  0  0
  138.1220   76.7400  221.9800 C   0  0  0  0  0  0  0  0  0  0  0  0
  138.4030   78.0240  222.7270 C   0  0  0  0  0  0  0  0  0  0  0  0
  141.8539   79.4507  225.3102 H   0  0  0  0  0  0  0  0  0  0  0  0
  140.9357   78.7884  223.9156 H   0  0  0  0  0  0  0  0  0  0  0  0
  142.7312   78.7351  223.9156 H   0  0  0  0  0  0  0  0  0  0  0  0
  141.6140   81.4411  224.2831 H   0  0  0  0  0  0  0  0  0  0  0  0
  142.9073   80.8486  223.1750 H   0  0  0  0  0  0  0  0  0  0  0  0
  138.0591   82.1733  221.6209 H   0  0  0  0  0  0  0  0  0  0  0  0
  136.4010   83.4000  222.9967 H   0  0  0  0  0  0  0  0  0  0  0  0
  136.0491   82.8124  225.3850 H   0  0  0  0  0  0  0  0  0  0  0  0
  137.3910   80.9622  226.3956 H   0  0  0  0  0  0  0  0  0  0  0  0
  139.0430   79.7488  225.0172 H   0  0  0  0  0  0  0  0  0  0  0  0
  138.8704   79.1036  220.9411 H   0  0  0  0  0  0  0  0  0  0  0  0
  140.5940   77.8871  220.4692 H   0  0  0  0  0  0  0  0  0  0  0  0
  141.4548   78.6194  221.8855 H   0  0  0  0  0  0  0  0  0  0  0  0
  141.4425   76.1152  221.9326 H   0  0  0  0  0  0  0  0  0  0  0  0
  140.6265   76.8684  223.3546 H   0  0  0  0  0  0  0  0  0  0  0  0
  141.4111   74.2597  221.5950 H   0  0  0  0  0  0  0  0  0  0  0  0
  140.2494   71.8285  220.5617 H   0  0  0  0  0  0  0  0  0  0  0  0
  139.5142   73.2429  219.7336 H   0  0  0  0  0  0  0  0  0  0  0  0
  141.2978   73.0292  219.7336 H   0  0  0  0  0  0  0  0  0  0  0  0
  141.3400   72.2880  222.8450 H   0  0  0  0  0  0  0  0  0  0  0  0
  138.4135   72.3090  222.7558 H   0  0  0  0  0  0  0  0  0  0  0  0
  139.4592   71.2765  221.7085 H   0  0  0  0  0  0  0  0  0  0  0  0
  138.6280   69.1422  222.7236 H   0  0  0  0  0  0  0  0  0  0  0  0
  138.9467   67.6278  224.6972 H   0  0  0  0  0  0  0  0  0  0  0  0
  139.7325   67.2887  226.9795 H   0  0  0  0  0  0  0  0  0  0  0  0
  141.5369   70.5178  229.1862 H   0  0  0  0  0  0  0  0  0  0  0  0
  141.2088   72.0119  227.2077 H   0  0  0  0  0  0  0  0  0  0  0  0
  140.4466   72.3347  225.0018 H   0  0  0  0  0  0  0  0  0  0  0  0
  137.8085   76.9638  220.9496 H   0  0  0  0  0  0  0  0  0  0  0  0
  137.3129   76.1740  222.4648 H   0  0  0  0  0  0  0  0  0  0  0  0
  137.4652   78.5773  222.8831 H   0  0  0  0  0  0  0  0  0  0  0  0
  138.8478   77.8038  223.7086 H   0  0  0  0  0  0  0  0  0  0  0  0
  1  2  1  0
  2  3  1  0
  3  4  2  0
  3  5  1  0
  5  6  1  0
  6  7  2  0
  7  8  1  0
  8  9  2  0
  9 10  1  0
 10 11  2  0
  5 12  1  0
 12 13  1  0
 13 14  1  0
 14 15  1  0
 15 16  1  0
 16 17  2  0
 16 18  1  0
 18 19  1  0
 18 20  1  0
 20 21  1  0
 21 22  1  0
 22 23  2  0
 23 24  1  0
 24 25  2  0
 25 26  1  0
 26 27  2  0
 27 28  1  0
 27 29  1  0
 29 30  2  0
 30 31  1  0
 31 32  2  0
 15 33  1  0
 33 34  1  0
 11  6  1  0
 34 12  1  0
 32 22  1  0
 31 25  1  0
  1 35  1  0
  1 36  1  0
  1 37  1  0
  2 38  1  0
  2 39  1  0
  7 40  1  0
  8 41  1  0
  9 42  1  0
 10 43  1  0
 11 44  1  0
 12 45  1  0
 13 46  1  0
 13 47  1  0
 14 48  1  0
 14 49  1  0
 18 50  1  6
 19 51  1  0
 19 52  1  0
 19 53  1  0
 20 54  1  0
 21 55  1  0
 21 56  1  0
 23 57  1  0
 24 58  1  0
 26 59  1  0
 29 60  1  0
 30 61  1  0
 32 62  1  0
 33 63  1  0
 33 64  1  0
 34 65  1  0
 34 66  1  0
M  END
>  <smiles>  (26) 
CCC(=O)N(c1ccccc1)C1CCN(C(=O)[C@H](C)NCc2ccc3cc(F)ccc3c2)CC1

>  <score_type>  (26) 
oracle

>  <origin>  (26) 
autodockgpu

>  <m_score__min__energy>  (26) 
-9.0899999999999999

>  <m_primary>  (26) 
energy

>  <rmsd>  (26) 
9.044542452831331

>  <m_score__min__rmsd>  (26) 
9.044542452831331

>  <meeko>  (26) 
{"free_energy": -8.88, "intermolecular_energy": -11.26, "internal_energy": -1.55, "cluster_size": 9, "cluster_id": 1, "rank_in_cluster": 3}

>  <energy>  (26) 
-8.8

>  <cluster_rmsd>  (26) 
1.7

>  <cluster>  (26) 
3

$$$$

     RDKit          3D

 66 69  0  0  0  0  0  0  0  0999 V2000
  142.5360   81.3960  224.2400 C   0  0  0  0  0  0  0  0  0  0  0  0
  142.4540   80.1590  223.3900 C   0  0  0  0  0  0  0  0  0  0  0  0
  141.4840   80.3650  222.2550 C   0  0  0  0  0  0  0  0  0  0  0  0
  141.8280   81.0810  221.2780 O   0  0  0  0  0  0  0  0  0  0  0  0
  140.1960   79.7620  222.2820 N   0  0  0  0  0  0  0  0  0  0  0  0
  139.1800   80.4530  222.9950 C   0  0  0  0  0  0  0  0  0  0  0  0
  138.8170   80.1490  224.2890 C   0  0  0  0  0  0  0  0  0  0  0  0
  137.8090   80.8700  224.9200 C   0  0  0  0  0  0  0  0  0  0  0  0
  137.1520   81.8990  224.2680 C   0  0  0  0  0  0  0  0  0  0  0  0
  137.5150   82.2070  222.9650 C   0  0  0  0  0  0  0  0  0  0  0  0
  138.5180   81.4850  222.3450 C   0  0  0  0  0  0  0  0  0  0  0  0
  139.9730   78.5070  221.5960 C   0  0  0  0  0  0  0  0  0  0  0  0
  141.1390   77.5740  221.6180 C   0  0  0  0  0  0  0  0  0  0  0  0
  140.7800   76.2380  222.2780 C   0  0  0  0  0  0  0  0  0  0  0  0
  139.6410   75.6410  221.6220 N   0  0  0  0  0  0  0  0  0  0  0  0
  139.5070   74.2770  221.2910 C   0  0  0  0  0  0  0  0  0  0  0  0
  138.4440   73.8390  220.7320 O   0  0  0  0  0  0  0  0  0  0  0  0
  140.5500   73.2450  221.5510 C   0  0  2  0  0  0  0  0  0  0  0  0
  140.4350   72.1800  220.5000 C   0  0  0  0  0  0  0  0  0  0  0  0
  140.3060   72.6720  222.8660 N   0  0  0  0  0  0  0  0  0  0  0  0
  139.1910   71.7580  222.9010 C   0  0  0  0  0  0  0  0  0  0  0  0
  139.3920   70.7190  223.9750 C   0  0  0  0  0  0  0  0  0  0  0  0
  138.9520   69.4220  223.8150 C   0  0  0  0  0  0  0  0  0  0  0  0
  139.1920   68.5560  224.8710 C   0  0  0  0  0  0  0  0  0  0  0  0
  139.8420   68.9890  226.0200 C   0  0  0  0  0  0  0  0  0  0  0  0
  140.0910   68.1420  227.0840 C   0  0  0  0  0  0  0  0  0  0  0  0
  140.7390   68.5870  228.2230 C   0  0  0  0  0  0  0  0  0  0  0  0
  140.9910   67.7710  229.2730 F   0  0  0  0  0  0  0  0  0  0  0  0
  141.1630   69.8990  228.3400 C   0  0  0  0  0  0  0  0  0  0  0  0
  140.9220   70.7600  227.2840 C   0  0  0  0  0  0  0  0  0  0  0  0
  140.2730   70.2930  226.1560 C   0  0  0  0  0  0  0  0  0  0  0  0
  140.0400   71.1600  225.1170 C   0  0  0  0  0  0  0  0  0  0  0  0
  138.5450   76.5470  221.2740 C   0  0  0  0  0  0  0  0  0  0  0  0
  138.7330   77.8050  222.0920 C   0  0  0  0  0  0  0  0  0  0  0  0
  142.5172   81.1126  225.3027 H   0  0  0  0  0  0  0  0  0  0  0  0
  143.4716   81.9309  224.0197 H   0  0  0  0  0  0  0  0  0  0  0  0
  141.6792   82.0498  224.0197 H   0  0  0  0  0  0  0  0  0  0  0  0
  143.4496   79.9345  222.9797 H   0  0  0  0  0  0  0  0  0  0  0  0
  142.1037   79.3216  224.0113 H   0  0  0  0  0  0  0  0  0  0  0  0
  139.3259   79.3339  224.8243 H   0  0  0  0  0  0  0  0  0  0  0  0
  137.5294   80.6185  225.9537 H   0  0  0  0  0  0  0  0  0  0  0  0
  136.3552   82.4633  224.7746 H   0  0  0  0  0  0  0  0  0  0  0  0
  137.0074   83.0216  222.4277 H   0  0  0  0  0  0  0  0  0  0  0  0
  138.7981   81.7348  221.3110 H   0  0  0  0  0  0  0  0  0  0  0  0
  139.8277   78.7940  220.5441 H   0  0  0  0  0  0  0  0  0  0  0  0
  141.4649   77.3854  220.5844 H   0  0  0  0  0  0  0  0  0  0  0  0
  141.9434   78.0423  222.2042 H   0  0  0  0  0  0  0  0  0  0  0  0
  141.6393   75.5552  222.2044 H   0  0  0  0  0  0  0  0  0  0  0  0
  140.5289   76.4184  223.3337 H   0  0  0  0  0  0  0  0  0  0  0  0
  141.5582   73.6838  221.5201 H   0  0  0  0  0  0  0  0  0  0  0  0
  140.3289   71.1977  220.9835 H   0  0  0  0  0  0  0  0  0  0  0  0
  139.5529   72.3773  219.8731 H   0  0  0  0  0  0  0  0  0  0  0  0
  141.3388   72.1844  219.8731 H   0  0  0  0  0  0  0  0  0  0  0  0
  141.1430   72.1650  223.2140 H   0  0  0  0  0  0  0  0  0  0  0  0
  138.2688   72.3202  223.1095 H   0  0  0  0  0  0  0  0  0  0  0  0
  139.1154   71.2523  221.9271 H   0  0  0  0  0  0  0  0  0  0  0  0
  138.4387   69.0924  222.8997 H   0  0  0  0  0  0  0  0  0  0  0  0
  138.8624   67.5091  224.7978 H   0  0  0  0  0  0  0  0  0  0  0  0
  139.7673   67.0924  227.0240 H   0  0  0  0  0  0  0  0  0  0  0  0
  141.6775   70.2479  229.2475 H   0  0  0  0  0  0  0  0  0  0  0  0
  141.2449   71.8100  227.3416 H   0  0  0  0  0  0  0  0  0  0  0  0
  140.3687   72.2071  225.1918 H   0  0  0  0  0  0  0  0  0  0  0  0
  138.5789   76.7859  220.2008 H   0  0  0  0  0  0  0  0  0  0  0  0
  137.5705   76.0832  221.4865 H   0  0  0  0  0  0  0  0  0  0  0  0
  137.8592   78.4622  221.9711 H   0  0  0  0  0  0  0  0  0  0  0  0
  138.8384   77.5538  223.1577 H   0  0  0  0  0  0  0  0  0  0  0  0
  1  2  1  0
  2  3  1  0
  3  4  2  0
  3  5  1  0
  5  6  1  0
  6  7  2  0
  7  8  1  0
  8  9  2  0
  9 10  1  0
 10 11  2  0
  5 12  1  0
 12 13  1  0
 13 14  1  0
 14 15  1  0
 15 16  1  0
 16 17  2  0
 16 18  1  0
 18 19  1  0
 18 20  1  0
 20 21  1  0
 21 22  1  0
 22 23  2  0
 23 24  1  0
 24 25  2  0
 25 26  1  0
 26 27  2  0
 27 28  1  0
 27 29  1  0
 29 30  2  0
 30 31  1  0
 31 32  2  0
 15 33  1  0
 33 34  1  0
 11  6  1  0
 34 12  1  0
 32 22  1  0
 31 25  1  0
  1 35  1  0
  1 36  1  0
  1 37  1  0
  2 38  1  0
  2 39  1  0
  7 40  1  0
  8 41  1  0
  9 42  1  0
 10 43  1  0
 11 44  1  0
 12 45  1  0
 13 46  1  0
 13 47  1  0
 14 48  1  0
 14 49  1  0
 18 50  1  1
 19 51  1  0
 19 52  1  0
 19 53  1  0
 20 54  1  0
 21 55  1  0
 21 56  1  0
 23 57  1  0
 24 58  1  0
 26 59  1  0
 29 60  1  0
 30 61  1  0
 32 62  1  0
 33 63  1  0
 33 64  1  0
 34 65  1  0
 34 66  1  0
M  END
>  <smiles>  (27) 
CCC(=O)N(c1ccccc1)C1CCN(C(=O)[C@H](C)NCc2ccc3cc(F)ccc3c2)CC1

>  <score_type>  (27) 
oracle

>  <origin>  (27) 
autodockgpu

>  <m_score__min__energy>  (27) 
-9.0899999999999999

>  <m_primary>  (27) 
energy

>  <rmsd>  (27) 
9.099472588953628

>  <m_score__min__rmsd>  (27) 
9.099472588953628

>  <meeko>  (27) 
{"free_energy": -8.9, "intermolecular_energy": -11.29, "internal_energy": -1.62, "cluster_size": 9, "cluster_id": 1, "rank_in_cluster": 2}

>  <energy>  (27) 
-8.76

>  <cluster_rmsd>  (27) 
1.39

>  <cluster>  (27) 
3

$$$$

     RDKit          3D

 66 69  0  0  0  0  0  0  0  0999 V2000
  143.2950   80.5130  223.0690 C   0  0  0  0  0  0  0  0  0  0  0  0
  141.8610   80.9610  223.0650 C   0  0  0  0  0  0  0  0  0  0  0  0
  140.9610   79.8500  223.5410 C   0  0  0  0  0  0  0  0  0  0  0  0
  141.3960   79.0330  224.3940 O   0  0  0  0  0  0  0  0  0  0  0  0
  139.6370   79.7210  223.0360 N   0  0  0  0  0  0  0  0  0  0  0  0
  138.6960   80.7030  223.4470 C   0  0  0  0  0  0  0  0  0  0  0  0
  138.2550   81.7240  222.6320 C   0  0  0  0  0  0  0  0  0  0  0  0
  137.3350   82.6500  223.1090 C   0  0  0  0  0  0  0  0  0  0  0  0
  136.8450   82.5700  224.4010 C   0  0  0  0  0  0  0  0  0  0  0  0
  137.2860   81.5430  225.2230 C   0  0  0  0  0  0  0  0  0  0  0  0
  138.2020   80.6270  224.7410 C   0  0  0  0  0  0  0  0  0  0  0  0
  139.3080   78.6290  222.1440 C   0  0  0  0  0  0  0  0  0  0  0  0
  140.3840   77.6030  221.9990 C   0  0  0  0  0  0  0  0  0  0  0  0
  139.8970   76.2130  222.4190 C   0  0  0  0  0  0  0  0  0  0  0  0
  138.7150   75.8440  221.6740 N   0  0  0  0  0  0  0  0  0  0  0  0
  138.4620   74.5770  221.1130 C   0  0  0  0  0  0  0  0  0  0  0  0
  137.3700   74.3420  220.4910 O   0  0  0  0  0  0  0  0  0  0  0  0
  139.4030   73.4240  221.1860 C   0  0  2  0  0  0  0  0  0  0  0  0
  139.4700   72.7810  219.8310 C   0  0  0  0  0  0  0  0  0  0  0  0
  138.8860   72.4750  222.1600 N   0  0  0  0  0  0  0  0  0  0  0  0
  139.6660   71.2660  222.2590 C   0  0  0  0  0  0  0  0  0  0  0  0
  140.0060   70.9720  223.6970 C   0  0  0  0  0  0  0  0  0  0  0  0
  140.6870   71.8810  224.4790 C   0  0  0  0  0  0  0  0  0  0  0  0
  140.9440   71.4990  225.7870 C   0  0  0  0  0  0  0  0  0  0  0  0
  140.5310   70.2620  226.2670 C   0  0  0  0  0  0  0  0  0  0  0  0
  140.7770   69.8620  227.5670 C   0  0  0  0  0  0  0  0  0  0  0  0
  140.3600   68.6280  228.0320 C   0  0  0  0  0  0  0  0  0  0  0  0
  140.5930   68.2200  229.3020 F   0  0  0  0  0  0  0  0  0  0  0  0
  139.6800   67.7450  227.2120 C   0  0  0  0  0  0  0  0  0  0  0  0
  139.4240   68.1300  225.9080 C   0  0  0  0  0  0  0  0  0  0  0  0
  139.8510   69.3690  225.4650 C   0  0  0  0  0  0  0  0  0  0  0  0
  139.5900   69.7360  224.1670 C   0  0  0  0  0  0  0  0  0  0  0  0
  137.7110   76.8940  221.4940 C   0  0  0  0  0  0  0  0  0  0  0  0
  138.0040   77.9690  222.5160 C   0  0  0  0  0  0  0  0  0  0  0  0
  143.6423   80.4045  224.1071 H   0  0  0  0  0  0  0  0  0  0  0  0
  143.3785   79.5460  222.5514 H   0  0  0  0  0  0  0  0  0  0  0  0
  143.9141   81.2605  222.5514 H   0  0  0  0  0  0  0  0  0  0  0  0
  141.7505   81.8280  223.7329 H   0  0  0  0  0  0  0  0  0  0  0  0
  141.5762   81.2352  222.0385 H   0  0  0  0  0  0  0  0  0  0  0  0
  138.6322   81.8058  221.6019 H   0  0  0  0  0  0  0  0  0  0  0  0
  136.9906   83.4598  222.4489 H   0  0  0  0  0  0  0  0  0  0  0  0
  136.1180   83.3084  224.7700 H   0  0  0  0  0  0  0  0  0  0  0  0
  136.9087   81.4582  226.2528 H   0  0  0  0  0  0  0  0  0  0  0  0
  138.5480   79.8172  225.4002 H   0  0  0  0  0  0  0  0  0  0  0  0
  139.2013   79.1056  221.1584 H   0  0  0  0  0  0  0  0  0  0  0  0
  140.7034   77.5667  220.9470 H   0  0  0  0  0  0  0  0  0  0  0  0
  141.2211   77.8870  222.6537 H   0  0  0  0  0  0  0  0  0  0  0  0
  140.6914   75.4773  222.2251 H   0  0  0  0  0  0  0  0  0  0  0  0
  139.6504   76.2314  223.4909 H   0  0  0  0  0  0  0  0  0  0  0  0
  140.4090   73.7515  221.4871 H   0  0  0  0  0  0  0  0  0  0  0  0
  139.5834   71.6930  219.9466 H   0  0  0  0  0  0  0  0  0  0  0  0
  138.5446   72.9964  219.2768 H   0  0  0  0  0  0  0  0  0  0  0  0
  140.3312   73.1825  219.2768 H   0  0  0  0  0  0  0  0  0  0  0  0
  138.8370   72.8990  223.1060 H   0  0  0  0  0  0  0  0  0  0  0  0
  139.0870   70.4271  221.8454 H   0  0  0  0  0  0  0  0  0  0  0  0
  140.6000   71.3986  221.6932 H   0  0  0  0  0  0  0  0  0  0  0  0
  141.0091   72.8567  224.0863 H   0  0  0  0  0  0  0  0  0  0  0  0
  141.4835   72.1862  226.4554 H   0  0  0  0  0  0  0  0  0  0  0  0
  141.3157   70.5393  228.2460 H   0  0  0  0  0  0  0  0  0  0  0  0
  139.3520   66.7641  227.5865 H   0  0  0  0  0  0  0  0  0  0  0  0
  138.8842   67.4550  225.2276 H   0  0  0  0  0  0  0  0  0  0  0  0
  139.0501   69.0480  223.4997 H   0  0  0  0  0  0  0  0  0  0  0  0
  137.7786   77.3106  220.4782 H   0  0  0  0  0  0  0  0  0  0  0  0
  136.6958   76.4922  221.6284 H   0  0  0  0  0  0  0  0  0  0  0  0
  137.1953   78.7147  222.5145 H   0  0  0  0  0  0  0  0  0  0  0  0
  138.0739   77.5287  223.5216 H   0  0  0  0  0  0  0  0  0  0  0  0
  1  2  1  0
  2  3  1  0
  3  4  2  0
  3  5  1  0
  5  6  1  0
  6  7  2  0
  7  8  1  0
  8  9  2  0
  9 10  1  0
 10 11  2  0
  5 12  1  0
 12 13  1  0
 13 14  1  0
 14 15  1  0
 15 16  1  0
 16 17  2  0
 16 18  1  0
 18 19  1  0
 18 20  1  0
 20 21  1  0
 21 22  1  0
 22 23  2  0
 23 24  1  0
 24 25  2  0
 25 26  1  0
 26 27  2  0
 27 28  1  0
 27 29  1  0
 29 30  2  0
 30 31  1  0
 31 32  2  0
 15 33  1  0
 33 34  1  0
 11  6  1  0
 34 12  1  0
 32 22  1  0
 31 25  1  0
  1 35  1  0
  1 36  1  0
  1 37  1  0
  2 38  1  0
  2 39  1  0
  7 40  1  0
  8 41  1  0
  9 42  1  0
 10 43  1  0
 11 44  1  0
 12 45  1  0
 13 46  1  0
 13 47  1  0
 14 48  1  0
 14 49  1  0
 18 50  1  1
 19 51  1  0
 19 52  1  0
 19 53  1  0
 20 54  1  0
 21 55  1  0
 21 56  1  0
 23 57  1  0
 24 58  1  0
 26 59  1  0
 29 60  1  0
 30 61  1  0
 32 62  1  0
 33 63  1  0
 33 64  1  0
 34 65  1  0
 34 66  1  0
M  END
>  <smiles>  (28) 
CCC(=O)N(c1ccccc1)C1CCN(C(=O)[C@H](C)NCc2ccc3cc(F)ccc3c2)CC1

>  <score_type>  (28) 
oracle

>  <origin>  (28) 
autodockgpu

>  <m_score__min__energy>  (28) 
-9.0899999999999999

>  <m_primary>  (28) 
energy

>  <rmsd>  (28) 
8.296419296664403

>  <m_score__min__rmsd>  (28) 
8.296419296664403

>  <meeko>  (28) 
{"free_energy": -8.69, "intermolecular_energy": -11.08, "internal_energy": -1.57, "cluster_size": 9, "cluster_id": 1, "rank_in_cluster": 7}

>  <energy>  (28) 
-8.76

>  <cluster_rmsd>  (28) 
1.99

>  <cluster>  (28) 
3

$$$$

     RDKit          3D

 66 69  0  0  0  0  0  0  0  0999 V2000
  142.2260   80.5400  218.6760 C   0  0  0  0  0  0  0  0  0  0  0  0
  141.4570   81.6790  219.2840 C   0  0  0  0  0  0  0  0  0  0  0  0
  140.2810   81.1580  220.0700 C   0  0  0  0  0  0  0  0  0  0  0  0
  139.1330   81.6150  219.8300 O   0  0  0  0  0  0  0  0  0  0  0  0
  140.4610   80.1640  221.0720 N   0  0  0  0  0  0  0  0  0  0  0  0
  141.3440   80.4820  222.1390 C   0  0  0  0  0  0  0  0  0  0  0  0
  141.0180   81.3370  223.1690 C   0  0  0  0  0  0  0  0  0  0  0  0
  141.9390   81.6010  224.1760 C   0  0  0  0  0  0  0  0  0  0  0  0
  143.1930   81.0170  224.1670 C   0  0  0  0  0  0  0  0  0  0  0  0
  143.5250   80.1560  223.1310 C   0  0  0  0  0  0  0  0  0  0  0  0
  142.6030   79.8990  222.1340 C   0  0  0  0  0  0  0  0  0  0  0  0
  139.7530   78.9050  220.9740 C   0  0  0  0  0  0  0  0  0  0  0  0
  140.6030   77.7490  220.5590 C   0  0  0  0  0  0  0  0  0  0  0  0
  140.5950   76.6360  221.6120 C   0  0  0  0  0  0  0  0  0  0  0  0
  139.2420   76.2190  221.8960 N   0  0  0  0  0  0  0  0  0  0  0  0
  138.8100   74.8870  222.0530 C   0  0  0  0  0  0  0  0  0  0  0  0
  137.5910   74.6200  222.3300 O   0  0  0  0  0  0  0  0  0  0  0  0
  139.6970   73.6960  221.9180 C   0  0  2  0  0  0  0  0  0  0  0  0
  140.1830   73.6240  220.5000 C   0  0  0  0  0  0  0  0  0  0  0  0
  138.9180   72.5090  222.2360 N   0  0  0  0  0  0  0  0  0  0  0  0
  139.7070   71.3060  222.3230 C   0  0  0  0  0  0  0  0  0  0  0  0
  140.0350   70.9900  223.7600 C   0  0  0  0  0  0  0  0  0  0  0  0
  140.7030   71.8890  224.5630 C   0  0  0  0  0  0  0  0  0  0  0  0
  140.9490   71.4870  225.8670 C   0  0  0  0  0  0  0  0  0  0  0  0
  140.5370   70.2410  226.3230 C   0  0  0  0  0  0  0  0  0  0  0  0
  140.7720   69.8200  227.6180 C   0  0  0  0  0  0  0  0  0  0  0  0
  140.3560   68.5760  228.0590 C   0  0  0  0  0  0  0  0  0  0  0  0
  140.5790   68.1500  229.3240 F   0  0  0  0  0  0  0  0  0  0  0  0
  139.6880   67.7050  227.2170 C   0  0  0  0  0  0  0  0  0  0  0  0
  139.4440   68.1100  225.9180 C   0  0  0  0  0  0  0  0  0  0  0  0
  139.8690   69.3570  225.4990 C   0  0  0  0  0  0  0  0  0  0  0  0
  139.6200   69.7450  224.2050 C   0  0  0  0  0  0  0  0  0  0  0  0
  138.2490   77.2860  222.0240 C   0  0  0  0  0  0  0  0  0  0  0  0
  139.0080   78.5750  222.2450 C   0  0  0  0  0  0  0  0  0  0  0  0
  142.6484   79.9143  219.4761 H   0  0  0  0  0  0  0  0  0  0  0  0
  141.5519   79.9334  218.0534 H   0  0  0  0  0  0  0  0  0  0  0  0
  143.0406   80.9385  218.0534 H   0  0  0  0  0  0  0  0  0  0  0  0
  142.1190   82.2461  219.9550 H   0  0  0  0  0  0  0  0  0  0  0  0
  141.0876   82.3307  218.4785 H   0  0  0  0  0  0  0  0  0  0  0  0
  140.0262   81.8120  223.1945 H   0  0  0  0  0  0  0  0  0  0  0  0
  141.6664   82.2852  224.9931 H   0  0  0  0  0  0  0  0  0  0  0  0
  143.9153   81.2318  224.9684 H   0  0  0  0  0  0  0  0  0  0  0  0
  144.5165   79.6805  223.1033 H   0  0  0  0  0  0  0  0  0  0  0  0
  142.8741   79.2152  221.3161 H   0  0  0  0  0  0  0  0  0  0  0  0
  139.0275   79.0629  220.1623 H   0  0  0  0  0  0  0  0  0  0  0  0
  140.2187   77.3457  219.6105 H   0  0  0  0  0  0  0  0  0  0  0  0
  141.6370   78.1062  220.4439 H   0  0  0  0  0  0  0  0  0  0  0  0
  141.1672   75.7759  221.2341 H   0  0  0  0  0  0  0  0  0  0  0  0
  141.0515   77.0179  222.5371 H   0  0  0  0  0  0  0  0  0  0  0  0
  140.5591   73.7656  222.5977 H   0  0  0  0  0  0  0  0  0  0  0  0
  141.2711   73.4628  220.4931 H   0  0  0  0  0  0  0  0  0  0  0  0
  139.6854   72.7898  219.9838 H   0  0  0  0  0  0  0  0  0  0  0  0
  139.9487   74.5667  219.9838 H   0  0  0  0  0  0  0  0  0  0  0  0
  138.4130   72.6230  223.1370 H   0  0  0  0  0  0  0  0  0  0  0  0
  139.1397   70.4693  221.8892 H   0  0  0  0  0  0  0  0  0  0  0  0
  140.6457   71.4565  221.7696 H   0  0  0  0  0  0  0  0  0  0  0  0
  141.0238   72.8727  224.1895 H   0  0  0  0  0  0  0  0  0  0  0  0
  141.4790   72.1656  226.5516 H   0  0  0  0  0  0  0  0  0  0  0  0
  141.3012   70.4882  228.3134 H   0  0  0  0  0  0  0  0  0  0  0  0
  139.3599   66.7168  227.5716 H   0  0  0  0  0  0  0  0  0  0  0  0
  138.9144   67.4435  225.2213 H   0  0  0  0  0  0  0  0  0  0  0  0
  139.0901   69.0661  223.5207 H   0  0  0  0  0  0  0  0  0  0  0  0
  137.6482   77.3546  221.1051 H   0  0  0  0  0  0  0  0  0  0  0  0
  137.5647   77.0858  222.8617 H   0  0  0  0  0  0  0  0  0  0  0  0
  138.3042   79.3854  222.4857 H   0  0  0  0  0  0  0  0  0  0  0  0
  139.7132   78.4631  223.0817 H   0  0  0  0  0  0  0  0  0  0  0  0
  1  2  1  0
  2  3  1  0
  3  4  2  0
  3  5  1  0
  5  6  1  0
  6  7  2  0
  7  8  1  0
  8  9  2  0
  9 10  1  0
 10 11  2  0
  5 12  1  0
 12 13  1  0
 13 14  1  0
 14 15  1  0
 15 16  1  0
 16 17  2  0
 16 18  1  0
 18 19  1  0
 18 20  1  0
 20 21  1  0
 21 22  1  0
 22 23  2  0
 23 24  1  0
 24 25  2  0
 25 26  1  0
 26 27  2  0
 27 28  1  0
 27 29  1  0
 29 30  2  0
 30 31  1  0
 31 32  2  0
 15 33  1  0
 33 34  1  0
 11  6  1  0
 34 12  1  0
 32 22  1  0
 31 25  1  0
  1 35  1  0
  1 36  1  0
  1 37  1  0
  2 38  1  0
  2 39  1  0
  7 40  1  0
  8 41  1  0
  9 42  1  0
 10 43  1  0
 11 44  1  0
 12 45  1  0
 13 46  1  0
 13 47  1  0
 14 48  1  0
 14 49  1  0
 18 50  1  1
 19 51  1  0
 19 52  1  0
 19 53  1  0
 20 54  1  0
 21 55  1  0
 21 56  1  0
 23 57  1  0
 24 58  1  0
 26 59  1  0
 29 60  1  0
 30 61  1  0
 32 62  1  0
 33 63  1  0
 33 64  1  0
 34 65  1  0
 34 66  1  0
M  END
>  <smiles>  (29) 
CCC(=O)N(c1ccccc1)C1CCN(C(=O)[C@H](C)NCc2ccc3cc(F)ccc3c2)CC1

>  <score_type>  (29) 
oracle

>  <origin>  (29) 
autodockgpu

>  <m_score__min__energy>  (29) 
-9.0899999999999999

>  <m_primary>  (29) 
energy

>  <rmsd>  (29) 
8.283844786921176

>  <m_score__min__rmsd>  (29) 
8.283844786921176

>  <meeko>  (29) 
{"free_energy": -8.83, "intermolecular_energy": -11.21, "internal_energy": -2.18, "cluster_size": 28, "cluster_id": 3, "rank_in_cluster": 8}

>  <energy>  (29) 
-8.74

>  <cluster_rmsd>  (29) 
1.96

>  <cluster>  (29) 
3

$$$$

     RDKit          3D

 66 69  0  0  0  0  0  0  0  0999 V2000
  142.5880   77.0910  219.9510 C   0  0  0  0  0  0  0  0  0  0  0  0
  142.0430   77.9440  218.8400 C   0  0  0  0  0  0  0  0  0  0  0  0
  141.1680   79.0370  219.3980 C   0  0  0  0  0  0  0  0  0  0  0  0
  140.9300   80.0510  218.6910 O   0  0  0  0  0  0  0  0  0  0  0  0
  140.6170   78.9310  220.7050 N   0  0  0  0  0  0  0  0  0  0  0  0
  141.2360   79.7020  221.7260 C   0  0  0  0  0  0  0  0  0  0  0  0
  140.8710   80.9950  222.0310 C   0  0  0  0  0  0  0  0  0  0  0  0
  141.5270   81.6860  223.0430 C   0  0  0  0  0  0  0  0  0  0  0  0
  142.5540   81.0970  223.7600 C   0  0  0  0  0  0  0  0  0  0  0  0
  142.9240   79.7950  223.4550 C   0  0  0  0  0  0  0  0  0  0  0  0
  142.2660   79.1160  222.4480 C   0  0  0  0  0  0  0  0  0  0  0  0
  139.4770   78.0710  220.9400 C   0  0  0  0  0  0  0  0  0  0  0  0
  139.4590   76.8270  220.1130 C   0  0  0  0  0  0  0  0  0  0  0  0
  139.4440   75.5690  220.9870 C   0  0  0  0  0  0  0  0  0  0  0  0
  138.3310   75.6050  221.9060 N   0  0  0  0  0  0  0  0  0  0  0  0
  137.4890   74.5190  222.2170 C   0  0  0  0  0  0  0  0  0  0  0  0
  136.5420   74.6450  223.0660 O   0  0  0  0  0  0  0  0  0  0  0  0
  137.6110   73.1620  221.6120 C   0  0  2  0  0  0  0  0  0  0  0  0
  136.3180   72.8290  220.9280 C   0  0  0  0  0  0  0  0  0  0  0  0
  137.8670   72.2080  222.6800 N   0  0  0  0  0  0  0  0  0  0  0  0
  139.2150   71.6970  222.6890 C   0  0  0  0  0  0  0  0  0  0  0  0
  139.3990   70.7070  223.8110 C   0  0  0  0  0  0  0  0  0  0  0  0
  138.9700   69.4010  223.6990 C   0  0  0  0  0  0  0  0  0  0  0  0
  139.1930   68.5840  224.7970 C   0  0  0  0  0  0  0  0  0  0  0  0
  139.8170   69.0710  225.9390 C   0  0  0  0  0  0  0  0  0  0  0  0
  140.0490   68.2730  227.0430 C   0  0  0  0  0  0  0  0  0  0  0  0
  140.6720   68.7710  228.1740 C   0  0  0  0  0  0  0  0  0  0  0  0
  140.9070   68.0030  229.2640 F   0  0  0  0  0  0  0  0  0  0  0  0
  141.0860   70.0900  228.2420 C   0  0  0  0  0  0  0  0  0  0  0  0
  140.8620   70.9020  227.1450 C   0  0  0  0  0  0  0  0  0  0  0  0
  140.2380   70.3830  226.0260 C   0  0  0  0  0  0  0  0  0  0  0  0
  140.0220   71.2020  224.9450 C   0  0  0  0  0  0  0  0  0  0  0  0
  138.0690   76.8900  222.5550 C   0  0  0  0  0  0  0  0  0  0  0  0
  139.3180   77.7280  222.4010 C   0  0  0  0  0  0  0  0  0  0  0  0
  142.3082   77.5289  220.9205 H   0  0  0  0  0  0  0  0  0  0  0  0
  142.1705   76.0763  219.8728 H   0  0  0  0  0  0  0  0  0  0  0  0
  143.6842   77.0435  219.8728 H   0  0  0  0  0  0  0  0  0  0  0  0
  142.8792   78.3961  218.2865 H   0  0  0  0  0  0  0  0  0  0  0  0
  141.4420   77.3137  218.1680 H   0  0  0  0  0  0  0  0  0  0  0  0
  140.0582   81.4818  221.4721 H   0  0  0  0  0  0  0  0  0  0  0  0
  141.2251   82.7174  223.2778 H   0  0  0  0  0  0  0  0  0  0  0  0
  143.0684   81.6519  224.5584 H   0  0  0  0  0  0  0  0  0  0  0  0
  143.7368   79.3062  224.0121 H   0  0  0  0  0  0  0  0  0  0  0  0
  142.5662   78.0843  222.2124 H   0  0  0  0  0  0  0  0  0  0  0  0
  138.6139   78.6707  220.6153 H   0  0  0  0  0  0  0  0  0  0  0  0
  138.5597   76.8324  219.4796 H   0  0  0  0  0  0  0  0  0  0  0  0
  140.3717   76.8087  219.4992 H   0  0  0  0  0  0  0  0  0  0  0  0
  139.3531   74.6819  220.3430 H   0  0  0  0  0  0  0  0  0  0  0  0
  140.3799   75.5250  221.5633 H   0  0  0  0  0  0  0  0  0  0  0  0
  138.4319   73.1272  220.8806 H   0  0  0  0  0  0  0  0  0  0  0  0
  135.5441   72.6297  221.6838 H   0  0  0  0  0  0  0  0  0  0  0  0
  136.0069   73.6763  220.2993 H   0  0  0  0  0  0  0  0  0  0  0  0
  136.4549   71.9368  220.2993 H   0  0  0  0  0  0  0  0  0  0  0  0
  137.6820   72.6300  223.6110 H   0  0  0  0  0  0  0  0  0  0  0  0
  139.4192   71.1986  221.7299 H   0  0  0  0  0  0  0  0  0  0  0  0
  139.9114   72.5354  222.8377 H   0  0  0  0  0  0  0  0  0  0  0  0
  138.4780   69.0280  222.7886 H   0  0  0  0  0  0  0  0  0  0  0  0
  138.8705   67.5329  224.7634 H   0  0  0  0  0  0  0  0  0  0  0  0
  139.7319   67.2199  227.0225 H   0  0  0  0  0  0  0  0  0  0  0  0
  141.5796   70.4816  229.1437 H   0  0  0  0  0  0  0  0  0  0  0  0
  141.1787   71.9553  227.1629 H   0  0  0  0  0  0  0  0  0  0  0  0
  140.3443   72.2532  224.9797 H   0  0  0  0  0  0  0  0  0  0  0  0
  137.2169   77.3902  222.0715 H   0  0  0  0  0  0  0  0  0  0  0  0
  137.8204   76.7489  223.6172 H   0  0  0  0  0  0  0  0  0  0  0  0
  139.2228   78.6508  222.9921 H   0  0  0  0  0  0  0  0  0  0  0  0
  140.1964   77.1710  222.7589 H   0  0  0  0  0  0  0  0  0  0  0  0
  1  2  1  0
  2  3  1  0
  3  4  2  0
  3  5  1  0
  5  6  1  0
  6  7  2  0
  7  8  1  0
  8  9  2  0
  9 10  1  0
 10 11  2  0
  5 12  1  0
 12 13  1  0
 13 14  1  0
 14 15  1  0
 15 16  1  0
 16 17  2  0
 16 18  1  0
 18 19  1  0
 18 20  1  0
 20 21  1  0
 21 22  1  0
 22 23  2  0
 23 24  1  0
 24 25  2  0
 25 26  1  0
 26 27  2  0
 27 28  1  0
 27 29  1  0
 29 30  2  0
 30 31  1  0
 31 32  2  0
 15 33  1  0
 33 34  1  0
 11  6  1  0
 34 12  1  0
 32 22  1  0
 31 25  1  0
  1 35  1  0
  1 36  1  0
  1 37  1  0
  2 38  1  0
  2 39  1  0
  7 40  1  0
  8 41  1  0
  9 42  1  0
 10 43  1  0
 11 44  1  0
 12 45  1  0
 13 46  1  0
 13 47  1  0
 14 48  1  0
 14 49  1  0
 18 50  1  6
 19 51  1  0
 19 52  1  0
 19 53  1  0
 20 54  1  0
 21 55  1  0
 21 56  1  0
 23 57  1  0
 24 58  1  0
 26 59  1  0
 29 60  1  0
 30 61  1  0
 32 62  1  0
 33 63  1  0
 33 64  1  0
 34 65  1  0
 34 66  1  0
M  END
>  <smiles>  (30) 
CCC(=O)N(c1ccccc1)C1CCN(C(=O)[C@H](C)NCc2ccc3cc(F)ccc3c2)CC1

>  <score_type>  (30) 
oracle

>  <origin>  (30) 
autodockgpu

>  <m_score__min__energy>  (30) 
-9.0899999999999999

>  <m_primary>  (30) 
energy

>  <rmsd>  (30) 
9.096787471812947

>  <m_score__min__rmsd>  (30) 
9.096787471812947

>  <meeko>  (30) 
{"free_energy": -8.52, "intermolecular_energy": -10.9, "internal_energy": -1.9, "cluster_size": 28, "cluster_id": 3, "rank_in_cluster": 19}

>  <energy>  (30) 
-8.72

>  <cluster_rmsd>  (30) 
1.75

>  <cluster>  (30) 
3

$$$$

     RDKit          3D

 66 69  0  0  0  0  0  0  0  0999 V2000
  141.3050   82.3610  221.4230 C   0  0  0  0  0  0  0  0  0  0  0  0
  141.9920   81.0970  221.8590 C   0  0  0  0  0  0  0  0  0  0  0  0
  141.2180   80.4340  222.9690 C   0  0  0  0  0  0  0  0  0  0  0  0
  141.7610   80.2980  224.0970 O   0  0  0  0  0  0  0  0  0  0  0  0
  139.8930   79.9640  222.7500 N   0  0  0  0  0  0  0  0  0  0  0  0
  138.8380   80.7560  223.2780 C   0  0  0  0  0  0  0  0  0  0  0  0
  138.1970   81.7450  222.5640 C   0  0  0  0  0  0  0  0  0  0  0  0
  137.1750   82.4800  223.1510 C   0  0  0  0  0  0  0  0  0  0  0  0
  136.7800   82.2390  224.4560 C   0  0  0  0  0  0  0  0  0  0  0  0
  137.4240   81.2440  225.1770 C   0  0  0  0  0  0  0  0  0  0  0  0
  138.4400   80.5180  224.5860 C   0  0  0  0  0  0  0  0  0  0  0  0
  139.6750   78.7370  222.0150 C   0  0  0  0  0  0  0  0  0  0  0  0
  140.9040   77.9140  221.8060 C   0  0  0  0  0  0  0  0  0  0  0  0
  140.7550   76.5150  222.4130 C   0  0  0  0  0  0  0  0  0  0  0  0
  139.5850   75.8550  221.8840 N   0  0  0  0  0  0  0  0  0  0  0  0
  139.5150   74.5070  221.4790 C   0  0  0  0  0  0  0  0  0  0  0  0
  138.4210   74.0080  221.0450 O   0  0  0  0  0  0  0  0  0  0  0  0
  140.6660   73.5610  221.5150 C   0  0  2  0  0  0  0  0  0  0  0  0
  140.6000   72.6880  220.2950 C   0  0  0  0  0  0  0  0  0  0  0  0
  140.5480   72.7450  222.7140 N   0  0  0  0  0  0  0  0  0  0  0  0
  139.4440   71.8190  222.6770 C   0  0  0  0  0  0  0  0  0  0  0  0
  139.5500   70.8240  223.8040 C   0  0  0  0  0  0  0  0  0  0  0  0
  139.0630   69.5390  223.6820 C   0  0  0  0  0  0  0  0  0  0  0  0
  139.2170   68.7150  224.7860 C   0  0  0  0  0  0  0  0  0  0  0  0
  139.8300   69.1740  225.9450 C   0  0  0  0  0  0  0  0  0  0  0  0
  139.9930   68.3680  227.0560 C   0  0  0  0  0  0  0  0  0  0  0  0
  140.6060   68.8390  228.2030 C   0  0  0  0  0  0  0  0  0  0  0  0
  140.7740   68.0630  229.3000 F   0  0  0  0  0  0  0  0  0  0  0  0
  141.0800   70.1370  228.2820 C   0  0  0  0  0  0  0  0  0  0  0  0
  140.9260   70.9560  227.1790 C   0  0  0  0  0  0  0  0  0  0  0  0
  140.3100   70.4650  226.0430 C   0  0  0  0  0  0  0  0  0  0  0  0
  140.1630   71.2910  224.9560 C   0  0  0  0  0  0  0  0  0  0  0  0
  138.3800   76.6770  221.7600 C   0  0  0  0  0  0  0  0  0  0  0  0
  138.5830   77.8960  222.6300 C   0  0  0  0  0  0  0  0  0  0  0  0
  140.9938   82.9336  222.3092 H   0  0  0  0  0  0  0  0  0  0  0  0
  141.9984   82.9661  220.8204 H   0  0  0  0  0  0  0  0  0  0  0  0
  140.4201   82.1083  220.8204 H   0  0  0  0  0  0  0  0  0  0  0  0
  142.0609   80.4085  221.0039 H   0  0  0  0  0  0  0  0  0  0  0  0
  142.9986   81.3465  222.2257 H   0  0  0  0  0  0  0  0  0  0  0  0
  138.4956   81.9531  221.5259 H   0  0  0  0  0  0  0  0  0  0  0  0
  136.6713   83.2663  222.5697 H   0  0  0  0  0  0  0  0  0  0  0  0
  135.9698   82.8261  224.9130 H   0  0  0  0  0  0  0  0  0  0  0  0
  137.1269   81.0340  226.2151 H   0  0  0  0  0  0  0  0  0  0  0  0
  138.9458   79.7322  225.1663 H   0  0  0  0  0  0  0  0  0  0  0  0
  139.3536   79.0715  221.0176 H   0  0  0  0  0  0  0  0  0  0  0  0
  141.0894   77.8169  220.7261 H   0  0  0  0  0  0  0  0  0  0  0  0
  141.7450   78.4180  222.3048 H   0  0  0  0  0  0  0  0  0  0  0  0
  141.6472   75.9188  222.1710 H   0  0  0  0  0  0  0  0  0  0  0  0
  140.6464   76.6106  223.5034 H   0  0  0  0  0  0  0  0  0  0  0  0
  141.6235   74.1024  221.5285 H   0  0  0  0  0  0  0  0  0  0  0  0
  140.5204   71.6346  220.6018 H   0  0  0  0  0  0  0  0  0  0  0  0
  139.7201   72.9626  219.6948 H   0  0  0  0  0  0  0  0  0  0  0  0
  141.5112   72.8272  219.6948 H   0  0  0  0  0  0  0  0  0  0  0  0
  141.4150   72.1990  222.8820 H   0  0  0  0  0  0  0  0  0  0  0  0
  138.5008   72.3766  222.7742 H   0  0  0  0  0  0  0  0  0  0  0  0
  139.4676   71.2762  221.7205 H   0  0  0  0  0  0  0  0  0  0  0  0
  138.5789   69.1875  222.7589 H   0  0  0  0  0  0  0  0  0  0  0  0
  138.8474   67.6798  224.7436 H   0  0  0  0  0  0  0  0  0  0  0  0
  139.6278   67.3308  227.0274 H   0  0  0  0  0  0  0  0  0  0  0  0
  141.5658   70.5066  229.1971 H   0  0  0  0  0  0  0  0  0  0  0  0
  141.2917   71.9931  227.2051 H   0  0  0  0  0  0  0  0  0  0  0  0
  140.5327   72.3261  224.9996 H   0  0  0  0  0  0  0  0  0  0  0  0
  138.2363   76.9806  220.7125 H   0  0  0  0  0  0  0  0  0  0  0  0
  137.4883   76.1151  222.0748 H   0  0  0  0  0  0  0  0  0  0  0  0
  137.6500   78.4765  222.6814 H   0  0  0  0  0  0  0  0  0  0  0  0
  138.8648   77.5931  223.6492 H   0  0  0  0  0  0  0  0  0  0  0  0
  1  2  1  0
  2  3  1  0
  3  4  2  0
  3  5  1  0
  5  6  1  0
  6  7  2  0
  7  8  1  0
  8  9  2  0
  9 10  1  0
 10 11  2  0
  5 12  1  0
 12 13  1  0
 13 14  1  0
 14 15  1  0
 15 16  1  0
 16 17  2  0
 16 18  1  0
 18 19  1  0
 18 20  1  0
 20 21  1  0
 21 22  1  0
 22 23  2  0
 23 24  1  0
 24 25  2  0
 25 26  1  0
 26 27  2  0
 27 28  1  0
 27 29  1  0
 29 30  2  0
 30 31  1  0
 31 32  2  0
 15 33  1  0
 33 34  1  0
 11  6  1  0
 34 12  1  0
 32 22  1  0
 31 25  1  0
  1 35  1  0
  1 36  1  0
  1 37  1  0
  2 38  1  0
  2 39  1  0
  7 40  1  0
  8 41  1  0
  9 42  1  0
 10 43  1  0
 11 44  1  0
 12 45  1  0
 13 46  1  0
 13 47  1  0
 14 48  1  0
 14 49  1  0
 18 50  1  1
 19 51  1  0
 19 52  1  0
 19 53  1  0
 20 54  1  0
 21 55  1  0
 21 56  1  0
 23 57  1  0
 24 58  1  0
 26 59  1  0
 29 60  1  0
 30 61  1  0
 32 62  1  0
 33 63  1  0
 33 64  1  0
 34 65  1  0
 34 66  1  0
M  END
>  <smiles>  (31) 
CCC(=O)N(c1ccccc1)C1CCN(C(=O)[C@H](C)NCc2ccc3cc(F)ccc3c2)CC1

>  <score_type>  (31) 
oracle

>  <origin>  (31) 
autodockgpu

>  <m_score__min__energy>  (31) 
-9.0899999999999999

>  <m_primary>  (31) 
energy

>  <rmsd>  (31) 
9.0321786519599

>  <m_score__min__rmsd>  (31) 
9.0321786519599

>  <meeko>  (31) 
{"free_energy": -8.82, "intermolecular_energy": -11.2, "internal_energy": -1.6, "cluster_size": 9, "cluster_id": 1, "rank_in_cluster": 4}

>  <energy>  (31) 
-8.67

>  <cluster_rmsd>  (31) 
1.97

>  <cluster>  (31) 
3

$$$$

     RDKit          3D

 66 69  0  0  0  0  0  0  0  0999 V2000
  142.7930   80.8480  223.8340 C   0  0  0  0  0  0  0  0  0  0  0  0
  142.4850   79.8600  222.7440 C   0  0  0  0  0  0  0  0  0  0  0  0
  141.5020   78.8270  223.2340 C   0  0  0  0  0  0  0  0  0  0  0  0
  141.8580   78.0230  224.1350 O   0  0  0  0  0  0  0  0  0  0  0  0
  140.1900   78.7570  222.6890 N   0  0  0  0  0  0  0  0  0  0  0  0
  139.3250   79.8510  222.9610 C   0  0  0  0  0  0  0  0  0  0  0  0
  139.0540   80.8520  222.0530 C   0  0  0  0  0  0  0  0  0  0  0  0
  138.1980   81.8920  222.3950 C   0  0  0  0  0  0  0  0  0  0  0  0
  137.6040   81.9470  223.6430 C   0  0  0  0  0  0  0  0  0  0  0  0
  137.8740   80.9410  224.5590 C   0  0  0  0  0  0  0  0  0  0  0  0
  138.7270   79.9110  224.2120 C   0  0  0  0  0  0  0  0  0  0  0  0
  139.7980   77.6110  221.8970 C   0  0  0  0  0  0  0  0  0  0  0  0
  140.9390   76.8280  221.3350 C   0  0  0  0  0  0  0  0  0  0  0  0
  140.9110   75.3720  221.8100 C   0  0  0  0  0  0  0  0  0  0  0  0
  139.6430   74.7590  221.4880 N   0  0  0  0  0  0  0  0  0  0  0  0
  139.4690   73.4600  220.9700 C   0  0  0  0  0  0  0  0  0  0  0  0
  138.2990   72.9970  220.7400 O   0  0  0  0  0  0  0  0  0  0  0  0
  140.5860   72.5270  220.6500 C   0  0  2  0  0  0  0  0  0  0  0  0
  140.2230   71.7580  219.4130 C   0  0  0  0  0  0  0  0  0  0  0  0
  140.7510   71.6140  221.7700 N   0  0  0  0  0  0  0  0  0  0  0  0
  139.5850   71.5140  222.6130 C   0  0  0  0  0  0  0  0  0  0  0  0
  139.9710   71.0780  224.0030 C   0  0  0  0  0  0  0  0  0  0  0  0
  140.6930   71.8990  224.8430 C   0  0  0  0  0  0  0  0  0  0  0  0
  140.9890   71.3880  226.0980 C   0  0  0  0  0  0  0  0  0  0  0  0
  140.5740   70.1160  226.4710 C   0  0  0  0  0  0  0  0  0  0  0  0
  140.8600   69.5890  227.7160 C   0  0  0  0  0  0  0  0  0  0  0  0
  140.4400   68.3200  228.0750 C   0  0  0  0  0  0  0  0  0  0  0  0
  140.7110   67.7890  229.2900 F   0  0  0  0  0  0  0  0  0  0  0  0
  139.7180   67.5300  227.1980 C   0  0  0  0  0  0  0  0  0  0  0  0
  139.4230   68.0420  225.9480 C   0  0  0  0  0  0  0  0  0  0  0  0
  139.8520   69.3130  225.6110 C   0  0  0  0  0  0  0  0  0  0  0  0
  139.5530   69.8070  224.3660 C   0  0  0  0  0  0  0  0  0  0  0  0
  138.4520   75.5760  221.7210 C   0  0  0  0  0  0  0  0  0  0  0  0
  138.8590   76.7000  222.6470 C   0  0  0  0  0  0  0  0  0  0  0  0
  142.6443   80.3710  224.8140 H   0  0  0  0  0  0  0  0  0  0  0  0
  143.8375   81.1807  223.7429 H   0  0  0  0  0  0  0  0  0  0  0  0
  142.1226   81.7153  223.7429 H   0  0  0  0  0  0  0  0  0  0  0  0
  142.0530   80.3922  221.8837 H   0  0  0  0  0  0  0  0  0  0  0  0
  143.4157   79.3545  222.4469 H   0  0  0  0  0  0  0  0  0  0  0  0
  139.5164   80.8276  221.0552 H   0  0  0  0  0  0  0  0  0  0  0  0
  137.9894   82.6845  221.6612 H   0  0  0  0  0  0  0  0  0  0  0  0
  136.9287   82.7749  223.9047 H   0  0  0  0  0  0  0  0  0  0  0  0
  137.4113   80.9631  225.5567 H   0  0  0  0  0  0  0  0  0  0  0  0
  138.9374   79.1188  224.9455 H   0  0  0  0  0  0  0  0  0  0  0  0
  139.2673   78.0442  221.0364 H   0  0  0  0  0  0  0  0  0  0  0  0
  140.8783   76.8466  220.2368 H   0  0  0  0  0  0  0  0  0  0  0  0
  141.8761   77.2862  221.6841 H   0  0  0  0  0  0  0  0  0  0  0  0
  141.7191   74.8140  221.3144 H   0  0  0  0  0  0  0  0  0  0  0  0
  141.0494   75.3510  222.9011 H   0  0  0  0  0  0  0  0  0  0  0  0
  141.5237   73.0759  220.4783 H   0  0  0  0  0  0  0  0  0  0  0  0
  139.7695   70.7973  219.6983 H   0  0  0  0  0  0  0  0  0  0  0  0
  139.5045   72.3400  218.8171 H   0  0  0  0  0  0  0  0  0  0  0  0
  141.1290   71.5732  218.8171 H   0  0  0  0  0  0  0  0  0  0  0  0
  140.9870   70.6570  221.4410 H   0  0  0  0  0  0  0  0  0  0  0  0
  139.0920   72.4959  222.6660 H   0  0  0  0  0  0  0  0  0  0  0  0
  138.9006   70.7671  222.1844 H   0  0  0  0  0  0  0  0  0  0  0  0
  141.0165   72.9041  224.5348 H   0  0  0  0  0  0  0  0  0  0  0  0
  141.5620   72.0003  226.8099 H   0  0  0  0  0  0  0  0  0  0  0  0
  141.4334   70.1905  228.4367 H   0  0  0  0  0  0  0  0  0  0  0  0
  139.3875   66.5216  227.4875 H   0  0  0  0  0  0  0  0  0  0  0  0
  138.8503   67.4419  225.2256 H   0  0  0  0  0  0  0  0  0  0  0  0
  138.9806   69.1933  223.6548 H   0  0  0  0  0  0  0  0  0  0  0  0
  138.0833   75.9859  220.7691 H   0  0  0  0  0  0  0  0  0  0  0  0
  137.6452   74.9748  222.1655 H   0  0  0  0  0  0  0  0  0  0  0  0
  137.9684   77.2624  222.9640 H   0  0  0  0  0  0  0  0  0  0  0  0
  139.3555   76.2950  223.5412 H   0  0  0  0  0  0  0  0  0  0  0  0
  1  2  1  0
  2  3  1  0
  3  4  2  0
  3  5  1  0
  5  6  1  0
  6  7  2  0
  7  8  1  0
  8  9  2  0
  9 10  1  0
 10 11  2  0
  5 12  1  0
 12 13  1  0
 13 14  1  0
 14 15  1  0
 15 16  1  0
 16 17  2  0
 16 18  1  0
 18 19  1  0
 18 20  1  0
 20 21  1  0
 21 22  1  0
 22 23  2  0
 23 24  1  0
 24 25  2  0
 25 26  1  0
 26 27  2  0
 27 28  1  0
 27 29  1  0
 29 30  2  0
 30 31  1  0
 31 32  2  0
 15 33  1  0
 33 34  1  0
 11  6  1  0
 34 12  1  0
 32 22  1  0
 31 25  1  0
  1 35  1  0
  1 36  1  0
  1 37  1  0
  2 38  1  0
  2 39  1  0
  7 40  1  0
  8 41  1  0
  9 42  1  0
 10 43  1  0
 11 44  1  0
 12 45  1  0
 13 46  1  0
 13 47  1  0
 14 48  1  0
 14 49  1  0
 18 50  1  6
 19 51  1  0
 19 52  1  0
 19 53  1  0
 20 54  1  0
 21 55  1  0
 21 56  1  0
 23 57  1  0
 24 58  1  0
 26 59  1  0
 29 60  1  0
 30 61  1  0
 32 62  1  0
 33 63  1  0
 33 64  1  0
 34 65  1  0
 34 66  1  0
M  END
>  <smiles>  (32) 
CCC(=O)N(c1ccccc1)C1CCN(C(=O)[C@H](C)NCc2ccc3cc(F)ccc3c2)CC1

>  <score_type>  (32) 
oracle

>  <origin>  (32) 
autodockgpu

>  <m_score__min__energy>  (32) 
-9.0899999999999999

>  <m_primary>  (32) 
energy

>  <rmsd>  (32) 
8.259144016660343

>  <m_score__min__rmsd>  (32) 
8.259144016660343

>  <meeko>  (32) 
{"free_energy": -8.52, "intermolecular_energy": -10.9, "internal_energy": -1.7, "cluster_size": 9, "cluster_id": 1, "rank_in_cluster": 9}

>  <energy>  (32) 
-8.67

>  <cluster_rmsd>  (32) 
1.78

>  <cluster>  (32) 
3

$$$$

     RDKit          3D

 66 69  0  0  0  0  0  0  0  0999 V2000
  137.7360   82.0040  222.6500 C   0  0  0  0  0  0  0  0  0  0  0  0
  138.6020   82.6660  221.6160 C   0  0  0  0  0  0  0  0  0  0  0  0
  139.4240   81.6380  220.8820 C   0  0  0  0  0  0  0  0  0  0  0  0
  139.7280   81.8430  219.6780 O   0  0  0  0  0  0  0  0  0  0  0  0
  139.8520   80.4490  221.5360 N   0  0  0  0  0  0  0  0  0  0  0  0
  141.0410   80.5360  222.3090 C   0  0  0  0  0  0  0  0  0  0  0  0
  142.1830   79.8150  222.0350 C   0  0  0  0  0  0  0  0  0  0  0  0
  143.3060   79.9530  222.8410 C   0  0  0  0  0  0  0  0  0  0  0  0
  143.3040   80.8090  223.9290 C   0  0  0  0  0  0  0  0  0  0  0  0
  142.1560   81.5360  224.2070 C   0  0  0  0  0  0  0  0  0  0  0  0
  141.0430   81.3930  223.4010 C   0  0  0  0  0  0  0  0  0  0  0  0
  139.0800   79.2320  221.3990 C   0  0  0  0  0  0  0  0  0  0  0  0
  139.7270   78.1800  220.5590 C   0  0  0  0  0  0  0  0  0  0  0  0
  139.9430   76.8840  221.3460 C   0  0  0  0  0  0  0  0  0  0  0  0
  138.6950   76.4170  221.9040 N   0  0  0  0  0  0  0  0  0  0  0  0
  138.2530   75.0790  221.9180 C   0  0  0  0  0  0  0  0  0  0  0  0
  137.1400   74.7620  222.4610 O   0  0  0  0  0  0  0  0  0  0  0  0
  139.0090   73.9390  221.3270 C   0  0  2  0  0  0  0  0  0  0  0  0
  138.3560   73.5590  220.0300 C   0  0  0  0  0  0  0  0  0  0  0  0
  138.9520   72.8220  222.2570 N   0  0  0  0  0  0  0  0  0  0  0  0
  140.2470   72.3830  222.7140 C   0  0  0  0  0  0  0  0  0  0  0  0
  140.1020   71.3210  223.7730 C   0  0  0  0  0  0  0  0  0  0  0  0
  139.5010   70.1090  223.5050 C   0  0  0  0  0  0  0  0  0  0  0  0
  139.4250   69.2120  224.5590 C   0  0  0  0  0  0  0  0  0  0  0  0
  139.9330   69.5330  225.8120 C   0  0  0  0  0  0  0  0  0  0  0  0
  139.8680   68.6530  226.8760 C   0  0  0  0  0  0  0  0  0  0  0  0
  140.3780   68.9850  228.1180 C   0  0  0  0  0  0  0  0  0  0  0  0
  140.3220   68.1350  229.1700 F   0  0  0  0  0  0  0  0  0  0  0  0
  140.9740   70.2130  228.3430 C   0  0  0  0  0  0  0  0  0  0  0  0
  141.0480   71.1060  227.2890 C   0  0  0  0  0  0  0  0  0  0  0  0
  140.5320   70.7520  226.0560 C   0  0  0  0  0  0  0  0  0  0  0  0
  140.6120   71.6490  225.0200 C   0  0  0  0  0  0  0  0  0  0  0  0
  137.8290   77.4380  222.4940 C   0  0  0  0  0  0  0  0  0  0  0  0
  138.6850   78.6600  222.7390 C   0  0  0  0  0  0  0  0  0  0  0  0
  138.0917   82.2759  223.6548 H   0  0  0  0  0  0  0  0  0  0  0  0
  136.6957   82.3393  222.5261 H   0  0  0  0  0  0  0  0  0  0  0  0
  137.7866   80.9122  222.5261 H   0  0  0  0  0  0  0  0  0  0  0  0
  137.9636   83.2002  220.8969 H   0  0  0  0  0  0  0  0  0  0  0  0
  139.2797   83.3723  222.1178 H   0  0  0  0  0  0  0  0  0  0  0  0
  142.2054   79.1284  221.1759 H   0  0  0  0  0  0  0  0  0  0  0  0
  144.2117   79.3726  222.6109 H   0  0  0  0  0  0  0  0  0  0  0  0
  144.1977   80.9108  224.5622 H   0  0  0  0  0  0  0  0  0  0  0  0
  142.1318   82.2234  225.0654 H   0  0  0  0  0  0  0  0  0  0  0  0
  140.1364   81.9723  223.6302 H   0  0  0  0  0  0  0  0  0  0  0  0
  138.1738   79.5439  220.8591 H   0  0  0  0  0  0  0  0  0  0  0  0
  139.0827   77.9685  219.6929 H   0  0  0  0  0  0  0  0  0  0  0  0
  140.7096   78.5540  220.2357 H   0  0  0  0  0  0  0  0  0  0  0  0
  140.3487   76.1148  220.6724 H   0  0  0  0  0  0  0  0  0  0  0  0
  140.6486   77.0796  222.1668 H   0  0  0  0  0  0  0  0  0  0  0  0
  140.0584   74.2127  221.1432 H   0  0  0  0  0  0  0  0  0  0  0  0
  137.4220   73.0154  220.2352 H   0  0  0  0  0  0  0  0  0  0  0  0
  138.1320   74.4678  219.4522 H   0  0  0  0  0  0  0  0  0  0  0  0
  139.0355   72.9153  219.4522 H   0  0  0  0  0  0  0  0  0  0  0  0
  138.3850   73.0610  223.0940 H   0  0  0  0  0  0  0  0  0  0  0  0
  140.8103   71.9714  221.8636 H   0  0  0  0  0  0  0  0  0  0  0  0
  140.7822   73.2425  223.1438 H   0  0  0  0  0  0  0  0  0  0  0  0
  139.1033   69.8671  222.5083 H   0  0  0  0  0  0  0  0  0  0  0  0
  138.9549   68.2301  224.4010 H   0  0  0  0  0  0  0  0  0  0  0  0
  139.4007   67.6677  226.7319 H   0  0  0  0  0  0  0  0  0  0  0  0
  141.3779   70.4722  229.3328 H   0  0  0  0  0  0  0  0  0  0  0  0
  141.5146   72.0919  227.4310 H   0  0  0  0  0  0  0  0  0  0  0  0
  141.0820   72.6307  225.1795 H   0  0  0  0  0  0  0  0  0  0  0  0
  137.0099   77.6837  221.8021 H   0  0  0  0  0  0  0  0  0  0  0  0
  137.3829   77.0780  223.4328 H   0  0  0  0  0  0  0  0  0  0  0  0
  138.1138   79.4071  223.3096 H   0  0  0  0  0  0  0  0  0  0  0  0
  139.5809   78.3882  223.3165 H   0  0  0  0  0  0  0  0  0  0  0  0
  1  2  1  0
  2  3  1  0
  3  4  2  0
  3  5  1  0
  5  6  1  0
  6  7  2  0
  7  8  1  0
  8  9  2  0
  9 10  1  0
 10 11  2  0
  5 12  1  0
 12 13  1  0
 13 14  1  0
 14 15  1  0
 15 16  1  0
 16 17  2  0
 16 18  1  0
 18 19  1  0
 18 20  1  0
 20 21  1  0
 21 22  1  0
 22 23  2  0
 23 24  1  0
 24 25  2  0
 25 26  1  0
 26 27  2  0
 27 28  1  0
 27 29  1  0
 29 30  2  0
 30 31  1  0
 31 32  2  0
 15 33  1  0
 33 34  1  0
 11  6  1  0
 34 12  1  0
 32 22  1  0
 31 25  1  0
  1 35  1  0
  1 36  1  0
  1 37  1  0
  2 38  1  0
  2 39  1  0
  7 40  1  0
  8 41  1  0
  9 42  1  0
 10 43  1  0
 11 44  1  0
 12 45  1  0
 13 46  1  0
 13 47  1  0
 14 48  1  0
 14 49  1  0
 18 50  1  6
 19 51  1  0
 19 52  1  0
 19 53  1  0
 20 54  1  0
 21 55  1  0
 21 56  1  0
 23 57  1  0
 24 58  1  0
 26 59  1  0
 29 60  1  0
 30 61  1  0
 32 62  1  0
 33 63  1  0
 33 64  1  0
 34 65  1  0
 34 66  1  0
M  END
>  <smiles>  (33) 
CCC(=O)N(c1ccccc1)C1CCN(C(=O)[C@H](C)NCc2ccc3cc(F)ccc3c2)CC1

>  <score_type>  (33) 
oracle

>  <origin>  (33) 
autodockgpu

>  <m_score__min__energy>  (33) 
-9.0899999999999999

>  <m_primary>  (33) 
energy

>  <rmsd>  (33) 
8.779987408427633

>  <m_score__min__rmsd>  (33) 
8.779987408427633

>  <meeko>  (33) 
{"free_energy": -8.67, "intermolecular_energy": -11.06, "internal_energy": -2.23, "cluster_size": 28, "cluster_id": 3, "rank_in_cluster": 14}

>  <energy>  (33) 
-8.63

>  <cluster_rmsd>  (33) 
1.85

>  <cluster>  (33) 
3

$$$$

     RDKit          3D

 66 69  0  0  0  0  0  0  0  0999 V2000
  140.6810   83.7250  220.8490 C   0  0  0  0  0  0  0  0  0  0  0  0
  140.6420   82.4130  220.1180 C   0  0  0  0  0  0  0  0  0  0  0  0
  139.5880   81.5120  220.7090 C   0  0  0  0  0  0  0  0  0  0  0  0
  138.3730   81.7850  220.5200 O   0  0  0  0  0  0  0  0  0  0  0  0
  139.9550   80.3690  221.4720 N   0  0  0  0  0  0  0  0  0  0  0  0
  141.1270   80.4790  222.2680 C   0  0  0  0  0  0  0  0  0  0  0  0
  142.2930   79.7930  222.0050 C   0  0  0  0  0  0  0  0  0  0  0  0
  143.3970   79.9510  222.8340 C   0  0  0  0  0  0  0  0  0  0  0  0
  143.3520   80.7920  223.9320 C   0  0  0  0  0  0  0  0  0  0  0  0
  142.1790   81.4840  224.1980 C   0  0  0  0  0  0  0  0  0  0  0  0
  141.0860   81.3210  223.3700 C   0  0  0  0  0  0  0  0  0  0  0  0
  139.1410   79.1730  221.4160 C   0  0  0  0  0  0  0  0  0  0  0  0
  139.6790   78.1000  220.5260 C   0  0  0  0  0  0  0  0  0  0  0  0
  139.9320   76.8010  221.2990 C   0  0  0  0  0  0  0  0  0  0  0  0
  138.7300   76.3710  221.9730 N   0  0  0  0  0  0  0  0  0  0  0  0
  138.2550   75.0460  222.0380 C   0  0  0  0  0  0  0  0  0  0  0  0
  137.1890   74.7620  222.6840 O   0  0  0  0  0  0  0  0  0  0  0  0
  138.9220   73.8840  221.3870 C   0  0  2  0  0  0  0  0  0  0  0  0
  138.1680   73.5440  220.1340 C   0  0  0  0  0  0  0  0  0  0  0  0
  138.8810   72.7590  222.3090 N   0  0  0  0  0  0  0  0  0  0  0  0
  140.1850   72.2760  222.6900 C   0  0  0  0  0  0  0  0  0  0  0  0
  140.0690   71.2350  223.7730 C   0  0  0  0  0  0  0  0  0  0  0  0
  139.4820   70.0100  223.5380 C   0  0  0  0  0  0  0  0  0  0  0  0
  139.4320   69.1340  224.6120 C   0  0  0  0  0  0  0  0  0  0  0  0
  139.9500   69.4890  225.8510 C   0  0  0  0  0  0  0  0  0  0  0  0
  139.9100   68.6310  226.9350 C   0  0  0  0  0  0  0  0  0  0  0  0
  140.4300   68.9970  228.1630 C   0  0  0  0  0  0  0  0  0  0  0  0
  140.3990   68.1690  229.2340 F   0  0  0  0  0  0  0  0  0  0  0  0
  141.0110   70.2380  228.3540 C   0  0  0  0  0  0  0  0  0  0  0  0
  141.0600   71.1090  227.2810 C   0  0  0  0  0  0  0  0  0  0  0  0
  140.5340   70.7220  226.0620 C   0  0  0  0  0  0  0  0  0  0  0  0
  140.5890   71.5970  225.0060 C   0  0  0  0  0  0  0  0  0  0  0  0
  137.9490   77.4180  222.6340 C   0  0  0  0  0  0  0  0  0  0  0  0
  138.8570   78.6180  222.7900 C   0  0  0  0  0  0  0  0  0  0  0  0
  140.6755   83.5408  221.9335 H   0  0  0  0  0  0  0  0  0  0  0  0
  141.5958   84.2707  220.5744 H   0  0  0  0  0  0  0  0  0  0  0  0
  139.8003   84.3241  220.5744 H   0  0  0  0  0  0  0  0  0  0  0  0
  140.4099   82.5955  219.0584 H   0  0  0  0  0  0  0  0  0  0  0  0
  141.6226   81.9235  220.2119 H   0  0  0  0  0  0  0  0  0  0  0  0
  142.3498   79.1192  221.1374 H   0  0  0  0  0  0  0  0  0  0  0  0
  144.3222   79.3983  222.6137 H   0  0  0  0  0  0  0  0  0  0  0  0
  144.2310   80.9099  224.5828 H   0  0  0  0  0  0  0  0  0  0  0  0
  142.1201   82.1592  225.0644 H   0  0  0  0  0  0  0  0  0  0  0  0
  140.1598   81.8724  223.5895 H   0  0  0  0  0  0  0  0  0  0  0  0
  138.1969   79.5072  220.9611 H   0  0  0  0  0  0  0  0  0  0  0  0
  138.9518   77.9028  219.7246 H   0  0  0  0  0  0  0  0  0  0  0  0
  140.6370   78.4455  220.1103 H   0  0  0  0  0  0  0  0  0  0  0  0
  140.2525   76.0181  220.5960 H   0  0  0  0  0  0  0  0  0  0  0  0
  140.7157   76.9808  222.0497 H   0  0  0  0  0  0  0  0  0  0  0  0
  139.9667   74.1185  221.1348 H   0  0  0  0  0  0  0  0  0  0  0  0
  137.1948   73.1052  220.3993 H   0  0  0  0  0  0  0  0  0  0  0  0
  138.0092   74.4576  219.5423 H   0  0  0  0  0  0  0  0  0  0  0  0
  138.7476   72.8201  219.5423 H   0  0  0  0  0  0  0  0  0  0  0  0
  138.3690   73.0070  223.1780 H   0  0  0  0  0  0  0  0  0  0  0  0
  140.6765   71.8313  221.8122 H   0  0  0  0  0  0  0  0  0  0  0  0
  140.7785   73.1200  223.0713 H   0  0  0  0  0  0  0  0  0  0  0  0
  139.0752   69.7418  222.5518 H   0  0  0  0  0  0  0  0  0  0  0  0
  138.9748   68.1422  224.4806 H   0  0  0  0  0  0  0  0  0  0  0  0
  139.4549   67.6364  226.8179 H   0  0  0  0  0  0  0  0  0  0  0  0
  141.4229   70.5242  229.3330 H   0  0  0  0  0  0  0  0  0  0  0  0
  141.5147   72.1039  227.3965 H   0  0  0  0  0  0  0  0  0  0  0  0
  141.0470   72.5883  225.1384 H   0  0  0  0  0  0  0  0  0  0  0  0
  137.0760   77.6826  222.0193 H   0  0  0  0  0  0  0  0  0  0  0  0
  137.5822   77.0744  223.6125 H   0  0  0  0  0  0  0  0  0  0  0  0
  138.3614   79.3829  223.4059 H   0  0  0  0  0  0  0  0  0  0  0  0
  139.7951   78.3243  223.2836 H   0  0  0  0  0  0  0  0  0  0  0  0
  1  2  1  0
  2  3  1  0
  3  4  2  0
  3  5  1  0
  5  6  1  0
  6  7  2  0
  7  8  1  0
  8  9  2  0
  9 10  1  0
 10 11  2  0
  5 12  1  0
 12 13  1  0
 13 14  1  0
 14 15  1  0
 15 16  1  0
 16 17  2  0
 16 18  1  0
 18 19  1  0
 18 20  1  0
 20 21  1  0
 21 22  1  0
 22 23  2  0
 23 24  1  0
 24 25  2  0
 25 26  1  0
 26 27  2  0
 27 28  1  0
 27 29  1  0
 29 30  2  0
 30 31  1  0
 31 32  2  0
 15 33  1  0
 33 34  1  0
 11  6  1  0
 34 12  1  0
 32 22  1  0
 31 25  1  0
  1 35  1  0
  1 36  1  0
  1 37  1  0
  2 38  1  0
  2 39  1  0
  7 40  1  0
  8 41  1  0
  9 42  1  0
 10 43  1  0
 11 44  1  0
 12 45  1  0
 13 46  1  0
 13 47  1  0
 14 48  1  0
 14 49  1  0
 18 50  1  6
 19 51  1  0
 19 52  1  0
 19 53  1  0
 20 54  1  0
 21 55  1  0
 21 56  1  0
 23 57  1  0
 24 58  1  0
 26 59  1  0
 29 60  1  0
 30 61  1  0
 32 62  1  0
 33 63  1  0
 33 64  1  0
 34 65  1  0
 34 66  1  0
M  END
>  <smiles>  (34) 
CCC(=O)N(c1ccccc1)C1CCN(C(=O)[C@H](C)NCc2ccc3cc(F)ccc3c2)CC1

>  <score_type>  (34) 
oracle

>  <origin>  (34) 
autodockgpu

>  <m_score__min__energy>  (34) 
-9.0899999999999999

>  <m_primary>  (34) 
energy

>  <rmsd>  (34) 
8.828525403841615

>  <m_score__min__rmsd>  (34) 
8.828525403841615

>  <meeko>  (34) 
{"free_energy": -8.74, "intermolecular_energy": -11.12, "internal_energy": -2.29, "cluster_size": 28, "cluster_id": 3, "rank_in_cluster": 12}

>  <energy>  (34) 
-8.58

>  <cluster_rmsd>  (34) 
1.5

>  <cluster>  (34) 
3

$$$$

     RDKit          3D

 66 69  0  0  0  0  0  0  0  0999 V2000
  142.5920   78.3780  217.4360 C   0  0  0  0  0  0  0  0  0  0  0  0
  142.2000   79.1100  218.6890 C   0  0  0  0  0  0  0  0  0  0  0  0
  142.0940   78.1520  219.8470 C   0  0  0  0  0  0  0  0  0  0  0  0
  142.8200   77.1240  219.8600 O   0  0  0  0  0  0  0  0  0  0  0  0
  141.1860   78.4010  220.9140 N   0  0  0  0  0  0  0  0  0  0  0  0
  141.5630   79.3950  221.8560 C   0  0  0  0  0  0  0  0  0  0  0  0
  142.3040   79.1320  222.9870 C   0  0  0  0  0  0  0  0  0  0  0  0
  142.6300   80.1600  223.8640 C   0  0  0  0  0  0  0  0  0  0  0  0
  142.2200   81.4600  223.6240 C   0  0  0  0  0  0  0  0  0  0  0  0
  141.4730   81.7280  222.4860 C   0  0  0  0  0  0  0  0  0  0  0  0
  141.1540   80.7000  221.6200 C   0  0  0  0  0  0  0  0  0  0  0  0
  139.9470   77.6580  220.9950 C   0  0  0  0  0  0  0  0  0  0  0  0
  139.9510   76.3640  220.2480 C   0  0  0  0  0  0  0  0  0  0  0  0
  139.6710   75.1770  221.1750 C   0  0  0  0  0  0  0  0  0  0  0  0
  138.4280   75.3700  221.8840 N   0  0  0  0  0  0  0  0  0  0  0  0
  137.4470   74.3830  222.1040 C   0  0  0  0  0  0  0  0  0  0  0  0
  136.3880   74.6480  222.7680 O   0  0  0  0  0  0  0  0  0  0  0  0
  137.5410   72.9820  221.6060 C   0  0  2  0  0  0  0  0  0  0  0  0
  136.2260   72.6100  220.9840 C   0  0  0  0  0  0  0  0  0  0  0  0
  137.8170   72.1120  222.7400 N   0  0  0  0  0  0  0  0  0  0  0  0
  139.1980   71.7130  222.8400 C   0  0  0  0  0  0  0  0  0  0  0  0
  139.3780   70.6980  223.9390 C   0  0  0  0  0  0  0  0  0  0  0  0
  138.9250   69.4020  223.8070 C   0  0  0  0  0  0  0  0  0  0  0  0
  139.1470   68.5590  224.8850 C   0  0  0  0  0  0  0  0  0  0  0  0
  139.7920   69.0120  226.0290 C   0  0  0  0  0  0  0  0  0  0  0  0
  140.0230   68.1880  227.1150 C   0  0  0  0  0  0  0  0  0  0  0  0
  140.6670   68.6520  228.2480 C   0  0  0  0  0  0  0  0  0  0  0  0
  140.9010   67.8580  229.3190 F   0  0  0  0  0  0  0  0  0  0  0  0
  141.1050   69.9620  228.3370 C   0  0  0  0  0  0  0  0  0  0  0  0
  140.8830   70.8000  227.2600 C   0  0  0  0  0  0  0  0  0  0  0  0
  140.2370   70.3140  226.1380 C   0  0  0  0  0  0  0  0  0  0  0  0
  140.0230   71.1590  225.0760 C   0  0  0  0  0  0  0  0  0  0  0  0
  138.1840   76.7160  222.4050 C   0  0  0  0  0  0  0  0  0  0  0  0
  139.5140   77.4340  222.4230 C   0  0  0  0  0  0  0  0  0  0  0  0
  143.0957   77.4373  217.7033 H   0  0  0  0  0  0  0  0  0  0  0  0
  141.6918   78.1565  216.8439 H   0  0  0  0  0  0  0  0  0  0  0  0
  143.2753   79.0045  216.8439 H   0  0  0  0  0  0  0  0  0  0  0  0
  142.9608   79.8710  218.9170 H   0  0  0  0  0  0  0  0  0  0  0  0
  141.2219   79.5879  218.5312 H   0  0  0  0  0  0  0  0  0  0  0  0
  142.6388   78.1054  223.1968 H   0  0  0  0  0  0  0  0  0  0  0  0
  143.2233   79.9368  224.7630 H   0  0  0  0  0  0  0  0  0  0  0  0
  142.4820   82.2672  224.3238 H   0  0  0  0  0  0  0  0  0  0  0  0
  141.1365   82.7537  222.2744 H   0  0  0  0  0  0  0  0  0  0  0  0
  140.5608   80.9214  220.7205 H   0  0  0  0  0  0  0  0  0  0  0  0
  139.2109   78.3027  220.4925 H   0  0  0  0  0  0  0  0  0  0  0  0
  139.1753   76.3992  219.4688 H   0  0  0  0  0  0  0  0  0  0  0  0
  140.9479   76.2261  219.8039 H   0  0  0  0  0  0  0  0  0  0  0  0
  139.6065   74.2570  220.5754 H   0  0  0  0  0  0  0  0  0  0  0  0
  140.4886   75.0969  221.9065 H   0  0  0  0  0  0  0  0  0  0  0  0
  138.3419   72.8805  220.8588 H   0  0  0  0  0  0  0  0  0  0  0  0
  135.4915   72.4022  221.7760 H   0  0  0  0  0  0  0  0  0  0  0  0
  135.8671   73.4419  220.3601 H   0  0  0  0  0  0  0  0  0  0  0  0
  136.3561   71.7134  220.3601 H   0  0  0  0  0  0  0  0  0  0  0  0
  137.5530   72.5690  223.6340 H   0  0  0  0  0  0  0  0  0  0  0  0
  139.5170   71.2716  221.8843 H   0  0  0  0  0  0  0  0  0  0  0  0
  139.8074   72.5989  223.0719 H   0  0  0  0  0  0  0  0  0  0  0  0
  138.4152   69.0560  222.8958 H   0  0  0  0  0  0  0  0  0  0  0  0
  138.8068   67.5142  224.8336 H   0  0  0  0  0  0  0  0  0  0  0  0
  139.6875   67.1411  227.0773 H   0  0  0  0  0  0  0  0  0  0  0  0
  141.6160   70.3265  229.2403 H   0  0  0  0  0  0  0  0  0  0  0  0
  141.2182   71.8471  227.2954 H   0  0  0  0  0  0  0  0  0  0  0  0
  140.3642   72.2034  225.1282 H   0  0  0  0  0  0  0  0  0  0  0  0
  137.4759   77.2498  221.7541 H   0  0  0  0  0  0  0  0  0  0  0  0
  137.7494   76.6720  223.4145 H   0  0  0  0  0  0  0  0  0  0  0  0
  139.4084   78.4011  222.9363 H   0  0  0  0  0  0  0  0  0  0  0  0
  140.2638   76.8326  222.9580 H   0  0  0  0  0  0  0  0  0  0  0  0
  1  2  1  0
  2  3  1  0
  3  4  2  0
  3  5  1  0
  5  6  1  0
  6  7  2  0
  7  8  1  0
  8  9  2  0
  9 10  1  0
 10 11  2  0
  5 12  1  0
 12 13  1  0
 13 14  1  0
 14 15  1  0
 15 16  1  0
 16 17  2  0
 16 18  1  0
 18 19  1  0
 18 20  1  0
 20 21  1  0
 21 22  1  0
 22 23  2  0
 23 24  1  0
 24 25  2  0
 25 26  1  0
 26 27  2  0
 27 28  1  0
 27 29  1  0
 29 30  2  0
 30 31  1  0
 31 32  2  0
 15 33  1  0
 33 34  1  0
 11  6  1  0
 34 12  1  0
 32 22  1  0
 31 25  1  0
  1 35  1  0
  1 36  1  0
  1 37  1  0
  2 38  1  0
  2 39  1  0
  7 40  1  0
  8 41  1  0
  9 42  1  0
 10 43  1  0
 11 44  1  0
 12 45  1  0
 13 46  1  0
 13 47  1  0
 14 48  1  0
 14 49  1  0
 18 50  1  6
 19 51  1  0
 19 52  1  0
 19 53  1  0
 20 54  1  0
 21 55  1  0
 21 56  1  0
 23 57  1  0
 24 58  1  0
 26 59  1  0
 29 60  1  0
 30 61  1  0
 32 62  1  0
 33 63  1  0
 33 64  1  0
 34 65  1  0
 34 66  1  0
M  END
>  <smiles>  (35) 
CCC(=O)N(c1ccccc1)C1CCN(C(=O)[C@H](C)NCc2ccc3cc(F)ccc3c2)CC1

>  <score_type>  (35) 
oracle

>  <origin>  (35) 
autodockgpu

>  <m_score__min__energy>  (35) 
-9.0899999999999999

>  <m_primary>  (35) 
energy

>  <rmsd>  (35) 
9.121617265368581

>  <m_score__min__rmsd>  (35) 
9.121617265368581

>  <meeko>  (35) 
{"free_energy": -8.99, "intermolecular_energy": -11.38, "internal_energy": -1.83, "cluster_size": 28, "cluster_id": 3, "rank_in_cluster": 1}

>  <energy>  (35) 
-8.52

>  <cluster_rmsd>  (35) 
1.84

>  <cluster>  (35) 
3

$$$$

     RDKit          3D

 66 69  0  0  0  0  0  0  0  0999 V2000
  142.5870   79.4380  217.8920 C   0  0  0  0  0  0  0  0  0  0  0  0
  142.0110   80.3410  218.9460 C   0  0  0  0  0  0  0  0  0  0  0  0
  140.9800   79.6060  219.7630 C   0  0  0  0  0  0  0  0  0  0  0  0
  139.7820   79.6010  219.3750 O   0  0  0  0  0  0  0  0  0  0  0  0
  141.3490   78.9260  220.9560 N   0  0  0  0  0  0  0  0  0  0  0  0
  141.6390   79.7320  222.0900 C   0  0  0  0  0  0  0  0  0  0  0  0
  140.6910   80.4750  222.7590 C   0  0  0  0  0  0  0  0  0  0  0  0
  141.0540   81.2430  223.8590 C   0  0  0  0  0  0  0  0  0  0  0  0
  142.3640   81.2800  224.3030 C   0  0  0  0  0  0  0  0  0  0  0  0
  143.3210   80.5330  223.6310 C   0  0  0  0  0  0  0  0  0  0  0  0
  142.9510   79.7720  222.5380 C   0  0  0  0  0  0  0  0  0  0  0  0
  141.4070   77.4790  220.9740 C   0  0  0  0  0  0  0  0  0  0  0  0
  140.4130   76.8310  221.8800 C   0  0  0  0  0  0  0  0  0  0  0  0
  139.4860   75.8820  221.1120 C   0  0  0  0  0  0  0  0  0  0  0  0
  140.2560   74.8990  220.3870 N   0  0  0  0  0  0  0  0  0  0  0  0
  139.9550   73.5250  220.2970 C   0  0  0  0  0  0  0  0  0  0  0  0
  140.6880   72.7370  219.6070 O   0  0  0  0  0  0  0  0  0  0  0  0
  138.7950   72.8750  220.9700 C   0  0  2  0  0  0  0  0  0  0  0  0
  137.5620   73.6750  220.6680 C   0  0  0  0  0  0  0  0  0  0  0  0
  139.0440   72.8700  222.4040 N   0  0  0  0  0  0  0  0  0  0  0  0
  140.3190   72.3040  222.7680 C   0  0  0  0  0  0  0  0  0  0  0  0
  140.1440   71.2390  223.8200 C   0  0  0  0  0  0  0  0  0  0  0  0
  139.5150   70.0450  223.5420 C   0  0  0  0  0  0  0  0  0  0  0  0
  139.4130   69.1430  224.5910 C   0  0  0  0  0  0  0  0  0  0  0  0
  139.9230   69.4430  225.8470 C   0  0  0  0  0  0  0  0  0  0  0  0
  139.8320   68.5590  226.9050 C   0  0  0  0  0  0  0  0  0  0  0  0
  140.3450   68.8710  228.1520 C   0  0  0  0  0  0  0  0  0  0  0  0
  140.2650   68.0160  229.1980 F   0  0  0  0  0  0  0  0  0  0  0  0
  140.9700   70.0830  228.3860 C   0  0  0  0  0  0  0  0  0  0  0  0
  141.0710   70.9800  227.3380 C   0  0  0  0  0  0  0  0  0  0  0  0
  140.5500   70.6470  226.1010 C   0  0  0  0  0  0  0  0  0  0  0  0
  140.6570   71.5480  225.0700 C   0  0  0  0  0  0  0  0  0  0  0  0
  141.4500   75.3920  219.6990 C   0  0  0  0  0  0  0  0  0  0  0  0
  141.3100   76.8930  219.5870 C   0  0  0  0  0  0  0  0  0  0  0  0
  143.1187   78.6044  218.3740 H   0  0  0  0  0  0  0  0  0  0  0  0
  141.7747   79.0413  217.2652 H   0  0  0  0  0  0  0  0  0  0  0  0
  143.2892   80.0073  217.2652 H   0  0  0  0  0  0  0  0  0  0  0  0
  142.8188   80.6863  219.6080 H   0  0  0  0  0  0  0  0  0  0  0  0
  141.5303   81.2001  218.4552 H   0  0  0  0  0  0  0  0  0  0  0  0
  139.6441   80.4603  222.4216 H   0  0  0  0  0  0  0  0  0  0  0  0
  140.2875   81.8309  224.3851 H   0  0  0  0  0  0  0  0  0  0  0  0
  142.6421   81.8914  225.1741 H   0  0  0  0  0  0  0  0  0  0  0  0
  144.3686   80.5463  223.9663 H   0  0  0  0  0  0  0  0  0  0  0  0
  143.7161   79.1835  222.0104 H   0  0  0  0  0  0  0  0  0  0  0  0
  142.3986   77.2515  221.3922 H   0  0  0  0  0  0  0  0  0  0  0  0
  140.9513   76.2590  222.6501 H   0  0  0  0  0  0  0  0  0  0  0  0
  139.7971   77.6199  222.3363 H   0  0  0  0  0  0  0  0  0  0  0  0
  138.8228   75.3690  221.8241 H   0  0  0  0  0  0  0  0  0  0  0  0
  138.8922   76.4680  220.3950 H   0  0  0  0  0  0  0  0  0  0  0  0
  138.6585   71.8429  220.6148 H   0  0  0  0  0  0  0  0  0  0  0  0
  137.0856   73.9841  221.6101 H   0  0  0  0  0  0  0  0  0  0  0  0
  137.8371   74.5671  220.0863 H   0  0  0  0  0  0  0  0  0  0  0  0
  136.8594   73.0602  220.0863 H   0  0  0  0  0  0  0  0  0  0  0  0
  139.0010   73.8320  222.7940 H   0  0  0  0  0  0  0  0  0  0  0  0
  140.7850   71.8588  221.8765 H   0  0  0  0  0  0  0  0  0  0  0  0
  140.9592   73.1016  223.1730 H   0  0  0  0  0  0  0  0  0  0  0  0
  139.1154   69.8192  222.5423 H   0  0  0  0  0  0  0  0  0  0  0  0
  138.9198   68.1739  224.4249 H   0  0  0  0  0  0  0  0  0  0  0  0
  139.3413   67.5863  226.7529 H   0  0  0  0  0  0  0  0  0  0  0  0
  141.3757   70.3267  229.3790 H   0  0  0  0  0  0  0  0  0  0  0  0
  141.5628   71.9525  227.4876 H   0  0  0  0  0  0  0  0  0  0  0  0
  141.1508   72.5167  225.2366 H   0  0  0  0  0  0  0  0  0  0  0  0
  142.3505   75.1391  220.2778 H   0  0  0  0  0  0  0  0  0  0  0  0
  141.5468   74.9323  218.7044 H   0  0  0  0  0  0  0  0  0  0  0  0
  142.1150   77.2962  218.9550 H   0  0  0  0  0  0  0  0  0  0  0  0
  140.3429   77.1520  219.1313 H   0  0  0  0  0  0  0  0  0  0  0  0
  1  2  1  0
  2  3  1  0
  3  4  2  0
  3  5  1  0
  5  6  1  0
  6  7  2  0
  7  8  1  0
  8  9  2  0
  9 10  1  0
 10 11  2  0
  5 12  1  0
 12 13  1  0
 13 14  1  0
 14 15  1  0
 15 16  1  0
 16 17  2  0
 16 18  1  0
 18 19  1  0
 18 20  1  0
 20 21  1  0
 21 22  1  0
 22 23  2  0
 23 24  1  0
 24 25  2  0
 25 26  1  0
 26 27  2  0
 27 28  1  0
 27 29  1  0
 29 30  2  0
 30 31  1  0
 31 32  2  0
 15 33  1  0
 33 34  1  0
 11  6  1  0
 34 12  1  0
 32 22  1  0
 31 25  1  0
  1 35  1  0
  1 36  1  0
  1 37  1  0
  2 38  1  0
  2 39  1  0
  7 40  1  0
  8 41  1  0
  9 42  1  0
 10 43  1  0
 11 44  1  0
 12 45  1  0
 13 46  1  0
 13 47  1  0
 14 48  1  0
 14 49  1  0
 18 50  1  6
 19 51  1  0
 19 52  1  0
 19 53  1  0
 20 54  1  0
 21 55  1  0
 21 56  1  0
 23 57  1  0
 24 58  1  0
 26 59  1  0
 29 60  1  0
 30 61  1  0
 32 62  1  0
 33 63  1  0
 33 64  1  0
 34 65  1  0
 34 66  1  0
M  END
>  <smiles>  (36) 
CCC(=O)N(c1ccccc1)C1CCN(C(=O)[C@H](C)NCc2ccc3cc(F)ccc3c2)CC1

>  <score_type>  (36) 
oracle

>  <origin>  (36) 
autodockgpu

>  <m_score__min__energy>  (36) 
-9.0899999999999999

>  <m_primary>  (36) 
energy

>  <rmsd>  (36) 
8.731561065059395

>  <m_score__min__rmsd>  (36) 
8.731561065059395

>  <meeko>  (36) 
{"free_energy": -8.9, "intermolecular_energy": -11.28, "internal_energy": -1.59, "cluster_size": 28, "cluster_id": 3, "rank_in_cluster": 4}

>  <energy>  (36) 
-8.52

>  <cluster_rmsd>  (36) 
0.79

>  <cluster>  (36) 
3

$$$$

     RDKit          3D

 66 69  0  0  0  0  0  0  0  0999 V2000
  135.6750   70.7280  224.4380 C   0  0  0  0  0  0  0  0  0  0  0  0
  136.2150   69.4200  224.9430 C   0  0  0  0  0  0  0  0  0  0  0  0
  137.3380   68.9380  224.0610 C   0  0  0  0  0  0  0  0  0  0  0  0
  137.0830   68.1250  223.1340 O   0  0  0  0  0  0  0  0  0  0  0  0
  138.6700   69.3920  224.2680 N   0  0  0  0  0  0  0  0  0  0  0  0
  139.3150   68.9640  225.4610 C   0  0  0  0  0  0  0  0  0  0  0  0
  139.9280   67.7380  225.5970 C   0  0  0  0  0  0  0  0  0  0  0  0
  140.5350   67.3910  226.7980 C   0  0  0  0  0  0  0  0  0  0  0  0
  140.5360   68.2600  227.8760 C   0  0  0  0  0  0  0  0  0  0  0  0
  139.9190   69.4950  227.7410 C   0  0  0  0  0  0  0  0  0  0  0  0
  139.3180   69.8320  226.5430 C   0  0  0  0  0  0  0  0  0  0  0  0
  139.3040   70.2430  223.2840 C   0  0  0  0  0  0  0  0  0  0  0  0
  138.3860   70.7460  222.2180 C   0  0  0  0  0  0  0  0  0  0  0  0
  138.3420   72.2780  222.1890 C   0  0  0  0  0  0  0  0  0  0  0  0
  139.6720   72.8190  222.0360 N   0  0  0  0  0  0  0  0  0  0  0  0
  140.0290   73.8910  221.1940 C   0  0  0  0  0  0  0  0  0  0  0  0
  141.2350   74.3150  221.1470 O   0  0  0  0  0  0  0  0  0  0  0  0
  139.0750   74.6150  220.3070 C   0  0  2  0  0  0  0  0  0  0  0  0
  139.5420   74.4670  218.8880 C   0  0  0  0  0  0  0  0  0  0  0  0
  139.0770   76.0200  220.6860 N   0  0  0  0  0  0  0  0  0  0  0  0
  138.6400   76.2540  222.0400 C   0  0  0  0  0  0  0  0  0  0  0  0
  139.1530   77.5810  222.5390 C   0  0  0  0  0  0  0  0  0  0  0  0
  138.2940   78.5770  222.9520 C   0  0  0  0  0  0  0  0  0  0  0  0
  138.8820   79.7540  223.3900 C   0  0  0  0  0  0  0  0  0  0  0  0
  140.2620   79.9040  223.4060 C   0  0  0  0  0  0  0  0  0  0  0  0
  140.8680   81.0690  223.8390 C   0  0  0  0  0  0  0  0  0  0  0  0
  142.2450   81.2040  223.8500 C   0  0  0  0  0  0  0  0  0  0  0  0
  142.8540   82.3380  224.2710 F   0  0  0  0  0  0  0  0  0  0  0  0
  143.0690   80.1770  223.4260 C   0  0  0  0  0  0  0  0  0  0  0  0
  142.4800   79.0040  222.9900 C   0  0  0  0  0  0  0  0  0  0  0  0
  141.1020   78.8910  222.9880 C   0  0  0  0  0  0  0  0  0  0  0  0
  140.5310   77.7210  222.5510 C   0  0  0  0  0  0  0  0  0  0  0  0
  140.7250   72.1810  222.8270 C   0  0  0  0  0  0  0  0  0  0  0  0
  140.0430   71.3930  223.9230 C   0  0  0  0  0  0  0  0  0  0  0  0
  135.4102   71.3694  225.2915 H   0  0  0  0  0  0  0  0  0  0  0  0
  136.4399   71.2288  223.8264 H   0  0  0  0  0  0  0  0  0  0  0  0
  134.7795   70.5434  223.8264 H   0  0  0  0  0  0  0  0  0  0  0  0
  136.5916   69.5550  225.9676 H   0  0  0  0  0  0  0  0  0  0  0  0
  135.4075   68.6731  224.9317 H   0  0  0  0  0  0  0  0  0  0  0  0
  139.9371   67.0322  224.7533 H   0  0  0  0  0  0  0  0  0  0  0  0
  141.0228   66.4097  226.8938 H   0  0  0  0  0  0  0  0  0  0  0  0
  141.0178   67.9759  228.8232 H   0  0  0  0  0  0  0  0  0  0  0  0
  139.9082   70.2025  228.5832 H   0  0  0  0  0  0  0  0  0  0  0  0
  138.8299   70.8129  226.4451 H   0  0  0  0  0  0  0  0  0  0  0  0
  140.0287   69.5852  222.7819 H   0  0  0  0  0  0  0  0  0  0  0  0
  138.7378   70.3803  221.2420 H   0  0  0  0  0  0  0  0  0  0  0  0
  137.3726   70.3764  222.4336 H   0  0  0  0  0  0  0  0  0  0  0  0
  137.7182   72.6064  221.3446 H   0  0  0  0  0  0  0  0  0  0  0  0
  137.9175   72.6399  223.1371 H   0  0  0  0  0  0  0  0  0  0  0  0
  138.0576   74.2080  220.4028 H   0  0  0  0  0  0  0  0  0  0  0  0
  140.5906   74.1347  218.8799 H   0  0  0  0  0  0  0  0  0  0  0  0
  138.9175   73.7227  218.3722 H   0  0  0  0  0  0  0  0  0  0  0  0
  139.4601   75.4351  218.3722 H   0  0  0  0  0  0  0  0  0  0  0  0
  140.0240   76.4340  220.5810 H   0  0  0  0  0  0  0  0  0  0  0  0
  137.5404   76.2566  222.0701 H   0  0  0  0  0  0  0  0  0  0  0  0
  139.0353   75.4549  222.6843 H   0  0  0  0  0  0  0  0  0  0  0  0
  137.2021   78.4453  222.9350 H   0  0  0  0  0  0  0  0  0  0  0  0
  138.2441   80.5829  223.7306 H   0  0  0  0  0  0  0  0  0  0  0  0
  140.2422   81.9061  224.1819 H   0  0  0  0  0  0  0  0  0  0  0  0
  144.1631   80.2902  223.4353 H   0  0  0  0  0  0  0  0  0  0  0  0
  143.1043   78.1658  222.6468 H   0  0  0  0  0  0  0  0  0  0  0  0
  141.1696   76.8929  222.2096 H   0  0  0  0  0  0  0  0  0  0  0  0
  141.3185   71.5073  222.1914 H   0  0  0  0  0  0  0  0  0  0  0  0
  141.4057   72.9335  223.2517 H   0  0  0  0  0  0  0  0  0  0  0  0
  140.7944   71.0076  224.6278 H   0  0  0  0  0  0  0  0  0  0  0  0
  139.3421   72.0364  224.4750 H   0  0  0  0  0  0  0  0  0  0  0  0
  1  2  1  0
  2  3  1  0
  3  4  2  0
  3  5  1  0
  5  6  1  0
  6  7  2  0
  7  8  1  0
  8  9  2  0
  9 10  1  0
 10 11  2  0
  5 12  1  0
 12 13  1  0
 13 14  1  0
 14 15  1  0
 15 16  1  0
 16 17  2  0
 16 18  1  0
 18 19  1  0
 18 20  1  0
 20 21  1  0
 21 22  1  0
 22 23  2  0
 23 24  1  0
 24 25  2  0
 25 26  1  0
 26 27  2  0
 27 28  1  0
 27 29  1  0
 29 30  2  0
 30 31  1  0
 31 32  2  0
 15 33  1  0
 33 34  1  0
 11  6  1  0
 34 12  1  0
 32 22  1  0
 31 25  1  0
  1 35  1  0
  1 36  1  0
  1 37  1  0
  2 38  1  0
  2 39  1  0
  7 40  1  0
  8 41  1  0
  9 42  1  0
 10 43  1  0
 11 44  1  0
 12 45  1  0
 13 46  1  0
 13 47  1  0
 14 48  1  0
 14 49  1  0
 18 50  1  6
 19 51  1  0
 19 52  1  0
 19 53  1  0
 20 54  1  0
 21 55  1  0
 21 56  1  0
 23 57  1  0
 24 58  1  0
 26 59  1  0
 29 60  1  0
 30 61  1  0
 32 62  1  0
 33 63  1  0
 33 64  1  0
 34 65  1  0
 34 66  1  0
M  END
>  <smiles>  (37) 
CCC(=O)N(c1ccccc1)C1CCN(C(=O)[C@H](C)NCc2ccc3cc(F)ccc3c2)CC1

>  <score_type>  (37) 
oracle

>  <origin>  (37) 
autodockgpu

>  <m_score__min__energy>  (37) 
-9.0899999999999999

>  <m_primary>  (37) 
energy

>  <rmsd>  (37) 
4.948946610003321

>  <m_score__min__rmsd>  (37) 
4.948946610003321

>  <meeko>  (37) 
{"free_energy": -7.95, "intermolecular_energy": -10.34, "internal_energy": -2.05, "cluster_size": 1, "cluster_id": 6, "rank_in_cluster": 1}

>  <energy>  (37) 
-8.5

>  <cluster_rmsd>  (37) 
1.46

>  <cluster>  (37) 
3

$$$$

     RDKit          3D

 66 69  0  0  0  0  0  0  0  0999 V2000
  141.6150   81.3000  219.0350 C   0  0  0  0  0  0  0  0  0  0  0  0
  140.8340   82.2290  219.9210 C   0  0  0  0  0  0  0  0  0  0  0  0
  139.7350   81.4800  220.6300 C   0  0  0  0  0  0  0  0  0  0  0  0
  138.5430   81.8550  220.4790 O   0  0  0  0  0  0  0  0  0  0  0  0
  140.0350   80.3640  221.4600 N   0  0  0  0  0  0  0  0  0  0  0  0
  141.1690   80.4830  222.3080 C   0  0  0  0  0  0  0  0  0  0  0  0
  142.3080   79.7200  222.1680 C   0  0  0  0  0  0  0  0  0  0  0  0
  143.3760   79.8930  223.0410 C   0  0  0  0  0  0  0  0  0  0  0  0
  143.3210   80.8270  224.0610 C   0  0  0  0  0  0  0  0  0  0  0  0
  142.1750   81.5960  224.2040 C   0  0  0  0  0  0  0  0  0  0  0  0
  141.1180   81.4180  223.3330 C   0  0  0  0  0  0  0  0  0  0  0  0
  139.1950   79.1860  221.4170 C   0  0  0  0  0  0  0  0  0  0  0  0
  139.6870   78.1090  220.5070 C   0  0  0  0  0  0  0  0  0  0  0  0
  139.9320   76.8000  221.2660 C   0  0  0  0  0  0  0  0  0  0  0  0
  138.7370   76.3910  221.9670 N   0  0  0  0  0  0  0  0  0  0  0  0
  138.2360   75.0760  222.0350 C   0  0  0  0  0  0  0  0  0  0  0  0
  137.1800   74.8100  222.7060 O   0  0  0  0  0  0  0  0  0  0  0  0
  138.8620   73.9040  221.3610 C   0  0  2  0  0  0  0  0  0  0  0  0
  138.0580   73.5760  220.1360 C   0  0  0  0  0  0  0  0  0  0  0  0
  138.8380   72.7800  222.2840 N   0  0  0  0  0  0  0  0  0  0  0  0
  140.1470   72.3610  222.7200 C   0  0  0  0  0  0  0  0  0  0  0  0
  140.0370   71.3100  223.7940 C   0  0  0  0  0  0  0  0  0  0  0  0
  139.4260   70.0970  223.5590 C   0  0  0  0  0  0  0  0  0  0  0  0
  139.3840   69.2110  224.6240 C   0  0  0  0  0  0  0  0  0  0  0  0
  139.9340   69.5430  225.8560 C   0  0  0  0  0  0  0  0  0  0  0  0
  139.9030   68.6740  226.9300 C   0  0  0  0  0  0  0  0  0  0  0  0
  140.4550   69.0190  228.1510 C   0  0  0  0  0  0  0  0  0  0  0  0
  140.4330   68.1790  229.2140 F   0  0  0  0  0  0  0  0  0  0  0  0
  141.0590   70.2490  228.3440 C   0  0  0  0  0  0  0  0  0  0  0  0
  141.0990   71.1300  227.2790 C   0  0  0  0  0  0  0  0  0  0  0  0
  140.5420   70.7650  226.0670 C   0  0  0  0  0  0  0  0  0  0  0  0
  140.5880   71.6510  225.0200 C   0  0  0  0  0  0  0  0  0  0  0  0
  137.9970   77.4500  222.6540 C   0  0  0  0  0  0  0  0  0  0  0  0
  138.9330   78.6280  222.7940 C   0  0  0  0  0  0  0  0  0  0  0  0
  142.1991   80.6053  219.6564 H   0  0  0  0  0  0  0  0  0  0  0  0
  140.9214   80.7294  218.4000 H   0  0  0  0  0  0  0  0  0  0  0  0
  142.2963   81.8853  218.4000 H   0  0  0  0  0  0  0  0  0  0  0  0
  141.5102   82.6720  220.6670 H   0  0  0  0  0  0  0  0  0  0  0  0
  140.3847   83.0189  219.3012 H   0  0  0  0  0  0  0  0  0  0  0  0
  142.3723   78.9724  221.3637 H   0  0  0  0  0  0  0  0  0  0  0  0
  144.2795   79.2775  222.9191 H   0  0  0  0  0  0  0  0  0  0  0  0
  144.1713   80.9574  224.7466 H   0  0  0  0  0  0  0  0  0  0  0  0
  142.1086   82.3442  225.0076 H   0  0  0  0  0  0  0  0  0  0  0  0
  140.2135   82.0321  223.4544 H   0  0  0  0  0  0  0  0  0  0  0  0
  138.2471   79.5430  220.9881 H   0  0  0  0  0  0  0  0  0  0  0  0
  138.9356   77.9324  219.7233 H   0  0  0  0  0  0  0  0  0  0  0  0
  140.6409   78.4371  220.0684 H   0  0  0  0  0  0  0  0  0  0  0  0
  140.2189   76.0150  220.5508 H   0  0  0  0  0  0  0  0  0  0  0  0
  140.7376   76.9584  221.9981 H   0  0  0  0  0  0  0  0  0  0  0  0
  139.9005   74.1225  221.0714 H   0  0  0  0  0  0  0  0  0  0  0  0
  137.0783   73.1763  220.4366 H   0  0  0  0  0  0  0  0  0  0  0  0
  137.9141   74.4873  219.5370 H   0  0  0  0  0  0  0  0  0  0  0  0
  138.5926   72.8241  219.5370 H   0  0  0  0  0  0  0  0  0  0  0  0
  138.2780   73.0030  223.1300 H   0  0  0  0  0  0  0  0  0  0  0  0
  140.6978   71.9459  221.8631 H   0  0  0  0  0  0  0  0  0  0  0  0
  140.6801   73.2318  223.1293 H   0  0  0  0  0  0  0  0  0  0  0  0
  138.9948   69.8456  222.5788 H   0  0  0  0  0  0  0  0  0  0  0  0
  138.9073   68.2285  224.4917 H   0  0  0  0  0  0  0  0  0  0  0  0
  139.4299   67.6880  226.8118 H   0  0  0  0  0  0  0  0  0  0  0  0
  141.4951   70.5183  229.3173 H   0  0  0  0  0  0  0  0  0  0  0  0
  141.5716   72.1165  227.3953 H   0  0  0  0  0  0  0  0  0  0  0  0
  141.0631   72.6341  225.1536 H   0  0  0  0  0  0  0  0  0  0  0  0
  137.1145   77.7375  222.0637 H   0  0  0  0  0  0  0  0  0  0  0  0
  137.6486   77.1078  223.6397 H   0  0  0  0  0  0  0  0  0  0  0  0
  138.4694   79.3993  223.4266 H   0  0  0  0  0  0  0  0  0  0  0  0
  139.8766   78.3109  223.2621 H   0  0  0  0  0  0  0  0  0  0  0  0
  1  2  1  0
  2  3  1  0
  3  4  2  0
  3  5  1  0
  5  6  1  0
  6  7  2  0
  7  8  1  0
  8  9  2  0
  9 10  1  0
 10 11  2  0
  5 12  1  0
 12 13  1  0
 13 14  1  0
 14 15  1  0
 15 16  1  0
 16 17  2  0
 16 18  1  0
 18 19  1  0
 18 20  1  0
 20 21  1  0
 21 22  1  0
 22 23  2  0
 23 24  1  0
 24 25  2  0
 25 26  1  0
 26 27  2  0
 27 28  1  0
 27 29  1  0
 29 30  2  0
 30 31  1  0
 31 32  2  0
 15 33  1  0
 33 34  1  0
 11  6  1  0
 34 12  1  0
 32 22  1  0
 31 25  1  0
  1 35  1  0
  1 36  1  0
  1 37  1  0
  2 38  1  0
  2 39  1  0
  7 40  1  0
  8 41  1  0
  9 42  1  0
 10 43  1  0
 11 44  1  0
 12 45  1  0
 13 46  1  0
 13 47  1  0
 14 48  1  0
 14 49  1  0
 18 50  1  6
 19 51  1  0
 19 52  1  0
 19 53  1  0
 20 54  1  0
 21 55  1  0
 21 56  1  0
 23 57  1  0
 24 58  1  0
 26 59  1  0
 29 60  1  0
 30 61  1  0
 32 62  1  0
 33 63  1  0
 33 64  1  0
 34 65  1  0
 34 66  1  0
M  END
>  <smiles>  (38) 
CCC(=O)N(c1ccccc1)C1CCN(C(=O)[C@H](C)NCc2ccc3cc(F)ccc3c2)CC1

>  <score_type>  (38) 
oracle

>  <origin>  (38) 
autodockgpu

>  <m_score__min__energy>  (38) 
-9.0899999999999999

>  <m_primary>  (38) 
energy

>  <rmsd>  (38) 
8.79492173629545

>  <m_score__min__rmsd>  (38) 
8.79492173629545

>  <meeko>  (38) 
{"free_energy": -8.72, "intermolecular_energy": -11.11, "internal_energy": -2.33, "cluster_size": 28, "cluster_id": 3, "rank_in_cluster": 13}

>  <energy>  (38) 
-8.48

>  <cluster_rmsd>  (38) 
1.32

>  <cluster>  (38) 
3

$$$$

     RDKit          3D

 66 69  0  0  0  0  0  0  0  0999 V2000
  136.3340   80.9630  225.0050 C   0  0  0  0  0  0  0  0  0  0  0  0
  137.7700   81.0780  224.5790 C   0  0  0  0  0  0  0  0  0  0  0  0
  137.9120   80.7540  223.1140 C   0  0  0  0  0  0  0  0  0  0  0  0
  137.2180   81.3870  222.2760 O   0  0  0  0  0  0  0  0  0  0  0  0
  138.8170   79.7450  222.6780 N   0  0  0  0  0  0  0  0  0  0  0  0
  140.1980   79.9750  222.9220 C   0  0  0  0  0  0  0  0  0  0  0  0
  140.9260   79.2980  223.8760 C   0  0  0  0  0  0  0  0  0  0  0  0
  142.2740   79.5820  224.0570 C   0  0  0  0  0  0  0  0  0  0  0  0
  142.9110   80.5430  223.2910 C   0  0  0  0  0  0  0  0  0  0  0  0
  142.1800   81.2260  222.3290 C   0  0  0  0  0  0  0  0  0  0  0  0
  140.8400   80.9380  222.1560 C   0  0  0  0  0  0  0  0  0  0  0  0
  138.3110   78.5550  222.0280 C   0  0  0  0  0  0  0  0  0  0  0  0
  139.3680   77.6000  221.5780 C   0  0  0  0  0  0  0  0  0  0  0  0
  139.1960   76.2230  222.2280 C   0  0  0  0  0  0  0  0  0  0  0  0
  137.8730   75.7040  221.9690 N   0  0  0  0  0  0  0  0  0  0  0  0
  137.5690   74.3750  221.6120 C   0  0  0  0  0  0  0  0  0  0  0  0
  136.3590   74.0050  221.4290 O   0  0  0  0  0  0  0  0  0  0  0  0
  138.5870   73.3040  221.4210 C   0  0  2  0  0  0  0  0  0  0  0  0
  137.8820   72.0490  220.9970 C   0  0  0  0  0  0  0  0  0  0  0  0
  139.2640   73.0860  222.6910 N   0  0  0  0  0  0  0  0  0  0  0  0
  140.3240   72.1110  222.6210 C   0  0  0  0  0  0  0  0  0  0  0  0
  140.1780   71.0900  223.7200 C   0  0  0  0  0  0  0  0  0  0  0  0
  139.5930   69.8630  223.4920 C   0  0  0  0  0  0  0  0  0  0  0  0
  139.5130   69.0070  224.5800 C   0  0  0  0  0  0  0  0  0  0  0  0
  140.0010   69.3820  225.8250 C   0  0  0  0  0  0  0  0  0  0  0  0
  139.9310   68.5440  226.9220 C   0  0  0  0  0  0  0  0  0  0  0  0
  140.4210   68.9310  228.1570 C   0  0  0  0  0  0  0  0  0  0  0  0
  140.3610   68.1220  229.2410 F   0  0  0  0  0  0  0  0  0  0  0  0
  141.0010   70.1740  228.3410 C   0  0  0  0  0  0  0  0  0  0  0  0
  141.0800   71.0250  227.2530 C   0  0  0  0  0  0  0  0  0  0  0  0
  140.5830   70.6170  226.0290 C   0  0  0  0  0  0  0  0  0  0  0  0
  140.6670   71.4740  224.9590 C   0  0  0  0  0  0  0  0  0  0  0  0
  136.7690   76.6570  222.0880 C   0  0  0  0  0  0  0  0  0  0  0  0
  137.2870   77.8400  222.8750 C   0  0  0  0  0  0  0  0  0  0  0  0
  136.2767   80.9584  226.1035 H   0  0  0  0  0  0  0  0  0  0  0  0
  135.7652   81.8185  224.6117 H   0  0  0  0  0  0  0  0  0  0  0  0
  135.9086   80.0279  224.6117 H   0  0  0  0  0  0  0  0  0  0  0  0
  138.1199   82.1053  224.7584 H   0  0  0  0  0  0  0  0  0  0  0  0
  138.3727   80.3657  225.1616 H   0  0  0  0  0  0  0  0  0  0  0  0
  140.4388   78.5308  224.4958 H   0  0  0  0  0  0  0  0  0  0  0  0
  142.8444   79.0342  224.8216 H   0  0  0  0  0  0  0  0  0  0  0  0
  143.9784   80.7616  223.4421 H   0  0  0  0  0  0  0  0  0  0  0  0
  142.6652   81.9929  221.7073 H   0  0  0  0  0  0  0  0  0  0  0  0
  140.2678   81.4853  221.3924 H   0  0  0  0  0  0  0  0  0  0  0  0
  137.8239   78.9292  221.1155 H   0  0  0  0  0  0  0  0  0  0  0  0
  139.3076   77.4893  220.4853 H   0  0  0  0  0  0  0  0  0  0  0  0
  140.3467   78.0028  221.8779 H   0  0  0  0  0  0  0  0  0  0  0  0
  139.9440   75.5310  221.8138 H   0  0  0  0  0  0  0  0  0  0  0  0
  139.3331   76.3226  223.3149 H   0  0  0  0  0  0  0  0  0  0  0  0
  139.3219   73.5895  220.6539 H   0  0  0  0  0  0  0  0  0  0  0  0
  137.5662   71.4869  221.8882 H   0  0  0  0  0  0  0  0  0  0  0  0
  136.9984   72.3100  220.3960 H   0  0  0  0  0  0  0  0  0  0  0  0
  138.5646   71.4302  220.3960 H   0  0  0  0  0  0  0  0  0  0  0  0
  139.6700   73.9710  223.0550 H   0  0  0  0  0  0  0  0  0  0  0  0
  140.2834   71.6020  221.6467 H   0  0  0  0  0  0  0  0  0  0  0  0
  141.2885   72.6261  222.7409 H   0  0  0  0  0  0  0  0  0  0  0  0
  139.2104   69.5782  222.5008 H   0  0  0  0  0  0  0  0  0  0  0  0
  139.0554   68.0145  224.4549 H   0  0  0  0  0  0  0  0  0  0  0  0
  139.4762   67.5486  226.8110 H   0  0  0  0  0  0  0  0  0  0  0  0
  141.3884   70.4770  229.3249 H   0  0  0  0  0  0  0  0  0  0  0  0
  141.5356   72.0204  227.3611 H   0  0  0  0  0  0  0  0  0  0  0  0
  141.1232   72.4669  225.0854 H   0  0  0  0  0  0  0  0  0  0  0  0
  136.4416   76.9821  221.0894 H   0  0  0  0  0  0  0  0  0  0  0  0
  135.9070   76.1971  222.5935 H   0  0  0  0  0  0  0  0  0  0  0  0
  136.4573   78.5222  223.1119 H   0  0  0  0  0  0  0  0  0  0  0  0
  137.7420   77.5008  223.8173 H   0  0  0  0  0  0  0  0  0  0  0  0
  1  2  1  0
  2  3  1  0
  3  4  2  0
  3  5  1  0
  5  6  1  0
  6  7  2  0
  7  8  1  0
  8  9  2  0
  9 10  1  0
 10 11  2  0
  5 12  1  0
 12 13  1  0
 13 14  1  0
 14 15  1  0
 15 16  1  0
 16 17  2  0
 16 18  1  0
 18 19  1  0
 18 20  1  0
 20 21  1  0
 21 22  1  0
 22 23  2  0
 23 24  1  0
 24 25  2  0
 25 26  1  0
 26 27  2  0
 27 28  1  0
 27 29  1  0
 29 30  2  0
 30 31  1  0
 31 32  2  0
 15 33  1  0
 33 34  1  0
 11  6  1  0
 34 12  1  0
 32 22  1  0
 31 25  1  0
  1 35  1  0
  1 36  1  0
  1 37  1  0
  2 38  1  0
  2 39  1  0
  7 40  1  0
  8 41  1  0
  9 42  1  0
 10 43  1  0
 11 44  1  0
 12 45  1  0
 13 46  1  0
 13 47  1  0
 14 48  1  0
 14 49  1  0
 18 50  1  6
 19 51  1  0
 19 52  1  0
 19 53  1  0
 20 54  1  0
 21 55  1  0
 21 56  1  0
 23 57  1  0
 24 58  1  0
 26 59  1  0
 29 60  1  0
 30 61  1  0
 32 62  1  0
 33 63  1  0
 33 64  1  0
 34 65  1  0
 34 66  1  0
M  END
>  <smiles>  (39) 
CCC(=O)N(c1ccccc1)C1CCN(C(=O)[C@H](C)NCc2ccc3cc(F)ccc3c2)CC1

>  <score_type>  (39) 
oracle

>  <origin>  (39) 
autodockgpu

>  <m_score__min__energy>  (39) 
-9.0899999999999999

>  <m_primary>  (39) 
energy

>  <rmsd>  (39) 
8.880843659559567

>  <m_score__min__rmsd>  (39) 
8.880843659559567

>  <meeko>  (39) 
{"free_energy": -8.82, "intermolecular_energy": -11.21, "internal_energy": -1.63, "cluster_size": 2, "cluster_id": 4, "rank_in_cluster": 2}

>  <energy>  (39) 
-8.42

>  <cluster_rmsd>  (39) 
1.8

>  <cluster>  (39) 
3

$$$$

     RDKit          3D

 66 69  0  0  0  0  0  0  0  0999 V2000
  143.7000   80.5070  223.1690 C   0  0  0  0  0  0  0  0  0  0  0  0
  142.4060   79.7970  223.4540 C   0  0  0  0  0  0  0  0  0  0  0  0
  141.2520   80.5330  222.8220 C   0  0  0  0  0  0  0  0  0  0  0  0
  140.7350   81.5030  223.4350 O   0  0  0  0  0  0  0  0  0  0  0  0
  140.7500   80.1400  221.5500 N   0  0  0  0  0  0  0  0  0  0  0  0
  141.2390   80.8510  220.4210 C   0  0  0  0  0  0  0  0  0  0  0  0
  140.9330   82.1690  220.1600 C   0  0  0  0  0  0  0  0  0  0  0  0
  141.4480   82.7950  219.0310 C   0  0  0  0  0  0  0  0  0  0  0  0
  142.2720   82.1150  218.1500 C   0  0  0  0  0  0  0  0  0  0  0  0
  142.5810   80.7880  218.4110 C   0  0  0  0  0  0  0  0  0  0  0  0
  142.0650   80.1730  219.5350 C   0  0  0  0  0  0  0  0  0  0  0  0
  139.7930   79.0580  221.4550 C   0  0  0  0  0  0  0  0  0  0  0  0
  140.2100   77.9410  220.5560 C   0  0  0  0  0  0  0  0  0  0  0  0
  140.2800   76.6080  221.3080 C   0  0  0  0  0  0  0  0  0  0  0  0
  139.0190   76.3230  221.9510 N   0  0  0  0  0  0  0  0  0  0  0  0
  138.3790   75.0680  221.9800 C   0  0  0  0  0  0  0  0  0  0  0  0
  137.2710   74.9110  222.6000 O   0  0  0  0  0  0  0  0  0  0  0  0
  138.9070   73.8410  221.3200 C   0  0  2  0  0  0  0  0  0  0  0  0
  138.0350   73.5250  220.1390 C   0  0  0  0  0  0  0  0  0  0  0  0
  138.8560   72.7480  222.2800 N   0  0  0  0  0  0  0  0  0  0  0  0
  140.1560   72.2920  222.7060 C   0  0  0  0  0  0  0  0  0  0  0  0
  140.0230   71.2550  223.7910 C   0  0  0  0  0  0  0  0  0  0  0  0
  139.3850   70.0530  223.5680 C   0  0  0  0  0  0  0  0  0  0  0  0
  139.3250   69.1790  224.6430 C   0  0  0  0  0  0  0  0  0  0  0  0
  139.8830   69.5120  225.8710 C   0  0  0  0  0  0  0  0  0  0  0  0
  139.8340   68.6550  226.9540 C   0  0  0  0  0  0  0  0  0  0  0  0
  140.3940   69.0000  228.1710 C   0  0  0  0  0  0  0  0  0  0  0  0
  140.3540   68.1720  229.2420 F   0  0  0  0  0  0  0  0  0  0  0  0
  141.0250   70.2180  228.3510 C   0  0  0  0  0  0  0  0  0  0  0  0
  141.0840   71.0870  227.2770 C   0  0  0  0  0  0  0  0  0  0  0  0
  140.5170   70.7220  226.0690 C   0  0  0  0  0  0  0  0  0  0  0  0
  140.5830   71.5960  225.0130 C   0  0  0  0  0  0  0  0  0  0  0  0
  138.3630   77.4490  222.6170 C   0  0  0  0  0  0  0  0  0  0  0  0
  139.4120   78.5200  222.8130 C   0  0  0  0  0  0  0  0  0  0  0  0
  144.1880   80.7748  224.1178 H   0  0  0  0  0  0  0  0  0  0  0  0
  144.3615   79.8455  222.5904 H   0  0  0  0  0  0  0  0  0  0  0  0
  143.4974   81.4203  222.5904 H   0  0  0  0  0  0  0  0  0  0  0  0
  142.4540   78.7776  223.0436 H   0  0  0  0  0  0  0  0  0  0  0  0
  142.2519   79.7596  224.5425 H   0  0  0  0  0  0  0  0  0  0  0  0
  140.2796   82.7270  220.8468 H   0  0  0  0  0  0  0  0  0  0  0  0
  141.1970   83.8477  218.8341 H   0  0  0  0  0  0  0  0  0  0  0  0
  142.6746   82.6183  217.2586 H   0  0  0  0  0  0  0  0  0  0  0  0
  143.2342   80.2279  217.7257 H   0  0  0  0  0  0  0  0  0  0  0  0
  142.3147   79.1202  219.7329 H   0  0  0  0  0  0  0  0  0  0  0  0
  138.9089   79.5168  220.9883 H   0  0  0  0  0  0  0  0  0  0  0  0
  139.4813   77.8510  219.7369 H   0  0  0  0  0  0  0  0  0  0  0  0
  141.2130   78.1692  220.1662 H   0  0  0  0  0  0  0  0  0  0  0  0
  140.5134   75.8026  220.5960 H   0  0  0  0  0  0  0  0  0  0  0  0
  141.0642   76.6740  222.0766 H   0  0  0  0  0  0  0  0  0  0  0  0
  139.9435   73.9882  220.9824 H   0  0  0  0  0  0  0  0  0  0  0  0
  137.0553   73.1700  220.4912 H   0  0  0  0  0  0  0  0  0  0  0  0
  137.8995   74.4312  219.5304 H   0  0  0  0  0  0  0  0  0  0  0  0
  138.5115   72.7424  219.5304 H   0  0  0  0  0  0  0  0  0  0  0  0
  138.3210   73.0200  223.1270 H   0  0  0  0  0  0  0  0  0  0  0  0
  140.6843   71.8517  221.8475 H   0  0  0  0  0  0  0  0  0  0  0  0
  140.7214   73.1490  223.1008 H   0  0  0  0  0  0  0  0  0  0  0  0
  138.9475   69.8012  222.5907 H   0  0  0  0  0  0  0  0  0  0  0  0
  138.8272   68.2056  224.5214 H   0  0  0  0  0  0  0  0  0  0  0  0
  139.3395   67.6784  226.8461 H   0  0  0  0  0  0  0  0  0  0  0  0
  141.4674   70.4876  229.3214 H   0  0  0  0  0  0  0  0  0  0  0  0
  141.5792   72.0635  227.3826 H   0  0  0  0  0  0  0  0  0  0  0  0
  141.0811   72.5690  225.1361 H   0  0  0  0  0  0  0  0  0  0  0  0
  137.5439   77.8328  221.9911 H   0  0  0  0  0  0  0  0  0  0  0  0
  137.9345   77.1386  223.5814 H   0  0  0  0  0  0  0  0  0  0  0  0
  139.0050   79.3312  223.4345 H   0  0  0  0  0  0  0  0  0  0  0  0
  140.2947   78.1007  223.3180 H   0  0  0  0  0  0  0  0  0  0  0  0
  1  2  1  0
  2  3  1  0
  3  4  2  0
  3  5  1  0
  5  6  1  0
  6  7  2  0
  7  8  1  0
  8  9  2  0
  9 10  1  0
 10 11  2  0
  5 12  1  0
 12 13  1  0
 13 14  1  0
 14 15  1  0
 15 16  1  0
 16 17  2  0
 16 18  1  0
 18 19  1  0
 18 20  1  0
 20 21  1  0
 21 22  1  0
 22 23  2  0
 23 24  1  0
 24 25  2  0
 25 26  1  0
 26 27  2  0
 27 28  1  0
 27 29  1  0
 29 30  2  0
 30 31  1  0
 31 32  2  0
 15 33  1  0
 33 34  1  0
 11  6  1  0
 34 12  1  0
 32 22  1  0
 31 25  1  0
  1 35  1  0
  1 36  1  0
  1 37  1  0
  2 38  1  0
  2 39  1  0
  7 40  1  0
  8 41  1  0
  9 42  1  0
 10 43  1  0
 11 44  1  0
 12 45  1  0
 13 46  1  0
 13 47  1  0
 14 48  1  0
 14 49  1  0
 18 50  1  6
 19 51  1  0
 19 52  1  0
 19 53  1  0
 20 54  1  0
 21 55  1  0
 21 56  1  0
 23 57  1  0
 24 58  1  0
 26 59  1  0
 29 60  1  0
 30 61  1  0
 32 62  1  0
 33 63  1  0
 33 64  1  0
 34 65  1  0
 34 66  1  0
M  END
>  <smiles>  (40) 
CCC(=O)N(c1ccccc1)C1CCN(C(=O)[C@H](C)NCc2ccc3cc(F)ccc3c2)CC1

>  <score_type>  (40) 
oracle

>  <origin>  (40) 
autodockgpu

>  <m_score__min__energy>  (40) 
-9.0899999999999999

>  <m_primary>  (40) 
energy

>  <rmsd>  (40) 
8.80201214001018

>  <m_score__min__rmsd>  (40) 
8.80201214001018

>  <meeko>  (40) 
{"free_energy": -8.68, "intermolecular_energy": -11.07, "internal_energy": -2.12, "cluster_size": 8, "cluster_id": 2, "rank_in_cluster": 5}

>  <energy>  (40) 
-8.35

>  <cluster_rmsd>  (40) 
1.67

>  <cluster>  (40) 
3

$$$$

     RDKit          3D

 66 69  0  0  0  0  0  0  0  0999 V2000
  137.5670   81.7960  223.2390 C   0  0  0  0  0  0  0  0  0  0  0  0
  137.7820   82.0080  221.7670 C   0  0  0  0  0  0  0  0  0  0  0  0
  139.1890   81.6280  221.3810 C   0  0  0  0  0  0  0  0  0  0  0  0
  139.8710   82.4280  220.6870 O   0  0  0  0  0  0  0  0  0  0  0  0
  139.7430   80.3840  221.7910 N   0  0  0  0  0  0  0  0  0  0  0  0
  141.0080   80.4290  222.4370 C   0  0  0  0  0  0  0  0  0  0  0  0
  142.0830   79.6520  222.0630 C   0  0  0  0  0  0  0  0  0  0  0  0
  143.2880   79.7500  222.7480 C   0  0  0  0  0  0  0  0  0  0  0  0
  143.4360   80.6230  223.8120 C   0  0  0  0  0  0  0  0  0  0  0  0
  142.3560   81.4070  224.1910 C   0  0  0  0  0  0  0  0  0  0  0  0
  141.1610   81.3020  223.5050 C   0  0  0  0  0  0  0  0  0  0  0  0
  139.0170   79.1560  221.5490 C   0  0  0  0  0  0  0  0  0  0  0  0
  139.7630   78.1470  220.7380 C   0  0  0  0  0  0  0  0  0  0  0  0
  139.9400   76.8300  221.5010 C   0  0  0  0  0  0  0  0  0  0  0  0
  138.6600   76.3180  221.9300 N   0  0  0  0  0  0  0  0  0  0  0  0
  138.2520   74.9710  221.8640 C   0  0  0  0  0  0  0  0  0  0  0  0
  137.1030   74.6110  222.2950 O   0  0  0  0  0  0  0  0  0  0  0  0
  139.0860   73.8680  221.3080 C   0  0  2  0  0  0  0  0  0  0  0  0
  138.5170   73.4680  219.9780 C   0  0  0  0  0  0  0  0  0  0  0  0
  139.0290   72.7440  222.2300 N   0  0  0  0  0  0  0  0  0  0  0  0
  140.3230   72.3100  222.6940 C   0  0  0  0  0  0  0  0  0  0  0  0
  140.1780   71.2380  223.7440 C   0  0  0  0  0  0  0  0  0  0  0  0
  139.5620   70.0360  223.4680 C   0  0  0  0  0  0  0  0  0  0  0  0
  139.4870   69.1280  224.5140 C   0  0  0  0  0  0  0  0  0  0  0  0
  140.0090   69.4310  225.7650 C   0  0  0  0  0  0  0  0  0  0  0  0
  139.9440   68.5400  226.8200 C   0  0  0  0  0  0  0  0  0  0  0  0
  140.4680   68.8550  228.0620 C   0  0  0  0  0  0  0  0  0  0  0  0
  140.4130   67.9940  229.1050 F   0  0  0  0  0  0  0  0  0  0  0  0
  141.0770   70.0760  228.2940 C   0  0  0  0  0  0  0  0  0  0  0  0
  141.1510   70.9780  227.2490 C   0  0  0  0  0  0  0  0  0  0  0  0
  140.6210   70.6420  226.0170 C   0  0  0  0  0  0  0  0  0  0  0  0
  140.7010   71.5500  224.9890 C   0  0  0  0  0  0  0  0  0  0  0  0
  137.7190   77.2990  222.4720 C   0  0  0  0  0  0  0  0  0  0  0  0
  138.5200   78.5310  222.8290 C   0  0  0  0  0  0  0  0  0  0  0  0
  138.2379   82.4576  223.8066 H   0  0  0  0  0  0  0  0  0  0  0  0
  136.5222   82.0271  223.4940 H   0  0  0  0  0  0  0  0  0  0  0  0
  137.7835   80.7481  223.4940 H   0  0  0  0  0  0  0  0  0  0  0  0
  137.0711   81.3858  221.2036 H   0  0  0  0  0  0  0  0  0  0  0  0
  137.6225   83.0709  221.5327 H   0  0  0  0  0  0  0  0  0  0  0  0
  141.9869   78.9522  221.2198 H   0  0  0  0  0  0  0  0  0  0  0  0
  144.1381   79.1237  222.4397 H   0  0  0  0  0  0  0  0  0  0  0  0
  144.3939   80.6939  224.3480 H   0  0  0  0  0  0  0  0  0  0  0  0
  142.4504   82.1084  225.0330 H   0  0  0  0  0  0  0  0  0  0  0  0
  140.3094   81.9262  223.8133 H   0  0  0  0  0  0  0  0  0  0  0  0
  138.1539   79.4656  220.9413 H   0  0  0  0  0  0  0  0  0  0  0  0
  139.2044   77.9503  219.8110 H   0  0  0  0  0  0  0  0  0  0  0  0
  140.7609   78.5532  220.5164 H   0  0  0  0  0  0  0  0  0  0  0  0
  140.4227   76.0925  220.8429 H   0  0  0  0  0  0  0  0  0  0  0  0
  140.5648   77.0137  222.3875 H   0  0  0  0  0  0  0  0  0  0  0  0
  140.1307   74.1874  221.1791 H   0  0  0  0  0  0  0  0  0  0  0  0
  137.6262   72.8418  220.1337 H   0  0  0  0  0  0  0  0  0  0  0  0
  138.2374   74.3693  219.4128 H   0  0  0  0  0  0  0  0  0  0  0  0
  139.2704   72.8998  219.4128 H   0  0  0  0  0  0  0  0  0  0  0  0
  138.4530   72.9730  223.0630 H   0  0  0  0  0  0  0  0  0  0  0  0
  140.8958   71.9091  221.8448 H   0  0  0  0  0  0  0  0  0  0  0  0
  140.8483   73.1699  223.1352 H   0  0  0  0  0  0  0  0  0  0  0  0
  139.1523   69.8093  222.4726 H   0  0  0  0  0  0  0  0  0  0  0  0
  139.0064   68.1522  224.3501 H   0  0  0  0  0  0  0  0  0  0  0  0
  139.4661   67.5607  226.6695 H   0  0  0  0  0  0  0  0  0  0  0  0
  141.4909   70.3220  229.2830 H   0  0  0  0  0  0  0  0  0  0  0  0
  141.6289   71.9577  227.3968 H   0  0  0  0  0  0  0  0  0  0  0  0
  141.1808   72.5259  225.1543 H   0  0  0  0  0  0  0  0  0  0  0  0
  136.9579   77.5488  221.7181 H   0  0  0  0  0  0  0  0  0  0  0  0
  137.2006   76.8986  223.3557 H   0  0  0  0  0  0  0  0  0  0  0  0
  137.8826   79.2460  223.3698 H   0  0  0  0  0  0  0  0  0  0  0  0
  139.3685   78.2593  223.4742 H   0  0  0  0  0  0  0  0  0  0  0  0
  1  2  1  0
  2  3  1  0
  3  4  2  0
  3  5  1  0
  5  6  1  0
  6  7  2  0
  7  8  1  0
  8  9  2  0
  9 10  1  0
 10 11  2  0
  5 12  1  0
 12 13  1  0
 13 14  1  0
 14 15  1  0
 15 16  1  0
 16 17  2  0
 16 18  1  0
 18 19  1  0
 18 20  1  0
 20 21  1  0
 21 22  1  0
 22 23  2  0
 23 24  1  0
 24 25  2  0
 25 26  1  0
 26 27  2  0
 27 28  1  0
 27 29  1  0
 29 30  2  0
 30 31  1  0
 31 32  2  0
 15 33  1  0
 33 34  1  0
 11  6  1  0
 34 12  1  0
 32 22  1  0
 31 25  1  0
  1 35  1  0
  1 36  1  0
  1 37  1  0
  2 38  1  0
  2 39  1  0
  7 40  1  0
  8 41  1  0
  9 42  1  0
 10 43  1  0
 11 44  1  0
 12 45  1  0
 13 46  1  0
 13 47  1  0
 14 48  1  0
 14 49  1  0
 18 50  1  6
 19 51  1  0
 19 52  1  0
 19 53  1  0
 20 54  1  0
 21 55  1  0
 21 56  1  0
 23 57  1  0
 24 58  1  0
 26 59  1  0
 29 60  1  0
 30 61  1  0
 32 62  1  0
 33 63  1  0
 33 64  1  0
 34 65  1  0
 34 66  1  0
M  END
>  <smiles>  (41) 
CCC(=O)N(c1ccccc1)C1CCN(C(=O)[C@H](C)NCc2ccc3cc(F)ccc3c2)CC1

>  <score_type>  (41) 
oracle

>  <origin>  (41) 
autodockgpu

>  <m_score__min__energy>  (41) 
-9.0899999999999999

>  <m_primary>  (41) 
energy

>  <rmsd>  (41) 
8.825175224219038

>  <m_score__min__rmsd>  (41) 
8.825175224219038

>  <meeko>  (41) 
{"free_energy": -8.76, "intermolecular_energy": -11.15, "internal_energy": -2.12, "cluster_size": 28, "cluster_id": 3, "rank_in_cluster": 11}

>  <energy>  (41) 
-8.34

>  <cluster_rmsd>  (41) 
0.77

>  <cluster>  (41) 
3

$$$$

     RDKit          3D

 66 69  0  0  0  0  0  0  0  0999 V2000
  142.9570   80.9130  224.1860 C   0  0  0  0  0  0  0  0  0  0  0  0
  142.1720   79.8150  223.5250 C   0  0  0  0  0  0  0  0  0  0  0  0
  141.1290   80.3940  222.6040 C   0  0  0  0  0  0  0  0  0  0  0  0
  141.4490   81.3370  221.8330 O   0  0  0  0  0  0  0  0  0  0  0  0
  139.8000   79.8870  222.6030 N   0  0  0  0  0  0  0  0  0  0  0  0
  138.8140   80.6720  223.2610 C   0  0  0  0  0  0  0  0  0  0  0  0
  138.4260   80.4680  224.5670 C   0  0  0  0  0  0  0  0  0  0  0  0
  137.4520   81.2770  225.1410 C   0  0  0  0  0  0  0  0  0  0  0  0
  136.8540   82.2960  224.4190 C   0  0  0  0  0  0  0  0  0  0  0  0
  137.2430   82.5030  223.1040 C   0  0  0  0  0  0  0  0  0  0  0  0
  138.2120   81.6940  222.5420 C   0  0  0  0  0  0  0  0  0  0  0  0
  139.5070   78.6320  221.9450 C   0  0  0  0  0  0  0  0  0  0  0  0
  140.7060   77.7870  221.6620 C   0  0  0  0  0  0  0  0  0  0  0  0
  140.6030   76.4170  222.3410 C   0  0  0  0  0  0  0  0  0  0  0  0
  139.3850   75.7490  221.9490 N   0  0  0  0  0  0  0  0  0  0  0  0
  139.2690   74.3850  221.6120 C   0  0  0  0  0  0  0  0  0  0  0  0
  138.1370   73.8800  221.3010 O   0  0  0  0  0  0  0  0  0  0  0  0
  140.4120   73.4280  221.5850 C   0  0  2  0  0  0  0  0  0  0  0  0
  140.2730   72.5580  220.3700 C   0  0  0  0  0  0  0  0  0  0  0  0
  140.3520   72.6130  222.7880 N   0  0  0  0  0  0  0  0  0  0  0  0
  139.2380   71.6970  222.8120 C   0  0  0  0  0  0  0  0  0  0  0  0
  139.4130   70.6790  223.9090 C   0  0  0  0  0  0  0  0  0  0  0  0
  138.9750   69.3790  223.7640 C   0  0  0  0  0  0  0  0  0  0  0  0
  139.1900   68.5330  224.8420 C   0  0  0  0  0  0  0  0  0  0  0  0
  139.8160   68.9870  225.9960 C   0  0  0  0  0  0  0  0  0  0  0  0
  140.0400   68.1600  227.0810 C   0  0  0  0  0  0  0  0  0  0  0  0
  140.6640   68.6260  228.2250 C   0  0  0  0  0  0  0  0  0  0  0  0
  140.8910   67.8290  229.2960 F   0  0  0  0  0  0  0  0  0  0  0  0
  141.0870   69.9390  228.3260 C   0  0  0  0  0  0  0  0  0  0  0  0
  140.8710   70.7800  227.2500 C   0  0  0  0  0  0  0  0  0  0  0  0
  140.2460   70.2930  226.1170 C   0  0  0  0  0  0  0  0  0  0  0  0
  140.0380   71.1410  225.0570 C   0  0  0  0  0  0  0  0  0  0  0  0
  138.1800   76.5770  221.8980 C   0  0  0  0  0  0  0  0  0  0  0  0
  138.4690   77.8310  222.6930 C   0  0  0  0  0  0  0  0  0  0  0  0
  142.8832   80.8098  225.2787 H   0  0  0  0  0  0  0  0  0  0  0  0
  144.0118   80.8441  223.8816 H   0  0  0  0  0  0  0  0  0  0  0  0
  142.5505   81.8888  223.8816 H   0  0  0  0  0  0  0  0  0  0  0  0
  142.8565   79.1801  222.9433 H   0  0  0  0  0  0  0  0  0  0  0  0
  141.6702   79.2189  224.3014 H   0  0  0  0  0  0  0  0  0  0  0  0
  138.8881   79.6629  225.1572 H   0  0  0  0  0  0  0  0  0  0  0  0
  137.1517   81.1049  226.1851 H   0  0  0  0  0  0  0  0  0  0  0  0
  136.0833   82.9307  224.8807 H   0  0  0  0  0  0  0  0  0  0  0  0
  136.7824   83.3072  222.5114 H   0  0  0  0  0  0  0  0  0  0  0  0
  138.5136   81.8648  221.4980 H   0  0  0  0  0  0  0  0  0  0  0  0
  139.0989   78.9264  220.9669 H   0  0  0  0  0  0  0  0  0  0  0  0
  140.7916   77.6413  220.5751 H   0  0  0  0  0  0  0  0  0  0  0  0
  141.5923   78.3027  222.0600 H   0  0  0  0  0  0  0  0  0  0  0  0
  141.4650   75.8008  222.0456 H   0  0  0  0  0  0  0  0  0  0  0  0
  140.5952   76.5601  223.4316 H   0  0  0  0  0  0  0  0  0  0  0  0
  141.3739   73.9602  221.5468 H   0  0  0  0  0  0  0  0  0  0  0  0
  140.1066   71.5164  220.6820 H   0  0  0  0  0  0  0  0  0  0  0  0
  139.4184   72.9017  219.7687 H   0  0  0  0  0  0  0  0  0  0  0  0
  141.1922   72.6183  219.7687 H   0  0  0  0  0  0  0  0  0  0  0  0
  141.2210   72.0590  222.9080 H   0  0  0  0  0  0  0  0  0  0  0  0
  138.3098   72.2609  222.9866 H   0  0  0  0  0  0  0  0  0  0  0  0
  139.1885   71.1730  221.8461 H   0  0  0  0  0  0  0  0  0  0  0  0
  138.4822   69.0322  222.8438 H   0  0  0  0  0  0  0  0  0  0  0  0
  138.8594   67.4856  224.7821 H   0  0  0  0  0  0  0  0  0  0  0  0
  139.7156   67.1100  227.0340 H   0  0  0  0  0  0  0  0  0  0  0  0
  141.5820   70.3043  229.2379 H   0  0  0  0  0  0  0  0  0  0  0  0
  141.1945   71.8304  227.2951 H   0  0  0  0  0  0  0  0  0  0  0  0
  140.3678   72.1886  225.1189 H   0  0  0  0  0  0  0  0  0  0  0  0
  137.9445   76.8369  220.8554 H   0  0  0  0  0  0  0  0  0  0  0  0
  137.3166   76.0385  222.3157 H   0  0  0  0  0  0  0  0  0  0  0  0
  137.5486   78.4234  222.8025 H   0  0  0  0  0  0  0  0  0  0  0  0
  138.8389   77.5698  223.6954 H   0  0  0  0  0  0  0  0  0  0  0  0
  1  2  1  0
  2  3  1  0
  3  4  2  0
  3  5  1  0
  5  6  1  0
  6  7  2  0
  7  8  1  0
  8  9  2  0
  9 10  1  0
 10 11  2  0
  5 12  1  0
 12 13  1  0
 13 14  1  0
 14 15  1  0
 15 16  1  0
 16 17  2  0
 16 18  1  0
 18 19  1  0
 18 20  1  0
 20 21  1  0
 21 22  1  0
 22 23  2  0
 23 24  1  0
 24 25  2  0
 25 26  1  0
 26 27  2  0
 27 28  1  0
 27 29  1  0
 29 30  2  0
 30 31  1  0
 31 32  2  0
 15 33  1  0
 33 34  1  0
 11  6  1  0
 34 12  1  0
 32 22  1  0
 31 25  1  0
  1 35  1  0
  1 36  1  0
  1 37  1  0
  2 38  1  0
  2 39  1  0
  7 40  1  0
  8 41  1  0
  9 42  1  0
 10 43  1  0
 11 44  1  0
 12 45  1  0
 13 46  1  0
 13 47  1  0
 14 48  1  0
 14 49  1  0
 18 50  1  6
 19 51  1  0
 19 52  1  0
 19 53  1  0
 20 54  1  0
 21 55  1  0
 21 56  1  0
 23 57  1  0
 24 58  1  0
 26 59  1  0
 29 60  1  0
 30 61  1  0
 32 62  1  0
 33 63  1  0
 33 64  1  0
 34 65  1  0
 34 66  1  0
M  END
>  <smiles>  (42) 
CCC(=O)N(c1ccccc1)C1CCN(C(=O)[C@H](C)NCc2ccc3cc(F)ccc3c2)CC1

>  <score_type>  (42) 
oracle

>  <origin>  (42) 
autodockgpu

>  <m_score__min__energy>  (42) 
-9.0899999999999999

>  <m_primary>  (42) 
energy

>  <rmsd>  (42) 
9.139657083597886

>  <m_score__min__rmsd>  (42) 
9.139657083597886

>  <meeko>  (42) 
{"free_energy": -9.09, "intermolecular_energy": -11.48, "internal_energy": -1.48, "cluster_size": 9, "cluster_id": 1, "rank_in_cluster": 1}

>  <energy>  (42) 
-8.32

>  <cluster_rmsd>  (42) 
1.54

>  <cluster>  (42) 
3

$$$$

     RDKit          3D

 66 69  0  0  0  0  0  0  0  0999 V2000
  142.9730   76.7460  218.3030 C   0  0  0  0  0  0  0  0  0  0  0  0
  142.6470   77.0670  219.7350 C   0  0  0  0  0  0  0  0  0  0  0  0
  141.7650   78.2870  219.8120 C   0  0  0  0  0  0  0  0  0  0  0  0
  141.7850   79.1180  218.8670 O   0  0  0  0  0  0  0  0  0  0  0  0
  140.9210   78.5020  220.9370 N   0  0  0  0  0  0  0  0  0  0  0  0
  141.3420   79.4830  221.8760 C   0  0  0  0  0  0  0  0  0  0  0  0
  141.0070   80.8160  221.7870 C   0  0  0  0  0  0  0  0  0  0  0  0
  141.4610   81.7160  222.7440 C   0  0  0  0  0  0  0  0  0  0  0  0
  142.2540   81.2970  223.7990 C   0  0  0  0  0  0  0  0  0  0  0  0
  142.5930   79.9550  223.8900 C   0  0  0  0  0  0  0  0  0  0  0  0
  142.1380   79.0670  222.9340 C   0  0  0  0  0  0  0  0  0  0  0  0
  139.6970   77.7420  221.0760 C   0  0  0  0  0  0  0  0  0  0  0  0
  139.6730   76.4620  220.3060 C   0  0  0  0  0  0  0  0  0  0  0  0
  139.4620   75.2550  221.2260 C   0  0  0  0  0  0  0  0  0  0  0  0
  138.2600   75.4200  222.0100 N   0  0  0  0  0  0  0  0  0  0  0  0
  137.3060   74.4170  222.2690 C   0  0  0  0  0  0  0  0  0  0  0  0
  136.2840   74.6560  222.9980 O   0  0  0  0  0  0  0  0  0  0  0  0
  137.3870   73.0260  221.7400 C   0  0  2  0  0  0  0  0  0  0  0  0
  136.0560   72.6660  221.1440 C   0  0  0  0  0  0  0  0  0  0  0  0
  137.6910   72.1330  222.8480 N   0  0  0  0  0  0  0  0  0  0  0  0
  139.0770   71.7420  222.9120 C   0  0  0  0  0  0  0  0  0  0  0  0
  139.2870   70.7110  223.9910 C   0  0  0  0  0  0  0  0  0  0  0  0
  138.8470   69.4130  223.8440 C   0  0  0  0  0  0  0  0  0  0  0  0
  139.0970   68.5540  224.9040 C   0  0  0  0  0  0  0  0  0  0  0  0
  139.7570   68.9950  226.0440 C   0  0  0  0  0  0  0  0  0  0  0  0
  140.0160   68.1560  227.1120 C   0  0  0  0  0  0  0  0  0  0  0  0
  140.6740   68.6090  228.2410 C   0  0  0  0  0  0  0  0  0  0  0  0
  140.9360   67.8000  229.2950 F   0  0  0  0  0  0  0  0  0  0  0  0
  141.0990   69.9220  228.3450 C   0  0  0  0  0  0  0  0  0  0  0  0
  140.8480   70.7750  227.2860 C   0  0  0  0  0  0  0  0  0  0  0  0
  140.1890   70.3010  226.1670 C   0  0  0  0  0  0  0  0  0  0  0  0
  139.9460   71.1600  225.1240 C   0  0  0  0  0  0  0  0  0  0  0  0
  138.0310   76.7530  222.5690 C   0  0  0  0  0  0  0  0  0  0  0  0
  139.3520   77.4870  222.5230 C   0  0  0  0  0  0  0  0  0  0  0  0
  143.7565   75.9746  218.2693 H   0  0  0  0  0  0  0  0  0  0  0  0
  142.0704   76.3743  217.7959 H   0  0  0  0  0  0  0  0  0  0  0  0
  143.3307   77.6542  217.7959 H   0  0  0  0  0  0  0  0  0  0  0  0
  142.1236   76.2121  220.1880 H   0  0  0  0  0  0  0  0  0  0  0  0
  143.5825   77.2680  220.2777 H   0  0  0  0  0  0  0  0  0  0  0  0
  140.3785   81.1693  220.9563 H   0  0  0  0  0  0  0  0  0  0  0  0
  141.1860   82.7779  222.6620 H   0  0  0  0  0  0  0  0  0  0  0  0
  142.6090   82.0160  224.5520 H   0  0  0  0  0  0  0  0  0  0  0  0
  143.2214   79.5992  224.7197 H   0  0  0  0  0  0  0  0  0  0  0  0
  142.4133   78.0050  223.0135 H   0  0  0  0  0  0  0  0  0  0  0  0
  138.9246   78.3855  220.6296 H   0  0  0  0  0  0  0  0  0  0  0  0
  138.8527   76.5009  219.5741 H   0  0  0  0  0  0  0  0  0  0  0  0
  140.6437   76.3452  219.8018 H   0  0  0  0  0  0  0  0  0  0  0  0
  139.3732   74.3450  220.6145 H   0  0  0  0  0  0  0  0  0  0  0  0
  140.3220   75.1722  221.9068 H   0  0  0  0  0  0  0  0  0  0  0  0
  138.1688   72.9405  220.9709 H   0  0  0  0  0  0  0  0  0  0  0  0
  135.3339   72.4707  221.9505 H   0  0  0  0  0  0  0  0  0  0  0  0
  135.6952   73.4988  220.5225 H   0  0  0  0  0  0  0  0  0  0  0  0
  136.1642   71.7649  220.5225 H   0  0  0  0  0  0  0  0  0  0  0  0
  137.4420   72.5690  223.7580 H   0  0  0  0  0  0  0  0  0  0  0  0
  139.3782   71.3178  221.9428 H   0  0  0  0  0  0  0  0  0  0  0  0
  139.6856   72.6283  223.1445 H   0  0  0  0  0  0  0  0  0  0  0  0
  138.3260   69.0767  222.9355 H   0  0  0  0  0  0  0  0  0  0  0  0
  138.7672   67.5065  224.8409 H   0  0  0  0  0  0  0  0  0  0  0  0
  139.6919   67.1060  227.0627 H   0  0  0  0  0  0  0  0  0  0  0  0
  141.6220   70.2772  229.2452 H   0  0  0  0  0  0  0  0  0  0  0  0
  141.1711   71.8254  227.3337 H   0  0  0  0  0  0  0  0  0  0  0  0
  140.2754   72.2076  225.1880 H   0  0  0  0  0  0  0  0  0  0  0  0
  137.2802   77.2894  221.9702 H   0  0  0  0  0  0  0  0  0  0  0  0
  137.6561   76.6858  223.6009 H   0  0  0  0  0  0  0  0  0  0  0  0
  139.2660   78.4433  223.0598 H   0  0  0  0  0  0  0  0  0  0  0  0
  140.1388   76.8857  223.0019 H   0  0  0  0  0  0  0  0  0  0  0  0
  1  2  1  0
  2  3  1  0
  3  4  2  0
  3  5  1  0
  5  6  1  0
  6  7  2  0
  7  8  1  0
  8  9  2  0
  9 10  1  0
 10 11  2  0
  5 12  1  0
 12 13  1  0
 13 14  1  0
 14 15  1  0
 15 16  1  0
 16 17  2  0
 16 18  1  0
 18 19  1  0
 18 20  1  0
 20 21  1  0
 21 22  1  0
 22 23  2  0
 23 24  1  0
 24 25  2  0
 25 26  1  0
 26 27  2  0
 27 28  1  0
 27 29  1  0
 29 30  2  0
 30 31  1  0
 31 32  2  0
 15 33  1  0
 33 34  1  0
 11  6  1  0
 34 12  1  0
 32 22  1  0
 31 25  1  0
  1 35  1  0
  1 36  1  0
  1 37  1  0
  2 38  1  0
  2 39  1  0
  7 40  1  0
  8 41  1  0
  9 42  1  0
 10 43  1  0
 11 44  1  0
 12 45  1  0
 13 46  1  0
 13 47  1  0
 14 48  1  0
 14 49  1  0
 18 50  1  6
 19 51  1  0
 19 52  1  0
 19 53  1  0
 20 54  1  0
 21 55  1  0
 21 56  1  0
 23 57  1  0
 24 58  1  0
 26 59  1  0
 29 60  1  0
 30 61  1  0
 32 62  1  0
 33 63  1  0
 33 64  1  0
 34 65  1  0
 34 66  1  0
M  END
>  <smiles>  (43) 
CCC(=O)N(c1ccccc1)C1CCN(C(=O)[C@H](C)NCc2ccc3cc(F)ccc3c2)CC1

>  <score_type>  (43) 
oracle

>  <origin>  (43) 
autodockgpu

>  <m_score__min__energy>  (43) 
-9.0899999999999999

>  <m_primary>  (43) 
energy

>  <rmsd>  (43) 
9.155424592565003

>  <m_score__min__rmsd>  (43) 
9.155424592565003

>  <meeko>  (43) 
{"free_energy": -8.94, "intermolecular_energy": -11.33, "internal_energy": -1.79, "cluster_size": 28, "cluster_id": 3, "rank_in_cluster": 2}

>  <energy>  (43) 
-8.19

>  <cluster_rmsd>  (43) 
1.69

>  <cluster>  (43) 
3

$$$$

     RDKit          3D

 66 69  0  0  0  0  0  0  0  0999 V2000
  141.7640   80.9910  218.9980 C   0  0  0  0  0  0  0  0  0  0  0  0
  140.8810   81.9660  219.7250 C   0  0  0  0  0  0  0  0  0  0  0  0
  139.8000   81.2350  220.4790 C   0  0  0  0  0  0  0  0  0  0  0  0
  138.5970   81.5610  220.2960 O   0  0  0  0  0  0  0  0  0  0  0  0
  140.1280   80.1900  221.3880 N   0  0  0  0  0  0  0  0  0  0  0  0
  141.1590   80.4590  222.3270 C   0  0  0  0  0  0  0  0  0  0  0  0
  141.0500   81.3940  223.3320 C   0  0  0  0  0  0  0  0  0  0  0  0
  142.1060   81.6020  224.2110 C   0  0  0  0  0  0  0  0  0  0  0  0
  143.2820   80.8810  224.0980 C   0  0  0  0  0  0  0  0  0  0  0  0
  143.3950   79.9380  223.0870 C   0  0  0  0  0  0  0  0  0  0  0  0
  142.3410   79.7380  222.2170 C   0  0  0  0  0  0  0  0  0  0  0  0
  139.4150   78.9320  221.3280 C   0  0  0  0  0  0  0  0  0  0  0  0
  139.8420   78.0310  220.2150 C   0  0  0  0  0  0  0  0  0  0  0  0
  140.3480   76.6840  220.7430 C   0  0  0  0  0  0  0  0  0  0  0  0
  139.3440   76.0570  221.5710 N   0  0  0  0  0  0  0  0  0  0  0  0
  138.9970   74.6920  221.5460 C   0  0  0  0  0  0  0  0  0  0  0  0
  138.1100   74.2260  222.3400 O   0  0  0  0  0  0  0  0  0  0  0  0
  139.6060   73.6880  220.6280 C   0  0  2  0  0  0  0  0  0  0  0  0
  138.7920   73.6420  219.3680 C   0  0  0  0  0  0  0  0  0  0  0  0
  139.5740   72.3900  221.2860 N   0  0  0  0  0  0  0  0  0  0  0  0
  140.7130   72.1450  222.1360 C   0  0  0  0  0  0  0  0  0  0  0  0
  140.3090   71.3320  223.3390 C   0  0  0  0  0  0  0  0  0  0  0  0
  139.5420   70.1930  223.2170 C   0  0  0  0  0  0  0  0  0  0  0  0
  139.2330   69.5290  224.3940 C   0  0  0  0  0  0  0  0  0  0  0  0
  139.6820   69.9990  225.6220 C   0  0  0  0  0  0  0  0  0  0  0  0
  139.3860   69.3510  226.8070 C   0  0  0  0  0  0  0  0  0  0  0  0
  139.8400   69.8300  228.0230 C   0  0  0  0  0  0  0  0  0  0  0  0
  139.5600   69.2080  229.1920 F   0  0  0  0  0  0  0  0  0  0  0  0
  140.6090   70.9780  228.0990 C   0  0  0  0  0  0  0  0  0  0  0  0
  140.9150   71.6380  226.9230 C   0  0  0  0  0  0  0  0  0  0  0  0
  140.4510   71.1410  225.7190 C   0  0  0  0  0  0  0  0  0  0  0  0
  140.7620   71.8080  224.5600 C   0  0  0  0  0  0  0  0  0  0  0  0
  138.6360   76.9340  222.5040 C   0  0  0  0  0  0  0  0  0  0  0  0
  139.4600   78.1930  222.6430 C   0  0  0  0  0  0  0  0  0  0  0  0
  142.3162   80.3813  219.7283 H   0  0  0  0  0  0  0  0  0  0  0  0
  141.1453   80.3361  218.3668 H   0  0  0  0  0  0  0  0  0  0  0  0
  142.4768   81.5419  218.3668 H   0  0  0  0  0  0  0  0  0  0  0  0
  141.4890   82.5461  220.4348 H   0  0  0  0  0  0  0  0  0  0  0  0
  140.4121   82.6382  218.9914 H   0  0  0  0  0  0  0  0  0  0  0  0
  140.1241   81.9781  223.4394 H   0  0  0  0  0  0  0  0  0  0  0  0
  142.0056   82.3518  225.0095 H   0  0  0  0  0  0  0  0  0  0  0  0
  144.1129   81.0528  224.7980 H   0  0  0  0  0  0  0  0  0  0  0  0
  144.3197   79.3522  222.9786 H   0  0  0  0  0  0  0  0  0  0  0  0
  142.4402   78.9892  221.4173 H   0  0  0  0  0  0  0  0  0  0  0  0
  138.3754   79.2194  221.1119 H   0  0  0  0  0  0  0  0  0  0  0  0
  138.9841   77.8542  219.5495 H   0  0  0  0  0  0  0  0  0  0  0  0
  140.6651   78.5196  219.6729 H   0  0  0  0  0  0  0  0  0  0  0  0
  140.5793   76.0255  219.8928 H   0  0  0  0  0  0  0  0  0  0  0  0
  141.2517   76.8547  221.3465 H   0  0  0  0  0  0  0  0  0  0  0  0
  140.6452   73.9537  220.3841 H   0  0  0  0  0  0  0  0  0  0  0  0
  137.7238   73.5816  219.6236 H   0  0  0  0  0  0  0  0  0  0  0  0
  138.9771   74.5520  218.7785 H   0  0  0  0  0  0  0  0  0  0  0  0
  139.0785   72.7586  218.7785 H   0  0  0  0  0  0  0  0  0  0  0  0
  138.7180   72.2850  221.8640 H   0  0  0  0  0  0  0  0  0  0  0  0
  141.4773   71.5949  221.5674 H   0  0  0  0  0  0  0  0  0  0  0  0
  141.1158   73.1099  222.4778 H   0  0  0  0  0  0  0  0  0  0  0  0
  139.1940   69.8306  222.2385 H   0  0  0  0  0  0  0  0  0  0  0  0
  138.6223   68.6149  224.3551 H   0  0  0  0  0  0  0  0  0  0  0  0
  138.7768   68.4354  226.7825 H   0  0  0  0  0  0  0  0  0  0  0  0
  140.9670   71.3552  229.0683 H   0  0  0  0  0  0  0  0  0  0  0  0
  141.5243   72.5536  226.9452 H   0  0  0  0  0  0  0  0  0  0  0  0
  141.3721   72.7224  224.6001 H   0  0  0  0  0  0  0  0  0  0  0  0
  137.6384   77.1776  222.1097 H   0  0  0  0  0  0  0  0  0  0  0  0
  138.5041   76.4429  223.4794 H   0  0  0  0  0  0  0  0  0  0  0  0
  139.0425   78.8254  223.4403 H   0  0  0  0  0  0  0  0  0  0  0  0
  140.4988   77.9411  222.9026 H   0  0  0  0  0  0  0  0  0  0  0  0
  1  2  1  0
  2  3  1  0
  3  4  2  0
  3  5  1  0
  5  6  1  0
  6  7  2  0
  7  8  1  0
  8  9  2  0
  9 10  1  0
 10 11  2  0
  5 12  1  0
 12 13  1  0
 13 14  1  0
 14 15  1  0
 15 16  1  0
 16 17  2  0
 16 18  1  0
 18 19  1  0
 18 20  1  0
 20 21  1  0
 21 22  1  0
 22 23  2  0
 23 24  1  0
 24 25  2  0
 25 26  1  0
 26 27  2  0
 27 28  1  0
 27 29  1  0
 29 30  2  0
 30 31  1  0
 31 32  2  0
 15 33  1  0
 33 34  1  0
 11  6  1  0
 34 12  1  0
 32 22  1  0
 31 25  1  0
  1 35  1  0
  1 36  1  0
  1 37  1  0
  2 38  1  0
  2 39  1  0
  7 40  1  0
  8 41  1  0
  9 42  1  0
 10 43  1  0
 11 44  1  0
 12 45  1  0
 13 46  1  0
 13 47  1  0
 14 48  1  0
 14 49  1  0
 18 50  1  6
 19 51  1  0
 19 52  1  0
 19 53  1  0
 20 54  1  0
 21 55  1  0
 21 56  1  0
 23 57  1  0
 24 58  1  0
 26 59  1  0
 29 60  1  0
 30 61  1  0
 32 62  1  0
 33 63  1  0
 33 64  1  0
 34 65  1  0
 34 66  1  0
M  END
>  <smiles>  (44) 
CCC(=O)N(c1ccccc1)C1CCN(C(=O)[C@H](C)NCc2ccc3cc(F)ccc3c2)CC1

>  <score_type>  (44) 
oracle

>  <origin>  (44) 
autodockgpu

>  <m_score__min__energy>  (44) 
-9.0899999999999999

>  <m_primary>  (44) 
energy

>  <rmsd>  (44) 
8.503059871969691

>  <m_score__min__rmsd>  (44) 
8.503059871969691

>  <meeko>  (44) 
{"free_energy": -7.79, "intermolecular_energy": -10.18, "internal_energy": -2.47, "cluster_size": 28, "cluster_id": 3, "rank_in_cluster": 28}

>  <energy>  (44) 
-8.16

>  <cluster_rmsd>  (44) 
1.9

>  <cluster>  (44) 
3

$$$$

     RDKit          3D

 66 69  0  0  0  0  0  0  0  0999 V2000
  142.5420   78.5930  218.0150 C   0  0  0  0  0  0  0  0  0  0  0  0
  141.7390   79.5670  218.8300 C   0  0  0  0  0  0  0  0  0  0  0  0
  140.8160   78.8330  219.7680 C   0  0  0  0  0  0  0  0  0  0  0  0
  139.6440   78.5680  219.3920 O   0  0  0  0  0  0  0  0  0  0  0  0
  141.2570   78.4420  221.0630 N   0  0  0  0  0  0  0  0  0  0  0  0
  141.6000   79.4850  221.9650 C   0  0  0  0  0  0  0  0  0  0  0  0
  142.5920   79.3750  222.9150 C   0  0  0  0  0  0  0  0  0  0  0  0
  142.8660   80.4410  223.7650 C   0  0  0  0  0  0  0  0  0  0  0  0
  142.1560   81.6260  223.6770 C   0  0  0  0  0  0  0  0  0  0  0  0
  141.1570   81.7390  222.7210 C   0  0  0  0  0  0  0  0  0  0  0  0
  140.8900   80.6750  221.8810 C   0  0  0  0  0  0  0  0  0  0  0  0
  141.3320   77.0380  221.4060 C   0  0  0  0  0  0  0  0  0  0  0  0
  140.0150   76.4060  221.7180 C   0  0  0  0  0  0  0  0  0  0  0  0
  139.7180   75.2320  220.7790 C   0  0  0  0  0  0  0  0  0  0  0  0
  140.7890   74.2640  220.8240 N   0  0  0  0  0  0  0  0  0  0  0  0
  140.6290   72.8650  220.8660 C   0  0  0  0  0  0  0  0  0  0  0  0
  141.6440   72.0880  220.8770 O   0  0  0  0  0  0  0  0  0  0  0  0
  139.3090   72.1720  220.8980 C   0  0  2  0  0  0  0  0  0  0  0  0
  138.5770   72.4870  219.6260 C   0  0  0  0  0  0  0  0  0  0  0  0
  138.5590   72.6740  222.0390 N   0  0  0  0  0  0  0  0  0  0  0  0
  137.9340   71.6360  222.8220 C   0  0  0  0  0  0  0  0  0  0  0  0
  138.8580   71.1680  223.9160 C   0  0  0  0  0  0  0  0  0  0  0  0
  139.9980   71.8700  224.2480 C   0  0  0  0  0  0  0  0  0  0  0  0
  140.7700   71.3410  225.2710 C   0  0  0  0  0  0  0  0  0  0  0  0
  140.4010   70.1680  225.9160 C   0  0  0  0  0  0  0  0  0  0  0  0
  141.1570   69.6240  226.9380 C   0  0  0  0  0  0  0  0  0  0  0  0
  140.7770   68.4540  227.5710 C   0  0  0  0  0  0  0  0  0  0  0  0
  141.5060   67.9090  228.5730 F   0  0  0  0  0  0  0  0  0  0  0  0
  139.6250   67.7820  227.2050 C   0  0  0  0  0  0  0  0  0  0  0  0
  138.8560   68.3130  226.1840 C   0  0  0  0  0  0  0  0  0  0  0  0
  139.2550   69.4830  225.5650 C   0  0  0  0  0  0  0  0  0  0  0  0
  138.4820   69.9970  224.5530 C   0  0  0  0  0  0  0  0  0  0  0  0
  142.1490   74.8050  220.8300 C   0  0  0  0  0  0  0  0  0  0  0  0
  142.0600   76.2370  220.3540 C   0  0  0  0  0  0  0  0  0  0  0  0
  143.0958   77.9213  218.6874 H   0  0  0  0  0  0  0  0  0  0  0  0
  141.8661   78.0010  217.3805 H   0  0  0  0  0  0  0  0  0  0  0  0
  143.2520   79.1437  217.3805 H   0  0  0  0  0  0  0  0  0  0  0  0
  142.4225   80.1994  219.4155 H   0  0  0  0  0  0  0  0  0  0  0  0
  141.1366   80.1884  218.1510 H   0  0  0  0  0  0  0  0  0  0  0  0
  143.1684   78.4421  223.0012 H   0  0  0  0  0  0  0  0  0  0  0  0
  143.6600   80.3409  224.5197 H   0  0  0  0  0  0  0  0  0  0  0  0
  142.3801   82.4639  224.3536 H   0  0  0  0  0  0  0  0  0  0  0  0
  140.5801   82.6714  222.6322 H   0  0  0  0  0  0  0  0  0  0  0  0
  140.0951   80.7733  221.1270 H   0  0  0  0  0  0  0  0  0  0  0  0
  141.9130   77.0169  222.3398 H   0  0  0  0  0  0  0  0  0  0  0  0
  140.0316   76.0389  222.7548 H   0  0  0  0  0  0  0  0  0  0  0  0
  139.2286   77.1631  221.5827 H   0  0  0  0  0  0  0  0  0  0  0  0
  138.7800   74.7486  221.0896 H   0  0  0  0  0  0  0  0  0  0  0  0
  139.6263   75.6132  219.7513 H   0  0  0  0  0  0  0  0  0  0  0  0
  139.4351   71.0830  220.9883 H   0  0  0  0  0  0  0  0  0  0  0  0
  137.5909   72.9113  219.8659 H   0  0  0  0  0  0  0  0  0  0  0  0
  139.1568   73.2153  219.0400 H   0  0  0  0  0  0  0  0  0  0  0  0
  138.4468   71.5653  219.0400 H   0  0  0  0  0  0  0  0  0  0  0  0
  139.1680   73.2260  222.6740 H   0  0  0  0  0  0  0  0  0  0  0  0
  137.0106   72.0292  223.2723 H   0  0  0  0  0  0  0  0  0  0  0  0
  137.7040   70.7851  222.1639 H   0  0  0  0  0  0  0  0  0  0  0  0
  140.2792   72.7985  223.7296 H   0  0  0  0  0  0  0  0  0  0  0  0
  141.6907   71.8595  225.5769 H   0  0  0  0  0  0  0  0  0  0  0  0
  142.0799   70.1321  227.2544 H   0  0  0  0  0  0  0  0  0  0  0  0
  139.3282   66.8516  227.7111 H   0  0  0  0  0  0  0  0  0  0  0  0
  137.9323   67.8068  225.8668 H   0  0  0  0  0  0  0  0  0  0  0  0
  137.5618   69.4774  224.2475 H   0  0  0  0  0  0  0  0  0  0  0  0
  142.5641   74.7709  221.8481 H   0  0  0  0  0  0  0  0  0  0  0  0
  142.8078   74.2152  220.1757 H   0  0  0  0  0  0  0  0  0  0  0  0
  143.0712   76.6448  220.2087 H   0  0  0  0  0  0  0  0  0  0  0  0
  141.5204   76.2869  219.3967 H   0  0  0  0  0  0  0  0  0  0  0  0
  1  2  1  0
  2  3  1  0
  3  4  2  0
  3  5  1  0
  5  6  1  0
  6  7  2  0
  7  8  1  0
  8  9  2  0
  9 10  1  0
 10 11  2  0
  5 12  1  0
 12 13  1  0
 13 14  1  0
 14 15  1  0
 15 16  1  0
 16 17  2  0
 16 18  1  0
 18 19  1  0
 18 20  1  0
 20 21  1  0
 21 22  1  0
 22 23  2  0
 23 24  1  0
 24 25  2  0
 25 26  1  0
 26 27  2  0
 27 28  1  0
 27 29  1  0
 29 30  2  0
 30 31  1  0
 31 32  2  0
 15 33  1  0
 33 34  1  0
 11  6  1  0
 34 12  1  0
 32 22  1  0
 31 25  1  0
  1 35  1  0
  1 36  1  0
  1 37  1  0
  2 38  1  0
  2 39  1  0
  7 40  1  0
  8 41  1  0
  9 42  1  0
 10 43  1  0
 11 44  1  0
 12 45  1  0
 13 46  1  0
 13 47  1  0
 14 48  1  0
 14 49  1  0
 18 50  1  1
 19 51  1  0
 19 52  1  0
 19 53  1  0
 20 54  1  0
 21 55  1  0
 21 56  1  0
 23 57  1  0
 24 58  1  0
 26 59  1  0
 29 60  1  0
 30 61  1  0
 32 62  1  0
 33 63  1  0
 33 64  1  0
 34 65  1  0
 34 66  1  0
M  END
>  <smiles>  (45) 
CCC(=O)N(c1ccccc1)C1CCN(C(=O)[C@H](C)NCc2ccc3cc(F)ccc3c2)CC1

>  <score_type>  (45) 
oracle

>  <origin>  (45) 
autodockgpu

>  <m_score__min__energy>  (45) 
-9.0899999999999999

>  <m_primary>  (45) 
energy

>  <rmsd>  (45) 
8.189792862402188

>  <m_score__min__rmsd>  (45) 
8.189792862402188

>  <meeko>  (45) 
{"free_energy": -8.35, "intermolecular_energy": -10.74, "internal_energy": -1.84, "cluster_size": 28, "cluster_id": 3, "rank_in_cluster": 23}

>  <energy>  (45) 
-7.79

>  <cluster_rmsd>  (45) 
1.85

>  <cluster>  (45) 
3

$$$$

     RDKit          3D

 66 69  0  0  0  0  0  0  0  0999 V2000
  141.3770   82.4670  219.5410 C   0  0  0  0  0  0  0  0  0  0  0  0
  140.7940   81.1590  219.0830 C   0  0  0  0  0  0  0  0  0  0  0  0
  141.6290   80.0080  219.5820 C   0  0  0  0  0  0  0  0  0  0  0  0
  142.5760   79.5840  218.8690 O   0  0  0  0  0  0  0  0  0  0  0  0
  141.3540   79.4040  220.8410 N   0  0  0  0  0  0  0  0  0  0  0  0
  141.8400   80.0780  221.9940 C   0  0  0  0  0  0  0  0  0  0  0  0
  143.1160   79.9170  222.4890 C   0  0  0  0  0  0  0  0  0  0  0  0
  143.5160   80.6100  223.6260 C   0  0  0  0  0  0  0  0  0  0  0  0
  142.6500   81.4690  224.2810 C   0  0  0  0  0  0  0  0  0  0  0  0
  141.3650   81.6320  223.7840 C   0  0  0  0  0  0  0  0  0  0  0  0
  140.9750   80.9400  222.6540 C   0  0  0  0  0  0  0  0  0  0  0  0
  140.6070   78.1660  220.8990 C   0  0  0  0  0  0  0  0  0  0  0  0
  141.0130   77.1500  219.8830 C   0  0  0  0  0  0  0  0  0  0  0  0
  141.4780   75.8470  220.5420 C   0  0  0  0  0  0  0  0  0  0  0  0
  140.4550   75.3320  221.4220 N   0  0  0  0  0  0  0  0  0  0  0  0
  140.0690   73.9810  221.5280 C   0  0  0  0  0  0  0  0  0  0  0  0
  139.1660   73.6200  222.3580 O   0  0  0  0  0  0  0  0  0  0  0  0
  140.6530   72.8760  220.7160 C   0  0  2  0  0  0  0  0  0  0  0  0
  139.5910   72.3540  219.7920 C   0  0  0  0  0  0  0  0  0  0  0  0
  141.0820   71.8220  221.6230 N   0  0  0  0  0  0  0  0  0  0  0  0
  139.9930   71.0510  222.1700 C   0  0  0  0  0  0  0  0  0  0  0  0
  140.1820   70.8450  223.6520 C   0  0  0  0  0  0  0  0  0  0  0  0
  140.6960   71.8370  224.4590 C   0  0  0  0  0  0  0  0  0  0  0  0
  140.8240   71.5310  225.8050 C   0  0  0  0  0  0  0  0  0  0  0  0
  140.4500   70.2870  226.2970 C   0  0  0  0  0  0  0  0  0  0  0  0
  140.5700   69.9620  227.6350 C   0  0  0  0  0  0  0  0  0  0  0  0
  140.1920   68.7190  228.1110 C   0  0  0  0  0  0  0  0  0  0  0  0
  140.3030   68.3850  229.4180 F   0  0  0  0  0  0  0  0  0  0  0  0
  139.6800   67.7520  227.2640 C   0  0  0  0  0  0  0  0  0  0  0  0
  139.5530   68.0610  225.9220 C   0  0  0  0  0  0  0  0  0  0  0  0
  139.9370   69.3100  225.4680 C   0  0  0  0  0  0  0  0  0  0  0  0
  139.8050   69.6010  224.1330 C   0  0  0  0  0  0  0  0  0  0  0  0
  139.7680   76.3150  222.2610 C   0  0  0  0  0  0  0  0  0  0  0  0
  140.6270   77.5590  222.2810 C   0  0  0  0  0  0  0  0  0  0  0  0
  141.3906   82.4974  220.6405 H   0  0  0  0  0  0  0  0  0  0  0  0
  142.4038   82.5646  219.1588 H   0  0  0  0  0  0  0  0  0  0  0  0
  140.7631   83.2959  219.1588 H   0  0  0  0  0  0  0  0  0  0  0  0
  139.7709   81.0612  219.4750 H   0  0  0  0  0  0  0  0  0  0  0  0
  140.7810   81.1398  217.9832 H   0  0  0  0  0  0  0  0  0  0  0  0
  143.8194   79.2389  221.9836 H   0  0  0  0  0  0  0  0  0  0  0  0
  144.5372   80.4736  224.0115 H   0  0  0  0  0  0  0  0  0  0  0  0
  142.9752   82.0129  225.1801 H   0  0  0  0  0  0  0  0  0  0  0  0
  140.6598   82.3095  224.2877 H   0  0  0  0  0  0  0  0  0  0  0  0
  139.9540   81.0753  222.2677 H   0  0  0  0  0  0  0  0  0  0  0  0
  139.5765   78.4580  220.6483 H   0  0  0  0  0  0  0  0  0  0  0  0
  140.1535   76.9335  219.2316 H   0  0  0  0  0  0  0  0  0  0  0  0
  141.8525   77.5605  219.3027 H   0  0  0  0  0  0  0  0  0  0  0  0
  141.6919   75.1026  219.7609 H   0  0  0  0  0  0  0  0  0  0  0  0
  142.3846   76.0500  221.1309 H   0  0  0  0  0  0  0  0  0  0  0  0
  141.5117   73.2289  220.1260 H   0  0  0  0  0  0  0  0  0  0  0  0
  138.7588   71.9450  220.3838 H   0  0  0  0  0  0  0  0  0  0  0  0
  139.2219   73.1733  219.1576 H   0  0  0  0  0  0  0  0  0  0  0  0
  140.0142   71.5612  219.1576 H   0  0  0  0  0  0  0  0  0  0  0  0
  141.7310   71.1630  221.1510 H   0  0  0  0  0  0  0  0  0  0  0  0
  139.0479   71.5865  221.9969 H   0  0  0  0  0  0  0  0  0  0  0  0
  139.9694   70.0689  221.6751 H   0  0  0  0  0  0  0  0  0  0  0  0
  140.9887   72.8181  224.0569 H   0  0  0  0  0  0  0  0  0  0  0  0
  141.2286   72.2861  226.4951 H   0  0  0  0  0  0  0  0  0  0  0  0
  140.9744   70.7070  228.3360 H   0  0  0  0  0  0  0  0  0  0  0  0
  139.3823   66.7649  227.6474 H   0  0  0  0  0  0  0  0  0  0  0  0
  139.1488   67.3175  225.2193 H   0  0  0  0  0  0  0  0  0  0  0  0
  139.3993   68.8457  223.4438 H   0  0  0  0  0  0  0  0  0  0  0  0
  138.7789   76.5461  221.8388 H   0  0  0  0  0  0  0  0  0  0  0  0
  139.6188   75.9254  223.2788 H   0  0  0  0  0  0  0  0  0  0  0  0
  140.2247   78.2781  223.0098 H   0  0  0  0  0  0  0  0  0  0  0  0
  141.6575   77.3055  222.5706 H   0  0  0  0  0  0  0  0  0  0  0  0
  1  2  1  0
  2  3  1  0
  3  4  2  0
  3  5  1  0
  5  6  1  0
  6  7  2  0
  7  8  1  0
  8  9  2  0
  9 10  1  0
 10 11  2  0
  5 12  1  0
 12 13  1  0
 13 14  1  0
 14 15  1  0
 15 16  1  0
 16 17  2  0
 16 18  1  0
 18 19  1  0
 18 20  1  0
 20 21  1  0
 21 22  1  0
 22 23  2  0
 23 24  1  0
 24 25  2  0
 25 26  1  0
 26 27  2  0
 27 28  1  0
 27 29  1  0
 29 30  2  0
 30 31  1  0
 31 32  2  0
 15 33  1  0
 33 34  1  0
 11  6  1  0
 34 12  1  0
 32 22  1  0
 31 25  1  0
  1 35  1  0
  1 36  1  0
  1 37  1  0
  2 38  1  0
  2 39  1  0
  7 40  1  0
  8 41  1  0
  9 42  1  0
 10 43  1  0
 11 44  1  0
 12 45  1  0
 13 46  1  0
 13 47  1  0
 14 48  1  0
 14 49  1  0
 18 50  1  6
 19 51  1  0
 19 52  1  0
 19 53  1  0
 20 54  1  0
 21 55  1  0
 21 56  1  0
 23 57  1  0
 24 58  1  0
 26 59  1  0
 29 60  1  0
 30 61  1  0
 32 62  1  0
 33 63  1  0
 33 64  1  0
 34 65  1  0
 34 66  1  0
M  END
>  <smiles>  (46) 
CCC(=O)N(c1ccccc1)C1CCN(C(=O)[C@H](C)NCc2ccc3cc(F)ccc3c2)CC1

>  <score_type>  (46) 
oracle

>  <origin>  (46) 
autodockgpu

>  <m_score__min__energy>  (46) 
-9.0899999999999999

>  <m_primary>  (46) 
energy

>  <rmsd>  (46) 
8.122566016761061

>  <m_score__min__rmsd>  (46) 
8.122566016761061

>  <meeko>  (46) 
{"free_energy": -8.52, "intermolecular_energy": -10.91, "internal_energy": -1.63, "cluster_size": 28, "cluster_id": 3, "rank_in_cluster": 18}

>  <energy>  (46) 
-8.85

>  <cluster_rmsd>  (46) 
0.0

>  <cluster>  (46) 
4

$$$$

     RDKit          3D

 66 69  0  0  0  0  0  0  0  0999 V2000
  143.3170   80.8540  223.9460 C   0  0  0  0  0  0  0  0  0  0  0  0
  142.6580   79.8000  223.1000 C   0  0  0  0  0  0  0  0  0  0  0  0
  141.3540   80.3120  222.5440 C   0  0  0  0  0  0  0  0  0  0  0  0
  140.6810   81.1340  223.2200 O   0  0  0  0  0  0  0  0  0  0  0  0
  140.8850   79.8750  221.2740 N   0  0  0  0  0  0  0  0  0  0  0  0
  141.3780   80.5680  220.1360 C   0  0  0  0  0  0  0  0  0  0  0  0
  141.1050   81.8920  219.8730 C   0  0  0  0  0  0  0  0  0  0  0  0
  141.6220   82.5000  218.7340 C   0  0  0  0  0  0  0  0  0  0  0  0
  142.4160   81.7950  217.8470 C   0  0  0  0  0  0  0  0  0  0  0  0
  142.6930   80.4610  218.1090 C   0  0  0  0  0  0  0  0  0  0  0  0
  142.1750   79.8650  219.2430 C   0  0  0  0  0  0  0  0  0  0  0  0
  139.9550   78.7680  221.1900 C   0  0  0  0  0  0  0  0  0  0  0  0
  140.4660   77.5880  220.4310 C   0  0  0  0  0  0  0  0  0  0  0  0
  140.4870   76.3260  221.3000 C   0  0  0  0  0  0  0  0  0  0  0  0
  139.1770   76.0700  221.8520 N   0  0  0  0  0  0  0  0  0  0  0  0
  138.5540   74.8090  221.9340 C   0  0  0  0  0  0  0  0  0  0  0  0
  137.3980   74.6820  222.4650 O   0  0  0  0  0  0  0  0  0  0  0  0
  139.1560   73.5410  221.4320 C   0  0  2  0  0  0  0  0  0  0  0  0
  138.6810   73.3150  220.0260 C   0  0  0  0  0  0  0  0  0  0  0  0
  138.7070   72.4530  222.2880 N   0  0  0  0  0  0  0  0  0  0  0  0
  139.6210   71.3390  222.3340 C   0  0  0  0  0  0  0  0  0  0  0  0
  139.9790   71.0060  223.7600 C   0  0  0  0  0  0  0  0  0  0  0  0
  140.6780   71.8890  224.5540 C   0  0  0  0  0  0  0  0  0  0  0  0
  140.9500   71.4720  225.8480 C   0  0  0  0  0  0  0  0  0  0  0  0
  140.5320   70.2280  226.3030 C   0  0  0  0  0  0  0  0  0  0  0  0
  140.7930   69.7920  227.5890 C   0  0  0  0  0  0  0  0  0  0  0  0
  140.3710   68.5500  228.0290 C   0  0  0  0  0  0  0  0  0  0  0  0
  140.6170   68.1090  229.2850 F   0  0  0  0  0  0  0  0  0  0  0  0
  139.6710   67.6950  227.1960 C   0  0  0  0  0  0  0  0  0  0  0  0
  139.4010   68.1150  225.9060 C   0  0  0  0  0  0  0  0  0  0  0  0
  139.8320   69.3600  225.4880 C   0  0  0  0  0  0  0  0  0  0  0  0
  139.5580   69.7620  224.2040 C   0  0  0  0  0  0  0  0  0  0  0  0
  138.4490   77.2350  222.3570 C   0  0  0  0  0  0  0  0  0  0  0  0
  139.4610   78.3410  222.5500 C   0  0  0  0  0  0  0  0  0  0  0  0
  143.1684   80.6163  225.0097 H   0  0  0  0  0  0  0  0  0  0  0  0
  144.3939   80.8823  223.7236 H   0  0  0  0  0  0  0  0  0  0  0  0
  142.8708   81.8345  223.7236 H   0  0  0  0  0  0  0  0  0  0  0  0
  143.3265   79.5325  222.2684 H   0  0  0  0  0  0  0  0  0  0  0  0
  142.4576   78.9160  223.7233 H   0  0  0  0  0  0  0  0  0  0  0  0
  140.4762   82.4704  220.5659 H   0  0  0  0  0  0  0  0  0  0  0  0
  141.3961   83.5580  218.5352 H   0  0  0  0  0  0  0  0  0  0  0  0
  142.8210   82.2841  216.9488 H   0  0  0  0  0  0  0  0  0  0  0  0
  143.3217   79.8808  217.4176 H   0  0  0  0  0  0  0  0  0  0  0  0
  142.3999   78.8070  219.4431 H   0  0  0  0  0  0  0  0  0  0  0  0
  139.1096   79.1656  220.6094 H   0  0  0  0  0  0  0  0  0  0  0  0
  139.8145   77.4127  219.5622 H   0  0  0  0  0  0  0  0  0  0  0  0
  141.4963   77.8036  220.1115 H   0  0  0  0  0  0  0  0  0  0  0  0
  140.7945   75.4677  220.6845 H   0  0  0  0  0  0  0  0  0  0  0  0
  141.1982   76.4746  222.1259 H   0  0  0  0  0  0  0  0  0  0  0  0
  140.2548   73.5918  221.4445 H   0  0  0  0  0  0  0  0  0  0  0  0
  137.6879   72.8425  220.0460 H   0  0  0  0  0  0  0  0  0  0  0  0
  138.6177   74.2795  219.5009 H   0  0  0  0  0  0  0  0  0  0  0  0
  139.3894   72.6574  219.5009 H   0  0  0  0  0  0  0  0  0  0  0  0
  138.5570   72.7810  223.2620 H   0  0  0  0  0  0  0  0  0  0  0  0
  139.1476   70.4633  221.8660 H   0  0  0  0  0  0  0  0  0  0  0  0
  140.5388   71.6102  221.7917 H   0  0  0  0  0  0  0  0  0  0  0  0
  141.0027   72.8717  224.1813 H   0  0  0  0  0  0  0  0  0  0  0  0
  141.5058   72.1371  226.5253 H   0  0  0  0  0  0  0  0  0  0  0  0
  141.3481   70.4467  228.2770 H   0  0  0  0  0  0  0  0  0  0  0  0
  139.3383   66.7081  227.5501 H   0  0  0  0  0  0  0  0  0  0  0  0
  138.8462   67.4617  225.2165 H   0  0  0  0  0  0  0  0  0  0  0  0
  139.0035   69.0959  223.5266 H   0  0  0  0  0  0  0  0  0  0  0  0
  137.6839   77.5460  221.6305 H   0  0  0  0  0  0  0  0  0  0  0  0
  137.9407   76.9994  223.3036 H   0  0  0  0  0  0  0  0  0  0  0  0
  138.9885   79.1937  223.0595 H   0  0  0  0  0  0  0  0  0  0  0  0
  140.3005   77.9858  223.1657 H   0  0  0  0  0  0  0  0  0  0  0  0
  1  2  1  0
  2  3  1  0
  3  4  2  0
  3  5  1  0
  5  6  1  0
  6  7  2  0
  7  8  1  0
  8  9  2  0
  9 10  1  0
 10 11  2  0
  5 12  1  0
 12 13  1  0
 13 14  1  0
 14 15  1  0
 15 16  1  0
 16 17  2  0
 16 18  1  0
 18 19  1  0
 18 20  1  0
 20 21  1  0
 21 22  1  0
 22 23  2  0
 23 24  1  0
 24 25  2  0
 25 26  1  0
 26 27  2  0
 27 28  1  0
 27 29  1  0
 29 30  2  0
 30 31  1  0
 31 32  2  0
 15 33  1  0
 33 34  1  0
 11  6  1  0
 34 12  1  0
 32 22  1  0
 31 25  1  0
  1 35  1  0
  1 36  1  0
  1 37  1  0
  2 38  1  0
  2 39  1  0
  7 40  1  0
  8 41  1  0
  9 42  1  0
 10 43  1  0
 11 44  1  0
 12 45  1  0
 13 46  1  0
 13 47  1  0
 14 48  1  0
 14 49  1  0
 18 50  1  6
 19 51  1  0
 19 52  1  0
 19 53  1  0
 20 54  1  0
 21 55  1  0
 21 56  1  0
 23 57  1  0
 24 58  1  0
 26 59  1  0
 29 60  1  0
 30 61  1  0
 32 62  1  0
 33 63  1  0
 33 64  1  0
 34 65  1  0
 34 66  1  0
M  END
>  <smiles>  (47) 
CCC(=O)N(c1ccccc1)C1CCN(C(=O)[C@H](C)NCc2ccc3cc(F)ccc3c2)CC1

>  <score_type>  (47) 
oracle

>  <origin>  (47) 
autodockgpu

>  <m_score__min__energy>  (47) 
-9.0899999999999999

>  <m_primary>  (47) 
energy

>  <rmsd>  (47) 
8.26479218851675

>  <m_score__min__rmsd>  (47) 
8.26479218851675

>  <meeko>  (47) 
{"free_energy": -8.69, "intermolecular_energy": -11.07, "internal_energy": -1.94, "cluster_size": 8, "cluster_id": 2, "rank_in_cluster": 4}

>  <energy>  (47) 
-8.82

>  <cluster_rmsd>  (47) 
0.55

>  <cluster>  (47) 
4

$$$$

     RDKit          3D

 66 69  0  0  0  0  0  0  0  0999 V2000
  142.5590   78.3020  217.3380 C   0  0  0  0  0  0  0  0  0  0  0  0
  142.5830   79.5280  218.2060 C   0  0  0  0  0  0  0  0  0  0  0  0
  141.4160   79.5190  219.1610 C   0  0  0  0  0  0  0  0  0  0  0  0
  140.4850   80.3500  218.9980 O   0  0  0  0  0  0  0  0  0  0  0  0
  141.3650   78.5870  220.2350 N   0  0  0  0  0  0  0  0  0  0  0  0
  141.6570   79.0870  221.5320 C   0  0  0  0  0  0  0  0  0  0  0  0
  141.2680   78.4610  222.6960 C   0  0  0  0  0  0  0  0  0  0  0  0
  141.5900   79.0150  223.9290 C   0  0  0  0  0  0  0  0  0  0  0  0
  142.3010   80.1990  224.0160 C   0  0  0  0  0  0  0  0  0  0  0  0
  142.6940   80.8320  222.8460 C   0  0  0  0  0  0  0  0  0  0  0  0
  142.3700   80.2740  221.6240 C   0  0  0  0  0  0  0  0  0  0  0  0
  141.0200   77.2050  219.9750 C   0  0  0  0  0  0  0  0  0  0  0  0
  141.8260   76.2110  220.7450 C   0  0  0  0  0  0  0  0  0  0  0  0
  140.9370   75.3240  221.6230 C   0  0  0  0  0  0  0  0  0  0  0  0
  139.9240   74.6740  220.8240 N   0  0  0  0  0  0  0  0  0  0  0  0
  139.5270   73.3270  220.9410 C   0  0  0  0  0  0  0  0  0  0  0  0
  138.5990   72.8510  220.2010 O   0  0  0  0  0  0  0  0  0  0  0  0
  140.1230   72.3570  221.9030 C   0  0  2  0  0  0  0  0  0  0  0  0
  141.4750   71.9530  221.3930 C   0  0  0  0  0  0  0  0  0  0  0  0
  139.2520   71.1940  221.9740 N   0  0  0  0  0  0  0  0  0  0  0  0
  138.3740   71.1980  223.1180 C   0  0  0  0  0  0  0  0  0  0  0  0
  138.8830   70.2570  224.1800 C   0  0  0  0  0  0  0  0  0  0  0  0
  138.6790   68.8960  224.0970 C   0  0  0  0  0  0  0  0  0  0  0  0
  139.1930   68.1320  225.1340 C   0  0  0  0  0  0  0  0  0  0  0  0
  139.8740   68.7230  226.1920 C   0  0  0  0  0  0  0  0  0  0  0  0
  140.3930   67.9790  227.2350 C   0  0  0  0  0  0  0  0  0  0  0  0
  141.0690   68.5810  228.2810 C   0  0  0  0  0  0  0  0  0  0  0  0
  141.5840   67.8670  229.3100 F   0  0  0  0  0  0  0  0  0  0  0  0
  141.2500   69.9520  228.3240 C   0  0  0  0  0  0  0  0  0  0  0  0
  140.7370   70.7110  227.2880 C   0  0  0  0  0  0  0  0  0  0  0  0
  140.0650   70.0890  226.2520 C   0  0  0  0  0  0  0  0  0  0  0  0
  139.5610   70.8560  225.2310 C   0  0  0  0  0  0  0  0  0  0  0  0
  139.2720   75.5020  219.8090 C   0  0  0  0  0  0  0  0  0  0  0  0
  139.5460   76.9450  220.1680 C   0  0  0  0  0  0  0  0  0  0  0  0
  142.5414   77.4037  217.9726 H   0  0  0  0  0  0  0  0  0  0  0  0
  141.6610   78.3199  216.7029 H   0  0  0  0  0  0  0  0  0  0  0  0
  143.4570   78.2847  216.7029 H   0  0  0  0  0  0  0  0  0  0  0  0
  143.5210   79.5473  218.7802 H   0  0  0  0  0  0  0  0  0  0  0  0
  142.5132   80.4198  217.5658 H   0  0  0  0  0  0  0  0  0  0  0  0
  140.7008   77.5197  222.6492 H   0  0  0  0  0  0  0  0  0  0  0  0
  141.2746   78.5042  224.8507 H   0  0  0  0  0  0  0  0  0  0  0  0
  142.5503   80.6309  224.9965 H   0  0  0  0  0  0  0  0  0  0  0  0
  143.2609   81.7736  222.8907 H   0  0  0  0  0  0  0  0  0  0  0  0
  142.6851   80.7833  220.7013 H   0  0  0  0  0  0  0  0  0  0  0  0
  141.2758   77.0549  218.9158 H   0  0  0  0  0  0  0  0  0  0  0  0
  142.3783   75.5745  220.0380 H   0  0  0  0  0  0  0  0  0  0  0  0
  142.5173   76.7615  221.4000 H   0  0  0  0  0  0  0  0  0  0  0  0
  141.5586   74.5592  222.1115 H   0  0  0  0  0  0  0  0  0  0  0  0
  140.4443   75.9523  222.3796 H   0  0  0  0  0  0  0  0  0  0  0  0
  140.2271   72.8033  222.9030 H   0  0  0  0  0  0  0  0  0  0  0  0
  142.1432   71.7533  222.2437 H   0  0  0  0  0  0  0  0  0  0  0  0
  141.3794   71.0442  220.7807 H   0  0  0  0  0  0  0  0  0  0  0  0
  141.8937   72.7653  220.7807 H   0  0  0  0  0  0  0  0  0  0  0  0
  138.6630   71.1140  221.1230 H   0  0  0  0  0  0  0  0  0  0  0  0
  138.3231   72.2162  223.5312 H   0  0  0  0  0  0  0  0  0  0  0  0
  137.3746   70.8665  222.7995 H   0  0  0  0  0  0  0  0  0  0  0  0
  138.1381   68.4409  223.2542 H   0  0  0  0  0  0  0  0  0  0  0  0
  139.0596   67.0402  225.1191 H   0  0  0  0  0  0  0  0  0  0  0  0
  140.2659   66.8864  227.2332 H   0  0  0  0  0  0  0  0  0  0  0  0
  141.7871   70.4253  229.1592 H   0  0  0  0  0  0  0  0  0  0  0  0
  140.8629   71.8038  227.2882 H   0  0  0  0  0  0  0  0  0  0  0  0
  139.6952   71.9477  225.2466 H   0  0  0  0  0  0  0  0  0  0  0  0
  139.6853   75.2756  218.8151 H   0  0  0  0  0  0  0  0  0  0  0  0
  138.1902   75.3049  219.7793 H   0  0  0  0  0  0  0  0  0  0  0  0
  138.9616   77.6092  219.5143 H   0  0  0  0  0  0  0  0  0  0  0  0
  139.2586   77.1389  221.2119 H   0  0  0  0  0  0  0  0  0  0  0  0
  1  2  1  0
  2  3  1  0
  3  4  2  0
  3  5  1  0
  5  6  1  0
  6  7  2  0
  7  8  1  0
  8  9  2  0
  9 10  1  0
 10 11  2  0
  5 12  1  0
 12 13  1  0
 13 14  1  0
 14 15  1  0
 15 16  1  0
 16 17  2  0
 16 18  1  0
 18 19  1  0
 18 20  1  0
 20 21  1  0
 21 22  1  0
 22 23  2  0
 23 24  1  0
 24 25  2  0
 25 26  1  0
 26 27  2  0
 27 28  1  0
 27 29  1  0
 29 30  2  0
 30 31  1  0
 31 32  2  0
 15 33  1  0
 33 34  1  0
 11  6  1  0
 34 12  1  0
 32 22  1  0
 31 25  1  0
  1 35  1  0
  1 36  1  0
  1 37  1  0
  2 38  1  0
  2 39  1  0
  7 40  1  0
  8 41  1  0
  9 42  1  0
 10 43  1  0
 11 44  1  0
 12 45  1  0
 13 46  1  0
 13 47  1  0
 14 48  1  0
 14 49  1  0
 18 50  1  1
 19 51  1  0
 19 52  1  0
 19 53  1  0
 20 54  1  0
 21 55  1  0
 21 56  1  0
 23 57  1  0
 24 58  1  0
 26 59  1  0
 29 60  1  0
 30 61  1  0
 32 62  1  0
 33 63  1  0
 33 64  1  0
 34 65  1  0
 34 66  1  0
M  END
>  <smiles>  (48) 
CCC(=O)N(c1ccccc1)C1CCN(C(=O)[C@H](C)NCc2ccc3cc(F)ccc3c2)CC1

>  <score_type>  (48) 
oracle

>  <origin>  (48) 
autodockgpu

>  <m_score__min__energy>  (48) 
-9.0899999999999999

>  <m_primary>  (48) 
energy

>  <rmsd>  (48) 
9.324176050682054

>  <m_score__min__rmsd>  (48) 
9.324176050682054

>  <meeko>  (48) 
{"free_energy": -8.32, "intermolecular_energy": -10.7, "internal_energy": -2.21, "cluster_size": 28, "cluster_id": 3, "rank_in_cluster": 25}

>  <energy>  (48) 
-8.32

>  <cluster_rmsd>  (48) 
0.0

>  <cluster>  (48) 
5

$$$$

     RDKit          3D

 66 69  0  0  0  0  0  0  0  0999 V2000
  143.1520   80.1090  223.0500 C   0  0  0  0  0  0  0  0  0  0  0  0
  142.3650   81.2530  223.6240 C   0  0  0  0  0  0  0  0  0  0  0  0
  140.9040   81.1110  223.2830 C   0  0  0  0  0  0  0  0  0  0  0  0
  140.0470   81.2350  224.1970 O   0  0  0  0  0  0  0  0  0  0  0  0
  140.4930   80.8390  221.9490 N   0  0  0  0  0  0  0  0  0  0  0  0
  140.6990   81.8700  220.9930 C   0  0  0  0  0  0  0  0  0  0  0  0
  141.3290   81.6730  219.7840 C   0  0  0  0  0  0  0  0  0  0  0  0
  141.4950   82.7350  218.9020 C   0  0  0  0  0  0  0  0  0  0  0  0
  141.0360   84.0020  219.2150 C   0  0  0  0  0  0  0  0  0  0  0  0
  140.4010   84.2030  220.4320 C   0  0  0  0  0  0  0  0  0  0  0  0
  140.2400   83.1430  221.3030 C   0  0  0  0  0  0  0  0  0  0  0  0
  139.9040   79.5570  221.6220 C   0  0  0  0  0  0  0  0  0  0  0  0
  140.8720   78.5480  221.0960 C   0  0  0  0  0  0  0  0  0  0  0  0
  140.9060   77.2910  221.9720 C   0  0  0  0  0  0  0  0  0  0  0  0
  139.5820   76.7310  222.1050 N   0  0  0  0  0  0  0  0  0  0  0  0
  139.2610   75.3610  222.0360 C   0  0  0  0  0  0  0  0  0  0  0  0
  138.0570   74.9610  222.1920 O   0  0  0  0  0  0  0  0  0  0  0  0
  140.2540   74.2780  221.7850 C   0  0  2  0  0  0  0  0  0  0  0  0
  140.5590   74.2450  220.3160 C   0  0  0  0  0  0  0  0  0  0  0  0
  139.6630   73.0140  222.1970 N   0  0  0  0  0  0  0  0  0  0  0  0
  140.6280   71.9590  222.3850 C   0  0  0  0  0  0  0  0  0  0  0  0
  140.2630   71.1140  223.5790 C   0  0  0  0  0  0  0  0  0  0  0  0
  139.5410   69.9470  223.4440 C   0  0  0  0  0  0  0  0  0  0  0  0
  139.2640   69.2550  224.6140 C   0  0  0  0  0  0  0  0  0  0  0  0
  139.6990   69.7270  225.8460 C   0  0  0  0  0  0  0  0  0  0  0  0
  139.4340   69.0530  227.0230 C   0  0  0  0  0  0  0  0  0  0  0  0
  139.8730   69.5340  228.2440 C   0  0  0  0  0  0  0  0  0  0  0  0
  139.6220   68.8860  229.4060 F   0  0  0  0  0  0  0  0  0  0  0  0
  140.5950   70.7110  228.3320 C   0  0  0  0  0  0  0  0  0  0  0  0
  140.8690   71.3980  227.1640 C   0  0  0  0  0  0  0  0  0  0  0  0
  140.4210   70.8990  225.9550 C   0  0  0  0  0  0  0  0  0  0  0  0
  140.7000   71.5930  224.8040 C   0  0  0  0  0  0  0  0  0  0  0  0
  138.4950   77.6860  222.3240 C   0  0  0  0  0  0  0  0  0  0  0  0
  139.1270   78.9820  222.7800 C   0  0  0  0  0  0  0  0  0  0  0  0
  143.5686   79.5034  223.8684 H   0  0  0  0  0  0  0  0  0  0  0  0
  142.4918   79.4840  222.4307 H   0  0  0  0  0  0  0  0  0  0  0  0
  143.9717   80.5021  222.4307 H   0  0  0  0  0  0  0  0  0  0  0  0
  142.4825   81.2608  224.7177 H   0  0  0  0  0  0  0  0  0  0  0  0
  142.7408   82.1940  223.1960 H   0  0  0  0  0  0  0  0  0  0  0  0
  141.7016   80.6734  219.5157 H   0  0  0  0  0  0  0  0  0  0  0  0
  141.9996   82.5650  217.9395 H   0  0  0  0  0  0  0  0  0  0  0  0
  141.1722   84.8360  218.5108 H   0  0  0  0  0  0  0  0  0  0  0  0
  140.0275   85.2018  220.7021 H   0  0  0  0  0  0  0  0  0  0  0  0
  139.7357   83.3117  222.2659 H   0  0  0  0  0  0  0  0  0  0  0  0
  139.2103   79.7774  220.7973 H   0  0  0  0  0  0  0  0  0  0  0  0
  140.5736   78.2646  220.0759 H   0  0  0  0  0  0  0  0  0  0  0  0
  141.8756   78.9983  221.1001 H   0  0  0  0  0  0  0  0  0  0  0  0
  141.5695   76.5454  221.5096 H   0  0  0  0  0  0  0  0  0  0  0  0
  141.2789   77.5633  222.9704 H   0  0  0  0  0  0  0  0  0  0  0  0
  141.1824   74.4534  222.3483 H   0  0  0  0  0  0  0  0  0  0  0  0
  141.6428   74.1278  220.1691 H   0  0  0  0  0  0  0  0  0  0  0  0
  140.0323   73.3986  219.8511 H   0  0  0  0  0  0  0  0  0  0  0  0
  140.2255   75.1845  219.8511 H   0  0  0  0  0  0  0  0  0  0  0  0
  139.1320   73.1200  223.0830 H   0  0  0  0  0  0  0  0  0  0  0  0
  140.6504   71.3249  221.4864 H   0  0  0  0  0  0  0  0  0  0  0  0
  141.6169   72.4089  222.5573 H   0  0  0  0  0  0  0  0  0  0  0  0
  139.2031   69.5845  222.4620 H   0  0  0  0  0  0  0  0  0  0  0  0
  138.6907   68.3175  224.5654 H   0  0  0  0  0  0  0  0  0  0  0  0
  138.8619   68.1141  226.9885 H   0  0  0  0  0  0  0  0  0  0  0  0
  140.9416   71.0898  229.3048 H   0  0  0  0  0  0  0  0  0  0  0  0
  141.4407   72.3372  227.1964 H   0  0  0  0  0  0  0  0  0  0  0  0
  141.2717   72.5314  224.8540 H   0  0  0  0  0  0  0  0  0  0  0  0
  137.9390   77.8460  221.3884 H   0  0  0  0  0  0  0  0  0  0  0  0
  137.7881   77.3086  223.0776 H   0  0  0  0  0  0  0  0  0  0  0  0
  138.3442   79.6892  223.0917 H   0  0  0  0  0  0  0  0  0  0  0  0
  139.7952   78.8003  223.6347 H   0  0  0  0  0  0  0  0  0  0  0  0
  1  2  1  0
  2  3  1  0
  3  4  2  0
  3  5  1  0
  5  6  1  0
  6  7  2  0
  7  8  1  0
  8  9  2  0
  9 10  1  0
 10 11  2  0
  5 12  1  0
 12 13  1  0
 13 14  1  0
 14 15  1  0
 15 16  1  0
 16 17  2  0
 16 18  1  0
 18 19  1  0
 18 20  1  0
 20 21  1  0
 21 22  1  0
 22 23  2  0
 23 24  1  0
 24 25  2  0
 25 26  1  0
 26 27  2  0
 27 28  1  0
 27 29  1  0
 29 30  2  0
 30 31  1  0
 31 32  2  0
 15 33  1  0
 33 34  1  0
 11  6  1  0
 34 12  1  0
 32 22  1  0
 31 25  1  0
  1 35  1  0
  1 36  1  0
  1 37  1  0
  2 38  1  0
  2 39  1  0
  7 40  1  0
  8 41  1  0
  9 42  1  0
 10 43  1  0
 11 44  1  0
 12 45  1  0
 13 46  1  0
 13 47  1  0
 14 48  1  0
 14 49  1  0
 18 50  1  1
 19 51  1  0
 19 52  1  0
 19 53  1  0
 20 54  1  0
 21 55  1  0
 21 56  1  0
 23 57  1  0
 24 58  1  0
 26 59  1  0
 29 60  1  0
 30 61  1  0
 32 62  1  0
 33 63  1  0
 33 64  1  0
 34 65  1  0
 34 66  1  0
M  END
>  <smiles>  (49) 
CCC(=O)N(c1ccccc1)C1CCN(C(=O)[C@H](C)NCc2ccc3cc(F)ccc3c2)CC1

>  <score_type>  (49) 
oracle

>  <origin>  (49) 
autodockgpu

>  <m_score__min__energy>  (49) 
-9.0899999999999999

>  <m_primary>  (49) 
energy

>  <rmsd>  (49) 
8.815660893949842

>  <m_score__min__rmsd>  (49) 
8.815660893949842

>  <meeko>  (49) 
{"free_energy": -8.82, "intermolecular_energy": -11.21, "internal_energy": -2.06, "cluster_size": 8, "cluster_id": 2, "rank_in_cluster": 3}

>  <energy>  (49) 
-7.95

>  <cluster_rmsd>  (49) 
0.0

>  <cluster>  (49) 
6

$$$$

     RDKit          3D

 66 69  0  0  0  0  0  0  0  0999 V2000
  142.9520   80.7460  223.8570 C   0  0  0  0  0  0  0  0  0  0  0  0
  142.1850   79.4540  223.8580 C   0  0  0  0  0  0  0  0  0  0  0  0
  140.8370   79.6420  223.2120 C   0  0  0  0  0  0  0  0  0  0  0  0
  139.8680   80.0290  223.9180 O   0  0  0  0  0  0  0  0  0  0  0  0
  140.6550   79.3860  221.8240 N   0  0  0  0  0  0  0  0  0  0  0  0
  141.0270   80.4240  220.9280 C   0  0  0  0  0  0  0  0  0  0  0  0
  140.7410   81.7550  221.1420 C   0  0  0  0  0  0  0  0  0  0  0  0
  141.1360   82.7120  220.2150 C   0  0  0  0  0  0  0  0  0  0  0  0
  141.8180   82.3540  219.0650 C   0  0  0  0  0  0  0  0  0  0  0  0
  142.1070   81.0150  218.8470 C   0  0  0  0  0  0  0  0  0  0  0  0
  141.7100   80.0690  219.7730 C   0  0  0  0  0  0  0  0  0  0  0  0
  140.1190   78.1130  221.3890 C   0  0  0  0  0  0  0  0  0  0  0  0
  141.1530   77.0800  221.0820 C   0  0  0  0  0  0  0  0  0  0  0  0
  140.9780   75.8310  221.9530 C   0  0  0  0  0  0  0  0  0  0  0  0
  139.6430   75.2990  221.8110 N   0  0  0  0  0  0  0  0  0  0  0  0
  139.3140   73.9350  221.6840 C   0  0  0  0  0  0  0  0  0  0  0  0
  138.0950   73.5600  221.5880 O   0  0  0  0  0  0  0  0  0  0  0  0
  140.3140   72.8300  221.6510 C   0  0  2  0  0  0  0  0  0  0  0  0
  139.8630   71.8120  220.6440 C   0  0  0  0  0  0  0  0  0  0  0  0
  140.3710   72.2270  222.9740 N   0  0  0  0  0  0  0  0  0  0  0  0
  139.1780   71.4980  223.3290 C   0  0  0  0  0  0  0  0  0  0  0  0
  139.4920   70.4330  224.3490 C   0  0  0  0  0  0  0  0  0  0  0  0
  139.1790   69.1090  224.1290 C   0  0  0  0  0  0  0  0  0  0  0  0
  139.5160   68.2210  225.1390 C   0  0  0  0  0  0  0  0  0  0  0  0
  140.1350   68.6590  226.3030 C   0  0  0  0  0  0  0  0  0  0  0  0
  140.4790   67.7900  227.3220 C   0  0  0  0  0  0  0  0  0  0  0  0
  141.0950   68.2410  228.4750 C   0  0  0  0  0  0  0  0  0  0  0  0
  141.4390   67.4030  229.4820 F   0  0  0  0  0  0  0  0  0  0  0  0
  141.3910   69.5810  228.6540 C   0  0  0  0  0  0  0  0  0  0  0  0
  141.0540   70.4640  227.6440 C   0  0  0  0  0  0  0  0  0  0  0  0
  140.4390   69.9910  226.4990 C   0  0  0  0  0  0  0  0  0  0  0  0
  140.1100   70.8800  225.5060 C   0  0  0  0  0  0  0  0  0  0  0  0
  138.5550   76.2770  221.7930 C   0  0  0  0  0  0  0  0  0  0  0  0
  139.1060   77.5640  222.3630 C   0  0  0  0  0  0  0  0  0  0  0  0
  143.1395   81.0619  224.8938 H   0  0  0  0  0  0  0  0  0  0  0  0
  143.9113   80.6025  223.3382 H   0  0  0  0  0  0  0  0  0  0  0  0
  142.3667   81.5195  223.3382 H   0  0  0  0  0  0  0  0  0  0  0  0
  142.7522   78.6955  223.2986 H   0  0  0  0  0  0  0  0  0  0  0  0
  142.0393   79.1268  224.8980 H   0  0  0  0  0  0  0  0  0  0  0  0
  140.1987   82.0607  222.0489 H   0  0  0  0  0  0  0  0  0  0  0  0
  140.9029   83.7713  220.3982 H   0  0  0  0  0  0  0  0  0  0  0  0
  142.1256   83.1184  218.3363 H   0  0  0  0  0  0  0  0  0  0  0  0
  142.6498   80.7074  217.9410 H   0  0  0  0  0  0  0  0  0  0  0  0
  141.9409   79.0091  219.5903 H   0  0  0  0  0  0  0  0  0  0  0  0
  139.6163   78.3399  220.4372 H   0  0  0  0  0  0  0  0  0  0  0  0
  141.0671   76.7923  220.0238 H   0  0  0  0  0  0  0  0  0  0  0  0
  142.1430   77.5107  221.2926 H   0  0  0  0  0  0  0  0  0  0  0  0
  141.7068   75.0679  221.6424 H   0  0  0  0  0  0  0  0  0  0  0  0
  141.1418   76.1052  223.0056 H   0  0  0  0  0  0  0  0  0  0  0  0
  141.3098   73.2053  221.3726 H   0  0  0  0  0  0  0  0  0  0  0  0
  139.4711   70.9273  221.1672 H   0  0  0  0  0  0  0  0  0  0  0  0
  139.0726   72.2452  220.0135 H   0  0  0  0  0  0  0  0  0  0  0  0
  140.7149   71.5176  220.0135 H   0  0  0  0  0  0  0  0  0  0  0  0
  141.1760   71.5760  223.0540 H   0  0  0  0  0  0  0  0  0  0  0  0
  138.4396   72.1959  223.7504 H   0  0  0  0  0  0  0  0  0  0  0  0
  138.7740   71.0168  222.4261 H   0  0  0  0  0  0  0  0  0  0  0  0
  138.6886   68.7750  223.2027 H   0  0  0  0  0  0  0  0  0  0  0  0
  139.2894   67.1516  225.0166 H   0  0  0  0  0  0  0  0  0  0  0  0
  140.2581   66.7179  227.2133 H   0  0  0  0  0  0  0  0  0  0  0  0
  141.8805   69.9340  229.5737 H   0  0  0  0  0  0  0  0  0  0  0  0
  141.2739   71.5365  227.7509 H   0  0  0  0  0  0  0  0  0  0  0  0
  140.3374   71.9492  225.6290 H   0  0  0  0  0  0  0  0  0  0  0  0
  138.2096   76.4385  220.7612 H   0  0  0  0  0  0  0  0  0  0  0  0
  137.6985   75.9214  222.3846 H   0  0  0  0  0  0  0  0  0  0  0  0
  138.2908   78.2895  222.5014 H   0  0  0  0  0  0  0  0  0  0  0  0
  139.5783   77.3769  223.3387 H   0  0  0  0  0  0  0  0  0  0  0  0
  1  2  1  0
  2  3  1  0
  3  4  2  0
  3  5  1  0
  5  6  1  0
  6  7  2  0
  7  8  1  0
  8  9  2  0
  9 10  1  0
 10 11  2  0
  5 12  1  0
 12 13  1  0
 13 14  1  0
 14 15  1  0
 15 16  1  0
 16 17  2  0
 16 18  1  0
 18 19  1  0
 18 20  1  0
 20 21  1  0
 21 22  1  0
 22 23  2  0
 23 24  1  0
 24 25  2  0
 25 26  1  0
 26 27  2  0
 27 28  1  0
 27 29  1  0
 29 30  2  0
 30 31  1  0
 31 32  2  0
 15 33  1  0
 33 34  1  0
 11  6  1  0
 34 12  1  0
 32 22  1  0
 31 25  1  0
  1 35  1  0
  1 36  1  0
  1 37  1  0
  2 38  1  0
  2 39  1  0
  7 40  1  0
  8 41  1  0
  9 42  1  0
 10 43  1  0
 11 44  1  0
 12 45  1  0
 13 46  1  0
 13 47  1  0
 14 48  1  0
 14 49  1  0
 18 50  1  6
 19 51  1  0
 19 52  1  0
 19 53  1  0
 20 54  1  0
 21 55  1  0
 21 56  1  0
 23 57  1  0
 24 58  1  0
 26 59  1  0
 29 60  1  0
 30 61  1  0
 32 62  1  0
 33 63  1  0
 33 64  1  0
 34 65  1  0
 34 66  1  0
M  END
>  <smiles>  (50) 
CCC(=O)N(c1ccccc1)C1CCN(C(=O)[C@H](C)NCc2ccc3cc(F)ccc3c2)CC1

>  <score_type>  (50) 
oracle

>  <origin>  (50) 
autodockgpu

>  <m_score__min__energy>  (50) 
-9.0899999999999999

>  <m_primary>  (50) 
energy

>  <rmsd>  (50) 
9.315013989015236

>  <m_score__min__rmsd>  (50) 
9.315013989015236

>  <meeko>  (50) 
{"free_energy": -8.77, "intermolecular_energy": -11.16, "internal_energy": -1.59, "cluster_size": 9, "cluster_id": 1, "rank_in_cluster": 5}

>  <energy>  (50) 
-7.82

>  <cluster_rmsd>  (50) 
0.0

>  <cluster>  (50) 
7

$$$$
