
     RDKit          3D

 46 49  0  0  0  0  0  0  0  0999 V2000
  138.4650   71.9560  222.3720 O   0  0  0  0  0  0  0  0  0  0  0  0
  139.6060   71.5910  222.7940 C   0  0  0  0  0  0  0  0  0  0  0  0
  140.7950   72.0260  222.1120 N   0  0  0  0  0  0  0  0  0  0  0  0
  140.6410   72.8760  220.9500 C   0  0  0  0  0  0  0  0  0  0  0  0
  140.4060   74.2570  221.3830 C   0  0  0  0  0  0  0  0  0  0  0  0
  139.5650   74.5610  222.2940 O   0  0  0  0  0  0  0  0  0  0  0  0
  141.1060   75.3600  220.8120 N   0  0  0  0  0  0  0  0  0  0  0  0
  142.5210   75.3130  220.4850 C   0  0  0  0  0  0  0  0  0  0  0  0
  142.6470   76.2820  219.3310 C   0  0  0  0  0  0  0  0  0  0  0  0
  141.2370   76.8150  219.0620 C   0  0  0  0  0  0  0  0  0  0  0  0
  140.6090   76.6760  220.4540 C   0  0  2  0  0  0  0  0  0  0  0  0
  141.0860   77.7510  221.3540 C   0  0  0  0  0  0  0  0  0  0  0  0
  141.0740   77.6130  222.7020 N   0  0  0  0  0  0  0  0  0  0  0  0
  141.5080   78.5890  223.5320 C   0  0  0  0  0  0  0  0  0  0  0  0
  141.9770   79.7670  222.9840 C   0  0  0  0  0  0  0  0  0  0  0  0
  142.5630   81.0980  223.9630 Cl  0  0  0  0  0  0  0  0  0  0  0  0
  141.9840   79.8930  221.6010 C   0  0  0  0  0  0  0  0  0  0  0  0
  141.5420   78.8940  220.8070 N   0  0  0  0  0  0  0  0  0  0  0  0
  139.7410   70.7250  223.9780 C   0  0  0  0  0  0  0  0  0  0  0  0
  139.2320   69.4480  223.9040 C   0  0  0  0  0  0  0  0  0  0  0  0
  139.3090   68.5710  224.9510 C   0  0  0  0  0  0  0  0  0  0  0  0
  139.9200   69.0010  226.1060 C   0  0  0  0  0  0  0  0  0  0  0  0
  140.0070   68.1310  227.1700 C   0  0  0  0  0  0  0  0  0  0  0  0
  140.6220   68.5820  228.3150 C   0  0  0  0  0  0  0  0  0  0  0  0
  140.7240   67.7530  229.3770 F   0  0  0  0  0  0  0  0  0  0  0  0
  141.1170   69.8540  228.3570 C   0  0  0  0  0  0  0  0  0  0  0  0
  141.0470   70.7490  227.3110 C   0  0  0  0  0  0  0  0  0  0  0  0
  140.4250   70.2960  226.1520 C   0  0  0  0  0  0  0  0  0  0  0  0
  140.3360   71.1390  225.1070 N   0  0  0  0  0  0  0  0  0  0  0  0
  141.7380   71.7220  222.4640 H   0  0  0  0  0  0  0  0  0  0  0  0
  141.5558   72.8333  220.3406 H   0  0  0  0  0  0  0  0  0  0  0  0
  139.7857   72.5284  220.3519 H   0  0  0  0  0  0  0  0  0  0  0  0
  143.1333   75.6369  221.3395 H   0  0  0  0  0  0  0  0  0  0  0  0
  142.8704   74.3003  220.2352 H   0  0  0  0  0  0  0  0  0  0  0  0
  143.3218   77.1082  219.5993 H   0  0  0  0  0  0  0  0  0  0  0  0
  143.0656   75.7908  218.4402 H   0  0  0  0  0  0  0  0  0  0  0  0
  141.2568   77.8633  218.7293 H   0  0  0  0  0  0  0  0  0  0  0  0
  140.6952   76.2886  218.2625 H   0  0  0  0  0  0  0  0  0  0  0  0
  139.5142   76.7678  220.5084 H   0  0  0  0  0  0  0  0  0  0  0  0
  141.4878   78.4472  224.6226 H   0  0  0  0  0  0  0  0  0  0  0  0
  142.3558   80.8222  221.1446 H   0  0  0  0  0  0  0  0  0  0  0  0
  138.7472   69.1220  222.9719 H   0  0  0  0  0  0  0  0  0  0  0  0
  138.8957   67.5547  224.8719 H   0  0  0  0  0  0  0  0  0  0  0  0
  139.5991   67.1114  227.1066 H   0  0  0  0  0  0  0  0  0  0  0  0
  141.6033   70.1860  229.2861 H   0  0  0  0  0  0  0  0  0  0  0  0
  141.4602   71.7655  227.3884 H   0  0  0  0  0  0  0  0  0  0  0  0
  1  2  2  0
  2  3  1  0
  3  4  1  0
  4  5  1  0
  5  6  2  0
  5  7  1  0
  7  8  1  0
  8  9  1  0
  9 10  1  0
 10 11  1  0
 11 12  1  0
 12 13  2  0
 13 14  1  0
 14 15  2  0
 15 16  1  0
 15 17  1  0
 17 18  2  0
  2 19  1  0
 19 20  2  0
 20 21  1  0
 21 22  2  0
 22 23  1  0
 23 24  2  0
 24 25  1  0
 24 26  1  0
 26 27  2  0
 27 28  1  0
 28 29  2  0
 11  7  1  0
 18 12  1  0
 29 19  1  0
 28 22  1  0
  3 30  1  0
  4 31  1  0
  4 32  1  0
  8 33  1  0
  8 34  1  0
  9 35  1  0
  9 36  1  0
 10 37  1  0
 10 38  1  0
 11 39  1  6
 14 40  1  0
 17 41  1  0
 20 42  1  0
 21 43  1  0
 23 44  1  0
 26 45  1  0
 27 46  1  0
M  END
>  <smiles>  (1) 
O=C(NCC(=O)N1CCC[C@@H]1c1ncc(Cl)cn1)c1ccc2cc(F)ccc2n1

>  <score_type>  (1) 
oracle

>  <origin>  (1) 
autodockgpu

>  <m_score__min__energy>  (1) 
-8.6099999999999994

>  <m_primary>  (1) 
energy

>  <rmsd>  (1) 
2.0747800430492256

>  <m_score__min__rmsd>  (1) 
2.0747800430492256

>  <meeko>  (1) 
{"free_energy": -8.56, "intermolecular_energy": -10.05, "internal_energy": -1.29, "cluster_size": 36, "cluster_id": 1, "rank_in_cluster": 10}

>  <energy>  (1) 
-8.61

>  <cluster_rmsd>  (1) 
0.0

>  <cluster>  (1) 
1

$$$$

     RDKit          3D

 46 49  0  0  0  0  0  0  0  0999 V2000
  139.9500   73.6480  222.6940 O   0  0  0  0  0  0  0  0  0  0  0  0
  139.9550   72.3860  222.5540 C   0  0  0  0  0  0  0  0  0  0  0  0
  139.9020   71.8120  221.2370 N   0  0  0  0  0  0  0  0  0  0  0  0
  139.8430   72.7110  220.1030 C   0  0  0  0  0  0  0  0  0  0  0  0
  141.1690   72.8030  219.4850 C   0  0  0  0  0  0  0  0  0  0  0  0
  141.5740   71.9820  218.5930 O   0  0  0  0  0  0  0  0  0  0  0  0
  142.1030   73.8200  219.8400 N   0  0  0  0  0  0  0  0  0  0  0  0
  143.1800   73.6050  220.7930 C   0  0  0  0  0  0  0  0  0  0  0  0
  144.2530   74.5660  220.3330 C   0  0  0  0  0  0  0  0  0  0  0  0
  143.6950   75.2700  219.0930 C   0  0  0  0  0  0  0  0  0  0  0  0
  142.1890   75.1910  219.3720 C   0  0  2  0  0  0  0  0  0  0  0  0
  141.7920   76.1880  220.3920 C   0  0  0  0  0  0  0  0  0  0  0  0
  141.0700   75.8440  221.4850 N   0  0  0  0  0  0  0  0  0  0  0  0
  140.7030   76.7480  222.4220 C   0  0  0  0  0  0  0  0  0  0  0  0
  141.0770   78.0670  222.2560 C   0  0  0  0  0  0  0  0  0  0  0  0
  140.6570   79.3210  223.4060 Cl  0  0  0  0  0  0  0  0  0  0  0  0
  141.8180   78.4040  221.1310 C   0  0  0  0  0  0  0  0  0  0  0  0
  142.1650   77.4710  220.2180 N   0  0  0  0  0  0  0  0  0  0  0  0
  140.0140   71.4880  223.7200 C   0  0  0  0  0  0  0  0  0  0  0  0
  139.5360   70.2060  223.5720 C   0  0  0  0  0  0  0  0  0  0  0  0
  139.5480   69.3000  224.5960 C   0  0  0  0  0  0  0  0  0  0  0  0
  140.0620   69.7060  225.8070 C   0  0  0  0  0  0  0  0  0  0  0  0
  140.0820   68.8070  226.8500 C   0  0  0  0  0  0  0  0  0  0  0  0
  140.6000   69.2350  228.0510 C   0  0  0  0  0  0  0  0  0  0  0  0
  140.6350   68.3770  229.0940 F   0  0  0  0  0  0  0  0  0  0  0  0
  141.0670   70.5130  228.1660 C   0  0  0  0  0  0  0  0  0  0  0  0
  141.0610   71.4360  227.1430 C   0  0  0  0  0  0  0  0  0  0  0  0
  140.5380   71.0070  225.9270 C   0  0  0  0  0  0  0  0  0  0  0  0
  140.5130   71.8780  224.9020 N   0  0  0  0  0  0  0  0  0  0  0  0
  139.9050   70.7650  221.1240 H   0  0  0  0  0  0  0  0  0  0  0  0
  139.1211   72.3268  219.3673 H   0  0  0  0  0  0  0  0  0  0  0  0
  139.5252   73.7084  220.4410 H   0  0  0  0  0  0  0  0  0  0  0  0
  142.8528   73.8410  221.8164 H   0  0  0  0  0  0  0  0  0  0  0  0
  143.5238   72.5606  220.8237 H   0  0  0  0  0  0  0  0  0  0  0  0
  144.4708   75.3004  221.1225 H   0  0  0  0  0  0  0  0  0  0  0  0
  145.1915   74.0391  220.1058 H   0  0  0  0  0  0  0  0  0  0  0  0
  144.0409   76.3122  219.0290 H   0  0  0  0  0  0  0  0  0  0  0  0
  144.0054   74.8233  218.1369 H   0  0  0  0  0  0  0  0  0  0  0  0
  141.5219   75.4150  218.5266 H   0  0  0  0  0  0  0  0  0  0  0  0
  140.1174   76.4382  223.3001 H   0  0  0  0  0  0  0  0  0  0  0  0
  142.1277   79.4487  220.9808 H   0  0  0  0  0  0  0  0  0  0  0  0
  139.1304   69.8997  222.5965 H   0  0  0  0  0  0  0  0  0  0  0  0
  139.1598   68.2802  224.4568 H   0  0  0  0  0  0  0  0  0  0  0  0
  139.6977   67.7836  226.7276 H   0  0  0  0  0  0  0  0  0  0  0  0
  141.4745   70.8260  229.1386 H   0  0  0  0  0  0  0  0  0  0  0  0
  141.4485   72.4563  227.2801 H   0  0  0  0  0  0  0  0  0  0  0  0
  1  2  2  0
  2  3  1  0
  3  4  1  0
  4  5  1  0
  5  6  2  0
  5  7  1  0
  7  8  1  0
  8  9  1  0
  9 10  1  0
 10 11  1  0
 11 12  1  0
 12 13  2  0
 13 14  1  0
 14 15  2  0
 15 16  1  0
 15 17  1  0
 17 18  2  0
  2 19  1  0
 19 20  2  0
 20 21  1  0
 21 22  2  0
 22 23  1  0
 23 24  2  0
 24 25  1  0
 24 26  1  0
 26 27  2  0
 27 28  1  0
 28 29  2  0
 11  7  1  0
 18 12  1  0
 29 19  1  0
 28 22  1  0
  3 30  1  0
  4 31  1  0
  4 32  1  0
  8 33  1  0
  8 34  1  0
  9 35  1  0
  9 36  1  0
 10 37  1  0
 10 38  1  0
 11 39  1  6
 14 40  1  0
 17 41  1  0
 20 42  1  0
 21 43  1  0
 23 44  1  0
 26 45  1  0
 27 46  1  0
M  END
>  <smiles>  (2) 
O=C(NCC(=O)N1CCC[C@@H]1c1ncc(Cl)cn1)c1ccc2cc(F)ccc2n1

>  <score_type>  (2) 
oracle

>  <origin>  (2) 
autodockgpu

>  <m_score__min__energy>  (2) 
-8.6099999999999994

>  <m_primary>  (2) 
energy

>  <rmsd>  (2) 
2.780410386809573

>  <m_score__min__rmsd>  (2) 
2.780410386809573

>  <meeko>  (2) 
{"free_energy": -7.9, "intermolecular_energy": -9.39, "internal_energy": -1.6, "cluster_size": 36, "cluster_id": 1, "rank_in_cluster": 33}

>  <energy>  (2) 
-8.61

>  <cluster_rmsd>  (2) 
0.04

>  <cluster>  (2) 
1

$$$$

     RDKit          3D

 46 49  0  0  0  0  0  0  0  0999 V2000
  140.6900   71.7210  221.8520 O   0  0  0  0  0  0  0  0  0  0  0  0
  139.7900   71.7480  222.7480 C   0  0  0  0  0  0  0  0  0  0  0  0
  138.6750   72.6470  222.6160 N   0  0  0  0  0  0  0  0  0  0  0  0
  138.6230   73.5010  221.4470 C   0  0  0  0  0  0  0  0  0  0  0  0
  139.5500   74.6230  221.6200 C   0  0  0  0  0  0  0  0  0  0  0  0
  140.7720   74.4640  221.9560 O   0  0  0  0  0  0  0  0  0  0  0  0
  139.1470   75.9770  221.4260 N   0  0  0  0  0  0  0  0  0  0  0  0
  139.2290   76.6480  220.1380 C   0  0  0  0  0  0  0  0  0  0  0  0
  138.1130   77.6660  220.2010 C   0  0  0  0  0  0  0  0  0  0  0  0
  137.4390   77.4800  221.5630 C   0  0  0  0  0  0  0  0  0  0  0  0
  138.6060   76.9210  222.3860 C   0  0  2  0  0  0  0  0  0  0  0  0
  139.5530   77.9990  222.7520 C   0  0  0  0  0  0  0  0  0  0  0  0
  139.1270   79.2340  223.1100 N   0  0  0  0  0  0  0  0  0  0  0  0
  139.9850   80.2240  223.4460 C   0  0  0  0  0  0  0  0  0  0  0  0
  141.3410   79.9660  223.4220 C   0  0  0  0  0  0  0  0  0  0  0  0
  142.5420   81.1720  223.8380 Cl  0  0  0  0  0  0  0  0  0  0  0  0
  141.7620   78.6940  223.0540 C   0  0  0  0  0  0  0  0  0  0  0  0
  140.8730   77.7320  222.7250 N   0  0  0  0  0  0  0  0  0  0  0  0
  139.8610   70.8720  223.9300 C   0  0  0  0  0  0  0  0  0  0  0  0
  139.3240   69.6080  223.8280 C   0  0  0  0  0  0  0  0  0  0  0  0
  139.3420   68.7220  224.8700 C   0  0  0  0  0  0  0  0  0  0  0  0
  139.9240   69.1300  226.0490 C   0  0  0  0  0  0  0  0  0  0  0  0
  139.9520   68.2510  227.1090 C   0  0  0  0  0  0  0  0  0  0  0  0
  140.5380   68.6790  228.2780 C   0  0  0  0  0  0  0  0  0  0  0  0
  140.5820   67.8400  229.3360 F   0  0  0  0  0  0  0  0  0  0  0  0
  141.0630   69.9370  228.3460 C   0  0  0  0  0  0  0  0  0  0  0  0
  141.0510   70.8410  227.3050 C   0  0  0  0  0  0  0  0  0  0  0  0
  140.4590   70.4110  226.1220 C   0  0  0  0  0  0  0  0  0  0  0  0
  140.4270   71.2630  225.0810 N   0  0  0  0  0  0  0  0  0  0  0  0
  137.9310   72.6680  223.3600 H   0  0  0  0  0  0  0  0  0  0  0  0
  138.9102   72.9220  220.5569 H   0  0  0  0  0  0  0  0  0  0  0  0
  137.6006   73.8864  221.3196 H   0  0  0  0  0  0  0  0  0  0  0  0
  140.2044   77.1407  220.0123 H   0  0  0  0  0  0  0  0  0  0  0  0
  139.1325   75.9574  219.2873 H   0  0  0  0  0  0  0  0  0  0  0  0
  138.5205   78.6840  220.1134 H   0  0  0  0  0  0  0  0  0  0  0  0
  137.3969   77.5261  219.3778 H   0  0  0  0  0  0  0  0  0  0  0  0
  137.0777   78.4359  221.9700 H   0  0  0  0  0  0  0  0  0  0  0  0
  136.5453   76.8390  221.5456 H   0  0  0  0  0  0  0  0  0  0  0  0
  138.3496   76.4703  223.3561 H   0  0  0  0  0  0  0  0  0  0  0  0
  139.6091   81.2171  223.7333 H   0  0  0  0  0  0  0  0  0  0  0  0
  142.8380   78.4666  223.0302 H   0  0  0  0  0  0  0  0  0  0  0  0
  138.8652   69.3005  222.8767 H   0  0  0  0  0  0  0  0  0  0  0  0
  138.9060   67.7171  224.7693 H   0  0  0  0  0  0  0  0  0  0  0  0
  139.5211   67.2425  227.0240 H   0  0  0  0  0  0  0  0  0  0  0  0
  141.5260   70.2502  229.2934 H   0  0  0  0  0  0  0  0  0  0  0  0
  141.4855   71.8466  227.4045 H   0  0  0  0  0  0  0  0  0  0  0  0
  1  2  2  0
  2  3  1  0
  3  4  1  0
  4  5  1  0
  5  6  2  0
  5  7  1  0
  7  8  1  0
  8  9  1  0
  9 10  1  0
 10 11  1  0
 11 12  1  0
 12 13  2  0
 13 14  1  0
 14 15  2  0
 15 16  1  0
 15 17  1  0
 17 18  2  0
  2 19  1  0
 19 20  2  0
 20 21  1  0
 21 22  2  0
 22 23  1  0
 23 24  2  0
 24 25  1  0
 24 26  1  0
 26 27  2  0
 27 28  1  0
 28 29  2  0
 11  7  1  0
 18 12  1  0
 29 19  1  0
 28 22  1  0
  3 30  1  0
  4 31  1  0
  4 32  1  0
  8 33  1  0
  8 34  1  0
  9 35  1  0
  9 36  1  0
 10 37  1  0
 10 38  1  0
 11 39  1  1
 14 40  1  0
 17 41  1  0
 20 42  1  0
 21 43  1  0
 23 44  1  0
 26 45  1  0
 27 46  1  0
M  END
>  <smiles>  (3) 
O=C(NCC(=O)N1CCC[C@@H]1c1ncc(Cl)cn1)c1ccc2cc(F)ccc2n1

>  <score_type>  (3) 
oracle

>  <origin>  (3) 
autodockgpu

>  <m_score__min__energy>  (3) 
-8.6099999999999994

>  <m_primary>  (3) 
energy

>  <rmsd>  (3) 
2.409107959674496

>  <m_score__min__rmsd>  (3) 
2.409107959674496

>  <meeko>  (3) 
{"free_energy": -8.61, "intermolecular_energy": -10.1, "internal_energy": -1.25, "cluster_size": 36, "cluster_id": 1, "rank_in_cluster": 3}

>  <energy>  (3) 
-8.61

>  <cluster_rmsd>  (3) 
1.7

>  <cluster>  (3) 
1

$$$$

     RDKit          3D

 46 49  0  0  0  0  0  0  0  0999 V2000
  140.4860   71.6850  221.0750 O   0  0  0  0  0  0  0  0  0  0  0  0
  140.1570   72.2210  222.1780 C   0  0  0  0  0  0  0  0  0  0  0  0
  139.8510   73.6250  222.2280 N   0  0  0  0  0  0  0  0  0  0  0  0
  139.9330   74.3850  220.9980 C   0  0  0  0  0  0  0  0  0  0  0  0
  141.3370   74.6810  220.7000 C   0  0  0  0  0  0  0  0  0  0  0  0
  142.2710   73.8240  220.8540 O   0  0  0  0  0  0  0  0  0  0  0  0
  141.7570   75.9540  220.2150 N   0  0  0  0  0  0  0  0  0  0  0  0
  143.1060   76.2110  219.7370 C   0  0  0  0  0  0  0  0  0  0  0  0
  142.9140   77.3130  218.7210 C   0  0  0  0  0  0  0  0  0  0  0  0
  141.4110   77.6020  218.6790 C   0  0  0  0  0  0  0  0  0  0  0  0
  141.0010   77.1870  220.0970 C   0  0  2  0  0  0  0  0  0  0  0  0
  141.3980   78.2200  221.0810 C   0  0  0  0  0  0  0  0  0  0  0  0
  141.7970   79.4560  220.6980 N   0  0  0  0  0  0  0  0  0  0  0  0
  142.1620   80.4060  221.5890 C   0  0  0  0  0  0  0  0  0  0  0  0
  142.1250   80.1030  222.9360 C   0  0  0  0  0  0  0  0  0  0  0  0
  142.5750   81.2550  224.1780 Cl  0  0  0  0  0  0  0  0  0  0  0  0
  141.7130   78.8310  223.3130 C   0  0  0  0  0  0  0  0  0  0  0  0
  141.3570   77.9100  222.3910 N   0  0  0  0  0  0  0  0  0  0  0  0
  140.0800   71.4310  223.4180 C   0  0  0  0  0  0  0  0  0  0  0  0
  139.5070   70.1800  223.3510 C   0  0  0  0  0  0  0  0  0  0  0  0
  139.3900   69.3720  224.4480 C   0  0  0  0  0  0  0  0  0  0  0  0
  139.8690   69.8450  225.6480 C   0  0  0  0  0  0  0  0  0  0  0  0
  139.7600   69.0440  226.7630 C   0  0  0  0  0  0  0  0  0  0  0  0
  140.2450   69.5370  227.9530 C   0  0  0  0  0  0  0  0  0  0  0  0
  140.1530   68.7760  229.0650 F   0  0  0  0  0  0  0  0  0  0  0  0
  140.8080   70.7800  227.9870 C   0  0  0  0  0  0  0  0  0  0  0  0
  140.9330   71.6060  226.8900 C   0  0  0  0  0  0  0  0  0  0  0  0
  140.4430   71.1100  225.6860 C   0  0  0  0  0  0  0  0  0  0  0  0
  140.5450   71.8860  224.5910 N   0  0  0  0  0  0  0  0  0  0  0  0
  139.5780   74.0670  223.1440 H   0  0  0  0  0  0  0  0  0  0  0  0
  139.4991   73.7984  220.1748 H   0  0  0  0  0  0  0  0  0  0  0  0
  139.3754   75.3265  221.1106 H   0  0  0  0  0  0  0  0  0  0  0  0
  143.7582   76.5424  220.5585 H   0  0  0  0  0  0  0  0  0  0  0  0
  143.5894   75.3175  219.3150 H   0  0  0  0  0  0  0  0  0  0  0  0
  143.4666   78.2136  219.0269 H   0  0  0  0  0  0  0  0  0  0  0  0
  143.2915   77.0148  217.7318 H   0  0  0  0  0  0  0  0  0  0  0  0
  141.2082   78.6672  218.4940 H   0  0  0  0  0  0  0  0  0  0  0  0
  140.8685   77.0810  217.8764 H   0  0  0  0  0  0  0  0  0  0  0  0
  139.9230   77.0660  220.2797 H   0  0  0  0  0  0  0  0  0  0  0  0
  142.4823   81.4013  221.2472 H   0  0  0  0  0  0  0  0  0  0  0  0
  141.6760   78.5692  224.3807 H   0  0  0  0  0  0  0  0  0  0  0  0
  139.1309   69.8189  222.3824 H   0  0  0  0  0  0  0  0  0  0  0  0
  138.9281   68.3765  224.3735 H   0  0  0  0  0  0  0  0  0  0  0  0
  139.3016   68.0458  226.7046 H   0  0  0  0  0  0  0  0  0  0  0  0
  141.1867   71.1467  228.9525 H   0  0  0  0  0  0  0  0  0  0  0  0
  141.3945   72.6018  226.9627 H   0  0  0  0  0  0  0  0  0  0  0  0
  1  2  2  0
  2  3  1  0
  3  4  1  0
  4  5  1  0
  5  6  2  0
  5  7  1  0
  7  8  1  0
  8  9  1  0
  9 10  1  0
 10 11  1  0
 11 12  1  0
 12 13  2  0
 13 14  1  0
 14 15  2  0
 15 16  1  0
 15 17  1  0
 17 18  2  0
  2 19  1  0
 19 20  2  0
 20 21  1  0
 21 22  2  0
 22 23  1  0
 23 24  2  0
 24 25  1  0
 24 26  1  0
 26 27  2  0
 27 28  1  0
 28 29  2  0
 11  7  1  0
 18 12  1  0
 29 19  1  0
 28 22  1  0
  3 30  1  0
  4 31  1  0
  4 32  1  0
  8 33  1  0
  8 34  1  0
  9 35  1  0
  9 36  1  0
 10 37  1  0
 10 38  1  0
 11 39  1  6
 14 40  1  0
 17 41  1  0
 20 42  1  0
 21 43  1  0
 23 44  1  0
 26 45  1  0
 27 46  1  0
M  END
>  <smiles>  (4) 
O=C(NCC(=O)N1CCC[C@@H]1c1ncc(Cl)cn1)c1ccc2cc(F)ccc2n1

>  <score_type>  (4) 
oracle

>  <origin>  (4) 
autodockgpu

>  <m_score__min__energy>  (4) 
-8.6099999999999994

>  <m_primary>  (4) 
energy

>  <rmsd>  (4) 
2.2666977680163294

>  <m_score__min__rmsd>  (4) 
2.2666977680163294

>  <meeko>  (4) 
{"free_energy": -8.59, "intermolecular_energy": -10.08, "internal_energy": -1.36, "cluster_size": 36, "cluster_id": 1, "rank_in_cluster": 6}

>  <energy>  (4) 
-8.6

>  <cluster_rmsd>  (4) 
0.12

>  <cluster>  (4) 
1

$$$$

     RDKit          3D

 46 49  0  0  0  0  0  0  0  0999 V2000
  140.4960   71.5890  221.1290 O   0  0  0  0  0  0  0  0  0  0  0  0
  140.1680   72.1170  222.2370 C   0  0  0  0  0  0  0  0  0  0  0  0
  139.8500   73.5170  222.2950 N   0  0  0  0  0  0  0  0  0  0  0  0
  139.9170   74.2840  221.0690 C   0  0  0  0  0  0  0  0  0  0  0  0
  141.3180   74.5810  220.7550 C   0  0  0  0  0  0  0  0  0  0  0  0
  142.2490   73.7140  220.8640 O   0  0  0  0  0  0  0  0  0  0  0  0
  141.7380   75.8670  220.3050 N   0  0  0  0  0  0  0  0  0  0  0  0
  143.0880   76.1390  219.8410 C   0  0  0  0  0  0  0  0  0  0  0  0
  142.9000   77.2670  218.8520 C   0  0  0  0  0  0  0  0  0  0  0  0
  141.3950   77.5530  218.8090 C   0  0  0  0  0  0  0  0  0  0  0  0
  140.9790   77.1010  220.2140 C   0  0  2  0  0  0  0  0  0  0  0  0
  141.3680   78.1090  221.2260 C   0  0  0  0  0  0  0  0  0  0  0  0
  141.3290   77.8420  222.5540 N   0  0  0  0  0  0  0  0  0  0  0  0
  141.6830   78.7570  223.4850 C   0  0  0  0  0  0  0  0  0  0  0  0
  142.0980   80.0050  223.0670 C   0  0  0  0  0  0  0  0  0  0  0  0
  142.5800   81.2660  224.1850 Cl  0  0  0  0  0  0  0  0  0  0  0  0
  142.1340   80.2640  221.7020 C   0  0  0  0  0  0  0  0  0  0  0  0
  141.7720   79.3230  220.8040 N   0  0  0  0  0  0  0  0  0  0  0  0
  140.1060   71.3190  223.4730 C   0  0  0  0  0  0  0  0  0  0  0  0
  139.5530   70.0600  223.4010 C   0  0  0  0  0  0  0  0  0  0  0  0
  139.4510   69.2450  224.4950 C   0  0  0  0  0  0  0  0  0  0  0  0
  139.9240   69.7210  225.6960 C   0  0  0  0  0  0  0  0  0  0  0  0
  139.8300   68.9130  226.8090 C   0  0  0  0  0  0  0  0  0  0  0  0
  140.3090   69.4090  228.0000 C   0  0  0  0  0  0  0  0  0  0  0  0
  140.2310   68.6420  229.1090 F   0  0  0  0  0  0  0  0  0  0  0  0
  140.8520   70.6610  228.0380 C   0  0  0  0  0  0  0  0  0  0  0  0
  140.9610   71.4940  226.9450 C   0  0  0  0  0  0  0  0  0  0  0  0
  140.4770   70.9950  225.7390 C   0  0  0  0  0  0  0  0  0  0  0  0
  140.5650   71.7770  224.6470 N   0  0  0  0  0  0  0  0  0  0  0  0
  139.5790   73.9520  223.2150 H   0  0  0  0  0  0  0  0  0  0  0  0
  139.4724   73.7026  220.2479 H   0  0  0  0  0  0  0  0  0  0  0  0
  139.3615   75.2252  221.1942 H   0  0  0  0  0  0  0  0  0  0  0  0
  143.7350   76.4503  220.6743 H   0  0  0  0  0  0  0  0  0  0  0  0
  143.5750   75.2575  219.3984 H   0  0  0  0  0  0  0  0  0  0  0  0
  143.4484   78.1607  219.1844 H   0  0  0  0  0  0  0  0  0  0  0  0
  143.2846   76.9960  217.8577 H   0  0  0  0  0  0  0  0  0  0  0  0
  141.1900   78.6220  218.6499 H   0  0  0  0  0  0  0  0  0  0  0  0
  140.8583   77.0511  217.9905 H   0  0  0  0  0  0  0  0  0  0  0  0
  139.9004   76.9728  220.3875 H   0  0  0  0  0  0  0  0  0  0  0  0
  141.6409   78.5108  224.5563 H   0  0  0  0  0  0  0  0  0  0  0  0
  142.4629   81.2520  221.3474 H   0  0  0  0  0  0  0  0  0  0  0  0
  139.1808   69.6975  222.4314 H   0  0  0  0  0  0  0  0  0  0  0  0
  139.0055   68.2423  224.4170 H   0  0  0  0  0  0  0  0  0  0  0  0
  139.3879   67.9077  226.7473 H   0  0  0  0  0  0  0  0  0  0  0  0
  141.2272   71.0293  229.0042 H   0  0  0  0  0  0  0  0  0  0  0  0
  141.4057   72.4972  227.0216 H   0  0  0  0  0  0  0  0  0  0  0  0
  1  2  2  0
  2  3  1  0
  3  4  1  0
  4  5  1  0
  5  6  2  0
  5  7  1  0
  7  8  1  0
  8  9  1  0
  9 10  1  0
 10 11  1  0
 11 12  1  0
 12 13  2  0
 13 14  1  0
 14 15  2  0
 15 16  1  0
 15 17  1  0
 17 18  2  0
  2 19  1  0
 19 20  2  0
 20 21  1  0
 21 22  2  0
 22 23  1  0
 23 24  2  0
 24 25  1  0
 24 26  1  0
 26 27  2  0
 27 28  1  0
 28 29  2  0
 11  7  1  0
 18 12  1  0
 29 19  1  0
 28 22  1  0
  3 30  1  0
  4 31  1  0
  4 32  1  0
  8 33  1  0
  8 34  1  0
  9 35  1  0
  9 36  1  0
 10 37  1  0
 10 38  1  0
 11 39  1  6
 14 40  1  0
 17 41  1  0
 20 42  1  0
 21 43  1  0
 23 44  1  0
 26 45  1  0
 27 46  1  0
M  END
>  <smiles>  (5) 
O=C(NCC(=O)N1CCC[C@@H]1c1ncc(Cl)cn1)c1ccc2cc(F)ccc2n1

>  <score_type>  (5) 
oracle

>  <origin>  (5) 
autodockgpu

>  <m_score__min__energy>  (5) 
-8.6099999999999994

>  <m_primary>  (5) 
energy

>  <rmsd>  (5) 
2.0273839125913744

>  <m_score__min__rmsd>  (5) 
2.0273839125913744

>  <meeko>  (5) 
{"free_energy": -8.59, "intermolecular_energy": -10.08, "internal_energy": -1.34, "cluster_size": 36, "cluster_id": 1, "rank_in_cluster": 7}

>  <energy>  (5) 
-8.59

>  <cluster_rmsd>  (5) 
0.13

>  <cluster>  (5) 
1

$$$$

     RDKit          3D

 46 49  0  0  0  0  0  0  0  0999 V2000
  140.9400   71.8850  221.7780 O   0  0  0  0  0  0  0  0  0  0  0  0
  139.9850   71.8960  222.6150 C   0  0  0  0  0  0  0  0  0  0  0  0
  138.8510   72.7520  222.3970 N   0  0  0  0  0  0  0  0  0  0  0  0
  138.8430   73.5820  221.2110 C   0  0  0  0  0  0  0  0  0  0  0  0
  139.1090   74.9740  221.5880 C   0  0  0  0  0  0  0  0  0  0  0  0
  138.3150   75.6550  222.3200 O   0  0  0  0  0  0  0  0  0  0  0  0
  140.2790   75.6660  221.1580 N   0  0  0  0  0  0  0  0  0  0  0  0
  141.6100   75.0840  221.2260 C   0  0  0  0  0  0  0  0  0  0  0  0
  142.3470   75.7570  220.0910 C   0  0  0  0  0  0  0  0  0  0  0  0
  141.3380   76.6940  219.4200 C   0  0  0  0  0  0  0  0  0  0  0  0
  140.4050   76.9990  220.5990 C   0  0  2  0  0  0  0  0  0  0  0  0
  141.0300   77.9710  221.5250 C   0  0  0  0  0  0  0  0  0  0  0  0
  141.0730   77.7580  222.8620 N   0  0  0  0  0  0  0  0  0  0  0  0
  141.6420   78.6400  223.7150 C   0  0  0  0  0  0  0  0  0  0  0  0
  142.1960   79.7970  223.2040 C   0  0  0  0  0  0  0  0  0  0  0  0
  142.9590   81.0080  224.2150 Cl  0  0  0  0  0  0  0  0  0  0  0  0
  142.1440   80.0000  221.8310 C   0  0  0  0  0  0  0  0  0  0  0  0
  141.5670   79.0950  221.0120 N   0  0  0  0  0  0  0  0  0  0  0  0
  140.0140   71.0430  223.8160 C   0  0  0  0  0  0  0  0  0  0  0  0
  139.5060   69.7670  223.7120 C   0  0  0  0  0  0  0  0  0  0  0  0
  139.4880   68.9010  224.7710 C   0  0  0  0  0  0  0  0  0  0  0  0
  140.0010   69.3420  225.9690 C   0  0  0  0  0  0  0  0  0  0  0  0
  139.9910   68.4830  227.0470 C   0  0  0  0  0  0  0  0  0  0  0  0
  140.5090   68.9450  228.2350 C   0  0  0  0  0  0  0  0  0  0  0  0
  140.5140   68.1270  229.3100 F   0  0  0  0  0  0  0  0  0  0  0  0
  141.0050   70.2150  228.3050 C   0  0  0  0  0  0  0  0  0  0  0  0
  141.0290   71.0980  227.2480 C   0  0  0  0  0  0  0  0  0  0  0  0
  140.5070   70.6340  226.0450 C   0  0  0  0  0  0  0  0  0  0  0  0
  140.5120   71.4660  224.9870 N   0  0  0  0  0  0  0  0  0  0  0  0
  138.0620   72.7590  223.0930 H   0  0  0  0  0  0  0  0  0  0  0  0
  139.6213   73.2352  220.5153 H   0  0  0  0  0  0  0  0  0  0  0  0
  137.8595   73.5154  220.7229 H   0  0  0  0  0  0  0  0  0  0  0  0
  142.0876   75.3063  222.1917 H   0  0  0  0  0  0  0  0  0  0  0  0
  141.6031   73.9872  221.1421 H   0  0  0  0  0  0  0  0  0  0  0  0
  143.2010   76.3316  220.4789 H   0  0  0  0  0  0  0  0  0  0  0  0
  142.7433   75.0191  219.3780 H   0  0  0  0  0  0  0  0  0  0  0  0
  141.8221   77.6057  219.0399 H   0  0  0  0  0  0  0  0  0  0  0  0
  140.8358   76.2683  218.5387 H   0  0  0  0  0  0  0  0  0  0  0  0
  139.4420   77.4697  220.3519 H   0  0  0  0  0  0  0  0  0  0  0  0
  141.6631   78.4393  224.7963 H   0  0  0  0  0  0  0  0  0  0  0  0
  142.5807   80.9145  221.4032 H   0  0  0  0  0  0  0  0  0  0  0  0
  139.1012   69.4331  222.7452 H   0  0  0  0  0  0  0  0  0  0  0  0
  139.0770   67.8859  224.6680 H   0  0  0  0  0  0  0  0  0  0  0  0
  139.5836   67.4649  226.9606 H   0  0  0  0  0  0  0  0  0  0  0  0
  141.4121   70.5554  229.2685 H   0  0  0  0  0  0  0  0  0  0  0  0
  141.4384   72.1139  227.3496 H   0  0  0  0  0  0  0  0  0  0  0  0
  1  2  2  0
  2  3  1  0
  3  4  1  0
  4  5  1  0
  5  6  2  0
  5  7  1  0
  7  8  1  0
  8  9  1  0
  9 10  1  0
 10 11  1  0
 11 12  1  0
 12 13  2  0
 13 14  1  0
 14 15  2  0
 15 16  1  0
 15 17  1  0
 17 18  2  0
  2 19  1  0
 19 20  2  0
 20 21  1  0
 21 22  2  0
 22 23  1  0
 23 24  2  0
 24 25  1  0
 24 26  1  0
 26 27  2  0
 27 28  1  0
 28 29  2  0
 11  7  1  0
 18 12  1  0
 29 19  1  0
 28 22  1  0
  3 30  1  0
  4 31  1  0
  4 32  1  0
  8 33  1  0
  8 34  1  0
  9 35  1  0
  9 36  1  0
 10 37  1  0
 10 38  1  0
 11 39  1  6
 14 40  1  0
 17 41  1  0
 20 42  1  0
 21 43  1  0
 23 44  1  0
 26 45  1  0
 27 46  1  0
M  END
>  <smiles>  (6) 
O=C(NCC(=O)N1CCC[C@@H]1c1ncc(Cl)cn1)c1ccc2cc(F)ccc2n1

>  <score_type>  (6) 
oracle

>  <origin>  (6) 
autodockgpu

>  <m_score__min__energy>  (6) 
-8.6099999999999994

>  <m_primary>  (6) 
energy

>  <rmsd>  (6) 
1.9090885817147778

>  <m_score__min__rmsd>  (6) 
1.9090885817147778

>  <meeko>  (6) 
{"free_energy": -8.52, "intermolecular_energy": -10.01, "internal_energy": -1.43, "cluster_size": 36, "cluster_id": 1, "rank_in_cluster": 13}

>  <energy>  (6) 
-8.59

>  <cluster_rmsd>  (6) 
0.05

>  <cluster>  (6) 
1

$$$$

     RDKit          3D

 46 49  0  0  0  0  0  0  0  0999 V2000
  141.8160   73.2090  220.5790 O   0  0  0  0  0  0  0  0  0  0  0  0
  141.1520   73.9500  221.3670 C   0  0  0  0  0  0  0  0  0  0  0  0
  140.2620   73.3570  222.3280 N   0  0  0  0  0  0  0  0  0  0  0  0
  140.1570   71.9130  222.3590 C   0  0  0  0  0  0  0  0  0  0  0  0
  138.7480   71.5230  222.2420 C   0  0  0  0  0  0  0  0  0  0  0  0
  138.0060   71.8980  221.2730 O   0  0  0  0  0  0  0  0  0  0  0  0
  138.1080   70.6950  223.2100 N   0  0  0  0  0  0  0  0  0  0  0  0
  137.0730   71.1840  224.1060 C   0  0  0  0  0  0  0  0  0  0  0  0
  136.2340   69.9560  224.3770 C   0  0  0  0  0  0  0  0  0  0  0  0
  136.8650   68.8190  223.5680 C   0  0  0  0  0  0  0  0  0  0  0  0
  138.3220   69.2900  223.5020 C   0  0  2  0  0  0  0  0  0  0  0  0
  139.0090   69.0530  224.7930 C   0  0  0  0  0  0  0  0  0  0  0  0
  139.5440   70.0670  225.5140 N   0  0  0  0  0  0  0  0  0  0  0  0
  140.1730   69.8610  226.6940 C   0  0  0  0  0  0  0  0  0  0  0  0
  140.2720   68.5710  227.1780 C   0  0  0  0  0  0  0  0  0  0  0  0
  141.0640   68.1870  228.6930 Cl  0  0  0  0  0  0  0  0  0  0  0  0
  139.7170   67.5420  226.4270 C   0  0  0  0  0  0  0  0  0  0  0  0
  139.0970   67.7910  225.2530 N   0  0  0  0  0  0  0  0  0  0  0  0
  141.2730   75.4170  221.3200 C   0  0  0  0  0  0  0  0  0  0  0  0
  141.9880   75.9720  220.2820 C   0  0  0  0  0  0  0  0  0  0  0  0
  142.1560   77.3230  220.1520 C   0  0  0  0  0  0  0  0  0  0  0  0
  141.5820   78.1350  221.1030 C   0  0  0  0  0  0  0  0  0  0  0  0
  141.7410   79.4990  220.9880 C   0  0  0  0  0  0  0  0  0  0  0  0
  141.1580   80.2930  221.9490 C   0  0  0  0  0  0  0  0  0  0  0  0
  141.2960   81.6340  221.8650 F   0  0  0  0  0  0  0  0  0  0  0  0
  140.4550   79.7120  222.9660 C   0  0  0  0  0  0  0  0  0  0  0  0
  140.2780   78.3530  223.1100 C   0  0  0  0  0  0  0  0  0  0  0  0
  140.8660   77.5480  222.1390 C   0  0  0  0  0  0  0  0  0  0  0  0
  140.7160   76.2150  222.2430 N   0  0  0  0  0  0  0  0  0  0  0  0
  139.7130   73.9740  222.9800 H   0  0  0  0  0  0  0  0  0  0  0  0
  140.7266   71.4858  221.5205 H   0  0  0  0  0  0  0  0  0  0  0  0
  140.5644   71.5359  223.3087 H   0  0  0  0  0  0  0  0  0  0  0  0
  137.5106   71.5748  225.0365 H   0  0  0  0  0  0  0  0  0  0  0  0
  136.4923   72.0145  223.6781 H   0  0  0  0  0  0  0  0  0  0  0  0
  136.2482   69.7139  225.4499 H   0  0  0  0  0  0  0  0  0  0  0  0
  135.1843   70.1169  224.0901 H   0  0  0  0  0  0  0  0  0  0  0  0
  136.7745   67.8536  224.0874 H   0  0  0  0  0  0  0  0  0  0  0  0
  136.3978   68.6428  222.5878 H   0  0  0  0  0  0  0  0  0  0  0  0
  138.9693   68.7787  222.7743 H   0  0  0  0  0  0  0  0  0  0  0  0
  140.5976   70.7050  227.2574 H   0  0  0  0  0  0  0  0  0  0  0  0
  139.7836   66.5074  226.7947 H   0  0  0  0  0  0  0  0  0  0  0  0
  142.4394   75.3059  219.5319 H   0  0  0  0  0  0  0  0  0  0  0  0
  142.7308   77.7463  219.3151 H   0  0  0  0  0  0  0  0  0  0  0  0
  142.3136   79.9376  220.1575 H   0  0  0  0  0  0  0  0  0  0  0  0
  140.0004   80.3722  223.7193 H   0  0  0  0  0  0  0  0  0  0  0  0
  139.7036   77.9279  223.9463 H   0  0  0  0  0  0  0  0  0  0  0  0
  1  2  2  0
  2  3  1  0
  3  4  1  0
  4  5  1  0
  5  6  2  0
  5  7  1  0
  7  8  1  0
  8  9  1  0
  9 10  1  0
 10 11  1  0
 11 12  1  0
 12 13  2  0
 13 14  1  0
 14 15  2  0
 15 16  1  0
 15 17  1  0
 17 18  2  0
  2 19  1  0
 19 20  2  0
 20 21  1  0
 21 22  2  0
 22 23  1  0
 23 24  2  0
 24 25  1  0
 24 26  1  0
 26 27  2  0
 27 28  1  0
 28 29  2  0
 11  7  1  0
 18 12  1  0
 29 19  1  0
 28 22  1  0
  3 30  1  0
  4 31  1  0
  4 32  1  0
  8 33  1  0
  8 34  1  0
  9 35  1  0
  9 36  1  0
 10 37  1  0
 10 38  1  0
 11 39  1  6
 14 40  1  0
 17 41  1  0
 20 42  1  0
 21 43  1  0
 23 44  1  0
 26 45  1  0
 27 46  1  0
M  END
>  <smiles>  (7) 
O=C(NCC(=O)N1CCC[C@@H]1c1ncc(Cl)cn1)c1ccc2cc(F)ccc2n1

>  <score_type>  (7) 
oracle

>  <origin>  (7) 
autodockgpu

>  <m_score__min__energy>  (7) 
-8.6099999999999994

>  <m_primary>  (7) 
energy

>  <rmsd>  (7) 
9.310987655195179

>  <m_score__min__rmsd>  (7) 
9.310987655195179

>  <meeko>  (7) 
{"free_energy": -7.55, "intermolecular_energy": -9.04, "internal_energy": -1.5, "cluster_size": 8, "cluster_id": 2, "rank_in_cluster": 8}

>  <energy>  (7) 
-8.59

>  <cluster_rmsd>  (7) 
0.14

>  <cluster>  (7) 
1

$$$$

     RDKit          3D

 46 49  0  0  0  0  0  0  0  0999 V2000
  138.5220   72.1150  222.4360 O   0  0  0  0  0  0  0  0  0  0  0  0
  139.6520   71.6800  222.8180 C   0  0  0  0  0  0  0  0  0  0  0  0
  140.8410   72.0460  222.0970 N   0  0  0  0  0  0  0  0  0  0  0  0
  140.6990   72.9100  220.9440 C   0  0  0  0  0  0  0  0  0  0  0  0
  140.5100   74.2930  221.3910 C   0  0  0  0  0  0  0  0  0  0  0  0
  139.7130   74.6100  222.3370 O   0  0  0  0  0  0  0  0  0  0  0  0
  141.2060   75.3850  220.7940 N   0  0  0  0  0  0  0  0  0  0  0  0
  142.6170   75.3280  220.4490 C   0  0  0  0  0  0  0  0  0  0  0  0
  142.7320   76.2780  219.2800 C   0  0  0  0  0  0  0  0  0  0  0  0
  141.3200   76.8130  219.0220 C   0  0  0  0  0  0  0  0  0  0  0  0
  140.7100   76.6980  220.4240 C   0  0  2  0  0  0  0  0  0  0  0  0
  141.2030   77.7840  221.3020 C   0  0  0  0  0  0  0  0  0  0  0  0
  141.7040   78.9380  220.7980 N   0  0  0  0  0  0  0  0  0  0  0  0
  142.1550   79.9360  221.5920 C   0  0  0  0  0  0  0  0  0  0  0  0
  142.1040   79.7700  222.9620 C   0  0  0  0  0  0  0  0  0  0  0  0
  142.6610   80.9950  224.0850 Cl  0  0  0  0  0  0  0  0  0  0  0  0
  141.5870   78.5820  223.4630 C   0  0  0  0  0  0  0  0  0  0  0  0
  141.1460   77.6090  222.6360 N   0  0  0  0  0  0  0  0  0  0  0  0
  139.7740   70.8010  223.9940 C   0  0  0  0  0  0  0  0  0  0  0  0
  139.2520   69.5300  223.9060 C   0  0  0  0  0  0  0  0  0  0  0  0
  139.3170   68.6420  224.9450 C   0  0  0  0  0  0  0  0  0  0  0  0
  139.9290   69.0550  226.1050 C   0  0  0  0  0  0  0  0  0  0  0  0
  140.0040   68.1740  227.1610 C   0  0  0  0  0  0  0  0  0  0  0  0
  140.6210   68.6070  228.3120 C   0  0  0  0  0  0  0  0  0  0  0  0
  140.7100   67.7670  229.3660 F   0  0  0  0  0  0  0  0  0  0  0  0
  141.1290   69.8730  228.3680 C   0  0  0  0  0  0  0  0  0  0  0  0
  141.0710   70.7790  227.3300 C   0  0  0  0  0  0  0  0  0  0  0  0
  140.4480   70.3430  226.1650 C   0  0  0  0  0  0  0  0  0  0  0  0
  140.3700   71.1970  225.1280 N   0  0  0  0  0  0  0  0  0  0  0  0
  141.7760   71.6840  222.4160 H   0  0  0  0  0  0  0  0  0  0  0  0
  141.6051   72.8456  220.3236 H   0  0  0  0  0  0  0  0  0  0  0  0
  139.8271   72.5930  220.3530 H   0  0  0  0  0  0  0  0  0  0  0  0
  143.2415   75.6624  221.2905 H   0  0  0  0  0  0  0  0  0  0  0  0
  142.9591   74.3103  220.2097 H   0  0  0  0  0  0  0  0  0  0  0  0
  143.4138   77.1052  219.5268 H   0  0  0  0  0  0  0  0  0  0  0  0
  143.1370   75.7720  218.3912 H   0  0  0  0  0  0  0  0  0  0  0  0
  141.3395   77.8560  218.6731 H   0  0  0  0  0  0  0  0  0  0  0  0
  140.7654   76.2765  218.2381 H   0  0  0  0  0  0  0  0  0  0  0  0
  139.6165   76.7962  220.4919 H   0  0  0  0  0  0  0  0  0  0  0  0
  142.5550   80.8626  221.1545 H   0  0  0  0  0  0  0  0  0  0  0  0
  141.5358   78.4310  224.5514 H   0  0  0  0  0  0  0  0  0  0  0  0
  138.7666   69.2181  222.9694 H   0  0  0  0  0  0  0  0  0  0  0  0
  138.8935   67.6308  224.8552 H   0  0  0  0  0  0  0  0  0  0  0  0
  139.5852   67.1596  227.0868 H   0  0  0  0  0  0  0  0  0  0  0  0
  141.6161   70.1909  229.3016 H   0  0  0  0  0  0  0  0  0  0  0  0
  141.4940   71.7906  227.4183 H   0  0  0  0  0  0  0  0  0  0  0  0
  1  2  2  0
  2  3  1  0
  3  4  1  0
  4  5  1  0
  5  6  2  0
  5  7  1  0
  7  8  1  0
  8  9  1  0
  9 10  1  0
 10 11  1  0
 11 12  1  0
 12 13  2  0
 13 14  1  0
 14 15  2  0
 15 16  1  0
 15 17  1  0
 17 18  2  0
  2 19  1  0
 19 20  2  0
 20 21  1  0
 21 22  2  0
 22 23  1  0
 23 24  2  0
 24 25  1  0
 24 26  1  0
 26 27  2  0
 27 28  1  0
 28 29  2  0
 11  7  1  0
 18 12  1  0
 29 19  1  0
 28 22  1  0
  3 30  1  0
  4 31  1  0
  4 32  1  0
  8 33  1  0
  8 34  1  0
  9 35  1  0
  9 36  1  0
 10 37  1  0
 10 38  1  0
 11 39  1  6
 14 40  1  0
 17 41  1  0
 20 42  1  0
 21 43  1  0
 23 44  1  0
 26 45  1  0
 27 46  1  0
M  END
>  <smiles>  (8) 
O=C(NCC(=O)N1CCC[C@@H]1c1ncc(Cl)cn1)c1ccc2cc(F)ccc2n1

>  <score_type>  (8) 
oracle

>  <origin>  (8) 
autodockgpu

>  <m_score__min__energy>  (8) 
-8.6099999999999994

>  <m_primary>  (8) 
energy

>  <rmsd>  (8) 
2.3209673911326756

>  <m_score__min__rmsd>  (8) 
2.3209673911326756

>  <meeko>  (8) 
{"free_energy": -8.57, "intermolecular_energy": -10.06, "internal_energy": -1.27, "cluster_size": 36, "cluster_id": 1, "rank_in_cluster": 9}

>  <energy>  (8) 
-8.59

>  <cluster_rmsd>  (8) 
0.12

>  <cluster>  (8) 
1

$$$$

     RDKit          3D

 46 49  0  0  0  0  0  0  0  0999 V2000
  139.8940   73.7450  222.4750 O   0  0  0  0  0  0  0  0  0  0  0  0
  140.3690   72.5700  222.4000 C   0  0  0  0  0  0  0  0  0  0  0  0
  141.0390   72.1440  221.2010 N   0  0  0  0  0  0  0  0  0  0  0  0
  141.1450   73.0870  220.1080 C   0  0  0  0  0  0  0  0  0  0  0  0
  142.2160   74.0470  220.3940 C   0  0  0  0  0  0  0  0  0  0  0  0
  143.2310   73.7550  221.1110 O   0  0  0  0  0  0  0  0  0  0  0  0
  142.1940   75.3800  219.8900 N   0  0  0  0  0  0  0  0  0  0  0  0
  143.3260   75.9840  219.2060 C   0  0  0  0  0  0  0  0  0  0  0  0
  142.6800   76.9820  218.2720 C   0  0  0  0  0  0  0  0  0  0  0  0
  141.1690   76.8540  218.4850 C   0  0  0  0  0  0  0  0  0  0  0  0
  141.1260   76.3630  219.9370 C   0  0  2  0  0  0  0  0  0  0  0  0
  141.3900   77.4770  220.8760 C   0  0  0  0  0  0  0  0  0  0  0  0
  141.8090   78.6900  220.4450 N   0  0  0  0  0  0  0  0  0  0  0  0
  142.0520   79.7140  221.2950 C   0  0  0  0  0  0  0  0  0  0  0  0
  141.8670   79.5120  222.6480 C   0  0  0  0  0  0  0  0  0  0  0  0
  142.1510   80.7660  223.8400 Cl  0  0  0  0  0  0  0  0  0  0  0  0
  141.4360   78.2620  223.0750 C   0  0  0  0  0  0  0  0  0  0  0  0
  141.2050   77.2660  222.1930 N   0  0  0  0  0  0  0  0  0  0  0  0
  140.2500   71.6250  223.5240 C   0  0  0  0  0  0  0  0  0  0  0  0
  139.6350   70.4160  223.2860 C   0  0  0  0  0  0  0  0  0  0  0  0
  139.4770   69.4740  224.2660 C   0  0  0  0  0  0  0  0  0  0  0  0
  139.9570   69.7670  225.5210 C   0  0  0  0  0  0  0  0  0  0  0  0
  139.8070   68.8300  226.5200 C   0  0  0  0  0  0  0  0  0  0  0  0
  140.2950   69.1430  227.7680 C   0  0  0  0  0  0  0  0  0  0  0  0
  140.1640   68.2460  228.7690 F   0  0  0  0  0  0  0  0  0  0  0  0
  140.9010   70.3500  227.9700 C   0  0  0  0  0  0  0  0  0  0  0  0
  141.0670   71.3090  226.9940 C   0  0  0  0  0  0  0  0  0  0  0  0
  140.5740   70.9950  225.7310 C   0  0  0  0  0  0  0  0  0  0  0  0
  140.7170   71.9040  224.7490 N   0  0  0  0  0  0  0  0  0  0  0  0
  141.4310   71.1690  221.1420 H   0  0  0  0  0  0  0  0  0  0  0  0
  141.3756   72.5464  219.1782 H   0  0  0  0  0  0  0  0  0  0  0  0
  140.1919   73.6239  219.9927 H   0  0  0  0  0  0  0  0  0  0  0  0
  143.9938   76.4883  219.9200 H   0  0  0  0  0  0  0  0  0  0  0  0
  143.9527   75.2481  218.6809 H   0  0  0  0  0  0  0  0  0  0  0  0
  143.0138   78.0018  218.5142 H   0  0  0  0  0  0  0  0  0  0  0  0
  142.9543   76.7855  217.2250 H   0  0  0  0  0  0  0  0  0  0  0  0
  140.6601   77.8224  218.3696 H   0  0  0  0  0  0  0  0  0  0  0  0
  140.6611   76.1950  217.7654 H   0  0  0  0  0  0  0  0  0  0  0  0
  140.1652   75.9593  220.2891 H   0  0  0  0  0  0  0  0  0  0  0  0
  142.3906   80.6892  220.9152 H   0  0  0  0  0  0  0  0  0  0  0  0
  141.2805   78.0809  224.1488 H   0  0  0  0  0  0  0  0  0  0  0  0
  139.2585   70.2005  222.2752 H   0  0  0  0  0  0  0  0  0  0  0  0
  138.9823   68.5140  224.0568 H   0  0  0  0  0  0  0  0  0  0  0  0
  139.3145   67.8656  226.3267 H   0  0  0  0  0  0  0  0  0  0  0  0
  141.2817   70.5715  228.9780 H   0  0  0  0  0  0  0  0  0  0  0  0
  141.5617   72.2692  227.2018 H   0  0  0  0  0  0  0  0  0  0  0  0
  1  2  2  0
  2  3  1  0
  3  4  1  0
  4  5  1  0
  5  6  2  0
  5  7  1  0
  7  8  1  0
  8  9  1  0
  9 10  1  0
 10 11  1  0
 11 12  1  0
 12 13  2  0
 13 14  1  0
 14 15  2  0
 15 16  1  0
 15 17  1  0
 17 18  2  0
  2 19  1  0
 19 20  2  0
 20 21  1  0
 21 22  2  0
 22 23  1  0
 23 24  2  0
 24 25  1  0
 24 26  1  0
 26 27  2  0
 27 28  1  0
 28 29  2  0
 11  7  1  0
 18 12  1  0
 29 19  1  0
 28 22  1  0
  3 30  1  0
  4 31  1  0
  4 32  1  0
  8 33  1  0
  8 34  1  0
  9 35  1  0
  9 36  1  0
 10 37  1  0
 10 38  1  0
 11 39  1  1
 14 40  1  0
 17 41  1  0
 20 42  1  0
 21 43  1  0
 23 44  1  0
 26 45  1  0
 27 46  1  0
M  END
>  <smiles>  (9) 
O=C(NCC(=O)N1CCC[C@@H]1c1ncc(Cl)cn1)c1ccc2cc(F)ccc2n1

>  <score_type>  (9) 
oracle

>  <origin>  (9) 
autodockgpu

>  <m_score__min__energy>  (9) 
-8.6099999999999994

>  <m_primary>  (9) 
energy

>  <rmsd>  (9) 
2.5104329306497575

>  <m_score__min__rmsd>  (9) 
2.5104329306497575

>  <meeko>  (9) 
{"free_energy": -8.22, "intermolecular_energy": -9.71, "internal_energy": -1.36, "cluster_size": 36, "cluster_id": 1, "rank_in_cluster": 26}

>  <energy>  (9) 
-8.57

>  <cluster_rmsd>  (9) 
1.27

>  <cluster>  (9) 
1

$$$$

     RDKit          3D

 46 49  0  0  0  0  0  0  0  0999 V2000
  139.7370   70.8110  221.4180 O   0  0  0  0  0  0  0  0  0  0  0  0
  139.7130   71.3950  222.5460 C   0  0  0  0  0  0  0  0  0  0  0  0
  139.6030   72.8270  222.6080 N   0  0  0  0  0  0  0  0  0  0  0  0
  139.5240   73.5590  221.3610 C   0  0  0  0  0  0  0  0  0  0  0  0
  140.4990   74.6540  221.3750 C   0  0  0  0  0  0  0  0  0  0  0  0
  140.4680   75.5950  222.2370 O   0  0  0  0  0  0  0  0  0  0  0  0
  141.5540   74.7420  220.4190 N   0  0  0  0  0  0  0  0  0  0  0  0
  141.3170   74.8230  218.9870 C   0  0  0  0  0  0  0  0  0  0  0  0
  142.5110   75.5950  218.4770 C   0  0  0  0  0  0  0  0  0  0  0  0
  143.3640   75.9280  219.7050 C   0  0  0  0  0  0  0  0  0  0  0  0
  142.9890   74.7680  220.6350 C   0  0  2  0  0  0  0  0  0  0  0  0
  143.6710   73.5210  220.2220 C   0  0  0  0  0  0  0  0  0  0  0  0
  144.9880   73.4990  219.9040 N   0  0  0  0  0  0  0  0  0  0  0  0
  145.6200   72.3640  219.5250 C   0  0  0  0  0  0  0  0  0  0  0  0
  144.8960   71.1900  219.4610 C   0  0  0  0  0  0  0  0  0  0  0  0
  145.6110   69.6630  218.9830 Cl  0  0  0  0  0  0  0  0  0  0  0  0
  143.5470   71.2290  219.7900 C   0  0  0  0  0  0  0  0  0  0  0  0
  142.9530   72.3830  220.1630 N   0  0  0  0  0  0  0  0  0  0  0  0
  139.7950   70.6310  223.8030 C   0  0  0  0  0  0  0  0  0  0  0  0
  139.2770   69.3550  223.8170 C   0  0  0  0  0  0  0  0  0  0  0  0
  139.3070   68.5690  224.9360 C   0  0  0  0  0  0  0  0  0  0  0  0
  139.8780   69.0920  226.0730 C   0  0  0  0  0  0  0  0  0  0  0  0
  139.9170   68.3140  227.2090 C   0  0  0  0  0  0  0  0  0  0  0  0
  140.4940   68.8560  228.3350 C   0  0  0  0  0  0  0  0  0  0  0  0
  140.5470   68.1190  229.4650 F   0  0  0  0  0  0  0  0  0  0  0  0
  140.9980   70.1240  228.2880 C   0  0  0  0  0  0  0  0  0  0  0  0
  140.9760   70.9280  227.1690 C   0  0  0  0  0  0  0  0  0  0  0  0
  140.3940   70.3820  226.0290 C   0  0  0  0  0  0  0  0  0  0  0  0
  140.3510   71.1350  224.9140 N   0  0  0  0  0  0  0  0  0  0  0  0
  139.5840   73.3080  223.5440 H   0  0  0  0  0  0  0  0  0  0  0  0
  139.7455   72.8814  220.5233 H   0  0  0  0  0  0  0  0  0  0  0  0
  138.5112   73.9711  221.2410 H   0  0  0  0  0  0  0  0  0  0  0  0
  141.2758   73.8198  218.5376 H   0  0  0  0  0  0  0  0  0  0  0  0
  140.3583   75.3009  218.7370 H   0  0  0  0  0  0  0  0  0  0  0  0
  143.0867   74.9816  217.7683 H   0  0  0  0  0  0  0  0  0  0  0  0
  142.2004   76.5073  217.9466 H   0  0  0  0  0  0  0  0  0  0  0  0
  144.4376   75.9247  219.4657 H   0  0  0  0  0  0  0  0  0  0  0  0
  143.1853   76.9278  220.1274 H   0  0  0  0  0  0  0  0  0  0  0  0
  143.2783   74.8741  221.6910 H   0  0  0  0  0  0  0  0  0  0  0  0
  146.6906   72.3764  219.2726 H   0  0  0  0  0  0  0  0  0  0  0  0
  142.9526   70.3044  219.7460 H   0  0  0  0  0  0  0  0  0  0  0  0
  138.8242   68.9547  222.8979 H   0  0  0  0  0  0  0  0  0  0  0  0
  138.8882   67.5519  224.9270 H   0  0  0  0  0  0  0  0  0  0  0  0
  139.5017   67.2955  227.2161 H   0  0  0  0  0  0  0  0  0  0  0  0
  141.4516   70.5307  229.2039 H   0  0  0  0  0  0  0  0  0  0  0  0
  141.3952   71.9450  227.1765 H   0  0  0  0  0  0  0  0  0  0  0  0
  1  2  2  0
  2  3  1  0
  3  4  1  0
  4  5  1  0
  5  6  2  0
  5  7  1  0
  7  8  1  0
  8  9  1  0
  9 10  1  0
 10 11  1  0
 11 12  1  0
 12 13  2  0
 13 14  1  0
 14 15  2  0
 15 16  1  0
 15 17  1  0
 17 18  2  0
  2 19  1  0
 19 20  2  0
 20 21  1  0
 21 22  2  0
 22 23  1  0
 23 24  2  0
 24 25  1  0
 24 26  1  0
 26 27  2  0
 27 28  1  0
 28 29  2  0
 11  7  1  0
 18 12  1  0
 29 19  1  0
 28 22  1  0
  3 30  1  0
  4 31  1  0
  4 32  1  0
  8 33  1  0
  8 34  1  0
  9 35  1  0
  9 36  1  0
 10 37  1  0
 10 38  1  0
 11 39  1  1
 14 40  1  0
 17 41  1  0
 20 42  1  0
 21 43  1  0
 23 44  1  0
 26 45  1  0
 27 46  1  0
M  END
>  <smiles>  (10) 
O=C(NCC(=O)N1CCC[C@@H]1c1ncc(Cl)cn1)c1ccc2cc(F)ccc2n1

>  <score_type>  (10) 
oracle

>  <origin>  (10) 
autodockgpu

>  <m_score__min__energy>  (10) 
-8.6099999999999994

>  <m_primary>  (10) 
energy

>  <rmsd>  (10) 
3.989243940407686

>  <m_score__min__rmsd>  (10) 
3.989243940407686

>  <meeko>  (10) 
{"free_energy": -7.62, "intermolecular_energy": -9.11, "internal_energy": -1.72, "cluster_size": 5, "cluster_id": 3, "rank_in_cluster": 3}

>  <energy>  (10) 
-8.56

>  <cluster_rmsd>  (10) 
1.28

>  <cluster>  (10) 
1

$$$$

     RDKit          3D

 46 49  0  0  0  0  0  0  0  0999 V2000
  139.8060   74.5570  222.3330 O   0  0  0  0  0  0  0  0  0  0  0  0
  139.7520   75.6030  221.6130 C   0  0  0  0  0  0  0  0  0  0  0  0
  139.3700   75.5000  220.2310 N   0  0  0  0  0  0  0  0  0  0  0  0
  139.0570   74.1880  219.7060 C   0  0  0  0  0  0  0  0  0  0  0  0
  140.2520   73.6140  219.0810 C   0  0  0  0  0  0  0  0  0  0  0  0
  140.2600   72.4600  218.5340 O   0  0  0  0  0  0  0  0  0  0  0  0
  141.4960   74.3100  219.0420 N   0  0  0  0  0  0  0  0  0  0  0  0
  142.4030   74.3700  220.1770 C   0  0  0  0  0  0  0  0  0  0  0  0
  143.7630   74.5130  219.5330 C   0  0  0  0  0  0  0  0  0  0  0  0
  143.5240   74.5030  218.0200 C   0  0  0  0  0  0  0  0  0  0  0  0
  142.0960   75.0580  217.9530 C   0  0  2  0  0  0  0  0  0  0  0  0
  142.0920   76.5230  218.1700 C   0  0  0  0  0  0  0  0  0  0  0  0
  141.2730   77.1080  219.0770 N   0  0  0  0  0  0  0  0  0  0  0  0
  141.2620   78.4460  219.2820 C   0  0  0  0  0  0  0  0  0  0  0  0
  142.1150   79.2390  218.5400 C   0  0  0  0  0  0  0  0  0  0  0  0
  142.1860   80.9810  218.7220 Cl  0  0  0  0  0  0  0  0  0  0  0  0
  142.9490   78.6230  217.6150 C   0  0  0  0  0  0  0  0  0  0  0  0
  142.9290   77.2840  217.4400 N   0  0  0  0  0  0  0  0  0  0  0  0
  140.0750   76.9290  222.1670 C   0  0  0  0  0  0  0  0  0  0  0  0
  139.0430   77.6770  222.6880 C   0  0  0  0  0  0  0  0  0  0  0  0
  139.2430   78.9200  223.2250 C   0  0  0  0  0  0  0  0  0  0  0  0
  140.5260   79.4160  223.2340 C   0  0  0  0  0  0  0  0  0  0  0  0
  140.7470   80.6660  223.7700 C   0  0  0  0  0  0  0  0  0  0  0  0
  142.0370   81.1430  223.7690 C   0  0  0  0  0  0  0  0  0  0  0  0
  142.2860   82.3650  224.2880 F   0  0  0  0  0  0  0  0  0  0  0  0
  143.0380   80.3750  223.2460 C   0  0  0  0  0  0  0  0  0  0  0  0
  142.8520   79.1220  222.7020 C   0  0  0  0  0  0  0  0  0  0  0  0
  141.5480   78.6380  222.7020 C   0  0  0  0  0  0  0  0  0  0  0  0
  141.3230   77.4180  222.1790 N   0  0  0  0  0  0  0  0  0  0  0  0
  139.3260   76.3680  219.6370 H   0  0  0  0  0  0  0  0  0  0  0  0
  138.7225   73.5353  220.5258 H   0  0  0  0  0  0  0  0  0  0  0  0
  138.2567   74.2745  218.9563 H   0  0  0  0  0  0  0  0  0  0  0  0
  142.1771   75.2366  220.8157 H   0  0  0  0  0  0  0  0  0  0  0  0
  142.3291   73.4895  220.8322 H   0  0  0  0  0  0  0  0  0  0  0  0
  144.2317   75.4601  219.8385 H   0  0  0  0  0  0  0  0  0  0  0  0
  144.4375   73.6990  219.8371 H   0  0  0  0  0  0  0  0  0  0  0  0
  144.2369   75.1541  217.4929 H   0  0  0  0  0  0  0  0  0  0  0  0
  143.6541   73.5198  217.5441 H   0  0  0  0  0  0  0  0  0  0  0  0
  141.5706   74.9440  216.9933 H   0  0  0  0  0  0  0  0  0  0  0  0
  140.5862   78.8933  220.0258 H   0  0  0  0  0  0  0  0  0  0  0  0
  143.6373   79.2364  217.0150 H   0  0  0  0  0  0  0  0  0  0  0  0
  138.0244   77.2620  222.6721 H   0  0  0  0  0  0  0  0  0  0  0  0
  138.4055   79.5030  223.6358 H   0  0  0  0  0  0  0  0  0  0  0  0
  139.9203   81.2618  224.1844 H   0  0  0  0  0  0  0  0  0  0  0  0
  144.0595   80.7829  223.2597 H   0  0  0  0  0  0  0  0  0  0  0  0
  143.6883   78.5375  222.2908 H   0  0  0  0  0  0  0  0  0  0  0  0
  1  2  2  0
  2  3  1  0
  3  4  1  0
  4  5  1  0
  5  6  2  0
  5  7  1  0
  7  8  1  0
  8  9  1  0
  9 10  1  0
 10 11  1  0
 11 12  1  0
 12 13  2  0
 13 14  1  0
 14 15  2  0
 15 16  1  0
 15 17  1  0
 17 18  2  0
  2 19  1  0
 19 20  2  0
 20 21  1  0
 21 22  2  0
 22 23  1  0
 23 24  2  0
 24 25  1  0
 24 26  1  0
 26 27  2  0
 27 28  1  0
 28 29  2  0
 11  7  1  0
 18 12  1  0
 29 19  1  0
 28 22  1  0
  3 30  1  0
  4 31  1  0
  4 32  1  0
  8 33  1  0
  8 34  1  0
  9 35  1  0
  9 36  1  0
 10 37  1  0
 10 38  1  0
 11 39  1  6
 14 40  1  0
 17 41  1  0
 20 42  1  0
 21 43  1  0
 23 44  1  0
 26 45  1  0
 27 46  1  0
M  END
>  <smiles>  (11) 
O=C(NCC(=O)N1CCC[C@@H]1c1ncc(Cl)cn1)c1ccc2cc(F)ccc2n1

>  <score_type>  (11) 
oracle

>  <origin>  (11) 
autodockgpu

>  <m_score__min__energy>  (11) 
-8.6099999999999994

>  <m_primary>  (11) 
energy

>  <rmsd>  (11) 
7.118388038000083

>  <m_score__min__rmsd>  (11) 
7.118388038000083

>  <meeko>  (11) 
{"free_energy": -5.79, "intermolecular_energy": -7.28, "internal_energy": -3.11, "cluster_size": 1, "cluster_id": 4, "rank_in_cluster": 1}

>  <energy>  (11) 
-8.54

>  <cluster_rmsd>  (11) 
0.13

>  <cluster>  (11) 
1

$$$$

     RDKit          3D

 46 49  0  0  0  0  0  0  0  0999 V2000
  141.7450   73.4070  220.9900 O   0  0  0  0  0  0  0  0  0  0  0  0
  140.9520   74.2120  221.5700 C   0  0  0  0  0  0  0  0  0  0  0  0
  139.8170   73.7030  222.2910 N   0  0  0  0  0  0  0  0  0  0  0  0
  139.6190   72.2690  222.3270 C   0  0  0  0  0  0  0  0  0  0  0  0
  138.2340   71.9770  222.7090 C   0  0  0  0  0  0  0  0  0  0  0  0
  137.2670   72.7750  222.4640 O   0  0  0  0  0  0  0  0  0  0  0  0
  137.8710   70.7740  223.3830 N   0  0  0  0  0  0  0  0  0  0  0  0
  136.6700   70.6560  224.1940 C   0  0  0  0  0  0  0  0  0  0  0  0
  136.3150   69.1910  224.0830 C   0  0  0  0  0  0  0  0  0  0  0  0
  137.3680   68.5620  223.1660 C   0  0  0  0  0  0  0  0  0  0  0  0
  138.5580   69.4960  223.4160 C   0  0  2  0  0  0  0  0  0  0  0  0
  139.1930   69.2000  224.7200 C   0  0  0  0  0  0  0  0  0  0  0  0
  139.7460   70.1730  225.4830 N   0  0  0  0  0  0  0  0  0  0  0  0
  140.3280   69.9130  226.6760 C   0  0  0  0  0  0  0  0  0  0  0  0
  140.3590   68.6090  227.1290 C   0  0  0  0  0  0  0  0  0  0  0  0
  141.0860   68.1560  228.6580 Cl  0  0  0  0  0  0  0  0  0  0  0  0
  139.7870   67.6220  226.3360 C   0  0  0  0  0  0  0  0  0  0  0  0
  139.2150   67.9240  225.1500 N   0  0  0  0  0  0  0  0  0  0  0  0
  141.1700   75.6680  221.5210 C   0  0  0  0  0  0  0  0  0  0  0  0
  141.7570   76.1930  220.3910 C   0  0  0  0  0  0  0  0  0  0  0  0
  142.0010   77.5320  220.2520 C   0  0  0  0  0  0  0  0  0  0  0  0
  141.6390   78.3610  221.2890 C   0  0  0  0  0  0  0  0  0  0  0  0
  141.8770   79.7130  221.1660 C   0  0  0  0  0  0  0  0  0  0  0  0
  141.5070   80.5240  222.2140 C   0  0  0  0  0  0  0  0  0  0  0  0
  141.7270   81.8540  222.1250 F   0  0  0  0  0  0  0  0  0  0  0  0
  140.9270   79.9710  223.3210 C   0  0  0  0  0  0  0  0  0  0  0  0
  140.6750   78.6250  223.4750 C   0  0  0  0  0  0  0  0  0  0  0  0
  141.0480   77.8030  222.4160 C   0  0  0  0  0  0  0  0  0  0  0  0
  140.8200   76.4810  222.5270 N   0  0  0  0  0  0  0  0  0  0  0  0
  139.1610   74.3730  222.7700 H   0  0  0  0  0  0  0  0  0  0  0  0
  139.8222   71.8456  221.3323 H   0  0  0  0  0  0  0  0  0  0  0  0
  140.3044   71.8223  223.0623 H   0  0  0  0  0  0  0  0  0  0  0  0
  136.8718   70.9340  225.2390 H   0  0  0  0  0  0  0  0  0  0  0  0
  135.8595   71.3208  223.8605 H   0  0  0  0  0  0  0  0  0  0  0  0
  136.3414   68.7164  225.0750 H   0  0  0  0  0  0  0  0  0  0  0  0
  135.3008   69.0548  223.6795 H   0  0  0  0  0  0  0  0  0  0  0  0
  137.5961   67.5272  223.4611 H   0  0  0  0  0  0  0  0  0  0  0  0
  137.0651   68.4810  222.1116 H   0  0  0  0  0  0  0  0  0  0  0  0
  139.3954   69.4231  222.7065 H   0  0  0  0  0  0  0  0  0  0  0  0
  140.7681   70.7247  227.2738 H   0  0  0  0  0  0  0  0  0  0  0  0
  139.8001   66.5771  226.6796 H   0  0  0  0  0  0  0  0  0  0  0  0
  142.0389   75.5133  219.5734 H   0  0  0  0  0  0  0  0  0  0  0  0
  142.4709   77.9326  219.3416 H   0  0  0  0  0  0  0  0  0  0  0  0
  142.3461   80.1288  220.2621 H   0  0  0  0  0  0  0  0  0  0  0  0
  140.6427   80.6445  224.1430 H   0  0  0  0  0  0  0  0  0  0  0  0
  140.2051   78.2227  224.3846 H   0  0  0  0  0  0  0  0  0  0  0  0
  1  2  2  0
  2  3  1  0
  3  4  1  0
  4  5  1  0
  5  6  2  0
  5  7  1  0
  7  8  1  0
  8  9  1  0
  9 10  1  0
 10 11  1  0
 11 12  1  0
 12 13  2  0
 13 14  1  0
 14 15  2  0
 15 16  1  0
 15 17  1  0
 17 18  2  0
  2 19  1  0
 19 20  2  0
 20 21  1  0
 21 22  2  0
 22 23  1  0
 23 24  2  0
 24 25  1  0
 24 26  1  0
 26 27  2  0
 27 28  1  0
 28 29  2  0
 11  7  1  0
 18 12  1  0
 29 19  1  0
 28 22  1  0
  3 30  1  0
  4 31  1  0
  4 32  1  0
  8 33  1  0
  8 34  1  0
  9 35  1  0
  9 36  1  0
 10 37  1  0
 10 38  1  0
 11 39  1  6
 14 40  1  0
 17 41  1  0
 20 42  1  0
 21 43  1  0
 23 44  1  0
 26 45  1  0
 27 46  1  0
M  END
>  <smiles>  (12) 
O=C(NCC(=O)N1CCC[C@@H]1c1ncc(Cl)cn1)c1ccc2cc(F)ccc2n1

>  <score_type>  (12) 
oracle

>  <origin>  (12) 
autodockgpu

>  <m_score__min__energy>  (12) 
-8.6099999999999994

>  <m_primary>  (12) 
energy

>  <rmsd>  (12) 
9.318256669909427

>  <m_score__min__rmsd>  (12) 
9.318256669909427

>  <meeko>  (12) 
{"free_energy": -7.96, "intermolecular_energy": -9.45, "internal_energy": -1.66, "cluster_size": 8, "cluster_id": 2, "rank_in_cluster": 3}

>  <energy>  (12) 
-8.54

>  <cluster_rmsd>  (12) 
1.2

>  <cluster>  (12) 
1

$$$$

     RDKit          3D

 46 49  0  0  0  0  0  0  0  0999 V2000
  140.5870   71.6780  221.1000 O   0  0  0  0  0  0  0  0  0  0  0  0
  140.2200   72.2120  222.1920 C   0  0  0  0  0  0  0  0  0  0  0  0
  139.8810   73.6080  222.2280 N   0  0  0  0  0  0  0  0  0  0  0  0
  139.9730   74.3640  220.9960 C   0  0  0  0  0  0  0  0  0  0  0  0
  141.3760   74.6970  220.7320 C   0  0  0  0  0  0  0  0  0  0  0  0
  142.3290   73.8690  220.9210 O   0  0  0  0  0  0  0  0  0  0  0  0
  141.7720   75.9770  220.2440 N   0  0  0  0  0  0  0  0  0  0  0  0
  143.1090   76.2510  219.7430 C   0  0  0  0  0  0  0  0  0  0  0  0
  142.8860   77.3540  218.7340 C   0  0  0  0  0  0  0  0  0  0  0  0
  141.3790   77.6250  218.7190 C   0  0  0  0  0  0  0  0  0  0  0  0
  140.9990   77.2010  220.1430 C   0  0  2  0  0  0  0  0  0  0  0  0
  141.4010   78.2360  221.1230 C   0  0  0  0  0  0  0  0  0  0  0  0
  141.7810   79.4770  220.7360 N   0  0  0  0  0  0  0  0  0  0  0  0
  142.1490   80.4290  221.6240 C   0  0  0  0  0  0  0  0  0  0  0  0
  142.1380   80.1220  222.9710 C   0  0  0  0  0  0  0  0  0  0  0  0
  142.5950   81.2760  224.2080 Cl  0  0  0  0  0  0  0  0  0  0  0  0
  141.7450   78.8450  223.3510 C   0  0  0  0  0  0  0  0  0  0  0  0
  141.3840   77.9230  222.4330 N   0  0  0  0  0  0  0  0  0  0  0  0
  140.1330   71.4250  223.4350 C   0  0  0  0  0  0  0  0  0  0  0  0
  139.5630   70.1740  223.3660 C   0  0  0  0  0  0  0  0  0  0  0  0
  139.4370   69.3690  224.4650 C   0  0  0  0  0  0  0  0  0  0  0  0
  139.9040   69.8470  225.6680 C   0  0  0  0  0  0  0  0  0  0  0  0
  139.7860   69.0500  226.7850 C   0  0  0  0  0  0  0  0  0  0  0  0
  140.2600   69.5480  227.9770 C   0  0  0  0  0  0  0  0  0  0  0  0
  140.1600   68.7910  229.0920 F   0  0  0  0  0  0  0  0  0  0  0  0
  140.8210   70.7930  228.0120 C   0  0  0  0  0  0  0  0  0  0  0  0
  140.9540   71.6150  226.9130 C   0  0  0  0  0  0  0  0  0  0  0  0
  140.4760   71.1140  225.7070 C   0  0  0  0  0  0  0  0  0  0  0  0
  140.5870   71.8850  224.6090 N   0  0  0  0  0  0  0  0  0  0  0  0
  139.5770   74.0480  223.1350 H   0  0  0  0  0  0  0  0  0  0  0  0
  139.5763   73.7617  220.1654 H   0  0  0  0  0  0  0  0  0  0  0  0
  139.3870   75.2903  221.0890 H   0  0  0  0  0  0  0  0  0  0  0  0
  143.7718   76.5874  220.5538 H   0  0  0  0  0  0  0  0  0  0  0  0
  143.5951   75.3645  219.3096 H   0  0  0  0  0  0  0  0  0  0  0  0
  143.4329   78.2602  219.0333 H   0  0  0  0  0  0  0  0  0  0  0  0
  143.2498   77.0635  217.7374 H   0  0  0  0  0  0  0  0  0  0  0  0
  141.1602   78.6882  218.5408 H   0  0  0  0  0  0  0  0  0  0  0  0
  140.8288   77.0998  217.9244 H   0  0  0  0  0  0  0  0  0  0  0  0
  139.9259   77.0665  220.3442 H   0  0  0  0  0  0  0  0  0  0  0  0
  142.4514   81.4291  221.2799 H   0  0  0  0  0  0  0  0  0  0  0  0
  141.7276   78.5803  224.4185 H   0  0  0  0  0  0  0  0  0  0  0  0
  139.1966   69.8094  222.3950 H   0  0  0  0  0  0  0  0  0  0  0  0
  138.9775   68.3724  224.3895 H   0  0  0  0  0  0  0  0  0  0  0  0
  139.3292   68.0511  226.7264 H   0  0  0  0  0  0  0  0  0  0  0  0
  141.1905   71.1637  228.9795 H   0  0  0  0  0  0  0  0  0  0  0  0
  141.4129   72.6120  226.9861 H   0  0  0  0  0  0  0  0  0  0  0  0
  1  2  2  0
  2  3  1  0
  3  4  1  0
  4  5  1  0
  5  6  2  0
  5  7  1  0
  7  8  1  0
  8  9  1  0
  9 10  1  0
 10 11  1  0
 11 12  1  0
 12 13  2  0
 13 14  1  0
 14 15  2  0
 15 16  1  0
 15 17  1  0
 17 18  2  0
  2 19  1  0
 19 20  2  0
 20 21  1  0
 21 22  2  0
 22 23  1  0
 23 24  2  0
 24 25  1  0
 24 26  1  0
 26 27  2  0
 27 28  1  0
 28 29  2  0
 11  7  1  0
 18 12  1  0
 29 19  1  0
 28 22  1  0
  3 30  1  0
  4 31  1  0
  4 32  1  0
  8 33  1  0
  8 34  1  0
  9 35  1  0
  9 36  1  0
 10 37  1  0
 10 38  1  0
 11 39  1  6
 14 40  1  0
 17 41  1  0
 20 42  1  0
 21 43  1  0
 23 44  1  0
 26 45  1  0
 27 46  1  0
M  END
>  <smiles>  (13) 
O=C(NCC(=O)N1CCC[C@@H]1c1ncc(Cl)cn1)c1ccc2cc(F)ccc2n1

>  <score_type>  (13) 
oracle

>  <origin>  (13) 
autodockgpu

>  <m_score__min__energy>  (13) 
-8.6099999999999994

>  <m_primary>  (13) 
energy

>  <rmsd>  (13) 
2.2788921888321814

>  <m_score__min__rmsd>  (13) 
2.2788921888321814

>  <meeko>  (13) 
{"free_energy": -8.61, "intermolecular_energy": -10.1, "internal_energy": -1.35, "cluster_size": 36, "cluster_id": 1, "rank_in_cluster": 1}

>  <energy>  (13) 
-8.52

>  <cluster_rmsd>  (13) 
1.2

>  <cluster>  (13) 
1

$$$$

     RDKit          3D

 46 49  0  0  0  0  0  0  0  0999 V2000
  141.7850   73.3890  221.0320 O   0  0  0  0  0  0  0  0  0  0  0  0
  140.9810   74.1920  221.5980 C   0  0  0  0  0  0  0  0  0  0  0  0
  139.8460   73.6800  222.3180 N   0  0  0  0  0  0  0  0  0  0  0  0
  139.6620   72.2450  222.3690 C   0  0  0  0  0  0  0  0  0  0  0  0
  138.2910   71.9430  222.7920 C   0  0  0  0  0  0  0  0  0  0  0  0
  137.3310   72.7760  222.6680 O   0  0  0  0  0  0  0  0  0  0  0  0
  137.9360   70.6920  223.3760 N   0  0  0  0  0  0  0  0  0  0  0  0
  136.7020   70.4880  224.1170 C   0  0  0  0  0  0  0  0  0  0  0  0
  136.4010   69.0230  223.9020 C   0  0  0  0  0  0  0  0  0  0  0  0
  137.5180   68.4820  223.0040 C   0  0  0  0  0  0  0  0  0  0  0  0
  138.6630   69.4350  223.3680 C   0  0  2  0  0  0  0  0  0  0  0  0
  139.2430   69.0810  224.6830 C   0  0  0  0  0  0  0  0  0  0  0  0
  139.2010   67.8150  225.1650 N   0  0  0  0  0  0  0  0  0  0  0  0
  139.7290   67.4820  226.3650 C   0  0  0  0  0  0  0  0  0  0  0  0
  140.3300   68.4670  227.1230 C   0  0  0  0  0  0  0  0  0  0  0  0
  141.0460   68.1490  228.6910 Cl  0  0  0  0  0  0  0  0  0  0  0  0
  140.3660   69.7590  226.6150 C   0  0  0  0  0  0  0  0  0  0  0  0
  139.8270   70.0510  225.4120 N   0  0  0  0  0  0  0  0  0  0  0  0
  141.1860   75.6490  221.5350 C   0  0  0  0  0  0  0  0  0  0  0  0
  141.7480   76.1710  220.3910 C   0  0  0  0  0  0  0  0  0  0  0  0
  141.9770   77.5110  220.2380 C   0  0  0  0  0  0  0  0  0  0  0  0
  141.6270   78.3450  221.2750 C   0  0  0  0  0  0  0  0  0  0  0  0
  141.8510   79.6970  221.1390 C   0  0  0  0  0  0  0  0  0  0  0  0
  141.4920   80.5130  222.1870 C   0  0  0  0  0  0  0  0  0  0  0  0
  141.6990   81.8440  222.0850 F   0  0  0  0  0  0  0  0  0  0  0  0
  140.9370   79.9640  223.3070 C   0  0  0  0  0  0  0  0  0  0  0  0
  140.6990   78.6170  223.4760 C   0  0  0  0  0  0  0  0  0  0  0  0
  141.0610   77.7900  222.4170 C   0  0  0  0  0  0  0  0  0  0  0  0
  140.8460   76.4670  222.5410 N   0  0  0  0  0  0  0  0  0  0  0  0
  139.1820   74.3480  222.7870 H   0  0  0  0  0  0  0  0  0  0  0  0
  139.8408   71.8167  221.3717 H   0  0  0  0  0  0  0  0  0  0  0  0
  140.3719   71.8095  223.0876 H   0  0  0  0  0  0  0  0  0  0  0  0
  136.8438   70.7078  225.1855 H   0  0  0  0  0  0  0  0  0  0  0  0
  135.8870   71.1469  223.7828 H   0  0  0  0  0  0  0  0  0  0  0  0
  136.3943   68.4903  224.8644 H   0  0  0  0  0  0  0  0  0  0  0  0
  135.4127   68.8814  223.4401 H   0  0  0  0  0  0  0  0  0  0  0  0
  137.7657   67.4387  223.2493 H   0  0  0  0  0  0  0  0  0  0  0  0
  137.2697   68.4552  221.9327 H   0  0  0  0  0  0  0  0  0  0  0  0
  139.5356   69.4299  222.6983 H   0  0  0  0  0  0  0  0  0  0  0  0
  139.6804   66.4455  226.7302 H   0  0  0  0  0  0  0  0  0  0  0  0
  140.8417   70.5580  227.2027 H   0  0  0  0  0  0  0  0  0  0  0  0
  142.0217   75.4879  219.5734 H   0  0  0  0  0  0  0  0  0  0  0  0
  142.4263   77.9088  219.3161 H   0  0  0  0  0  0  0  0  0  0  0  0
  142.3013   80.1101  220.2244 H   0  0  0  0  0  0  0  0  0  0  0  0
  140.6616   80.6414  224.1288 H   0  0  0  0  0  0  0  0  0  0  0  0
  140.2481   78.2180  224.3966 H   0  0  0  0  0  0  0  0  0  0  0  0
  1  2  2  0
  2  3  1  0
  3  4  1  0
  4  5  1  0
  5  6  2  0
  5  7  1  0
  7  8  1  0
  8  9  1  0
  9 10  1  0
 10 11  1  0
 11 12  1  0
 12 13  2  0
 13 14  1  0
 14 15  2  0
 15 16  1  0
 15 17  1  0
 17 18  2  0
  2 19  1  0
 19 20  2  0
 20 21  1  0
 21 22  2  0
 22 23  1  0
 23 24  2  0
 24 25  1  0
 24 26  1  0
 26 27  2  0
 27 28  1  0
 28 29  2  0
 11  7  1  0
 18 12  1  0
 29 19  1  0
 28 22  1  0
  3 30  1  0
  4 31  1  0
  4 32  1  0
  8 33  1  0
  8 34  1  0
  9 35  1  0
  9 36  1  0
 10 37  1  0
 10 38  1  0
 11 39  1  6
 14 40  1  0
 17 41  1  0
 20 42  1  0
 21 43  1  0
 23 44  1  0
 26 45  1  0
 27 46  1  0
M  END
>  <smiles>  (14) 
O=C(NCC(=O)N1CCC[C@@H]1c1ncc(Cl)cn1)c1ccc2cc(F)ccc2n1

>  <score_type>  (14) 
oracle

>  <origin>  (14) 
autodockgpu

>  <m_score__min__energy>  (14) 
-8.6099999999999994

>  <m_primary>  (14) 
energy

>  <rmsd>  (14) 
9.361345341261949

>  <m_score__min__rmsd>  (14) 
9.361345341261949

>  <meeko>  (14) 
{"free_energy": -7.98, "intermolecular_energy": -9.47, "internal_energy": -1.72, "cluster_size": 8, "cluster_id": 2, "rank_in_cluster": 1}

>  <energy>  (14) 
-8.47

>  <cluster_rmsd>  (14) 
1.27

>  <cluster>  (14) 
1

$$$$

     RDKit          3D

 46 49  0  0  0  0  0  0  0  0999 V2000
  138.4680   72.5150  222.1630 O   0  0  0  0  0  0  0  0  0  0  0  0
  139.5900   72.2860  222.7120 C   0  0  0  0  0  0  0  0  0  0  0  0
  140.7730   72.9400  222.2220 N   0  0  0  0  0  0  0  0  0  0  0  0
  140.6360   73.8470  221.1020 C   0  0  0  0  0  0  0  0  0  0  0  0
  141.9530   74.3770  220.7390 C   0  0  0  0  0  0  0  0  0  0  0  0
  143.0330   73.7140  220.9000 O   0  0  0  0  0  0  0  0  0  0  0  0
  142.1200   75.6780  220.1800 N   0  0  0  0  0  0  0  0  0  0  0  0
  143.3740   76.1340  219.6020 C   0  0  0  0  0  0  0  0  0  0  0  0
  142.9350   77.1380  218.5610 C   0  0  0  0  0  0  0  0  0  0  0  0
  141.4050   77.1670  218.6090 C   0  0  0  0  0  0  0  0  0  0  0  0
  141.1580   76.7590  220.0660 C   0  0  2  0  0  0  0  0  0  0  0  0
  141.4300   77.8900  220.9810 C   0  0  0  0  0  0  0  0  0  0  0  0
  141.7780   79.1150  220.5190 N   0  0  0  0  0  0  0  0  0  0  0  0
  142.0280   80.1550  221.3480 C   0  0  0  0  0  0  0  0  0  0  0  0
  141.9260   79.9580  222.7110 C   0  0  0  0  0  0  0  0  0  0  0  0
  142.2280   81.2320  223.8760 Cl  0  0  0  0  0  0  0  0  0  0  0  0
  141.5690   78.6960  223.1690 C   0  0  0  0  0  0  0  0  0  0  0  0
  141.3270   77.6840  222.3080 N   0  0  0  0  0  0  0  0  0  0  0  0
  139.7070   71.3600  223.8510 C   0  0  0  0  0  0  0  0  0  0  0  0
  139.1780   70.0960  223.7110 C   0  0  0  0  0  0  0  0  0  0  0  0
  139.2390   69.1650  224.7120 C   0  0  0  0  0  0  0  0  0  0  0  0
  139.8540   69.5270  225.8880 C   0  0  0  0  0  0  0  0  0  0  0  0
  139.9240   68.6030  226.9070 C   0  0  0  0  0  0  0  0  0  0  0  0
  140.5430   68.9850  228.0750 C   0  0  0  0  0  0  0  0  0  0  0  0
  140.6280   68.1020  229.0930 F   0  0  0  0  0  0  0  0  0  0  0  0
  141.0580   70.2460  228.1820 C   0  0  0  0  0  0  0  0  0  0  0  0
  141.0050   71.1940  227.1830 C   0  0  0  0  0  0  0  0  0  0  0  0
  140.3790   70.8090  226.0010 C   0  0  0  0  0  0  0  0  0  0  0  0
  140.3060   71.7060  225.0000 N   0  0  0  0  0  0  0  0  0  0  0  0
  141.7010   72.7490  222.6800 H   0  0  0  0  0  0  0  0  0  0  0  0
  140.2084   73.3079  220.2438 H   0  0  0  0  0  0  0  0  0  0  0  0
  139.9709   74.6773  221.3817 H   0  0  0  0  0  0  0  0  0  0  0  0
  144.0089   76.6093  220.3642 H   0  0  0  0  0  0  0  0  0  0  0  0
  143.9762   75.3150  219.1818 H   0  0  0  0  0  0  0  0  0  0  0  0
  143.3422   78.1325  218.7957 H   0  0  0  0  0  0  0  0  0  0  0  0
  143.2981   76.8606  217.5604 H   0  0  0  0  0  0  0  0  0  0  0  0
  141.0119   78.1724  218.3975 H   0  0  0  0  0  0  0  0  0  0  0  0
  140.9128   76.5233  217.8651 H   0  0  0  0  0  0  0  0  0  0  0  0
  140.1294   76.4675  220.3249 H   0  0  0  0  0  0  0  0  0  0  0  0
  142.3073   81.1391  220.9436 H   0  0  0  0  0  0  0  0  0  0  0  0
  141.4820   78.5180  224.2510 H   0  0  0  0  0  0  0  0  0  0  0  0
  138.6902   69.8259  222.7628 H   0  0  0  0  0  0  0  0  0  0  0  0
  138.8105   68.1605  224.5806 H   0  0  0  0  0  0  0  0  0  0  0  0
  139.4998   67.5947  226.7911 H   0  0  0  0  0  0  0  0  0  0  0  0
  141.5471   70.5228  229.1276 H   0  0  0  0  0  0  0  0  0  0  0  0
  141.4335   72.1988  227.3126 H   0  0  0  0  0  0  0  0  0  0  0  0
  1  2  2  0
  2  3  1  0
  3  4  1  0
  4  5  1  0
  5  6  2  0
  5  7  1  0
  7  8  1  0
  8  9  1  0
  9 10  1  0
 10 11  1  0
 11 12  1  0
 12 13  2  0
 13 14  1  0
 14 15  2  0
 15 16  1  0
 15 17  1  0
 17 18  2  0
  2 19  1  0
 19 20  2  0
 20 21  1  0
 21 22  2  0
 22 23  1  0
 23 24  2  0
 24 25  1  0
 24 26  1  0
 26 27  2  0
 27 28  1  0
 28 29  2  0
 11  7  1  0
 18 12  1  0
 29 19  1  0
 28 22  1  0
  3 30  1  0
  4 31  1  0
  4 32  1  0
  8 33  1  0
  8 34  1  0
  9 35  1  0
  9 36  1  0
 10 37  1  0
 10 38  1  0
 11 39  1  6
 14 40  1  0
 17 41  1  0
 20 42  1  0
 21 43  1  0
 23 44  1  0
 26 45  1  0
 27 46  1  0
M  END
>  <smiles>  (15) 
O=C(NCC(=O)N1CCC[C@@H]1c1ncc(Cl)cn1)c1ccc2cc(F)ccc2n1

>  <score_type>  (15) 
oracle

>  <origin>  (15) 
autodockgpu

>  <m_score__min__energy>  (15) 
-8.6099999999999994

>  <m_primary>  (15) 
energy

>  <rmsd>  (15) 
2.374691904270022

>  <m_score__min__rmsd>  (15) 
2.374691904270022

>  <meeko>  (15) 
{"free_energy": -8.03, "intermolecular_energy": -9.52, "internal_energy": -1.6, "cluster_size": 36, "cluster_id": 1, "rank_in_cluster": 32}

>  <energy>  (15) 
-8.46

>  <cluster_rmsd>  (15) 
1.16

>  <cluster>  (15) 
1

$$$$

     RDKit          3D

 46 49  0  0  0  0  0  0  0  0999 V2000
  141.7700   73.3960  221.0130 O   0  0  0  0  0  0  0  0  0  0  0  0
  140.9770   74.1980  221.5980 C   0  0  0  0  0  0  0  0  0  0  0  0
  139.8490   73.6840  222.3260 N   0  0  0  0  0  0  0  0  0  0  0  0
  139.6570   72.2500  222.3640 C   0  0  0  0  0  0  0  0  0  0  0  0
  138.2880   71.9510  222.7960 C   0  0  0  0  0  0  0  0  0  0  0  0
  137.3290   72.7860  222.6780 O   0  0  0  0  0  0  0  0  0  0  0  0
  137.9340   70.7000  223.3820 N   0  0  0  0  0  0  0  0  0  0  0  0
  136.6980   70.4970  224.1200 C   0  0  0  0  0  0  0  0  0  0  0  0
  136.4000   69.0300  223.9080 C   0  0  0  0  0  0  0  0  0  0  0  0
  137.5200   68.4890  223.0140 C   0  0  0  0  0  0  0  0  0  0  0  0
  138.6620   69.4450  223.3780 C   0  0  2  0  0  0  0  0  0  0  0  0
  139.2410   69.0940  224.6950 C   0  0  0  0  0  0  0  0  0  0  0  0
  139.2020   67.8290  225.1780 N   0  0  0  0  0  0  0  0  0  0  0  0
  139.7280   67.4990  226.3800 C   0  0  0  0  0  0  0  0  0  0  0  0
  140.3240   68.4870  227.1390 C   0  0  0  0  0  0  0  0  0  0  0  0
  141.0370   68.1750  228.7090 Cl  0  0  0  0  0  0  0  0  0  0  0  0
  140.3560   69.7800  226.6290 C   0  0  0  0  0  0  0  0  0  0  0  0
  139.8190   70.0680  225.4240 N   0  0  0  0  0  0  0  0  0  0  0  0
  141.1890   75.6540  221.5470 C   0  0  0  0  0  0  0  0  0  0  0  0
  141.7930   76.1790  220.4250 C   0  0  0  0  0  0  0  0  0  0  0  0
  142.0330   77.5180  220.2860 C   0  0  0  0  0  0  0  0  0  0  0  0
  141.6490   78.3490  221.3130 C   0  0  0  0  0  0  0  0  0  0  0  0
  141.8820   79.7010  221.1890 C   0  0  0  0  0  0  0  0  0  0  0  0
  141.4900   80.5140  222.2280 C   0  0  0  0  0  0  0  0  0  0  0  0
  141.7050   81.8450  222.1380 F   0  0  0  0  0  0  0  0  0  0  0  0
  140.8940   79.9630  223.3260 C   0  0  0  0  0  0  0  0  0  0  0  0
  140.6460   78.6160  223.4810 C   0  0  0  0  0  0  0  0  0  0  0  0
  141.0410   77.7920  222.4320 C   0  0  0  0  0  0  0  0  0  0  0  0
  140.8170   76.4700  222.5440 N   0  0  0  0  0  0  0  0  0  0  0  0
  139.1940   74.3510  222.8090 H   0  0  0  0  0  0  0  0  0  0  0  0
  139.8246   71.8310  221.3608 H   0  0  0  0  0  0  0  0  0  0  0  0
  140.3705   71.8033  223.0721 H   0  0  0  0  0  0  0  0  0  0  0  0
  136.8362   70.7202  225.1882 H   0  0  0  0  0  0  0  0  0  0  0  0
  135.8831   71.1539  223.7817 H   0  0  0  0  0  0  0  0  0  0  0  0
  136.3921   68.4997  224.8717 H   0  0  0  0  0  0  0  0  0  0  0  0
  135.4130   68.8853  223.4444 H   0  0  0  0  0  0  0  0  0  0  0  0
  137.7692   67.4468  223.2626 H   0  0  0  0  0  0  0  0  0  0  0  0
  137.2741   68.4590  221.9423 H   0  0  0  0  0  0  0  0  0  0  0  0
  139.5356   69.4405  222.7096 H   0  0  0  0  0  0  0  0  0  0  0  0
  139.6818   66.4627  226.7461 H   0  0  0  0  0  0  0  0  0  0  0  0
  140.8266   70.5818  227.2169 H   0  0  0  0  0  0  0  0  0  0  0  0
  142.0920   75.4983  219.6143 H   0  0  0  0  0  0  0  0  0  0  0  0
  142.5172   77.9176  219.3827 H   0  0  0  0  0  0  0  0  0  0  0  0
  142.3641   80.1160  220.2916 H   0  0  0  0  0  0  0  0  0  0  0  0
  140.5920   80.6383  224.1401 H   0  0  0  0  0  0  0  0  0  0  0  0
  140.1626   78.2148  224.3840 H   0  0  0  0  0  0  0  0  0  0  0  0
  1  2  2  0
  2  3  1  0
  3  4  1  0
  4  5  1  0
  5  6  2  0
  5  7  1  0
  7  8  1  0
  8  9  1  0
  9 10  1  0
 10 11  1  0
 11 12  1  0
 12 13  2  0
 13 14  1  0
 14 15  2  0
 15 16  1  0
 15 17  1  0
 17 18  2  0
  2 19  1  0
 19 20  2  0
 20 21  1  0
 21 22  2  0
 22 23  1  0
 23 24  2  0
 24 25  1  0
 24 26  1  0
 26 27  2  0
 27 28  1  0
 28 29  2  0
 11  7  1  0
 18 12  1  0
 29 19  1  0
 28 22  1  0
  3 30  1  0
  4 31  1  0
  4 32  1  0
  8 33  1  0
  8 34  1  0
  9 35  1  0
  9 36  1  0
 10 37  1  0
 10 38  1  0
 11 39  1  6
 14 40  1  0
 17 41  1  0
 20 42  1  0
 21 43  1  0
 23 44  1  0
 26 45  1  0
 27 46  1  0
M  END
>  <smiles>  (16) 
O=C(NCC(=O)N1CCC[C@@H]1c1ncc(Cl)cn1)c1ccc2cc(F)ccc2n1

>  <score_type>  (16) 
oracle

>  <origin>  (16) 
autodockgpu

>  <m_score__min__energy>  (16) 
-8.6099999999999994

>  <m_primary>  (16) 
energy

>  <rmsd>  (16) 
9.35641316122811

>  <m_score__min__rmsd>  (16) 
9.35641316122811

>  <meeko>  (16) 
{"free_energy": -7.95, "intermolecular_energy": -9.45, "internal_energy": -1.72, "cluster_size": 8, "cluster_id": 2, "rank_in_cluster": 4}

>  <energy>  (16) 
-8.43

>  <cluster_rmsd>  (16) 
1.4

>  <cluster>  (16) 
1

$$$$

     RDKit          3D

 46 49  0  0  0  0  0  0  0  0999 V2000
  140.9290   71.3190  221.8280 O   0  0  0  0  0  0  0  0  0  0  0  0
  140.1750   71.6890  222.7810 C   0  0  0  0  0  0  0  0  0  0  0  0
  139.1790   72.7010  222.5530 N   0  0  0  0  0  0  0  0  0  0  0  0
  139.0730   73.2670  221.2240 C   0  0  0  0  0  0  0  0  0  0  0  0
  139.2010   74.7250  221.3030 C   0  0  0  0  0  0  0  0  0  0  0  0
  138.2450   75.4820  221.6840 O   0  0  0  0  0  0  0  0  0  0  0  0
  140.4070   75.4010  220.9570 N   0  0  0  0  0  0  0  0  0  0  0  0
  141.7250   74.8340  221.1920 C   0  0  0  0  0  0  0  0  0  0  0  0
  142.5720   75.4490  220.1010 C   0  0  0  0  0  0  0  0  0  0  0  0
  141.6340   76.3400  219.2810 C   0  0  0  0  0  0  0  0  0  0  0  0
  140.5860   76.7030  220.3400 C   0  0  2  0  0  0  0  0  0  0  0  0
  141.1120   77.7280  221.2700 C   0  0  0  0  0  0  0  0  0  0  0  0
  141.0440   77.5760  222.6140 N   0  0  0  0  0  0  0  0  0  0  0  0
  141.5220   78.5080  223.4710 C   0  0  0  0  0  0  0  0  0  0  0  0
  142.0970   79.6530  222.9550 C   0  0  0  0  0  0  0  0  0  0  0  0
  142.7480   80.9240  223.9700 Cl  0  0  0  0  0  0  0  0  0  0  0  0
  142.1590   79.7930  221.5740 C   0  0  0  0  0  0  0  0  0  0  0  0
  141.6710   78.8390  220.7530 N   0  0  0  0  0  0  0  0  0  0  0  0
  140.2990   71.1010  224.1250 C   0  0  0  0  0  0  0  0  0  0  0  0
  140.7790   71.9020  225.1370 C   0  0  0  0  0  0  0  0  0  0  0  0
  140.9290   71.4460  226.4180 C   0  0  0  0  0  0  0  0  0  0  0  0
  140.5820   70.1410  226.6800 C   0  0  0  0  0  0  0  0  0  0  0  0
  140.7260   69.6650  227.9650 C   0  0  0  0  0  0  0  0  0  0  0  0
  140.3730   68.3570  228.2050 C   0  0  0  0  0  0  0  0  0  0  0  0
  140.5030   67.8590  229.4540 F   0  0  0  0  0  0  0  0  0  0  0  0
  139.8990   67.5890  227.1790 C   0  0  0  0  0  0  0  0  0  0  0  0
  139.7420   68.0340  225.8840 C   0  0  0  0  0  0  0  0  0  0  0  0
  140.0990   69.3560  225.6390 C   0  0  0  0  0  0  0  0  0  0  0  0
  139.9610   69.8300  224.3870 N   0  0  0  0  0  0  0  0  0  0  0  0
  138.5560   73.0060  223.3440 H   0  0  0  0  0  0  0  0  0  0  0  0
  139.8741   72.8624  220.5880 H   0  0  0  0  0  0  0  0  0  0  0  0
  138.0955   73.0073  220.7915 H   0  0  0  0  0  0  0  0  0  0  0  0
  142.1017   75.1133  222.1870 H   0  0  0  0  0  0  0  0  0  0  0  0
  141.7291   73.7342  221.1696 H   0  0  0  0  0  0  0  0  0  0  0  0
  143.3815   76.0504  220.5403 H   0  0  0  0  0  0  0  0  0  0  0  0
  143.0398   74.6759  219.4736 H   0  0  0  0  0  0  0  0  0  0  0  0
  142.1525   77.2329  218.9015 H   0  0  0  0  0  0  0  0  0  0  0  0
  141.2241   75.8621  218.3790 H   0  0  0  0  0  0  0  0  0  0  0  0
  139.6527   77.1528  219.9704 H   0  0  0  0  0  0  0  0  0  0  0  0
  141.4539   78.3565  224.5584 H   0  0  0  0  0  0  0  0  0  0  0  0
  142.6136   80.6968  221.1422 H   0  0  0  0  0  0  0  0  0  0  0  0
  141.0508   72.9429  224.9078 H   0  0  0  0  0  0  0  0  0  0  0  0
  141.3146   72.1016  227.2127 H   0  0  0  0  0  0  0  0  0  0  0  0
  141.1097   70.3081  228.7707 H   0  0  0  0  0  0  0  0  0  0  0  0
  139.6247   66.5472  227.4012 H   0  0  0  0  0  0  0  0  0  0  0  0
  139.3558   67.3800  225.0883 H   0  0  0  0  0  0  0  0  0  0  0  0
  1  2  2  0
  2  3  1  0
  3  4  1  0
  4  5  1  0
  5  6  2  0
  5  7  1  0
  7  8  1  0
  8  9  1  0
  9 10  1  0
 10 11  1  0
 11 12  1  0
 12 13  2  0
 13 14  1  0
 14 15  2  0
 15 16  1  0
 15 17  1  0
 17 18  2  0
  2 19  1  0
 19 20  2  0
 20 21  1  0
 21 22  2  0
 22 23  1  0
 23 24  2  0
 24 25  1  0
 24 26  1  0
 26 27  2  0
 27 28  1  0
 28 29  2  0
 11  7  1  0
 18 12  1  0
 29 19  1  0
 28 22  1  0
  3 30  1  0
  4 31  1  0
  4 32  1  0
  8 33  1  0
  8 34  1  0
  9 35  1  0
  9 36  1  0
 10 37  1  0
 10 38  1  0
 11 39  1  6
 14 40  1  0
 17 41  1  0
 20 42  1  0
 21 43  1  0
 23 44  1  0
 26 45  1  0
 27 46  1  0
M  END
>  <smiles>  (17) 
O=C(NCC(=O)N1CCC[C@@H]1c1ncc(Cl)cn1)c1ccc2cc(F)ccc2n1

>  <score_type>  (17) 
oracle

>  <origin>  (17) 
autodockgpu

>  <m_score__min__energy>  (17) 
-8.6099999999999994

>  <m_primary>  (17) 
energy

>  <rmsd>  (17) 
2.8361733643835874

>  <m_score__min__rmsd>  (17) 
2.8361733643835874

>  <meeko>  (17) 
{"free_energy": -8.39, "intermolecular_energy": -9.88, "internal_energy": -1.41, "cluster_size": 36, "cluster_id": 1, "rank_in_cluster": 20}

>  <energy>  (17) 
-8.43

>  <cluster_rmsd>  (17) 
1.24

>  <cluster>  (17) 
1

$$$$

     RDKit          3D

 46 49  0  0  0  0  0  0  0  0999 V2000
  141.1220   71.6640  222.0190 O   0  0  0  0  0  0  0  0  0  0  0  0
  140.2520   71.8390  222.9280 C   0  0  0  0  0  0  0  0  0  0  0  0
  139.1150   72.6820  222.6770 N   0  0  0  0  0  0  0  0  0  0  0  0
  139.0050   73.3080  221.3760 C   0  0  0  0  0  0  0  0  0  0  0  0
  139.1600   74.7590  221.5170 C   0  0  0  0  0  0  0  0  0  0  0  0
  138.2640   75.5010  222.0440 O   0  0  0  0  0  0  0  0  0  0  0  0
  140.3290   75.4440  221.0730 N   0  0  0  0  0  0  0  0  0  0  0  0
  141.6680   74.8970  221.2180 C   0  0  0  0  0  0  0  0  0  0  0  0
  142.4240   75.5060  220.0600 C   0  0  0  0  0  0  0  0  0  0  0  0
  141.4170   76.3730  219.2980 C   0  0  0  0  0  0  0  0  0  0  0  0
  140.4440   76.7380  220.4260 C   0  0  2  0  0  0  0  0  0  0  0  0
  141.0230   77.7850  221.2990 C   0  0  0  0  0  0  0  0  0  0  0  0
  141.5740   78.9140  220.7920 N   0  0  0  0  0  0  0  0  0  0  0  0
  142.1050   79.8760  221.5820 C   0  0  0  0  0  0  0  0  0  0  0  0
  142.0840   79.6980  222.9510 C   0  0  0  0  0  0  0  0  0  0  0  0
  142.7420   80.8770  224.0690 Cl  0  0  0  0  0  0  0  0  0  0  0  0
  141.5150   78.5350  223.4550 C   0  0  0  0  0  0  0  0  0  0  0  0
  140.9950   77.5990  222.6330 N   0  0  0  0  0  0  0  0  0  0  0  0
  140.3830   71.1930  224.2450 C   0  0  0  0  0  0  0  0  0  0  0  0
  141.0130   71.8960  225.2480 C   0  0  0  0  0  0  0  0  0  0  0  0
  141.1820   71.3800  226.5040 C   0  0  0  0  0  0  0  0  0  0  0  0
  140.6980   70.1160  226.7490 C   0  0  0  0  0  0  0  0  0  0  0  0
  140.8590   69.5810  228.0080 C   0  0  0  0  0  0  0  0  0  0  0  0
  140.3670   68.3160  228.2320 C   0  0  0  0  0  0  0  0  0  0  0  0
  140.5090   67.7630  229.4560 F   0  0  0  0  0  0  0  0  0  0  0  0
  139.7470   67.6450  227.2170 C   0  0  0  0  0  0  0  0  0  0  0  0
  139.5700   68.1510  225.9470 C   0  0  0  0  0  0  0  0  0  0  0  0
  140.0660   69.4310  225.7180 C   0  0  0  0  0  0  0  0  0  0  0  0
  139.9130   69.9620  224.4910 N   0  0  0  0  0  0  0  0  0  0  0  0
  138.3960   72.8260  223.4310 H   0  0  0  0  0  0  0  0  0  0  0  0
  139.7919   72.9179  220.7137 H   0  0  0  0  0  0  0  0  0  0  0  0
  138.0182   73.0850  220.9441 H   0  0  0  0  0  0  0  0  0  0  0  0
  142.1129   75.1954  222.1787 H   0  0  0  0  0  0  0  0  0  0  0  0
  141.6851   73.7972  221.2104 H   0  0  0  0  0  0  0  0  0  0  0  0
  143.2552   76.1240  220.4305 H   0  0  0  0  0  0  0  0  0  0  0  0
  142.8548   74.7294  219.4110 H   0  0  0  0  0  0  0  0  0  0  0  0
  141.8943   77.2667  218.8696 H   0  0  0  0  0  0  0  0  0  0  0  0
  140.9493   75.8771  218.4346 H   0  0  0  0  0  0  0  0  0  0  0  0
  139.4792   77.1690  220.1203 H   0  0  0  0  0  0  0  0  0  0  0  0
  142.5451   80.7828  221.1416 H   0  0  0  0  0  0  0  0  0  0  0  0
  141.4878   78.3742  224.5428 H   0  0  0  0  0  0  0  0  0  0  0  0
  141.3928   72.9056  225.0322 H   0  0  0  0  0  0  0  0  0  0  0  0
  141.6883   71.9570  227.2918 H   0  0  0  0  0  0  0  0  0  0  0  0
  141.3632   70.1454  228.8062 H   0  0  0  0  0  0  0  0  0  0  0  0
  139.3640   66.6353  227.4264 H   0  0  0  0  0  0  0  0  0  0  0  0
  139.0646   67.5748  225.1580 H   0  0  0  0  0  0  0  0  0  0  0  0
  1  2  2  0
  2  3  1  0
  3  4  1  0
  4  5  1  0
  5  6  2  0
  5  7  1  0
  7  8  1  0
  8  9  1  0
  9 10  1  0
 10 11  1  0
 11 12  1  0
 12 13  2  0
 13 14  1  0
 14 15  2  0
 15 16  1  0
 15 17  1  0
 17 18  2  0
  2 19  1  0
 19 20  2  0
 20 21  1  0
 21 22  2  0
 22 23  1  0
 23 24  2  0
 24 25  1  0
 24 26  1  0
 26 27  2  0
 27 28  1  0
 28 29  2  0
 11  7  1  0
 18 12  1  0
 29 19  1  0
 28 22  1  0
  3 30  1  0
  4 31  1  0
  4 32  1  0
  8 33  1  0
  8 34  1  0
  9 35  1  0
  9 36  1  0
 10 37  1  0
 10 38  1  0
 11 39  1  6
 14 40  1  0
 17 41  1  0
 20 42  1  0
 21 43  1  0
 23 44  1  0
 26 45  1  0
 27 46  1  0
M  END
>  <smiles>  (18) 
O=C(NCC(=O)N1CCC[C@@H]1c1ncc(Cl)cn1)c1ccc2cc(F)ccc2n1

>  <score_type>  (18) 
oracle

>  <origin>  (18) 
autodockgpu

>  <m_score__min__energy>  (18) 
-8.6099999999999994

>  <m_primary>  (18) 
energy

>  <rmsd>  (18) 
3.0135209026487373

>  <m_score__min__rmsd>  (18) 
3.0135209026487373

>  <meeko>  (18) 
{"free_energy": -8.42, "intermolecular_energy": -9.91, "internal_energy": -1.44, "cluster_size": 36, "cluster_id": 1, "rank_in_cluster": 19}

>  <energy>  (18) 
-8.42

>  <cluster_rmsd>  (18) 
1.25

>  <cluster>  (18) 
1

$$$$

     RDKit          3D

 46 49  0  0  0  0  0  0  0  0999 V2000
  138.9490   71.2430  221.2390 O   0  0  0  0  0  0  0  0  0  0  0  0
  139.2560   71.8430  222.3160 C   0  0  0  0  0  0  0  0  0  0  0  0
  139.3160   73.2790  222.3430 N   0  0  0  0  0  0  0  0  0  0  0  0
  139.0210   73.9970  221.1200 C   0  0  0  0  0  0  0  0  0  0  0  0
  140.1440   73.8570  220.1890 C   0  0  0  0  0  0  0  0  0  0  0  0
  140.1870   72.9520  219.2900 O   0  0  0  0  0  0  0  0  0  0  0  0
  141.2720   74.7290  220.2250 N   0  0  0  0  0  0  0  0  0  0  0  0
  142.5350   74.3610  220.8440 C   0  0  0  0  0  0  0  0  0  0  0  0
  143.5540   75.1570  220.0620 C   0  0  0  0  0  0  0  0  0  0  0  0
  142.7700   75.9350  219.0010 C   0  0  0  0  0  0  0  0  0  0  0  0
  141.4100   76.0740  219.6960 C   0  0  2  0  0  0  0  0  0  0  0  0
  141.4610   77.1180  220.7450 C   0  0  0  0  0  0  0  0  0  0  0  0
  141.0820   76.8680  222.0210 N   0  0  0  0  0  0  0  0  0  0  0  0
  141.1250   77.8150  222.9860 C   0  0  0  0  0  0  0  0  0  0  0  0
  141.5720   79.0800  222.6560 C   0  0  0  0  0  0  0  0  0  0  0  0
  141.6700   80.3830  223.8240 Cl  0  0  0  0  0  0  0  0  0  0  0  0
  141.9580   79.3200  221.3440 C   0  0  0  0  0  0  0  0  0  0  0  0
  141.8990   78.3470  220.4090 N   0  0  0  0  0  0  0  0  0  0  0  0
  139.5530   71.0940  223.5490 C   0  0  0  0  0  0  0  0  0  0  0  0
  139.2830   69.7430  223.5630 C   0  0  0  0  0  0  0  0  0  0  0  0
  139.5240   68.9630  224.6610 C   0  0  0  0  0  0  0  0  0  0  0  0
  140.0560   69.5710  225.7750 C   0  0  0  0  0  0  0  0  0  0  0  0
  140.3060   68.8010  226.8900 C   0  0  0  0  0  0  0  0  0  0  0  0
  140.8380   69.4280  227.9930 C   0  0  0  0  0  0  0  0  0  0  0  0
  141.0940   68.7010  229.1020 F   0  0  0  0  0  0  0  0  0  0  0  0
  141.0940   70.7680  227.9460 C   0  0  0  0  0  0  0  0  0  0  0  0
  140.8560   71.5670  226.8480 C   0  0  0  0  0  0  0  0  0  0  0  0
  140.3190   70.9350  225.7310 C   0  0  0  0  0  0  0  0  0  0  0  0
  140.0710   71.6790  224.6380 N   0  0  0  0  0  0  0  0  0  0  0  0
  139.5710   73.7730  223.2360 H   0  0  0  0  0  0  0  0  0  0  0  0
  138.1109   73.5826  220.6618 H   0  0  0  0  0  0  0  0  0  0  0  0
  138.8642   75.0616  221.3482 H   0  0  0  0  0  0  0  0  0  0  0  0
  142.5485   74.6415  221.9075 H   0  0  0  0  0  0  0  0  0  0  0  0
  142.7256   73.2779  220.8193 H   0  0  0  0  0  0  0  0  0  0  0  0
  144.0867   75.8520  220.7277 H   0  0  0  0  0  0  0  0  0  0  0  0
  144.3063   74.5000  219.6012 H   0  0  0  0  0  0  0  0  0  0  0  0
  143.2244   76.9164  218.8000 H   0  0  0  0  0  0  0  0  0  0  0  0
  142.7309   75.4489  218.0150 H   0  0  0  0  0  0  0  0  0  0  0  0
  140.5676   76.3922  219.0643 H   0  0  0  0  0  0  0  0  0  0  0  0
  140.8100   77.5824  224.0139 H   0  0  0  0  0  0  0  0  0  0  0  0
  142.3182   80.3201  221.0611 H   0  0  0  0  0  0  0  0  0  0  0  0
  138.8596   69.2760  222.6615 H   0  0  0  0  0  0  0  0  0  0  0  0
  139.3000   67.8861  224.6535 H   0  0  0  0  0  0  0  0  0  0  0  0
  140.0879   67.7229  226.8979 H   0  0  0  0  0  0  0  0  0  0  0  0
  141.5182   71.2416  228.8436 H   0  0  0  0  0  0  0  0  0  0  0  0
  141.0783   72.6443  226.8547 H   0  0  0  0  0  0  0  0  0  0  0  0
  1  2  2  0
  2  3  1  0
  3  4  1  0
  4  5  1  0
  5  6  2  0
  5  7  1  0
  7  8  1  0
  8  9  1  0
  9 10  1  0
 10 11  1  0
 11 12  1  0
 12 13  2  0
 13 14  1  0
 14 15  2  0
 15 16  1  0
 15 17  1  0
 17 18  2  0
  2 19  1  0
 19 20  2  0
 20 21  1  0
 21 22  2  0
 22 23  1  0
 23 24  2  0
 24 25  1  0
 24 26  1  0
 26 27  2  0
 27 28  1  0
 28 29  2  0
 11  7  1  0
 18 12  1  0
 29 19  1  0
 28 22  1  0
  3 30  1  0
  4 31  1  0
  4 32  1  0
  8 33  1  0
  8 34  1  0
  9 35  1  0
  9 36  1  0
 10 37  1  0
 10 38  1  0
 11 39  1  6
 14 40  1  0
 17 41  1  0
 20 42  1  0
 21 43  1  0
 23 44  1  0
 26 45  1  0
 27 46  1  0
M  END
>  <smiles>  (19) 
O=C(NCC(=O)N1CCC[C@@H]1c1ncc(Cl)cn1)c1ccc2cc(F)ccc2n1

>  <score_type>  (19) 
oracle

>  <origin>  (19) 
autodockgpu

>  <m_score__min__energy>  (19) 
-8.6099999999999994

>  <m_primary>  (19) 
energy

>  <rmsd>  (19) 
2.1128727866587904

>  <m_score__min__rmsd>  (19) 
2.1128727866587904

>  <meeko>  (19) 
{"free_energy": -7.74, "intermolecular_energy": -9.23, "internal_energy": -1.63, "cluster_size": 36, "cluster_id": 1, "rank_in_cluster": 36}

>  <energy>  (19) 
-8.42

>  <cluster_rmsd>  (19) 
1.34

>  <cluster>  (19) 
1

$$$$

     RDKit          3D

 46 49  0  0  0  0  0  0  0  0999 V2000
  140.3080   71.6670  221.0650 O   0  0  0  0  0  0  0  0  0  0  0  0
  140.0410   72.2130  222.1800 C   0  0  0  0  0  0  0  0  0  0  0  0
  139.7820   73.6260  222.2410 N   0  0  0  0  0  0  0  0  0  0  0  0
  139.8370   74.3830  221.0080 C   0  0  0  0  0  0  0  0  0  0  0  0
  141.2360   74.6300  220.6490 C   0  0  0  0  0  0  0  0  0  0  0  0
  142.1320   73.7210  220.6920 O   0  0  0  0  0  0  0  0  0  0  0  0
  141.6960   75.9130  220.2270 N   0  0  0  0  0  0  0  0  0  0  0  0
  143.0620   76.1590  219.7970 C   0  0  0  0  0  0  0  0  0  0  0  0
  142.9220   77.3040  218.8210 C   0  0  0  0  0  0  0  0  0  0  0  0
  141.4260   77.6250  218.7480 C   0  0  0  0  0  0  0  0  0  0  0  0
  140.9670   77.1650  220.1360 C   0  0  2  0  0  0  0  0  0  0  0  0
  141.3560   78.1500  221.1710 C   0  0  0  0  0  0  0  0  0  0  0  0
  141.3140   77.8530  222.4920 N   0  0  0  0  0  0  0  0  0  0  0  0
  141.6680   78.7470  223.4440 C   0  0  0  0  0  0  0  0  0  0  0  0
  142.0850   80.0040  223.0540 C   0  0  0  0  0  0  0  0  0  0  0  0
  142.5660   81.2400  224.2000 Cl  0  0  0  0  0  0  0  0  0  0  0  0
  142.1230   80.2930  221.6960 C   0  0  0  0  0  0  0  0  0  0  0  0
  141.7620   79.3720  220.7760 N   0  0  0  0  0  0  0  0  0  0  0  0
  139.9900   71.4250  223.4230 C   0  0  0  0  0  0  0  0  0  0  0  0
  139.4150   70.1750  223.3710 C   0  0  0  0  0  0  0  0  0  0  0  0
  139.3210   69.3680  224.4720 C   0  0  0  0  0  0  0  0  0  0  0  0
  139.8260   69.8440  225.6600 C   0  0  0  0  0  0  0  0  0  0  0  0
  139.7400   69.0460  226.7800 C   0  0  0  0  0  0  0  0  0  0  0  0
  140.2510   69.5400  227.9570 C   0  0  0  0  0  0  0  0  0  0  0  0
  140.1830   68.7820  229.0730 F   0  0  0  0  0  0  0  0  0  0  0  0
  140.8150   70.7840  227.9760 C   0  0  0  0  0  0  0  0  0  0  0  0
  140.9170   71.6070  226.8760 C   0  0  0  0  0  0  0  0  0  0  0  0
  140.4010   71.1090  225.6840 C   0  0  0  0  0  0  0  0  0  0  0  0
  140.4800   71.8820  224.5850 N   0  0  0  0  0  0  0  0  0  0  0  0
  139.5610   74.0750  223.1670 H   0  0  0  0  0  0  0  0  0  0  0  0
  139.3476   73.8122  220.2051 H   0  0  0  0  0  0  0  0  0  0  0  0
  139.3180   75.3433  221.1437 H   0  0  0  0  0  0  0  0  0  0  0  0
  143.6974   76.4434  220.6487 H   0  0  0  0  0  0  0  0  0  0  0  0
  143.5383   75.2725  219.3529 H   0  0  0  0  0  0  0  0  0  0  0  0
  143.4827   78.1802  219.1786 H   0  0  0  0  0  0  0  0  0  0  0  0
  143.3229   77.0380  217.8318 H   0  0  0  0  0  0  0  0  0  0  0  0
  141.2493   78.7004  218.5987 H   0  0  0  0  0  0  0  0  0  0  0  0
  140.8972   77.1459  217.9109 H   0  0  0  0  0  0  0  0  0  0  0  0
  139.8819   77.0602  220.2828 H   0  0  0  0  0  0  0  0  0  0  0  0
  141.6243   78.4771  224.5095 H   0  0  0  0  0  0  0  0  0  0  0  0
  142.4526   81.2886  221.3640 H   0  0  0  0  0  0  0  0  0  0  0  0
  139.0175   69.8127  222.4114 H   0  0  0  0  0  0  0  0  0  0  0  0
  138.8574   68.3724  224.4094 H   0  0  0  0  0  0  0  0  0  0  0  0
  139.2786   68.0485  226.7341 H   0  0  0  0  0  0  0  0  0  0  0  0
  141.2139   71.1528  228.9325 H   0  0  0  0  0  0  0  0  0  0  0  0
  141.3807   72.6026  226.9369 H   0  0  0  0  0  0  0  0  0  0  0  0
  1  2  2  0
  2  3  1  0
  3  4  1  0
  4  5  1  0
  5  6  2  0
  5  7  1  0
  7  8  1  0
  8  9  1  0
  9 10  1  0
 10 11  1  0
 11 12  1  0
 12 13  2  0
 13 14  1  0
 14 15  2  0
 15 16  1  0
 15 17  1  0
 17 18  2  0
  2 19  1  0
 19 20  2  0
 20 21  1  0
 21 22  2  0
 22 23  1  0
 23 24  2  0
 24 25  1  0
 24 26  1  0
 26 27  2  0
 27 28  1  0
 28 29  2  0
 11  7  1  0
 18 12  1  0
 29 19  1  0
 28 22  1  0
  3 30  1  0
  4 31  1  0
  4 32  1  0
  8 33  1  0
  8 34  1  0
  9 35  1  0
  9 36  1  0
 10 37  1  0
 10 38  1  0
 11 39  1  6
 14 40  1  0
 17 41  1  0
 20 42  1  0
 21 43  1  0
 23 44  1  0
 26 45  1  0
 27 46  1  0
M  END
>  <smiles>  (20) 
O=C(NCC(=O)N1CCC[C@@H]1c1ncc(Cl)cn1)c1ccc2cc(F)ccc2n1

>  <score_type>  (20) 
oracle

>  <origin>  (20) 
autodockgpu

>  <m_score__min__energy>  (20) 
-8.6099999999999994

>  <m_primary>  (20) 
energy

>  <rmsd>  (20) 
2.023251011404801

>  <m_score__min__rmsd>  (20) 
2.023251011404801

>  <meeko>  (20) 
{"free_energy": -8.54, "intermolecular_energy": -10.04, "internal_energy": -1.35, "cluster_size": 36, "cluster_id": 1, "rank_in_cluster": 11}

>  <energy>  (20) 
-8.39

>  <cluster_rmsd>  (20) 
1.31

>  <cluster>  (20) 
1

$$$$

     RDKit          3D

 46 49  0  0  0  0  0  0  0  0999 V2000
  140.7090   71.5550  221.1310 O   0  0  0  0  0  0  0  0  0  0  0  0
  140.2710   72.0870  222.1980 C   0  0  0  0  0  0  0  0  0  0  0  0
  139.8860   73.4720  222.2010 N   0  0  0  0  0  0  0  0  0  0  0  0
  140.0150   74.2180  220.9670 C   0  0  0  0  0  0  0  0  0  0  0  0
  141.4020   74.6640  220.8090 C   0  0  0  0  0  0  0  0  0  0  0  0
  142.4020   73.9320  221.1150 O   0  0  0  0  0  0  0  0  0  0  0  0
  141.7300   75.9560  220.3000 N   0  0  0  0  0  0  0  0  0  0  0  0
  143.0280   76.2720  219.7260 C   0  0  0  0  0  0  0  0  0  0  0  0
  142.7150   77.3660  218.7320 C   0  0  0  0  0  0  0  0  0  0  0  0
  141.2010   77.5880  218.8000 C   0  0  0  0  0  0  0  0  0  0  0  0
  140.9140   77.1540  220.2430 C   0  0  2  0  0  0  0  0  0  0  0  0
  141.3360   78.2020  221.1990 C   0  0  0  0  0  0  0  0  0  0  0  0
  141.6990   79.4410  220.7880 N   0  0  0  0  0  0  0  0  0  0  0  0
  142.0860   80.4050  221.6550 C   0  0  0  0  0  0  0  0  0  0  0  0
  142.1100   80.1140  223.0050 C   0  0  0  0  0  0  0  0  0  0  0  0
  142.5940   81.2850  224.2160 Cl  0  0  0  0  0  0  0  0  0  0  0  0
  141.7340   78.8400  223.4110 C   0  0  0  0  0  0  0  0  0  0  0  0
  141.3540   77.9050  222.5130 N   0  0  0  0  0  0  0  0  0  0  0  0
  140.1480   71.3100  223.4440 C   0  0  0  0  0  0  0  0  0  0  0  0
  139.5590   70.0670  223.3720 C   0  0  0  0  0  0  0  0  0  0  0  0
  139.4000   69.2720  224.4740 C   0  0  0  0  0  0  0  0  0  0  0  0
  139.8510   69.7510  225.6820 C   0  0  0  0  0  0  0  0  0  0  0  0
  139.6990   68.9640  226.8020 C   0  0  0  0  0  0  0  0  0  0  0  0
  140.1580   69.4620  228.0000 C   0  0  0  0  0  0  0  0  0  0  0  0
  140.0240   68.7150  229.1170 F   0  0  0  0  0  0  0  0  0  0  0  0
  140.7380   70.6980  228.0370 C   0  0  0  0  0  0  0  0  0  0  0  0
  140.9050   71.5110  226.9360 C   0  0  0  0  0  0  0  0  0  0  0  0
  140.4420   71.0090  225.7240 C   0  0  0  0  0  0  0  0  0  0  0  0
  140.5860   71.7710  224.6240 N   0  0  0  0  0  0  0  0  0  0  0  0
  139.5230   73.9100  223.0870 H   0  0  0  0  0  0  0  0  0  0  0  0
  139.7377   73.5747  220.1189 H   0  0  0  0  0  0  0  0  0  0  0  0
  139.3493   75.0932  220.9961 H   0  0  0  0  0  0  0  0  0  0  0  0
  143.7236   76.6301  220.4993 H   0  0  0  0  0  0  0  0  0  0  0  0
  143.5173   75.4010  219.2657 H   0  0  0  0  0  0  0  0  0  0  0  0
  143.2479   78.2897  219.0018 H   0  0  0  0  0  0  0  0  0  0  0  0
  143.0330   77.0868  217.7167 H   0  0  0  0  0  0  0  0  0  0  0  0
  140.9383   78.6433  218.6344 H   0  0  0  0  0  0  0  0  0  0  0  0
  140.6252   77.0440  218.0367 H   0  0  0  0  0  0  0  0  0  0  0  0
  139.8587   76.9855  220.5035 H   0  0  0  0  0  0  0  0  0  0  0  0
  142.3761   81.4019  221.2915 H   0  0  0  0  0  0  0  0  0  0  0  0
  141.7458   78.5882  224.4817 H   0  0  0  0  0  0  0  0  0  0  0  0
  139.2050   69.7016  222.3967 H   0  0  0  0  0  0  0  0  0  0  0  0
  138.9269   68.2820  224.3965 H   0  0  0  0  0  0  0  0  0  0  0  0
  139.2273   67.9722  226.7411 H   0  0  0  0  0  0  0  0  0  0  0  0
  141.0953   71.0692  229.0089 H   0  0  0  0  0  0  0  0  0  0  0  0
  141.3779   72.5013  227.0117 H   0  0  0  0  0  0  0  0  0  0  0  0
  1  2  2  0
  2  3  1  0
  3  4  1  0
  4  5  1  0
  5  6  2  0
  5  7  1  0
  7  8  1  0
  8  9  1  0
  9 10  1  0
 10 11  1  0
 11 12  1  0
 12 13  2  0
 13 14  1  0
 14 15  2  0
 15 16  1  0
 15 17  1  0
 17 18  2  0
  2 19  1  0
 19 20  2  0
 20 21  1  0
 21 22  2  0
 22 23  1  0
 23 24  2  0
 24 25  1  0
 24 26  1  0
 26 27  2  0
 27 28  1  0
 28 29  2  0
 11  7  1  0
 18 12  1  0
 29 19  1  0
 28 22  1  0
  3 30  1  0
  4 31  1  0
  4 32  1  0
  8 33  1  0
  8 34  1  0
  9 35  1  0
  9 36  1  0
 10 37  1  0
 10 38  1  0
 11 39  1  6
 14 40  1  0
 17 41  1  0
 20 42  1  0
 21 43  1  0
 23 44  1  0
 26 45  1  0
 27 46  1  0
M  END
>  <smiles>  (21) 
O=C(NCC(=O)N1CCC[C@@H]1c1ncc(Cl)cn1)c1ccc2cc(F)ccc2n1

>  <score_type>  (21) 
oracle

>  <origin>  (21) 
autodockgpu

>  <m_score__min__energy>  (21) 
-8.6099999999999994

>  <m_primary>  (21) 
energy

>  <rmsd>  (21) 
2.245280663445066

>  <m_score__min__rmsd>  (21) 
2.245280663445066

>  <meeko>  (21) 
{"free_energy": -8.59, "intermolecular_energy": -10.08, "internal_energy": -1.34, "cluster_size": 36, "cluster_id": 1, "rank_in_cluster": 5}

>  <energy>  (21) 
-8.32

>  <cluster_rmsd>  (21) 
1.25

>  <cluster>  (21) 
1

$$$$

     RDKit          3D

 46 49  0  0  0  0  0  0  0  0999 V2000
  141.6190   73.5040  220.7650 O   0  0  0  0  0  0  0  0  0  0  0  0
  140.8730   74.2870  221.4300 C   0  0  0  0  0  0  0  0  0  0  0  0
  139.7760   73.7550  222.1920 N   0  0  0  0  0  0  0  0  0  0  0  0
  139.5610   72.3230  222.1700 C   0  0  0  0  0  0  0  0  0  0  0  0
  138.2430   72.0170  222.7330 C   0  0  0  0  0  0  0  0  0  0  0  0
  137.2770   72.8530  222.7210 O   0  0  0  0  0  0  0  0  0  0  0  0
  137.9480   70.7590  223.3360 N   0  0  0  0  0  0  0  0  0  0  0  0
  136.7190   70.5040  224.0690 C   0  0  0  0  0  0  0  0  0  0  0  0
  136.4980   69.0210  223.8780 C   0  0  0  0  0  0  0  0  0  0  0  0
  137.6510   68.5250  223.0000 C   0  0  0  0  0  0  0  0  0  0  0  0
  138.7400   69.5430  223.3570 C   0  0  2  0  0  0  0  0  0  0  0  0
  139.3250   69.2430  224.6830 C   0  0  0  0  0  0  0  0  0  0  0  0
  139.9710   70.1870  225.4090 N   0  0  0  0  0  0  0  0  0  0  0  0
  140.5090   69.9220  226.6230 C   0  0  0  0  0  0  0  0  0  0  0  0
  140.3950   68.6450  227.1350 C   0  0  0  0  0  0  0  0  0  0  0  0
  141.0520   68.1890  228.6950 Cl  0  0  0  0  0  0  0  0  0  0  0  0
  139.7290   67.6890  226.3790 C   0  0  0  0  0  0  0  0  0  0  0  0
  139.2060   67.9940  225.1720 N   0  0  0  0  0  0  0  0  0  0  0  0
  141.1080   75.7410  221.4400 C   0  0  0  0  0  0  0  0  0  0  0  0
  141.7470   76.2970  220.3550 C   0  0  0  0  0  0  0  0  0  0  0  0
  142.0100   77.6370  220.2720 C   0  0  0  0  0  0  0  0  0  0  0  0
  141.6120   78.4350  221.3200 C   0  0  0  0  0  0  0  0  0  0  0  0
  141.8690   79.7870  221.2540 C   0  0  0  0  0  0  0  0  0  0  0  0
  141.4620   80.5670  222.3120 C   0  0  0  0  0  0  0  0  0  0  0  0
  141.6990   81.8960  222.2780 F   0  0  0  0  0  0  0  0  0  0  0  0
  140.8300   79.9840  223.3730 C   0  0  0  0  0  0  0  0  0  0  0  0
  140.5580   78.6360  223.4710 C   0  0  0  0  0  0  0  0  0  0  0  0
  140.9680   77.8460  222.4020 C   0  0  0  0  0  0  0  0  0  0  0  0
  140.7220   76.5240  222.4580 N   0  0  0  0  0  0  0  0  0  0  0  0
  139.1590   74.4060  222.7420 H   0  0  0  0  0  0  0  0  0  0  0  0
  139.6092   71.9611  221.1324 H   0  0  0  0  0  0  0  0  0  0  0  0
  140.3391   71.8267  222.7686 H   0  0  0  0  0  0  0  0  0  0  0  0
  136.8380   70.7501  225.1345 H   0  0  0  0  0  0  0  0  0  0  0  0
  135.8740   71.1130  223.7153 H   0  0  0  0  0  0  0  0  0  0  0  0
  136.5101   68.5057  224.8498 H   0  0  0  0  0  0  0  0  0  0  0  0
  135.5232   68.8187  223.4103 H   0  0  0  0  0  0  0  0  0  0  0  0
  137.9511   67.5007  223.2660 H   0  0  0  0  0  0  0  0  0  0  0  0
  137.4150   68.4669  221.9272 H   0  0  0  0  0  0  0  0  0  0  0  0
  139.6183   69.5725  222.6953 H   0  0  0  0  0  0  0  0  0  0  0  0
  141.0270   70.7092  227.1904 H   0  0  0  0  0  0  0  0  0  0  0  0
  139.6258   66.6661  226.7701 H   0  0  0  0  0  0  0  0  0  0  0  0
  142.0565   75.6421  219.5271 H   0  0  0  0  0  0  0  0  0  0  0  0
  142.5226   78.0624  219.3966 H   0  0  0  0  0  0  0  0  0  0  0  0
  142.3815   80.2274  220.3860 H   0  0  0  0  0  0  0  0  0  0  0  0
  140.5173   80.6329  224.2044 H   0  0  0  0  0  0  0  0  0  0  0  0
  140.0454   78.2091  224.3456 H   0  0  0  0  0  0  0  0  0  0  0  0
  1  2  2  0
  2  3  1  0
  3  4  1  0
  4  5  1  0
  5  6  2  0
  5  7  1  0
  7  8  1  0
  8  9  1  0
  9 10  1  0
 10 11  1  0
 11 12  1  0
 12 13  2  0
 13 14  1  0
 14 15  2  0
 15 16  1  0
 15 17  1  0
 17 18  2  0
  2 19  1  0
 19 20  2  0
 20 21  1  0
 21 22  2  0
 22 23  1  0
 23 24  2  0
 24 25  1  0
 24 26  1  0
 26 27  2  0
 27 28  1  0
 28 29  2  0
 11  7  1  0
 18 12  1  0
 29 19  1  0
 28 22  1  0
  3 30  1  0
  4 31  1  0
  4 32  1  0
  8 33  1  0
  8 34  1  0
  9 35  1  0
  9 36  1  0
 10 37  1  0
 10 38  1  0
 11 39  1  6
 14 40  1  0
 17 41  1  0
 20 42  1  0
 21 43  1  0
 23 44  1  0
 26 45  1  0
 27 46  1  0
M  END
>  <smiles>  (22) 
O=C(NCC(=O)N1CCC[C@@H]1c1ncc(Cl)cn1)c1ccc2cc(F)ccc2n1

>  <score_type>  (22) 
oracle

>  <origin>  (22) 
autodockgpu

>  <m_score__min__energy>  (22) 
-8.6099999999999994

>  <m_primary>  (22) 
energy

>  <rmsd>  (22) 
9.29617565391575

>  <m_score__min__rmsd>  (22) 
9.29617565391575

>  <meeko>  (22) 
{"free_energy": -7.88, "intermolecular_energy": -9.38, "internal_energy": -1.72, "cluster_size": 8, "cluster_id": 2, "rank_in_cluster": 7}

>  <energy>  (22) 
-8.31

>  <cluster_rmsd>  (22) 
0.38

>  <cluster>  (22) 
1

$$$$

     RDKit          3D

 46 49  0  0  0  0  0  0  0  0999 V2000
  138.3360   70.6730  221.8850 O   0  0  0  0  0  0  0  0  0  0  0  0
  138.9430   71.1810  222.8780 C   0  0  0  0  0  0  0  0  0  0  0  0
  139.3170   72.5690  222.8550 N   0  0  0  0  0  0  0  0  0  0  0  0
  138.9820   73.3450  221.6790 C   0  0  0  0  0  0  0  0  0  0  0  0
  139.8760   74.5030  221.5880 C   0  0  0  0  0  0  0  0  0  0  0  0
  141.1470   74.4030  221.6740 O   0  0  0  0  0  0  0  0  0  0  0  0
  139.3850   75.8280  221.3950 N   0  0  0  0  0  0  0  0  0  0  0  0
  139.4400   76.5110  220.1130 C   0  0  0  0  0  0  0  0  0  0  0  0
  138.2570   77.4510  220.1660 C   0  0  0  0  0  0  0  0  0  0  0  0
  137.5780   77.2110  221.5170 C   0  0  0  0  0  0  0  0  0  0  0  0
  138.7680   76.7270  222.3530 C   0  0  2  0  0  0  0  0  0  0  0  0
  139.6360   77.8630  222.7390 C   0  0  0  0  0  0  0  0  0  0  0  0
  139.1220   79.0620  223.1030 N   0  0  0  0  0  0  0  0  0  0  0  0
  139.9060   80.1060  223.4580 C   0  0  0  0  0  0  0  0  0  0  0  0
  141.2770   79.9410  223.4470 C   0  0  0  0  0  0  0  0  0  0  0  0
  142.3880   81.2240  223.8870 Cl  0  0  0  0  0  0  0  0  0  0  0  0
  141.7880   78.7050  223.0720 C   0  0  0  0  0  0  0  0  0  0  0  0
  140.9710   77.6880  222.7250 N   0  0  0  0  0  0  0  0  0  0  0  0
  139.2750   70.3740  224.0650 C   0  0  0  0  0  0  0  0  0  0  0  0
  138.9390   69.0380  224.0500 C   0  0  0  0  0  0  0  0  0  0  0  0
  139.2050   68.2080  225.1030 C   0  0  0  0  0  0  0  0  0  0  0  0
  139.8320   68.7470  226.2030 C   0  0  0  0  0  0  0  0  0  0  0  0
  140.1080   67.9260  227.2740 C   0  0  0  0  0  0  0  0  0  0  0  0
  140.7350   68.4860  228.3630 C   0  0  0  0  0  0  0  0  0  0  0  0
  141.0210   67.7070  229.4290 F   0  0  0  0  0  0  0  0  0  0  0  0
  141.0560   69.8130  228.3460 C   0  0  0  0  0  0  0  0  0  0  0  0
  140.7930   70.6620  227.2930 C   0  0  0  0  0  0  0  0  0  0  0  0
  140.1600   70.0980  226.1900 C   0  0  0  0  0  0  0  0  0  0  0  0
  139.8850   70.8930  225.1390 N   0  0  0  0  0  0  0  0  0  0  0  0
  139.8200   72.9870  223.6790 H   0  0  0  0  0  0  0  0  0  0  0  0
  139.0988   72.7199  220.7815 H   0  0  0  0  0  0  0  0  0  0  0  0
  137.9401   73.6904  221.7516 H   0  0  0  0  0  0  0  0  0  0  0  0
  140.3817   77.0691  220.0044 H   0  0  0  0  0  0  0  0  0  0  0  0
  139.4026   75.8213  219.2569 H   0  0  0  0  0  0  0  0  0  0  0  0
  138.5961   78.4947  220.0902 H   0  0  0  0  0  0  0  0  0  0  0  0
  137.5635   77.2685  219.3319 H   0  0  0  0  0  0  0  0  0  0  0  0
  137.1472   78.1376  221.9241 H   0  0  0  0  0  0  0  0  0  0  0  0
  136.7299   76.5113  221.4831 H   0  0  0  0  0  0  0  0  0  0  0  0
  138.5284   76.2541  223.3168 H   0  0  0  0  0  0  0  0  0  0  0  0
  139.4597   81.0681  223.7499 H   0  0  0  0  0  0  0  0  0  0  0  0
  142.8772   78.5523  223.0576 H   0  0  0  0  0  0  0  0  0  0  0  0
  138.4399   68.6254  223.1608 H   0  0  0  0  0  0  0  0  0  0  0  0
  138.9270   67.1442  225.0721 H   0  0  0  0  0  0  0  0  0  0  0  0
  139.8366   66.8601  227.2591 H   0  0  0  0  0  0  0  0  0  0  0  0
  141.5575   70.2318  229.2309 H   0  0  0  0  0  0  0  0  0  0  0  0
  141.0683   71.7266  227.3229 H   0  0  0  0  0  0  0  0  0  0  0  0
  1  2  2  0
  2  3  1  0
  3  4  1  0
  4  5  1  0
  5  6  2  0
  5  7  1  0
  7  8  1  0
  8  9  1  0
  9 10  1  0
 10 11  1  0
 11 12  1  0
 12 13  2  0
 13 14  1  0
 14 15  2  0
 15 16  1  0
 15 17  1  0
 17 18  2  0
  2 19  1  0
 19 20  2  0
 20 21  1  0
 21 22  2  0
 22 23  1  0
 23 24  2  0
 24 25  1  0
 24 26  1  0
 26 27  2  0
 27 28  1  0
 28 29  2  0
 11  7  1  0
 18 12  1  0
 29 19  1  0
 28 22  1  0
  3 30  1  0
  4 31  1  0
  4 32  1  0
  8 33  1  0
  8 34  1  0
  9 35  1  0
  9 36  1  0
 10 37  1  0
 10 38  1  0
 11 39  1  1
 14 40  1  0
 17 41  1  0
 20 42  1  0
 21 43  1  0
 23 44  1  0
 26 45  1  0
 27 46  1  0
M  END
>  <smiles>  (23) 
O=C(NCC(=O)N1CCC[C@@H]1c1ncc(Cl)cn1)c1ccc2cc(F)ccc2n1

>  <score_type>  (23) 
oracle

>  <origin>  (23) 
autodockgpu

>  <m_score__min__energy>  (23) 
-8.6099999999999994

>  <m_primary>  (23) 
energy

>  <rmsd>  (23) 
2.3716038455346915

>  <m_score__min__rmsd>  (23) 
2.3716038455346915

>  <meeko>  (23) 
{"free_energy": -8.11, "intermolecular_energy": -9.6, "internal_energy": -1.57, "cluster_size": 36, "cluster_id": 1, "rank_in_cluster": 28}

>  <energy>  (23) 
-8.29

>  <cluster_rmsd>  (23) 
1.22

>  <cluster>  (23) 
1

$$$$

     RDKit          3D

 46 49  0  0  0  0  0  0  0  0999 V2000
  139.9440   73.6360  222.6890 O   0  0  0  0  0  0  0  0  0  0  0  0
  139.9440   72.3740  222.5500 C   0  0  0  0  0  0  0  0  0  0  0  0
  139.8840   71.7990  221.2340 N   0  0  0  0  0  0  0  0  0  0  0  0
  139.8250   72.6970  220.1000 C   0  0  0  0  0  0  0  0  0  0  0  0
  141.1480   72.7780  219.4720 C   0  0  0  0  0  0  0  0  0  0  0  0
  141.5470   71.9420  218.5920 O   0  0  0  0  0  0  0  0  0  0  0  0
  142.0840   73.8010  219.8050 N   0  0  0  0  0  0  0  0  0  0  0  0
  143.1890   73.5900  220.7260 C   0  0  0  0  0  0  0  0  0  0  0  0
  144.2410   74.5600  220.2400 C   0  0  0  0  0  0  0  0  0  0  0  0
  143.6430   75.2650  219.0180 C   0  0  0  0  0  0  0  0  0  0  0  0
  142.1460   75.1740  219.3400 C   0  0  2  0  0  0  0  0  0  0  0  0
  141.7710   76.1650  220.3750 C   0  0  0  0  0  0  0  0  0  0  0  0
  141.0670   75.8140  221.4780 N   0  0  0  0  0  0  0  0  0  0  0  0
  140.7200   76.7120  222.4290 C   0  0  0  0  0  0  0  0  0  0  0  0
  141.0960   78.0300  222.2670 C   0  0  0  0  0  0  0  0  0  0  0  0
  140.7010   79.2770  223.4330 Cl  0  0  0  0  0  0  0  0  0  0  0  0
  141.8180   78.3740  221.1300 C   0  0  0  0  0  0  0  0  0  0  0  0
  142.1450   77.4470  220.2040 N   0  0  0  0  0  0  0  0  0  0  0  0
  140.0040   71.4770  223.7170 C   0  0  0  0  0  0  0  0  0  0  0  0
  139.5280   70.1930  223.5690 C   0  0  0  0  0  0  0  0  0  0  0  0
  139.5420   69.2880  224.5940 C   0  0  0  0  0  0  0  0  0  0  0  0
  140.0530   69.6970  225.8050 C   0  0  0  0  0  0  0  0  0  0  0  0
  140.0750   68.7980  226.8490 C   0  0  0  0  0  0  0  0  0  0  0  0
  140.5910   69.2280  228.0500 C   0  0  0  0  0  0  0  0  0  0  0  0
  140.6260   68.3710  229.0930 F   0  0  0  0  0  0  0  0  0  0  0  0
  141.0550   70.5070  228.1640 C   0  0  0  0  0  0  0  0  0  0  0  0
  141.0480   71.4300  227.1410 C   0  0  0  0  0  0  0  0  0  0  0  0
  140.5270   70.9980  225.9250 C   0  0  0  0  0  0  0  0  0  0  0  0
  140.5010   71.8690  224.8990 N   0  0  0  0  0  0  0  0  0  0  0  0
  139.8840   70.7520  221.1220 H   0  0  0  0  0  0  0  0  0  0  0  0
  139.0949   72.3181  219.3697 H   0  0  0  0  0  0  0  0  0  0  0  0
  139.5181   73.6973  220.4396 H   0  0  0  0  0  0  0  0  0  0  0  0
  142.8894   73.8195  221.7592 H   0  0  0  0  0  0  0  0  0  0  0  0
  143.5409   72.5479  220.7425 H   0  0  0  0  0  0  0  0  0  0  0  0
  144.4755   75.2930  221.0259 H   0  0  0  0  0  0  0  0  0  0  0  0
  145.1765   74.0408  219.9844 H   0  0  0  0  0  0  0  0  0  0  0  0
  143.9796   76.3099  218.9481 H   0  0  0  0  0  0  0  0  0  0  0  0
  143.9293   74.8243  218.0517 H   0  0  0  0  0  0  0  0  0  0  0  0
  141.4530   75.3961  218.5152 H   0  0  0  0  0  0  0  0  0  0  0  0
  140.1488   76.3973  223.3148 H   0  0  0  0  0  0  0  0  0  0  0  0
  142.1282   79.4189  220.9821 H   0  0  0  0  0  0  0  0  0  0  0  0
  139.1230   69.8853  222.5936 H   0  0  0  0  0  0  0  0  0  0  0  0
  139.1576   68.2667  224.4554 H   0  0  0  0  0  0  0  0  0  0  0  0
  139.6938   67.7734  226.7268 H   0  0  0  0  0  0  0  0  0  0  0  0
  141.4612   70.8213  229.1367 H   0  0  0  0  0  0  0  0  0  0  0  0
  141.4328   72.4514  227.2778 H   0  0  0  0  0  0  0  0  0  0  0  0
  1  2  2  0
  2  3  1  0
  3  4  1  0
  4  5  1  0
  5  6  2  0
  5  7  1  0
  7  8  1  0
  8  9  1  0
  9 10  1  0
 10 11  1  0
 11 12  1  0
 12 13  2  0
 13 14  1  0
 14 15  2  0
 15 16  1  0
 15 17  1  0
 17 18  2  0
  2 19  1  0
 19 20  2  0
 20 21  1  0
 21 22  2  0
 22 23  1  0
 23 24  2  0
 24 25  1  0
 24 26  1  0
 26 27  2  0
 27 28  1  0
 28 29  2  0
 11  7  1  0
 18 12  1  0
 29 19  1  0
 28 22  1  0
  3 30  1  0
  4 31  1  0
  4 32  1  0
  8 33  1  0
  8 34  1  0
  9 35  1  0
  9 36  1  0
 10 37  1  0
 10 38  1  0
 11 39  1  6
 14 40  1  0
 17 41  1  0
 20 42  1  0
 21 43  1  0
 23 44  1  0
 26 45  1  0
 27 46  1  0
M  END
>  <smiles>  (24) 
O=C(NCC(=O)N1CCC[C@@H]1c1ncc(Cl)cn1)c1ccc2cc(F)ccc2n1

>  <score_type>  (24) 
oracle

>  <origin>  (24) 
autodockgpu

>  <m_score__min__energy>  (24) 
-8.6099999999999994

>  <m_primary>  (24) 
energy

>  <rmsd>  (24) 
2.770705408699375

>  <m_score__min__rmsd>  (24) 
2.770705408699375

>  <meeko>  (24) 
{"free_energy": -7.89, "intermolecular_energy": -9.38, "internal_energy": -1.6, "cluster_size": 36, "cluster_id": 1, "rank_in_cluster": 34}

>  <energy>  (24) 
-8.26

>  <cluster_rmsd>  (24) 
1.16

>  <cluster>  (24) 
1

$$$$

     RDKit          3D

 46 49  0  0  0  0  0  0  0  0999 V2000
  138.5520   72.5470  222.1560 O   0  0  0  0  0  0  0  0  0  0  0  0
  139.6800   72.2950  222.6830 C   0  0  0  0  0  0  0  0  0  0  0  0
  140.8680   72.9150  222.1610 N   0  0  0  0  0  0  0  0  0  0  0  0
  140.7280   73.8170  221.0370 C   0  0  0  0  0  0  0  0  0  0  0  0
  141.9980   74.5130  220.8080 C   0  0  0  0  0  0  0  0  0  0  0  0
  143.1320   73.9770  221.0500 O   0  0  0  0  0  0  0  0  0  0  0  0
  142.0530   75.8430  220.2970 N   0  0  0  0  0  0  0  0  0  0  0  0
  143.1990   76.3610  219.5670 C   0  0  0  0  0  0  0  0  0  0  0  0
  142.5920   77.4000  218.6520 C   0  0  0  0  0  0  0  0  0  0  0  0
  141.0850   77.3830  218.9240 C   0  0  0  0  0  0  0  0  0  0  0  0
  141.0630   76.9000  220.3790 C   0  0  2  0  0  0  0  0  0  0  0  0
  141.4430   77.9940  221.3010 C   0  0  0  0  0  0  0  0  0  0  0  0
  141.8150   79.2150  220.8470 N   0  0  0  0  0  0  0  0  0  0  0  0
  142.1630   80.2210  221.6820 C   0  0  0  0  0  0  0  0  0  0  0  0
  142.1390   79.9930  223.0430 C   0  0  0  0  0  0  0  0  0  0  0  0
  142.5700   81.2220  224.2160 Cl  0  0  0  0  0  0  0  0  0  0  0  0
  141.7550   78.7360  223.4940 C   0  0  0  0  0  0  0  0  0  0  0  0
  141.4140   77.7580  222.6270 N   0  0  0  0  0  0  0  0  0  0  0  0
  139.8010   71.3740  223.8260 C   0  0  0  0  0  0  0  0  0  0  0  0
  139.3080   70.0970  223.6790 C   0  0  0  0  0  0  0  0  0  0  0  0
  139.3740   69.1700  224.6830 C   0  0  0  0  0  0  0  0  0  0  0  0
  139.9570   69.5510  225.8700 C   0  0  0  0  0  0  0  0  0  0  0  0
  140.0320   68.6310  226.8930 C   0  0  0  0  0  0  0  0  0  0  0  0
  140.6200   69.0320  228.0710 C   0  0  0  0  0  0  0  0  0  0  0  0
  140.7090   68.1530  229.0930 F   0  0  0  0  0  0  0  0  0  0  0  0
  141.0990   70.3050  228.1840 C   0  0  0  0  0  0  0  0  0  0  0  0
  141.0400   71.2490  227.1810 C   0  0  0  0  0  0  0  0  0  0  0  0
  140.4460   70.8460  225.9900 C   0  0  0  0  0  0  0  0  0  0  0  0
  140.3680   71.7380  224.9850 N   0  0  0  0  0  0  0  0  0  0  0  0
  141.8010   72.7050  222.5990 H   0  0  0  0  0  0  0  0  0  0  0  0
  140.4568   73.2436  220.1383 H   0  0  0  0  0  0  0  0  0  0  0  0
  139.9401   74.5534  221.2536 H   0  0  0  0  0  0  0  0  0  0  0  0
  143.9282   76.8179  220.2522 H   0  0  0  0  0  0  0  0  0  0  0  0
  143.7503   75.5797  219.0232 H   0  0  0  0  0  0  0  0  0  0  0  0
  143.0082   78.3936  218.8746 H   0  0  0  0  0  0  0  0  0  0  0  0
  142.8107   77.1805  217.5965 H   0  0  0  0  0  0  0  0  0  0  0  0
  140.6438   78.3856  218.8232 H   0  0  0  0  0  0  0  0  0  0  0  0
  140.5029   76.7610  218.2281 H   0  0  0  0  0  0  0  0  0  0  0  0
  140.0898   76.5679  220.7696 H   0  0  0  0  0  0  0  0  0  0  0  0
  142.4596   81.2025  221.2836 H   0  0  0  0  0  0  0  0  0  0  0  0
  141.7283   78.5341  224.5750 H   0  0  0  0  0  0  0  0  0  0  0  0
  138.8456   69.8125  222.7223 H   0  0  0  0  0  0  0  0  0  0  0  0
  138.9745   68.1543  224.5461 H   0  0  0  0  0  0  0  0  0  0  0  0
  139.6359   67.6119  226.7724 H   0  0  0  0  0  0  0  0  0  0  0  0
  141.5625   70.5969  229.1379 H   0  0  0  0  0  0  0  0  0  0  0  0
  141.4406   72.2646  227.3154 H   0  0  0  0  0  0  0  0  0  0  0  0
  1  2  2  0
  2  3  1  0
  3  4  1  0
  4  5  1  0
  5  6  2  0
  5  7  1  0
  7  8  1  0
  8  9  1  0
  9 10  1  0
 10 11  1  0
 11 12  1  0
 12 13  2  0
 13 14  1  0
 14 15  2  0
 15 16  1  0
 15 17  1  0
 17 18  2  0
  2 19  1  0
 19 20  2  0
 20 21  1  0
 21 22  2  0
 22 23  1  0
 23 24  2  0
 24 25  1  0
 24 26  1  0
 26 27  2  0
 27 28  1  0
 28 29  2  0
 11  7  1  0
 18 12  1  0
 29 19  1  0
 28 22  1  0
  3 30  1  0
  4 31  1  0
  4 32  1  0
  8 33  1  0
  8 34  1  0
  9 35  1  0
  9 36  1  0
 10 37  1  0
 10 38  1  0
 11 39  1  1
 14 40  1  0
 17 41  1  0
 20 42  1  0
 21 43  1  0
 23 44  1  0
 26 45  1  0
 27 46  1  0
M  END
>  <smiles>  (25) 
O=C(NCC(=O)N1CCC[C@@H]1c1ncc(Cl)cn1)c1ccc2cc(F)ccc2n1

>  <score_type>  (25) 
oracle

>  <origin>  (25) 
autodockgpu

>  <m_score__min__energy>  (25) 
-8.6099999999999994

>  <m_primary>  (25) 
energy

>  <rmsd>  (25) 
2.3925830665381986

>  <m_score__min__rmsd>  (25) 
2.3925830665381986

>  <meeko>  (25) 
{"free_energy": -8.05, "intermolecular_energy": -9.54, "internal_energy": -1.57, "cluster_size": 36, "cluster_id": 1, "rank_in_cluster": 31}

>  <energy>  (25) 
-8.23

>  <cluster_rmsd>  (25) 
1.49

>  <cluster>  (25) 
1

$$$$

     RDKit          3D

 46 49  0  0  0  0  0  0  0  0999 V2000
  139.8200   73.5220  222.7050 O   0  0  0  0  0  0  0  0  0  0  0  0
  140.3160   72.3540  222.6680 C   0  0  0  0  0  0  0  0  0  0  0  0
  140.9680   71.8910  221.4740 N   0  0  0  0  0  0  0  0  0  0  0  0
  141.0340   72.7900  220.3410 C   0  0  0  0  0  0  0  0  0  0  0  0
  142.3090   73.5130  220.3650 C   0  0  0  0  0  0  0  0  0  0  0  0
  143.3900   72.9930  220.8030 O   0  0  0  0  0  0  0  0  0  0  0  0
  142.4290   74.8550  219.8980 N   0  0  0  0  0  0  0  0  0  0  0  0
  143.7030   75.4540  219.5360 C   0  0  0  0  0  0  0  0  0  0  0  0
  143.3250   76.4770  218.4890 C   0  0  0  0  0  0  0  0  0  0  0  0
  141.8080   76.3680  218.3110 C   0  0  0  0  0  0  0  0  0  0  0  0
  141.3940   75.8520  219.6940 C   0  0  2  0  0  0  0  0  0  0  0  0
  141.4220   76.9460  220.6920 C   0  0  0  0  0  0  0  0  0  0  0  0
  141.7940   78.2060  220.3610 N   0  0  0  0  0  0  0  0  0  0  0  0
  141.8230   79.2110  221.2660 C   0  0  0  0  0  0  0  0  0  0  0  0
  141.4610   78.9410  222.5710 C   0  0  0  0  0  0  0  0  0  0  0  0
  141.4620   80.1650  223.8260 Cl  0  0  0  0  0  0  0  0  0  0  0  0
  141.0820   77.6440  222.8940 C   0  0  0  0  0  0  0  0  0  0  0  0
  141.0660   76.6680  221.9610 N   0  0  0  0  0  0  0  0  0  0  0  0
  140.2390   71.4540  223.8320 C   0  0  0  0  0  0  0  0  0  0  0  0
  139.6530   70.2210  223.6550 C   0  0  0  0  0  0  0  0  0  0  0  0
  139.5350   69.3170  224.6750 C   0  0  0  0  0  0  0  0  0  0  0  0
  140.0250   69.6750  225.9100 C   0  0  0  0  0  0  0  0  0  0  0  0
  139.9150   68.7770  226.9490 C   0  0  0  0  0  0  0  0  0  0  0  0
  140.4120   69.1550  228.1750 C   0  0  0  0  0  0  0  0  0  0  0  0
  140.3190   68.2970  229.2140 F   0  0  0  0  0  0  0  0  0  0  0  0
  140.9870   70.3850  228.3170 C   0  0  0  0  0  0  0  0  0  0  0  0
  141.1130   71.3060  227.3000 C   0  0  0  0  0  0  0  0  0  0  0  0
  140.6120   70.9260  226.0590 C   0  0  0  0  0  0  0  0  0  0  0  0
  140.7150   71.7970  225.0380 N   0  0  0  0  0  0  0  0  0  0  0  0
  141.3790   70.9220  221.4460 H   0  0  0  0  0  0  0  0  0  0  0  0
  140.9581   72.2112  219.4087 H   0  0  0  0  0  0  0  0  0  0  0  0
  140.2034   73.5092  220.3945 H   0  0  0  0  0  0  0  0  0  0  0  0
  144.1724   75.9364  220.4060 H   0  0  0  0  0  0  0  0  0  0  0  0
  144.4353   74.7182  219.1724 H   0  0  0  0  0  0  0  0  0  0  0  0
  143.5973   77.4875  218.8278 H   0  0  0  0  0  0  0  0  0  0  0  0
  143.8533   76.2940  217.5417 H   0  0  0  0  0  0  0  0  0  0  0  0
  141.3547   77.3459  218.0912 H   0  0  0  0  0  0  0  0  0  0  0  0
  141.4921   75.7295  217.4729 H   0  0  0  0  0  0  0  0  0  0  0  0
  140.3717   75.4558  219.7835 H   0  0  0  0  0  0  0  0  0  0  0  0
  142.1293   80.2246  220.9679 H   0  0  0  0  0  0  0  0  0  0  0  0
  140.7898   77.4080  223.9279 H   0  0  0  0  0  0  0  0  0  0  0  0
  139.2668   69.9537  222.6603 H   0  0  0  0  0  0  0  0  0  0  0  0
  139.0639   68.3362  224.5132 H   0  0  0  0  0  0  0  0  0  0  0  0
  139.4463   67.7925  226.8035 H   0  0  0  0  0  0  0  0  0  0  0  0
  141.3754   70.6589  229.3090 H   0  0  0  0  0  0  0  0  0  0  0  0
  141.5836   72.2872  227.4604 H   0  0  0  0  0  0  0  0  0  0  0  0
  1  2  2  0
  2  3  1  0
  3  4  1  0
  4  5  1  0
  5  6  2  0
  5  7  1  0
  7  8  1  0
  8  9  1  0
  9 10  1  0
 10 11  1  0
 11 12  1  0
 12 13  2  0
 13 14  1  0
 14 15  2  0
 15 16  1  0
 15 17  1  0
 17 18  2  0
  2 19  1  0
 19 20  2  0
 20 21  1  0
 21 22  2  0
 22 23  1  0
 23 24  2  0
 24 25  1  0
 24 26  1  0
 26 27  2  0
 27 28  1  0
 28 29  2  0
 11  7  1  0
 18 12  1  0
 29 19  1  0
 28 22  1  0
  3 30  1  0
  4 31  1  0
  4 32  1  0
  8 33  1  0
  8 34  1  0
  9 35  1  0
  9 36  1  0
 10 37  1  0
 10 38  1  0
 11 39  1  6
 14 40  1  0
 17 41  1  0
 20 42  1  0
 21 43  1  0
 23 44  1  0
 26 45  1  0
 27 46  1  0
M  END
>  <smiles>  (26) 
O=C(NCC(=O)N1CCC[C@@H]1c1ncc(Cl)cn1)c1ccc2cc(F)ccc2n1

>  <score_type>  (26) 
oracle

>  <origin>  (26) 
autodockgpu

>  <m_score__min__energy>  (26) 
-8.6099999999999994

>  <m_primary>  (26) 
energy

>  <rmsd>  (26) 
2.633112170695474

>  <m_score__min__rmsd>  (26) 
2.633112170695474

>  <meeko>  (26) 
{"free_energy": -8.2, "intermolecular_energy": -9.69, "internal_energy": -1.42, "cluster_size": 36, "cluster_id": 1, "rank_in_cluster": 27}

>  <energy>  (26) 
-8.22

>  <cluster_rmsd>  (26) 
1.16

>  <cluster>  (26) 
1

$$$$

     RDKit          3D

 46 49  0  0  0  0  0  0  0  0999 V2000
  139.5250   70.5160  221.4720 O   0  0  0  0  0  0  0  0  0  0  0  0
  139.5460   71.1010  222.6000 C   0  0  0  0  0  0  0  0  0  0  0  0
  139.4340   72.5330  222.6650 N   0  0  0  0  0  0  0  0  0  0  0  0
  139.2990   73.2640  221.4220 C   0  0  0  0  0  0  0  0  0  0  0  0
  139.3970   74.7020  221.6890 C   0  0  0  0  0  0  0  0  0  0  0  0
  138.5250   75.3390  222.3700 O   0  0  0  0  0  0  0  0  0  0  0  0
  140.4790   75.4920  221.2010 N   0  0  0  0  0  0  0  0  0  0  0  0
  141.8530   75.0170  221.1730 C   0  0  0  0  0  0  0  0  0  0  0  0
  142.4600   75.7660  220.0080 C   0  0  0  0  0  0  0  0  0  0  0  0
  141.3390   76.6300  219.4230 C   0  0  0  0  0  0  0  0  0  0  0  0
  140.4630   76.8400  220.6640 C   0  0  2  0  0  0  0  0  0  0  0  0
  141.0680   77.8430  221.5700 C   0  0  0  0  0  0  0  0  0  0  0  0
  141.0710   77.6820  222.9140 N   0  0  0  0  0  0  0  0  0  0  0  0
  141.6210   78.5930  223.7500 C   0  0  0  0  0  0  0  0  0  0  0  0
  142.1990   79.7250  223.2100 C   0  0  0  0  0  0  0  0  0  0  0  0
  142.9410   80.9700  224.1960 Cl  0  0  0  0  0  0  0  0  0  0  0  0
  142.1890   79.8750  221.8290 C   0  0  0  0  0  0  0  0  0  0  0  0
  141.6290   78.9420  221.0300 N   0  0  0  0  0  0  0  0  0  0  0  0
  139.6840   70.3390  223.8520 C   0  0  0  0  0  0  0  0  0  0  0  0
  139.1800   69.0580  223.8860 C   0  0  0  0  0  0  0  0  0  0  0  0
  139.2600   68.2720  225.0030 C   0  0  0  0  0  0  0  0  0  0  0  0
  139.8700   68.8010  226.1170 C   0  0  0  0  0  0  0  0  0  0  0  0
  139.9600   68.0250  227.2520 C   0  0  0  0  0  0  0  0  0  0  0  0
  140.5740   68.5730  228.3540 C   0  0  0  0  0  0  0  0  0  0  0  0
  140.6780   67.8370  229.4820 F   0  0  0  0  0  0  0  0  0  0  0  0
  141.0640   69.8460  228.2880 C   0  0  0  0  0  0  0  0  0  0  0  0
  140.9910   70.6490  227.1700 C   0  0  0  0  0  0  0  0  0  0  0  0
  140.3710   70.0970  226.0540 C   0  0  0  0  0  0  0  0  0  0  0  0
  140.2780   70.8480  224.9410 N   0  0  0  0  0  0  0  0  0  0  0  0
  139.4520   73.0150  223.6010 H   0  0  0  0  0  0  0  0  0  0  0  0
  140.1004   72.9637  220.7309 H   0  0  0  0  0  0  0  0  0  0  0  0
  138.3219   73.0405  220.9689 H   0  0  0  0  0  0  0  0  0  0  0  0
  142.3728   75.2608  222.1113 H   0  0  0  0  0  0  0  0  0  0  0  0
  141.9273   73.9247  221.0664 H   0  0  0  0  0  0  0  0  0  0  0  0
  143.2894   76.4006  220.3535 H   0  0  0  0  0  0  0  0  0  0  0  0
  142.8664   75.0743  219.2554 H   0  0  0  0  0  0  0  0  0  0  0  0
  141.7242   77.5837  219.0329 H   0  0  0  0  0  0  0  0  0  0  0  0
  140.8160   76.1798  218.5664 H   0  0  0  0  0  0  0  0  0  0  0  0
  139.4521   77.2364  220.4879 H   0  0  0  0  0  0  0  0  0  0  0  0
  141.6079   78.4349  224.8385 H   0  0  0  0  0  0  0  0  0  0  0  0
  142.6451   80.7691  221.3789 H   0  0  0  0  0  0  0  0  0  0  0  0
  138.6967   68.6530  222.9847 H   0  0  0  0  0  0  0  0  0  0  0  0
  138.8503   67.2512  225.0102 H   0  0  0  0  0  0  0  0  0  0  0  0
  139.5548   67.0026  227.2759 H   0  0  0  0  0  0  0  0  0  0  0  0
  141.5486   70.2575  229.1857 H   0  0  0  0  0  0  0  0  0  0  0  0
  141.4004   71.6699  227.1609 H   0  0  0  0  0  0  0  0  0  0  0  0
  1  2  2  0
  2  3  1  0
  3  4  1  0
  4  5  1  0
  5  6  2  0
  5  7  1  0
  7  8  1  0
  8  9  1  0
  9 10  1  0
 10 11  1  0
 11 12  1  0
 12 13  2  0
 13 14  1  0
 14 15  2  0
 15 16  1  0
 15 17  1  0
 17 18  2  0
  2 19  1  0
 19 20  2  0
 20 21  1  0
 21 22  2  0
 22 23  1  0
 23 24  2  0
 24 25  1  0
 24 26  1  0
 26 27  2  0
 27 28  1  0
 28 29  2  0
 11  7  1  0
 18 12  1  0
 29 19  1  0
 28 22  1  0
  3 30  1  0
  4 31  1  0
  4 32  1  0
  8 33  1  0
  8 34  1  0
  9 35  1  0
  9 36  1  0
 10 37  1  0
 10 38  1  0
 11 39  1  6
 14 40  1  0
 17 41  1  0
 20 42  1  0
 21 43  1  0
 23 44  1  0
 26 45  1  0
 27 46  1  0
M  END
>  <smiles>  (27) 
O=C(NCC(=O)N1CCC[C@@H]1c1ncc(Cl)cn1)c1ccc2cc(F)ccc2n1

>  <score_type>  (27) 
oracle

>  <origin>  (27) 
autodockgpu

>  <m_score__min__energy>  (27) 
-8.6099999999999994

>  <m_primary>  (27) 
energy

>  <rmsd>  (27) 
1.933862717027009

>  <m_score__min__rmsd>  (27) 
1.933862717027009

>  <meeko>  (27) 
{"free_energy": -8.32, "intermolecular_energy": -9.81, "internal_energy": -1.5, "cluster_size": 36, "cluster_id": 1, "rank_in_cluster": 21}

>  <energy>  (27) 
-8.2

>  <cluster_rmsd>  (27) 
1.39

>  <cluster>  (27) 
1

$$$$

     RDKit          3D

 46 49  0  0  0  0  0  0  0  0999 V2000
  139.6170   73.7540  222.3790 O   0  0  0  0  0  0  0  0  0  0  0  0
  140.2200   72.6410  222.2810 C   0  0  0  0  0  0  0  0  0  0  0  0
  140.9580   72.3280  221.0870 N   0  0  0  0  0  0  0  0  0  0  0  0
  140.9830   73.3120  220.0250 C   0  0  0  0  0  0  0  0  0  0  0  0
  142.2490   74.0490  220.0720 C   0  0  0  0  0  0  0  0  0  0  0  0
  142.3050   75.3200  220.1860 O   0  0  0  0  0  0  0  0  0  0  0  0
  143.5130   73.3930  219.9930 N   0  0  0  0  0  0  0  0  0  0  0  0
  144.4970   73.6980  218.9670 C   0  0  0  0  0  0  0  0  0  0  0  0
  145.8140   73.3830  219.6400 C   0  0  0  0  0  0  0  0  0  0  0  0
  145.4710   72.9240  221.0600 C   0  0  0  0  0  0  0  0  0  0  0  0
  144.0640   72.3550  220.8440 C   0  0  2  0  0  0  0  0  0  0  0  0
  144.1280   71.0280  220.1910 C   0  0  0  0  0  0  0  0  0  0  0  0
  143.0350   70.2370  220.0690 N   0  0  0  0  0  0  0  0  0  0  0  0
  143.0850   69.0240  219.4730 C   0  0  0  0  0  0  0  0  0  0  0  0
  144.2930   68.5770  218.9740 C   0  0  0  0  0  0  0  0  0  0  0  0
  144.4740   67.0230  218.1830 Cl  0  0  0  0  0  0  0  0  0  0  0  0
  145.4040   69.4000  219.1060 C   0  0  0  0  0  0  0  0  0  0  0  0
  145.3130   70.6060  219.7080 N   0  0  0  0  0  0  0  0  0  0  0  0
  140.1820   71.6530  223.3740 C   0  0  0  0  0  0  0  0  0  0  0  0
  139.6360   70.4180  223.1070 C   0  0  0  0  0  0  0  0  0  0  0  0
  139.5560   69.4360  224.0560 C   0  0  0  0  0  0  0  0  0  0  0  0
  140.0450   69.7150  225.3110 C   0  0  0  0  0  0  0  0  0  0  0  0
  139.9730   68.7380  226.2800 C   0  0  0  0  0  0  0  0  0  0  0  0
  140.4690   69.0380  227.5280 C   0  0  0  0  0  0  0  0  0  0  0  0
  140.4130   68.1010  228.4990 F   0  0  0  0  0  0  0  0  0  0  0  0
  141.0050   70.2720  227.7600 C   0  0  0  0  0  0  0  0  0  0  0  0
  141.0920   71.2710  226.8140 C   0  0  0  0  0  0  0  0  0  0  0  0
  140.5920   70.9700  225.5520 C   0  0  0  0  0  0  0  0  0  0  0  0
  140.6580   71.9190  224.5990 N   0  0  0  0  0  0  0  0  0  0  0  0
  141.4570   71.4050  221.0100 H   0  0  0  0  0  0  0  0  0  0  0  0
  140.8896   72.8052  219.0532 H   0  0  0  0  0  0  0  0  0  0  0  0
  140.1454   74.0131  220.1547 H   0  0  0  0  0  0  0  0  0  0  0  0
  144.3480   73.0667  218.0786 H   0  0  0  0  0  0  0  0  0  0  0  0
  144.4356   74.7360  218.6080 H   0  0  0  0  0  0  0  0  0  0  0  0
  146.3376   72.5825  219.0968 H   0  0  0  0  0  0  0  0  0  0  0  0
  146.4771   74.2606  219.6523 H   0  0  0  0  0  0  0  0  0  0  0  0
  146.1696   72.1527  221.4163 H   0  0  0  0  0  0  0  0  0  0  0  0
  145.5311   73.7150  221.8220 H   0  0  0  0  0  0  0  0  0  0  0  0
  143.4704   72.1608  221.7495 H   0  0  0  0  0  0  0  0  0  0  0  0
  142.1801   68.4046  219.3872 H   0  0  0  0  0  0  0  0  0  0  0  0
  146.3751   69.0639  218.7135 H   0  0  0  0  0  0  0  0  0  0  0  0
  139.2512   70.2139  222.0969 H   0  0  0  0  0  0  0  0  0  0  0  0
  139.1151   68.4555  223.8231 H   0  0  0  0  0  0  0  0  0  0  0  0
  139.5344   67.7527  226.0635 H   0  0  0  0  0  0  0  0  0  0  0  0
  141.3928   70.4829  228.7675 H   0  0  0  0  0  0  0  0  0  0  0  0
  141.5326   72.2521  227.0448 H   0  0  0  0  0  0  0  0  0  0  0  0
  1  2  2  0
  2  3  1  0
  3  4  1  0
  4  5  1  0
  5  6  2  0
  5  7  1  0
  7  8  1  0
  8  9  1  0
  9 10  1  0
 10 11  1  0
 11 12  1  0
 12 13  2  0
 13 14  1  0
 14 15  2  0
 15 16  1  0
 15 17  1  0
 17 18  2  0
  2 19  1  0
 19 20  2  0
 20 21  1  0
 21 22  2  0
 22 23  1  0
 23 24  2  0
 24 25  1  0
 24 26  1  0
 26 27  2  0
 27 28  1  0
 28 29  2  0
 11  7  1  0
 18 12  1  0
 29 19  1  0
 28 22  1  0
  3 30  1  0
  4 31  1  0
  4 32  1  0
  8 33  1  0
  8 34  1  0
  9 35  1  0
  9 36  1  0
 10 37  1  0
 10 38  1  0
 11 39  1  1
 14 40  1  0
 17 41  1  0
 20 42  1  0
 21 43  1  0
 23 44  1  0
 26 45  1  0
 27 46  1  0
M  END
>  <smiles>  (28) 
O=C(NCC(=O)N1CCC[C@@H]1c1ncc(Cl)cn1)c1ccc2cc(F)ccc2n1

>  <score_type>  (28) 
oracle

>  <origin>  (28) 
autodockgpu

>  <m_score__min__energy>  (28) 
-8.6099999999999994

>  <m_primary>  (28) 
energy

>  <rmsd>  (28) 
5.681206429510166

>  <m_score__min__rmsd>  (28) 
5.681206429510166

>  <meeko>  (28) 
{"free_energy": -7.29, "intermolecular_energy": -8.78, "internal_energy": -2.08, "cluster_size": 5, "cluster_id": 3, "rank_in_cluster": 5}

>  <energy>  (28) 
-8.11

>  <cluster_rmsd>  (28) 
1.72

>  <cluster>  (28) 
1

$$$$

     RDKit          3D

 46 49  0  0  0  0  0  0  0  0999 V2000
  141.0770   71.5010  221.2070 O   0  0  0  0  0  0  0  0  0  0  0  0
  140.3860   72.0050  222.1460 C   0  0  0  0  0  0  0  0  0  0  0  0
  139.7780   73.2970  221.9740 N   0  0  0  0  0  0  0  0  0  0  0  0
  139.9820   73.9830  220.7150 C   0  0  0  0  0  0  0  0  0  0  0  0
  141.2730   74.6770  220.7410 C   0  0  0  0  0  0  0  0  0  0  0  0
  142.3340   74.1440  221.2100 O   0  0  0  0  0  0  0  0  0  0  0  0
  141.4310   76.0030  220.2410 N   0  0  0  0  0  0  0  0  0  0  0  0
  142.5940   76.4260  219.4770 C   0  0  0  0  0  0  0  0  0  0  0  0
  142.0530   77.5270  218.5940 C   0  0  0  0  0  0  0  0  0  0  0  0
  140.5600   77.6420  218.9170 C   0  0  0  0  0  0  0  0  0  0  0  0
  140.5430   77.1440  220.3670 C   0  0  2  0  0  0  0  0  0  0  0  0
  141.0500   78.1880  221.2860 C   0  0  0  0  0  0  0  0  0  0  0  0
  141.3820   79.4260  220.8480 N   0  0  0  0  0  0  0  0  0  0  0  0
  141.8470   80.3870  221.6800 C   0  0  0  0  0  0  0  0  0  0  0  0
  141.9870   80.0920  223.0220 C   0  0  0  0  0  0  0  0  0  0  0  0
  142.5780   81.2580  224.1900 Cl  0  0  0  0  0  0  0  0  0  0  0  0
  141.6410   78.8190  223.4560 C   0  0  0  0  0  0  0  0  0  0  0  0
  141.1810   77.8880  222.5930 N   0  0  0  0  0  0  0  0  0  0  0  0
  140.1920   71.2910  223.4190 C   0  0  0  0  0  0  0  0  0  0  0  0
  139.5130   70.0930  223.3880 C   0  0  0  0  0  0  0  0  0  0  0  0
  139.2830   69.3560  224.5180 C   0  0  0  0  0  0  0  0  0  0  0  0
  139.7550   69.8480  225.7130 C   0  0  0  0  0  0  0  0  0  0  0  0
  139.5320   69.1200  226.8600 C   0  0  0  0  0  0  0  0  0  0  0  0
  140.0140   69.6300  228.0440 C   0  0  0  0  0  0  0  0  0  0  0  0
  139.8120   68.9400  229.1870 F   0  0  0  0  0  0  0  0  0  0  0  0
  140.6830   70.8200  228.0410 C   0  0  0  0  0  0  0  0  0  0  0  0
  140.9220   71.5740  226.9120 C   0  0  0  0  0  0  0  0  0  0  0  0
  140.4370   71.0600  225.7130 C   0  0  0  0  0  0  0  0  0  0  0  0
  140.6500   71.7650  224.5870 N   0  0  0  0  0  0  0  0  0  0  0  0
  139.2060   73.7120  222.7540 H   0  0  0  0  0  0  0  0  0  0  0  0
  139.9752   73.2516  219.8934 H   0  0  0  0  0  0  0  0  0  0  0  0
  139.1751   74.7146  220.5608 H   0  0  0  0  0  0  0  0  0  0  0  0
  143.3838   76.8067  220.1412 H   0  0  0  0  0  0  0  0  0  0  0  0
  143.0541   75.6057  218.9066 H   0  0  0  0  0  0  0  0  0  0  0  0
  142.5642   78.4762  218.8122 H   0  0  0  0  0  0  0  0  0  0  0  0
  142.2158   77.3024  217.5295 H   0  0  0  0  0  0  0  0  0  0  0  0
  140.2079   78.6814  218.8414 H   0  0  0  0  0  0  0  0  0  0  0  0
  139.9013   77.0841  218.2352 H   0  0  0  0  0  0  0  0  0  0  0  0
  139.5574   76.8951  220.7874 H   0  0  0  0  0  0  0  0  0  0  0  0
  142.1083   81.3837  221.2948 H   0  0  0  0  0  0  0  0  0  0  0  0
  141.7435   78.5647  224.5213 H   0  0  0  0  0  0  0  0  0  0  0  0
  139.1433   69.7161  222.4230 H   0  0  0  0  0  0  0  0  0  0  0  0
  138.7385   68.4013  224.4723 H   0  0  0  0  0  0  0  0  0  0  0  0
  138.9878   68.1645  226.8312 H   0  0  0  0  0  0  0  0  0  0  0  0
  141.0558   71.2023  229.0027 H   0  0  0  0  0  0  0  0  0  0  0  0
  141.4659   72.5291  226.9563 H   0  0  0  0  0  0  0  0  0  0  0  0
  1  2  2  0
  2  3  1  0
  3  4  1  0
  4  5  1  0
  5  6  2  0
  5  7  1  0
  7  8  1  0
  8  9  1  0
  9 10  1  0
 10 11  1  0
 11 12  1  0
 12 13  2  0
 13 14  1  0
 14 15  2  0
 15 16  1  0
 15 17  1  0
 17 18  2  0
  2 19  1  0
 19 20  2  0
 20 21  1  0
 21 22  2  0
 22 23  1  0
 23 24  2  0
 24 25  1  0
 24 26  1  0
 26 27  2  0
 27 28  1  0
 28 29  2  0
 11  7  1  0
 18 12  1  0
 29 19  1  0
 28 22  1  0
  3 30  1  0
  4 31  1  0
  4 32  1  0
  8 33  1  0
  8 34  1  0
  9 35  1  0
  9 36  1  0
 10 37  1  0
 10 38  1  0
 11 39  1  1
 14 40  1  0
 17 41  1  0
 20 42  1  0
 21 43  1  0
 23 44  1  0
 26 45  1  0
 27 46  1  0
M  END
>  <smiles>  (29) 
O=C(NCC(=O)N1CCC[C@@H]1c1ncc(Cl)cn1)c1ccc2cc(F)ccc2n1

>  <score_type>  (29) 
oracle

>  <origin>  (29) 
autodockgpu

>  <m_score__min__energy>  (29) 
-8.6099999999999994

>  <m_primary>  (29) 
energy

>  <rmsd>  (29) 
2.1593110792439374

>  <m_score__min__rmsd>  (29) 
2.1593110792439374

>  <meeko>  (29) 
{"free_energy": -8.31, "intermolecular_energy": -9.81, "internal_energy": -1.27, "cluster_size": 36, "cluster_id": 1, "rank_in_cluster": 22}

>  <energy>  (29) 
-8.1

>  <cluster_rmsd>  (29) 
0.89

>  <cluster>  (29) 
1

$$$$

     RDKit          3D

 46 49  0  0  0  0  0  0  0  0999 V2000
  140.5380   71.5680  221.0990 O   0  0  0  0  0  0  0  0  0  0  0  0
  140.1720   72.1140  222.1860 C   0  0  0  0  0  0  0  0  0  0  0  0
  139.8440   73.5140  222.2090 N   0  0  0  0  0  0  0  0  0  0  0  0
  139.9480   74.2580  220.9710 C   0  0  0  0  0  0  0  0  0  0  0  0
  141.3520   74.6010  220.7240 C   0  0  0  0  0  0  0  0  0  0  0  0
  142.3050   73.7680  220.8890 O   0  0  0  0  0  0  0  0  0  0  0  0
  141.7490   75.8970  220.2800 N   0  0  0  0  0  0  0  0  0  0  0  0
  143.0890   76.1890  219.7960 C   0  0  0  0  0  0  0  0  0  0  0  0
  142.8700   77.3230  218.8210 C   0  0  0  0  0  0  0  0  0  0  0  0
  141.3630   77.5920  218.8060 C   0  0  0  0  0  0  0  0  0  0  0  0
  140.9750   77.1220  220.2130 C   0  0  2  0  0  0  0  0  0  0  0  0
  141.3690   78.1250  221.2280 C   0  0  0  0  0  0  0  0  0  0  0  0
  141.3560   77.8440  222.5530 N   0  0  0  0  0  0  0  0  0  0  0  0
  141.7150   78.7540  223.4880 C   0  0  0  0  0  0  0  0  0  0  0  0
  142.1070   80.0120  223.0750 C   0  0  0  0  0  0  0  0  0  0  0  0
  142.5920   81.2680  224.1970 Cl  0  0  0  0  0  0  0  0  0  0  0  0
  142.1160   80.2840  221.7130 C   0  0  0  0  0  0  0  0  0  0  0  0
  141.7500   79.3480  220.8110 N   0  0  0  0  0  0  0  0  0  0  0  0
  140.0730   71.3380  223.4340 C   0  0  0  0  0  0  0  0  0  0  0  0
  139.4810   70.0960  223.3750 C   0  0  0  0  0  0  0  0  0  0  0  0
  139.3430   69.3020  224.4810 C   0  0  0  0  0  0  0  0  0  0  0  0
  139.8200   69.7810  225.6790 C   0  0  0  0  0  0  0  0  0  0  0  0
  139.6900   68.9950  226.8030 C   0  0  0  0  0  0  0  0  0  0  0  0
  140.1740   69.4930  227.9900 C   0  0  0  0  0  0  0  0  0  0  0  0
  140.0620   68.7470  229.1100 F   0  0  0  0  0  0  0  0  0  0  0  0
  140.7550   70.7290  228.0150 C   0  0  0  0  0  0  0  0  0  0  0  0
  140.9010   71.5400  226.9100 C   0  0  0  0  0  0  0  0  0  0  0  0
  140.4130   71.0380  225.7080 C   0  0  0  0  0  0  0  0  0  0  0  0
  140.5350   71.8000  224.6050 N   0  0  0  0  0  0  0  0  0  0  0  0
  139.5410   73.9630  223.1110 H   0  0  0  0  0  0  0  0  0  0  0  0
  139.5690   73.6437  220.1409 H   0  0  0  0  0  0  0  0  0  0  0  0
  139.3528   75.1800  221.0459 H   0  0  0  0  0  0  0  0  0  0  0  0
  143.7463   76.5008  220.6211 H   0  0  0  0  0  0  0  0  0  0  0  0
  143.5795   75.3175  219.3379 H   0  0  0  0  0  0  0  0  0  0  0  0
  143.4137   78.2201  219.1519 H   0  0  0  0  0  0  0  0  0  0  0  0
  143.2399   77.0647  217.8178 H   0  0  0  0  0  0  0  0  0  0  0  0
  141.1436   78.6601  218.6608 H   0  0  0  0  0  0  0  0  0  0  0  0
  140.8185   77.0916  217.9917 H   0  0  0  0  0  0  0  0  0  0  0  0
  139.9009   76.9796  220.4025 H   0  0  0  0  0  0  0  0  0  0  0  0
  141.6949   78.4964  224.5572 H   0  0  0  0  0  0  0  0  0  0  0  0
  142.4267   81.2794  221.3629 H   0  0  0  0  0  0  0  0  0  0  0  0
  139.1069   69.7303  222.4074 H   0  0  0  0  0  0  0  0  0  0  0  0
  138.8662   68.3130  224.4142 H   0  0  0  0  0  0  0  0  0  0  0  0
  139.2157   68.0038  226.7527 H   0  0  0  0  0  0  0  0  0  0  0  0
  141.1307   71.1013  228.9795 H   0  0  0  0  0  0  0  0  0  0  0  0
  141.3771   72.5295  226.9751 H   0  0  0  0  0  0  0  0  0  0  0  0
  1  2  2  0
  2  3  1  0
  3  4  1  0
  4  5  1  0
  5  6  2  0
  5  7  1  0
  7  8  1  0
  8  9  1  0
  9 10  1  0
 10 11  1  0
 11 12  1  0
 12 13  2  0
 13 14  1  0
 14 15  2  0
 15 16  1  0
 15 17  1  0
 17 18  2  0
  2 19  1  0
 19 20  2  0
 20 21  1  0
 21 22  2  0
 22 23  1  0
 23 24  2  0
 24 25  1  0
 24 26  1  0
 26 27  2  0
 27 28  1  0
 28 29  2  0
 11  7  1  0
 18 12  1  0
 29 19  1  0
 28 22  1  0
  3 30  1  0
  4 31  1  0
  4 32  1  0
  8 33  1  0
  8 34  1  0
  9 35  1  0
  9 36  1  0
 10 37  1  0
 10 38  1  0
 11 39  1  6
 14 40  1  0
 17 41  1  0
 20 42  1  0
 21 43  1  0
 23 44  1  0
 26 45  1  0
 27 46  1  0
M  END
>  <smiles>  (30) 
O=C(NCC(=O)N1CCC[C@@H]1c1ncc(Cl)cn1)c1ccc2cc(F)ccc2n1

>  <score_type>  (30) 
oracle

>  <origin>  (30) 
autodockgpu

>  <m_score__min__energy>  (30) 
-8.6099999999999994

>  <m_primary>  (30) 
energy

>  <rmsd>  (30) 
2.0334041502630207

>  <m_score__min__rmsd>  (30) 
2.0334041502630207

>  <meeko>  (30) 
{"free_energy": -8.6, "intermolecular_energy": -10.09, "internal_energy": -1.34, "cluster_size": 36, "cluster_id": 1, "rank_in_cluster": 4}

>  <energy>  (30) 
-8.09

>  <cluster_rmsd>  (30) 
1.46

>  <cluster>  (30) 
1

$$$$

     RDKit          3D

 46 49  0  0  0  0  0  0  0  0999 V2000
  140.7530   71.7100  221.5470 O   0  0  0  0  0  0  0  0  0  0  0  0
  139.9010   71.8490  222.4790 C   0  0  0  0  0  0  0  0  0  0  0  0
  138.8610   72.8340  222.3550 N   0  0  0  0  0  0  0  0  0  0  0  0
  138.8250   73.6410  221.1530 C   0  0  0  0  0  0  0  0  0  0  0  0
  139.1130   75.0370  221.4940 C   0  0  0  0  0  0  0  0  0  0  0  0
  138.3180   75.7570  222.1870 O   0  0  0  0  0  0  0  0  0  0  0  0
  140.3090   75.6900  221.0720 N   0  0  0  0  0  0  0  0  0  0  0  0
  141.6260   75.0910  221.2090 C   0  0  0  0  0  0  0  0  0  0  0  0
  142.4100   75.7000  220.0690 C   0  0  0  0  0  0  0  0  0  0  0  0
  141.4390   76.6220  219.3250 C   0  0  0  0  0  0  0  0  0  0  0  0
  140.4740   76.9950  220.4580 C   0  0  2  0  0  0  0  0  0  0  0  0
  141.0860   77.9980  221.3590 C   0  0  0  0  0  0  0  0  0  0  0  0
  141.6420   79.1390  220.8860 N   0  0  0  0  0  0  0  0  0  0  0  0
  142.2030   80.0610  221.7020 C   0  0  0  0  0  0  0  0  0  0  0  0
  142.2090   79.8290  223.0630 C   0  0  0  0  0  0  0  0  0  0  0  0
  142.9070   80.9530  224.2120 Cl  0  0  0  0  0  0  0  0  0  0  0  0
  141.6350   78.6540  223.5320 C   0  0  0  0  0  0  0  0  0  0  0  0
  141.0850   77.7580  222.6840 N   0  0  0  0  0  0  0  0  0  0  0  0
  139.9550   71.0180  223.6930 C   0  0  0  0  0  0  0  0  0  0  0  0
  139.4390   69.7430  223.6250 C   0  0  0  0  0  0  0  0  0  0  0  0
  139.4440   68.8970  224.7000 C   0  0  0  0  0  0  0  0  0  0  0  0
  139.9880   69.3570  225.8770 C   0  0  0  0  0  0  0  0  0  0  0  0
  140.0010   68.5180  226.9690 C   0  0  0  0  0  0  0  0  0  0  0  0
  140.5500   68.9980  228.1360 C   0  0  0  0  0  0  0  0  0  0  0  0
  140.5780   68.1990  229.2260 F   0  0  0  0  0  0  0  0  0  0  0  0
  141.0540   70.2660  228.1710 C   0  0  0  0  0  0  0  0  0  0  0  0
  141.0560   71.1300  227.0970 C   0  0  0  0  0  0  0  0  0  0  0  0
  140.5020   70.6480  225.9160 C   0  0  0  0  0  0  0  0  0  0  0  0
  140.4840   71.4600  224.8430 N   0  0  0  0  0  0  0  0  0  0  0  0
  138.1570   72.9470  223.1290 H   0  0  0  0  0  0  0  0  0  0  0  0
  139.5797   73.2739  220.4419 H   0  0  0  0  0  0  0  0  0  0  0  0
  137.8270   73.5734  220.6953 H   0  0  0  0  0  0  0  0  0  0  0  0
  142.0767   75.3494  222.1786 H   0  0  0  0  0  0  0  0  0  0  0  0
  141.6028   73.9918  221.1744 H   0  0  0  0  0  0  0  0  0  0  0  0
  143.2616   76.2776  220.4579 H   0  0  0  0  0  0  0  0  0  0  0  0
  142.8153   74.9243  219.4027 H   0  0  0  0  0  0  0  0  0  0  0  0
  141.9508   77.5078  218.9207 H   0  0  0  0  0  0  0  0  0  0  0  0
  140.9576   76.1649  218.4479 H   0  0  0  0  0  0  0  0  0  0  0  0
  139.5273   77.4688  220.1592 H   0  0  0  0  0  0  0  0  0  0  0  0
  142.6463   80.9789  221.2885 H   0  0  0  0  0  0  0  0  0  0  0  0
  141.6283   78.4498  224.6129 H   0  0  0  0  0  0  0  0  0  0  0  0
  139.0086   69.3933  222.6750 H   0  0  0  0  0  0  0  0  0  0  0  0
  139.0267   67.8820  224.6258 H   0  0  0  0  0  0  0  0  0  0  0  0
  139.5873   67.5004  226.9105 H   0  0  0  0  0  0  0  0  0  0  0  0
  141.4867   70.6215  229.1178 H   0  0  0  0  0  0  0  0  0  0  0  0
  141.4730   72.1453  227.1701 H   0  0  0  0  0  0  0  0  0  0  0  0
  1  2  2  0
  2  3  1  0
  3  4  1  0
  4  5  1  0
  5  6  2  0
  5  7  1  0
  7  8  1  0
  8  9  1  0
  9 10  1  0
 10 11  1  0
 11 12  1  0
 12 13  2  0
 13 14  1  0
 14 15  2  0
 15 16  1  0
 15 17  1  0
 17 18  2  0
  2 19  1  0
 19 20  2  0
 20 21  1  0
 21 22  2  0
 22 23  1  0
 23 24  2  0
 24 25  1  0
 24 26  1  0
 26 27  2  0
 27 28  1  0
 28 29  2  0
 11  7  1  0
 18 12  1  0
 29 19  1  0
 28 22  1  0
  3 30  1  0
  4 31  1  0
  4 32  1  0
  8 33  1  0
  8 34  1  0
  9 35  1  0
  9 36  1  0
 10 37  1  0
 10 38  1  0
 11 39  1  6
 14 40  1  0
 17 41  1  0
 20 42  1  0
 21 43  1  0
 23 44  1  0
 26 45  1  0
 27 46  1  0
M  END
>  <smiles>  (31) 
O=C(NCC(=O)N1CCC[C@@H]1c1ncc(Cl)cn1)c1ccc2cc(F)ccc2n1

>  <score_type>  (31) 
oracle

>  <origin>  (31) 
autodockgpu

>  <m_score__min__energy>  (31) 
-8.6099999999999994

>  <m_primary>  (31) 
energy

>  <rmsd>  (31) 
2.111278011671945

>  <m_score__min__rmsd>  (31) 
2.111278011671945

>  <meeko>  (31) 
{"free_energy": -8.46, "intermolecular_energy": -9.96, "internal_energy": -1.43, "cluster_size": 36, "cluster_id": 1, "rank_in_cluster": 15}

>  <energy>  (31) 
-8.05

>  <cluster_rmsd>  (31) 
0.83

>  <cluster>  (31) 
1

$$$$

     RDKit          3D

 46 49  0  0  0  0  0  0  0  0999 V2000
  138.1380   71.9490  222.7840 O   0  0  0  0  0  0  0  0  0  0  0  0
  139.3100   71.5220  223.0240 C   0  0  0  0  0  0  0  0  0  0  0  0
  140.3970   71.8910  222.1580 N   0  0  0  0  0  0  0  0  0  0  0  0
  140.1070   72.7480  221.0280 C   0  0  0  0  0  0  0  0  0  0  0  0
  140.0920   74.1470  221.4670 C   0  0  0  0  0  0  0  0  0  0  0  0
  139.2730   74.5870  222.3420 O   0  0  0  0  0  0  0  0  0  0  0  0
  140.9960   75.1160  220.9420 N   0  0  0  0  0  0  0  0  0  0  0  0
  142.4280   74.8860  220.8390 C   0  0  0  0  0  0  0  0  0  0  0  0
  142.8370   75.7400  219.6610 C   0  0  0  0  0  0  0  0  0  0  0  0
  141.5570   76.4030  219.1460 C   0  0  0  0  0  0  0  0  0  0  0  0
  140.7210   76.4470  220.4320 C   0  0  2  0  0  0  0  0  0  0  0  0
  141.1900   77.5310  221.3250 C   0  0  0  0  0  0  0  0  0  0  0  0
  141.0970   77.4350  222.6730 N   0  0  0  0  0  0  0  0  0  0  0  0
  141.5230   78.4200  223.4980 C   0  0  0  0  0  0  0  0  0  0  0  0
  142.0700   79.5610  222.9440 C   0  0  0  0  0  0  0  0  0  0  0  0
  142.6530   80.8980  223.9140 Cl  0  0  0  0  0  0  0  0  0  0  0  0
  142.1580   79.6430  221.5600 C   0  0  0  0  0  0  0  0  0  0  0  0
  141.7220   78.6370  220.7710 N   0  0  0  0  0  0  0  0  0  0  0  0
  139.5830   70.6510  224.1800 C   0  0  0  0  0  0  0  0  0  0  0  0
  139.1850   69.3350  224.1020 C   0  0  0  0  0  0  0  0  0  0  0  0
  139.3950   68.4490  225.1240 C   0  0  0  0  0  0  0  0  0  0  0  0
  140.0270   68.9120  226.2550 C   0  0  0  0  0  0  0  0  0  0  0  0
  140.2460   68.0340  227.2940 C   0  0  0  0  0  0  0  0  0  0  0  0
  140.8800   68.5170  228.4150 C   0  0  0  0  0  0  0  0  0  0  0  0
  141.1100   67.6810  229.4510 F   0  0  0  0  0  0  0  0  0  0  0  0
  141.2620   69.8270  228.4600 C   0  0  0  0  0  0  0  0  0  0  0  0
  141.0580   70.7310  227.4400 C   0  0  0  0  0  0  0  0  0  0  0  0
  140.4180   70.2450  226.3050 C   0  0  0  0  0  0  0  0  0  0  0  0
  140.1980   71.0950  225.2850 N   0  0  0  0  0  0  0  0  0  0  0  0
  141.3670   71.5360  222.3600 H   0  0  0  0  0  0  0  0  0  0  0  0
  140.8807   72.6136  220.2578 H   0  0  0  0  0  0  0  0  0  0  0  0
  139.1242   72.4841  220.6103 H   0  0  0  0  0  0  0  0  0  0  0  0
  142.9449   75.2064  221.7556 H   0  0  0  0  0  0  0  0  0  0  0  0
  142.6837   73.8241  220.7085 H   0  0  0  0  0  0  0  0  0  0  0  0
  143.5611   76.5049  219.9783 H   0  0  0  0  0  0  0  0  0  0  0  0
  143.3177   75.1362  218.8772 H   0  0  0  0  0  0  0  0  0  0  0  0
  141.7526   77.4125  218.7552 H   0  0  0  0  0  0  0  0  0  0  0  0
  141.0767   75.8776  218.3074 H   0  0  0  0  0  0  0  0  0  0  0  0
  139.6493   76.6647  220.3134 H   0  0  0  0  0  0  0  0  0  0  0  0
  141.4352   78.3138  224.5893 H   0  0  0  0  0  0  0  0  0  0  0  0
  142.5904   80.5430  221.0985 H   0  0  0  0  0  0  0  0  0  0  0  0
  138.6820   68.9844  223.1887 H   0  0  0  0  0  0  0  0  0  0  0  0
  139.0693   67.4014  225.0437 H   0  0  0  0  0  0  0  0  0  0  0  0
  139.9251   66.9838  227.2293 H   0  0  0  0  0  0  0  0  0  0  0  0
  141.7657   70.1844  229.3703 H   0  0  0  0  0  0  0  0  0  0  0  0
  141.3833   71.7788  227.5192 H   0  0  0  0  0  0  0  0  0  0  0  0
  1  2  2  0
  2  3  1  0
  3  4  1  0
  4  5  1  0
  5  6  2  0
  5  7  1  0
  7  8  1  0
  8  9  1  0
  9 10  1  0
 10 11  1  0
 11 12  1  0
 12 13  2  0
 13 14  1  0
 14 15  2  0
 15 16  1  0
 15 17  1  0
 17 18  2  0
  2 19  1  0
 19 20  2  0
 20 21  1  0
 21 22  2  0
 22 23  1  0
 23 24  2  0
 24 25  1  0
 24 26  1  0
 26 27  2  0
 27 28  1  0
 28 29  2  0
 11  7  1  0
 18 12  1  0
 29 19  1  0
 28 22  1  0
  3 30  1  0
  4 31  1  0
  4 32  1  0
  8 33  1  0
  8 34  1  0
  9 35  1  0
  9 36  1  0
 10 37  1  0
 10 38  1  0
 11 39  1  6
 14 40  1  0
 17 41  1  0
 20 42  1  0
 21 43  1  0
 23 44  1  0
 26 45  1  0
 27 46  1  0
M  END
>  <smiles>  (32) 
O=C(NCC(=O)N1CCC[C@@H]1c1ncc(Cl)cn1)c1ccc2cc(F)ccc2n1

>  <score_type>  (32) 
oracle

>  <origin>  (32) 
autodockgpu

>  <m_score__min__energy>  (32) 
-8.6099999999999994

>  <m_primary>  (32) 
energy

>  <rmsd>  (32) 
2.1138388396240524

>  <m_score__min__rmsd>  (32) 
2.1138388396240524

>  <meeko>  (32) 
{"free_energy": -8.43, "intermolecular_energy": -9.93, "internal_energy": -1.29, "cluster_size": 36, "cluster_id": 1, "rank_in_cluster": 16}

>  <energy>  (32) 
-8.03

>  <cluster_rmsd>  (32) 
0.85

>  <cluster>  (32) 
1

$$$$

     RDKit          3D

 46 49  0  0  0  0  0  0  0  0999 V2000
  140.3310   71.3160  221.5970 O   0  0  0  0  0  0  0  0  0  0  0  0
  139.7170   71.6720  222.6500 C   0  0  0  0  0  0  0  0  0  0  0  0
  138.6860   72.6710  222.5740 N   0  0  0  0  0  0  0  0  0  0  0  0
  138.3830   73.2410  221.2780 C   0  0  0  0  0  0  0  0  0  0  0  0
  138.7000   74.6730  221.2880 C   0  0  0  0  0  0  0  0  0  0  0  0
  137.8180   75.5740  221.4890 O   0  0  0  0  0  0  0  0  0  0  0  0
  140.0230   75.1580  221.0720 N   0  0  0  0  0  0  0  0  0  0  0  0
  141.2060   74.4750  221.5710 C   0  0  0  0  0  0  0  0  0  0  0  0
  142.2760   74.8530  220.5730 C   0  0  0  0  0  0  0  0  0  0  0  0
  141.5950   75.7410  219.5280 C   0  0  0  0  0  0  0  0  0  0  0  0
  140.4610   76.3470  220.3640 C   0  0  2  0  0  0  0  0  0  0  0  0
  140.9770   77.4100  221.2560 C   0  0  0  0  0  0  0  0  0  0  0  0
  140.9630   77.2790  222.6050 N   0  0  0  0  0  0  0  0  0  0  0  0
  141.4320   78.2440  223.4280 C   0  0  0  0  0  0  0  0  0  0  0  0
  141.9420   79.4020  222.8730 C   0  0  0  0  0  0  0  0  0  0  0  0
  142.5760   80.7170  223.8430 Cl  0  0  0  0  0  0  0  0  0  0  0  0
  141.9500   79.5200  221.4890 C   0  0  0  0  0  0  0  0  0  0  0  0
  141.4710   78.5330  220.7010 N   0  0  0  0  0  0  0  0  0  0  0  0
  140.0400   71.0800  223.9600 C   0  0  0  0  0  0  0  0  0  0  0  0
  140.7040   71.8650  224.8760 C   0  0  0  0  0  0  0  0  0  0  0  0
  141.0470   71.4050  226.1180 C   0  0  0  0  0  0  0  0  0  0  0  0
  140.7070   70.1110  226.4390 C   0  0  0  0  0  0  0  0  0  0  0  0
  141.0440   69.6300  227.6850 C   0  0  0  0  0  0  0  0  0  0  0  0
  140.6940   68.3340  227.9850 C   0  0  0  0  0  0  0  0  0  0  0  0
  141.0110   67.8320  229.1990 F   0  0  0  0  0  0  0  0  0  0  0  0
  140.0360   67.5810  227.0550 C   0  0  0  0  0  0  0  0  0  0  0  0
  139.6840   68.0310  225.8000 C   0  0  0  0  0  0  0  0  0  0  0  0
  140.0370   69.3420  225.4940 C   0  0  0  0  0  0  0  0  0  0  0  0
  139.7110   69.8200  224.2790 N   0  0  0  0  0  0  0  0  0  0  0  0
  138.1790   72.9650  223.4490 H   0  0  0  0  0  0  0  0  0  0  0  0
  138.9841   72.7377  220.5064 H   0  0  0  0  0  0  0  0  0  0  0  0
  137.3141   73.1034  221.0575 H   0  0  0  0  0  0  0  0  0  0  0  0
  141.4671   74.8265  222.5801 H   0  0  0  0  0  0  0  0  0  0  0  0
  141.0679   73.3874  221.6612 H   0  0  0  0  0  0  0  0  0  0  0  0
  143.0852   75.4054  221.0731 H   0  0  0  0  0  0  0  0  0  0  0  0
  142.7231   73.9613  220.1094 H   0  0  0  0  0  0  0  0  0  0  0  0
  142.2772   76.5159  219.1483 H   0  0  0  0  0  0  0  0  0  0  0  0
  141.2618   75.2091  218.6247 H   0  0  0  0  0  0  0  0  0  0  0  0
  139.6586   76.8535  219.8076 H   0  0  0  0  0  0  0  0  0  0  0  0
  141.4079   78.1095  224.5195 H   0  0  0  0  0  0  0  0  0  0  0  0
  142.3534   80.4330  221.0267 H   0  0  0  0  0  0  0  0  0  0  0  0
  140.9675   72.8966  224.5999 H   0  0  0  0  0  0  0  0  0  0  0  0
  141.5769   72.0482  226.8360 H   0  0  0  0  0  0  0  0  0  0  0  0
  141.5743   70.2600  228.4143 H   0  0  0  0  0  0  0  0  0  0  0  0
  139.7694   66.5484  227.3245 H   0  0  0  0  0  0  0  0  0  0  0  0
  139.1537   67.3895  225.0808 H   0  0  0  0  0  0  0  0  0  0  0  0
  1  2  2  0
  2  3  1  0
  3  4  1  0
  4  5  1  0
  5  6  2  0
  5  7  1  0
  7  8  1  0
  8  9  1  0
  9 10  1  0
 10 11  1  0
 11 12  1  0
 12 13  2  0
 13 14  1  0
 14 15  2  0
 15 16  1  0
 15 17  1  0
 17 18  2  0
  2 19  1  0
 19 20  2  0
 20 21  1  0
 21 22  2  0
 22 23  1  0
 23 24  2  0
 24 25  1  0
 24 26  1  0
 26 27  2  0
 27 28  1  0
 28 29  2  0
 11  7  1  0
 18 12  1  0
 29 19  1  0
 28 22  1  0
  3 30  1  0
  4 31  1  0
  4 32  1  0
  8 33  1  0
  8 34  1  0
  9 35  1  0
  9 36  1  0
 10 37  1  0
 10 38  1  0
 11 39  1  6
 14 40  1  0
 17 41  1  0
 20 42  1  0
 21 43  1  0
 23 44  1  0
 26 45  1  0
 27 46  1  0
M  END
>  <smiles>  (33) 
O=C(NCC(=O)N1CCC[C@@H]1c1ncc(Cl)cn1)c1ccc2cc(F)ccc2n1

>  <score_type>  (33) 
oracle

>  <origin>  (33) 
autodockgpu

>  <m_score__min__energy>  (33) 
-8.6099999999999994

>  <m_primary>  (33) 
energy

>  <rmsd>  (33) 
2.8415670317821102

>  <m_score__min__rmsd>  (33) 
2.8415670317821102

>  <meeko>  (33) 
{"free_energy": -8.23, "intermolecular_energy": -9.72, "internal_energy": -1.45, "cluster_size": 36, "cluster_id": 1, "rank_in_cluster": 25}

>  <energy>  (33) 
-7.9

>  <cluster_rmsd>  (33) 
1.73

>  <cluster>  (33) 
1

$$$$

     RDKit          3D

 46 49  0  0  0  0  0  0  0  0999 V2000
  141.6790   73.4260  220.9380 O   0  0  0  0  0  0  0  0  0  0  0  0
  140.9100   74.2230  221.5590 C   0  0  0  0  0  0  0  0  0  0  0  0
  139.7990   73.7050  222.3110 N   0  0  0  0  0  0  0  0  0  0  0  0
  139.5990   72.2710  222.3310 C   0  0  0  0  0  0  0  0  0  0  0  0
  138.2230   71.9760  222.7410 C   0  0  0  0  0  0  0  0  0  0  0  0
  137.2610   72.8010  222.5760 O   0  0  0  0  0  0  0  0  0  0  0  0
  137.8630   70.7410  223.3560 N   0  0  0  0  0  0  0  0  0  0  0  0
  136.6450   70.5720  224.1320 C   0  0  0  0  0  0  0  0  0  0  0  0
  136.3150   69.1080  223.9520 C   0  0  0  0  0  0  0  0  0  0  0  0
  137.3980   68.5330  223.0350 C   0  0  0  0  0  0  0  0  0  0  0  0
  138.5680   69.4730  223.3510 C   0  0  2  0  0  0  0  0  0  0  0  0
  139.1770   69.1310  224.6570 C   0  0  0  0  0  0  0  0  0  0  0  0
  139.2020   67.8600  225.1230 N   0  0  0  0  0  0  0  0  0  0  0  0
  139.7570   67.5380  226.3140 C   0  0  0  0  0  0  0  0  0  0  0  0
  140.3160   68.5430  227.0800 C   0  0  0  0  0  0  0  0  0  0  0  0
  141.0610   68.2420  228.6370 Cl  0  0  0  0  0  0  0  0  0  0  0  0
  140.2830   69.8410  226.5870 C   0  0  0  0  0  0  0  0  0  0  0  0
  139.7190   70.1210  225.3920 N   0  0  0  0  0  0  0  0  0  0  0  0
  141.1310   75.6790  221.5260 C   0  0  0  0  0  0  0  0  0  0  0  0
  141.7980   76.2050  220.4420 C   0  0  0  0  0  0  0  0  0  0  0  0
  142.0510   77.5440  220.3220 C   0  0  0  0  0  0  0  0  0  0  0  0
  141.6140   78.3730  221.3290 C   0  0  0  0  0  0  0  0  0  0  0  0
  141.8600   79.7240  221.2250 C   0  0  0  0  0  0  0  0  0  0  0  0
  141.4140   80.5350  222.2430 C   0  0  0  0  0  0  0  0  0  0  0  0
  141.6390   81.8650  222.1700 F   0  0  0  0  0  0  0  0  0  0  0  0
  140.7550   79.9830  223.3030 C   0  0  0  0  0  0  0  0  0  0  0  0
  140.4930   78.6360  223.4390 C   0  0  0  0  0  0  0  0  0  0  0  0
  140.9430   77.8140  222.4110 C   0  0  0  0  0  0  0  0  0  0  0  0
  140.7070   76.4920  222.5040 N   0  0  0  0  0  0  0  0  0  0  0  0
  139.1640   74.3680  222.8250 H   0  0  0  0  0  0  0  0  0  0  0  0
  139.7780   71.8616  221.3258 H   0  0  0  0  0  0  0  0  0  0  0  0
  140.3005   71.8125  223.0435 H   0  0  0  0  0  0  0  0  0  0  0  0
  136.8177   70.8091  225.1922 H   0  0  0  0  0  0  0  0  0  0  0  0
  135.8326   71.2384  223.8065 H   0  0  0  0  0  0  0  0  0  0  0  0
  136.3259   68.5928  224.9238 H   0  0  0  0  0  0  0  0  0  0  0  0
  135.3125   68.9744  223.5194 H   0  0  0  0  0  0  0  0  0  0  0  0
  137.6352   67.4902  223.2925 H   0  0  0  0  0  0  0  0  0  0  0  0
  137.1204   68.4916  221.9714 H   0  0  0  0  0  0  0  0  0  0  0  0
  139.4220   69.4422  222.6584 H   0  0  0  0  0  0  0  0  0  0  0  0
  139.7632   66.4958  226.6659 H   0  0  0  0  0  0  0  0  0  0  0  0
  140.7241   70.6556  227.1803 H   0  0  0  0  0  0  0  0  0  0  0  0
  142.1386   75.5260  219.6464 H   0  0  0  0  0  0  0  0  0  0  0  0
  142.5865   77.9447  219.4487 H   0  0  0  0  0  0  0  0  0  0  0  0
  142.3944   80.1402  220.3583 H   0  0  0  0  0  0  0  0  0  0  0  0
  140.4102   80.6568  224.1012 H   0  0  0  0  0  0  0  0  0  0  0  0
  139.9579   78.2339  224.3119 H   0  0  0  0  0  0  0  0  0  0  0  0
  1  2  2  0
  2  3  1  0
  3  4  1  0
  4  5  1  0
  5  6  2  0
  5  7  1  0
  7  8  1  0
  8  9  1  0
  9 10  1  0
 10 11  1  0
 11 12  1  0
 12 13  2  0
 13 14  1  0
 14 15  2  0
 15 16  1  0
 15 17  1  0
 17 18  2  0
  2 19  1  0
 19 20  2  0
 20 21  1  0
 21 22  2  0
 22 23  1  0
 23 24  2  0
 24 25  1  0
 24 26  1  0
 26 27  2  0
 27 28  1  0
 28 29  2  0
 11  7  1  0
 18 12  1  0
 29 19  1  0
 28 22  1  0
  3 30  1  0
  4 31  1  0
  4 32  1  0
  8 33  1  0
  8 34  1  0
  9 35  1  0
  9 36  1  0
 10 37  1  0
 10 38  1  0
 11 39  1  6
 14 40  1  0
 17 41  1  0
 20 42  1  0
 21 43  1  0
 23 44  1  0
 26 45  1  0
 27 46  1  0
M  END
>  <smiles>  (34) 
O=C(NCC(=O)N1CCC[C@@H]1c1ncc(Cl)cn1)c1ccc2cc(F)ccc2n1

>  <score_type>  (34) 
oracle

>  <origin>  (34) 
autodockgpu

>  <m_score__min__energy>  (34) 
-8.6099999999999994

>  <m_primary>  (34) 
energy

>  <rmsd>  (34) 
9.348413909438042

>  <m_score__min__rmsd>  (34) 
9.348413909438042

>  <meeko>  (34) 
{"free_energy": -7.95, "intermolecular_energy": -9.44, "internal_energy": -1.7, "cluster_size": 8, "cluster_id": 2, "rank_in_cluster": 5}

>  <energy>  (34) 
-7.89

>  <cluster_rmsd>  (34) 
1.74

>  <cluster>  (34) 
1

$$$$

     RDKit          3D

 46 49  0  0  0  0  0  0  0  0999 V2000
  141.1870   71.6530  221.5700 O   0  0  0  0  0  0  0  0  0  0  0  0
  140.3520   71.9740  222.4720 C   0  0  0  0  0  0  0  0  0  0  0  0
  139.5160   73.1300  222.2950 N   0  0  0  0  0  0  0  0  0  0  0  0
  139.6630   73.8970  221.0750 C   0  0  0  0  0  0  0  0  0  0  0  0
  140.7900   74.8230  221.2130 C   0  0  0  0  0  0  0  0  0  0  0  0
  140.8940   75.6450  222.1860 O   0  0  0  0  0  0  0  0  0  0  0  0
  141.8540   74.8700  220.2650 N   0  0  0  0  0  0  0  0  0  0  0  0
  141.6300   74.9100  218.8290 C   0  0  0  0  0  0  0  0  0  0  0  0
  142.8370   75.6540  218.3050 C   0  0  0  0  0  0  0  0  0  0  0  0
  143.6830   76.0150  219.5300 C   0  0  0  0  0  0  0  0  0  0  0  0
  143.2870   74.8880  220.4920 C   0  0  2  0  0  0  0  0  0  0  0  0
  143.9590   73.6220  220.1230 C   0  0  0  0  0  0  0  0  0  0  0  0
  145.3050   73.4830  220.1820 N   0  0  0  0  0  0  0  0  0  0  0  0
  145.9280   72.3300  219.8470 C   0  0  0  0  0  0  0  0  0  0  0  0
  145.1630   71.2590  219.4290 C   0  0  0  0  0  0  0  0  0  0  0  0
  145.8630   69.7190  218.9710 Cl  0  0  0  0  0  0  0  0  0  0  0  0
  143.7840   71.4160  219.3750 C   0  0  0  0  0  0  0  0  0  0  0  0
  143.2010   72.5850  219.7180 N   0  0  0  0  0  0  0  0  0  0  0  0
  140.2190   71.1800  223.7050 C   0  0  0  0  0  0  0  0  0  0  0  0
  139.5860   69.9590  223.6210 C   0  0  0  0  0  0  0  0  0  0  0  0
  139.4150   69.1510  224.7110 C   0  0  0  0  0  0  0  0  0  0  0  0
  139.8980   69.5930  225.9210 C   0  0  0  0  0  0  0  0  0  0  0  0
  139.7340   68.7920  227.0300 C   0  0  0  0  0  0  0  0  0  0  0  0
  140.2260   69.2540  228.2290 C   0  0  0  0  0  0  0  0  0  0  0  0
  140.0810   68.4920  229.3350 F   0  0  0  0  0  0  0  0  0  0  0  0
  140.8480   70.4680  228.2790 C   0  0  0  0  0  0  0  0  0  0  0  0
  141.0280   71.2930  227.1900 C   0  0  0  0  0  0  0  0  0  0  0  0
  140.5320   70.8290  225.9760 C   0  0  0  0  0  0  0  0  0  0  0  0
  140.6880   71.6050  224.8870 N   0  0  0  0  0  0  0  0  0  0  0  0
  138.8250   73.3930  223.0440 H   0  0  0  0  0  0  0  0  0  0  0  0
  139.8503   73.2143  220.2330 H   0  0  0  0  0  0  0  0  0  0  0  0
  138.7411   74.4669  220.8869 H   0  0  0  0  0  0  0  0  0  0  0  0
  141.5817   73.8941  218.4100 H   0  0  0  0  0  0  0  0  0  0  0  0
  140.6787   75.3904  218.5567 H   0  0  0  0  0  0  0  0  0  0  0  0
  143.4119   75.0133  217.6202 H   0  0  0  0  0  0  0  0  0  0  0  0
  142.5409   76.5527  217.7440 H   0  0  0  0  0  0  0  0  0  0  0  0
  144.7586   75.9926  219.3005 H   0  0  0  0  0  0  0  0  0  0  0  0
  143.5117   77.0292  219.9201 H   0  0  0  0  0  0  0  0  0  0  0  0
  143.5682   75.0238  221.5468 H   0  0  0  0  0  0  0  0  0  0  0  0
  147.0233   72.2471  219.9064 H   0  0  0  0  0  0  0  0  0  0  0  0
  143.1562   70.5742  219.0474 H   0  0  0  0  0  0  0  0  0  0  0  0
  139.2057   69.6231  222.6450 H   0  0  0  0  0  0  0  0  0  0  0  0
  138.9076   68.1790  224.6231 H   0  0  0  0  0  0  0  0  0  0  0  0
  139.2278   67.8179  226.9593 H   0  0  0  0  0  0  0  0  0  0  0  0
  141.2305   70.8101  229.2520 H   0  0  0  0  0  0  0  0  0  0  0  0
  141.5359   72.2649  227.2759 H   0  0  0  0  0  0  0  0  0  0  0  0
  1  2  2  0
  2  3  1  0
  3  4  1  0
  4  5  1  0
  5  6  2  0
  5  7  1  0
  7  8  1  0
  8  9  1  0
  9 10  1  0
 10 11  1  0
 11 12  1  0
 12 13  2  0
 13 14  1  0
 14 15  2  0
 15 16  1  0
 15 17  1  0
 17 18  2  0
  2 19  1  0
 19 20  2  0
 20 21  1  0
 21 22  2  0
 22 23  1  0
 23 24  2  0
 24 25  1  0
 24 26  1  0
 26 27  2  0
 27 28  1  0
 28 29  2  0
 11  7  1  0
 18 12  1  0
 29 19  1  0
 28 22  1  0
  3 30  1  0
  4 31  1  0
  4 32  1  0
  8 33  1  0
  8 34  1  0
  9 35  1  0
  9 36  1  0
 10 37  1  0
 10 38  1  0
 11 39  1  1
 14 40  1  0
 17 41  1  0
 20 42  1  0
 21 43  1  0
 23 44  1  0
 26 45  1  0
 27 46  1  0
M  END
>  <smiles>  (35) 
O=C(NCC(=O)N1CCC[C@@H]1c1ncc(Cl)cn1)c1ccc2cc(F)ccc2n1

>  <score_type>  (35) 
oracle

>  <origin>  (35) 
autodockgpu

>  <m_score__min__energy>  (35) 
-8.6099999999999994

>  <m_primary>  (35) 
energy

>  <rmsd>  (35) 
4.06055635247033

>  <m_score__min__rmsd>  (35) 
4.06055635247033

>  <meeko>  (35) 
{"free_energy": -7.95, "intermolecular_energy": -9.44, "internal_energy": -1.59, "cluster_size": 5, "cluster_id": 3, "rank_in_cluster": 1}

>  <energy>  (35) 
-7.76

>  <cluster_rmsd>  (35) 
1.71

>  <cluster>  (35) 
1

$$$$

     RDKit          3D

 46 49  0  0  0  0  0  0  0  0999 V2000
  140.0200   73.5780  222.4560 O   0  0  0  0  0  0  0  0  0  0  0  0
  140.3650   72.3560  222.4470 C   0  0  0  0  0  0  0  0  0  0  0  0
  140.9130   71.7760  221.2510 N   0  0  0  0  0  0  0  0  0  0  0  0
  141.0520   72.6230  220.0840 C   0  0  0  0  0  0  0  0  0  0  0  0
  142.3200   73.3540  220.1600 C   0  0  0  0  0  0  0  0  0  0  0  0
  143.3960   72.8260  220.6030 O   0  0  0  0  0  0  0  0  0  0  0  0
  142.4400   74.7120  219.7420 N   0  0  0  0  0  0  0  0  0  0  0  0
  143.7160   75.3280  219.4160 C   0  0  0  0  0  0  0  0  0  0  0  0
  143.3460   76.3850  218.4010 C   0  0  0  0  0  0  0  0  0  0  0  0
  141.8320   76.2760  218.1990 C   0  0  0  0  0  0  0  0  0  0  0  0
  141.4030   75.7110  219.5590 C   0  0  2  0  0  0  0  0  0  0  0  0
  141.4150   76.7690  220.5940 C   0  0  0  0  0  0  0  0  0  0  0  0
  141.7790   78.0420  220.3110 N   0  0  0  0  0  0  0  0  0  0  0  0
  141.7920   79.0160  221.2500 C   0  0  0  0  0  0  0  0  0  0  0  0
  141.4210   78.6980  222.5420 C   0  0  0  0  0  0  0  0  0  0  0  0
  141.4010   79.8780  223.8370 Cl  0  0  0  0  0  0  0  0  0  0  0  0
  141.0500   77.3880  222.8160 C   0  0  0  0  0  0  0  0  0  0  0  0
  141.0500   76.4450  221.8500 N   0  0  0  0  0  0  0  0  0  0  0  0
  140.2160   71.5110  223.6440 C   0  0  0  0  0  0  0  0  0  0  0  0
  139.5450   70.3160  223.5100 C   0  0  0  0  0  0  0  0  0  0  0  0
  139.3560   69.4640  224.5630 C   0  0  0  0  0  0  0  0  0  0  0  0
  139.8620   69.8350  225.7880 C   0  0  0  0  0  0  0  0  0  0  0  0
  139.6810   68.9890  226.8600 C   0  0  0  0  0  0  0  0  0  0  0  0
  140.1950   69.3800  228.0750 C   0  0  0  0  0  0  0  0  0  0  0  0
  140.0340   68.5730  229.1460 F   0  0  0  0  0  0  0  0  0  0  0  0
  140.8550   70.5710  228.1750 C   0  0  0  0  0  0  0  0  0  0  0  0
  141.0540   71.4390  227.1230 C   0  0  0  0  0  0  0  0  0  0  0  0
  140.5350   71.0470  225.8930 C   0  0  0  0  0  0  0  0  0  0  0  0
  140.7070   71.8670  224.8400 N   0  0  0  0  0  0  0  0  0  0  0  0
  141.1980   70.7630  221.2460 H   0  0  0  0  0  0  0  0  0  0  0  0
  141.0406   72.0017  219.1764 H   0  0  0  0  0  0  0  0  0  0  0  0
  140.2174   73.3387  220.0485 H   0  0  0  0  0  0  0  0  0  0  0  0
  144.1733   75.7816  220.3077 H   0  0  0  0  0  0  0  0  0  0  0  0
  144.4556   74.6080  219.0358 H   0  0  0  0  0  0  0  0  0  0  0  0
  143.6089   77.3842  218.7786 H   0  0  0  0  0  0  0  0  0  0  0  0
  143.8871   76.2373  217.4548 H   0  0  0  0  0  0  0  0  0  0  0  0
  141.3770   77.2589  218.0068 H   0  0  0  0  0  0  0  0  0  0  0  0
  141.5296   75.6656  217.3353 H   0  0  0  0  0  0  0  0  0  0  0  0
  140.3812   75.3084  219.6215 H   0  0  0  0  0  0  0  0  0  0  0  0
  142.0923   80.0416  220.9895 H   0  0  0  0  0  0  0  0  0  0  0  0
  140.7508   77.1139  223.8384 H   0  0  0  0  0  0  0  0  0  0  0  0
  139.1476   70.0373  222.5229 H   0  0  0  0  0  0  0  0  0  0  0  0
  138.8173   68.5135  224.4351 H   0  0  0  0  0  0  0  0  0  0  0  0
  139.1448   68.0350  226.7487 H   0  0  0  0  0  0  0  0  0  0  0  0
  141.2540   70.8565  229.1595 H   0  0  0  0  0  0  0  0  0  0  0  0
  141.5934   72.3893  227.2489 H   0  0  0  0  0  0  0  0  0  0  0  0
  1  2  2  0
  2  3  1  0
  3  4  1  0
  4  5  1  0
  5  6  2  0
  5  7  1  0
  7  8  1  0
  8  9  1  0
  9 10  1  0
 10 11  1  0
 11 12  1  0
 12 13  2  0
 13 14  1  0
 14 15  2  0
 15 16  1  0
 15 17  1  0
 17 18  2  0
  2 19  1  0
 19 20  2  0
 20 21  1  0
 21 22  2  0
 22 23  1  0
 23 24  2  0
 24 25  1  0
 24 26  1  0
 26 27  2  0
 27 28  1  0
 28 29  2  0
 11  7  1  0
 18 12  1  0
 29 19  1  0
 28 22  1  0
  3 30  1  0
  4 31  1  0
  4 32  1  0
  8 33  1  0
  8 34  1  0
  9 35  1  0
  9 36  1  0
 10 37  1  0
 10 38  1  0
 11 39  1  6
 14 40  1  0
 17 41  1  0
 20 42  1  0
 21 43  1  0
 23 44  1  0
 26 45  1  0
 27 46  1  0
M  END
>  <smiles>  (36) 
O=C(NCC(=O)N1CCC[C@@H]1c1ncc(Cl)cn1)c1ccc2cc(F)ccc2n1

>  <score_type>  (36) 
oracle

>  <origin>  (36) 
autodockgpu

>  <m_score__min__energy>  (36) 
-8.6099999999999994

>  <m_primary>  (36) 
energy

>  <rmsd>  (36) 
2.673752490328107

>  <m_score__min__rmsd>  (36) 
2.673752490328107

>  <meeko>  (36) 
{"free_energy": -8.09, "intermolecular_energy": -9.59, "internal_energy": -1.47, "cluster_size": 36, "cluster_id": 1, "rank_in_cluster": 30}

>  <energy>  (36) 
-7.74

>  <cluster_rmsd>  (36) 
1.02

>  <cluster>  (36) 
1

$$$$

     RDKit          3D

 46 49  0  0  0  0  0  0  0  0999 V2000
  140.5910   71.6580  221.0770 O   0  0  0  0  0  0  0  0  0  0  0  0
  140.2130   72.1940  222.1640 C   0  0  0  0  0  0  0  0  0  0  0  0
  139.8740   73.5910  222.1930 N   0  0  0  0  0  0  0  0  0  0  0  0
  139.9800   74.3440  220.9610 C   0  0  0  0  0  0  0  0  0  0  0  0
  141.3850   74.6840  220.7160 C   0  0  0  0  0  0  0  0  0  0  0  0
  142.3400   73.8630  220.9240 O   0  0  0  0  0  0  0  0  0  0  0  0
  141.7810   75.9630  220.2270 N   0  0  0  0  0  0  0  0  0  0  0  0
  143.1170   76.2360  219.7220 C   0  0  0  0  0  0  0  0  0  0  0  0
  142.8930   77.3390  218.7130 C   0  0  0  0  0  0  0  0  0  0  0  0
  141.3860   77.6100  218.7020 C   0  0  0  0  0  0  0  0  0  0  0  0
  141.0090   77.1880  220.1270 C   0  0  2  0  0  0  0  0  0  0  0  0
  141.4140   78.2230  221.1050 C   0  0  0  0  0  0  0  0  0  0  0  0
  141.8060   79.4590  220.7170 N   0  0  0  0  0  0  0  0  0  0  0  0
  142.1770   80.4110  221.6040 C   0  0  0  0  0  0  0  0  0  0  0  0
  142.1560   80.1090  222.9510 C   0  0  0  0  0  0  0  0  0  0  0  0
  142.6160   81.2630  224.1870 Cl  0  0  0  0  0  0  0  0  0  0  0  0
  141.7510   78.8360  223.3330 C   0  0  0  0  0  0  0  0  0  0  0  0
  141.3880   77.9140  222.4160 N   0  0  0  0  0  0  0  0  0  0  0  0
  140.1120   71.4100  223.4070 C   0  0  0  0  0  0  0  0  0  0  0  0
  139.5360   70.1610  223.3360 C   0  0  0  0  0  0  0  0  0  0  0  0
  139.3980   69.3590  224.4360 C   0  0  0  0  0  0  0  0  0  0  0  0
  139.8580   69.8370  225.6410 C   0  0  0  0  0  0  0  0  0  0  0  0
  139.7270   69.0430  226.7590 C   0  0  0  0  0  0  0  0  0  0  0  0
  140.1940   69.5410  227.9540 C   0  0  0  0  0  0  0  0  0  0  0  0
  140.0810   68.7860  229.0690 F   0  0  0  0  0  0  0  0  0  0  0  0
  140.7610   70.7820  227.9900 C   0  0  0  0  0  0  0  0  0  0  0  0
  140.9070   71.6020  226.8920 C   0  0  0  0  0  0  0  0  0  0  0  0
  140.4360   71.1010  225.6820 C   0  0  0  0  0  0  0  0  0  0  0  0
  140.5590   71.8700  224.5850 N   0  0  0  0  0  0  0  0  0  0  0  0
  139.5610   74.0320  223.0960 H   0  0  0  0  0  0  0  0  0  0  0  0
  139.5985   73.7374  220.1264 H   0  0  0  0  0  0  0  0  0  0  0  0
  139.3880   75.2675  221.0433 H   0  0  0  0  0  0  0  0  0  0  0  0
  143.7823   76.5721  220.5310 H   0  0  0  0  0  0  0  0  0  0  0  0
  143.6008   75.3489  219.2873 H   0  0  0  0  0  0  0  0  0  0  0  0
  143.4410   78.2451  219.0109 H   0  0  0  0  0  0  0  0  0  0  0  0
  143.2549   77.0487  217.7156 H   0  0  0  0  0  0  0  0  0  0  0  0
  141.1669   78.6730  218.5231 H   0  0  0  0  0  0  0  0  0  0  0  0
  140.8339   77.0835  217.9095 H   0  0  0  0  0  0  0  0  0  0  0  0
  139.9363   77.0550  220.3310 H   0  0  0  0  0  0  0  0  0  0  0  0
  142.4896   81.4073  221.2582 H   0  0  0  0  0  0  0  0  0  0  0  0
  141.7257   78.5748  224.4012 H   0  0  0  0  0  0  0  0  0  0  0  0
  139.1750   69.7962  222.3630 H   0  0  0  0  0  0  0  0  0  0  0  0
  138.9343   68.3645  224.3592 H   0  0  0  0  0  0  0  0  0  0  0  0
  139.2655   68.0463  226.6988 H   0  0  0  0  0  0  0  0  0  0  0  0
  141.1256   71.1522  228.9596 H   0  0  0  0  0  0  0  0  0  0  0  0
  141.3700   72.5970  226.9677 H   0  0  0  0  0  0  0  0  0  0  0  0
  1  2  2  0
  2  3  1  0
  3  4  1  0
  4  5  1  0
  5  6  2  0
  5  7  1  0
  7  8  1  0
  8  9  1  0
  9 10  1  0
 10 11  1  0
 11 12  1  0
 12 13  2  0
 13 14  1  0
 14 15  2  0
 15 16  1  0
 15 17  1  0
 17 18  2  0
  2 19  1  0
 19 20  2  0
 20 21  1  0
 21 22  2  0
 22 23  1  0
 23 24  2  0
 24 25  1  0
 24 26  1  0
 26 27  2  0
 27 28  1  0
 28 29  2  0
 11  7  1  0
 18 12  1  0
 29 19  1  0
 28 22  1  0
  3 30  1  0
  4 31  1  0
  4 32  1  0
  8 33  1  0
  8 34  1  0
  9 35  1  0
  9 36  1  0
 10 37  1  0
 10 38  1  0
 11 39  1  6
 14 40  1  0
 17 41  1  0
 20 42  1  0
 21 43  1  0
 23 44  1  0
 26 45  1  0
 27 46  1  0
M  END
>  <smiles>  (37) 
O=C(NCC(=O)N1CCC[C@@H]1c1ncc(Cl)cn1)c1ccc2cc(F)ccc2n1

>  <score_type>  (37) 
oracle

>  <origin>  (37) 
autodockgpu

>  <m_score__min__energy>  (37) 
-8.6099999999999994

>  <m_primary>  (37) 
energy

>  <rmsd>  (37) 
2.2745626318979966

>  <m_score__min__rmsd>  (37) 
2.2745626318979966

>  <meeko>  (37) 
{"free_energy": -8.61, "intermolecular_energy": -10.1, "internal_energy": -1.35, "cluster_size": 36, "cluster_id": 1, "rank_in_cluster": 2}

>  <energy>  (37) 
-7.98

>  <cluster_rmsd>  (37) 
0.0

>  <cluster>  (37) 
2

$$$$

     RDKit          3D

 46 49  0  0  0  0  0  0  0  0999 V2000
  138.3190   71.5190  222.1620 O   0  0  0  0  0  0  0  0  0  0  0  0
  139.4380   71.4530  222.7580 C   0  0  0  0  0  0  0  0  0  0  0  0
  140.5630   72.1940  222.2530 N   0  0  0  0  0  0  0  0  0  0  0  0
  140.3700   72.9990  221.0650 C   0  0  0  0  0  0  0  0  0  0  0  0
  140.2230   74.4060  221.4470 C   0  0  0  0  0  0  0  0  0  0  0  0
  139.4030   74.7960  222.3450 O   0  0  0  0  0  0  0  0  0  0  0  0
  140.9900   75.4420  220.8370 N   0  0  0  0  0  0  0  0  0  0  0  0
  142.3900   75.2810  220.4780 C   0  0  0  0  0  0  0  0  0  0  0  0
  142.5600   76.2150  219.3020 C   0  0  0  0  0  0  0  0  0  0  0  0
  141.1880   76.8490  219.0550 C   0  0  0  0  0  0  0  0  0  0  0  0
  140.5870   76.7850  220.4640 C   0  0  2  0  0  0  0  0  0  0  0  0
  141.1660   77.8370  221.3300 C   0  0  0  0  0  0  0  0  0  0  0  0
  141.6750   78.9840  220.8190 N   0  0  0  0  0  0  0  0  0  0  0  0
  142.2060   79.9510  221.6030 C   0  0  0  0  0  0  0  0  0  0  0  0
  142.2290   79.7600  222.9700 C   0  0  0  0  0  0  0  0  0  0  0  0
  142.8910   80.9440  224.0790 Cl  0  0  0  0  0  0  0  0  0  0  0  0
  141.7020   78.5790  223.4790 C   0  0  0  0  0  0  0  0  0  0  0  0
  141.1810   77.6380  222.6620 N   0  0  0  0  0  0  0  0  0  0  0  0
  139.6130   70.6280  223.9650 C   0  0  0  0  0  0  0  0  0  0  0  0
  139.1170   69.3440  223.9450 C   0  0  0  0  0  0  0  0  0  0  0  0
  139.2310   68.5020  225.0180 C   0  0  0  0  0  0  0  0  0  0  0  0
  139.8660   68.9770  226.1420 C   0  0  0  0  0  0  0  0  0  0  0  0
  139.9900   68.1430  227.2310 C   0  0  0  0  0  0  0  0  0  0  0  0
  140.6290   68.6370  228.3450 C   0  0  0  0  0  0  0  0  0  0  0  0
  140.7670   67.8450  229.4300 F   0  0  0  0  0  0  0  0  0  0  0  0
  141.1110   69.9150  228.3320 C   0  0  0  0  0  0  0  0  0  0  0  0
  141.0040   70.7750  227.2600 C   0  0  0  0  0  0  0  0  0  0  0  0
  140.3580   70.2770  226.1330 C   0  0  0  0  0  0  0  0  0  0  0  0
  140.2320   71.0850  225.0640 N   0  0  0  0  0  0  0  0  0  0  0  0
  141.4890   72.1370  222.7490 H   0  0  0  0  0  0  0  0  0  0  0  0
  141.2404   72.8882  220.4016 H   0  0  0  0  0  0  0  0  0  0  0  0
  139.4633   72.6652  220.5392 H   0  0  0  0  0  0  0  0  0  0  0  0
  143.0461   75.5736  221.3110 H   0  0  0  0  0  0  0  0  0  0  0  0
  142.6556   74.2401  220.2414 H   0  0  0  0  0  0  0  0  0  0  0  0
  143.3020   76.9923  219.5371 H   0  0  0  0  0  0  0  0  0  0  0  0
  142.9177   75.6764  218.4121 H   0  0  0  0  0  0  0  0  0  0  0  0
  141.2789   77.8861  218.6999 H   0  0  0  0  0  0  0  0  0  0  0  0
  140.5877   76.3504  218.2797 H   0  0  0  0  0  0  0  0  0  0  0  0
  139.5042   76.9619  220.5426 H   0  0  0  0  0  0  0  0  0  0  0  0
  142.6117   80.8721  221.1592 H   0  0  0  0  0  0  0  0  0  0  0  0
  141.7093   78.4077  224.5656 H   0  0  0  0  0  0  0  0  0  0  0  0
  138.6124   68.9828  223.0367 H   0  0  0  0  0  0  0  0  0  0  0  0
  138.8281   67.4791  224.9827 H   0  0  0  0  0  0  0  0  0  0  0  0
  139.5921   67.1177  227.2109 H   0  0  0  0  0  0  0  0  0  0  0  0
  141.6179   70.2821  229.2366 H   0  0  0  0  0  0  0  0  0  0  0  0
  141.4069   71.7980  227.2938 H   0  0  0  0  0  0  0  0  0  0  0  0
  1  2  2  0
  2  3  1  0
  3  4  1  0
  4  5  1  0
  5  6  2  0
  5  7  1  0
  7  8  1  0
  8  9  1  0
  9 10  1  0
 10 11  1  0
 11 12  1  0
 12 13  2  0
 13 14  1  0
 14 15  2  0
 15 16  1  0
 15 17  1  0
 17 18  2  0
  2 19  1  0
 19 20  2  0
 20 21  1  0
 21 22  2  0
 22 23  1  0
 23 24  2  0
 24 25  1  0
 24 26  1  0
 26 27  2  0
 27 28  1  0
 28 29  2  0
 11  7  1  0
 18 12  1  0
 29 19  1  0
 28 22  1  0
  3 30  1  0
  4 31  1  0
  4 32  1  0
  8 33  1  0
  8 34  1  0
  9 35  1  0
  9 36  1  0
 10 37  1  0
 10 38  1  0
 11 39  1  6
 14 40  1  0
 17 41  1  0
 20 42  1  0
 21 43  1  0
 23 44  1  0
 26 45  1  0
 27 46  1  0
M  END
>  <smiles>  (38) 
O=C(NCC(=O)N1CCC[C@@H]1c1ncc(Cl)cn1)c1ccc2cc(F)ccc2n1

>  <score_type>  (38) 
oracle

>  <origin>  (38) 
autodockgpu

>  <m_score__min__energy>  (38) 
-8.6099999999999994

>  <m_primary>  (38) 
energy

>  <rmsd>  (38) 
2.2244832441773563

>  <m_score__min__rmsd>  (38) 
2.2244832441773563

>  <meeko>  (38) 
{"free_energy": -8.43, "intermolecular_energy": -9.92, "internal_energy": -1.36, "cluster_size": 36, "cluster_id": 1, "rank_in_cluster": 17}

>  <energy>  (38) 
-7.97

>  <cluster_rmsd>  (38) 
0.12

>  <cluster>  (38) 
2

$$$$

     RDKit          3D

 46 49  0  0  0  0  0  0  0  0999 V2000
  140.2500   70.9990  221.2840 O   0  0  0  0  0  0  0  0  0  0  0  0
  139.9400   71.5360  222.3930 C   0  0  0  0  0  0  0  0  0  0  0  0
  139.5680   72.9240  222.4370 N   0  0  0  0  0  0  0  0  0  0  0  0
  139.5640   73.6680  221.1940 C   0  0  0  0  0  0  0  0  0  0  0  0
  140.6200   74.6840  221.2290 C   0  0  0  0  0  0  0  0  0  0  0  0
  140.6230   75.6490  222.0660 O   0  0  0  0  0  0  0  0  0  0  0  0
  141.7230   74.6630  220.3260 N   0  0  0  0  0  0  0  0  0  0  0  0
  141.5670   74.8020  218.8870 C   0  0  0  0  0  0  0  0  0  0  0  0
  142.8690   75.4340  218.4520 C   0  0  0  0  0  0  0  0  0  0  0  0
  143.6950   75.6350  219.7260 C   0  0  0  0  0  0  0  0  0  0  0  0
  143.1380   74.5100  220.6070 C   0  0  2  0  0  0  0  0  0  0  0  0
  143.6850   73.1980  220.1920 C   0  0  0  0  0  0  0  0  0  0  0  0
  142.9450   72.0650  220.2520 N   0  0  0  0  0  0  0  0  0  0  0  0
  143.4360   70.8620  219.8740 C   0  0  0  0  0  0  0  0  0  0  0  0
  144.7360   70.7890  219.4140 C   0  0  0  0  0  0  0  0  0  0  0  0
  145.4750   69.2860  218.8990 Cl  0  0  0  0  0  0  0  0  0  0  0  0
  145.4810   71.9610  219.3580 C   0  0  0  0  0  0  0  0  0  0  0  0
  144.9540   73.1420  219.7450 N   0  0  0  0  0  0  0  0  0  0  0  0
  139.9510   70.7610  223.6450 C   0  0  0  0  0  0  0  0  0  0  0  0
  139.3770   69.5100  223.6340 C   0  0  0  0  0  0  0  0  0  0  0  0
  139.3390   68.7150  224.7470 C   0  0  0  0  0  0  0  0  0  0  0  0
  139.9000   69.2040  225.9040 C   0  0  0  0  0  0  0  0  0  0  0  0
  139.8710   68.4180  227.0350 C   0  0  0  0  0  0  0  0  0  0  0  0
  140.4380   68.9270  228.1810 C   0  0  0  0  0  0  0  0  0  0  0  0
  140.4250   68.1800  229.3070 F   0  0  0  0  0  0  0  0  0  0  0  0
  141.0000   70.1710  228.1590 C   0  0  0  0  0  0  0  0  0  0  0  0
  141.0450   70.9830  227.0460 C   0  0  0  0  0  0  0  0  0  0  0  0
  140.4730   70.4710  225.8860 C   0  0  0  0  0  0  0  0  0  0  0  0
  140.4970   71.2320  224.7760 N   0  0  0  0  0  0  0  0  0  0  0  0
  139.3120   73.3660  223.3570 H   0  0  0  0  0  0  0  0  0  0  0  0
  139.7445   72.9804  220.3546 H   0  0  0  0  0  0  0  0  0  0  0  0
  138.5879   74.1581  221.0633 H   0  0  0  0  0  0  0  0  0  0  0  0
  141.4272   73.8208  218.4098 H   0  0  0  0  0  0  0  0  0  0  0  0
  140.6860   75.3980  218.6065 H   0  0  0  0  0  0  0  0  0  0  0  0
  143.4004   74.7701  217.7542 H   0  0  0  0  0  0  0  0  0  0  0  0
  142.6967   76.3880  217.9321 H   0  0  0  0  0  0  0  0  0  0  0  0
  144.7708   75.5060  219.5360 H   0  0  0  0  0  0  0  0  0  0  0  0
  143.6178   76.6401  220.1662 H   0  0  0  0  0  0  0  0  0  0  0  0
  143.3859   74.5580  221.6776 H   0  0  0  0  0  0  0  0  0  0  0  0
  142.8110   69.9587  219.9321 H   0  0  0  0  0  0  0  0  0  0  0  0
  146.5178   71.9256  218.9921 H   0  0  0  0  0  0  0  0  0  0  0  0
  138.9339   69.1368  222.6989 H   0  0  0  0  0  0  0  0  0  0  0  0
  138.8753   67.7180  224.7176 H   0  0  0  0  0  0  0  0  0  0  0  0
  139.4109   67.4189  227.0225 H   0  0  0  0  0  0  0  0  0  0  0  0
  141.4461   70.5501  229.0903 H   0  0  0  0  0  0  0  0  0  0  0  0
  141.5076   71.9806  227.0736 H   0  0  0  0  0  0  0  0  0  0  0  0
  1  2  2  0
  2  3  1  0
  3  4  1  0
  4  5  1  0
  5  6  2  0
  5  7  1  0
  7  8  1  0
  8  9  1  0
  9 10  1  0
 10 11  1  0
 11 12  1  0
 12 13  2  0
 13 14  1  0
 14 15  2  0
 15 16  1  0
 15 17  1  0
 17 18  2  0
  2 19  1  0
 19 20  2  0
 20 21  1  0
 21 22  2  0
 22 23  1  0
 23 24  2  0
 24 25  1  0
 24 26  1  0
 26 27  2  0
 27 28  1  0
 28 29  2  0
 11  7  1  0
 18 12  1  0
 29 19  1  0
 28 22  1  0
  3 30  1  0
  4 31  1  0
  4 32  1  0
  8 33  1  0
  8 34  1  0
  9 35  1  0
  9 36  1  0
 10 37  1  0
 10 38  1  0
 11 39  1  1
 14 40  1  0
 17 41  1  0
 20 42  1  0
 21 43  1  0
 23 44  1  0
 26 45  1  0
 27 46  1  0
M  END
>  <smiles>  (39) 
O=C(NCC(=O)N1CCC[C@@H]1c1ncc(Cl)cn1)c1ccc2cc(F)ccc2n1

>  <score_type>  (39) 
oracle

>  <origin>  (39) 
autodockgpu

>  <m_score__min__energy>  (39) 
-8.6099999999999994

>  <m_primary>  (39) 
energy

>  <rmsd>  (39) 
4.084075122699844

>  <m_score__min__rmsd>  (39) 
4.084075122699844

>  <meeko>  (39) 
{"free_energy": -7.66, "intermolecular_energy": -9.15, "internal_energy": -1.74, "cluster_size": 5, "cluster_id": 3, "rank_in_cluster": 2}

>  <energy>  (39) 
-7.96

>  <cluster_rmsd>  (39) 
0.12

>  <cluster>  (39) 
2

$$$$

     RDKit          3D

 46 49  0  0  0  0  0  0  0  0999 V2000
  141.7350   73.3720  220.9820 O   0  0  0  0  0  0  0  0  0  0  0  0
  140.9290   74.1710  221.5520 C   0  0  0  0  0  0  0  0  0  0  0  0
  139.7890   73.6530  222.2580 N   0  0  0  0  0  0  0  0  0  0  0  0
  139.6010   72.2180  222.2900 C   0  0  0  0  0  0  0  0  0  0  0  0
  138.2590   71.9120  222.7930 C   0  0  0  0  0  0  0  0  0  0  0  0
  137.3000   72.7540  222.7590 O   0  0  0  0  0  0  0  0  0  0  0  0
  137.9310   70.6450  223.3600 N   0  0  0  0  0  0  0  0  0  0  0  0
  136.6890   70.3960  224.0720 C   0  0  0  0  0  0  0  0  0  0  0  0
  136.4390   68.9230  223.8400 C   0  0  0  0  0  0  0  0  0  0  0  0
  137.5920   68.4260  222.9620 C   0  0  0  0  0  0  0  0  0  0  0  0
  138.6980   69.4120  223.3570 C   0  0  2  0  0  0  0  0  0  0  0  0
  139.2610   69.0650  224.6820 C   0  0  0  0  0  0  0  0  0  0  0  0
  139.1900   67.8080  225.1810 N   0  0  0  0  0  0  0  0  0  0  0  0
  139.7030   67.4810  226.3900 C   0  0  0  0  0  0  0  0  0  0  0  0
  140.3180   68.4640  227.1390 C   0  0  0  0  0  0  0  0  0  0  0  0
  141.0160   68.1550  228.7160 Cl  0  0  0  0  0  0  0  0  0  0  0  0
  140.3830   69.7480  226.6120 C   0  0  0  0  0  0  0  0  0  0  0  0
  139.8590   70.0340  225.4010 N   0  0  0  0  0  0  0  0  0  0  0  0
  141.1380   75.6280  221.5080 C   0  0  0  0  0  0  0  0  0  0  0  0
  141.7330   76.1600  220.3850 C   0  0  0  0  0  0  0  0  0  0  0  0
  141.9690   77.5010  220.2510 C   0  0  0  0  0  0  0  0  0  0  0  0
  141.5900   78.3260  221.2850 C   0  0  0  0  0  0  0  0  0  0  0  0
  141.8190   79.6790  221.1670 C   0  0  0  0  0  0  0  0  0  0  0  0
  141.4310   80.4860  222.2120 C   0  0  0  0  0  0  0  0  0  0  0  0
  141.6430   81.8170  222.1280 F   0  0  0  0  0  0  0  0  0  0  0  0
  140.8430   79.9270  223.3110 C   0  0  0  0  0  0  0  0  0  0  0  0
  140.6000   78.5790  223.4610 C   0  0  0  0  0  0  0  0  0  0  0  0
  140.9900   77.7610  222.4050 C   0  0  0  0  0  0  0  0  0  0  0  0
  140.7700   76.4380  222.5110 N   0  0  0  0  0  0  0  0  0  0  0  0
  139.1230   74.3170  222.7300 H   0  0  0  0  0  0  0  0  0  0  0  0
  139.7135   71.8108  221.2744 H   0  0  0  0  0  0  0  0  0  0  0  0
  140.3530   71.7645  222.9524 H   0  0  0  0  0  0  0  0  0  0  0  0
  136.8007   70.6118  225.1448 H   0  0  0  0  0  0  0  0  0  0  0  0
  135.8609   71.0313  223.7245 H   0  0  0  0  0  0  0  0  0  0  0  0
  136.4290   68.3825  224.7980 H   0  0  0  0  0  0  0  0  0  0  0  0
  135.4656   68.7532  223.3566 H   0  0  0  0  0  0  0  0  0  0  0  0
  137.8681   67.3892  223.2047 H   0  0  0  0  0  0  0  0  0  0  0  0
  137.3671   68.4005  221.8855 H   0  0  0  0  0  0  0  0  0  0  0  0
  139.5839   69.4407  222.7056 H   0  0  0  0  0  0  0  0  0  0  0  0
  139.6312   66.4508  226.7688 H   0  0  0  0  0  0  0  0  0  0  0  0
  140.8701   70.5458  227.1918 H   0  0  0  0  0  0  0  0  0  0  0  0
  142.0282   75.4841  219.5689 H   0  0  0  0  0  0  0  0  0  0  0  0
  142.4460   77.9063  219.3465 H   0  0  0  0  0  0  0  0  0  0  0  0
  142.2952   80.0997  220.2691 H   0  0  0  0  0  0  0  0  0  0  0  0
  140.5437   80.5972  224.1303 H   0  0  0  0  0  0  0  0  0  0  0  0
  140.1241   78.1721  224.3654 H   0  0  0  0  0  0  0  0  0  0  0  0
  1  2  2  0
  2  3  1  0
  3  4  1  0
  4  5  1  0
  5  6  2  0
  5  7  1  0
  7  8  1  0
  8  9  1  0
  9 10  1  0
 10 11  1  0
 11 12  1  0
 12 13  2  0
 13 14  1  0
 14 15  2  0
 15 16  1  0
 15 17  1  0
 17 18  2  0
  2 19  1  0
 19 20  2  0
 20 21  1  0
 21 22  2  0
 22 23  1  0
 23 24  2  0
 24 25  1  0
 24 26  1  0
 26 27  2  0
 27 28  1  0
 28 29  2  0
 11  7  1  0
 18 12  1  0
 29 19  1  0
 28 22  1  0
  3 30  1  0
  4 31  1  0
  4 32  1  0
  8 33  1  0
  8 34  1  0
  9 35  1  0
  9 36  1  0
 10 37  1  0
 10 38  1  0
 11 39  1  6
 14 40  1  0
 17 41  1  0
 20 42  1  0
 21 43  1  0
 23 44  1  0
 26 45  1  0
 27 46  1  0
M  END
>  <smiles>  (40) 
O=C(NCC(=O)N1CCC[C@@H]1c1ncc(Cl)cn1)c1ccc2cc(F)ccc2n1

>  <score_type>  (40) 
oracle

>  <origin>  (40) 
autodockgpu

>  <m_score__min__energy>  (40) 
-8.6099999999999994

>  <m_primary>  (40) 
energy

>  <rmsd>  (40) 
9.352932852853026

>  <m_score__min__rmsd>  (40) 
9.352932852853026

>  <meeko>  (40) 
{"free_energy": -7.94, "intermolecular_energy": -9.43, "internal_energy": -1.75, "cluster_size": 8, "cluster_id": 2, "rank_in_cluster": 6}

>  <energy>  (40) 
-7.95

>  <cluster_rmsd>  (40) 
0.03

>  <cluster>  (40) 
2

$$$$

     RDKit          3D

 46 49  0  0  0  0  0  0  0  0999 V2000
  140.6770   73.3740  222.7110 O   0  0  0  0  0  0  0  0  0  0  0  0
  140.1260   72.2310  222.6430 C   0  0  0  0  0  0  0  0  0  0  0  0
  139.5080   71.8070  221.4160 N   0  0  0  0  0  0  0  0  0  0  0  0
  139.5380   72.7140  220.2890 C   0  0  0  0  0  0  0  0  0  0  0  0
  140.8680   72.6820  219.6720 C   0  0  0  0  0  0  0  0  0  0  0  0
  141.2430   71.7470  218.8880 O   0  0  0  0  0  0  0  0  0  0  0  0
  141.8380   73.7010  219.9070 N   0  0  0  0  0  0  0  0  0  0  0  0
  143.0020   73.5010  220.7550 C   0  0  0  0  0  0  0  0  0  0  0  0
  144.0290   74.4410  220.1680 C   0  0  0  0  0  0  0  0  0  0  0  0
  143.3560   75.1190  218.9710 C   0  0  0  0  0  0  0  0  0  0  0  0
  141.8850   75.0590  219.3990 C   0  0  2  0  0  0  0  0  0  0  0  0
  141.5950   76.0850  220.4270 C   0  0  0  0  0  0  0  0  0  0  0  0
  140.8910   75.7940  221.5470 N   0  0  0  0  0  0  0  0  0  0  0  0
  140.6220   76.7240  222.4920 C   0  0  0  0  0  0  0  0  0  0  0  0
  141.0820   78.0130  222.3060 C   0  0  0  0  0  0  0  0  0  0  0  0
  140.7920   79.2970  223.4630 Cl  0  0  0  0  0  0  0  0  0  0  0  0
  141.8030   78.2950  221.1530 C   0  0  0  0  0  0  0  0  0  0  0  0
  142.0500   77.3370  220.2330 N   0  0  0  0  0  0  0  0  0  0  0  0
  140.1070   71.3230  223.8020 C   0  0  0  0  0  0  0  0  0  0  0  0
  139.5670   70.0680  223.6290 C   0  0  0  0  0  0  0  0  0  0  0  0
  139.5040   69.1540  224.6450 C   0  0  0  0  0  0  0  0  0  0  0  0
  140.0040   69.5240  225.8720 C   0  0  0  0  0  0  0  0  0  0  0  0
  139.9500   68.6170  226.9070 C   0  0  0  0  0  0  0  0  0  0  0  0
  140.4560   69.0070  228.1260 C   0  0  0  0  0  0  0  0  0  0  0  0
  140.4170   68.1400  229.1610 F   0  0  0  0  0  0  0  0  0  0  0  0
  140.9850   70.2580  228.2650 C   0  0  0  0  0  0  0  0  0  0  0  0
  141.0550   71.1890  227.2510 C   0  0  0  0  0  0  0  0  0  0  0  0
  140.5440   70.7970  226.0180 C   0  0  0  0  0  0  0  0  0  0  0  0
  140.5930   71.6770  225.0010 N   0  0  0  0  0  0  0  0  0  0  0  0
  139.0530   70.8590  221.3630 H   0  0  0  0  0  0  0  0  0  0  0  0
  138.7834   72.4061  219.5502 H   0  0  0  0  0  0  0  0  0  0  0  0
  139.3178   73.7351  220.6337 H   0  0  0  0  0  0  0  0  0  0  0  0
  142.7782   73.7649  221.7992 H   0  0  0  0  0  0  0  0  0  0  0  0
  143.3413   72.4549  220.7786 H   0  0  0  0  0  0  0  0  0  0  0  0
  144.3274   75.1928  220.9135 H   0  0  0  0  0  0  0  0  0  0  0  0
  144.9375   73.9009  219.8631 H   0  0  0  0  0  0  0  0  0  0  0  0
  143.6999   76.1565  218.8470 H   0  0  0  0  0  0  0  0  0  0  0  0
  143.5683   74.6467  218.0005 H   0  0  0  0  0  0  0  0  0  0  0  0
  141.1387   75.2674  218.6182 H   0  0  0  0  0  0  0  0  0  0  0  0
  140.0476   76.4585  223.3918 H   0  0  0  0  0  0  0  0  0  0  0  0
  142.1791   79.3151  220.9861 H   0  0  0  0  0  0  0  0  0  0  0  0
  139.1729   69.7910  222.6401 H   0  0  0  0  0  0  0  0  0  0  0  0
  139.0681   68.1566  224.4861 H   0  0  0  0  0  0  0  0  0  0  0  0
  139.5175   67.6157  226.7643 H   0  0  0  0  0  0  0  0  0  0  0  0
  141.3814   70.5416  229.2511 H   0  0  0  0  0  0  0  0  0  0  0  0
  141.4908   72.1867  227.4081 H   0  0  0  0  0  0  0  0  0  0  0  0
  1  2  2  0
  2  3  1  0
  3  4  1  0
  4  5  1  0
  5  6  2  0
  5  7  1  0
  7  8  1  0
  8  9  1  0
  9 10  1  0
 10 11  1  0
 11 12  1  0
 12 13  2  0
 13 14  1  0
 14 15  2  0
 15 16  1  0
 15 17  1  0
 17 18  2  0
  2 19  1  0
 19 20  2  0
 20 21  1  0
 21 22  2  0
 22 23  1  0
 23 24  2  0
 24 25  1  0
 24 26  1  0
 26 27  2  0
 27 28  1  0
 28 29  2  0
 11  7  1  0
 18 12  1  0
 29 19  1  0
 28 22  1  0
  3 30  1  0
  4 31  1  0
  4 32  1  0
  8 33  1  0
  8 34  1  0
  9 35  1  0
  9 36  1  0
 10 37  1  0
 10 38  1  0
 11 39  1  6
 14 40  1  0
 17 41  1  0
 20 42  1  0
 21 43  1  0
 23 44  1  0
 26 45  1  0
 27 46  1  0
M  END
>  <smiles>  (41) 
O=C(NCC(=O)N1CCC[C@@H]1c1ncc(Cl)cn1)c1ccc2cc(F)ccc2n1

>  <score_type>  (41) 
oracle

>  <origin>  (41) 
autodockgpu

>  <m_score__min__energy>  (41) 
-8.6099999999999994

>  <m_primary>  (41) 
energy

>  <rmsd>  (41) 
2.692537680250359

>  <m_score__min__rmsd>  (41) 
2.692537680250359

>  <meeko>  (41) 
{"free_energy": -7.76, "intermolecular_energy": -9.25, "internal_energy": -1.6, "cluster_size": 36, "cluster_id": 1, "rank_in_cluster": 35}

>  <energy>  (41) 
-7.95

>  <cluster_rmsd>  (41) 
0.11

>  <cluster>  (41) 
2

$$$$

     RDKit          3D

 46 49  0  0  0  0  0  0  0  0999 V2000
  140.9690   72.4090  222.0290 O   0  0  0  0  0  0  0  0  0  0  0  0
  139.9530   72.2020  222.7620 C   0  0  0  0  0  0  0  0  0  0  0  0
  138.7140   72.8730  222.4750 N   0  0  0  0  0  0  0  0  0  0  0  0
  138.6750   73.7740  221.3420 C   0  0  0  0  0  0  0  0  0  0  0  0
  139.0030   75.1320  221.7860 C   0  0  0  0  0  0  0  0  0  0  0  0
  138.2850   75.7780  222.6200 O   0  0  0  0  0  0  0  0  0  0  0  0
  140.1540   75.8280  221.3110 N   0  0  0  0  0  0  0  0  0  0  0  0
  141.4910   75.2580  221.3460 C   0  0  0  0  0  0  0  0  0  0  0  0
  142.1870   75.9220  220.1810 C   0  0  0  0  0  0  0  0  0  0  0  0
  141.1500   76.8420  219.5300 C   0  0  0  0  0  0  0  0  0  0  0  0
  140.2510   77.1550  220.7320 C   0  0  2  0  0  0  0  0  0  0  0  0
  140.8950   78.1440  221.6260 C   0  0  0  0  0  0  0  0  0  0  0  0
  140.9840   77.9470  222.9630 N   0  0  0  0  0  0  0  0  0  0  0  0
  141.5710   78.8440  223.7880 C   0  0  0  0  0  0  0  0  0  0  0  0
  142.0970   80.0000  223.2460 C   0  0  0  0  0  0  0  0  0  0  0  0
  142.8790   81.2300  224.2180 Cl  0  0  0  0  0  0  0  0  0  0  0  0
  141.9990   80.1870  221.8730 C   0  0  0  0  0  0  0  0  0  0  0  0
  141.4050   79.2660  221.0840 N   0  0  0  0  0  0  0  0  0  0  0  0
  140.0140   71.2820  223.9110 C   0  0  0  0  0  0  0  0  0  0  0  0
  139.5360   70.0020  223.7370 C   0  0  0  0  0  0  0  0  0  0  0  0
  139.5500   69.0760  224.7440 C   0  0  0  0  0  0  0  0  0  0  0  0
  140.0650   69.4590  225.9610 C   0  0  0  0  0  0  0  0  0  0  0  0
  140.0880   68.5390  226.9860 C   0  0  0  0  0  0  0  0  0  0  0  0
  140.6070   68.9420  228.1950 C   0  0  0  0  0  0  0  0  0  0  0  0
  140.6440   68.0640  229.2200 F   0  0  0  0  0  0  0  0  0  0  0  0
  141.0740   70.2180  228.3340 C   0  0  0  0  0  0  0  0  0  0  0  0
  141.0660   71.1620  227.3300 C   0  0  0  0  0  0  0  0  0  0  0  0
  140.5410   70.7560  226.1070 C   0  0  0  0  0  0  0  0  0  0  0  0
  140.5150   71.6480  225.0990 N   0  0  0  0  0  0  0  0  0  0  0  0
  137.8740   72.7000  223.0840 H   0  0  0  0  0  0  0  0  0  0  0  0
  139.4071   73.4477  220.5887 H   0  0  0  0  0  0  0  0  0  0  0  0
  137.6671   73.7657  220.9015 H   0  0  0  0  0  0  0  0  0  0  0  0
  141.9957   75.4968  222.2937 H   0  0  0  0  0  0  0  0  0  0  0  0
  141.4911   74.1602  221.2765 H   0  0  0  0  0  0  0  0  0  0  0  0
  143.0477   76.5083  220.5352 H   0  0  0  0  0  0  0  0  0  0  0  0
  142.5676   75.1783  219.4654 H   0  0  0  0  0  0  0  0  0  0  0  0
  141.6146   77.7525  219.1237 H   0  0  0  0  0  0  0  0  0  0  0  0
  140.6246   76.4005  218.6703 H   0  0  0  0  0  0  0  0  0  0  0  0
  139.2770   77.6149  220.5086 H   0  0  0  0  0  0  0  0  0  0  0  0
  141.6283   78.6561  224.8703 H   0  0  0  0  0  0  0  0  0  0  0  0
  142.4122   81.1007  221.4209 H   0  0  0  0  0  0  0  0  0  0  0  0
  139.1296   69.7148  222.7560 H   0  0  0  0  0  0  0  0  0  0  0  0
  139.1623   68.0588  224.5859 H   0  0  0  0  0  0  0  0  0  0  0  0
  139.7049   67.5178  226.8430 H   0  0  0  0  0  0  0  0  0  0  0  0
  141.4835   70.5115  229.3118 H   0  0  0  0  0  0  0  0  0  0  0  0
  141.4530   72.1797  227.4867 H   0  0  0  0  0  0  0  0  0  0  0  0
  1  2  2  0
  2  3  1  0
  3  4  1  0
  4  5  1  0
  5  6  2  0
  5  7  1  0
  7  8  1  0
  8  9  1  0
  9 10  1  0
 10 11  1  0
 11 12  1  0
 12 13  2  0
 13 14  1  0
 14 15  2  0
 15 16  1  0
 15 17  1  0
 17 18  2  0
  2 19  1  0
 19 20  2  0
 20 21  1  0
 21 22  2  0
 22 23  1  0
 23 24  2  0
 24 25  1  0
 24 26  1  0
 26 27  2  0
 27 28  1  0
 28 29  2  0
 11  7  1  0
 18 12  1  0
 29 19  1  0
 28 22  1  0
  3 30  1  0
  4 31  1  0
  4 32  1  0
  8 33  1  0
  8 34  1  0
  9 35  1  0
  9 36  1  0
 10 37  1  0
 10 38  1  0
 11 39  1  6
 14 40  1  0
 17 41  1  0
 20 42  1  0
 21 43  1  0
 23 44  1  0
 26 45  1  0
 27 46  1  0
M  END
>  <smiles>  (42) 
O=C(NCC(=O)N1CCC[C@@H]1c1ncc(Cl)cn1)c1ccc2cc(F)ccc2n1

>  <score_type>  (42) 
oracle

>  <origin>  (42) 
autodockgpu

>  <m_score__min__energy>  (42) 
-8.6099999999999994

>  <m_primary>  (42) 
energy

>  <rmsd>  (42) 
1.9467592934791085

>  <m_score__min__rmsd>  (42) 
1.9467592934791085

>  <meeko>  (42) 
{"free_energy": -8.47, "intermolecular_energy": -9.97, "internal_energy": -1.42, "cluster_size": 36, "cluster_id": 1, "rank_in_cluster": 14}

>  <energy>  (42) 
-7.94

>  <cluster_rmsd>  (42) 
0.07

>  <cluster>  (42) 
2

$$$$

     RDKit          3D

 46 49  0  0  0  0  0  0  0  0999 V2000
  140.4170   71.6190  221.0680 O   0  0  0  0  0  0  0  0  0  0  0  0
  140.0960   72.1780  222.1630 C   0  0  0  0  0  0  0  0  0  0  0  0
  139.8180   73.5880  222.1920 N   0  0  0  0  0  0  0  0  0  0  0  0
  139.9160   74.3280  220.9510 C   0  0  0  0  0  0  0  0  0  0  0  0
  141.3240   74.6330  220.6760 C   0  0  0  0  0  0  0  0  0  0  0  0
  142.2550   73.7690  220.8040 O   0  0  0  0  0  0  0  0  0  0  0  0
  141.7490   75.9230  220.2430 N   0  0  0  0  0  0  0  0  0  0  0  0
  143.1020   76.1960  219.7840 C   0  0  0  0  0  0  0  0  0  0  0  0
  142.9190   77.3370  218.8100 C   0  0  0  0  0  0  0  0  0  0  0  0
  141.4160   77.6290  218.7690 C   0  0  0  0  0  0  0  0  0  0  0  0
  140.9960   77.1610  220.1670 C   0  0  2  0  0  0  0  0  0  0  0  0
  141.3870   78.1550  221.1930 C   0  0  0  0  0  0  0  0  0  0  0  0
  141.3630   77.8630  222.5160 N   0  0  0  0  0  0  0  0  0  0  0  0
  141.7200   78.7650  223.4600 C   0  0  0  0  0  0  0  0  0  0  0  0
  142.1210   80.0240  223.0590 C   0  0  0  0  0  0  0  0  0  0  0  0
  142.6030   81.2690  224.1940 Cl  0  0  0  0  0  0  0  0  0  0  0  0
  142.1400   80.3070  221.6990 C   0  0  0  0  0  0  0  0  0  0  0  0
  141.7760   79.3790  220.7880 N   0  0  0  0  0  0  0  0  0  0  0  0
  140.0010   71.4060  223.4140 C   0  0  0  0  0  0  0  0  0  0  0  0
  139.3910   70.1730  223.3660 C   0  0  0  0  0  0  0  0  0  0  0  0
  139.2560   69.3830  224.4750 C   0  0  0  0  0  0  0  0  0  0  0  0
  139.7540   69.8580  225.6660 C   0  0  0  0  0  0  0  0  0  0  0  0
  139.6270   69.0760  226.7930 C   0  0  0  0  0  0  0  0  0  0  0  0
  140.1320   69.5700  227.9730 C   0  0  0  0  0  0  0  0  0  0  0  0
  140.0230   68.8280  229.0970 F   0  0  0  0  0  0  0  0  0  0  0  0
  140.7320   70.7970  227.9870 C   0  0  0  0  0  0  0  0  0  0  0  0
  140.8760   71.6040  226.8790 C   0  0  0  0  0  0  0  0  0  0  0  0
  140.3650   71.1070  225.6840 C   0  0  0  0  0  0  0  0  0  0  0  0
  140.4850   71.8630  224.5780 N   0  0  0  0  0  0  0  0  0  0  0  0
  139.5530   74.0480  223.1010 H   0  0  0  0  0  0  0  0  0  0  0  0
  139.5042   73.7233  220.1296 H   0  0  0  0  0  0  0  0  0  0  0  0
  139.3467   75.2654  221.0360 H   0  0  0  0  0  0  0  0  0  0  0  0
  143.7491   76.4941  220.6221 H   0  0  0  0  0  0  0  0  0  0  0  0
  143.5866   75.3186  219.3308 H   0  0  0  0  0  0  0  0  0  0  0  0
  143.4703   78.2243  219.1546 H   0  0  0  0  0  0  0  0  0  0  0  0
  143.3036   77.0774  217.8127 H   0  0  0  0  0  0  0  0  0  0  0  0
  141.2154   78.7007  218.6233 H   0  0  0  0  0  0  0  0  0  0  0  0
  140.8786   77.1393  217.9435 H   0  0  0  0  0  0  0  0  0  0  0  0
  139.9166   77.0352  220.3374 H   0  0  0  0  0  0  0  0  0  0  0  0
  141.6912   78.4999  224.5272 H   0  0  0  0  0  0  0  0  0  0  0  0
  142.4569   81.3038  221.3585 H   0  0  0  0  0  0  0  0  0  0  0  0
  138.9991   69.8107  222.4042 H   0  0  0  0  0  0  0  0  0  0  0  0
  138.7653   68.4003  224.4161 H   0  0  0  0  0  0  0  0  0  0  0  0
  139.1389   68.0911  226.7506 H   0  0  0  0  0  0  0  0  0  0  0  0
  141.1262   71.1653  228.9456 H   0  0  0  0  0  0  0  0  0  0  0  0
  141.3676   72.5864  226.9362 H   0  0  0  0  0  0  0  0  0  0  0  0
  1  2  2  0
  2  3  1  0
  3  4  1  0
  4  5  1  0
  5  6  2  0
  5  7  1  0
  7  8  1  0
  8  9  1  0
  9 10  1  0
 10 11  1  0
 11 12  1  0
 12 13  2  0
 13 14  1  0
 14 15  2  0
 15 16  1  0
 15 17  1  0
 17 18  2  0
  2 19  1  0
 19 20  2  0
 20 21  1  0
 21 22  2  0
 22 23  1  0
 23 24  2  0
 24 25  1  0
 24 26  1  0
 26 27  2  0
 27 28  1  0
 28 29  2  0
 11  7  1  0
 18 12  1  0
 29 19  1  0
 28 22  1  0
  3 30  1  0
  4 31  1  0
  4 32  1  0
  8 33  1  0
  8 34  1  0
  9 35  1  0
  9 36  1  0
 10 37  1  0
 10 38  1  0
 11 39  1  6
 14 40  1  0
 17 41  1  0
 20 42  1  0
 21 43  1  0
 23 44  1  0
 26 45  1  0
 27 46  1  0
M  END
>  <smiles>  (43) 
O=C(NCC(=O)N1CCC[C@@H]1c1ncc(Cl)cn1)c1ccc2cc(F)ccc2n1

>  <score_type>  (43) 
oracle

>  <origin>  (43) 
autodockgpu

>  <m_score__min__energy>  (43) 
-8.6099999999999994

>  <m_primary>  (43) 
energy

>  <rmsd>  (43) 
2.0432586419442456

>  <m_score__min__rmsd>  (43) 
2.0432586419442456

>  <meeko>  (43) 
{"free_energy": -8.59, "intermolecular_energy": -10.08, "internal_energy": -1.35, "cluster_size": 36, "cluster_id": 1, "rank_in_cluster": 8}

>  <energy>  (43) 
-7.88

>  <cluster_rmsd>  (43) 
0.16

>  <cluster>  (43) 
2

$$$$

     RDKit          3D

 46 49  0  0  0  0  0  0  0  0999 V2000
  141.7560   73.4420  220.9940 O   0  0  0  0  0  0  0  0  0  0  0  0
  140.9480   74.2460  221.5540 C   0  0  0  0  0  0  0  0  0  0  0  0
  139.8040   73.7340  222.2600 N   0  0  0  0  0  0  0  0  0  0  0  0
  139.6160   72.2990  222.3040 C   0  0  0  0  0  0  0  0  0  0  0  0
  138.2400   72.0000  222.7110 C   0  0  0  0  0  0  0  0  0  0  0  0
  137.2690   72.8030  222.5070 O   0  0  0  0  0  0  0  0  0  0  0  0
  137.8920   70.7830  223.3670 N   0  0  0  0  0  0  0  0  0  0  0  0
  136.6840   70.6330  224.1630 C   0  0  0  0  0  0  0  0  0  0  0  0
  136.3560   69.1640  224.0320 C   0  0  0  0  0  0  0  0  0  0  0  0
  137.4300   68.5640  223.1190 C   0  0  0  0  0  0  0  0  0  0  0  0
  138.6010   69.5170  223.3920 C   0  0  2  0  0  0  0  0  0  0  0  0
  139.2270   69.2170  224.7000 C   0  0  0  0  0  0  0  0  0  0  0  0
  139.8210   70.1790  225.4450 N   0  0  0  0  0  0  0  0  0  0  0  0
  140.3960   69.9150  226.6420 C   0  0  0  0  0  0  0  0  0  0  0  0
  140.3750   68.6190  227.1170 C   0  0  0  0  0  0  0  0  0  0  0  0
  141.0880   68.1620  228.6510 Cl  0  0  0  0  0  0  0  0  0  0  0  0
  139.7610   67.6430  226.3410 C   0  0  0  0  0  0  0  0  0  0  0  0
  139.1990   67.9480  225.1510 N   0  0  0  0  0  0  0  0  0  0  0  0
  141.1570   75.7030  221.4980 C   0  0  0  0  0  0  0  0  0  0  0  0
  141.6610   76.2370  220.3330 C   0  0  0  0  0  0  0  0  0  0  0  0
  141.8900   77.5770  220.1850 C   0  0  0  0  0  0  0  0  0  0  0  0
  141.5990   78.3990  221.2490 C   0  0  0  0  0  0  0  0  0  0  0  0
  141.8220   79.7520  221.1170 C   0  0  0  0  0  0  0  0  0  0  0  0
  141.5240   80.5560  222.1930 C   0  0  0  0  0  0  0  0  0  0  0  0
  141.7320   81.8880  222.0960 F   0  0  0  0  0  0  0  0  0  0  0  0
  141.0250   79.9960  223.3340 C   0  0  0  0  0  0  0  0  0  0  0  0
  140.7900   78.6480  223.4980 C   0  0  0  0  0  0  0  0  0  0  0  0
  141.0910   77.8330  222.4120 C   0  0  0  0  0  0  0  0  0  0  0  0
  140.8750   76.5090  222.5310 N   0  0  0  0  0  0  0  0  0  0  0  0
  139.1360   74.4030  222.7230 H   0  0  0  0  0  0  0  0  0  0  0  0
  139.8045   71.8735  221.3073 H   0  0  0  0  0  0  0  0  0  0  0  0
  140.3171   71.8589  223.0284 H   0  0  0  0  0  0  0  0  0  0  0  0
  136.8691   70.9025  225.2133 H   0  0  0  0  0  0  0  0  0  0  0  0
  135.8655   71.2866  223.8271 H   0  0  0  0  0  0  0  0  0  0  0  0
  136.3804   68.6787  225.0189 H   0  0  0  0  0  0  0  0  0  0  0  0
  135.3486   69.0146  223.6164 H   0  0  0  0  0  0  0  0  0  0  0  0
  137.6737   67.5302  223.4051 H   0  0  0  0  0  0  0  0  0  0  0  0
  137.1396   68.4893  222.0607 H   0  0  0  0  0  0  0  0  0  0  0  0
  139.4465   69.4674  222.6901 H   0  0  0  0  0  0  0  0  0  0  0  0
  140.8709   70.7179  227.2249 H   0  0  0  0  0  0  0  0  0  0  0  0
  139.7322   66.6043  226.7020 H   0  0  0  0  0  0  0  0  0  0  0  0
  141.8869   75.5631  219.4934 H   0  0  0  0  0  0  0  0  0  0  0  0
  142.2936   77.9842  219.2462 H   0  0  0  0  0  0  0  0  0  0  0  0
  142.2241   80.1746  220.1844 H   0  0  0  0  0  0  0  0  0  0  0  0
  140.7957   80.6643  224.1771 H   0  0  0  0  0  0  0  0  0  0  0  0
  140.3866   78.2392  224.4362 H   0  0  0  0  0  0  0  0  0  0  0  0
  1  2  2  0
  2  3  1  0
  3  4  1  0
  4  5  1  0
  5  6  2  0
  5  7  1  0
  7  8  1  0
  8  9  1  0
  9 10  1  0
 10 11  1  0
 11 12  1  0
 12 13  2  0
 13 14  1  0
 14 15  2  0
 15 16  1  0
 15 17  1  0
 17 18  2  0
  2 19  1  0
 19 20  2  0
 20 21  1  0
 21 22  2  0
 22 23  1  0
 23 24  2  0
 24 25  1  0
 24 26  1  0
 26 27  2  0
 27 28  1  0
 28 29  2  0
 11  7  1  0
 18 12  1  0
 29 19  1  0
 28 22  1  0
  3 30  1  0
  4 31  1  0
  4 32  1  0
  8 33  1  0
  8 34  1  0
  9 35  1  0
  9 36  1  0
 10 37  1  0
 10 38  1  0
 11 39  1  6
 14 40  1  0
 17 41  1  0
 20 42  1  0
 21 43  1  0
 23 44  1  0
 26 45  1  0
 27 46  1  0
M  END
>  <smiles>  (44) 
O=C(NCC(=O)N1CCC[C@@H]1c1ncc(Cl)cn1)c1ccc2cc(F)ccc2n1

>  <score_type>  (44) 
oracle

>  <origin>  (44) 
autodockgpu

>  <m_score__min__energy>  (44) 
-8.6099999999999994

>  <m_primary>  (44) 
energy

>  <rmsd>  (44) 
9.317957487043918

>  <m_score__min__rmsd>  (44) 
9.317957487043918

>  <meeko>  (44) 
{"free_energy": -7.97, "intermolecular_energy": -9.46, "internal_energy": -1.66, "cluster_size": 8, "cluster_id": 2, "rank_in_cluster": 2}

>  <energy>  (44) 
-7.55

>  <cluster_rmsd>  (44) 
0.56

>  <cluster>  (44) 
2

$$$$

     RDKit          3D

 46 49  0  0  0  0  0  0  0  0999 V2000
  138.6600   71.7130  222.0950 O   0  0  0  0  0  0  0  0  0  0  0  0
  139.7550   71.5160  222.7080 C   0  0  0  0  0  0  0  0  0  0  0  0
  140.9660   72.1170  222.2210 N   0  0  0  0  0  0  0  0  0  0  0  0
  140.8890   72.9370  221.0300 C   0  0  0  0  0  0  0  0  0  0  0  0
  140.5000   74.3010  221.4000 C   0  0  0  0  0  0  0  0  0  0  0  0
  139.6390   74.5510  222.3090 O   0  0  0  0  0  0  0  0  0  0  0  0
  141.0600   75.4490  220.7660 N   0  0  0  0  0  0  0  0  0  0  0  0
  142.3890   75.4540  220.1760 C   0  0  0  0  0  0  0  0  0  0  0  0
  142.2780   76.4800  219.0710 C   0  0  0  0  0  0  0  0  0  0  0  0
  140.8340   76.9880  219.1000 C   0  0  0  0  0  0  0  0  0  0  0  0
  140.4840   76.7670  220.5770 C   0  0  2  0  0  0  0  0  0  0  0  0
  141.1040   77.8100  221.4260 C   0  0  0  0  0  0  0  0  0  0  0  0
  141.6300   78.9410  220.8980 N   0  0  0  0  0  0  0  0  0  0  0  0
  142.1980   79.8990  221.6660 C   0  0  0  0  0  0  0  0  0  0  0  0
  142.2430   79.7150  223.0330 C   0  0  0  0  0  0  0  0  0  0  0  0
  142.9550   80.8890  224.1230 Cl  0  0  0  0  0  0  0  0  0  0  0  0
  141.6990   78.5500  223.5590 C   0  0  0  0  0  0  0  0  0  0  0  0
  141.1400   77.6170  222.7580 N   0  0  0  0  0  0  0  0  0  0  0  0
  139.8120   70.6780  223.9180 C   0  0  0  0  0  0  0  0  0  0  0  0
  139.2040   69.4430  223.8770 C   0  0  0  0  0  0  0  0  0  0  0  0
  139.2040   68.5950  224.9490 C   0  0  0  0  0  0  0  0  0  0  0  0
  139.8390   69.0100  226.0970 C   0  0  0  0  0  0  0  0  0  0  0  0
  139.8490   68.1680  227.1870 C   0  0  0  0  0  0  0  0  0  0  0  0
  140.4910   68.6030  228.3240 C   0  0  0  0  0  0  0  0  0  0  0  0
  140.5180   67.8010  229.4100 F   0  0  0  0  0  0  0  0  0  0  0  0
  141.0840   69.8330  228.3330 C   0  0  0  0  0  0  0  0  0  0  0  0
  141.0930   70.6990  227.2600 C   0  0  0  0  0  0  0  0  0  0  0  0
  140.4450   70.2610  226.1100 C   0  0  0  0  0  0  0  0  0  0  0  0
  140.4300   71.0770  225.0390 N   0  0  0  0  0  0  0  0  0  0  0  0
  141.8720   71.9520  222.7310 H   0  0  0  0  0  0  0  0  0  0  0  0
  141.8710   72.9574  220.5348 H   0  0  0  0  0  0  0  0  0  0  0  0
  140.1404   72.5159  220.3428 H   0  0  0  0  0  0  0  0  0  0  0  0
  143.1468   75.7523  220.9154 H   0  0  0  0  0  0  0  0  0  0  0  0
  142.7013   74.4638  219.8128 H   0  0  0  0  0  0  0  0  0  0  0  0
  142.9774   77.3099  219.2501 H   0  0  0  0  0  0  0  0  0  0  0  0
  142.5286   76.0432  218.0931 H   0  0  0  0  0  0  0  0  0  0  0  0
  140.7727   78.0510  218.8237 H   0  0  0  0  0  0  0  0  0  0  0  0
  140.1592   76.4860  218.3910 H   0  0  0  0  0  0  0  0  0  0  0  0
  139.4181   76.8284  220.8418 H   0  0  0  0  0  0  0  0  0  0  0  0
  142.6163   80.8080  221.2092 H   0  0  0  0  0  0  0  0  0  0  0  0
  141.7239   78.3845  224.6462 H   0  0  0  0  0  0  0  0  0  0  0  0
  138.7015   69.1284  222.9504 H   0  0  0  0  0  0  0  0  0  0  0  0
  138.7122   67.6125  224.8957 H   0  0  0  0  0  0  0  0  0  0  0  0
  139.3611   67.1828  227.1500 H   0  0  0  0  0  0  0  0  0  0  0  0
  141.5875   70.1540  229.2568 H   0  0  0  0  0  0  0  0  0  0  0  0
  141.5852   71.6814  227.3108 H   0  0  0  0  0  0  0  0  0  0  0  0
  1  2  2  0
  2  3  1  0
  3  4  1  0
  4  5  1  0
  5  6  2  0
  5  7  1  0
  7  8  1  0
  8  9  1  0
  9 10  1  0
 10 11  1  0
 11 12  1  0
 12 13  2  0
 13 14  1  0
 14 15  2  0
 15 16  1  0
 15 17  1  0
 17 18  2  0
  2 19  1  0
 19 20  2  0
 20 21  1  0
 21 22  2  0
 22 23  1  0
 23 24  2  0
 24 25  1  0
 24 26  1  0
 26 27  2  0
 27 28  1  0
 28 29  2  0
 11  7  1  0
 18 12  1  0
 29 19  1  0
 28 22  1  0
  3 30  1  0
  4 31  1  0
  4 32  1  0
  8 33  1  0
  8 34  1  0
  9 35  1  0
  9 36  1  0
 10 37  1  0
 10 38  1  0
 11 39  1  6
 14 40  1  0
 17 41  1  0
 20 42  1  0
 21 43  1  0
 23 44  1  0
 26 45  1  0
 27 46  1  0
M  END
>  <smiles>  (45) 
O=C(NCC(=O)N1CCC[C@@H]1c1ncc(Cl)cn1)c1ccc2cc(F)ccc2n1

>  <score_type>  (45) 
oracle

>  <origin>  (45) 
autodockgpu

>  <m_score__min__energy>  (45) 
-8.6099999999999994

>  <m_primary>  (45) 
energy

>  <rmsd>  (45) 
2.276938001542899

>  <m_score__min__rmsd>  (45) 
2.276938001542899

>  <meeko>  (45) 
{"free_energy": -8.42, "intermolecular_energy": -9.91, "internal_energy": -1.34, "cluster_size": 36, "cluster_id": 1, "rank_in_cluster": 18}

>  <energy>  (45) 
-7.95

>  <cluster_rmsd>  (45) 
0.0

>  <cluster>  (45) 
3

$$$$

     RDKit          3D

 46 49  0  0  0  0  0  0  0  0999 V2000
  139.2740   70.6530  221.4840 O   0  0  0  0  0  0  0  0  0  0  0  0
  139.4630   71.2410  222.5940 C   0  0  0  0  0  0  0  0  0  0  0  0
  139.4960   72.6780  222.6460 N   0  0  0  0  0  0  0  0  0  0  0  0
  139.3100   73.4090  221.4100 C   0  0  0  0  0  0  0  0  0  0  0  0
  139.3780   74.8480  221.6800 C   0  0  0  0  0  0  0  0  0  0  0  0
  138.4850   75.4690  222.3490 O   0  0  0  0  0  0  0  0  0  0  0  0
  140.4530   75.6580  221.2080 N   0  0  0  0  0  0  0  0  0  0  0  0
  141.8390   75.2190  221.2270 C   0  0  0  0  0  0  0  0  0  0  0  0
  142.4590   75.9630  220.0670 C   0  0  0  0  0  0  0  0  0  0  0  0
  141.3330   76.7880  219.4350 C   0  0  0  0  0  0  0  0  0  0  0  0
  140.4170   76.9960  220.6470 C   0  0  2  0  0  0  0  0  0  0  0  0
  140.9700   78.0300  221.5510 C   0  0  0  0  0  0  0  0  0  0  0  0
  141.0500   77.8400  222.8900 N   0  0  0  0  0  0  0  0  0  0  0  0
  141.5540   78.7790  223.7240 C   0  0  0  0  0  0  0  0  0  0  0  0
  142.0010   79.9710  223.1900 C   0  0  0  0  0  0  0  0  0  0  0  0
  142.6720   81.2560  224.1740 Cl  0  0  0  0  0  0  0  0  0  0  0  0
  141.9130   80.1500  221.8150 C   0  0  0  0  0  0  0  0  0  0  0  0
  141.4030   79.1880  221.0170 N   0  0  0  0  0  0  0  0  0  0  0  0
  139.6510   70.4790  223.8400 C   0  0  0  0  0  0  0  0  0  0  0  0
  139.2270   69.1680  223.8630 C   0  0  0  0  0  0  0  0  0  0  0  0
  139.3580   68.3800  224.9740 C   0  0  0  0  0  0  0  0  0  0  0  0
  139.9360   68.9360  226.0910 C   0  0  0  0  0  0  0  0  0  0  0  0
  140.0760   68.1570  227.2190 C   0  0  0  0  0  0  0  0  0  0  0  0
  140.6570   68.7330  228.3250 C   0  0  0  0  0  0  0  0  0  0  0  0
  140.8090   67.9950  229.4460 F   0  0  0  0  0  0  0  0  0  0  0  0
  141.0660   70.0340  228.2690 C   0  0  0  0  0  0  0  0  0  0  0  0
  140.9410   70.8410  227.1590 C   0  0  0  0  0  0  0  0  0  0  0  0
  140.3540   70.2610  226.0390 C   0  0  0  0  0  0  0  0  0  0  0  0
  140.2130   71.0150  224.9330 N   0  0  0  0  0  0  0  0  0  0  0  0
  139.6530   73.1620  223.5670 H   0  0  0  0  0  0  0  0  0  0  0  0
  140.1005   73.1317  220.6972 H   0  0  0  0  0  0  0  0  0  0  0  0
  138.3275   73.1618  220.9814 H   0  0  0  0  0  0  0  0  0  0  0  0
  142.3254   75.4926  222.1750 H   0  0  0  0  0  0  0  0  0  0  0  0
  141.9445   74.1274  221.1422 H   0  0  0  0  0  0  0  0  0  0  0  0
  143.2618   76.6247  220.4242 H   0  0  0  0  0  0  0  0  0  0  0  0
  142.9039   75.2691  219.3386 H   0  0  0  0  0  0  0  0  0  0  0  0
  141.7047   77.7446  219.0392 H   0  0  0  0  0  0  0  0  0  0  0  0
  140.8463   76.3100  218.5720 H   0  0  0  0  0  0  0  0  0  0  0  0
  139.4015   77.3624  220.4362 H   0  0  0  0  0  0  0  0  0  0  0  0
  141.6065   78.5959  224.8074 H   0  0  0  0  0  0  0  0  0  0  0  0
  142.2650   81.0919  221.3689 H   0  0  0  0  0  0  0  0  0  0  0  0
  138.7684   68.7411  222.9589 H   0  0  0  0  0  0  0  0  0  0  0  0
  139.0122   67.3358  224.9736 H   0  0  0  0  0  0  0  0  0  0  0  0
  139.7352   67.1113  227.2345 H   0  0  0  0  0  0  0  0  0  0  0  0
  141.5259   70.4670  229.1696 H   0  0  0  0  0  0  0  0  0  0  0  0
  141.2861   71.8855  227.1586 H   0  0  0  0  0  0  0  0  0  0  0  0
  1  2  2  0
  2  3  1  0
  3  4  1  0
  4  5  1  0
  5  6  2  0
  5  7  1  0
  7  8  1  0
  8  9  1  0
  9 10  1  0
 10 11  1  0
 11 12  1  0
 12 13  2  0
 13 14  1  0
 14 15  2  0
 15 16  1  0
 15 17  1  0
 17 18  2  0
  2 19  1  0
 19 20  2  0
 20 21  1  0
 21 22  2  0
 22 23  1  0
 23 24  2  0
 24 25  1  0
 24 26  1  0
 26 27  2  0
 27 28  1  0
 28 29  2  0
 11  7  1  0
 18 12  1  0
 29 19  1  0
 28 22  1  0
  3 30  1  0
  4 31  1  0
  4 32  1  0
  8 33  1  0
  8 34  1  0
  9 35  1  0
  9 36  1  0
 10 37  1  0
 10 38  1  0
 11 39  1  6
 14 40  1  0
 17 41  1  0
 20 42  1  0
 21 43  1  0
 23 44  1  0
 26 45  1  0
 27 46  1  0
M  END
>  <smiles>  (46) 
O=C(NCC(=O)N1CCC[C@@H]1c1ncc(Cl)cn1)c1ccc2cc(F)ccc2n1

>  <score_type>  (46) 
oracle

>  <origin>  (46) 
autodockgpu

>  <m_score__min__energy>  (46) 
-8.6099999999999994

>  <m_primary>  (46) 
energy

>  <rmsd>  (46) 
1.9076369827715547

>  <m_score__min__rmsd>  (46) 
1.9076369827715547

>  <meeko>  (46) 
{"free_energy": -8.29, "intermolecular_energy": -9.78, "internal_energy": -1.51, "cluster_size": 36, "cluster_id": 1, "rank_in_cluster": 23}

>  <energy>  (46) 
-7.66

>  <cluster_rmsd>  (46) 
0.52

>  <cluster>  (46) 
3

$$$$

     RDKit          3D

 46 49  0  0  0  0  0  0  0  0999 V2000
  139.9480   73.7790  222.5720 O   0  0  0  0  0  0  0  0  0  0  0  0
  140.3520   72.5790  222.4770 C   0  0  0  0  0  0  0  0  0  0  0  0
  140.9560   72.1220  221.2550 N   0  0  0  0  0  0  0  0  0  0  0  0
  141.0800   73.0640  220.1620 C   0  0  0  0  0  0  0  0  0  0  0  0
  142.1790   73.9920  220.4400 C   0  0  0  0  0  0  0  0  0  0  0  0
  143.2100   73.6600  221.1170 O   0  0  0  0  0  0  0  0  0  0  0  0
  142.1710   75.3390  219.9720 N   0  0  0  0  0  0  0  0  0  0  0  0
  143.3250   75.9640  219.3450 C   0  0  0  0  0  0  0  0  0  0  0  0
  142.7100   76.9850  218.4160 C   0  0  0  0  0  0  0  0  0  0  0  0
  141.1930   76.8490  218.5730 C   0  0  0  0  0  0  0  0  0  0  0  0
  141.1000   76.3180  220.0080 C   0  0  2  0  0  0  0  0  0  0  0  0
  141.3280   77.4060  220.9860 C   0  0  0  0  0  0  0  0  0  0  0  0
  141.1750   77.2130  222.3180 N   0  0  0  0  0  0  0  0  0  0  0  0
  141.3820   78.2010  223.2190 C   0  0  0  0  0  0  0  0  0  0  0  0
  141.7610   79.4480  222.7630 C   0  0  0  0  0  0  0  0  0  0  0  0
  142.0550   80.8000  223.8390 Cl  0  0  0  0  0  0  0  0  0  0  0  0
  141.9140   79.6300  221.3940 C   0  0  0  0  0  0  0  0  0  0  0  0
  141.6980   78.6170  220.5270 N   0  0  0  0  0  0  0  0  0  0  0  0
  140.2170   71.6370  223.6010 C   0  0  0  0  0  0  0  0  0  0  0  0
  139.5660   70.4460  223.3680 C   0  0  0  0  0  0  0  0  0  0  0  0
  139.3910   69.5070  224.3480 C   0  0  0  0  0  0  0  0  0  0  0  0
  139.8910   69.7850  225.6000 C   0  0  0  0  0  0  0  0  0  0  0  0
  139.7240   68.8510  226.5990 C   0  0  0  0  0  0  0  0  0  0  0  0
  140.2320   69.1490  227.8420 C   0  0  0  0  0  0  0  0  0  0  0  0
  140.0850   68.2540  228.8440 F   0  0  0  0  0  0  0  0  0  0  0  0
  140.8730   70.3390  228.0400 C   0  0  0  0  0  0  0  0  0  0  0  0
  141.0570   71.2940  227.0630 C   0  0  0  0  0  0  0  0  0  0  0  0
  140.5440   70.9950  225.8050 C   0  0  0  0  0  0  0  0  0  0  0  0
  140.7020   71.9010  224.8230 N   0  0  0  0  0  0  0  0  0  0  0  0
  141.2900   71.1270  221.1800 H   0  0  0  0  0  0  0  0  0  0  0  0
  141.2875   72.5186  219.2295 H   0  0  0  0  0  0  0  0  0  0  0  0
  140.1416   73.6280  220.0556 H   0  0  0  0  0  0  0  0  0  0  0  0
  143.9653   76.4504  220.0956 H   0  0  0  0  0  0  0  0  0  0  0  0
  143.9721   75.2438  218.8230 H   0  0  0  0  0  0  0  0  0  0  0  0
  143.0327   77.9985  218.6964 H   0  0  0  0  0  0  0  0  0  0  0  0
  143.0211   76.8169  217.3744 H   0  0  0  0  0  0  0  0  0  0  0  0
  140.6863   77.8195  218.4667 H   0  0  0  0  0  0  0  0  0  0  0  0
  140.7123   76.2092  217.8183 H   0  0  0  0  0  0  0  0  0  0  0  0
  140.1284   75.9031  220.3144 H   0  0  0  0  0  0  0  0  0  0  0  0
  141.2508   78.0142  224.2950 H   0  0  0  0  0  0  0  0  0  0  0  0
  142.2161   80.6155  221.0099 H   0  0  0  0  0  0  0  0  0  0  0  0
  139.1736   70.2427  222.3607 H   0  0  0  0  0  0  0  0  0  0  0  0
  138.8681   68.5614  224.1421 H   0  0  0  0  0  0  0  0  0  0  0  0
  139.2030   67.9009  226.4093 H   0  0  0  0  0  0  0  0  0  0  0  0
  141.2682   70.5489  229.0448 H   0  0  0  0  0  0  0  0  0  0  0  0
  141.5804   72.2398  227.2668 H   0  0  0  0  0  0  0  0  0  0  0  0
  1  2  2  0
  2  3  1  0
  3  4  1  0
  4  5  1  0
  5  6  2  0
  5  7  1  0
  7  8  1  0
  8  9  1  0
  9 10  1  0
 10 11  1  0
 11 12  1  0
 12 13  2  0
 13 14  1  0
 14 15  2  0
 15 16  1  0
 15 17  1  0
 17 18  2  0
  2 19  1  0
 19 20  2  0
 20 21  1  0
 21 22  2  0
 22 23  1  0
 23 24  2  0
 24 25  1  0
 24 26  1  0
 26 27  2  0
 27 28  1  0
 28 29  2  0
 11  7  1  0
 18 12  1  0
 29 19  1  0
 28 22  1  0
  3 30  1  0
  4 31  1  0
  4 32  1  0
  8 33  1  0
  8 34  1  0
  9 35  1  0
  9 36  1  0
 10 37  1  0
 10 38  1  0
 11 39  1  1
 14 40  1  0
 17 41  1  0
 20 42  1  0
 21 43  1  0
 23 44  1  0
 26 45  1  0
 27 46  1  0
M  END
>  <smiles>  (47) 
O=C(NCC(=O)N1CCC[C@@H]1c1ncc(Cl)cn1)c1ccc2cc(F)ccc2n1

>  <score_type>  (47) 
oracle

>  <origin>  (47) 
autodockgpu

>  <m_score__min__energy>  (47) 
-8.6099999999999994

>  <m_primary>  (47) 
energy

>  <rmsd>  (47) 
2.3132559515972435

>  <m_score__min__rmsd>  (47) 
2.3132559515972435

>  <meeko>  (47) 
{"free_energy": -8.26, "intermolecular_energy": -9.75, "internal_energy": -1.34, "cluster_size": 36, "cluster_id": 1, "rank_in_cluster": 24}

>  <energy>  (47) 
-7.62

>  <cluster_rmsd>  (47) 
0.59

>  <cluster>  (47) 
3

$$$$

     RDKit          3D

 46 49  0  0  0  0  0  0  0  0999 V2000
  141.0070   71.9850  221.8440 O   0  0  0  0  0  0  0  0  0  0  0  0
  140.0300   71.9390  222.6530 C   0  0  0  0  0  0  0  0  0  0  0  0
  138.8630   72.7450  222.4120 N   0  0  0  0  0  0  0  0  0  0  0  0
  138.8500   73.5900  221.2370 C   0  0  0  0  0  0  0  0  0  0  0  0
  139.1590   74.9700  221.6240 C   0  0  0  0  0  0  0  0  0  0  0  0
  138.4120   75.6520  222.4030 O   0  0  0  0  0  0  0  0  0  0  0  0
  140.3220   75.6480  221.1530 N   0  0  0  0  0  0  0  0  0  0  0  0
  141.6550   75.0740  221.2310 C   0  0  0  0  0  0  0  0  0  0  0  0
  142.3760   75.7030  220.0610 C   0  0  0  0  0  0  0  0  0  0  0  0
  141.3560   76.6070  219.3630 C   0  0  0  0  0  0  0  0  0  0  0  0
  140.4350   76.9570  220.5380 C   0  0  2  0  0  0  0  0  0  0  0  0
  141.0660   77.9690  221.4160 C   0  0  0  0  0  0  0  0  0  0  0  0
  141.6130   79.1040  220.9200 N   0  0  0  0  0  0  0  0  0  0  0  0
  142.1910   80.0340  221.7140 C   0  0  0  0  0  0  0  0  0  0  0  0
  142.2240   79.8170  223.0770 C   0  0  0  0  0  0  0  0  0  0  0  0
  142.9460   80.9520  224.2000 Cl  0  0  0  0  0  0  0  0  0  0  0  0
  141.6570   78.6480  223.5710 C   0  0  0  0  0  0  0  0  0  0  0  0
  141.0900   77.7440  222.7440 N   0  0  0  0  0  0  0  0  0  0  0  0
  140.0640   71.0730  223.8430 C   0  0  0  0  0  0  0  0  0  0  0  0
  139.5620   69.7950  223.7250 C   0  0  0  0  0  0  0  0  0  0  0  0
  139.5500   68.9170  224.7740 C   0  0  0  0  0  0  0  0  0  0  0  0
  140.0620   69.3460  225.9760 C   0  0  0  0  0  0  0  0  0  0  0  0
  140.0580   68.4750  227.0430 C   0  0  0  0  0  0  0  0  0  0  0  0
  140.5750   68.9240  228.2370 C   0  0  0  0  0  0  0  0  0  0  0  0
  140.5860   68.0940  229.3020 F   0  0  0  0  0  0  0  0  0  0  0  0
  141.0650   70.1960  228.3210 C   0  0  0  0  0  0  0  0  0  0  0  0
  141.0840   71.0920  227.2740 C   0  0  0  0  0  0  0  0  0  0  0  0
  140.5620   70.6400  226.0670 C   0  0  0  0  0  0  0  0  0  0  0  0
  140.5610   71.4850  225.0180 N   0  0  0  0  0  0  0  0  0  0  0  0
  138.0550   72.7050  223.0850 H   0  0  0  0  0  0  0  0  0  0  0  0
  139.6039   73.2327  220.5201 H   0  0  0  0  0  0  0  0  0  0  0  0
  137.8544   73.5541  220.7706 H   0  0  0  0  0  0  0  0  0  0  0  0
  142.1421   75.3376  222.1814 H   0  0  0  0  0  0  0  0  0  0  0  0
  141.6522   73.9747  221.1931 H   0  0  0  0  0  0  0  0  0  0  0  0
  143.2315   76.2968  220.4154 H   0  0  0  0  0  0  0  0  0  0  0  0
  142.7677   74.9378  219.3746 H   0  0  0  0  0  0  0  0  0  0  0  0
  141.8320   77.5040  218.9400 H   0  0  0  0  0  0  0  0  0  0  0  0
  140.8461   76.1431  218.5058 H   0  0  0  0  0  0  0  0  0  0  0  0
  139.4672   77.4132  220.2824 H   0  0  0  0  0  0  0  0  0  0  0  0
  142.6269   80.9467  221.2816 H   0  0  0  0  0  0  0  0  0  0  0  0
  141.6705   78.4562  224.6541 H   0  0  0  0  0  0  0  0  0  0  0  0
  139.1575   69.4701  222.7551 H   0  0  0  0  0  0  0  0  0  0  0  0
  139.1441   67.9010  224.6597 H   0  0  0  0  0  0  0  0  0  0  0  0
  139.6556   67.4560  226.9443 H   0  0  0  0  0  0  0  0  0  0  0  0
  141.4713   70.5272  229.2881 H   0  0  0  0  0  0  0  0  0  0  0  0
  141.4896   72.1083  227.3869 H   0  0  0  0  0  0  0  0  0  0  0  0
  1  2  2  0
  2  3  1  0
  3  4  1  0
  4  5  1  0
  5  6  2  0
  5  7  1  0
  7  8  1  0
  8  9  1  0
  9 10  1  0
 10 11  1  0
 11 12  1  0
 12 13  2  0
 13 14  1  0
 14 15  2  0
 15 16  1  0
 15 17  1  0
 17 18  2  0
  2 19  1  0
 19 20  2  0
 20 21  1  0
 21 22  2  0
 22 23  1  0
 23 24  2  0
 24 25  1  0
 24 26  1  0
 26 27  2  0
 27 28  1  0
 28 29  2  0
 11  7  1  0
 18 12  1  0
 29 19  1  0
 28 22  1  0
  3 30  1  0
  4 31  1  0
  4 32  1  0
  8 33  1  0
  8 34  1  0
  9 35  1  0
  9 36  1  0
 10 37  1  0
 10 38  1  0
 11 39  1  6
 14 40  1  0
 17 41  1  0
 20 42  1  0
 21 43  1  0
 23 44  1  0
 26 45  1  0
 27 46  1  0
M  END
>  <smiles>  (48) 
O=C(NCC(=O)N1CCC[C@@H]1c1ncc(Cl)cn1)c1ccc2cc(F)ccc2n1

>  <score_type>  (48) 
oracle

>  <origin>  (48) 
autodockgpu

>  <m_score__min__energy>  (48) 
-8.6099999999999994

>  <m_primary>  (48) 
energy

>  <rmsd>  (48) 
2.1483487427846972

>  <m_score__min__rmsd>  (48) 
2.1483487427846972

>  <meeko>  (48) 
{"free_energy": -8.54, "intermolecular_energy": -10.03, "internal_energy": -1.43, "cluster_size": 36, "cluster_id": 1, "rank_in_cluster": 12}

>  <energy>  (48) 
-7.3

>  <cluster_rmsd>  (48) 
1.99

>  <cluster>  (48) 
3

$$$$

     RDKit          3D

 46 49  0  0  0  0  0  0  0  0999 V2000
  139.7700   73.7760  222.4730 O   0  0  0  0  0  0  0  0  0  0  0  0
  140.2550   72.6090  222.3420 C   0  0  0  0  0  0  0  0  0  0  0  0
  140.8630   72.2220  221.0990 N   0  0  0  0  0  0  0  0  0  0  0  0
  140.9000   73.1940  220.0260 C   0  0  0  0  0  0  0  0  0  0  0  0
  142.1490   73.9580  220.1020 C   0  0  0  0  0  0  0  0  0  0  0  0
  142.1750   75.2210  220.2900 O   0  0  0  0  0  0  0  0  0  0  0  0
  143.4260   73.3390  219.9690 N   0  0  0  0  0  0  0  0  0  0  0  0
  144.3490   73.6560  218.8910 C   0  0  0  0  0  0  0  0  0  0  0  0
  145.7060   73.3920  219.5020 C   0  0  0  0  0  0  0  0  0  0  0  0
  145.4480   72.9470  220.9440 C   0  0  0  0  0  0  0  0  0  0  0  0
  144.0500   72.3320  220.8080 C   0  0  2  0  0  0  0  0  0  0  0  0
  144.1230   70.9970  220.1720 C   0  0  0  0  0  0  0  0  0  0  0  0
  145.2860   70.5000  219.6850 N   0  0  0  0  0  0  0  0  0  0  0  0
  145.3620   69.2810  219.1030 C   0  0  0  0  0  0  0  0  0  0  0  0
  144.2150   68.5190  219.0030 C   0  0  0  0  0  0  0  0  0  0  0  0
  144.1970   66.9280  218.2690 Cl  0  0  0  0  0  0  0  0  0  0  0  0
  143.0310   69.0420  219.5080 C   0  0  0  0  0  0  0  0  0  0  0  0
  142.9970   70.2640  220.0820 N   0  0  0  0  0  0  0  0  0  0  0  0
  140.2070   71.6350  223.4460 C   0  0  0  0  0  0  0  0  0  0  0  0
  139.6480   70.4020  223.1940 C   0  0  0  0  0  0  0  0  0  0  0  0
  139.5590   69.4320  224.1540 C   0  0  0  0  0  0  0  0  0  0  0  0
  140.0520   69.7210  225.4060 C   0  0  0  0  0  0  0  0  0  0  0  0
  139.9710   68.7560  226.3850 C   0  0  0  0  0  0  0  0  0  0  0  0
  140.4700   69.0650  227.6290 C   0  0  0  0  0  0  0  0  0  0  0  0
  140.4050   68.1400  228.6120 F   0  0  0  0  0  0  0  0  0  0  0  0
  141.0190   70.2960  227.8470 C   0  0  0  0  0  0  0  0  0  0  0  0
  141.1150   71.2830  226.8900 C   0  0  0  0  0  0  0  0  0  0  0  0
  140.6110   70.9730  225.6310 C   0  0  0  0  0  0  0  0  0  0  0  0
  140.6860   71.9100  224.6680 N   0  0  0  0  0  0  0  0  0  0  0  0
  141.2640   71.2550  220.9930 H   0  0  0  0  0  0  0  0  0  0  0  0
  140.8465   72.6740  219.0581 H   0  0  0  0  0  0  0  0  0  0  0  0
  140.0446   73.8789  220.1219 H   0  0  0  0  0  0  0  0  0  0  0  0
  144.1760   73.0057  218.0208 H   0  0  0  0  0  0  0  0  0  0  0  0
  144.2383   74.6856  218.5200 H   0  0  0  0  0  0  0  0  0  0  0  0
  146.2264   72.5985  218.9457 H   0  0  0  0  0  0  0  0  0  0  0  0
  146.3415   74.2892  219.4678 H   0  0  0  0  0  0  0  0  0  0  0  0
  146.1870   72.2032  221.2767 H   0  0  0  0  0  0  0  0  0  0  0  0
  145.5211   73.7524  221.6896 H   0  0  0  0  0  0  0  0  0  0  0  0
  143.5083   72.1351  221.7449 H   0  0  0  0  0  0  0  0  0  0  0  0
  146.3203   68.9038  218.7165 H   0  0  0  0  0  0  0  0  0  0  0  0
  142.1059   68.4509  219.4391 H   0  0  0  0  0  0  0  0  0  0  0  0
  139.2600   70.1901  222.1867 H   0  0  0  0  0  0  0  0  0  0  0  0
  139.1083   68.4533  223.9328 H   0  0  0  0  0  0  0  0  0  0  0  0
  139.5230   67.7726  226.1794 H   0  0  0  0  0  0  0  0  0  0  0  0
  141.4101   70.5141  228.8517 H   0  0  0  0  0  0  0  0  0  0  0  0
  141.5655   72.2622  227.1096 H   0  0  0  0  0  0  0  0  0  0  0  0
  1  2  2  0
  2  3  1  0
  3  4  1  0
  4  5  1  0
  5  6  2  0
  5  7  1  0
  7  8  1  0
  8  9  1  0
  9 10  1  0
 10 11  1  0
 11 12  1  0
 12 13  2  0
 13 14  1  0
 14 15  2  0
 15 16  1  0
 15 17  1  0
 17 18  2  0
  2 19  1  0
 19 20  2  0
 20 21  1  0
 21 22  2  0
 22 23  1  0
 23 24  2  0
 24 25  1  0
 24 26  1  0
 26 27  2  0
 27 28  1  0
 28 29  2  0
 11  7  1  0
 18 12  1  0
 29 19  1  0
 28 22  1  0
  3 30  1  0
  4 31  1  0
  4 32  1  0
  8 33  1  0
  8 34  1  0
  9 35  1  0
  9 36  1  0
 10 37  1  0
 10 38  1  0
 11 39  1  1
 14 40  1  0
 17 41  1  0
 20 42  1  0
 21 43  1  0
 23 44  1  0
 26 45  1  0
 27 46  1  0
M  END
>  <smiles>  (49) 
O=C(NCC(=O)N1CCC[C@@H]1c1ncc(Cl)cn1)c1ccc2cc(F)ccc2n1

>  <score_type>  (49) 
oracle

>  <origin>  (49) 
autodockgpu

>  <m_score__min__energy>  (49) 
-8.6099999999999994

>  <m_primary>  (49) 
energy

>  <rmsd>  (49) 
5.712196118089743

>  <m_score__min__rmsd>  (49) 
5.712196118089743

>  <meeko>  (49) 
{"free_energy": -7.3, "intermolecular_energy": -8.79, "internal_energy": -2.16, "cluster_size": 5, "cluster_id": 3, "rank_in_cluster": 4}

>  <energy>  (49) 
-7.29

>  <cluster_rmsd>  (49) 
1.99

>  <cluster>  (49) 
3

$$$$

     RDKit          3D

 46 49  0  0  0  0  0  0  0  0999 V2000
  138.5270   72.6500  222.2330 O   0  0  0  0  0  0  0  0  0  0  0  0
  139.6580   72.3030  222.6960 C   0  0  0  0  0  0  0  0  0  0  0  0
  140.8620   72.8210  222.1040 N   0  0  0  0  0  0  0  0  0  0  0  0
  140.7350   73.7320  220.9860 C   0  0  0  0  0  0  0  0  0  0  0  0
  142.0390   74.3350  220.6960 C   0  0  0  0  0  0  0  0  0  0  0  0
  143.1420   73.7180  220.8820 O   0  0  0  0  0  0  0  0  0  0  0  0
  142.1650   75.6600  220.1860 N   0  0  0  0  0  0  0  0  0  0  0  0
  143.4000   76.1700  219.6110 C   0  0  0  0  0  0  0  0  0  0  0  0
  142.9230   77.2020  218.6150 C   0  0  0  0  0  0  0  0  0  0  0  0
  141.3930   77.1890  218.6820 C   0  0  0  0  0  0  0  0  0  0  0  0
  141.1750   76.7190  220.1250 C   0  0  2  0  0  0  0  0  0  0  0  0
  141.4310   77.8210  221.0800 C   0  0  0  0  0  0  0  0  0  0  0  0
  141.3300   77.6440  222.4190 N   0  0  0  0  0  0  0  0  0  0  0  0
  141.5620   78.6450  223.3000 C   0  0  0  0  0  0  0  0  0  0  0  0
  141.9130   79.8890  222.8140 C   0  0  0  0  0  0  0  0  0  0  0  0
  142.2360   81.2570  223.8610 Cl  0  0  0  0  0  0  0  0  0  0  0  0
  142.0130   80.0550  221.4380 C   0  0  0  0  0  0  0  0  0  0  0  0
  141.7730   79.0290  220.5930 N   0  0  0  0  0  0  0  0  0  0  0  0
  139.7650   71.3760  223.8350 C   0  0  0  0  0  0  0  0  0  0  0  0
  139.2400   70.1110  223.6880 C   0  0  0  0  0  0  0  0  0  0  0  0
  139.2920   69.1800  224.6880 C   0  0  0  0  0  0  0  0  0  0  0  0
  139.8940   69.5410  225.8710 C   0  0  0  0  0  0  0  0  0  0  0  0
  139.9550   68.6160  226.8900 C   0  0  0  0  0  0  0  0  0  0  0  0
  140.5610   68.9990  228.0650 C   0  0  0  0  0  0  0  0  0  0  0  0
  140.6370   68.1140  229.0830 F   0  0  0  0  0  0  0  0  0  0  0  0
  141.0730   70.2600  228.1780 C   0  0  0  0  0  0  0  0  0  0  0  0
  141.0280   71.2080  227.1790 C   0  0  0  0  0  0  0  0  0  0  0  0
  140.4160   70.8240  225.9910 C   0  0  0  0  0  0  0  0  0  0  0  0
  140.3510   71.7220  224.9900 N   0  0  0  0  0  0  0  0  0  0  0  0
  141.7970   72.5320  222.4900 H   0  0  0  0  0  0  0  0  0  0  0  0
  140.3814   73.1807  220.1022 H   0  0  0  0  0  0  0  0  0  0  0  0
  140.0133   74.5230  221.2380 H   0  0  0  0  0  0  0  0  0  0  0  0
  144.0326   76.6315  220.3835 H   0  0  0  0  0  0  0  0  0  0  0  0
  144.0168   75.3833  219.1520 H   0  0  0  0  0  0  0  0  0  0  0  0
  143.3076   78.1969  218.8837 H   0  0  0  0  0  0  0  0  0  0  0  0
  143.2807   76.9735  217.6002 H   0  0  0  0  0  0  0  0  0  0  0  0
  140.9715   78.1911  218.5142 H   0  0  0  0  0  0  0  0  0  0  0  0
  140.9082   76.5616  217.9196 H   0  0  0  0  0  0  0  0  0  0  0  0
  140.1574   76.3915  220.3842 H   0  0  0  0  0  0  0  0  0  0  0  0
  141.4727   78.4709  224.3825 H   0  0  0  0  0  0  0  0  0  0  0  0
  142.2921   81.0378  221.0304 H   0  0  0  0  0  0  0  0  0  0  0  0
  138.7630   69.8408  222.7343 H   0  0  0  0  0  0  0  0  0  0  0  0
  138.8663   68.1750  224.5510 H   0  0  0  0  0  0  0  0  0  0  0  0
  139.5343   67.6069  226.7689 H   0  0  0  0  0  0  0  0  0  0  0  0
  141.5526   70.5370  229.1284 H   0  0  0  0  0  0  0  0  0  0  0  0
  141.4530   72.2136  227.3140 H   0  0  0  0  0  0  0  0  0  0  0  0
  1  2  2  0
  2  3  1  0
  3  4  1  0
  4  5  1  0
  5  6  2  0
  5  7  1  0
  7  8  1  0
  8  9  1  0
  9 10  1  0
 10 11  1  0
 11 12  1  0
 12 13  2  0
 13 14  1  0
 14 15  2  0
 15 16  1  0
 15 17  1  0
 17 18  2  0
  2 19  1  0
 19 20  2  0
 20 21  1  0
 21 22  2  0
 22 23  1  0
 23 24  2  0
 24 25  1  0
 24 26  1  0
 26 27  2  0
 27 28  1  0
 28 29  2  0
 11  7  1  0
 18 12  1  0
 29 19  1  0
 28 22  1  0
  3 30  1  0
  4 31  1  0
  4 32  1  0
  8 33  1  0
  8 34  1  0
  9 35  1  0
  9 36  1  0
 10 37  1  0
 10 38  1  0
 11 39  1  6
 14 40  1  0
 17 41  1  0
 20 42  1  0
 21 43  1  0
 23 44  1  0
 26 45  1  0
 27 46  1  0
M  END
>  <smiles>  (50) 
O=C(NCC(=O)N1CCC[C@@H]1c1ncc(Cl)cn1)c1ccc2cc(F)ccc2n1

>  <score_type>  (50) 
oracle

>  <origin>  (50) 
autodockgpu

>  <m_score__min__energy>  (50) 
-8.6099999999999994

>  <m_primary>  (50) 
energy

>  <rmsd>  (50) 
2.193939738285368

>  <m_score__min__rmsd>  (50) 
2.193939738285368

>  <meeko>  (50) 
{"free_energy": -8.1, "intermolecular_energy": -9.6, "internal_energy": -1.56, "cluster_size": 36, "cluster_id": 1, "rank_in_cluster": 29}

>  <energy>  (50) 
-5.79

>  <cluster_rmsd>  (50) 
0.0

>  <cluster>  (50) 
4

$$$$
