
     RDKit          3D

 65 70  0  0  0  0  0  0  0  0999 V2000
  145.4990   72.9310  217.8270 N   0  0  0  0  0  0  0  0  0  0  0  0
  145.6070   71.8100  218.7380 C   0  0  1  0  0  0  0  0  0  0  0  0
  145.9520   72.2770  220.1510 C   0  0  0  0  0  0  0  0  0  0  0  0
  144.8460   73.0850  220.7580 C   0  0  0  0  0  0  0  0  0  0  0  0
  143.5260   72.6870  220.1480 C   0  0  2  0  0  0  0  0  0  0  0  0
  142.3530   73.1910  220.8820 C   0  0  0  0  0  0  0  0  0  0  0  0
  141.7160   72.3500  221.7140 N   0  0  0  0  0  0  0  0  0  0  0  0
  140.6550   72.7520  222.4000 C   0  0  0  0  0  0  0  0  0  0  0  0
  139.9670   71.8520  223.2960 N   0  0  0  0  0  0  0  0  0  0  0  0
  138.8150   71.1390  222.7880 C   0  0  0  0  0  0  0  0  0  0  0  0
  137.9640   70.5720  223.9070 C   0  0  0  0  0  0  0  0  0  0  0  0
  138.8320   69.8130  224.8780 C   0  0  0  0  0  0  0  0  0  0  0  0
  138.4420   68.6120  225.3940 C   0  0  0  0  0  0  0  0  0  0  0  0
  139.2550   67.9570  226.2670 C   0  0  0  0  0  0  0  0  0  0  0  0
  140.4560   68.5000  226.6240 C   0  0  0  0  0  0  0  0  0  0  0  0
  140.8390   69.7160  226.0940 C   0  0  0  0  0  0  0  0  0  0  0  0
  140.0300   70.4170  225.1950 C   0  0  0  0  0  0  0  0  0  0  0  0
  140.4680   71.7180  224.6480 C   0  0  0  0  0  0  0  0  0  0  0  0
  140.2320   74.0210  222.2430 N   0  0  0  0  0  0  0  0  0  0  0  0
  140.8270   74.9040  221.4280 C   0  0  0  0  0  0  0  0  0  0  0  0
  140.3180   76.2250  221.3180 N   0  0  0  0  0  0  0  0  0  0  0  0
  138.8800   76.4020  221.3840 C   0  0  0  0  0  0  0  0  0  0  0  0
  138.5980   77.0580  222.7190 C   0  0  0  0  0  0  0  0  0  0  0  0
  139.4430   78.2780  222.7930 C   0  0  0  0  0  0  0  0  0  0  0  0
  139.0140   79.2850  223.6310 C   0  0  0  0  0  0  0  0  0  0  0  0
  139.7270   80.4510  223.7680 C   0  0  0  0  0  0  0  0  0  0  0  0
  140.9040   80.6390  223.0580 C   0  0  0  0  0  0  0  0  0  0  0  0
  141.3290   79.6290  222.2210 C   0  0  0  0  0  0  0  0  0  0  0  0
  140.6090   78.4390  222.0760 C   0  0  0  0  0  0  0  0  0  0  0  0
  141.1330   77.3860  221.1480 C   0  0  0  0  0  0  0  0  0  0  0  0
  141.9040   74.4660  220.7440 N   0  0  0  0  0  0  0  0  0  0  0  0
  143.5330   71.1950  219.9480 C   0  0  0  0  0  0  0  0  0  0  0  0
  144.4030   70.9240  218.7140 C   0  0  0  0  0  0  0  0  0  0  0  0
  145.9490   73.7910  218.2180 H   0  0  0  0  0  0  0  0  0  0  0  0
  144.5120   73.1770  217.6120 H   0  0  0  0  0  0  0  0  0  0  0  0
  146.4415   71.1887  218.3808 H   0  0  0  0  0  0  0  0  0  0  0  0
  146.8617   72.8940  220.1094 H   0  0  0  0  0  0  0  0  0  0  0  0
  146.1058   71.3854  220.7767 H   0  0  0  0  0  0  0  0  0  0  0  0
  145.0282   74.1531  220.5685 H   0  0  0  0  0  0  0  0  0  0  0  0
  144.8148   72.8999  221.8419 H   0  0  0  0  0  0  0  0  0  0  0  0
  143.4196   73.1764  219.1686 H   0  0  0  0  0  0  0  0  0  0  0  0
  138.2029   71.8311  222.1911 H   0  0  0  0  0  0  0  0  0  0  0  0
  139.1758   70.3001  222.1748 H   0  0  0  0  0  0  0  0  0  0  0  0
  137.4600   71.3951  224.4348 H   0  0  0  0  0  0  0  0  0  0  0  0
  137.2144   69.8889  223.4811 H   0  0  0  0  0  0  0  0  0  0  0  0
  137.4746   68.1749  225.1057 H   0  0  0  0  0  0  0  0  0  0  0  0
  138.9441   66.9885  226.6858 H   0  0  0  0  0  0  0  0  0  0  0  0
  141.1143   67.9718  227.3295 H   0  0  0  0  0  0  0  0  0  0  0  0
  141.8083   70.1454  226.3875 H   0  0  0  0  0  0  0  0  0  0  0  0
  140.0710   72.5329  225.2712 H   0  0  0  0  0  0  0  0  0  0  0  0
  141.5668   71.7695  224.6447 H   0  0  0  0  0  0  0  0  0  0  0  0
  138.5367   77.0470  220.5617 H   0  0  0  0  0  0  0  0  0  0  0  0
  138.3523   75.4415  221.2890 H   0  0  0  0  0  0  0  0  0  0  0  0
  137.5346   77.3307  222.7884 H   0  0  0  0  0  0  0  0  0  0  0  0
  138.8264   76.3724  223.5483 H   0  0  0  0  0  0  0  0  0  0  0  0
  138.0826   79.1522  224.2010 H   0  0  0  0  0  0  0  0  0  0  0  0
  139.3632   81.2392  224.4436 H   0  0  0  0  0  0  0  0  0  0  0  0
  141.4827   81.5689  223.1600 H   0  0  0  0  0  0  0  0  0  0  0  0
  142.2604   79.7631  221.6514 H   0  0  0  0  0  0  0  0  0  0  0  0
  141.0739   77.7382  220.1076 H   0  0  0  0  0  0  0  0  0  0  0  0
  142.1856   77.1587  221.3722 H   0  0  0  0  0  0  0  0  0  0  0  0
  142.5094   70.8297  219.7787 H   0  0  0  0  0  0  0  0  0  0  0  0
  143.9282   70.6771  220.8343 H   0  0  0  0  0  0  0  0  0  0  0  0
  143.8190   71.1262  217.8040 H   0  0  0  0  0  0  0  0  0  0  0  0
  144.7260   69.8725  218.7214 H   0  0  0  0  0  0  0  0  0  0  0  0
  1  2  1  0
  2  3  1  0
  3  4  1  0
  4  5  1  0
  5  6  1  0
  6  7  2  0
  7  8  1  0
  8  9  1  0
  9 10  1  0
 10 11  1  0
 11 12  1  0
 12 13  2  0
 13 14  1  0
 14 15  2  0
 15 16  1  0
 16 17  2  0
 17 18  1  0
  8 19  2  0
 19 20  1  0
 20 21  1  0
 21 22  1  0
 22 23  1  0
 23 24  1  0
 24 25  2  0
 25 26  1  0
 26 27  2  0
 27 28  1  0
 28 29  2  0
 29 30  1  0
 20 31  2  0
  5 32  1  0
 32 33  1  0
 33  2  1  0
 31  6  1  0
 18  9  1  0
 30 21  1  0
 17 12  1  0
 29 24  1  0
  1 34  1  0
  1 35  1  0
  2 36  1  6
  3 37  1  0
  3 38  1  0
  4 39  1  0
  4 40  1  0
  5 41  1  6
 10 42  1  0
 10 43  1  0
 11 44  1  0
 11 45  1  0
 13 46  1  0
 14 47  1  0
 15 48  1  0
 16 49  1  0
 18 50  1  0
 18 51  1  0
 22 52  1  0
 22 53  1  0
 23 54  1  0
 23 55  1  0
 25 56  1  0
 26 57  1  0
 27 58  1  0
 28 59  1  0
 30 60  1  0
 30 61  1  0
 32 62  1  0
 32 63  1  0
 33 64  1  0
 33 65  1  0
M  END
>  <smiles>  (1) 
N[C@H]1CC[C@H](c2nc(N3CCc4ccccc4C3)nc(N3CCc4ccccc4C3)n2)CC1

>  <score_type>  (1) 
oracle

>  <origin>  (1) 
autodockgpu

>  <m_score__min__energy>  (1) 
-10.24

>  <m_primary>  (1) 
energy

>  <rmsd>  (1) 
10.793491279108272

>  <m_score__min__rmsd>  (1) 
10.793491279108272

>  <meeko>  (1) 
{"free_energy": -10.15, "intermolecular_energy": -11.34, "internal_energy": -1.0, "cluster_size": 40, "cluster_id": 1, "rank_in_cluster": 14}

>  <energy>  (1) 
-10.24

>  <cluster_rmsd>  (1) 
0.0

>  <cluster>  (1) 
1

$$$$

     RDKit          3D

 65 70  0  0  0  0  0  0  0  0999 V2000
  145.9620   73.3910  218.0710 N   0  0  0  0  0  0  0  0  0  0  0  0
  145.5160   72.0260  218.2560 C   0  0  1  0  0  0  0  0  0  0  0  0
  145.6200   71.6030  219.7200 C   0  0  0  0  0  0  0  0  0  0  0  0
  144.6760   72.3740  220.5910 C   0  0  0  0  0  0  0  0  0  0  0  0
  143.4910   72.8360  219.7820 C   0  0  2  0  0  0  0  0  0  0  0  0
  142.3680   73.3290  220.5970 C   0  0  0  0  0  0  0  0  0  0  0  0
  141.7690   72.4690  221.4380 N   0  0  0  0  0  0  0  0  0  0  0  0
  140.7530   72.8610  222.1950 C   0  0  0  0  0  0  0  0  0  0  0  0
  140.1070   71.9410  223.1020 N   0  0  0  0  0  0  0  0  0  0  0  0
  138.9810   71.1800  222.6060 C   0  0  0  0  0  0  0  0  0  0  0  0
  138.1610   70.5880  223.7350 C   0  0  0  0  0  0  0  0  0  0  0  0
  139.0640   69.8690  224.7060 C   0  0  0  0  0  0  0  0  0  0  0  0
  138.7250   68.6580  225.2320 C   0  0  0  0  0  0  0  0  0  0  0  0
  139.5690   68.0420  226.1040 C   0  0  0  0  0  0  0  0  0  0  0  0
  140.7500   68.6330  226.4480 C   0  0  0  0  0  0  0  0  0  0  0  0
  141.0820   69.8600  225.9070 C   0  0  0  0  0  0  0  0  0  0  0  0
  140.2390   70.5220  225.0100 C   0  0  0  0  0  0  0  0  0  0  0  0
  140.6220   71.8350  224.4510 C   0  0  0  0  0  0  0  0  0  0  0  0
  140.3360   74.1380  222.1000 N   0  0  0  0  0  0  0  0  0  0  0  0
  140.8940   75.0390  221.2780 C   0  0  0  0  0  0  0  0  0  0  0  0
  140.3940   76.3680  221.2370 N   0  0  0  0  0  0  0  0  0  0  0  0
  138.9630   76.5550  221.3830 C   0  0  0  0  0  0  0  0  0  0  0  0
  138.7580   77.1710  222.7510 C   0  0  0  0  0  0  0  0  0  0  0  0
  139.6190   78.3800  222.8200 C   0  0  0  0  0  0  0  0  0  0  0  0
  139.2440   79.3640  223.7100 C   0  0  0  0  0  0  0  0  0  0  0  0
  139.9760   80.5180  223.8470 C   0  0  0  0  0  0  0  0  0  0  0  0
  141.1170   80.7180  223.0830 C   0  0  0  0  0  0  0  0  0  0  0  0
  141.4870   79.7310  222.1940 C   0  0  0  0  0  0  0  0  0  0  0  0
  140.7480   78.5540  222.0490 C   0  0  0  0  0  0  0  0  0  0  0  0
  141.2120   77.5260  221.0620 C   0  0  0  0  0  0  0  0  0  0  0  0
  141.9250   74.6120  220.5220 N   0  0  0  0  0  0  0  0  0  0  0  0
  143.1210   71.7360  218.8240 C   0  0  0  0  0  0  0  0  0  0  0  0
  144.1540   71.7780  217.6900 C   0  0  0  0  0  0  0  0  0  0  0  0
  146.4750   73.7470  218.9110 H   0  0  0  0  0  0  0  0  0  0  0  0
  145.1750   74.0480  217.8980 H   0  0  0  0  0  0  0  0  0  0  0  0
  146.1994   71.3868  217.6778 H   0  0  0  0  0  0  0  0  0  0  0  0
  146.6487   71.7771  220.0686 H   0  0  0  0  0  0  0  0  0  0  0  0
  145.3543   70.5377  219.7875 H   0  0  0  0  0  0  0  0  0  0  0  0
  145.1965   73.2490  221.0075 H   0  0  0  0  0  0  0  0  0  0  0  0
  144.3258   71.7255  221.4076 H   0  0  0  0  0  0  0  0  0  0  0  0
  143.7736   73.7292  219.2055 H   0  0  0  0  0  0  0  0  0  0  0  0
  138.3381   71.8434  222.0088 H   0  0  0  0  0  0  0  0  0  0  0  0
  139.3701   70.3520  221.9952 H   0  0  0  0  0  0  0  0  0  0  0  0
  137.6292   71.3946  224.2609 H   0  0  0  0  0  0  0  0  0  0  0  0
  137.4361   69.8731  223.3186 H   0  0  0  0  0  0  0  0  0  0  0  0
  137.7739   68.1810  224.9530 H   0  0  0  0  0  0  0  0  0  0  0  0
  139.2986   67.0656  226.5325 H   0  0  0  0  0  0  0  0  0  0  0  0
  141.4334   68.1354  227.1518 H   0  0  0  0  0  0  0  0  0  0  0  0
  142.0360   70.3289  226.1899 H   0  0  0  0  0  0  0  0  0  0  0  0
  140.1981   72.6380  225.0718 H   0  0  0  0  0  0  0  0  0  0  0  0
  141.7179   71.9286  224.4390 H   0  0  0  0  0  0  0  0  0  0  0  0
  138.5841   77.2286  220.6002 H   0  0  0  0  0  0  0  0  0  0  0  0
  138.4210   75.6028  221.2855 H   0  0  0  0  0  0  0  0  0  0  0  0
  137.7027   77.4514  222.8841 H   0  0  0  0  0  0  0  0  0  0  0  0
  139.0218   76.4570  223.5451 H   0  0  0  0  0  0  0  0  0  0  0  0
  138.3412   79.2221  224.3221 H   0  0  0  0  0  0  0  0  0  0  0  0
  139.6564   81.2871  224.5655 H   0  0  0  0  0  0  0  0  0  0  0  0
  141.7102   81.6389  223.1838 H   0  0  0  0  0  0  0  0  0  0  0  0
  142.3895   79.8743  221.5816 H   0  0  0  0  0  0  0  0  0  0  0  0
  141.1035   77.9120  220.0377 H   0  0  0  0  0  0  0  0  0  0  0  0
  142.2721   77.2815  221.2243 H   0  0  0  0  0  0  0  0  0  0  0  0
  142.1105   71.9051  218.4236 H   0  0  0  0  0  0  0  0  0  0  0  0
  143.1206   70.7566  219.3248 H   0  0  0  0  0  0  0  0  0  0  0  0
  143.8961   72.5869  216.9906 H   0  0  0  0  0  0  0  0  0  0  0  0
  144.1506   70.8146  217.1591 H   0  0  0  0  0  0  0  0  0  0  0  0
  1  2  1  0
  2  3  1  0
  3  4  1  0
  4  5  1  0
  5  6  1  0
  6  7  2  0
  7  8  1  0
  8  9  1  0
  9 10  1  0
 10 11  1  0
 11 12  1  0
 12 13  2  0
 13 14  1  0
 14 15  2  0
 15 16  1  0
 16 17  2  0
 17 18  1  0
  8 19  2  0
 19 20  1  0
 20 21  1  0
 21 22  1  0
 22 23  1  0
 23 24  1  0
 24 25  2  0
 25 26  1  0
 26 27  2  0
 27 28  1  0
 28 29  2  0
 29 30  1  0
 20 31  2  0
  5 32  1  0
 32 33  1  0
 33  2  1  0
 31  6  1  0
 18  9  1  0
 30 21  1  0
 17 12  1  0
 29 24  1  0
  1 34  1  0
  1 35  1  0
  2 36  1  6
  3 37  1  0
  3 38  1  0
  4 39  1  0
  4 40  1  0
  5 41  1  6
 10 42  1  0
 10 43  1  0
 11 44  1  0
 11 45  1  0
 13 46  1  0
 14 47  1  0
 15 48  1  0
 16 49  1  0
 18 50  1  0
 18 51  1  0
 22 52  1  0
 22 53  1  0
 23 54  1  0
 23 55  1  0
 25 56  1  0
 26 57  1  0
 27 58  1  0
 28 59  1  0
 30 60  1  0
 30 61  1  0
 32 62  1  0
 32 63  1  0
 33 64  1  0
 33 65  1  0
M  END
>  <smiles>  (2) 
N[C@H]1CC[C@H](c2nc(N3CCc4ccccc4C3)nc(N3CCc4ccccc4C3)n2)CC1

>  <score_type>  (2) 
oracle

>  <origin>  (2) 
autodockgpu

>  <m_score__min__energy>  (2) 
-10.24

>  <m_primary>  (2) 
energy

>  <rmsd>  (2) 
10.612197038536246

>  <m_score__min__rmsd>  (2) 
10.612197038536246

>  <meeko>  (2) 
{"free_energy": -10.2, "intermolecular_energy": -11.39, "internal_energy": -0.99, "cluster_size": 40, "cluster_id": 1, "rank_in_cluster": 6}

>  <energy>  (2) 
-10.23

>  <cluster_rmsd>  (2) 
0.45

>  <cluster>  (2) 
1

$$$$

     RDKit          3D

 65 70  0  0  0  0  0  0  0  0999 V2000
  145.6510   73.0250  218.0270 N   0  0  0  0  0  0  0  0  0  0  0  0
  145.9330   72.1470  219.1440 C   0  0  1  0  0  0  0  0  0  0  0  0
  146.1700   72.9420  220.4270 C   0  0  0  0  0  0  0  0  0  0  0  0
  144.9320   73.6560  220.8780 C   0  0  0  0  0  0  0  0  0  0  0  0
  143.7090   72.9240  220.3850 C   0  0  2  0  0  0  0  0  0  0  0  0
  142.4560   73.3600  221.0230 C   0  0  0  0  0  0  0  0  0  0  0  0
  141.7930   72.4760  221.7880 N   0  0  0  0  0  0  0  0  0  0  0  0
  140.6600   72.8170  222.3860 C   0  0  0  0  0  0  0  0  0  0  0  0
  139.9440   71.8710  223.2100 N   0  0  0  0  0  0  0  0  0  0  0  0
  138.8790   71.1070  222.5970 C   0  0  0  0  0  0  0  0  0  0  0  0
  137.9650   70.4820  223.6310 C   0  0  0  0  0  0  0  0  0  0  0  0
  138.7830   69.7550  224.6680 C   0  0  0  0  0  0  0  0  0  0  0  0
  138.4120   68.5290  225.1370 C   0  0  0  0  0  0  0  0  0  0  0  0
  139.1790   67.9050  226.0720 C   0  0  0  0  0  0  0  0  0  0  0  0
  140.3140   68.5020  226.5370 C   0  0  0  0  0  0  0  0  0  0  0  0
  140.6790   69.7440  226.0540 C   0  0  0  0  0  0  0  0  0  0  0  0
  139.9150   70.4150  225.0940 C   0  0  0  0  0  0  0  0  0  0  0  0
  140.3320   71.7440  224.5990 C   0  0  0  0  0  0  0  0  0  0  0  0
  140.1890   74.0660  222.2090 N   0  0  0  0  0  0  0  0  0  0  0  0
  140.8070   74.9890  221.4570 C   0  0  0  0  0  0  0  0  0  0  0  0
  140.2440   76.2860  221.3200 N   0  0  0  0  0  0  0  0  0  0  0  0
  138.8010   76.4070  221.3910 C   0  0  0  0  0  0  0  0  0  0  0  0
  138.5000   77.0820  222.7130 C   0  0  0  0  0  0  0  0  0  0  0  0
  139.2960   78.3360  222.7540 C   0  0  0  0  0  0  0  0  0  0  0  0
  138.8310   79.3440  223.5700 C   0  0  0  0  0  0  0  0  0  0  0  0
  139.4970   80.5400  223.6760 C   0  0  0  0  0  0  0  0  0  0  0  0
  140.6620   80.7590  222.9550 C   0  0  0  0  0  0  0  0  0  0  0  0
  141.1230   79.7480  222.1390 C   0  0  0  0  0  0  0  0  0  0  0  0
  140.4510   78.5270  222.0260 C   0  0  0  0  0  0  0  0  0  0  0  0
  141.0120   77.4740  221.1190 C   0  0  0  0  0  0  0  0  0  0  0  0
  141.9580   74.6140  220.8620 N   0  0  0  0  0  0  0  0  0  0  0  0
  143.9730   71.4460  220.4910 C   0  0  0  0  0  0  0  0  0  0  0  0
  144.8970   71.0830  219.3210 C   0  0  0  0  0  0  0  0  0  0  0  0
  145.9710   74.0040  218.2160 H   0  0  0  0  0  0  0  0  0  0  0  0
  144.6370   73.0770  217.8050 H   0  0  0  0  0  0  0  0  0  0  0  0
  146.8672   71.6175  218.9055 H   0  0  0  0  0  0  0  0  0  0  0  0
  146.9619   73.6834  220.2449 H   0  0  0  0  0  0  0  0  0  0  0  0
  146.4631   72.2351  221.2172 H   0  0  0  0  0  0  0  0  0  0  0  0
  144.9329   74.6788  220.4732 H   0  0  0  0  0  0  0  0  0  0  0  0
  144.9144   73.6913  221.9773 H   0  0  0  0  0  0  0  0  0  0  0  0
  143.5371   73.1789  219.3288 H   0  0  0  0  0  0  0  0  0  0  0  0
  138.2858   71.7751  221.9554 H   0  0  0  0  0  0  0  0  0  0  0  0
  139.3352   70.2960  222.0104 H   0  0  0  0  0  0  0  0  0  0  0  0
  137.3744   71.2708  224.1199 H   0  0  0  0  0  0  0  0  0  0  0  0
  137.2925   69.7671  223.1344 H   0  0  0  0  0  0  0  0  0  0  0  0
  137.4973   68.0471  224.7613 H   0  0  0  0  0  0  0  0  0  0  0  0
  138.8830   66.9167  226.4538 H   0  0  0  0  0  0  0  0  0  0  0  0
  140.9349   67.9976  227.2920 H   0  0  0  0  0  0  0  0  0  0  0  0
  141.5956   70.2179  226.4350 H   0  0  0  0  0  0  0  0  0  0  0  0
  139.8414   72.5295  225.1925 H   0  0  0  0  0  0  0  0  0  0  0  0
  141.4229   71.8505  224.6921 H   0  0  0  0  0  0  0  0  0  0  0  0
  138.4278   77.0187  220.5564 H   0  0  0  0  0  0  0  0  0  0  0  0
  138.3117   75.4243  221.3212 H   0  0  0  0  0  0  0  0  0  0  0  0
  137.4269   77.3137  222.7828 H   0  0  0  0  0  0  0  0  0  0  0  0
  138.7600   76.4253  223.5563 H   0  0  0  0  0  0  0  0  0  0  0  0
  137.9082   79.1876  224.1479 H   0  0  0  0  0  0  0  0  0  0  0  0
  139.1051   81.3282  224.3356 H   0  0  0  0  0  0  0  0  0  0  0  0
  141.2032   81.7135  223.0324 H   0  0  0  0  0  0  0  0  0  0  0  0
  142.0452   79.9063  221.5607 H   0  0  0  0  0  0  0  0  0  0  0  0
  140.9342   77.7996  220.0712 H   0  0  0  0  0  0  0  0  0  0  0  0
  142.0738   77.2934  221.3424 H   0  0  0  0  0  0  0  0  0  0  0  0
  143.0294   70.8853  220.4180 H   0  0  0  0  0  0  0  0  0  0  0  0
  144.4357   71.1930  221.4563 H   0  0  0  0  0  0  0  0  0  0  0  0
  144.3024   70.9956  218.3997 H   0  0  0  0  0  0  0  0  0  0  0  0
  145.3935   70.1249  219.5343 H   0  0  0  0  0  0  0  0  0  0  0  0
  1  2  1  0
  2  3  1  0
  3  4  1  0
  4  5  1  0
  5  6  1  0
  6  7  2  0
  7  8  1  0
  8  9  1  0
  9 10  1  0
 10 11  1  0
 11 12  1  0
 12 13  2  0
 13 14  1  0
 14 15  2  0
 15 16  1  0
 16 17  2  0
 17 18  1  0
  8 19  2  0
 19 20  1  0
 20 21  1  0
 21 22  1  0
 22 23  1  0
 23 24  1  0
 24 25  2  0
 25 26  1  0
 26 27  2  0
 27 28  1  0
 28 29  2  0
 29 30  1  0
 20 31  2  0
  5 32  1  0
 32 33  1  0
 33  2  1  0
 31  6  1  0
 18  9  1  0
 30 21  1  0
 17 12  1  0
 29 24  1  0
  1 34  1  0
  1 35  1  0
  2 36  1  6
  3 37  1  0
  3 38  1  0
  4 39  1  0
  4 40  1  0
  5 41  1  6
 10 42  1  0
 10 43  1  0
 11 44  1  0
 11 45  1  0
 13 46  1  0
 14 47  1  0
 15 48  1  0
 16 49  1  0
 18 50  1  0
 18 51  1  0
 22 52  1  0
 22 53  1  0
 23 54  1  0
 23 55  1  0
 25 56  1  0
 26 57  1  0
 27 58  1  0
 28 59  1  0
 30 60  1  0
 30 61  1  0
 32 62  1  0
 32 63  1  0
 33 64  1  0
 33 65  1  0
M  END
>  <smiles>  (3) 
N[C@H]1CC[C@H](c2nc(N3CCc4ccccc4C3)nc(N3CCc4ccccc4C3)n2)CC1

>  <score_type>  (3) 
oracle

>  <origin>  (3) 
autodockgpu

>  <m_score__min__energy>  (3) 
-10.24

>  <m_primary>  (3) 
energy

>  <rmsd>  (3) 
10.731503792376602

>  <m_score__min__rmsd>  (3) 
10.731503792376602

>  <meeko>  (3) 
{"free_energy": -10.08, "intermolecular_energy": -11.27, "internal_energy": -1.0, "cluster_size": 40, "cluster_id": 1, "rank_in_cluster": 26}

>  <energy>  (3) 
-10.22

>  <cluster_rmsd>  (3) 
0.46

>  <cluster>  (3) 
1

$$$$

     RDKit          3D

 65 70  0  0  0  0  0  0  0  0999 V2000
  141.9130   78.4340  221.5860 N   0  0  0  0  0  0  0  0  0  0  0  0
  140.6600   78.1840  220.9030 C   0  0  1  0  0  0  0  0  0  0  0  0
  140.8770   77.3710  219.6290 C   0  0  0  0  0  0  0  0  0  0  0  0
  141.3680   75.9870  219.9260 C   0  0  0  0  0  0  0  0  0  0  0  0
  140.9070   75.5630  221.2980 C   0  0  2  0  0  0  0  0  0  0  0  0
  141.0690   74.1230  221.5620 C   0  0  0  0  0  0  0  0  0  0  0  0
  141.9780   73.4440  220.8430 N   0  0  0  0  0  0  0  0  0  0  0  0
  142.1630   72.1460  221.0400 C   0  0  0  0  0  0  0  0  0  0  0  0
  143.1400   71.4110  220.2700 N   0  0  0  0  0  0  0  0  0  0  0  0
  144.4590   71.9870  220.1220 C   0  0  0  0  0  0  0  0  0  0  0  0
  145.2290   71.3480  218.9840 C   0  0  0  0  0  0  0  0  0  0  0  0
  145.1770   69.8460  219.1080 C   0  0  0  0  0  0  0  0  0  0  0  0
  146.2800   69.0750  218.8910 C   0  0  0  0  0  0  0  0  0  0  0  0
  146.1920   67.7220  219.0160 C   0  0  0  0  0  0  0  0  0  0  0  0
  145.0060   67.1410  219.3570 C   0  0  0  0  0  0  0  0  0  0  0  0
  143.8960   67.9340  219.5740 C   0  0  0  0  0  0  0  0  0  0  0  0
  143.9480   69.3250  219.4550 C   0  0  0  0  0  0  0  0  0  0  0  0
  142.7420   70.1450  219.6910 C   0  0  0  0  0  0  0  0  0  0  0  0
  141.4210   71.5260  221.9760 N   0  0  0  0  0  0  0  0  0  0  0  0
  140.4990   72.1510  222.7240 C   0  0  0  0  0  0  0  0  0  0  0  0
  139.7560   71.4240  223.6920 N   0  0  0  0  0  0  0  0  0  0  0  0
  138.6800   70.5750  223.2180 C   0  0  0  0  0  0  0  0  0  0  0  0
  139.1560   69.1500  223.4060 C   0  0  0  0  0  0  0  0  0  0  0  0
  139.5650   69.0100  224.8270 C   0  0  0  0  0  0  0  0  0  0  0  0
  139.5420   67.7390  225.3610 C   0  0  0  0  0  0  0  0  0  0  0  0
  139.9040   67.5080  226.6660 C   0  0  0  0  0  0  0  0  0  0  0  0
  140.3020   68.5590  227.4790 C   0  0  0  0  0  0  0  0  0  0  0  0
  140.3220   69.8280  226.9400 C   0  0  0  0  0  0  0  0  0  0  0  0
  139.9560   70.0720  225.6130 C   0  0  0  0  0  0  0  0  0  0  0  0
  140.0040   71.4780  225.0980 C   0  0  0  0  0  0  0  0  0  0  0  0
  140.3330   73.4710  222.5010 N   0  0  0  0  0  0  0  0  0  0  0  0
  139.5060   76.0730  221.5000 C   0  0  0  0  0  0  0  0  0  0  0  0
  139.6260   77.5740  221.7950 C   0  0  0  0  0  0  0  0  0  0  0  0
  142.6060   78.9060  220.9580 H   0  0  0  0  0  0  0  0  0  0  0  0
  142.3630   77.5620  221.9290 H   0  0  0  0  0  0  0  0  0  0  0  0
  140.2574   79.1634  220.6053 H   0  0  0  0  0  0  0  0  0  0  0  0
  141.6201   77.8849  219.0015 H   0  0  0  0  0  0  0  0  0  0  0  0
  139.9107   77.2858  219.1103 H   0  0  0  0  0  0  0  0  0  0  0  0
  142.4673   75.9744  219.8904 H   0  0  0  0  0  0  0  0  0  0  0  0
  140.9640   75.2905  219.1766 H   0  0  0  0  0  0  0  0  0  0  0  0
  141.5622   76.0174  222.0558 H   0  0  0  0  0  0  0  0  0  0  0  0
  144.3566   73.0638  219.9219 H   0  0  0  0  0  0  0  0  0  0  0  0
  145.0160   71.8085  221.0536 H   0  0  0  0  0  0  0  0  0  0  0  0
  144.7814   71.6505  218.0258 H   0  0  0  0  0  0  0  0  0  0  0  0
  146.2773   71.6785  219.0258 H   0  0  0  0  0  0  0  0  0  0  0  0
  147.2365   69.5436  218.6163 H   0  0  0  0  0  0  0  0  0  0  0  0
  147.0795   67.0960  218.8416 H   0  0  0  0  0  0  0  0  0  0  0  0
  144.9339   66.0481  219.4585 H   0  0  0  0  0  0  0  0  0  0  0  0
  142.9438   67.4565  219.8484 H   0  0  0  0  0  0  0  0  0  0  0  0
  142.2238   70.3222  218.7370 H   0  0  0  0  0  0  0  0  0  0  0  0
  142.0628   69.6188  220.3779 H   0  0  0  0  0  0  0  0  0  0  0  0
  137.7666   70.7530  223.8045 H   0  0  0  0  0  0  0  0  0  0  0  0
  138.4383   70.7825  222.1651 H   0  0  0  0  0  0  0  0  0  0  0  0
  138.3418   68.4468  223.1767 H   0  0  0  0  0  0  0  0  0  0  0  0
  139.9966   68.9260  222.7328 H   0  0  0  0  0  0  0  0  0  0  0  0
  139.2280   66.8942  224.7304 H   0  0  0  0  0  0  0  0  0  0  0  0
  139.8781   66.4845  227.0681 H   0  0  0  0  0  0  0  0  0  0  0  0
  140.5937   68.3849  228.5252 H   0  0  0  0  0  0  0  0  0  0  0  0
  140.6348   70.6722  227.5720 H   0  0  0  0  0  0  0  0  0  0  0  0
  139.2331   72.0868  225.5931 H   0  0  0  0  0  0  0  0  0  0  0  0
  140.9833   71.9349  225.3035 H   0  0  0  0  0  0  0  0  0  0  0  0
  139.0321   75.5560  222.3474 H   0  0  0  0  0  0  0  0  0  0  0  0
  138.8848   75.8912  220.6106 H   0  0  0  0  0  0  0  0  0  0  0  0
  139.9192   77.7175  222.8455 H   0  0  0  0  0  0  0  0  0  0  0  0
  138.6559   78.0591  221.6116 H   0  0  0  0  0  0  0  0  0  0  0  0
  1  2  1  0
  2  3  1  0
  3  4  1  0
  4  5  1  0
  5  6  1  0
  6  7  2  0
  7  8  1  0
  8  9  1  0
  9 10  1  0
 10 11  1  0
 11 12  1  0
 12 13  2  0
 13 14  1  0
 14 15  2  0
 15 16  1  0
 16 17  2  0
 17 18  1  0
  8 19  2  0
 19 20  1  0
 20 21  1  0
 21 22  1  0
 22 23  1  0
 23 24  1  0
 24 25  2  0
 25 26  1  0
 26 27  2  0
 27 28  1  0
 28 29  2  0
 29 30  1  0
 20 31  2  0
  5 32  1  0
 32 33  1  0
 33  2  1  0
 31  6  1  0
 18  9  1  0
 30 21  1  0
 17 12  1  0
 29 24  1  0
  1 34  1  0
  1 35  1  0
  2 36  1  6
  3 37  1  0
  3 38  1  0
  4 39  1  0
  4 40  1  0
  5 41  1  1
 10 42  1  0
 10 43  1  0
 11 44  1  0
 11 45  1  0
 13 46  1  0
 14 47  1  0
 15 48  1  0
 16 49  1  0
 18 50  1  0
 18 51  1  0
 22 52  1  0
 22 53  1  0
 23 54  1  0
 23 55  1  0
 25 56  1  0
 26 57  1  0
 27 58  1  0
 28 59  1  0
 30 60  1  0
 30 61  1  0
 32 62  1  0
 32 63  1  0
 33 64  1  0
 33 65  1  0
M  END
>  <smiles>  (4) 
N[C@H]1CC[C@H](c2nc(N3CCc4ccccc4C3)nc(N3CCc4ccccc4C3)n2)CC1

>  <score_type>  (4) 
oracle

>  <origin>  (4) 
autodockgpu

>  <m_score__min__energy>  (4) 
-10.24

>  <m_primary>  (4) 
energy

>  <rmsd>  (4) 
10.904141509948147

>  <m_score__min__rmsd>  (4) 
10.904141509948147

>  <meeko>  (4) 
{"free_energy": -9.93, "intermolecular_energy": -11.12, "internal_energy": -1.02, "cluster_size": 10, "cluster_id": 2, "rank_in_cluster": 2}

>  <energy>  (4) 
-10.21

>  <cluster_rmsd>  (4) 
0.48

>  <cluster>  (4) 
1

$$$$

     RDKit          3D

 65 70  0  0  0  0  0  0  0  0999 V2000
  141.8730   78.4240  221.6830 N   0  0  0  0  0  0  0  0  0  0  0  0
  140.6860   78.1610  220.8950 C   0  0  1  0  0  0  0  0  0  0  0  0
  141.0210   77.3560  219.6410 C   0  0  0  0  0  0  0  0  0  0  0  0
  141.5020   75.9770  219.9750 C   0  0  0  0  0  0  0  0  0  0  0  0
  140.9320   75.5420  221.3010 C   0  0  2  0  0  0  0  0  0  0  0  0
  141.0890   74.1030  221.5730 C   0  0  0  0  0  0  0  0  0  0  0  0
  141.9890   73.4140  220.8510 N   0  0  0  0  0  0  0  0  0  0  0  0
  142.1700   72.1170  221.0550 C   0  0  0  0  0  0  0  0  0  0  0  0
  143.1370   71.3730  220.2830 N   0  0  0  0  0  0  0  0  0  0  0  0
  144.4570   71.9430  220.1190 C   0  0  0  0  0  0  0  0  0  0  0  0
  145.2150   71.2920  218.9790 C   0  0  0  0  0  0  0  0  0  0  0  0
  145.1580   69.7910  219.1150 C   0  0  0  0  0  0  0  0  0  0  0  0
  146.2570   69.0140  218.8950 C   0  0  0  0  0  0  0  0  0  0  0  0
  146.1650   67.6630  219.0300 C   0  0  0  0  0  0  0  0  0  0  0  0
  144.9790   67.0890  219.3860 C   0  0  0  0  0  0  0  0  0  0  0  0
  143.8740   67.8870  219.6070 C   0  0  0  0  0  0  0  0  0  0  0  0
  143.9310   69.2780  219.4770 C   0  0  0  0  0  0  0  0  0  0  0  0
  142.7300   70.1040  219.7170 C   0  0  0  0  0  0  0  0  0  0  0  0
  141.4320   71.5070  222.0020 N   0  0  0  0  0  0  0  0  0  0  0  0
  140.5190   72.1410  222.7520 C   0  0  0  0  0  0  0  0  0  0  0  0
  139.7800   71.4240  223.7300 N   0  0  0  0  0  0  0  0  0  0  0  0
  138.7010   70.5720  223.2700 C   0  0  0  0  0  0  0  0  0  0  0  0
  139.1770   69.1480  223.4690 C   0  0  0  0  0  0  0  0  0  0  0  0
  139.5930   69.0210  224.8900 C   0  0  0  0  0  0  0  0  0  0  0  0
  139.5720   67.7560  225.4360 C   0  0  0  0  0  0  0  0  0  0  0  0
  139.9400   67.5360  226.7410 C   0  0  0  0  0  0  0  0  0  0  0  0
  140.3420   68.5950  227.5420 C   0  0  0  0  0  0  0  0  0  0  0  0
  140.3610   69.8590  226.9910 C   0  0  0  0  0  0  0  0  0  0  0  0
  139.9890   70.0900  225.6640 C   0  0  0  0  0  0  0  0  0  0  0  0
  140.0350   71.4910  225.1350 C   0  0  0  0  0  0  0  0  0  0  0  0
  140.3580   73.4600  222.5220 N   0  0  0  0  0  0  0  0  0  0  0  0
  139.5120   76.0330  221.3840 C   0  0  0  0  0  0  0  0  0  0  0  0
  139.5880   77.5340  221.6940 C   0  0  0  0  0  0  0  0  0  0  0  0
  142.5780   78.9800  221.1430 H   0  0  0  0  0  0  0  0  0  0  0  0
  142.3490   77.5530  221.9910 H   0  0  0  0  0  0  0  0  0  0  0  0
  140.2976   79.1365  220.5671 H   0  0  0  0  0  0  0  0  0  0  0  0
  141.8084   77.8815  219.0808 H   0  0  0  0  0  0  0  0  0  0  0  0
  140.1038   77.2614  219.0412 H   0  0  0  0  0  0  0  0  0  0  0  0
  142.6005   75.9779  220.0328 H   0  0  0  0  0  0  0  0  0  0  0  0
  141.1715   75.2786  219.1921 H   0  0  0  0  0  0  0  0  0  0  0  0
  141.5145   76.0016  222.1130 H   0  0  0  0  0  0  0  0  0  0  0  0
  144.3569   73.0186  219.9114 H   0  0  0  0  0  0  0  0  0  0  0  0
  145.0214   71.7697  221.0471 H   0  0  0  0  0  0  0  0  0  0  0  0
  144.7605   71.5890  218.0223 H   0  0  0  0  0  0  0  0  0  0  0  0
  146.2650   71.6186  219.0094 H   0  0  0  0  0  0  0  0  0  0  0  0
  147.2132   69.4771  218.6098 H   0  0  0  0  0  0  0  0  0  0  0  0
  147.0484   67.0322  218.8518 H   0  0  0  0  0  0  0  0  0  0  0  0
  144.9039   65.9971  219.4962 H   0  0  0  0  0  0  0  0  0  0  0  0
  142.9224   67.4153  219.8933 H   0  0  0  0  0  0  0  0  0  0  0  0
  142.2043   70.2758  218.7661 H   0  0  0  0  0  0  0  0  0  0  0  0
  142.0550   69.5853  220.4137 H   0  0  0  0  0  0  0  0  0  0  0  0
  137.7909   70.7564  223.8598 H   0  0  0  0  0  0  0  0  0  0  0  0
  138.4537   70.7698  222.2166 H   0  0  0  0  0  0  0  0  0  0  0  0
  138.3611   68.4434  223.2502 H   0  0  0  0  0  0  0  0  0  0  0  0
  140.0141   68.9170  222.7938 H   0  0  0  0  0  0  0  0  0  0  0  0
  139.2543   66.9057  224.8147 H   0  0  0  0  0  0  0  0  0  0  0  0
  139.9159   66.5162  227.1525 H   0  0  0  0  0  0  0  0  0  0  0  0
  140.6377   68.4308  228.5887 H   0  0  0  0  0  0  0  0  0  0  0  0
  140.6777   70.7090  227.6133 H   0  0  0  0  0  0  0  0  0  0  0  0
  139.2668   72.1049  225.6280 H   0  0  0  0  0  0  0  0  0  0  0  0
  141.0156   71.9491  225.3312 H   0  0  0  0  0  0  0  0  0  0  0  0
  138.9739   75.5061  222.1857 H   0  0  0  0  0  0  0  0  0  0  0  0
  138.9712   75.8475  220.4443 H   0  0  0  0  0  0  0  0  0  0  0  0
  139.7896   77.6758  222.7660 H   0  0  0  0  0  0  0  0  0  0  0  0
  138.6309   78.0082  221.4311 H   0  0  0  0  0  0  0  0  0  0  0  0
  1  2  1  0
  2  3  1  0
  3  4  1  0
  4  5  1  0
  5  6  1  0
  6  7  2  0
  7  8  1  0
  8  9  1  0
  9 10  1  0
 10 11  1  0
 11 12  1  0
 12 13  2  0
 13 14  1  0
 14 15  2  0
 15 16  1  0
 16 17  2  0
 17 18  1  0
  8 19  2  0
 19 20  1  0
 20 21  1  0
 21 22  1  0
 22 23  1  0
 23 24  1  0
 24 25  2  0
 25 26  1  0
 26 27  2  0
 27 28  1  0
 28 29  2  0
 29 30  1  0
 20 31  2  0
  5 32  1  0
 32 33  1  0
 33  2  1  0
 31  6  1  0
 18  9  1  0
 30 21  1  0
 17 12  1  0
 29 24  1  0
  1 34  1  0
  1 35  1  0
  2 36  1  6
  3 37  1  0
  3 38  1  0
  4 39  1  0
  4 40  1  0
  5 41  1  1
 10 42  1  0
 10 43  1  0
 11 44  1  0
 11 45  1  0
 13 46  1  0
 14 47  1  0
 15 48  1  0
 16 49  1  0
 18 50  1  0
 18 51  1  0
 22 52  1  0
 22 53  1  0
 23 54  1  0
 23 55  1  0
 25 56  1  0
 26 57  1  0
 27 58  1  0
 28 59  1  0
 30 60  1  0
 30 61  1  0
 32 62  1  0
 32 63  1  0
 33 64  1  0
 33 65  1  0
M  END
>  <smiles>  (5) 
N[C@H]1CC[C@H](c2nc(N3CCc4ccccc4C3)nc(N3CCc4ccccc4C3)n2)CC1

>  <score_type>  (5) 
oracle

>  <origin>  (5) 
autodockgpu

>  <m_score__min__energy>  (5) 
-10.24

>  <m_primary>  (5) 
energy

>  <rmsd>  (5) 
10.936500751867971

>  <m_score__min__rmsd>  (5) 
10.936500751867971

>  <meeko>  (5) 
{"free_energy": -9.94, "intermolecular_energy": -11.13, "internal_energy": -1.02, "cluster_size": 10, "cluster_id": 2, "rank_in_cluster": 1}

>  <energy>  (5) 
-10.21

>  <cluster_rmsd>  (5) 
0.47

>  <cluster>  (5) 
1

$$$$

     RDKit          3D

 65 70  0  0  0  0  0  0  0  0999 V2000
  145.5960   73.1040  217.9830 N   0  0  0  0  0  0  0  0  0  0  0  0
  145.9460   72.3240  219.1520 C   0  0  1  0  0  0  0  0  0  0  0  0
  146.1600   73.2190  220.3710 C   0  0  0  0  0  0  0  0  0  0  0  0
  144.8920   73.8920  220.7980 C   0  0  0  0  0  0  0  0  0  0  0  0
  143.7040   73.0610  220.3830 C   0  0  2  0  0  0  0  0  0  0  0  0
  142.4390   73.4700  221.0170 C   0  0  0  0  0  0  0  0  0  0  0  0
  141.7850   72.5680  221.7680 N   0  0  0  0  0  0  0  0  0  0  0  0
  140.6420   72.8840  222.3610 C   0  0  0  0  0  0  0  0  0  0  0  0
  139.9350   71.9190  223.1690 N   0  0  0  0  0  0  0  0  0  0  0  0
  138.8800   71.1520  222.5420 C   0  0  0  0  0  0  0  0  0  0  0  0
  137.9710   70.5020  223.5660 C   0  0  0  0  0  0  0  0  0  0  0  0
  138.7950   69.7690  224.5940 C   0  0  0  0  0  0  0  0  0  0  0  0
  138.4370   68.5330  225.0430 C   0  0  0  0  0  0  0  0  0  0  0  0
  139.2090   67.9030  225.9710 C   0  0  0  0  0  0  0  0  0  0  0  0
  140.3370   68.5060  226.4470 C   0  0  0  0  0  0  0  0  0  0  0  0
  140.6880   69.7590  225.9830 C   0  0  0  0  0  0  0  0  0  0  0  0
  139.9200   70.4350  225.0320 C   0  0  0  0  0  0  0  0  0  0  0  0
  140.3220   71.7760  224.5570 C   0  0  0  0  0  0  0  0  0  0  0  0
  140.1530   74.1280  222.1930 N   0  0  0  0  0  0  0  0  0  0  0  0
  140.7620   75.0680  221.4550 C   0  0  0  0  0  0  0  0  0  0  0  0
  140.1800   76.3580  221.3280 N   0  0  0  0  0  0  0  0  0  0  0  0
  138.7350   76.4560  221.4010 C   0  0  0  0  0  0  0  0  0  0  0  0
  138.4270   77.1180  222.7280 C   0  0  0  0  0  0  0  0  0  0  0  0
  139.2040   78.3840  222.7760 C   0  0  0  0  0  0  0  0  0  0  0  0
  138.7250   79.3800  223.5990 C   0  0  0  0  0  0  0  0  0  0  0  0
  139.3740   80.5850  223.7120 C   0  0  0  0  0  0  0  0  0  0  0  0
  140.5340   80.8260  222.9900 C   0  0  0  0  0  0  0  0  0  0  0  0
  141.0080   79.8270  222.1670 C   0  0  0  0  0  0  0  0  0  0  0  0
  140.3540   78.5970  222.0470 C   0  0  0  0  0  0  0  0  0  0  0  0
  140.9290   77.5590  221.1330 C   0  0  0  0  0  0  0  0  0  0  0  0
  141.9230   74.7180  220.8650 N   0  0  0  0  0  0  0  0  0  0  0  0
  144.0540   71.6110  220.5850 C   0  0  0  0  0  0  0  0  0  0  0  0
  144.9760   71.2190  219.4240 C   0  0  0  0  0  0  0  0  0  0  0  0
  145.7220   74.1290  218.1520 H   0  0  0  0  0  0  0  0  0  0  0  0
  144.6080   72.9660  217.6920 H   0  0  0  0  0  0  0  0  0  0  0  0
  146.9044   71.8314  218.9312 H   0  0  0  0  0  0  0  0  0  0  0  0
  146.9047   73.9890  220.1208 H   0  0  0  0  0  0  0  0  0  0  0  0
  146.5075   72.5871  221.2016 H   0  0  0  0  0  0  0  0  0  0  0  0
  144.8275   74.8825  220.3240 H   0  0  0  0  0  0  0  0  0  0  0  0
  144.8918   74.0023  221.8925 H   0  0  0  0  0  0  0  0  0  0  0  0
  143.4988   73.2320  219.3159 H   0  0  0  0  0  0  0  0  0  0  0  0
  138.2806   71.8226  221.9087 H   0  0  0  0  0  0  0  0  0  0  0  0
  139.3461   70.3549  221.9442 H   0  0  0  0  0  0  0  0  0  0  0  0
  137.3712   71.2773  224.0651 H   0  0  0  0  0  0  0  0  0  0  0  0
  137.3073   69.7869  223.0580 H   0  0  0  0  0  0  0  0  0  0  0  0
  137.5287   68.0467  224.6576 H   0  0  0  0  0  0  0  0  0  0  0  0
  138.9230   66.9062  226.3377 H   0  0  0  0  0  0  0  0  0  0  0  0
  140.9627   67.9976  227.1953 H   0  0  0  0  0  0  0  0  0  0  0  0
  141.5980   70.2379  226.3735 H   0  0  0  0  0  0  0  0  0  0  0  0
  139.8211   72.5469  225.1610 H   0  0  0  0  0  0  0  0  0  0  0  0
  141.4114   71.8938  224.6536 H   0  0  0  0  0  0  0  0  0  0  0  0
  138.3511   77.0672  220.5709 H   0  0  0  0  0  0  0  0  0  0  0  0
  138.2601   75.4667  221.3249 H   0  0  0  0  0  0  0  0  0  0  0  0
  137.3507   77.3329  222.8016 H   0  0  0  0  0  0  0  0  0  0  0  0
  138.6992   76.4597  223.5662 H   0  0  0  0  0  0  0  0  0  0  0  0
  137.8051   79.2066  224.1766 H   0  0  0  0  0  0  0  0  0  0  0  0
  138.9722   81.3628  224.3781 H   0  0  0  0  0  0  0  0  0  0  0  0
  141.0610   81.7880  223.0721 H   0  0  0  0  0  0  0  0  0  0  0  0
  141.9268   80.0024  221.5882 H   0  0  0  0  0  0  0  0  0  0  0  0
  140.8441   77.8898  220.0873 H   0  0  0  0  0  0  0  0  0  0  0  0
  141.9939   77.3935  221.3534 H   0  0  0  0  0  0  0  0  0  0  0  0
  143.1429   70.9948  220.5713 H   0  0  0  0  0  0  0  0  0  0  0  0
  144.5474   71.4527  221.5553 H   0  0  0  0  0  0  0  0  0  0  0  0
  144.3713   71.0341  218.5239 H   0  0  0  0  0  0  0  0  0  0  0  0
  145.5300   70.3073  219.6921 H   0  0  0  0  0  0  0  0  0  0  0  0
  1  2  1  0
  2  3  1  0
  3  4  1  0
  4  5  1  0
  5  6  1  0
  6  7  2  0
  7  8  1  0
  8  9  1  0
  9 10  1  0
 10 11  1  0
 11 12  1  0
 12 13  2  0
 13 14  1  0
 14 15  2  0
 15 16  1  0
 16 17  2  0
 17 18  1  0
  8 19  2  0
 19 20  1  0
 20 21  1  0
 21 22  1  0
 22 23  1  0
 23 24  1  0
 24 25  2  0
 25 26  1  0
 26 27  2  0
 27 28  1  0
 28 29  2  0
 29 30  1  0
 20 31  2  0
  5 32  1  0
 32 33  1  0
 33  2  1  0
 31  6  1  0
 18  9  1  0
 30 21  1  0
 17 12  1  0
 29 24  1  0
  1 34  1  0
  1 35  1  0
  2 36  1  6
  3 37  1  0
  3 38  1  0
  4 39  1  0
  4 40  1  0
  5 41  1  6
 10 42  1  0
 10 43  1  0
 11 44  1  0
 11 45  1  0
 13 46  1  0
 14 47  1  0
 15 48  1  0
 16 49  1  0
 18 50  1  0
 18 51  1  0
 22 52  1  0
 22 53  1  0
 23 54  1  0
 23 55  1  0
 25 56  1  0
 26 57  1  0
 27 58  1  0
 28 59  1  0
 30 60  1  0
 30 61  1  0
 32 62  1  0
 32 63  1  0
 33 64  1  0
 33 65  1  0
M  END
>  <smiles>  (6) 
N[C@H]1CC[C@H](c2nc(N3CCc4ccccc4C3)nc(N3CCc4ccccc4C3)n2)CC1

>  <score_type>  (6) 
oracle

>  <origin>  (6) 
autodockgpu

>  <m_score__min__energy>  (6) 
-10.24

>  <m_primary>  (6) 
energy

>  <rmsd>  (6) 
10.680412680127224

>  <m_score__min__rmsd>  (6) 
10.680412680127224

>  <meeko>  (6) 
{"free_energy": -10.0, "intermolecular_energy": -11.19, "internal_energy": -1.0, "cluster_size": 40, "cluster_id": 1, "rank_in_cluster": 36}

>  <energy>  (6) 
-10.2

>  <cluster_rmsd>  (6) 
0.59

>  <cluster>  (6) 
1

$$$$

     RDKit          3D

 65 70  0  0  0  0  0  0  0  0999 V2000
  145.8790   73.3930  218.0890 N   0  0  0  0  0  0  0  0  0  0  0  0
  145.5850   72.0330  218.4900 C   0  0  1  0  0  0  0  0  0  0  0  0
  145.7740   71.8460  219.9940 C   0  0  0  0  0  0  0  0  0  0  0  0
  144.7800   72.6410  220.7850 C   0  0  0  0  0  0  0  0  0  0  0  0
  143.5300   72.8570  219.9690 C   0  0  2  0  0  0  0  0  0  0  0  0
  142.3860   73.3520  220.7520 C   0  0  0  0  0  0  0  0  0  0  0  0
  141.7790   72.5010  221.5970 N   0  0  0  0  0  0  0  0  0  0  0  0
  140.7440   72.8950  222.3250 C   0  0  0  0  0  0  0  0  0  0  0  0
  140.0890   71.9840  223.2350 N   0  0  0  0  0  0  0  0  0  0  0  0
  138.9150   71.2810  222.7620 C   0  0  0  0  0  0  0  0  0  0  0  0
  138.1070   70.7010  223.9060 C   0  0  0  0  0  0  0  0  0  0  0  0
  139.0100   69.9250  224.8320 C   0  0  0  0  0  0  0  0  0  0  0  0
  138.6370   68.7180  225.3450 C   0  0  0  0  0  0  0  0  0  0  0  0
  139.4820   68.0490  226.1760 C   0  0  0  0  0  0  0  0  0  0  0  0
  140.6970   68.5830  226.4930 C   0  0  0  0  0  0  0  0  0  0  0  0
  141.0630   69.8060  225.9650 C   0  0  0  0  0  0  0  0  0  0  0  0
  140.2220   70.5210  225.1090 C   0  0  0  0  0  0  0  0  0  0  0  0
  140.6420   71.8290  224.5640 C   0  0  0  0  0  0  0  0  0  0  0  0
  140.3150   74.1650  222.1990 N   0  0  0  0  0  0  0  0  0  0  0  0
  140.8800   75.0580  221.3730 C   0  0  0  0  0  0  0  0  0  0  0  0
  140.3680   76.3800  221.2980 N   0  0  0  0  0  0  0  0  0  0  0  0
  138.9310   76.5530  221.3920 C   0  0  0  0  0  0  0  0  0  0  0  0
  138.6720   77.1830  222.7450 C   0  0  0  0  0  0  0  0  0  0  0  0
  139.5170   78.4030  222.8280 C   0  0  0  0  0  0  0  0  0  0  0  0
  139.1010   79.3930  223.6920 C   0  0  0  0  0  0  0  0  0  0  0  0
  139.8150   80.5560  223.8400 C   0  0  0  0  0  0  0  0  0  0  0  0
  140.9790   80.7600  223.1140 C   0  0  0  0  0  0  0  0  0  0  0  0
  141.3910   79.7670  222.2500 C   0  0  0  0  0  0  0  0  0  0  0  0
  140.6700   78.5800  222.0950 C   0  0  0  0  0  0  0  0  0  0  0  0
  141.1790   77.5450  221.1370 C   0  0  0  0  0  0  0  0  0  0  0  0
  141.9320   74.6290  220.6460 N   0  0  0  0  0  0  0  0  0  0  0  0
  143.2500   71.5950  219.1990 C   0  0  0  0  0  0  0  0  0  0  0  0
  144.2400   71.5690  218.0270 C   0  0  0  0  0  0  0  0  0  0  0  0
  146.7200   73.7690  218.5880 H   0  0  0  0  0  0  0  0  0  0  0  0
  145.0950   74.0460  218.2850 H   0  0  0  0  0  0  0  0  0  0  0  0
  146.3153   71.3863  217.9816 H   0  0  0  0  0  0  0  0  0  0  0  0
  146.7884   72.1712  220.2681 H   0  0  0  0  0  0  0  0  0  0  0  0
  145.6223   70.7817  220.2270 H   0  0  0  0  0  0  0  0  0  0  0  0
  145.2178   73.6156  221.0467 H   0  0  0  0  0  0  0  0  0  0  0  0
  144.5233   72.0905  221.7021 H   0  0  0  0  0  0  0  0  0  0  0  0
  143.7009   73.6772  219.2562 H   0  0  0  0  0  0  0  0  0  0  0  0
  138.2822   71.9831  222.1992 H   0  0  0  0  0  0  0  0  0  0  0  0
  139.2484   70.4499  222.1231 H   0  0  0  0  0  0  0  0  0  0  0  0
  137.6275   71.5182  224.4647 H   0  0  0  0  0  0  0  0  0  0  0  0
  137.3387   70.0262  223.5006 H   0  0  0  0  0  0  0  0  0  0  0  0
  137.6579   68.2871  225.0885 H   0  0  0  0  0  0  0  0  0  0  0  0
  139.1848   67.0755  226.5931 H   0  0  0  0  0  0  0  0  0  0  0  0
  141.3807   68.0431  227.1647 H   0  0  0  0  0  0  0  0  0  0  0  0
  142.0444   70.2287  226.2260 H   0  0  0  0  0  0  0  0  0  0  0  0
  140.2721   72.6356  225.2140 H   0  0  0  0  0  0  0  0  0  0  0  0
  141.7400   71.8779  224.5183 H   0  0  0  0  0  0  0  0  0  0  0  0
  138.5725   77.2131  220.5885 H   0  0  0  0  0  0  0  0  0  0  0  0
  138.4028   75.5938  221.2873 H   0  0  0  0  0  0  0  0  0  0  0  0
  137.6097   77.4527  222.8385 H   0  0  0  0  0  0  0  0  0  0  0  0
  138.9161   76.4817  223.5566 H   0  0  0  0  0  0  0  0  0  0  0  0
  138.1790   79.2483  224.2742 H   0  0  0  0  0  0  0  0  0  0  0  0
  139.4623   81.3298  224.5377 H   0  0  0  0  0  0  0  0  0  0  0  0
  141.5580   81.6888  223.2243 H   0  0  0  0  0  0  0  0  0  0  0  0
  142.3123   79.9134  221.6670 H   0  0  0  0  0  0  0  0  0  0  0  0
  141.1018   77.9174  220.1048 H   0  0  0  0  0  0  0  0  0  0  0  0
  142.2355   77.3144  221.3388 H   0  0  0  0  0  0  0  0  0  0  0  0
  142.2163   71.6011  218.8229 H   0  0  0  0  0  0  0  0  0  0  0  0
  143.3664   70.7065  219.8370 H   0  0  0  0  0  0  0  0  0  0  0  0
  143.8789   72.2343  217.2289 H   0  0  0  0  0  0  0  0  0  0  0  0
  144.3223   70.5413  217.6435 H   0  0  0  0  0  0  0  0  0  0  0  0
  1  2  1  0
  2  3  1  0
  3  4  1  0
  4  5  1  0
  5  6  1  0
  6  7  2  0
  7  8  1  0
  8  9  1  0
  9 10  1  0
 10 11  1  0
 11 12  1  0
 12 13  2  0
 13 14  1  0
 14 15  2  0
 15 16  1  0
 16 17  2  0
 17 18  1  0
  8 19  2  0
 19 20  1  0
 20 21  1  0
 21 22  1  0
 22 23  1  0
 23 24  1  0
 24 25  2  0
 25 26  1  0
 26 27  2  0
 27 28  1  0
 28 29  2  0
 29 30  1  0
 20 31  2  0
  5 32  1  0
 32 33  1  0
 33  2  1  0
 31  6  1  0
 18  9  1  0
 30 21  1  0
 17 12  1  0
 29 24  1  0
  1 34  1  0
  1 35  1  0
  2 36  1  6
  3 37  1  0
  3 38  1  0
  4 39  1  0
  4 40  1  0
  5 41  1  6
 10 42  1  0
 10 43  1  0
 11 44  1  0
 11 45  1  0
 13 46  1  0
 14 47  1  0
 15 48  1  0
 16 49  1  0
 18 50  1  0
 18 51  1  0
 22 52  1  0
 22 53  1  0
 23 54  1  0
 23 55  1  0
 25 56  1  0
 26 57  1  0
 27 58  1  0
 28 59  1  0
 30 60  1  0
 30 61  1  0
 32 62  1  0
 32 63  1  0
 33 64  1  0
 33 65  1  0
M  END
>  <smiles>  (7) 
N[C@H]1CC[C@H](c2nc(N3CCc4ccccc4C3)nc(N3CCc4ccccc4C3)n2)CC1

>  <score_type>  (7) 
oracle

>  <origin>  (7) 
autodockgpu

>  <m_score__min__energy>  (7) 
-10.24

>  <m_primary>  (7) 
energy

>  <rmsd>  (7) 
10.660280119181571

>  <m_score__min__rmsd>  (7) 
10.660280119181571

>  <meeko>  (7) 
{"free_energy": -10.23, "intermolecular_energy": -11.42, "internal_energy": -0.99, "cluster_size": 40, "cluster_id": 1, "rank_in_cluster": 2}

>  <energy>  (7) 
-10.19

>  <cluster_rmsd>  (7) 
0.45

>  <cluster>  (7) 
1

$$$$

     RDKit          3D

 65 70  0  0  0  0  0  0  0  0999 V2000
  141.7410   78.1040  222.5060 N   0  0  0  0  0  0  0  0  0  0  0  0
  140.7100   77.9710  221.4980 C   0  0  1  0  0  0  0  0  0  0  0  0
  141.2800   77.4190  220.1930 C   0  0  0  0  0  0  0  0  0  0  0  0
  141.7670   76.0100  220.3480 C   0  0  0  0  0  0  0  0  0  0  0  0
  141.0130   75.3260  221.4600 C   0  0  2  0  0  0  0  0  0  0  0  0
  141.1930   73.8650  221.4920 C   0  0  0  0  0  0  0  0  0  0  0  0
  140.6530   73.1810  222.5150 N   0  0  0  0  0  0  0  0  0  0  0  0
  140.7850   71.8640  222.5920 C   0  0  0  0  0  0  0  0  0  0  0  0
  140.2060   71.1240  223.6880 N   0  0  0  0  0  0  0  0  0  0  0  0
  139.4400   69.9370  223.3760 C   0  0  0  0  0  0  0  0  0  0  0  0
  138.5670   69.5070  224.5380 C   0  0  0  0  0  0  0  0  0  0  0  0
  139.3860   69.4470  225.8020 C   0  0  0  0  0  0  0  0  0  0  0  0
  139.2520   68.4210  226.6890 C   0  0  0  0  0  0  0  0  0  0  0  0
  140.0120   68.4020  227.8190 C   0  0  0  0  0  0  0  0  0  0  0  0
  140.9050   69.4060  228.0600 C   0  0  0  0  0  0  0  0  0  0  0  0
  141.0310   70.4390  227.1530 C   0  0  0  0  0  0  0  0  0  0  0  0
  140.2670   70.4920  225.9830 C   0  0  0  0  0  0  0  0  0  0  0  0
  140.4240   71.6130  225.0330 C   0  0  0  0  0  0  0  0  0  0  0  0
  141.4710   71.2290  221.6230 N   0  0  0  0  0  0  0  0  0  0  0  0
  142.0320   71.8590  220.5790 C   0  0  0  0  0  0  0  0  0  0  0  0
  142.7410   71.1160  219.5980 N   0  0  0  0  0  0  0  0  0  0  0  0
  143.7690   71.8060  218.8420 C   0  0  0  0  0  0  0  0  0  0  0  0
  145.0920   71.2560  219.3340 C   0  0  0  0  0  0  0  0  0  0  0  0
  145.0250   69.7770  219.2090 C   0  0  0  0  0  0  0  0  0  0  0  0
  146.2220   69.1050  219.0990 C   0  0  0  0  0  0  0  0  0  0  0  0
  146.2640   67.7370  218.9800 C   0  0  0  0  0  0  0  0  0  0  0  0
  145.0890   67.0000  218.9670 C   0  0  0  0  0  0  0  0  0  0  0  0
  143.8930   67.6770  219.0760 C   0  0  0  0  0  0  0  0  0  0  0  0
  143.8420   69.0690  219.1980 C   0  0  0  0  0  0  0  0  0  0  0  0
  142.5050   69.7360  219.3130 C   0  0  0  0  0  0  0  0  0  0  0  0
  141.8810   73.1980  220.5280 N   0  0  0  0  0  0  0  0  0  0  0  0
  139.5760   75.7690  221.3930 C   0  0  0  0  0  0  0  0  0  0  0  0
  139.5290   77.1880  221.9760 C   0  0  0  0  0  0  0  0  0  0  0  0
  142.6810   78.2730  222.0770 H   0  0  0  0  0  0  0  0  0  0  0  0
  141.8300   77.2570  223.1020 H   0  0  0  0  0  0  0  0  0  0  0  0
  140.3328   78.9836  221.2921 H   0  0  0  0  0  0  0  0  0  0  0  0
  142.1210   78.0531  219.8758 H   0  0  0  0  0  0  0  0  0  0  0  0
  140.4764   77.4214  219.4418 H   0  0  0  0  0  0  0  0  0  0  0  0
  142.8406   76.0194  220.5873 H   0  0  0  0  0  0  0  0  0  0  0  0
  141.6003   75.4637  219.4079 H   0  0  0  0  0  0  0  0  0  0  0  0
  141.4356   75.6366  222.4269 H   0  0  0  0  0  0  0  0  0  0  0  0
  138.7984   70.1458  222.5072 H   0  0  0  0  0  0  0  0  0  0  0  0
  140.1465   69.1220  223.1601 H   0  0  0  0  0  0  0  0  0  0  0  0
  137.7495   70.2316  224.6674 H   0  0  0  0  0  0  0  0  0  0  0  0
  138.1516   68.5102  224.3287 H   0  0  0  0  0  0  0  0  0  0  0  0
  138.5331   67.6118  226.4931 H   0  0  0  0  0  0  0  0  0  0  0  0
  139.9061   67.5766  228.5384 H   0  0  0  0  0  0  0  0  0  0  0  0
  141.5205   69.3919  228.9715 H   0  0  0  0  0  0  0  0  0  0  0  0
  141.7531   71.2435  227.3564 H   0  0  0  0  0  0  0  0  0  0  0  0
  139.6888   72.3980  225.2639 H   0  0  0  0  0  0  0  0  0  0  0  0
  141.4375   72.0323  225.1166 H   0  0  0  0  0  0  0  0  0  0  0  0
  143.6496   71.6084  217.7665 H   0  0  0  0  0  0  0  0  0  0  0  0
  143.7090   72.8953  218.9830 H   0  0  0  0  0  0  0  0  0  0  0  0
  145.9157   71.6494  218.7202 H   0  0  0  0  0  0  0  0  0  0  0  0
  145.2750   71.5524  220.3774 H   0  0  0  0  0  0  0  0  0  0  0  0
  147.1629   69.6748  219.1066 H   0  0  0  0  0  0  0  0  0  0  0  0
  147.2333   67.2241  218.8947 H   0  0  0  0  0  0  0  0  0  0  0  0
  145.1109   65.9043  218.8722 H   0  0  0  0  0  0  0  0  0  0  0  0
  142.9527   67.1062  219.0668 H   0  0  0  0  0  0  0  0  0  0  0  0
  141.9521   69.6363  218.3673 H   0  0  0  0  0  0  0  0  0  0  0  0
  141.9055   69.2711  220.1095 H   0  0  0  0  0  0  0  0  0  0  0  0
  138.9422   75.0934  221.9862 H   0  0  0  0  0  0  0  0  0  0  0  0
  139.2026   75.7517  220.3585 H   0  0  0  0  0  0  0  0  0  0  0  0
  139.5480   77.1324  223.0744 H   0  0  0  0  0  0  0  0  0  0  0  0
  138.6053   77.6859  221.6461 H   0  0  0  0  0  0  0  0  0  0  0  0
  1  2  1  0
  2  3  1  0
  3  4  1  0
  4  5  1  0
  5  6  1  0
  6  7  2  0
  7  8  1  0
  8  9  1  0
  9 10  1  0
 10 11  1  0
 11 12  1  0
 12 13  2  0
 13 14  1  0
 14 15  2  0
 15 16  1  0
 16 17  2  0
 17 18  1  0
  8 19  2  0
 19 20  1  0
 20 21  1  0
 21 22  1  0
 22 23  1  0
 23 24  1  0
 24 25  2  0
 25 26  1  0
 26 27  2  0
 27 28  1  0
 28 29  2  0
 29 30  1  0
 20 31  2  0
  5 32  1  0
 32 33  1  0
 33  2  1  0
 31  6  1  0
 18  9  1  0
 30 21  1  0
 17 12  1  0
 29 24  1  0
  1 34  1  0
  1 35  1  0
  2 36  1  6
  3 37  1  0
  3 38  1  0
  4 39  1  0
  4 40  1  0
  5 41  1  1
 10 42  1  0
 10 43  1  0
 11 44  1  0
 11 45  1  0
 13 46  1  0
 14 47  1  0
 15 48  1  0
 16 49  1  0
 18 50  1  0
 18 51  1  0
 22 52  1  0
 22 53  1  0
 23 54  1  0
 23 55  1  0
 25 56  1  0
 26 57  1  0
 27 58  1  0
 28 59  1  0
 30 60  1  0
 30 61  1  0
 32 62  1  0
 32 63  1  0
 33 64  1  0
 33 65  1  0
M  END
>  <smiles>  (8) 
N[C@H]1CC[C@H](c2nc(N3CCc4ccccc4C3)nc(N3CCc4ccccc4C3)n2)CC1

>  <score_type>  (8) 
oracle

>  <origin>  (8) 
autodockgpu

>  <m_score__min__energy>  (8) 
-10.24

>  <m_primary>  (8) 
energy

>  <rmsd>  (8) 
11.245409023408493

>  <m_score__min__rmsd>  (8) 
11.245409023408493

>  <meeko>  (8) 
{"free_energy": -9.78, "intermolecular_energy": -10.97, "internal_energy": -0.99, "cluster_size": 10, "cluster_id": 2, "rank_in_cluster": 8}

>  <energy>  (8) 
-10.19

>  <cluster_rmsd>  (8) 
0.59

>  <cluster>  (8) 
1

$$$$

     RDKit          3D

 65 70  0  0  0  0  0  0  0  0999 V2000
  141.7050   78.1350  222.5480 N   0  0  0  0  0  0  0  0  0  0  0  0
  140.5480   77.9890  221.6900 C   0  0  1  0  0  0  0  0  0  0  0  0
  140.9420   77.4520  220.3150 C   0  0  0  0  0  0  0  0  0  0  0  0
  141.4680   76.0520  220.3920 C   0  0  0  0  0  0  0  0  0  0  0  0
  140.8850   75.3500  221.5930 C   0  0  2  0  0  0  0  0  0  0  0  0
  141.0900   73.8920  221.5890 C   0  0  0  0  0  0  0  0  0  0  0  0
  140.5600   73.1730  222.5930 N   0  0  0  0  0  0  0  0  0  0  0  0
  140.7150   71.8580  222.6380 C   0  0  0  0  0  0  0  0  0  0  0  0
  140.1460   71.0810  223.7150 N   0  0  0  0  0  0  0  0  0  0  0  0
  139.3590   69.9170  223.3690 C   0  0  0  0  0  0  0  0  0  0  0  0
  138.5010   69.4510  224.5280 C   0  0  0  0  0  0  0  0  0  0  0  0
  139.3430   69.3290  225.7740 C   0  0  0  0  0  0  0  0  0  0  0  0
  139.2110   68.2690  226.6210 C   0  0  0  0  0  0  0  0  0  0  0  0
  139.9920   68.1960  227.7340 C   0  0  0  0  0  0  0  0  0  0  0  0
  140.9020   69.1770  227.9990 C   0  0  0  0  0  0  0  0  0  0  0  0
  141.0250   70.2450  227.1320 C   0  0  0  0  0  0  0  0  0  0  0  0
  140.2410   70.3550  225.9810 C   0  0  0  0  0  0  0  0  0  0  0  0
  140.3950   71.5120  225.0740 C   0  0  0  0  0  0  0  0  0  0  0  0
  141.4150   71.2590  221.6560 N   0  0  0  0  0  0  0  0  0  0  0  0
  141.9670   71.9240  220.6300 C   0  0  0  0  0  0  0  0  0  0  0  0
  142.6920   71.2180  219.6330 N   0  0  0  0  0  0  0  0  0  0  0  0
  143.7030   71.9460  218.8920 C   0  0  0  0  0  0  0  0  0  0  0  0
  145.0380   71.4160  219.3710 C   0  0  0  0  0  0  0  0  0  0  0  0
  145.0040   69.9390  219.2150 C   0  0  0  0  0  0  0  0  0  0  0  0
  146.2170   69.2960  219.0900 C   0  0  0  0  0  0  0  0  0  0  0  0
  146.2890   67.9320  218.9420 C   0  0  0  0  0  0  0  0  0  0  0  0
  145.1300   67.1690  218.9140 C   0  0  0  0  0  0  0  0  0  0  0  0
  143.9200   67.8170  219.0380 C   0  0  0  0  0  0  0  0  0  0  0  0
  143.8380   69.2050  219.1900 C   0  0  0  0  0  0  0  0  0  0  0  0
  142.4870   69.8390  219.3190 C   0  0  0  0  0  0  0  0  0  0  0  0
  141.7920   73.2610  220.6110 N   0  0  0  0  0  0  0  0  0  0  0  0
  139.4450   75.7690  221.7260 C   0  0  0  0  0  0  0  0  0  0  0  0
  139.4560   77.1840  222.3200 C   0  0  0  0  0  0  0  0  0  0  0  0
  142.5870   78.2380  221.9930 H   0  0  0  0  0  0  0  0  0  0  0  0
  141.8400   77.3200  223.1790 H   0  0  0  0  0  0  0  0  0  0  0  0
  140.1305   78.9962  221.5447 H   0  0  0  0  0  0  0  0  0  0  0  0
  141.7210   78.1017  219.8893 H   0  0  0  0  0  0  0  0  0  0  0  0
  140.0427   77.4439  219.6817 H   0  0  0  0  0  0  0  0  0  0  0  0
  142.5640   76.0786  220.4815 H   0  0  0  0  0  0  0  0  0  0  0  0
  141.1825   75.5072  219.4801 H   0  0  0  0  0  0  0  0  0  0  0  0
  141.4316   75.6629  222.4949 H   0  0  0  0  0  0  0  0  0  0  0  0
  138.7051   70.1689  222.5211 H   0  0  0  0  0  0  0  0  0  0  0  0
  140.0508   69.1027  223.1076 H   0  0  0  0  0  0  0  0  0  0  0  0
  137.6958   70.1800  224.7019 H   0  0  0  0  0  0  0  0  0  0  0  0
  138.0680   68.4692  224.2861 H   0  0  0  0  0  0  0  0  0  0  0  0
  138.4779   67.4774  226.4066 H   0  0  0  0  0  0  0  0  0  0  0  0
  139.8888   67.3435  228.4214 H   0  0  0  0  0  0  0  0  0  0  0  0
  141.5338   69.1178  228.8975 H   0  0  0  0  0  0  0  0  0  0  0  0
  141.7613   71.0315  227.3541 H   0  0  0  0  0  0  0  0  0  0  0  0
  139.6744   72.2958  225.3503 H   0  0  0  0  0  0  0  0  0  0  0  0
  141.4153   71.9151  225.1553 H   0  0  0  0  0  0  0  0  0  0  0  0
  143.5869   71.7686  217.8126 H   0  0  0  0  0  0  0  0  0  0  0  0
  143.6188   73.0304  219.0564 H   0  0  0  0  0  0  0  0  0  0  0  0
  145.8518   71.8406  218.7649 H   0  0  0  0  0  0  0  0  0  0  0  0
  145.2157   71.6945  220.4202 H   0  0  0  0  0  0  0  0  0  0  0  0
  147.1450   69.8863  219.1091 H   0  0  0  0  0  0  0  0  0  0  0  0
  147.2694   67.4426  218.8453 H   0  0  0  0  0  0  0  0  0  0  0  0
  145.1760   66.0763  218.7960 H   0  0  0  0  0  0  0  0  0  0  0  0
  142.9925   67.2259  219.0168 H   0  0  0  0  0  0  0  0  0  0  0  0
  141.9360   69.7467  218.3714 H   0  0  0  0  0  0  0  0  0  0  0  0
  141.8985   69.3442  220.1057 H   0  0  0  0  0  0  0  0  0  0  0  0
  138.9090   75.0800  222.3954 H   0  0  0  0  0  0  0  0  0  0  0  0
  138.9337   75.7503  220.7522 H   0  0  0  0  0  0  0  0  0  0  0  0
  139.6264   77.1233  223.4050 H   0  0  0  0  0  0  0  0  0  0  0  0
  138.4880   77.6681  222.1235 H   0  0  0  0  0  0  0  0  0  0  0  0
  1  2  1  0
  2  3  1  0
  3  4  1  0
  4  5  1  0
  5  6  1  0
  6  7  2  0
  7  8  1  0
  8  9  1  0
  9 10  1  0
 10 11  1  0
 11 12  1  0
 12 13  2  0
 13 14  1  0
 14 15  2  0
 15 16  1  0
 16 17  2  0
 17 18  1  0
  8 19  2  0
 19 20  1  0
 20 21  1  0
 21 22  1  0
 22 23  1  0
 23 24  1  0
 24 25  2  0
 25 26  1  0
 26 27  2  0
 27 28  1  0
 28 29  2  0
 29 30  1  0
 20 31  2  0
  5 32  1  0
 32 33  1  0
 33  2  1  0
 31  6  1  0
 18  9  1  0
 30 21  1  0
 17 12  1  0
 29 24  1  0
  1 34  1  0
  1 35  1  0
  2 36  1  6
  3 37  1  0
  3 38  1  0
  4 39  1  0
  4 40  1  0
  5 41  1  1
 10 42  1  0
 10 43  1  0
 11 44  1  0
 11 45  1  0
 13 46  1  0
 14 47  1  0
 15 48  1  0
 16 49  1  0
 18 50  1  0
 18 51  1  0
 22 52  1  0
 22 53  1  0
 23 54  1  0
 23 55  1  0
 25 56  1  0
 26 57  1  0
 27 58  1  0
 28 59  1  0
 30 60  1  0
 30 61  1  0
 32 62  1  0
 32 63  1  0
 33 64  1  0
 33 65  1  0
M  END
>  <smiles>  (9) 
N[C@H]1CC[C@H](c2nc(N3CCc4ccccc4C3)nc(N3CCc4ccccc4C3)n2)CC1

>  <score_type>  (9) 
oracle

>  <origin>  (9) 
autodockgpu

>  <m_score__min__energy>  (9) 
-10.24

>  <m_primary>  (9) 
energy

>  <rmsd>  (9) 
11.340292123033908

>  <m_score__min__rmsd>  (9) 
11.340292123033908

>  <meeko>  (9) 
{"free_energy": -9.86, "intermolecular_energy": -11.06, "internal_energy": -0.99, "cluster_size": 10, "cluster_id": 2, "rank_in_cluster": 7}

>  <energy>  (9) 
-10.18

>  <cluster_rmsd>  (9) 
0.31

>  <cluster>  (9) 
1

$$$$

     RDKit          3D

 65 70  0  0  0  0  0  0  0  0999 V2000
  146.3360   73.3970  218.9980 N   0  0  0  0  0  0  0  0  0  0  0  0
  145.5280   72.3690  218.3750 C   0  0  1  0  0  0  0  0  0  0  0  0
  145.1050   71.3080  219.3890 C   0  0  0  0  0  0  0  0  0  0  0  0
  144.1790   71.8650  220.4270 C   0  0  0  0  0  0  0  0  0  0  0  0
  143.4270   73.0450  219.8640 C   0  0  2  0  0  0  0  0  0  0  0  0
  142.2810   73.4690  220.6860 C   0  0  0  0  0  0  0  0  0  0  0  0
  141.7490   72.5780  221.5410 N   0  0  0  0  0  0  0  0  0  0  0  0
  140.7170   72.9080  222.3040 C   0  0  0  0  0  0  0  0  0  0  0  0
  140.1420   71.9550  223.2250 N   0  0  0  0  0  0  0  0  0  0  0  0
  139.0580   71.1220  222.7500 C   0  0  0  0  0  0  0  0  0  0  0  0
  138.2920   70.4870  223.8930 C   0  0  0  0  0  0  0  0  0  0  0  0
  139.2530   69.8320  224.8540 C   0  0  0  0  0  0  0  0  0  0  0  0
  138.9960   68.6050  225.3900 C   0  0  0  0  0  0  0  0  0  0  0  0
  139.8900   68.0460  226.2520 C   0  0  0  0  0  0  0  0  0  0  0  0
  141.0370   68.7110  226.5760 C   0  0  0  0  0  0  0  0  0  0  0  0
  141.2840   69.9530  226.0250 C   0  0  0  0  0  0  0  0  0  0  0  0
  140.3900   70.5570  225.1370 C   0  0  0  0  0  0  0  0  0  0  0  0
  140.6820   71.8890  224.5660 C   0  0  0  0  0  0  0  0  0  0  0  0
  140.2150   74.1530  222.2040 N   0  0  0  0  0  0  0  0  0  0  0  0
  140.7030   75.0820  221.3690 C   0  0  0  0  0  0  0  0  0  0  0  0
  140.1160   76.3750  221.3220 N   0  0  0  0  0  0  0  0  0  0  0  0
  138.6850   76.4740  221.5370 C   0  0  0  0  0  0  0  0  0  0  0  0
  138.5080   77.1110  222.8990 C   0  0  0  0  0  0  0  0  0  0  0  0
  139.2900   78.3750  222.8960 C   0  0  0  0  0  0  0  0  0  0  0  0
  138.8960   79.3550  223.7800 C   0  0  0  0  0  0  0  0  0  0  0  0
  139.5560   80.5570  223.8520 C   0  0  0  0  0  0  0  0  0  0  0  0
  140.6420   80.8100  223.0270 C   0  0  0  0  0  0  0  0  0  0  0  0
  141.0320   79.8260  222.1430 C   0  0  0  0  0  0  0  0  0  0  0  0
  140.3650   78.6000  222.0640 C   0  0  0  0  0  0  0  0  0  0  0  0
  140.8470   77.5780  221.0790 C   0  0  0  0  0  0  0  0  0  0  0  0
  141.7540   74.7180  220.6060 N   0  0  0  0  0  0  0  0  0  0  0  0
  143.0770   72.7360  218.4330 C   0  0  0  0  0  0  0  0  0  0  0  0
  144.3640   72.9250  217.6190 C   0  0  0  0  0  0  0  0  0  0  0  0
  145.7440   74.1320  219.4510 H   0  0  0  0  0  0  0  0  0  0  0  0
  146.9550   73.8850  218.3200 H   0  0  0  0  0  0  0  0  0  0  0  0
  146.1627   71.8754  217.6244 H   0  0  0  0  0  0  0  0  0  0  0  0
  146.0031   70.9147  219.8878 H   0  0  0  0  0  0  0  0  0  0  0  0
  144.5716   70.5126  218.8478 H   0  0  0  0  0  0  0  0  0  0  0  0
  144.7632   72.1882  221.3012 H   0  0  0  0  0  0  0  0  0  0  0  0
  143.4609   71.0874  220.7265 H   0  0  0  0  0  0  0  0  0  0  0  0
  144.0765   73.9324  219.8884 H   0  0  0  0  0  0  0  0  0  0  0  0
  138.3668   71.7405  222.1587 H   0  0  0  0  0  0  0  0  0  0  0  0
  139.4897   70.3157  222.1388 H   0  0  0  0  0  0  0  0  0  0  0  0
  137.7181   71.2618  224.4224 H   0  0  0  0  0  0  0  0  0  0  0  0
  137.6068   69.7261  223.4912 H   0  0  0  0  0  0  0  0  0  0  0  0
  138.0717   68.0695  225.1277 H   0  0  0  0  0  0  0  0  0  0  0  0
  139.6873   67.0566  226.6879 H   0  0  0  0  0  0  0  0  0  0  0  0
  141.7602   68.2605  227.2717 H   0  0  0  0  0  0  0  0  0  0  0  0
  142.2107   70.4818  226.2927 H   0  0  0  0  0  0  0  0  0  0  0  0
  140.2177   72.6674  225.1893 H   0  0  0  0  0  0  0  0  0  0  0  0
  141.7696   72.0509  224.5372 H   0  0  0  0  0  0  0  0  0  0  0  0
  138.2247   77.1013  220.7595 H   0  0  0  0  0  0  0  0  0  0  0  0
  138.2023   75.4867  221.4894 H   0  0  0  0  0  0  0  0  0  0  0  0
  137.4444   77.3259  223.0796 H   0  0  0  0  0  0  0  0  0  0  0  0
  138.8574   76.4366  223.6947 H   0  0  0  0  0  0  0  0  0  0  0  0
  138.0361   79.1713  224.4410 H   0  0  0  0  0  0  0  0  0  0  0  0
  139.2219   81.3229  224.5674 H   0  0  0  0  0  0  0  0  0  0  0  0
  141.1776   81.7695  223.0765 H   0  0  0  0  0  0  0  0  0  0  0  0
  141.8915   80.0109  221.4819 H   0  0  0  0  0  0  0  0  0  0  0  0
  140.6638   77.9288  220.0527 H   0  0  0  0  0  0  0  0  0  0  0  0
  141.9275   77.4066  221.1933 H   0  0  0  0  0  0  0  0  0  0  0  0
  142.2968   73.4241  218.0755 H   0  0  0  0  0  0  0  0  0  0  0  0
  142.6885   71.7120  218.3308 H   0  0  0  0  0  0  0  0  0  0  0  0
  144.5261   73.9975  217.4360 H   0  0  0  0  0  0  0  0  0  0  0  0
  144.2678   72.3956  216.6596 H   0  0  0  0  0  0  0  0  0  0  0  0
  1  2  1  0
  2  3  1  0
  3  4  1  0
  4  5  1  0
  5  6  1  0
  6  7  2  0
  7  8  1  0
  8  9  1  0
  9 10  1  0
 10 11  1  0
 11 12  1  0
 12 13  2  0
 13 14  1  0
 14 15  2  0
 15 16  1  0
 16 17  2  0
 17 18  1  0
  8 19  2  0
 19 20  1  0
 20 21  1  0
 21 22  1  0
 22 23  1  0
 23 24  1  0
 24 25  2  0
 25 26  1  0
 26 27  2  0
 27 28  1  0
 28 29  2  0
 29 30  1  0
 20 31  2  0
  5 32  1  0
 32 33  1  0
 33  2  1  0
 31  6  1  0
 18  9  1  0
 30 21  1  0
 17 12  1  0
 29 24  1  0
  1 34  1  0
  1 35  1  0
  2 36  1  6
  3 37  1  0
  3 38  1  0
  4 39  1  0
  4 40  1  0
  5 41  1  6
 10 42  1  0
 10 43  1  0
 11 44  1  0
 11 45  1  0
 13 46  1  0
 14 47  1  0
 15 48  1  0
 16 49  1  0
 18 50  1  0
 18 51  1  0
 22 52  1  0
 22 53  1  0
 23 54  1  0
 23 55  1  0
 25 56  1  0
 26 57  1  0
 27 58  1  0
 28 59  1  0
 30 60  1  0
 30 61  1  0
 32 62  1  0
 32 63  1  0
 33 64  1  0
 33 65  1  0
M  END
>  <smiles>  (10) 
N[C@H]1CC[C@H](c2nc(N3CCc4ccccc4C3)nc(N3CCc4ccccc4C3)n2)CC1

>  <score_type>  (10) 
oracle

>  <origin>  (10) 
autodockgpu

>  <m_score__min__energy>  (10) 
-10.24

>  <m_primary>  (10) 
energy

>  <rmsd>  (10) 
10.65339575954677

>  <m_score__min__rmsd>  (10) 
10.65339575954677

>  <meeko>  (10) 
{"free_energy": -10.12, "intermolecular_energy": -11.32, "internal_energy": -0.99, "cluster_size": 40, "cluster_id": 1, "rank_in_cluster": 20}

>  <energy>  (10) 
-10.18

>  <cluster_rmsd>  (10) 
0.43

>  <cluster>  (10) 
1

$$$$

     RDKit          3D

 65 70  0  0  0  0  0  0  0  0999 V2000
  145.8900   73.4180  218.0640 N   0  0  0  0  0  0  0  0  0  0  0  0
  145.5680   72.0540  218.4280 C   0  0  1  0  0  0  0  0  0  0  0  0
  145.7470   71.8250  219.9280 C   0  0  0  0  0  0  0  0  0  0  0  0
  144.7660   72.6180  220.7350 C   0  0  0  0  0  0  0  0  0  0  0  0
  143.5240   72.8800  219.9210 C   0  0  2  0  0  0  0  0  0  0  0  0
  142.3860   73.3770  220.7130 C   0  0  0  0  0  0  0  0  0  0  0  0
  141.7850   72.5270  221.5630 N   0  0  0  0  0  0  0  0  0  0  0  0
  140.7570   72.9220  222.3000 C   0  0  0  0  0  0  0  0  0  0  0  0
  140.1090   72.0130  223.2160 N   0  0  0  0  0  0  0  0  0  0  0  0
  138.9300   71.3120  222.7550 C   0  0  0  0  0  0  0  0  0  0  0  0
  138.1320   70.7340  223.9060 C   0  0  0  0  0  0  0  0  0  0  0  0
  139.0420   69.9570  224.8240 C   0  0  0  0  0  0  0  0  0  0  0  0
  138.6710   68.7520  225.3420 C   0  0  0  0  0  0  0  0  0  0  0  0
  139.5230   68.0810  226.1660 C   0  0  0  0  0  0  0  0  0  0  0  0
  140.7420   68.6130  226.4710 C   0  0  0  0  0  0  0  0  0  0  0  0
  141.1050   69.8350  225.9390 C   0  0  0  0  0  0  0  0  0  0  0  0
  140.2570   70.5520  225.0900 C   0  0  0  0  0  0  0  0  0  0  0  0
  140.6740   71.8580  224.5400 C   0  0  0  0  0  0  0  0  0  0  0  0
  140.3280   74.1930  222.1750 N   0  0  0  0  0  0  0  0  0  0  0  0
  140.8860   75.0840  221.3440 C   0  0  0  0  0  0  0  0  0  0  0  0
  140.3740   76.4070  221.2710 N   0  0  0  0  0  0  0  0  0  0  0  0
  138.9370   76.5800  221.3660 C   0  0  0  0  0  0  0  0  0  0  0  0
  138.6790   77.2070  222.7200 C   0  0  0  0  0  0  0  0  0  0  0  0
  139.5240   78.4270  222.8040 C   0  0  0  0  0  0  0  0  0  0  0  0
  139.1090   79.4160  223.6700 C   0  0  0  0  0  0  0  0  0  0  0  0
  139.8230   80.5790  223.8180 C   0  0  0  0  0  0  0  0  0  0  0  0
  140.9870   80.7840  223.0910 C   0  0  0  0  0  0  0  0  0  0  0  0
  141.3980   79.7920  222.2260 C   0  0  0  0  0  0  0  0  0  0  0  0
  140.6770   78.6050  222.0700 C   0  0  0  0  0  0  0  0  0  0  0  0
  141.1850   77.5720  221.1100 C   0  0  0  0  0  0  0  0  0  0  0  0
  141.9310   74.6530  220.6080 N   0  0  0  0  0  0  0  0  0  0  0  0
  143.2220   71.6440  219.1170 C   0  0  0  0  0  0  0  0  0  0  0  0
  144.2160   71.6300  217.9490 C   0  0  0  0  0  0  0  0  0  0  0  0
  146.7250   73.7710  218.5880 H   0  0  0  0  0  0  0  0  0  0  0  0
  145.1120   74.0790  218.2580 H   0  0  0  0  0  0  0  0  0  0  0  0
  146.2871   71.4060  217.9055 H   0  0  0  0  0  0  0  0  0  0  0  0
  146.7664   72.1233  220.2141 H   0  0  0  0  0  0  0  0  0  0  0  0
  145.5737   70.7583  220.1330 H   0  0  0  0  0  0  0  0  0  0  0  0
  145.2218   73.5766  221.0237 H   0  0  0  0  0  0  0  0  0  0  0  0
  144.4947   72.0487  221.6362 H   0  0  0  0  0  0  0  0  0  0  0  0
  143.7141   73.7152  219.2308 H   0  0  0  0  0  0  0  0  0  0  0  0
  138.2931   72.0149  222.1979 H   0  0  0  0  0  0  0  0  0  0  0  0
  139.2562   70.4799  222.1137 H   0  0  0  0  0  0  0  0  0  0  0  0
  137.6589   71.5522  224.4687 H   0  0  0  0  0  0  0  0  0  0  0  0
  137.3590   70.0602  223.5078 H   0  0  0  0  0  0  0  0  0  0  0  0
  137.6883   68.3235  225.0957 H   0  0  0  0  0  0  0  0  0  0  0  0
  139.2278   67.1083  226.5865 H   0  0  0  0  0  0  0  0  0  0  0  0
  141.4312   68.0722  227.1362 H   0  0  0  0  0  0  0  0  0  0  0  0
  142.0896   70.2560  226.1907 H   0  0  0  0  0  0  0  0  0  0  0  0
  140.3116   72.6659  225.1927 H   0  0  0  0  0  0  0  0  0  0  0  0
  141.7716   71.9047  224.4839 H   0  0  0  0  0  0  0  0  0  0  0  0
  138.5782   77.2419  220.5640 H   0  0  0  0  0  0  0  0  0  0  0  0
  138.4085   75.6212  221.2595 H   0  0  0  0  0  0  0  0  0  0  0  0
  137.6167   77.4763  222.8150 H   0  0  0  0  0  0  0  0  0  0  0  0
  138.9237   76.5044  223.5302 H   0  0  0  0  0  0  0  0  0  0  0  0
  138.1880   79.2704  224.2536 H   0  0  0  0  0  0  0  0  0  0  0  0
  139.4706   81.3523  224.5164 H   0  0  0  0  0  0  0  0  0  0  0  0
  141.5661   81.7126  223.2018 H   0  0  0  0  0  0  0  0  0  0  0  0
  142.3189   79.9390  221.6425 H   0  0  0  0  0  0  0  0  0  0  0  0
  141.1063   77.9458  220.0785 H   0  0  0  0  0  0  0  0  0  0  0  0
  142.2419   77.3413  221.3095 H   0  0  0  0  0  0  0  0  0  0  0  0
  142.1902   71.6804  218.7374 H   0  0  0  0  0  0  0  0  0  0  0  0
  143.3178   70.7367  219.7315 H   0  0  0  0  0  0  0  0  0  0  0  0
  143.8713   72.3237  217.1680 H   0  0  0  0  0  0  0  0  0  0  0  0
  144.2794   70.6113  217.5388 H   0  0  0  0  0  0  0  0  0  0  0  0
  1  2  1  0
  2  3  1  0
  3  4  1  0
  4  5  1  0
  5  6  1  0
  6  7  2  0
  7  8  1  0
  8  9  1  0
  9 10  1  0
 10 11  1  0
 11 12  1  0
 12 13  2  0
 13 14  1  0
 14 15  2  0
 15 16  1  0
 16 17  2  0
 17 18  1  0
  8 19  2  0
 19 20  1  0
 20 21  1  0
 21 22  1  0
 22 23  1  0
 23 24  1  0
 24 25  2  0
 25 26  1  0
 26 27  2  0
 27 28  1  0
 28 29  2  0
 29 30  1  0
 20 31  2  0
  5 32  1  0
 32 33  1  0
 33  2  1  0
 31  6  1  0
 18  9  1  0
 30 21  1  0
 17 12  1  0
 29 24  1  0
  1 34  1  0
  1 35  1  0
  2 36  1  6
  3 37  1  0
  3 38  1  0
  4 39  1  0
  4 40  1  0
  5 41  1  6
 10 42  1  0
 10 43  1  0
 11 44  1  0
 11 45  1  0
 13 46  1  0
 14 47  1  0
 15 48  1  0
 16 49  1  0
 18 50  1  0
 18 51  1  0
 22 52  1  0
 22 53  1  0
 23 54  1  0
 23 55  1  0
 25 56  1  0
 26 57  1  0
 27 58  1  0
 28 59  1  0
 30 60  1  0
 30 61  1  0
 32 62  1  0
 32 63  1  0
 33 64  1  0
 33 65  1  0
M  END
>  <smiles>  (11) 
N[C@H]1CC[C@H](c2nc(N3CCc4ccccc4C3)nc(N3CCc4ccccc4C3)n2)CC1

>  <score_type>  (11) 
oracle

>  <origin>  (11) 
autodockgpu

>  <m_score__min__energy>  (11) 
-10.24

>  <m_primary>  (11) 
energy

>  <rmsd>  (11) 
10.627646213582658

>  <m_score__min__rmsd>  (11) 
10.627646213582658

>  <meeko>  (11) 
{"free_energy": -10.21, "intermolecular_energy": -11.41, "internal_energy": -0.99, "cluster_size": 40, "cluster_id": 1, "rank_in_cluster": 4}

>  <energy>  (11) 
-10.16

>  <cluster_rmsd>  (11) 
0.65

>  <cluster>  (11) 
1

$$$$

     RDKit          3D

 65 70  0  0  0  0  0  0  0  0999 V2000
  145.5610   73.0830  217.8040 N   0  0  0  0  0  0  0  0  0  0  0  0
  145.5820   71.8670  218.5920 C   0  0  1  0  0  0  0  0  0  0  0  0
  145.9310   72.1590  220.0500 C   0  0  0  0  0  0  0  0  0  0  0  0
  144.8680   72.9680  220.7280 C   0  0  0  0  0  0  0  0  0  0  0  0
  143.5360   72.7240  220.0650 C   0  0  2  0  0  0  0  0  0  0  0  0
  142.3850   73.2220  220.8370 C   0  0  0  0  0  0  0  0  0  0  0  0
  141.7810   72.3800  221.6910 N   0  0  0  0  0  0  0  0  0  0  0  0
  140.7410   72.7770  222.4100 C   0  0  0  0  0  0  0  0  0  0  0  0
  140.0880   71.8750  223.3300 N   0  0  0  0  0  0  0  0  0  0  0  0
  138.9970   71.0670  222.8290 C   0  0  0  0  0  0  0  0  0  0  0  0
  138.1550   70.4970  223.9530 C   0  0  0  0  0  0  0  0  0  0  0  0
  139.0440   69.8390  224.9780 C   0  0  0  0  0  0  0  0  0  0  0  0
  138.7170   68.6400  225.5380 C   0  0  0  0  0  0  0  0  0  0  0  0
  139.5480   68.0770  226.4590 C   0  0  0  0  0  0  0  0  0  0  0  0
  140.7020   68.7110  226.8180 C   0  0  0  0  0  0  0  0  0  0  0  0
  141.0220   69.9250  226.2420 C   0  0  0  0  0  0  0  0  0  0  0  0
  140.1930   70.5320  225.2940 C   0  0  0  0  0  0  0  0  0  0  0  0
  140.5620   71.8330  224.6980 C   0  0  0  0  0  0  0  0  0  0  0  0
  140.3050   74.0430  222.2650 N   0  0  0  0  0  0  0  0  0  0  0  0
  140.8670   74.9270  221.4280 C   0  0  0  0  0  0  0  0  0  0  0  0
  140.3470   76.2450  221.3320 N   0  0  0  0  0  0  0  0  0  0  0  0
  138.9080   76.4100  221.4120 C   0  0  0  0  0  0  0  0  0  0  0  0
  138.6330   77.0540  222.7540 C   0  0  0  0  0  0  0  0  0  0  0  0
  139.4690   78.2810  222.8300 C   0  0  0  0  0  0  0  0  0  0  0  0
  139.0390   79.2780  223.6780 C   0  0  0  0  0  0  0  0  0  0  0  0
  139.7440   80.4480  223.8170 C   0  0  0  0  0  0  0  0  0  0  0  0
  140.9130   80.6510  223.0980 C   0  0  0  0  0  0  0  0  0  0  0  0
  141.3390   79.6510  222.2510 C   0  0  0  0  0  0  0  0  0  0  0  0
  140.6270   78.4560  222.1040 C   0  0  0  0  0  0  0  0  0  0  0  0
  141.1510   77.4140  221.1630 C   0  0  0  0  0  0  0  0  0  0  0  0
  141.9240   74.4940  220.7100 N   0  0  0  0  0  0  0  0  0  0  0  0
  143.4520   71.2640  219.7070 C   0  0  0  0  0  0  0  0  0  0  0  0
  144.3240   71.0690  218.4600 C   0  0  0  0  0  0  0  0  0  0  0  0
  145.9830   72.9350  216.8570 H   0  0  0  0  0  0  0  0  0  0  0  0
  146.0890   73.8580  218.2510 H   0  0  0  0  0  0  0  0  0  0  0  0
  146.3817   71.2336  218.1806 H   0  0  0  0  0  0  0  0  0  0  0  0
  146.8784   72.7170  220.0840 H   0  0  0  0  0  0  0  0  0  0  0  0
  146.0172   71.1983  220.5787 H   0  0  0  0  0  0  0  0  0  0  0  0
  145.1210   74.0361  220.6560 H   0  0  0  0  0  0  0  0  0  0  0  0
  144.8060   72.6709  221.7853 H   0  0  0  0  0  0  0  0  0  0  0  0
  143.4775   73.3206  219.1427 H   0  0  0  0  0  0  0  0  0  0  0  0
  138.3579   71.6908  222.1867 H   0  0  0  0  0  0  0  0  0  0  0  0
  139.4261   70.2265  222.2638 H   0  0  0  0  0  0  0  0  0  0  0  0
  137.5866   71.3087  224.4306 H   0  0  0  0  0  0  0  0  0  0  0  0
  137.4612   69.7489  223.5420 H   0  0  0  0  0  0  0  0  0  0  0  0
  137.7868   68.1296  225.2477 H   0  0  0  0  0  0  0  0  0  0  0  0
  139.2885   67.1098  226.9141 H   0  0  0  0  0  0  0  0  0  0  0  0
  141.3736   68.2577  227.5620 H   0  0  0  0  0  0  0  0  0  0  0  0
  141.9547   70.4279  226.5373 H   0  0  0  0  0  0  0  0  0  0  0  0
  140.0988   72.6475  225.2742 H   0  0  0  0  0  0  0  0  0  0  0  0
  141.6551   71.9544  224.7170 H   0  0  0  0  0  0  0  0  0  0  0  0
  138.5522   77.0581  220.5975 H   0  0  0  0  0  0  0  0  0  0  0  0
  138.3871   75.4461  221.3147 H   0  0  0  0  0  0  0  0  0  0  0  0
  137.5681   77.3175  222.8349 H   0  0  0  0  0  0  0  0  0  0  0  0
  138.8748   76.3642  223.5760 H   0  0  0  0  0  0  0  0  0  0  0  0
  138.1134   79.1340  224.2546 H   0  0  0  0  0  0  0  0  0  0  0  0
  139.3802   81.2282  224.5018 H   0  0  0  0  0  0  0  0  0  0  0  0
  141.4845   81.5852  223.2013 H   0  0  0  0  0  0  0  0  0  0  0  0
  142.2645   79.7965  221.6746 H   0  0  0  0  0  0  0  0  0  0  0  0
  141.0792   77.7734  220.1258 H   0  0  0  0  0  0  0  0  0  0  0  0
  142.2075   77.1937  221.3756 H   0  0  0  0  0  0  0  0  0  0  0  0
  142.4103   70.9857  219.4893 H   0  0  0  0  0  0  0  0  0  0  0  0
  143.7986   70.6309  220.5371 H   0  0  0  0  0  0  0  0  0  0  0  0
  143.7701   71.4047  217.5709 H   0  0  0  0  0  0  0  0  0  0  0  0
  144.5785   70.0038  218.3576 H   0  0  0  0  0  0  0  0  0  0  0  0
  1  2  1  0
  2  3  1  0
  3  4  1  0
  4  5  1  0
  5  6  1  0
  6  7  2  0
  7  8  1  0
  8  9  1  0
  9 10  1  0
 10 11  1  0
 11 12  1  0
 12 13  2  0
 13 14  1  0
 14 15  2  0
 15 16  1  0
 16 17  2  0
 17 18  1  0
  8 19  2  0
 19 20  1  0
 20 21  1  0
 21 22  1  0
 22 23  1  0
 23 24  1  0
 24 25  2  0
 25 26  1  0
 26 27  2  0
 27 28  1  0
 28 29  2  0
 29 30  1  0
 20 31  2  0
  5 32  1  0
 32 33  1  0
 33  2  1  0
 31  6  1  0
 18  9  1  0
 30 21  1  0
 17 12  1  0
 29 24  1  0
  1 34  1  0
  1 35  1  0
  2 36  1  6
  3 37  1  0
  3 38  1  0
  4 39  1  0
  4 40  1  0
  5 41  1  6
 10 42  1  0
 10 43  1  0
 11 44  1  0
 11 45  1  0
 13 46  1  0
 14 47  1  0
 15 48  1  0
 16 49  1  0
 18 50  1  0
 18 51  1  0
 22 52  1  0
 22 53  1  0
 23 54  1  0
 23 55  1  0
 25 56  1  0
 26 57  1  0
 27 58  1  0
 28 59  1  0
 30 60  1  0
 30 61  1  0
 32 62  1  0
 32 63  1  0
 33 64  1  0
 33 65  1  0
M  END
>  <smiles>  (12) 
N[C@H]1CC[C@H](c2nc(N3CCc4ccccc4C3)nc(N3CCc4ccccc4C3)n2)CC1

>  <score_type>  (12) 
oracle

>  <origin>  (12) 
autodockgpu

>  <m_score__min__energy>  (12) 
-10.24

>  <m_primary>  (12) 
energy

>  <rmsd>  (12) 
10.755651328890005

>  <m_score__min__rmsd>  (12) 
10.755651328890005

>  <meeko>  (12) 
{"free_energy": -10.07, "intermolecular_energy": -11.26, "internal_energy": -0.99, "cluster_size": 40, "cluster_id": 1, "rank_in_cluster": 31}

>  <energy>  (12) 
-10.15

>  <cluster_rmsd>  (12) 
0.63

>  <cluster>  (12) 
1

$$$$

     RDKit          3D

 65 70  0  0  0  0  0  0  0  0999 V2000
  146.3280   71.9240  219.7000 N   0  0  0  0  0  0  0  0  0  0  0  0
  145.4250   71.6110  218.6120 C   0  0  1  0  0  0  0  0  0  0  0  0
  144.4260   70.5280  219.0160 C   0  0  0  0  0  0  0  0  0  0  0  0
  143.4920   71.0020  220.0880 C   0  0  0  0  0  0  0  0  0  0  0  0
  143.3430   72.5000  220.0140 C   0  0  2  0  0  0  0  0  0  0  0  0
  142.2240   73.0280  220.8120 C   0  0  0  0  0  0  0  0  0  0  0  0
  141.6440   72.2130  221.7090 N   0  0  0  0  0  0  0  0  0  0  0  0
  140.6320   72.6370  222.4530 C   0  0  0  0  0  0  0  0  0  0  0  0
  140.0060   71.7650  223.4190 N   0  0  0  0  0  0  0  0  0  0  0  0
  138.8090   71.0570  223.0180 C   0  0  0  0  0  0  0  0  0  0  0  0
  138.0430   70.5250  224.2120 C   0  0  0  0  0  0  0  0  0  0  0  0
  138.9750   69.7730  225.1280 C   0  0  0  0  0  0  0  0  0  0  0  0
  138.6120   68.5890  225.6980 C   0  0  0  0  0  0  0  0  0  0  0  0
  139.4840   67.9400  226.5180 C   0  0  0  0  0  0  0  0  0  0  0  0
  140.7150   68.4720  226.7670 C   0  0  0  0  0  0  0  0  0  0  0  0
  141.0710   69.6730  226.1830 C   0  0  0  0  0  0  0  0  0  0  0  0
  140.2020   70.3670  225.3370 C   0  0  0  0  0  0  0  0  0  0  0  0
  140.6110   71.6500  224.7300 C   0  0  0  0  0  0  0  0  0  0  0  0
  140.2000   73.9020  222.2890 N   0  0  0  0  0  0  0  0  0  0  0  0
  140.7390   74.7590  221.4100 C   0  0  0  0  0  0  0  0  0  0  0  0
  140.2240   76.0790  221.2980 N   0  0  0  0  0  0  0  0  0  0  0  0
  138.7860   76.2500  221.3670 C   0  0  0  0  0  0  0  0  0  0  0  0
  138.5060   76.9090  222.7010 C   0  0  0  0  0  0  0  0  0  0  0  0
  139.3460   78.1330  222.7690 C   0  0  0  0  0  0  0  0  0  0  0  0
  138.9150   79.1410  223.6040 C   0  0  0  0  0  0  0  0  0  0  0  0
  139.6240   80.3100  223.7360 C   0  0  0  0  0  0  0  0  0  0  0  0
  140.7980   80.5000  223.0210 C   0  0  0  0  0  0  0  0  0  0  0  0
  141.2250   79.4890  222.1870 C   0  0  0  0  0  0  0  0  0  0  0  0
  140.5090   78.2960  222.0480 C   0  0  0  0  0  0  0  0  0  0  0  0
  141.0350   77.2420  221.1220 C   0  0  0  0  0  0  0  0  0  0  0  0
  141.7660   74.3000  220.6680 N   0  0  0  0  0  0  0  0  0  0  0  0
  143.3050   72.8950  218.5620 C   0  0  0  0  0  0  0  0  0  0  0  0
  144.7500   72.8220  218.0510 C   0  0  0  0  0  0  0  0  0  0  0  0
  145.9990   71.5130  220.6050 H   0  0  0  0  0  0  0  0  0  0  0  0
  146.4300   72.9470  219.8530 H   0  0  0  0  0  0  0  0  0  0  0  0
  146.0397   71.2065  217.7944 H   0  0  0  0  0  0  0  0  0  0  0  0
  144.9802   69.6537  219.3881 H   0  0  0  0  0  0  0  0  0  0  0  0
  143.8263   70.2696  218.1308 H   0  0  0  0  0  0  0  0  0  0  0  0
  143.8960   70.7240  221.0726 H   0  0  0  0  0  0  0  0  0  0  0  0
  142.5076   70.5329  219.9436 H   0  0  0  0  0  0  0  0  0  0  0  0
  144.2150   72.9737  220.4886 H   0  0  0  0  0  0  0  0  0  0  0  0
  138.1599   71.7448  222.4563 H   0  0  0  0  0  0  0  0  0  0  0  0
  139.1103   70.2011  222.3962 H   0  0  0  0  0  0  0  0  0  0  0  0
  137.5929   71.3657  224.7603 H   0  0  0  0  0  0  0  0  0  0  0  0
  137.2538   69.8439  223.8609 H   0  0  0  0  0  0  0  0  0  0  0  0
  137.6194   68.1600  225.4964 H   0  0  0  0  0  0  0  0  0  0  0  0
  139.1951   66.9847  226.9806 H   0  0  0  0  0  0  0  0  0  0  0  0
  141.4204   67.9482  227.4288 H   0  0  0  0  0  0  0  0  0  0  0  0
  142.0659   70.0942  226.3899 H   0  0  0  0  0  0  0  0  0  0  0  0
  140.2750   72.4825  225.3656 H   0  0  0  0  0  0  0  0  0  0  0  0
  141.7066   71.6855  224.6383 H   0  0  0  0  0  0  0  0  0  0  0  0
  138.4377   76.8910  220.5438 H   0  0  0  0  0  0  0  0  0  0  0  0
  138.2616   75.2873  221.2760 H   0  0  0  0  0  0  0  0  0  0  0  0
  137.4417   77.1774  222.7732 H   0  0  0  0  0  0  0  0  0  0  0  0
  138.7405   76.2268  223.5314 H   0  0  0  0  0  0  0  0  0  0  0  0
  137.9850   79.0068  224.1760 H   0  0  0  0  0  0  0  0  0  0  0  0
  139.2598   81.0985  224.4110 H   0  0  0  0  0  0  0  0  0  0  0  0
  141.3728   81.4329  223.1172 H   0  0  0  0  0  0  0  0  0  0  0  0
  142.1548   79.6244  221.6150 H   0  0  0  0  0  0  0  0  0  0  0  0
  140.9724   77.5905  220.0806 H   0  0  0  0  0  0  0  0  0  0  0  0
  142.0890   77.0191  221.3441 H   0  0  0  0  0  0  0  0  0  0  0  0
  142.9163   73.9187  218.4570 H   0  0  0  0  0  0  0  0  0  0  0  0
  142.6460   72.2285  217.9862 H   0  0  0  0  0  0  0  0  0  0  0  0
  145.2952   73.7235  218.3673 H   0  0  0  0  0  0  0  0  0  0  0  0
  144.7442   72.7587  216.9528 H   0  0  0  0  0  0  0  0  0  0  0  0
  1  2  1  0
  2  3  1  0
  3  4  1  0
  4  5  1  0
  5  6  1  0
  6  7  2  0
  7  8  1  0
  8  9  1  0
  9 10  1  0
 10 11  1  0
 11 12  1  0
 12 13  2  0
 13 14  1  0
 14 15  2  0
 15 16  1  0
 16 17  2  0
 17 18  1  0
  8 19  2  0
 19 20  1  0
 20 21  1  0
 21 22  1  0
 22 23  1  0
 23 24  1  0
 24 25  2  0
 25 26  1  0
 26 27  2  0
 27 28  1  0
 28 29  2  0
 29 30  1  0
 20 31  2  0
  5 32  1  0
 32 33  1  0
 33  2  1  0
 31  6  1  0
 18  9  1  0
 30 21  1  0
 17 12  1  0
 29 24  1  0
  1 34  1  0
  1 35  1  0
  2 36  1  6
  3 37  1  0
  3 38  1  0
  4 39  1  0
  4 40  1  0
  5 41  1  1
 10 42  1  0
 10 43  1  0
 11 44  1  0
 11 45  1  0
 13 46  1  0
 14 47  1  0
 15 48  1  0
 16 49  1  0
 18 50  1  0
 18 51  1  0
 22 52  1  0
 22 53  1  0
 23 54  1  0
 23 55  1  0
 25 56  1  0
 26 57  1  0
 27 58  1  0
 28 59  1  0
 30 60  1  0
 30 61  1  0
 32 62  1  0
 32 63  1  0
 33 64  1  0
 33 65  1  0
M  END
>  <smiles>  (13) 
N[C@H]1CC[C@H](c2nc(N3CCc4ccccc4C3)nc(N3CCc4ccccc4C3)n2)CC1

>  <score_type>  (13) 
oracle

>  <origin>  (13) 
autodockgpu

>  <m_score__min__energy>  (13) 
-10.24

>  <m_primary>  (13) 
energy

>  <rmsd>  (13) 
10.921367260175701

>  <m_score__min__rmsd>  (13) 
10.921367260175701

>  <meeko>  (13) 
{"free_energy": -9.86, "intermolecular_energy": -11.06, "internal_energy": -1.0, "cluster_size": 40, "cluster_id": 1, "rank_in_cluster": 39}

>  <energy>  (13) 
-10.15

>  <cluster_rmsd>  (13) 
0.42

>  <cluster>  (13) 
1

$$$$

     RDKit          3D

 65 70  0  0  0  0  0  0  0  0999 V2000
  145.4650   73.0200  217.8120 N   0  0  0  0  0  0  0  0  0  0  0  0
  145.5710   71.8890  218.7100 C   0  0  1  0  0  0  0  0  0  0  0  0
  145.9190   72.3390  220.1280 C   0  0  0  0  0  0  0  0  0  0  0  0
  144.8150   73.1420  220.7450 C   0  0  0  0  0  0  0  0  0  0  0  0
  143.4930   72.7540  220.1320 C   0  0  2  0  0  0  0  0  0  0  0  0
  142.3230   73.2530  220.8730 C   0  0  0  0  0  0  0  0  0  0  0  0
  141.6860   72.4050  221.6990 N   0  0  0  0  0  0  0  0  0  0  0  0
  140.6270   72.8020  222.3910 C   0  0  0  0  0  0  0  0  0  0  0  0
  139.9410   71.8950  223.2800 N   0  0  0  0  0  0  0  0  0  0  0  0
  138.8280   71.1360  222.7480 C   0  0  0  0  0  0  0  0  0  0  0  0
  137.9610   70.5600  223.8500 C   0  0  0  0  0  0  0  0  0  0  0  0
  138.8220   69.8450  224.8610 C   0  0  0  0  0  0  0  0  0  0  0  0
  138.4540   68.6410  225.3840 C   0  0  0  0  0  0  0  0  0  0  0  0
  139.2600   68.0260  226.2930 C   0  0  0  0  0  0  0  0  0  0  0  0
  140.4310   68.6120  226.6770 C   0  0  0  0  0  0  0  0  0  0  0  0
  140.7920   69.8320  226.1390 C   0  0  0  0  0  0  0  0  0  0  0  0
  139.9900   70.4920  225.2040 C   0  0  0  0  0  0  0  0  0  0  0  0
  140.4030   71.7980  224.6480 C   0  0  0  0  0  0  0  0  0  0  0  0
  140.2050   74.0720  222.2460 N   0  0  0  0  0  0  0  0  0  0  0  0
  140.7990   74.9620  221.4370 C   0  0  0  0  0  0  0  0  0  0  0  0
  140.2900   76.2850  221.3400 N   0  0  0  0  0  0  0  0  0  0  0  0
  138.8530   76.4620  221.4150 C   0  0  0  0  0  0  0  0  0  0  0  0
  138.5790   77.1080  222.7570 C   0  0  0  0  0  0  0  0  0  0  0  0
  139.4260   78.3270  222.8360 C   0  0  0  0  0  0  0  0  0  0  0  0
  139.0020   79.3280  223.6830 C   0  0  0  0  0  0  0  0  0  0  0  0
  139.7170   80.4920  223.8260 C   0  0  0  0  0  0  0  0  0  0  0  0
  140.8900   80.6840  223.1110 C   0  0  0  0  0  0  0  0  0  0  0  0
  141.3100   79.6800  222.2640 C   0  0  0  0  0  0  0  0  0  0  0  0
  140.5880   78.4930  222.1150 C   0  0  0  0  0  0  0  0  0  0  0  0
  141.1060   77.4460  221.1750 C   0  0  0  0  0  0  0  0  0  0  0  0
  141.8740   74.5290  220.7470 N   0  0  0  0  0  0  0  0  0  0  0  0
  143.4970   71.2650  219.9150 C   0  0  0  0  0  0  0  0  0  0  0  0
  144.3650   71.0060  218.6760 C   0  0  0  0  0  0  0  0  0  0  0  0
  145.8960   72.8140  216.8800 H   0  0  0  0  0  0  0  0  0  0  0  0
  145.9370   73.8700  218.1810 H   0  0  0  0  0  0  0  0  0  0  0  0
  146.4038   71.2696  218.3457 H   0  0  0  0  0  0  0  0  0  0  0  0
  146.8298   72.9548  220.0924 H   0  0  0  0  0  0  0  0  0  0  0  0
  146.0723   71.4402  220.7434 H   0  0  0  0  0  0  0  0  0  0  0  0
  144.9992   74.2119  220.5676 H   0  0  0  0  0  0  0  0  0  0  0  0
  144.7844   72.9441  221.8266 H   0  0  0  0  0  0  0  0  0  0  0  0
  143.3855   73.2542  219.1582 H   0  0  0  0  0  0  0  0  0  0  0  0
  138.2131   71.7981  222.1206 H   0  0  0  0  0  0  0  0  0  0  0  0
  139.2345   70.2996  222.1605 H   0  0  0  0  0  0  0  0  0  0  0  0
  137.4147   71.3748  224.3476 H   0  0  0  0  0  0  0  0  0  0  0  0
  137.2474   69.8459  223.4130 H   0  0  0  0  0  0  0  0  0  0  0  0
  137.5105   68.1686  225.0732 H   0  0  0  0  0  0  0  0  0  0  0  0
  138.9666   67.0550  226.7186 H   0  0  0  0  0  0  0  0  0  0  0  0
  141.0835   68.1159  227.4105 H   0  0  0  0  0  0  0  0  0  0  0  0
  141.7373   70.2971  226.4554 H   0  0  0  0  0  0  0  0  0  0  0  0
  139.9610   72.6094  225.2449 H   0  0  0  0  0  0  0  0  0  0  0  0
  141.4992   71.8844  224.6770 H   0  0  0  0  0  0  0  0  0  0  0  0
  138.5055   77.1135  220.5996 H   0  0  0  0  0  0  0  0  0  0  0  0
  138.3241   75.5026  221.3153 H   0  0  0  0  0  0  0  0  0  0  0  0
  137.5163   77.3812  222.8344 H   0  0  0  0  0  0  0  0  0  0  0  0
  138.8113   76.4157  223.5796 H   0  0  0  0  0  0  0  0  0  0  0  0
  138.0728   79.1921  224.2558 H   0  0  0  0  0  0  0  0  0  0  0  0
  139.3580   81.2750  224.5102 H   0  0  0  0  0  0  0  0  0  0  0  0
  141.4700   81.6127  223.2168 H   0  0  0  0  0  0  0  0  0  0  0  0
  142.2384   79.8173  221.6902 H   0  0  0  0  0  0  0  0  0  0  0  0
  141.0420   77.8066  220.1378 H   0  0  0  0  0  0  0  0  0  0  0  0
  142.1595   77.2153  221.3917 H   0  0  0  0  0  0  0  0  0  0  0  0
  142.4724   70.9035  219.7432 H   0  0  0  0  0  0  0  0  0  0  0  0
  143.8928   70.7365  220.7948 H   0  0  0  0  0  0  0  0  0  0  0  0
  143.7806   71.2206  217.7691 H   0  0  0  0  0  0  0  0  0  0  0  0
  144.6850   69.9536  218.6698 H   0  0  0  0  0  0  0  0  0  0  0  0
  1  2  1  0
  2  3  1  0
  3  4  1  0
  4  5  1  0
  5  6  1  0
  6  7  2  0
  7  8  1  0
  8  9  1  0
  9 10  1  0
 10 11  1  0
 11 12  1  0
 12 13  2  0
 13 14  1  0
 14 15  2  0
 15 16  1  0
 16 17  2  0
 17 18  1  0
  8 19  2  0
 19 20  1  0
 20 21  1  0
 21 22  1  0
 22 23  1  0
 23 24  1  0
 24 25  2  0
 25 26  1  0
 26 27  2  0
 27 28  1  0
 28 29  2  0
 29 30  1  0
 20 31  2  0
  5 32  1  0
 32 33  1  0
 33  2  1  0
 31  6  1  0
 18  9  1  0
 30 21  1  0
 17 12  1  0
 29 24  1  0
  1 34  1  0
  1 35  1  0
  2 36  1  6
  3 37  1  0
  3 38  1  0
  4 39  1  0
  4 40  1  0
  5 41  1  6
 10 42  1  0
 10 43  1  0
 11 44  1  0
 11 45  1  0
 13 46  1  0
 14 47  1  0
 15 48  1  0
 16 49  1  0
 18 50  1  0
 18 51  1  0
 22 52  1  0
 22 53  1  0
 23 54  1  0
 23 55  1  0
 25 56  1  0
 26 57  1  0
 27 58  1  0
 28 59  1  0
 30 60  1  0
 30 61  1  0
 32 62  1  0
 32 63  1  0
 33 64  1  0
 33 65  1  0
M  END
>  <smiles>  (14) 
N[C@H]1CC[C@H](c2nc(N3CCc4ccccc4C3)nc(N3CCc4ccccc4C3)n2)CC1

>  <score_type>  (14) 
oracle

>  <origin>  (14) 
autodockgpu

>  <m_score__min__energy>  (14) 
-10.24

>  <m_primary>  (14) 
energy

>  <rmsd>  (14) 
10.743105500244225

>  <m_score__min__rmsd>  (14) 
10.743105500244225

>  <meeko>  (14) 
{"free_energy": -10.08, "intermolecular_energy": -11.27, "internal_energy": -0.99, "cluster_size": 40, "cluster_id": 1, "rank_in_cluster": 27}

>  <energy>  (14) 
-10.15

>  <cluster_rmsd>  (14) 
0.43

>  <cluster>  (14) 
1

$$$$

     RDKit          3D

 65 70  0  0  0  0  0  0  0  0999 V2000
  146.3300   73.3910  218.7990 N   0  0  0  0  0  0  0  0  0  0  0  0
  145.5530   72.2630  218.3260 C   0  0  1  0  0  0  0  0  0  0  0  0
  145.2190   71.3040  219.4670 C   0  0  0  0  0  0  0  0  0  0  0  0
  144.3020   71.9320  220.4730 C   0  0  0  0  0  0  0  0  0  0  0  0
  143.4730   73.0040  219.8130 C   0  0  2  0  0  0  0  0  0  0  0  0
  142.3360   73.4640  220.6280 C   0  0  0  0  0  0  0  0  0  0  0  0
  141.7690   72.5910  221.4770 N   0  0  0  0  0  0  0  0  0  0  0  0
  140.7430   72.9530  222.2340 C   0  0  0  0  0  0  0  0  0  0  0  0
  140.1300   72.0190  223.1490 N   0  0  0  0  0  0  0  0  0  0  0  0
  138.9820   71.2700  222.6860 C   0  0  0  0  0  0  0  0  0  0  0  0
  138.2060   70.6600  223.8360 C   0  0  0  0  0  0  0  0  0  0  0  0
  139.1450   69.9210  224.7550 C   0  0  0  0  0  0  0  0  0  0  0  0
  138.8220   68.7010  225.2720 C   0  0  0  0  0  0  0  0  0  0  0  0
  139.6990   68.0660  226.0970 C   0  0  0  0  0  0  0  0  0  0  0  0
  140.8950   68.6470  226.4040 C   0  0  0  0  0  0  0  0  0  0  0  0
  141.2100   69.8820  225.8730 C   0  0  0  0  0  0  0  0  0  0  0  0
  140.3340   70.5640  225.0230 C   0  0  0  0  0  0  0  0  0  0  0  0
  140.6990   71.8870  224.4740 C   0  0  0  0  0  0  0  0  0  0  0  0
  140.2830   74.2150  222.1320 N   0  0  0  0  0  0  0  0  0  0  0  0
  140.8070   75.1290  221.3020 C   0  0  0  0  0  0  0  0  0  0  0  0
  140.2630   76.4400  221.2530 N   0  0  0  0  0  0  0  0  0  0  0  0
  138.8260   76.5790  221.3840 C   0  0  0  0  0  0  0  0  0  0  0  0
  138.5860   77.1890  222.7490 C   0  0  0  0  0  0  0  0  0  0  0  0
  139.4040   78.4280  222.8240 C   0  0  0  0  0  0  0  0  0  0  0  0
  138.9880   79.3990  223.7080 C   0  0  0  0  0  0  0  0  0  0  0  0
  139.6780   80.5770  223.8490 C   0  0  0  0  0  0  0  0  0  0  0  0
  140.8190   80.8150  223.0970 C   0  0  0  0  0  0  0  0  0  0  0  0
  141.2320   79.8400  222.2130 C   0  0  0  0  0  0  0  0  0  0  0  0
  140.5340   78.6380  222.0640 C   0  0  0  0  0  0  0  0  0  0  0  0
  141.0430   77.6250  221.0830 C   0  0  0  0  0  0  0  0  0  0  0  0
  141.8500   74.7310  220.5450 N   0  0  0  0  0  0  0  0  0  0  0  0
  143.0910   72.5200  218.4400 C   0  0  0  0  0  0  0  0  0  0  0  0
  144.3380   72.6760  217.5600 C   0  0  0  0  0  0  0  0  0  0  0  0
  145.7560   74.0300  219.3970 H   0  0  0  0  0  0  0  0  0  0  0  0
  146.7120   73.9660  218.0220 H   0  0  0  0  0  0  0  0  0  0  0  0
  146.1855   71.7179  217.6099 H   0  0  0  0  0  0  0  0  0  0  0  0
  146.1522   71.0109  219.9703 H   0  0  0  0  0  0  0  0  0  0  0  0
  144.7083   70.4288  219.0390 H   0  0  0  0  0  0  0  0  0  0  0  0
  144.8990   72.3788  221.2817 H   0  0  0  0  0  0  0  0  0  0  0  0
  143.6347   71.1610  220.8856 H   0  0  0  0  0  0  0  0  0  0  0  0
  144.0768   73.9180  219.7127 H   0  0  0  0  0  0  0  0  0  0  0  0
  138.3178   71.9458  222.1273 H   0  0  0  0  0  0  0  0  0  0  0  0
  139.3435   70.4518  222.0458 H   0  0  0  0  0  0  0  0  0  0  0  0
  137.6991   71.4584  224.3979 H   0  0  0  0  0  0  0  0  0  0  0  0
  137.4616   69.9555  223.4367 H   0  0  0  0  0  0  0  0  0  0  0  0
  137.8581   68.2327  225.0237 H   0  0  0  0  0  0  0  0  0  0  0  0
  139.4430   67.0822  226.5172 H   0  0  0  0  0  0  0  0  0  0  0  0
  141.6040   68.1344  227.0707 H   0  0  0  0  0  0  0  0  0  0  0  0
  142.1767   70.3420  226.1256 H   0  0  0  0  0  0  0  0  0  0  0  0
  140.3031   72.6793  225.1263 H   0  0  0  0  0  0  0  0  0  0  0  0
  141.7939   71.9785  224.4199 H   0  0  0  0  0  0  0  0  0  0  0  0
  138.4329   77.2388  220.5965 H   0  0  0  0  0  0  0  0  0  0  0  0
  138.3174   75.6090  221.2822 H   0  0  0  0  0  0  0  0  0  0  0  0
  137.5203   77.4325  222.8714 H   0  0  0  0  0  0  0  0  0  0  0  0
  138.8665   76.4857  223.5469 H   0  0  0  0  0  0  0  0  0  0  0  0
  138.0853   79.2270  224.3126 H   0  0  0  0  0  0  0  0  0  0  0  0
  139.3243   81.3363  224.5620 H   0  0  0  0  0  0  0  0  0  0  0  0
  141.3793   81.7557  223.2027 H   0  0  0  0  0  0  0  0  0  0  0  0
  142.1349   80.0130  221.6090 H   0  0  0  0  0  0  0  0  0  0  0  0
  140.9312   78.0053  220.0569 H   0  0  0  0  0  0  0  0  0  0  0  0
  142.1094   77.4175  221.2553 H   0  0  0  0  0  0  0  0  0  0  0  0
  142.2651   73.1263  218.0396 H   0  0  0  0  0  0  0  0  0  0  0  0
  142.7520   71.4739  218.4673 H   0  0  0  0  0  0  0  0  0  0  0  0
  144.4395   73.7276  217.2535 H   0  0  0  0  0  0  0  0  0  0  0  0
  144.2361   72.0386  216.6693 H   0  0  0  0  0  0  0  0  0  0  0  0
  1  2  1  0
  2  3  1  0
  3  4  1  0
  4  5  1  0
  5  6  1  0
  6  7  2  0
  7  8  1  0
  8  9  1  0
  9 10  1  0
 10 11  1  0
 11 12  1  0
 12 13  2  0
 13 14  1  0
 14 15  2  0
 15 16  1  0
 16 17  2  0
 17 18  1  0
  8 19  2  0
 19 20  1  0
 20 21  1  0
 21 22  1  0
 22 23  1  0
 23 24  1  0
 24 25  2  0
 25 26  1  0
 26 27  2  0
 27 28  1  0
 28 29  2  0
 29 30  1  0
 20 31  2  0
  5 32  1  0
 32 33  1  0
 33  2  1  0
 31  6  1  0
 18  9  1  0
 30 21  1  0
 17 12  1  0
 29 24  1  0
  1 34  1  0
  1 35  1  0
  2 36  1  6
  3 37  1  0
  3 38  1  0
  4 39  1  0
  4 40  1  0
  5 41  1  6
 10 42  1  0
 10 43  1  0
 11 44  1  0
 11 45  1  0
 13 46  1  0
 14 47  1  0
 15 48  1  0
 16 49  1  0
 18 50  1  0
 18 51  1  0
 22 52  1  0
 22 53  1  0
 23 54  1  0
 23 55  1  0
 25 56  1  0
 26 57  1  0
 27 58  1  0
 28 59  1  0
 30 60  1  0
 30 61  1  0
 32 62  1  0
 32 63  1  0
 33 64  1  0
 33 65  1  0
M  END
>  <smiles>  (15) 
N[C@H]1CC[C@H](c2nc(N3CCc4ccccc4C3)nc(N3CCc4ccccc4C3)n2)CC1

>  <score_type>  (15) 
oracle

>  <origin>  (15) 
autodockgpu

>  <m_score__min__energy>  (15) 
-10.24

>  <m_primary>  (15) 
energy

>  <rmsd>  (15) 
10.58545715165434

>  <m_score__min__rmsd>  (15) 
10.58545715165434

>  <meeko>  (15) 
{"free_energy": -10.16, "intermolecular_energy": -11.35, "internal_energy": -0.99, "cluster_size": 40, "cluster_id": 1, "rank_in_cluster": 11}

>  <energy>  (15) 
-10.14

>  <cluster_rmsd>  (15) 
0.28

>  <cluster>  (15) 
1

$$$$

     RDKit          3D

 65 70  0  0  0  0  0  0  0  0999 V2000
  145.8250   73.4290  218.0660 N   0  0  0  0  0  0  0  0  0  0  0  0
  145.5660   72.0670  218.4860 C   0  0  1  0  0  0  0  0  0  0  0  0
  145.7750   71.9020  219.9900 C   0  0  0  0  0  0  0  0  0  0  0  0
  144.7720   72.6830  220.7820 C   0  0  0  0  0  0  0  0  0  0  0  0
  143.5090   72.8620  219.9780 C   0  0  2  0  0  0  0  0  0  0  0  0
  142.3620   73.3400  220.7680 C   0  0  0  0  0  0  0  0  0  0  0  0
  141.7790   72.4840  221.6240 N   0  0  0  0  0  0  0  0  0  0  0  0
  140.7430   72.8620  222.3590 C   0  0  0  0  0  0  0  0  0  0  0  0
  140.1150   71.9460  223.2810 N   0  0  0  0  0  0  0  0  0  0  0  0
  139.0220   71.1330  222.7900 C   0  0  0  0  0  0  0  0  0  0  0  0
  138.2050   70.5440  223.9220 C   0  0  0  0  0  0  0  0  0  0  0  0
  139.1170   69.8830  224.9250 C   0  0  0  0  0  0  0  0  0  0  0  0
  138.8100   68.6760  225.4790 C   0  0  0  0  0  0  0  0  0  0  0  0
  139.6610   68.1120  226.3800 C   0  0  0  0  0  0  0  0  0  0  0  0
  140.8160   68.7520  226.7250 C   0  0  0  0  0  0  0  0  0  0  0  0
  141.1140   69.9750  226.1560 C   0  0  0  0  0  0  0  0  0  0  0  0
  140.2640   70.5840  225.2290 C   0  0  0  0  0  0  0  0  0  0  0  0
  140.6120   71.8940  224.6390 C   0  0  0  0  0  0  0  0  0  0  0  0
  140.2890   74.1230  222.2280 N   0  0  0  0  0  0  0  0  0  0  0  0
  140.8290   75.0210  221.3900 C   0  0  0  0  0  0  0  0  0  0  0  0
  140.2900   76.3320  221.3100 N   0  0  0  0  0  0  0  0  0  0  0  0
  138.8520   76.4790  221.4290 C   0  0  0  0  0  0  0  0  0  0  0  0
  138.6060   77.1190  222.7800 C   0  0  0  0  0  0  0  0  0  0  0  0
  139.4280   78.3550  222.8340 C   0  0  0  0  0  0  0  0  0  0  0  0
  139.0090   79.3460  223.6950 C   0  0  0  0  0  0  0  0  0  0  0  0
  139.7030   80.5250  223.8170 C   0  0  0  0  0  0  0  0  0  0  0  0
  140.8500   80.7430  223.0670 C   0  0  0  0  0  0  0  0  0  0  0  0
  141.2650   79.7490  222.2060 C   0  0  0  0  0  0  0  0  0  0  0  0
  140.5640   78.5460  222.0770 C   0  0  0  0  0  0  0  0  0  0  0  0
  141.0750   77.5110  221.1220 C   0  0  0  0  0  0  0  0  0  0  0  0
  141.8820   74.6070  220.6560 N   0  0  0  0  0  0  0  0  0  0  0  0
  143.2490   71.5850  219.2250 C   0  0  0  0  0  0  0  0  0  0  0  0
  144.2270   71.5690  218.0430 C   0  0  0  0  0  0  0  0  0  0  0  0
  146.6960   73.8090  218.5060 H   0  0  0  0  0  0  0  0  0  0  0  0
  145.0530   74.0790  218.3160 H   0  0  0  0  0  0  0  0  0  0  0  0
  146.3051   71.4304  217.9777 H   0  0  0  0  0  0  0  0  0  0  0  0
  146.7846   72.2534  220.2495 H   0  0  0  0  0  0  0  0  0  0  0  0
  145.6501   70.8374  220.2369 H   0  0  0  0  0  0  0  0  0  0  0  0
  145.1905   73.6701  221.0281 H   0  0  0  0  0  0  0  0  0  0  0  0
  144.5374   72.1369  221.7076 H   0  0  0  0  0  0  0  0  0  0  0  0
  143.6539   73.6781  219.2548 H   0  0  0  0  0  0  0  0  0  0  0  0
  138.3664   71.7577  222.1655 H   0  0  0  0  0  0  0  0  0  0  0  0
  139.4486   70.3024  222.2085 H   0  0  0  0  0  0  0  0  0  0  0  0
  137.6380   71.3457  224.4178 H   0  0  0  0  0  0  0  0  0  0  0  0
  137.5110   69.7939  223.5149 H   0  0  0  0  0  0  0  0  0  0  0  0
  137.8795   68.1602  225.1996 H   0  0  0  0  0  0  0  0  0  0  0  0
  139.4171   67.1387  226.8307 H   0  0  0  0  0  0  0  0  0  0  0  0
  141.5052   68.2969  227.4515 H   0  0  0  0  0  0  0  0  0  0  0  0
  142.0468   70.4838  226.4407 H   0  0  0  0  0  0  0  0  0  0  0  0
  140.1522   72.6990  225.2311 H   0  0  0  0  0  0  0  0  0  0  0  0
  141.7043   72.0238  224.6402 H   0  0  0  0  0  0  0  0  0  0  0  0
  138.4662   77.1234  220.6253 H   0  0  0  0  0  0  0  0  0  0  0  0
  138.3403   75.5089  221.3445 H   0  0  0  0  0  0  0  0  0  0  0  0
  137.5406   77.3693  222.8905 H   0  0  0  0  0  0  0  0  0  0  0  0
  138.8787   76.4316  223.5943 H   0  0  0  0  0  0  0  0  0  0  0  0
  138.1012   79.1898  224.2962 H   0  0  0  0  0  0  0  0  0  0  0  0
  139.3480   81.2999  224.5123 H   0  0  0  0  0  0  0  0  0  0  0  0
  141.4132   81.6836  223.1569 H   0  0  0  0  0  0  0  0  0  0  0  0
  142.1722   79.9068  221.6043 H   0  0  0  0  0  0  0  0  0  0  0  0
  140.9720   77.8704  220.0875 H   0  0  0  0  0  0  0  0  0  0  0  0
  142.1391   77.3029  221.3074 H   0  0  0  0  0  0  0  0  0  0  0  0
  142.2115   71.5636  218.8600 H   0  0  0  0  0  0  0  0  0  0  0  0
  143.3917   70.7063  219.8711 H   0  0  0  0  0  0  0  0  0  0  0  0
  143.8427   72.2180  217.2423 H   0  0  0  0  0  0  0  0  0  0  0  0
  144.3281   70.5393  217.6694 H   0  0  0  0  0  0  0  0  0  0  0  0
  1  2  1  0
  2  3  1  0
  3  4  1  0
  4  5  1  0
  5  6  1  0
  6  7  2  0
  7  8  1  0
  8  9  1  0
  9 10  1  0
 10 11  1  0
 11 12  1  0
 12 13  2  0
 13 14  1  0
 14 15  2  0
 15 16  1  0
 16 17  2  0
 17 18  1  0
  8 19  2  0
 19 20  1  0
 20 21  1  0
 21 22  1  0
 22 23  1  0
 23 24  1  0
 24 25  2  0
 25 26  1  0
 26 27  2  0
 27 28  1  0
 28 29  2  0
 29 30  1  0
 20 31  2  0
  5 32  1  0
 32 33  1  0
 33  2  1  0
 31  6  1  0
 18  9  1  0
 30 21  1  0
 17 12  1  0
 29 24  1  0
  1 34  1  0
  1 35  1  0
  2 36  1  6
  3 37  1  0
  3 38  1  0
  4 39  1  0
  4 40  1  0
  5 41  1  6
 10 42  1  0
 10 43  1  0
 11 44  1  0
 11 45  1  0
 13 46  1  0
 14 47  1  0
 15 48  1  0
 16 49  1  0
 18 50  1  0
 18 51  1  0
 22 52  1  0
 22 53  1  0
 23 54  1  0
 23 55  1  0
 25 56  1  0
 26 57  1  0
 27 58  1  0
 28 59  1  0
 30 60  1  0
 30 61  1  0
 32 62  1  0
 32 63  1  0
 33 64  1  0
 33 65  1  0
M  END
>  <smiles>  (16) 
N[C@H]1CC[C@H](c2nc(N3CCc4ccccc4C3)nc(N3CCc4ccccc4C3)n2)CC1

>  <score_type>  (16) 
oracle

>  <origin>  (16) 
autodockgpu

>  <m_score__min__energy>  (16) 
-10.24

>  <m_primary>  (16) 
energy

>  <rmsd>  (16) 
10.680266854104563

>  <m_score__min__rmsd>  (16) 
10.680266854104563

>  <meeko>  (16) 
{"free_energy": -10.19, "intermolecular_energy": -11.38, "internal_energy": -0.99, "cluster_size": 40, "cluster_id": 1, "rank_in_cluster": 7}

>  <energy>  (16) 
-10.14

>  <cluster_rmsd>  (16) 
0.62

>  <cluster>  (16) 
1

$$$$

     RDKit          3D

 65 70  0  0  0  0  0  0  0  0999 V2000
  145.7370   73.3850  218.3540 N   0  0  0  0  0  0  0  0  0  0  0  0
  145.9500   72.3420  219.3360 C   0  0  1  0  0  0  0  0  0  0  0  0
  146.1090   72.9270  220.7380 C   0  0  0  0  0  0  0  0  0  0  0  0
  144.8470   73.5740  221.2200 C   0  0  0  0  0  0  0  0  0  0  0  0
  143.6560   72.9400  220.5470 C   0  0  2  0  0  0  0  0  0  0  0  0
  142.3660   73.2830  221.1690 C   0  0  0  0  0  0  0  0  0  0  0  0
  141.7850   72.3730  221.9690 N   0  0  0  0  0  0  0  0  0  0  0  0
  140.6240   72.6310  222.5540 C   0  0  0  0  0  0  0  0  0  0  0  0
  139.9960   71.6570  223.4160 N   0  0  0  0  0  0  0  0  0  0  0  0
  138.9990   70.7820  222.8360 C   0  0  0  0  0  0  0  0  0  0  0  0
  138.1460   70.1180  223.8980 C   0  0  0  0  0  0  0  0  0  0  0  0
  139.0270   69.5020  224.9550 C   0  0  0  0  0  0  0  0  0  0  0  0
  138.7660   68.2660  225.4690 C   0  0  0  0  0  0  0  0  0  0  0  0
  139.5870   67.7450  226.4210 C   0  0  0  0  0  0  0  0  0  0  0  0
  140.6680   68.4550  226.8570 C   0  0  0  0  0  0  0  0  0  0  0  0
  140.9220   69.7050  226.3280 C   0  0  0  0  0  0  0  0  0  0  0  0
  140.1000   70.2730  225.3500 C   0  0  0  0  0  0  0  0  0  0  0  0
  140.3970   71.6140  224.8060 C   0  0  0  0  0  0  0  0  0  0  0  0
  140.0410   73.8240  222.3280 N   0  0  0  0  0  0  0  0  0  0  0  0
  140.5730   74.7700  221.5400 C   0  0  0  0  0  0  0  0  0  0  0  0
  139.8950   76.0040  221.3520 N   0  0  0  0  0  0  0  0  0  0  0  0
  138.4520   76.0080  221.4940 C   0  0  0  0  0  0  0  0  0  0  0  0
  138.1580   76.7430  222.7840 C   0  0  0  0  0  0  0  0  0  0  0  0
  138.8430   78.0590  222.7030 C   0  0  0  0  0  0  0  0  0  0  0  0
  138.3330   79.0780  223.4790 C   0  0  0  0  0  0  0  0  0  0  0  0
  138.8980   80.3290  223.4730 C   0  0  0  0  0  0  0  0  0  0  0  0
  140.0030   80.5950  222.6770 C   0  0  0  0  0  0  0  0  0  0  0  0
  140.5090   79.5730  221.9030 C   0  0  0  0  0  0  0  0  0  0  0  0
  139.9400   78.2960  221.9040 C   0  0  0  0  0  0  0  0  0  0  0  0
  140.5460   77.2350  221.0350 C   0  0  0  0  0  0  0  0  0  0  0  0
  141.7550   74.4790  220.9590 N   0  0  0  0  0  0  0  0  0  0  0  0
  143.9120   71.4600  220.4380 C   0  0  0  0  0  0  0  0  0  0  0  0
  144.9050   71.2740  219.2830 C   0  0  0  0  0  0  0  0  0  0  0  0
  146.6380   73.8390  218.0720 H   0  0  0  0  0  0  0  0  0  0  0  0
  145.1150   74.1420  218.7020 H   0  0  0  0  0  0  0  0  0  0  0  0
  146.8965   71.8459  219.0752 H   0  0  0  0  0  0  0  0  0  0  0  0
  146.9104   73.6803  220.7202 H   0  0  0  0  0  0  0  0  0  0  0  0
  146.3537   72.1036  221.4251 H   0  0  0  0  0  0  0  0  0  0  0  0
  144.8728   74.6473  220.9804 H   0  0  0  0  0  0  0  0  0  0  0  0
  144.7630   73.4379  222.3083 H   0  0  0  0  0  0  0  0  0  0  0  0
  143.5494   73.3585  219.5353 H   0  0  0  0  0  0  0  0  0  0  0  0
  138.3481   71.3729  222.1748 H   0  0  0  0  0  0  0  0  0  0  0  0
  139.5215   69.9932  222.2749 H   0  0  0  0  0  0  0  0  0  0  0  0
  137.4912   70.8701  224.3623 H   0  0  0  0  0  0  0  0  0  0  0  0
  137.5363   69.3302  223.4315 H   0  0  0  0  0  0  0  0  0  0  0  0
  137.8960   67.6930  225.1157 H   0  0  0  0  0  0  0  0  0  0  0  0
  139.3790   66.7495  226.8401 H   0  0  0  0  0  0  0  0  0  0  0  0
  141.3331   68.0339  227.6253 H   0  0  0  0  0  0  0  0  0  0  0  0
  141.7955   70.2696  226.6861 H   0  0  0  0  0  0  0  0  0  0  0  0
  139.8408   72.3741  225.3742 H   0  0  0  0  0  0  0  0  0  0  0  0
  141.4746   71.8188  224.8889 H   0  0  0  0  0  0  0  0  0  0  0  0
  137.9864   76.5281  220.6439 H   0  0  0  0  0  0  0  0  0  0  0  0
  138.0478   74.9852  221.5137 H   0  0  0  0  0  0  0  0  0  0  0  0
  137.0735   76.8884  222.8966 H   0  0  0  0  0  0  0  0  0  0  0  0
  138.5147   76.1688  223.6518 H   0  0  0  0  0  0  0  0  0  0  0  0
  137.4566   78.8849  224.1151 H   0  0  0  0  0  0  0  0  0  0  0  0
  138.4726   81.1246  224.1024 H   0  0  0  0  0  0  0  0  0  0  0  0
  140.4626   81.5943  222.6641 H   0  0  0  0  0  0  0  0  0  0  0  0
  141.3850   79.7675  221.2667 H   0  0  0  0  0  0  0  0  0  0  0  0
  140.3890   77.4818  219.9746 H   0  0  0  0  0  0  0  0  0  0  0  0
  141.6293   77.1594  221.2105 H   0  0  0  0  0  0  0  0  0  0  0  0
  142.9742   70.9269  220.2226 H   0  0  0  0  0  0  0  0  0  0  0  0
  144.3149   71.0555  221.3783 H   0  0  0  0  0  0  0  0  0  0  0  0
  144.3672   71.3366  218.3255 H   0  0  0  0  0  0  0  0  0  0  0  0
  145.3872   70.2895  219.3738 H   0  0  0  0  0  0  0  0  0  0  0  0
  1  2  1  0
  2  3  1  0
  3  4  1  0
  4  5  1  0
  5  6  1  0
  6  7  2  0
  7  8  1  0
  8  9  1  0
  9 10  1  0
 10 11  1  0
 11 12  1  0
 12 13  2  0
 13 14  1  0
 14 15  2  0
 15 16  1  0
 16 17  2  0
 17 18  1  0
  8 19  2  0
 19 20  1  0
 20 21  1  0
 21 22  1  0
 22 23  1  0
 23 24  1  0
 24 25  2  0
 25 26  1  0
 26 27  2  0
 27 28  1  0
 28 29  2  0
 29 30  1  0
 20 31  2  0
  5 32  1  0
 32 33  1  0
 33  2  1  0
 31  6  1  0
 18  9  1  0
 30 21  1  0
 17 12  1  0
 29 24  1  0
  1 34  1  0
  1 35  1  0
  2 36  1  6
  3 37  1  0
  3 38  1  0
  4 39  1  0
  4 40  1  0
  5 41  1  6
 10 42  1  0
 10 43  1  0
 11 44  1  0
 11 45  1  0
 13 46  1  0
 14 47  1  0
 15 48  1  0
 16 49  1  0
 18 50  1  0
 18 51  1  0
 22 52  1  0
 22 53  1  0
 23 54  1  0
 23 55  1  0
 25 56  1  0
 26 57  1  0
 27 58  1  0
 28 59  1  0
 30 60  1  0
 30 61  1  0
 32 62  1  0
 32 63  1  0
 33 64  1  0
 33 65  1  0
M  END
>  <smiles>  (17) 
N[C@H]1CC[C@H](c2nc(N3CCc4ccccc4C3)nc(N3CCc4ccccc4C3)n2)CC1

>  <score_type>  (17) 
oracle

>  <origin>  (17) 
autodockgpu

>  <m_score__min__energy>  (17) 
-10.24

>  <m_primary>  (17) 
energy

>  <rmsd>  (17) 
10.980461242942278

>  <m_score__min__rmsd>  (17) 
10.980461242942278

>  <meeko>  (17) 
{"free_energy": -10.18, "intermolecular_energy": -11.37, "internal_energy": -0.99, "cluster_size": 40, "cluster_id": 1, "rank_in_cluster": 10}

>  <energy>  (17) 
-10.13

>  <cluster_rmsd>  (17) 
0.34

>  <cluster>  (17) 
1

$$$$

     RDKit          3D

 65 70  0  0  0  0  0  0  0  0999 V2000
  142.0100   78.4620  221.7160 N   0  0  0  0  0  0  0  0  0  0  0  0
  141.2020   78.1760  220.5490 C   0  0  1  0  0  0  0  0  0  0  0  0
  141.9940   77.3890  219.5070 C   0  0  0  0  0  0  0  0  0  0  0  0
  142.3540   76.0190  219.9960 C   0  0  0  0  0  0  0  0  0  0  0  0
  141.3490   75.5600  221.0220 C   0  0  2  0  0  0  0  0  0  0  0  0
  141.4320   74.1240  221.3360 C   0  0  0  0  0  0  0  0  0  0  0  0
  142.2890   73.3680  220.6290 N   0  0  0  0  0  0  0  0  0  0  0  0
  142.4030   72.0690  220.8700 C   0  0  0  0  0  0  0  0  0  0  0  0
  143.3240   71.2530  220.1140 N   0  0  0  0  0  0  0  0  0  0  0  0
  144.6700   71.7490  219.9240 C   0  0  0  0  0  0  0  0  0  0  0  0
  145.3830   71.0240  218.7990 C   0  0  0  0  0  0  0  0  0  0  0  0
  145.2510   69.5330  218.9830 C   0  0  0  0  0  0  0  0  0  0  0  0
  146.3060   68.6950  218.7790 C   0  0  0  0  0  0  0  0  0  0  0  0
  146.1460   67.3540  218.9570 C   0  0  0  0  0  0  0  0  0  0  0  0
  144.9350   66.8540  219.3390 C   0  0  0  0  0  0  0  0  0  0  0  0
  143.8750   67.7150  219.5420 C   0  0  0  0  0  0  0  0  0  0  0  0
  144.0020   69.0960  219.3680 C   0  0  0  0  0  0  0  0  0  0  0  0
  142.8470   69.9900  219.5920 C   0  0  0  0  0  0  0  0  0  0  0  0
  141.6400   71.5260  221.8390 N   0  0  0  0  0  0  0  0  0  0  0  0
  140.7680   72.2300  222.5750 C   0  0  0  0  0  0  0  0  0  0  0  0
  139.9990   71.5820  223.5780 N   0  0  0  0  0  0  0  0  0  0  0  0
  138.7970   70.8850  223.1620 C   0  0  0  0  0  0  0  0  0  0  0  0
  139.0990   69.4080  223.3000 C   0  0  0  0  0  0  0  0  0  0  0  0
  139.5740   69.1870  224.6910 C   0  0  0  0  0  0  0  0  0  0  0  0
  139.4220   67.9180  225.2080 C   0  0  0  0  0  0  0  0  0  0  0  0
  139.8310   67.6150  226.4830 C   0  0  0  0  0  0  0  0  0  0  0  0
  140.4080   68.5900  227.2840 C   0  0  0  0  0  0  0  0  0  0  0  0
  140.5570   69.8580  226.7620 C   0  0  0  0  0  0  0  0  0  0  0  0
  140.1440   70.1740  225.4650 C   0  0  0  0  0  0  0  0  0  0  0  0
  140.3380   71.5740  224.9660 C   0  0  0  0  0  0  0  0  0  0  0  0
  140.6740   73.5490  222.3070 N   0  0  0  0  0  0  0  0  0  0  0  0
  139.9850   76.0160  220.5780 C   0  0  0  0  0  0  0  0  0  0  0  0
  139.9040   77.5160  220.8900 C   0  0  0  0  0  0  0  0  0  0  0  0
  142.9470   78.8460  221.4510 H   0  0  0  0  0  0  0  0  0  0  0  0
  142.1840   77.6190  222.2990 H   0  0  0  0  0  0  0  0  0  0  0  0
  140.9357   79.1444  220.1003 H   0  0  0  0  0  0  0  0  0  0  0  0
  142.9185   77.9377  219.2741 H   0  0  0  0  0  0  0  0  0  0  0  0
  141.3633   77.2769  218.6128 H   0  0  0  0  0  0  0  0  0  0  0  0
  143.3546   76.0457  220.4521 H   0  0  0  0  0  0  0  0  0  0  0  0
  142.3508   75.3191  219.1474 H   0  0  0  0  0  0  0  0  0  0  0  0
  141.5818   76.0274  221.9902 H   0  0  0  0  0  0  0  0  0  0  0  0
  144.6238   72.8214  219.6837 H   0  0  0  0  0  0  0  0  0  0  0  0
  145.2327   71.5763  220.8532 H   0  0  0  0  0  0  0  0  0  0  0  0
  144.9350   71.3137  217.8370 H   0  0  0  0  0  0  0  0  0  0  0  0
  146.4485   71.2970  218.8108 H   0  0  0  0  0  0  0  0  0  0  0  0
  147.2819   69.0994  218.4722 H   0  0  0  0  0  0  0  0  0  0  0  0
  146.9941   66.6731  218.7926 H   0  0  0  0  0  0  0  0  0  0  0  0
  144.8042   65.7715  219.4843 H   0  0  0  0  0  0  0  0  0  0  0  0
  142.9028   67.3024  219.8495 H   0  0  0  0  0  0  0  0  0  0  0  0
  142.3212   70.1589  218.6407 H   0  0  0  0  0  0  0  0  0  0  0  0
  142.1534   69.5287  220.3104 H   0  0  0  0  0  0  0  0  0  0  0  0
  137.9513   71.1637  223.8078 H   0  0  0  0  0  0  0  0  0  0  0  0
  138.5195   71.1436  222.1295 H   0  0  0  0  0  0  0  0  0  0  0  0
  138.1896   68.8179  223.1136 H   0  0  0  0  0  0  0  0  0  0  0  0
  139.8613   69.0946  222.5716 H   0  0  0  0  0  0  0  0  0  0  0  0
  138.9644   67.1336  224.5873 H   0  0  0  0  0  0  0  0  0  0  0  0
  139.7006   66.5942  226.8715 H   0  0  0  0  0  0  0  0  0  0  0  0
  140.7377   68.3580  228.3075 H   0  0  0  0  0  0  0  0  0  0  0  0
  141.0136   70.6421  227.3839 H   0  0  0  0  0  0  0  0  0  0  0  0
  139.6826   72.2642  225.5174 H   0  0  0  0  0  0  0  0  0  0  0  0
  141.3783   71.8993  225.1143 H   0  0  0  0  0  0  0  0  0  0  0  0
  139.2042   75.4707  221.1285 H   0  0  0  0  0  0  0  0  0  0  0  0
  139.8309   75.8239  219.5059 H   0  0  0  0  0  0  0  0  0  0  0  0
  139.6939   77.6553  221.9607 H   0  0  0  0  0  0  0  0  0  0  0  0
  139.0990   77.9680  220.2920 H   0  0  0  0  0  0  0  0  0  0  0  0
  1  2  1  0
  2  3  1  0
  3  4  1  0
  4  5  1  0
  5  6  1  0
  6  7  2  0
  7  8  1  0
  8  9  1  0
  9 10  1  0
 10 11  1  0
 11 12  1  0
 12 13  2  0
 13 14  1  0
 14 15  2  0
 15 16  1  0
 16 17  2  0
 17 18  1  0
  8 19  2  0
 19 20  1  0
 20 21  1  0
 21 22  1  0
 22 23  1  0
 23 24  1  0
 24 25  2  0
 25 26  1  0
 26 27  2  0
 27 28  1  0
 28 29  2  0
 29 30  1  0
 20 31  2  0
  5 32  1  0
 32 33  1  0
 33  2  1  0
 31  6  1  0
 18  9  1  0
 30 21  1  0
 17 12  1  0
 29 24  1  0
  1 34  1  0
  1 35  1  0
  2 36  1  6
  3 37  1  0
  3 38  1  0
  4 39  1  0
  4 40  1  0
  5 41  1  1
 10 42  1  0
 10 43  1  0
 11 44  1  0
 11 45  1  0
 13 46  1  0
 14 47  1  0
 15 48  1  0
 16 49  1  0
 18 50  1  0
 18 51  1  0
 22 52  1  0
 22 53  1  0
 23 54  1  0
 23 55  1  0
 25 56  1  0
 26 57  1  0
 27 58  1  0
 28 59  1  0
 30 60  1  0
 30 61  1  0
 32 62  1  0
 32 63  1  0
 33 64  1  0
 33 65  1  0
M  END
>  <smiles>  (18) 
N[C@H]1CC[C@H](c2nc(N3CCc4ccccc4C3)nc(N3CCc4ccccc4C3)n2)CC1

>  <score_type>  (18) 
oracle

>  <origin>  (18) 
autodockgpu

>  <m_score__min__energy>  (18) 
-10.24

>  <m_primary>  (18) 
energy

>  <rmsd>  (18) 
11.143387623520594

>  <m_score__min__rmsd>  (18) 
11.143387623520594

>  <meeko>  (18) 
{"free_energy": -9.88, "intermolecular_energy": -11.07, "internal_energy": -1.02, "cluster_size": 10, "cluster_id": 2, "rank_in_cluster": 5}

>  <energy>  (18) 
-10.13

>  <cluster_rmsd>  (18) 
0.35

>  <cluster>  (18) 
1

$$$$

     RDKit          3D

 65 70  0  0  0  0  0  0  0  0999 V2000
  145.7860   73.3940  218.2810 N   0  0  0  0  0  0  0  0  0  0  0  0
  145.9410   72.3270  219.2490 C   0  0  1  0  0  0  0  0  0  0  0  0
  146.1200   72.8820  220.6600 C   0  0  0  0  0  0  0  0  0  0  0  0
  144.8890   73.5850  221.1450 C   0  0  0  0  0  0  0  0  0  0  0  0
  143.6720   73.0210  220.4560 C   0  0  2  0  0  0  0  0  0  0  0  0
  142.3970   73.4200  221.0770 C   0  0  0  0  0  0  0  0  0  0  0  0
  141.7690   72.5300  221.8640 N   0  0  0  0  0  0  0  0  0  0  0  0
  140.6190   72.8370  222.4470 C   0  0  0  0  0  0  0  0  0  0  0  0
  139.9400   71.8850  223.2940 N   0  0  0  0  0  0  0  0  0  0  0  0
  138.8370   71.1390  222.7280 C   0  0  0  0  0  0  0  0  0  0  0  0
  137.9740   70.5060  223.8010 C   0  0  0  0  0  0  0  0  0  0  0  0
  138.8400   69.7570  224.7820 C   0  0  0  0  0  0  0  0  0  0  0  0
  138.4840   68.5270  225.2510 C   0  0  0  0  0  0  0  0  0  0  0  0
  139.2950   67.8830  226.1350 C   0  0  0  0  0  0  0  0  0  0  0  0
  140.4580   68.4640  226.5470 C   0  0  0  0  0  0  0  0  0  0  0  0
  140.8070   69.7100  226.0630 C   0  0  0  0  0  0  0  0  0  0  0  0
  140.0000   70.4010  225.1560 C   0  0  0  0  0  0  0  0  0  0  0  0
  140.4000   71.7340  224.6580 C   0  0  0  0  0  0  0  0  0  0  0  0
  140.0960   74.0590  222.2320 N   0  0  0  0  0  0  0  0  0  0  0  0
  140.6770   74.9870  221.4570 C   0  0  0  0  0  0  0  0  0  0  0  0
  140.0600   76.2540  221.2810 N   0  0  0  0  0  0  0  0  0  0  0  0
  138.7230   76.2810  220.7190 C   0  0  0  0  0  0  0  0  0  0  0  0
  137.7990   76.6700  221.8530 C   0  0  0  0  0  0  0  0  0  0  0  0
  138.3250   77.9340  222.4320 C   0  0  0  0  0  0  0  0  0  0  0  0
  137.4250   78.7380  223.0980 C   0  0  0  0  0  0  0  0  0  0  0  0
  137.8160   79.9250  223.6670 C   0  0  0  0  0  0  0  0  0  0  0  0
  139.1370   80.3410  223.5820 C   0  0  0  0  0  0  0  0  0  0  0  0
  140.0330   79.5330  222.9150 C   0  0  0  0  0  0  0  0  0  0  0  0
  139.6430   78.3240  222.3320 C   0  0  0  0  0  0  0  0  0  0  0  0
  140.6730   77.4980  221.6230 C   0  0  0  0  0  0  0  0  0  0  0  0
  141.8460   74.6460  220.8780 N   0  0  0  0  0  0  0  0  0  0  0  0
  143.8550   71.5320  220.3270 C   0  0  0  0  0  0  0  0  0  0  0  0
  144.8440   71.3130  219.1750 C   0  0  0  0  0  0  0  0  0  0  0  0
  146.7020   73.8510  218.0620 H   0  0  0  0  0  0  0  0  0  0  0  0
  145.1460   74.1430  218.6110 H   0  0  0  0  0  0  0  0  0  0  0  0
  146.8634   71.7888  218.9854 H   0  0  0  0  0  0  0  0  0  0  0  0
  146.9585   73.5939  220.6582 H   0  0  0  0  0  0  0  0  0  0  0  0
  146.3182   72.0370  221.3358 H   0  0  0  0  0  0  0  0  0  0  0  0
  144.9701   74.6590  220.9214 H   0  0  0  0  0  0  0  0  0  0  0  0
  144.7916   73.4381  222.2308 H   0  0  0  0  0  0  0  0  0  0  0  0
  143.5918   73.4578  219.4496 H   0  0  0  0  0  0  0  0  0  0  0  0
  138.2162   71.8214  222.1289 H   0  0  0  0  0  0  0  0  0  0  0  0
  139.2537   70.3332  222.1059 H   0  0  0  0  0  0  0  0  0  0  0  0
  137.4176   71.2923  224.3322 H   0  0  0  0  0  0  0  0  0  0  0  0
  137.2695   69.8040  223.3311 H   0  0  0  0  0  0  0  0  0  0  0  0
  137.5469   68.0577  224.9170 H   0  0  0  0  0  0  0  0  0  0  0  0
  139.0114   66.8915  226.5178 H   0  0  0  0  0  0  0  0  0  0  0  0
  141.1141   67.9437  227.2603 H   0  0  0  0  0  0  0  0  0  0  0  0
  141.7467   70.1709  226.4013 H   0  0  0  0  0  0  0  0  0  0  0  0
  139.9479   72.5140  225.2882 H   0  0  0  0  0  0  0  0  0  0  0  0
  141.4951   71.8308  224.6937 H   0  0  0  0  0  0  0  0  0  0  0  0
  138.6647   77.0217  219.9078 H   0  0  0  0  0  0  0  0  0  0  0  0
  138.4467   75.3057  220.2919 H   0  0  0  0  0  0  0  0  0  0  0  0
  136.7789   76.8254  221.4720 H   0  0  0  0  0  0  0  0  0  0  0  0
  137.7592   75.8774  222.6147 H   0  0  0  0  0  0  0  0  0  0  0  0
  136.3739   78.4229  223.1751 H   0  0  0  0  0  0  0  0  0  0  0  0
  137.0784   80.5491  224.1928 H   0  0  0  0  0  0  0  0  0  0  0  0
  139.4606   81.2899  224.0346 H   0  0  0  0  0  0  0  0  0  0  0  0
  141.0841   79.8485  222.8395 H   0  0  0  0  0  0  0  0  0  0  0  0
  141.0080   78.0153  220.7119 H   0  0  0  0  0  0  0  0  0  0  0  0
  141.5507   77.3353  222.2658 H   0  0  0  0  0  0  0  0  0  0  0  0
  142.8932   71.0492  220.0991 H   0  0  0  0  0  0  0  0  0  0  0  0
  144.2319   71.0949  221.2634 H   0  0  0  0  0  0  0  0  0  0  0  0
  144.3157   71.4160  218.2157 H   0  0  0  0  0  0  0  0  0  0  0  0
  145.2759   70.3044  219.2541 H   0  0  0  0  0  0  0  0  0  0  0  0
  1  2  1  0
  2  3  1  0
  3  4  1  0
  4  5  1  0
  5  6  1  0
  6  7  2  0
  7  8  1  0
  8  9  1  0
  9 10  1  0
 10 11  1  0
 11 12  1  0
 12 13  2  0
 13 14  1  0
 14 15  2  0
 15 16  1  0
 16 17  2  0
 17 18  1  0
  8 19  2  0
 19 20  1  0
 20 21  1  0
 21 22  1  0
 22 23  1  0
 23 24  1  0
 24 25  2  0
 25 26  1  0
 26 27  2  0
 27 28  1  0
 28 29  2  0
 29 30  1  0
 20 31  2  0
  5 32  1  0
 32 33  1  0
 33  2  1  0
 31  6  1  0
 18  9  1  0
 30 21  1  0
 17 12  1  0
 29 24  1  0
  1 34  1  0
  1 35  1  0
  2 36  1  6
  3 37  1  0
  3 38  1  0
  4 39  1  0
  4 40  1  0
  5 41  1  6
 10 42  1  0
 10 43  1  0
 11 44  1  0
 11 45  1  0
 13 46  1  0
 14 47  1  0
 15 48  1  0
 16 49  1  0
 18 50  1  0
 18 51  1  0
 22 52  1  0
 22 53  1  0
 23 54  1  0
 23 55  1  0
 25 56  1  0
 26 57  1  0
 27 58  1  0
 28 59  1  0
 30 60  1  0
 30 61  1  0
 32 62  1  0
 32 63  1  0
 33 64  1  0
 33 65  1  0
M  END
>  <smiles>  (19) 
N[C@H]1CC[C@H](c2nc(N3CCc4ccccc4C3)nc(N3CCc4ccccc4C3)n2)CC1

>  <score_type>  (19) 
oracle

>  <origin>  (19) 
autodockgpu

>  <m_score__min__energy>  (19) 
-10.24

>  <m_primary>  (19) 
energy

>  <rmsd>  (19) 
10.775069202520058

>  <m_score__min__rmsd>  (19) 
10.775069202520058

>  <meeko>  (19) 
{"free_energy": -9.88, "intermolecular_energy": -11.08, "internal_energy": -1.0, "cluster_size": 40, "cluster_id": 1, "rank_in_cluster": 38}

>  <energy>  (19) 
-10.13

>  <cluster_rmsd>  (19) 
0.49

>  <cluster>  (19) 
1

$$$$

     RDKit          3D

 65 70  0  0  0  0  0  0  0  0999 V2000
  145.6150   73.3560  217.9550 N   0  0  0  0  0  0  0  0  0  0  0  0
  145.5810   72.0950  218.6670 C   0  0  1  0  0  0  0  0  0  0  0  0
  145.8560   72.2940  220.1560 C   0  0  0  0  0  0  0  0  0  0  0  0
  144.7680   73.0750  220.8260 C   0  0  0  0  0  0  0  0  0  0  0  0
  143.4700   72.8900  220.0810 C   0  0  2  0  0  0  0  0  0  0  0  0
  142.2860   73.3570  220.8210 C   0  0  0  0  0  0  0  0  0  0  0  0
  141.6650   72.4900  221.6390 N   0  0  0  0  0  0  0  0  0  0  0  0
  140.5950   72.8580  222.3290 C   0  0  0  0  0  0  0  0  0  0  0  0
  139.9250   71.9300  223.2090 N   0  0  0  0  0  0  0  0  0  0  0  0
  138.7940   71.1940  222.6850 C   0  0  0  0  0  0  0  0  0  0  0  0
  137.9520   70.5920  223.7920 C   0  0  0  0  0  0  0  0  0  0  0  0
  138.8330   69.8430  224.7590 C   0  0  0  0  0  0  0  0  0  0  0  0
  138.4710   68.6260  225.2580 C   0  0  0  0  0  0  0  0  0  0  0  0
  139.2960   67.9810  226.1280 C   0  0  0  0  0  0  0  0  0  0  0  0
  140.4800   68.5490  226.4980 C   0  0  0  0  0  0  0  0  0  0  0  0
  140.8350   69.7820  225.9850 C   0  0  0  0  0  0  0  0  0  0  0  0
  140.0140   70.4730  225.0910 C   0  0  0  0  0  0  0  0  0  0  0  0
  140.4220   71.7910  224.5620 C   0  0  0  0  0  0  0  0  0  0  0  0
  140.1440   74.1200  222.1900 N   0  0  0  0  0  0  0  0  0  0  0  0
  140.7220   75.0280  221.3900 C   0  0  0  0  0  0  0  0  0  0  0  0
  140.1840   76.3400  221.2990 N   0  0  0  0  0  0  0  0  0  0  0  0
  138.7440   76.4850  221.3820 C   0  0  0  0  0  0  0  0  0  0  0  0
  138.4630   77.1220  222.7270 C   0  0  0  0  0  0  0  0  0  0  0  0
  139.2830   78.3580  222.8060 C   0  0  0  0  0  0  0  0  0  0  0  0
  138.8420   79.3470  223.6580 C   0  0  0  0  0  0  0  0  0  0  0  0
  139.5320   80.5260  223.8000 C   0  0  0  0  0  0  0  0  0  0  0  0
  140.6980   80.7460  223.0800 C   0  0  0  0  0  0  0  0  0  0  0  0
  141.1350   79.7540  222.2280 C   0  0  0  0  0  0  0  0  0  0  0  0
  140.4380   78.5510  222.0790 C   0  0  0  0  0  0  0  0  0  0  0  0
  140.9740   77.5190  221.1340 C   0  0  0  0  0  0  0  0  0  0  0  0
  141.8090   74.6240  220.7010 N   0  0  0  0  0  0  0  0  0  0  0  0
  143.3890   71.4560  219.6320 C   0  0  0  0  0  0  0  0  0  0  0  0
  144.3230   71.3240  218.4220 C   0  0  0  0  0  0  0  0  0  0  0  0
  146.5860   73.7450  217.9050 H   0  0  0  0  0  0  0  0  0  0  0  0
  145.0220   74.0840  218.4010 H   0  0  0  0  0  0  0  0  0  0  0  0
  146.3939   71.4761  218.2594 H   0  0  0  0  0  0  0  0  0  0  0  0
  146.8061   72.8359  220.2727 H   0  0  0  0  0  0  0  0  0  0  0  0
  145.9041   71.3021  220.6290 H   0  0  0  0  0  0  0  0  0  0  0  0
  145.0359   74.1419  220.8326 H   0  0  0  0  0  0  0  0  0  0  0  0
  144.6473   72.7155  221.8586 H   0  0  0  0  0  0  0  0  0  0  0  0
  143.4666   73.5413  219.1945 H   0  0  0  0  0  0  0  0  0  0  0  0
  138.1677   71.8777  222.0931 H   0  0  0  0  0  0  0  0  0  0  0  0
  139.1793   70.3723  222.0634 H   0  0  0  0  0  0  0  0  0  0  0  0
  137.4245   71.3956  224.3268 H   0  0  0  0  0  0  0  0  0  0  0  0
  137.2225   69.8953  223.3533 H   0  0  0  0  0  0  0  0  0  0  0  0
  137.5168   68.1679  224.9587 H   0  0  0  0  0  0  0  0  0  0  0  0
  139.0074   67.0000  226.5334 H   0  0  0  0  0  0  0  0  0  0  0  0
  141.1478   68.0287  227.2003 H   0  0  0  0  0  0  0  0  0  0  0  0
  141.7914   70.2321  226.2894 H   0  0  0  0  0  0  0  0  0  0  0  0
  140.0017   72.5879  225.1930 H   0  0  0  0  0  0  0  0  0  0  0  0
  141.5192   71.8693  224.5649 H   0  0  0  0  0  0  0  0  0  0  0  0
  138.3778   77.1304  220.5700 H   0  0  0  0  0  0  0  0  0  0  0  0
  138.2359   75.5144  221.2830 H   0  0  0  0  0  0  0  0  0  0  0  0
  137.3950   77.3720  222.8101 H   0  0  0  0  0  0  0  0  0  0  0  0
  138.7148   76.4327  223.5464 H   0  0  0  0  0  0  0  0  0  0  0  0
  137.9193   79.1892  224.2357 H   0  0  0  0  0  0  0  0  0  0  0  0
  139.1588   81.2994  224.4875 H   0  0  0  0  0  0  0  0  0  0  0  0
  141.2584   81.6866  223.1863 H   0  0  0  0  0  0  0  0  0  0  0  0
  142.0571   79.9133  221.6497 H   0  0  0  0  0  0  0  0  0  0  0  0
  140.8976   77.8813  220.0982 H   0  0  0  0  0  0  0  0  0  0  0  0
  142.0332   77.3105  221.3453 H   0  0  0  0  0  0  0  0  0  0  0  0
  142.3572   71.2057  219.3445 H   0  0  0  0  0  0  0  0  0  0  0  0
  143.6847   70.7696  220.4391 H   0  0  0  0  0  0  0  0  0  0  0  0
  143.8201   71.7202  217.5275 H   0  0  0  0  0  0  0  0  0  0  0  0
  144.5709   70.2634  218.2684 H   0  0  0  0  0  0  0  0  0  0  0  0
  1  2  1  0
  2  3  1  0
  3  4  1  0
  4  5  1  0
  5  6  1  0
  6  7  2  0
  7  8  1  0
  8  9  1  0
  9 10  1  0
 10 11  1  0
 11 12  1  0
 12 13  2  0
 13 14  1  0
 14 15  2  0
 15 16  1  0
 16 17  2  0
 17 18  1  0
  8 19  2  0
 19 20  1  0
 20 21  1  0
 21 22  1  0
 22 23  1  0
 23 24  1  0
 24 25  2  0
 25 26  1  0
 26 27  2  0
 27 28  1  0
 28 29  2  0
 29 30  1  0
 20 31  2  0
  5 32  1  0
 32 33  1  0
 33  2  1  0
 31  6  1  0
 18  9  1  0
 30 21  1  0
 17 12  1  0
 29 24  1  0
  1 34  1  0
  1 35  1  0
  2 36  1  6
  3 37  1  0
  3 38  1  0
  4 39  1  0
  4 40  1  0
  5 41  1  6
 10 42  1  0
 10 43  1  0
 11 44  1  0
 11 45  1  0
 13 46  1  0
 14 47  1  0
 15 48  1  0
 16 49  1  0
 18 50  1  0
 18 51  1  0
 22 52  1  0
 22 53  1  0
 23 54  1  0
 23 55  1  0
 25 56  1  0
 26 57  1  0
 27 58  1  0
 28 59  1  0
 30 60  1  0
 30 61  1  0
 32 62  1  0
 32 63  1  0
 33 64  1  0
 33 65  1  0
M  END
>  <smiles>  (20) 
N[C@H]1CC[C@H](c2nc(N3CCc4ccccc4C3)nc(N3CCc4ccccc4C3)n2)CC1

>  <score_type>  (20) 
oracle

>  <origin>  (20) 
autodockgpu

>  <m_score__min__energy>  (20) 
-10.24

>  <m_primary>  (20) 
energy

>  <rmsd>  (20) 
10.697981361335795

>  <m_score__min__rmsd>  (20) 
10.697981361335795

>  <meeko>  (20) 
{"free_energy": -10.14, "intermolecular_energy": -11.34, "internal_energy": -0.99, "cluster_size": 40, "cluster_id": 1, "rank_in_cluster": 15}

>  <energy>  (20) 
-10.12

>  <cluster_rmsd>  (20) 
0.67

>  <cluster>  (20) 
1

$$$$

     RDKit          3D

 65 70  0  0  0  0  0  0  0  0999 V2000
  146.3240   72.8590  219.1160 N   0  0  0  0  0  0  0  0  0  0  0  0
  145.4190   71.9950  218.3860 C   0  0  1  0  0  0  0  0  0  0  0  0
  144.8300   70.9170  219.2940 C   0  0  0  0  0  0  0  0  0  0  0  0
  143.9420   71.5000  220.3500 C   0  0  0  0  0  0  0  0  0  0  0  0
  143.3620   72.8070  219.8690 C   0  0  2  0  0  0  0  0  0  0  0  0
  142.2480   73.3040  220.6930 C   0  0  0  0  0  0  0  0  0  0  0  0
  141.6840   72.4590  221.5740 N   0  0  0  0  0  0  0  0  0  0  0  0
  140.6770   72.8550  222.3400 C   0  0  0  0  0  0  0  0  0  0  0  0
  140.0680   71.9520  223.2880 N   0  0  0  0  0  0  0  0  0  0  0  0
  138.8970   71.2140  222.8660 C   0  0  0  0  0  0  0  0  0  0  0  0
  138.1350   70.6430  224.0450 C   0  0  0  0  0  0  0  0  0  0  0  0
  139.0810   69.9080  224.9610 C   0  0  0  0  0  0  0  0  0  0  0  0
  138.7480   68.7060  225.5120 C   0  0  0  0  0  0  0  0  0  0  0  0
  139.6310   68.0730  226.3330 C   0  0  0  0  0  0  0  0  0  0  0  0
  140.8430   68.6390  226.6020 C   0  0  0  0  0  0  0  0  0  0  0  0
  141.1670   69.8570  226.0370 C   0  0  0  0  0  0  0  0  0  0  0  0
  140.2860   70.5360  225.1900 C   0  0  0  0  0  0  0  0  0  0  0  0
  140.6620   71.8390  224.6030 C   0  0  0  0  0  0  0  0  0  0  0  0
  140.2340   74.1210  222.2160 N   0  0  0  0  0  0  0  0  0  0  0  0
  140.7560   75.0060  221.3550 C   0  0  0  0  0  0  0  0  0  0  0  0
  140.2310   76.3240  221.2840 N   0  0  0  0  0  0  0  0  0  0  0  0
  138.7930   76.4830  221.3880 C   0  0  0  0  0  0  0  0  0  0  0  0
  138.5370   77.1100  222.7430 C   0  0  0  0  0  0  0  0  0  0  0  0
  139.3710   78.3380  222.8210 C   0  0  0  0  0  0  0  0  0  0  0  0
  138.9510   79.3230  223.6890 C   0  0  0  0  0  0  0  0  0  0  0  0
  139.6550   80.4930  223.8320 C   0  0  0  0  0  0  0  0  0  0  0  0
  140.8120   80.7080  223.0980 C   0  0  0  0  0  0  0  0  0  0  0  0
  141.2280   79.7200  222.2310 C   0  0  0  0  0  0  0  0  0  0  0  0
  140.5170   78.5260  222.0800 C   0  0  0  0  0  0  0  0  0  0  0  0
  141.0300   77.4970  221.1180 C   0  0  0  0  0  0  0  0  0  0  0  0
  141.7800   74.5750  220.5890 N   0  0  0  0  0  0  0  0  0  0  0  0
  143.0320   72.6620  218.4080 C   0  0  0  0  0  0  0  0  0  0  0  0
  144.3620   72.7530  217.6490 C   0  0  0  0  0  0  0  0  0  0  0  0
  146.0570   72.9310  220.1260 H   0  0  0  0  0  0  0  0  0  0  0  0
  146.3430   73.8270  218.7390 H   0  0  0  0  0  0  0  0  0  0  0  0
  146.0158   71.4876  217.6138 H   0  0  0  0  0  0  0  0  0  0  0  0
  145.6531   70.3740  219.7815 H   0  0  0  0  0  0  0  0  0  0  0  0
  144.2229   70.2423  218.6726 H   0  0  0  0  0  0  0  0  0  0  0  0
  144.5287   71.6756  221.2638 H   0  0  0  0  0  0  0  0  0  0  0  0
  143.1232   70.7971  220.5632 H   0  0  0  0  0  0  0  0  0  0  0  0
  144.1138   73.6014  219.9863 H   0  0  0  0  0  0  0  0  0  0  0  0
  138.2331   71.8896  222.3067 H   0  0  0  0  0  0  0  0  0  0  0  0
  139.2303   70.3757  222.2366 H   0  0  0  0  0  0  0  0  0  0  0  0
  137.6535   71.4622  224.5992 H   0  0  0  0  0  0  0  0  0  0  0  0
  137.3705   69.9429  223.6770 H   0  0  0  0  0  0  0  0  0  0  0  0
  137.7709   68.2499  225.2944 H   0  0  0  0  0  0  0  0  0  0  0  0
  139.3666   67.1034  226.7802 H   0  0  0  0  0  0  0  0  0  0  0  0
  141.5575   68.1286  227.2646 H   0  0  0  0  0  0  0  0  0  0  0  0
  142.1463   70.3057  226.2598 H   0  0  0  0  0  0  0  0  0  0  0  0
  140.2941   72.6528  225.2451 H   0  0  0  0  0  0  0  0  0  0  0  0
  141.7569   71.9089  224.5236 H   0  0  0  0  0  0  0  0  0  0  0  0
  138.4226   77.1399  220.5872 H   0  0  0  0  0  0  0  0  0  0  0  0
  138.2735   75.5187  221.2866 H   0  0  0  0  0  0  0  0  0  0  0  0
  137.4728   77.3696  222.8436 H   0  0  0  0  0  0  0  0  0  0  0  0
  138.7931   76.4108  223.5526 H   0  0  0  0  0  0  0  0  0  0  0  0
  138.0349   79.1688  224.2780 H   0  0  0  0  0  0  0  0  0  0  0  0
  139.2997   81.2635  224.5320 H   0  0  0  0  0  0  0  0  0  0  0  0
  141.3827   81.6423  223.2048 H   0  0  0  0  0  0  0  0  0  0  0  0
  142.1441   79.8755  221.6423 H   0  0  0  0  0  0  0  0  0  0  0  0
  140.9424   77.8692  220.0866 H   0  0  0  0  0  0  0  0  0  0  0  0
  142.0901   77.2767  221.3122 H   0  0  0  0  0  0  0  0  0  0  0  0
  142.3567   73.4696  218.0892 H   0  0  0  0  0  0  0  0  0  0  0  0
  142.5249   71.7066  218.2080 H   0  0  0  0  0  0  0  0  0  0  0  0
  144.6619   73.8078  217.5631 H   0  0  0  0  0  0  0  0  0  0  0  0
  144.2377   72.3199  216.6455 H   0  0  0  0  0  0  0  0  0  0  0  0
  1  2  1  0
  2  3  1  0
  3  4  1  0
  4  5  1  0
  5  6  1  0
  6  7  2  0
  7  8  1  0
  8  9  1  0
  9 10  1  0
 10 11  1  0
 11 12  1  0
 12 13  2  0
 13 14  1  0
 14 15  2  0
 15 16  1  0
 16 17  2  0
 17 18  1  0
  8 19  2  0
 19 20  1  0
 20 21  1  0
 21 22  1  0
 22 23  1  0
 23 24  1  0
 24 25  2  0
 25 26  1  0
 26 27  2  0
 27 28  1  0
 28 29  2  0
 29 30  1  0
 20 31  2  0
  5 32  1  0
 32 33  1  0
 33  2  1  0
 31  6  1  0
 18  9  1  0
 30 21  1  0
 17 12  1  0
 29 24  1  0
  1 34  1  0
  1 35  1  0
  2 36  1  6
  3 37  1  0
  3 38  1  0
  4 39  1  0
  4 40  1  0
  5 41  1  6
 10 42  1  0
 10 43  1  0
 11 44  1  0
 11 45  1  0
 13 46  1  0
 14 47  1  0
 15 48  1  0
 16 49  1  0
 18 50  1  0
 18 51  1  0
 22 52  1  0
 22 53  1  0
 23 54  1  0
 23 55  1  0
 25 56  1  0
 26 57  1  0
 27 58  1  0
 28 59  1  0
 30 60  1  0
 30 61  1  0
 32 62  1  0
 32 63  1  0
 33 64  1  0
 33 65  1  0
M  END
>  <smiles>  (21) 
N[C@H]1CC[C@H](c2nc(N3CCc4ccccc4C3)nc(N3CCc4ccccc4C3)n2)CC1

>  <score_type>  (21) 
oracle

>  <origin>  (21) 
autodockgpu

>  <m_score__min__energy>  (21) 
-10.24

>  <m_primary>  (21) 
energy

>  <rmsd>  (21) 
10.706353871890936

>  <m_score__min__rmsd>  (21) 
10.706353871890936

>  <meeko>  (21) 
{"free_energy": -10.0, "intermolecular_energy": -11.2, "internal_energy": -0.99, "cluster_size": 40, "cluster_id": 1, "rank_in_cluster": 35}

>  <energy>  (21) 
-10.12

>  <cluster_rmsd>  (21) 
0.37

>  <cluster>  (21) 
1

$$$$

     RDKit          3D

 65 70  0  0  0  0  0  0  0  0999 V2000
  146.3270   72.9790  219.0330 N   0  0  0  0  0  0  0  0  0  0  0  0
  145.4470   72.0290  218.3850 C   0  0  1  0  0  0  0  0  0  0  0  0
  144.9380   70.9820  219.3740 C   0  0  0  0  0  0  0  0  0  0  0  0
  144.0510   71.5870  220.4200 C   0  0  0  0  0  0  0  0  0  0  0  0
  143.3930   72.8310  219.8770 C   0  0  2  0  0  0  0  0  0  0  0  0
  142.2780   73.3240  220.7030 C   0  0  0  0  0  0  0  0  0  0  0  0
  141.7150   72.4760  221.5810 N   0  0  0  0  0  0  0  0  0  0  0  0
  140.7080   72.8680  222.3490 C   0  0  0  0  0  0  0  0  0  0  0  0
  140.1010   71.9610  223.2950 N   0  0  0  0  0  0  0  0  0  0  0  0
  138.9440   71.2060  222.8630 C   0  0  0  0  0  0  0  0  0  0  0  0
  138.1770   70.6300  224.0370 C   0  0  0  0  0  0  0  0  0  0  0  0
  139.1220   69.9120  224.9670 C   0  0  0  0  0  0  0  0  0  0  0  0
  138.8000   68.7080  225.5190 C   0  0  0  0  0  0  0  0  0  0  0  0
  139.6820   68.0910  226.3530 C   0  0  0  0  0  0  0  0  0  0  0  0
  140.8830   68.6740  226.6320 C   0  0  0  0  0  0  0  0  0  0  0  0
  141.1980   69.8940  226.0650 C   0  0  0  0  0  0  0  0  0  0  0  0
  140.3170   70.5570  225.2050 C   0  0  0  0  0  0  0  0  0  0  0  0
  140.6830   71.8620  224.6170 C   0  0  0  0  0  0  0  0  0  0  0  0
  140.2630   74.1330  222.2280 N   0  0  0  0  0  0  0  0  0  0  0  0
  140.7840   75.0220  221.3690 C   0  0  0  0  0  0  0  0  0  0  0  0
  140.2550   76.3390  221.3020 N   0  0  0  0  0  0  0  0  0  0  0  0
  138.8180   76.4960  221.4170 C   0  0  0  0  0  0  0  0  0  0  0  0
  138.5720   77.1220  222.7740 C   0  0  0  0  0  0  0  0  0  0  0  0
  139.4050   78.3520  222.8450 C   0  0  0  0  0  0  0  0  0  0  0  0
  138.9910   79.3360  223.7160 C   0  0  0  0  0  0  0  0  0  0  0  0
  139.6940   80.5080  223.8530 C   0  0  0  0  0  0  0  0  0  0  0  0
  140.8450   80.7250  223.1100 C   0  0  0  0  0  0  0  0  0  0  0  0
  141.2550   79.7370  222.2400 C   0  0  0  0  0  0  0  0  0  0  0  0
  140.5450   78.5410  222.0950 C   0  0  0  0  0  0  0  0  0  0  0  0
  141.0510   77.5130  221.1290 C   0  0  0  0  0  0  0  0  0  0  0  0
  141.8070   74.5940  220.6020 N   0  0  0  0  0  0  0  0  0  0  0  0
  143.0300   72.5790  218.4380 C   0  0  0  0  0  0  0  0  0  0  0  0
  144.3330   72.6870  217.6350 C   0  0  0  0  0  0  0  0  0  0  0  0
  146.0210   73.1800  220.0140 H   0  0  0  0  0  0  0  0  0  0  0  0
  146.3650   73.8920  218.5360 H   0  0  0  0  0  0  0  0  0  0  0  0
  146.0477   71.5046  217.6272 H   0  0  0  0  0  0  0  0  0  0  0  0
  145.8003   70.5104  219.8681 H   0  0  0  0  0  0  0  0  0  0  0  0
  144.3487   70.2413  218.8136 H   0  0  0  0  0  0  0  0  0  0  0  0
  144.6534   71.8484  221.3025 H   0  0  0  0  0  0  0  0  0  0  0  0
  143.2751   70.8601  220.7020 H   0  0  0  0  0  0  0  0  0  0  0  0
  144.1073   73.6663  219.9215 H   0  0  0  0  0  0  0  0  0  0  0  0
  138.2774   71.8706  222.2938 H   0  0  0  0  0  0  0  0  0  0  0  0
  139.2945   70.3697  222.2403 H   0  0  0  0  0  0  0  0  0  0  0  0
  137.6786   71.4452  224.5820 H   0  0  0  0  0  0  0  0  0  0  0  0
  137.4264   69.9177  223.6639 H   0  0  0  0  0  0  0  0  0  0  0  0
  137.8322   68.2370  225.2918 H   0  0  0  0  0  0  0  0  0  0  0  0
  139.4254   67.1204  226.8026 H   0  0  0  0  0  0  0  0  0  0  0  0
  141.5968   68.1758  227.3046 H   0  0  0  0  0  0  0  0  0  0  0  0
  142.1688   70.3566  226.2966 H   0  0  0  0  0  0  0  0  0  0  0  0
  140.2980   72.6738  225.2516 H   0  0  0  0  0  0  0  0  0  0  0  0
  141.7777   71.9462  224.5493 H   0  0  0  0  0  0  0  0  0  0  0  0
  138.4405   77.1527  220.6194 H   0  0  0  0  0  0  0  0  0  0  0  0
  138.2989   75.5312  221.3191 H   0  0  0  0  0  0  0  0  0  0  0  0
  137.5082   77.3797  222.8835 H   0  0  0  0  0  0  0  0  0  0  0  0
  138.8357   76.4231  223.5815 H   0  0  0  0  0  0  0  0  0  0  0  0
  138.0803   79.1801  224.3129 H   0  0  0  0  0  0  0  0  0  0  0  0
  139.3425   81.2782  224.5553 H   0  0  0  0  0  0  0  0  0  0  0  0
  141.4153   81.6601  223.2121 H   0  0  0  0  0  0  0  0  0  0  0  0
  142.1658   79.8939  221.6435 H   0  0  0  0  0  0  0  0  0  0  0  0
  140.9540   77.8850  220.0984 H   0  0  0  0  0  0  0  0  0  0  0  0
  142.1130   77.2942  221.3141 H   0  0  0  0  0  0  0  0  0  0  0  0
  142.3064   73.3314  218.0912 H   0  0  0  0  0  0  0  0  0  0  0  0
  142.5658   71.5897  218.3121 H   0  0  0  0  0  0  0  0  0  0  0  0
  144.5767   73.7477  217.4756 H   0  0  0  0  0  0  0  0  0  0  0  0
  144.2036   72.1862  216.6642 H   0  0  0  0  0  0  0  0  0  0  0  0
  1  2  1  0
  2  3  1  0
  3  4  1  0
  4  5  1  0
  5  6  1  0
  6  7  2  0
  7  8  1  0
  8  9  1  0
  9 10  1  0
 10 11  1  0
 11 12  1  0
 12 13  2  0
 13 14  1  0
 14 15  2  0
 15 16  1  0
 16 17  2  0
 17 18  1  0
  8 19  2  0
 19 20  1  0
 20 21  1  0
 21 22  1  0
 22 23  1  0
 23 24  1  0
 24 25  2  0
 25 26  1  0
 26 27  2  0
 27 28  1  0
 28 29  2  0
 29 30  1  0
 20 31  2  0
  5 32  1  0
 32 33  1  0
 33  2  1  0
 31  6  1  0
 18  9  1  0
 30 21  1  0
 17 12  1  0
 29 24  1  0
  1 34  1  0
  1 35  1  0
  2 36  1  6
  3 37  1  0
  3 38  1  0
  4 39  1  0
  4 40  1  0
  5 41  1  6
 10 42  1  0
 10 43  1  0
 11 44  1  0
 11 45  1  0
 13 46  1  0
 14 47  1  0
 15 48  1  0
 16 49  1  0
 18 50  1  0
 18 51  1  0
 22 52  1  0
 22 53  1  0
 23 54  1  0
 23 55  1  0
 25 56  1  0
 26 57  1  0
 27 58  1  0
 28 59  1  0
 30 60  1  0
 30 61  1  0
 32 62  1  0
 32 63  1  0
 33 64  1  0
 33 65  1  0
M  END
>  <smiles>  (22) 
N[C@H]1CC[C@H](c2nc(N3CCc4ccccc4C3)nc(N3CCc4ccccc4C3)n2)CC1

>  <score_type>  (22) 
oracle

>  <origin>  (22) 
autodockgpu

>  <m_score__min__energy>  (22) 
-10.24

>  <m_primary>  (22) 
energy

>  <rmsd>  (22) 
10.695410813381677

>  <m_score__min__rmsd>  (22) 
10.695410813381677

>  <meeko>  (22) 
{"free_energy": -10.05, "intermolecular_energy": -11.24, "internal_energy": -0.99, "cluster_size": 40, "cluster_id": 1, "rank_in_cluster": 33}

>  <energy>  (22) 
-10.12

>  <cluster_rmsd>  (22) 
0.69

>  <cluster>  (22) 
1

$$$$

     RDKit          3D

 65 70  0  0  0  0  0  0  0  0999 V2000
  145.6470   73.0130  218.0330 N   0  0  0  0  0  0  0  0  0  0  0  0
  145.9240   72.1240  219.1420 C   0  0  1  0  0  0  0  0  0  0  0  0
  146.1650   72.9060  220.4320 C   0  0  0  0  0  0  0  0  0  0  0  0
  144.9320   73.6230  220.8890 C   0  0  0  0  0  0  0  0  0  0  0  0
  143.7050   72.9020  220.3900 C   0  0  2  0  0  0  0  0  0  0  0  0
  142.4540   73.3390  221.0320 C   0  0  0  0  0  0  0  0  0  0  0  0
  141.7940   72.4570  221.8020 N   0  0  0  0  0  0  0  0  0  0  0  0
  140.6640   72.7990  222.4040 C   0  0  0  0  0  0  0  0  0  0  0  0
  139.9510   71.8550  223.2330 N   0  0  0  0  0  0  0  0  0  0  0  0
  138.8900   71.0830  222.6230 C   0  0  0  0  0  0  0  0  0  0  0  0
  137.9770   70.4610  223.6610 C   0  0  0  0  0  0  0  0  0  0  0  0
  138.7980   69.7420  224.7030 C   0  0  0  0  0  0  0  0  0  0  0  0
  138.4320   68.5180  225.1780 C   0  0  0  0  0  0  0  0  0  0  0  0
  139.2010   67.9020  226.1170 C   0  0  0  0  0  0  0  0  0  0  0  0
  140.3340   68.5070  226.5790 C   0  0  0  0  0  0  0  0  0  0  0  0
  140.6930   69.7470  226.0890 C   0  0  0  0  0  0  0  0  0  0  0  0
  139.9280   70.4090  225.1260 C   0  0  0  0  0  0  0  0  0  0  0  0
  140.3390   71.7370  224.6230 C   0  0  0  0  0  0  0  0  0  0  0  0
  140.1920   74.0470  222.2260 N   0  0  0  0  0  0  0  0  0  0  0  0
  140.8060   74.9690  221.4690 C   0  0  0  0  0  0  0  0  0  0  0  0
  140.2430   76.2660  221.3310 N   0  0  0  0  0  0  0  0  0  0  0  0
  138.8000   76.3850  221.4040 C   0  0  0  0  0  0  0  0  0  0  0  0
  138.5010   77.0620  222.7250 C   0  0  0  0  0  0  0  0  0  0  0  0
  139.2960   78.3170  222.7640 C   0  0  0  0  0  0  0  0  0  0  0  0
  138.8320   79.3260  223.5790 C   0  0  0  0  0  0  0  0  0  0  0  0
  139.4980   80.5220  223.6830 C   0  0  0  0  0  0  0  0  0  0  0  0
  140.6610   80.7410  222.9600 C   0  0  0  0  0  0  0  0  0  0  0  0
  141.1220   79.7290  222.1440 C   0  0  0  0  0  0  0  0  0  0  0  0
  140.4500   78.5080  222.0340 C   0  0  0  0  0  0  0  0  0  0  0  0
  141.0100   77.4540  221.1270 C   0  0  0  0  0  0  0  0  0  0  0  0
  141.9550   74.5930  220.8700 N   0  0  0  0  0  0  0  0  0  0  0  0
  143.9610   71.4220  220.4830 C   0  0  0  0  0  0  0  0  0  0  0  0
  144.8830   71.0640  219.3100 C   0  0  0  0  0  0  0  0  0  0  0  0
  145.9720   73.9890  218.2310 H   0  0  0  0  0  0  0  0  0  0  0  0
  144.6340   73.0720  217.8110 H   0  0  0  0  0  0  0  0  0  0  0  0
  146.8554   71.5920  218.8983 H   0  0  0  0  0  0  0  0  0  0  0  0
  146.9614   73.6443  220.2568 H   0  0  0  0  0  0  0  0  0  0  0  0
  146.4534   72.1901  221.2158 H   0  0  0  0  0  0  0  0  0  0  0  0
  144.9386   74.6491  220.4927 H   0  0  0  0  0  0  0  0  0  0  0  0
  144.9147   73.6495  221.9886 H   0  0  0  0  0  0  0  0  0  0  0  0
  143.5344   73.1673  219.3362 H   0  0  0  0  0  0  0  0  0  0  0  0
  138.2950   71.7446  221.9763 H   0  0  0  0  0  0  0  0  0  0  0  0
  139.3498   70.2703  222.0416 H   0  0  0  0  0  0  0  0  0  0  0  0
  137.3840   71.2508  224.1452 H   0  0  0  0  0  0  0  0  0  0  0  0
  137.3065   69.7413  223.1686 H   0  0  0  0  0  0  0  0  0  0  0  0
  137.5196   68.0304  224.8043 H   0  0  0  0  0  0  0  0  0  0  0  0
  138.9089   66.9148  226.5043 H   0  0  0  0  0  0  0  0  0  0  0  0
  140.9572   68.0098  227.3369 H   0  0  0  0  0  0  0  0  0  0  0  0
  141.6074   70.2271  226.4678 H   0  0  0  0  0  0  0  0  0  0  0  0
  139.8448   72.5237  225.2120 H   0  0  0  0  0  0  0  0  0  0  0  0
  141.4294   71.8484  224.7154 H   0  0  0  0  0  0  0  0  0  0  0  0
  138.4244   76.9946  220.5689 H   0  0  0  0  0  0  0  0  0  0  0  0
  138.3117   75.4016  221.3367 H   0  0  0  0  0  0  0  0  0  0  0  0
  137.4279   77.2930  222.7960 H   0  0  0  0  0  0  0  0  0  0  0  0
  138.7634   76.4065  223.5685 H   0  0  0  0  0  0  0  0  0  0  0  0
  137.9097   79.1704  224.1579 H   0  0  0  0  0  0  0  0  0  0  0  0
  139.1072   81.3104  224.3430 H   0  0  0  0  0  0  0  0  0  0  0  0
  141.2013   81.6962  223.0353 H   0  0  0  0  0  0  0  0  0  0  0  0
  142.0433   79.8869  221.5641 H   0  0  0  0  0  0  0  0  0  0  0  0
  140.9301   77.7782  220.0789 H   0  0  0  0  0  0  0  0  0  0  0  0
  142.0724   77.2742  221.3485 H   0  0  0  0  0  0  0  0  0  0  0  0
  143.0144   70.8671  220.4052 H   0  0  0  0  0  0  0  0  0  0  0  0
  144.4224   71.1582  221.4461 H   0  0  0  0  0  0  0  0  0  0  0  0
  144.2879   70.9873  218.3881 H   0  0  0  0  0  0  0  0  0  0  0  0
  145.3746   70.1016  219.5152 H   0  0  0  0  0  0  0  0  0  0  0  0
  1  2  1  0
  2  3  1  0
  3  4  1  0
  4  5  1  0
  5  6  1  0
  6  7  2  0
  7  8  1  0
  8  9  1  0
  9 10  1  0
 10 11  1  0
 11 12  1  0
 12 13  2  0
 13 14  1  0
 14 15  2  0
 15 16  1  0
 16 17  2  0
 17 18  1  0
  8 19  2  0
 19 20  1  0
 20 21  1  0
 21 22  1  0
 22 23  1  0
 23 24  1  0
 24 25  2  0
 25 26  1  0
 26 27  2  0
 27 28  1  0
 28 29  2  0
 29 30  1  0
 20 31  2  0
  5 32  1  0
 32 33  1  0
 33  2  1  0
 31  6  1  0
 18  9  1  0
 30 21  1  0
 17 12  1  0
 29 24  1  0
  1 34  1  0
  1 35  1  0
  2 36  1  6
  3 37  1  0
  3 38  1  0
  4 39  1  0
  4 40  1  0
  5 41  1  6
 10 42  1  0
 10 43  1  0
 11 44  1  0
 11 45  1  0
 13 46  1  0
 14 47  1  0
 15 48  1  0
 16 49  1  0
 18 50  1  0
 18 51  1  0
 22 52  1  0
 22 53  1  0
 23 54  1  0
 23 55  1  0
 25 56  1  0
 26 57  1  0
 27 58  1  0
 28 59  1  0
 30 60  1  0
 30 61  1  0
 32 62  1  0
 32 63  1  0
 33 64  1  0
 33 65  1  0
M  END
>  <smiles>  (23) 
N[C@H]1CC[C@H](c2nc(N3CCc4ccccc4C3)nc(N3CCc4ccccc4C3)n2)CC1

>  <score_type>  (23) 
oracle

>  <origin>  (23) 
autodockgpu

>  <m_score__min__energy>  (23) 
-10.24

>  <m_primary>  (23) 
energy

>  <rmsd>  (23) 
10.752036645500542

>  <m_score__min__rmsd>  (23) 
10.752036645500542

>  <meeko>  (23) 
{"free_energy": -10.09, "intermolecular_energy": -11.28, "internal_energy": -1.0, "cluster_size": 40, "cluster_id": 1, "rank_in_cluster": 25}

>  <energy>  (23) 
-10.11

>  <cluster_rmsd>  (23) 
0.4

>  <cluster>  (23) 
1

$$$$

     RDKit          3D

 65 70  0  0  0  0  0  0  0  0999 V2000
  142.1160   78.3750  221.0240 N   0  0  0  0  0  0  0  0  0  0  0  0
  140.6790   78.2130  220.9520 C   0  0  1  0  0  0  0  0  0  0  0  0
  140.2780   77.3540  219.7540 C   0  0  0  0  0  0  0  0  0  0  0  0
  140.7580   75.9420  219.8940 C   0  0  0  0  0  0  0  0  0  0  0  0
  140.9000   75.5900  221.3540 C   0  0  2  0  0  0  0  0  0  0  0  0
  141.0640   74.1490  221.6070 C   0  0  0  0  0  0  0  0  0  0  0  0
  141.9740   73.4770  220.8810 N   0  0  0  0  0  0  0  0  0  0  0  0
  142.1630   72.1790  221.0690 C   0  0  0  0  0  0  0  0  0  0  0  0
  143.1400   71.4520  220.2920 N   0  0  0  0  0  0  0  0  0  0  0  0
  144.4530   72.0400  220.1330 C   0  0  0  0  0  0  0  0  0  0  0  0
  145.2200   71.4060  218.9900 C   0  0  0  0  0  0  0  0  0  0  0  0
  145.1830   69.9040  219.1170 C   0  0  0  0  0  0  0  0  0  0  0  0
  146.2920   69.1430  218.8930 C   0  0  0  0  0  0  0  0  0  0  0  0
  146.2180   67.7900  219.0200 C   0  0  0  0  0  0  0  0  0  0  0  0
  145.0400   67.1980  219.3710 C   0  0  0  0  0  0  0  0  0  0  0  0
  143.9240   67.9810  219.5950 C   0  0  0  0  0  0  0  0  0  0  0  0
  143.9620   69.3730  219.4740 C   0  0  0  0  0  0  0  0  0  0  0  0
  142.7500   70.1820  219.7180 C   0  0  0  0  0  0  0  0  0  0  0  0
  141.4220   71.5500  222.0010 N   0  0  0  0  0  0  0  0  0  0  0  0
  140.5000   72.1670  222.7540 C   0  0  0  0  0  0  0  0  0  0  0  0
  139.7590   71.4310  223.7170 N   0  0  0  0  0  0  0  0  0  0  0  0
  138.6950   70.5720  223.2360 C   0  0  0  0  0  0  0  0  0  0  0  0
  139.1850   69.1520  223.4240 C   0  0  0  0  0  0  0  0  0  0  0  0
  139.5880   69.0130  224.8480 C   0  0  0  0  0  0  0  0  0  0  0  0
  139.5750   67.7420  225.3800 C   0  0  0  0  0  0  0  0  0  0  0  0
  139.9320   67.5120  226.6860 C   0  0  0  0  0  0  0  0  0  0  0  0
  140.3150   68.5670  227.5030 C   0  0  0  0  0  0  0  0  0  0  0  0
  140.3250   69.8370  226.9660 C   0  0  0  0  0  0  0  0  0  0  0  0
  139.9640   70.0780  225.6380 C   0  0  0  0  0  0  0  0  0  0  0  0
  140.0000   71.4860  225.1240 C   0  0  0  0  0  0  0  0  0  0  0  0
  140.3310   73.4880  222.5410 N   0  0  0  0  0  0  0  0  0  0  0  0
  139.7540   76.2200  222.1000 C   0  0  0  0  0  0  0  0  0  0  0  0
  140.0860   77.7120  222.2300 C   0  0  0  0  0  0  0  0  0  0  0  0
  142.5900   78.0020  220.1680 H   0  0  0  0  0  0  0  0  0  0  0  0
  142.5330   77.8810  221.8380 H   0  0  0  0  0  0  0  0  0  0  0  0
  140.2534   79.2156  220.7985 H   0  0  0  0  0  0  0  0  0  0  0  0
  140.7138   77.7891  218.8425 H   0  0  0  0  0  0  0  0  0  0  0  0
  139.1795   77.3369  219.6990 H   0  0  0  0  0  0  0  0  0  0  0  0
  141.7338   75.8376  219.3971 H   0  0  0  0  0  0  0  0  0  0  0  0
  140.0285   75.2637  219.4274 H   0  0  0  0  0  0  0  0  0  0  0  0
  141.8445   76.0052  221.7355 H   0  0  0  0  0  0  0  0  0  0  0  0
  144.3393   73.1155  219.9320 H   0  0  0  0  0  0  0  0  0  0  0  0
  145.0187   71.8683  221.0606 H   0  0  0  0  0  0  0  0  0  0  0  0
  144.7621   71.7025  218.0348 H   0  0  0  0  0  0  0  0  0  0  0  0
  146.2655   71.7463  219.0230 H   0  0  0  0  0  0  0  0  0  0  0  0
  147.2420   69.6204  218.6110 H   0  0  0  0  0  0  0  0  0  0  0  0
  147.1101   67.1723  218.8392 H   0  0  0  0  0  0  0  0  0  0  0  0
  144.9792   66.1046  219.4750 H   0  0  0  0  0  0  0  0  0  0  0  0
  142.9783   67.4950  219.8767 H   0  0  0  0  0  0  0  0  0  0  0  0
  142.2230   70.3529  218.7677 H   0  0  0  0  0  0  0  0  0  0  0  0
  142.0811   69.6504  220.4107 H   0  0  0  0  0  0  0  0  0  0  0  0
  137.7767   70.7392  223.8180 H   0  0  0  0  0  0  0  0  0  0  0  0
  138.4567   70.7788  222.1822 H   0  0  0  0  0  0  0  0  0  0  0  0
  138.3795   68.4408  223.1888 H   0  0  0  0  0  0  0  0  0  0  0  0
  140.0317   68.9385  222.7551 H   0  0  0  0  0  0  0  0  0  0  0  0
  139.2728   66.8952  224.7463 H   0  0  0  0  0  0  0  0  0  0  0  0
  139.9144   66.4876  227.0864 H   0  0  0  0  0  0  0  0  0  0  0  0
  140.6028   68.3945  228.5506 H   0  0  0  0  0  0  0  0  0  0  0  0
  140.6255   70.6837  227.6007 H   0  0  0  0  0  0  0  0  0  0  0  0
  139.2207   72.0864  225.6162 H   0  0  0  0  0  0  0  0  0  0  0  0
  140.9737   71.9525  225.3343 H   0  0  0  0  0  0  0  0  0  0  0  0
  139.6533   75.7650  223.0964 H   0  0  0  0  0  0  0  0  0  0  0  0
  138.8028   76.0692  221.5686 H   0  0  0  0  0  0  0  0  0  0  0  0
  140.8073   77.8555  223.0480 H   0  0  0  0  0  0  0  0  0  0  0  0
  139.1638   78.2714  222.4460 H   0  0  0  0  0  0  0  0  0  0  0  0
  1  2  1  0
  2  3  1  0
  3  4  1  0
  4  5  1  0
  5  6  1  0
  6  7  2  0
  7  8  1  0
  8  9  1  0
  9 10  1  0
 10 11  1  0
 11 12  1  0
 12 13  2  0
 13 14  1  0
 14 15  2  0
 15 16  1  0
 16 17  2  0
 17 18  1  0
  8 19  2  0
 19 20  1  0
 20 21  1  0
 21 22  1  0
 22 23  1  0
 23 24  1  0
 24 25  2  0
 25 26  1  0
 26 27  2  0
 27 28  1  0
 28 29  2  0
 29 30  1  0
 20 31  2  0
  5 32  1  0
 32 33  1  0
 33  2  1  0
 31  6  1  0
 18  9  1  0
 30 21  1  0
 17 12  1  0
 29 24  1  0
  1 34  1  0
  1 35  1  0
  2 36  1  6
  3 37  1  0
  3 38  1  0
  4 39  1  0
  4 40  1  0
  5 41  1  1
 10 42  1  0
 10 43  1  0
 11 44  1  0
 11 45  1  0
 13 46  1  0
 14 47  1  0
 15 48  1  0
 16 49  1  0
 18 50  1  0
 18 51  1  0
 22 52  1  0
 22 53  1  0
 23 54  1  0
 23 55  1  0
 25 56  1  0
 26 57  1  0
 27 58  1  0
 28 59  1  0
 30 60  1  0
 30 61  1  0
 32 62  1  0
 32 63  1  0
 33 64  1  0
 33 65  1  0
M  END
>  <smiles>  (24) 
N[C@H]1CC[C@H](c2nc(N3CCc4ccccc4C3)nc(N3CCc4ccccc4C3)n2)CC1

>  <score_type>  (24) 
oracle

>  <origin>  (24) 
autodockgpu

>  <m_score__min__energy>  (24) 
-10.24

>  <m_primary>  (24) 
energy

>  <rmsd>  (24) 
10.864205175369209

>  <m_score__min__rmsd>  (24) 
10.864205175369209

>  <meeko>  (24) 
{"free_energy": -9.77, "intermolecular_energy": -10.96, "internal_energy": -1.02, "cluster_size": 10, "cluster_id": 2, "rank_in_cluster": 9}

>  <energy>  (24) 
-10.11

>  <cluster_rmsd>  (24) 
0.68

>  <cluster>  (24) 
1

$$$$

     RDKit          3D

 65 70  0  0  0  0  0  0  0  0999 V2000
  146.2740   73.3900  218.9540 N   0  0  0  0  0  0  0  0  0  0  0  0
  145.4770   72.3200  218.3920 C   0  0  1  0  0  0  0  0  0  0  0  0
  145.0800   71.3040  219.4620 C   0  0  0  0  0  0  0  0  0  0  0  0
  144.1550   71.8990  220.4800 C   0  0  0  0  0  0  0  0  0  0  0  0
  143.3790   73.0360  219.8660 C   0  0  2  0  0  0  0  0  0  0  0  0
  142.2340   73.4820  220.6770 C   0  0  0  0  0  0  0  0  0  0  0  0
  141.6770   72.6040  221.5280 N   0  0  0  0  0  0  0  0  0  0  0  0
  140.6450   72.9540  222.2820 C   0  0  0  0  0  0  0  0  0  0  0  0
  140.0440   72.0130  223.1980 N   0  0  0  0  0  0  0  0  0  0  0  0
  138.9000   71.2550  222.7390 C   0  0  0  0  0  0  0  0  0  0  0  0
  138.1340   70.6370  223.8910 C   0  0  0  0  0  0  0  0  0  0  0  0
  139.0830   69.9060  224.8070 C   0  0  0  0  0  0  0  0  0  0  0  0
  138.7730   68.6830  225.3250 C   0  0  0  0  0  0  0  0  0  0  0  0
  139.6580   68.0550  226.1460 C   0  0  0  0  0  0  0  0  0  0  0  0
  140.8500   68.6470  226.4490 C   0  0  0  0  0  0  0  0  0  0  0  0
  141.1520   69.8850  225.9180 C   0  0  0  0  0  0  0  0  0  0  0  0
  140.2670   70.5600  225.0710 C   0  0  0  0  0  0  0  0  0  0  0  0
  140.6190   71.8850  224.5210 C   0  0  0  0  0  0  0  0  0  0  0  0
  140.1670   74.2080  222.1740 N   0  0  0  0  0  0  0  0  0  0  0  0
  140.6800   75.1270  221.3430 C   0  0  0  0  0  0  0  0  0  0  0  0
  140.1170   76.4300  221.2890 N   0  0  0  0  0  0  0  0  0  0  0  0
  138.6800   76.5500  221.4380 C   0  0  0  0  0  0  0  0  0  0  0  0
  138.4500   77.1710  222.8000 C   0  0  0  0  0  0  0  0  0  0  0  0
  139.2520   78.4210  222.8520 C   0  0  0  0  0  0  0  0  0  0  0  0
  138.8330   79.3950  223.7320 C   0  0  0  0  0  0  0  0  0  0  0  0
  139.5100   80.5840  223.8530 C   0  0  0  0  0  0  0  0  0  0  0  0
  140.6370   80.8300  223.0830 C   0  0  0  0  0  0  0  0  0  0  0  0
  141.0510   79.8520  222.2030 C   0  0  0  0  0  0  0  0  0  0  0  0
  140.3690   78.6390  222.0750 C   0  0  0  0  0  0  0  0  0  0  0  0
  140.8780   77.6230  221.0970 C   0  0  0  0  0  0  0  0  0  0  0  0
  141.7300   74.7420  220.5890 N   0  0  0  0  0  0  0  0  0  0  0  0
  143.0210   72.6500  218.4550 C   0  0  0  0  0  0  0  0  0  0  0  0
  144.2970   72.8180  217.6200 C   0  0  0  0  0  0  0  0  0  0  0  0
  145.6750   74.1210  219.4060 H   0  0  0  0  0  0  0  0  0  0  0  0
  146.8530   73.8750  218.2400 H   0  0  0  0  0  0  0  0  0  0  0  0
  146.1136   71.7999  217.6611 H   0  0  0  0  0  0  0  0  0  0  0  0
  145.9886   70.9496  219.9708 H   0  0  0  0  0  0  0  0  0  0  0  0
  144.5544   70.4742  218.9667 H   0  0  0  0  0  0  0  0  0  0  0  0
  144.7423   72.2756  221.3304 H   0  0  0  0  0  0  0  0  0  0  0  0
  143.4525   71.1265  220.8261 H   0  0  0  0  0  0  0  0  0  0  0  0
  144.0140   73.9338  219.8390 H   0  0  0  0  0  0  0  0  0  0  0  0
  138.2279   71.9261  222.1841 H   0  0  0  0  0  0  0  0  0  0  0  0
  139.2656   70.4406  222.0962 H   0  0  0  0  0  0  0  0  0  0  0  0
  137.6215   71.4302  224.4550 H   0  0  0  0  0  0  0  0  0  0  0  0
  137.3952   69.9255  223.4935 H   0  0  0  0  0  0  0  0  0  0  0  0
  137.8122   68.2066  225.0803 H   0  0  0  0  0  0  0  0  0  0  0  0
  139.4124   67.0685  226.5662 H   0  0  0  0  0  0  0  0  0  0  0  0
  141.5661   68.1404  227.1127 H   0  0  0  0  0  0  0  0  0  0  0  0
  142.1153   70.3536  226.1679 H   0  0  0  0  0  0  0  0  0  0  0  0
  140.2193   72.6740  225.1750 H   0  0  0  0  0  0  0  0  0  0  0  0
  141.7129   71.9850  224.4626 H   0  0  0  0  0  0  0  0  0  0  0  0
  138.2669   77.1958  220.6492 H   0  0  0  0  0  0  0  0  0  0  0  0
  138.1838   75.5719  221.3530 H   0  0  0  0  0  0  0  0  0  0  0  0
  137.3828   77.4017  222.9341 H   0  0  0  0  0  0  0  0  0  0  0  0
  138.7506   76.4796  223.6011 H   0  0  0  0  0  0  0  0  0  0  0  0
  137.9399   79.2171  224.3490 H   0  0  0  0  0  0  0  0  0  0  0  0
  139.1565   81.3450  224.5643 H   0  0  0  0  0  0  0  0  0  0  0  0
  141.1857   81.7792  223.1717 H   0  0  0  0  0  0  0  0  0  0  0  0
  141.9428   80.0318  221.5847 H   0  0  0  0  0  0  0  0  0  0  0  0
  140.7471   77.9916  220.0689 H   0  0  0  0  0  0  0  0  0  0  0  0
  141.9493   77.4314  221.2568 H   0  0  0  0  0  0  0  0  0  0  0  0
  142.2266   73.3070  218.0713 H   0  0  0  0  0  0  0  0  0  0  0  0
  142.6482   71.6162  218.4080 H   0  0  0  0  0  0  0  0  0  0  0  0
  144.4396   73.8822  217.3812 H   0  0  0  0  0  0  0  0  0  0  0  0
  144.2010   72.2389  216.6897 H   0  0  0  0  0  0  0  0  0  0  0  0
  1  2  1  0
  2  3  1  0
  3  4  1  0
  4  5  1  0
  5  6  1  0
  6  7  2  0
  7  8  1  0
  8  9  1  0
  9 10  1  0
 10 11  1  0
 11 12  1  0
 12 13  2  0
 13 14  1  0
 14 15  2  0
 15 16  1  0
 16 17  2  0
 17 18  1  0
  8 19  2  0
 19 20  1  0
 20 21  1  0
 21 22  1  0
 22 23  1  0
 23 24  1  0
 24 25  2  0
 25 26  1  0
 26 27  2  0
 27 28  1  0
 28 29  2  0
 29 30  1  0
 20 31  2  0
  5 32  1  0
 32 33  1  0
 33  2  1  0
 31  6  1  0
 18  9  1  0
 30 21  1  0
 17 12  1  0
 29 24  1  0
  1 34  1  0
  1 35  1  0
  2 36  1  6
  3 37  1  0
  3 38  1  0
  4 39  1  0
  4 40  1  0
  5 41  1  6
 10 42  1  0
 10 43  1  0
 11 44  1  0
 11 45  1  0
 13 46  1  0
 14 47  1  0
 15 48  1  0
 16 49  1  0
 18 50  1  0
 18 51  1  0
 22 52  1  0
 22 53  1  0
 23 54  1  0
 23 55  1  0
 25 56  1  0
 26 57  1  0
 27 58  1  0
 28 59  1  0
 30 60  1  0
 30 61  1  0
 32 62  1  0
 32 63  1  0
 33 64  1  0
 33 65  1  0
M  END
>  <smiles>  (25) 
N[C@H]1CC[C@H](c2nc(N3CCc4ccccc4C3)nc(N3CCc4ccccc4C3)n2)CC1

>  <score_type>  (25) 
oracle

>  <origin>  (25) 
autodockgpu

>  <m_score__min__energy>  (25) 
-10.24

>  <m_primary>  (25) 
energy

>  <rmsd>  (25) 
10.62042716880698

>  <m_score__min__rmsd>  (25) 
10.62042716880698

>  <meeko>  (25) 
{"free_energy": -10.15, "intermolecular_energy": -11.35, "internal_energy": -0.99, "cluster_size": 40, "cluster_id": 1, "rank_in_cluster": 12}

>  <energy>  (25) 
-10.09

>  <cluster_rmsd>  (25) 
0.32

>  <cluster>  (25) 
1

$$$$

     RDKit          3D

 65 70  0  0  0  0  0  0  0  0999 V2000
  146.1730   73.3830  218.3860 N   0  0  0  0  0  0  0  0  0  0  0  0
  145.4850   72.1260  218.1750 C   0  0  1  0  0  0  0  0  0  0  0  0
  145.3410   71.3480  219.4820 C   0  0  0  0  0  0  0  0  0  0  0  0
  144.4440   72.0510  220.4540 C   0  0  0  0  0  0  0  0  0  0  0  0
  143.4580   72.9160  219.7090 C   0  0  2  0  0  0  0  0  0  0  0  0
  142.3450   73.4030  220.5410 C   0  0  0  0  0  0  0  0  0  0  0  0
  141.7600   72.5390  221.3880 N   0  0  0  0  0  0  0  0  0  0  0  0
  140.7540   72.9260  222.1600 C   0  0  0  0  0  0  0  0  0  0  0  0
  140.1220   72.0010  223.0720 N   0  0  0  0  0  0  0  0  0  0  0  0
  138.9550   71.2820  222.6080 C   0  0  0  0  0  0  0  0  0  0  0  0
  138.1680   70.6840  223.7570 C   0  0  0  0  0  0  0  0  0  0  0  0
  139.0920   69.9190  224.6710 C   0  0  0  0  0  0  0  0  0  0  0  0
  138.7430   68.7050  225.1820 C   0  0  0  0  0  0  0  0  0  0  0  0
  139.6070   68.0450  226.0020 C   0  0  0  0  0  0  0  0  0  0  0  0
  140.8170   68.5960  226.3080 C   0  0  0  0  0  0  0  0  0  0  0  0
  141.1590   69.8270  225.7830 C   0  0  0  0  0  0  0  0  0  0  0  0
  140.2970   70.5330  224.9390 C   0  0  0  0  0  0  0  0  0  0  0  0
  140.6920   71.8490  224.3940 C   0  0  0  0  0  0  0  0  0  0  0  0
  140.3320   74.2020  222.0750 N   0  0  0  0  0  0  0  0  0  0  0  0
  140.8760   75.1070  221.2490 C   0  0  0  0  0  0  0  0  0  0  0  0
  140.3730   76.4350  221.2190 N   0  0  0  0  0  0  0  0  0  0  0  0
  138.9460   76.6200  221.4020 C   0  0  0  0  0  0  0  0  0  0  0  0
  138.7760   77.2370  222.7740 C   0  0  0  0  0  0  0  0  0  0  0  0
  139.6360   78.4480  222.8190 C   0  0  0  0  0  0  0  0  0  0  0  0
  139.2820   79.4320  223.7170 C   0  0  0  0  0  0  0  0  0  0  0  0
  140.0150   80.5880  223.8330 C   0  0  0  0  0  0  0  0  0  0  0  0
  141.1350   80.7890  223.0400 C   0  0  0  0  0  0  0  0  0  0  0  0
  141.4840   79.8020  222.1420 C   0  0  0  0  0  0  0  0  0  0  0  0
  140.7440   78.6230  222.0190 C   0  0  0  0  0  0  0  0  0  0  0  0
  141.1840   77.5950  221.0210 C   0  0  0  0  0  0  0  0  0  0  0  0
  141.8990   74.6850  220.4770 N   0  0  0  0  0  0  0  0  0  0  0  0
  143.0250   72.1750  218.4730 C   0  0  0  0  0  0  0  0  0  0  0  0
  144.1780   72.2910  217.4680 C   0  0  0  0  0  0  0  0  0  0  0  0
  145.9260   73.8070  219.3110 H   0  0  0  0  0  0  0  0  0  0  0  0
  145.9450   74.0900  217.6590 H   0  0  0  0  0  0  0  0  0  0  0  0
  146.1149   71.5273  217.5006 H   0  0  0  0  0  0  0  0  0  0  0  0
  146.3355   71.2298  219.9370 H   0  0  0  0  0  0  0  0  0  0  0  0
  144.8928   70.3707  219.2496 H   0  0  0  0  0  0  0  0  0  0  0  0
  145.0511   72.6810  221.1207 H   0  0  0  0  0  0  0  0  0  0  0  0
  143.8954   71.3039  221.0464 H   0  0  0  0  0  0  0  0  0  0  0  0
  143.9537   73.8504  219.4071 H   0  0  0  0  0  0  0  0  0  0  0  0
  138.3055   71.9766  222.0551 H   0  0  0  0  0  0  0  0  0  0  0  0
  139.2951   70.4592  221.9620 H   0  0  0  0  0  0  0  0  0  0  0  0
  137.6806   71.4909  224.3238 H   0  0  0  0  0  0  0  0  0  0  0  0
  137.4072   69.9983  223.3558 H   0  0  0  0  0  0  0  0  0  0  0  0
  137.7681   68.2603  224.9334 H   0  0  0  0  0  0  0  0  0  0  0  0
  139.3287   67.0656  226.4185 H   0  0  0  0  0  0  0  0  0  0  0  0
  141.5162   68.0630  226.9690 H   0  0  0  0  0  0  0  0  0  0  0  0
  142.1364   70.2637  226.0360 H   0  0  0  0  0  0  0  0  0  0  0  0
  140.3179   72.6479  225.0512 H   0  0  0  0  0  0  0  0  0  0  0  0
  141.7886   71.9137  224.3360 H   0  0  0  0  0  0  0  0  0  0  0  0
  138.5458   77.2922  220.6287 H   0  0  0  0  0  0  0  0  0  0  0  0
  138.4030   75.6669  221.3195 H   0  0  0  0  0  0  0  0  0  0  0  0
  137.7240   77.5153  222.9347 H   0  0  0  0  0  0  0  0  0  0  0  0
  139.0623   76.5244  223.5616 H   0  0  0  0  0  0  0  0  0  0  0  0
  138.3958   79.2889  224.3527 H   0  0  0  0  0  0  0  0  0  0  0  0
  139.7123   81.3578  224.5581 H   0  0  0  0  0  0  0  0  0  0  0  0
  141.7290   81.7109  223.1250 H   0  0  0  0  0  0  0  0  0  0  0  0
  142.3691   79.9469  221.5052 H   0  0  0  0  0  0  0  0  0  0  0  0
  141.0476   77.9796  219.9995 H   0  0  0  0  0  0  0  0  0  0  0  0
  142.2486   77.3530  221.1552 H   0  0  0  0  0  0  0  0  0  0  0  0
  142.1126   72.6285  218.0583 H   0  0  0  0  0  0  0  0  0  0  0  0
  142.7995   71.1224  218.6993 H   0  0  0  0  0  0  0  0  0  0  0  0
  144.1452   73.2798  216.9872 H   0  0  0  0  0  0  0  0  0  0  0  0
  144.0757   71.5045  216.7058 H   0  0  0  0  0  0  0  0  0  0  0  0
  1  2  1  0
  2  3  1  0
  3  4  1  0
  4  5  1  0
  5  6  1  0
  6  7  2  0
  7  8  1  0
  8  9  1  0
  9 10  1  0
 10 11  1  0
 11 12  1  0
 12 13  2  0
 13 14  1  0
 14 15  2  0
 15 16  1  0
 16 17  2  0
 17 18  1  0
  8 19  2  0
 19 20  1  0
 20 21  1  0
 21 22  1  0
 22 23  1  0
 23 24  1  0
 24 25  2  0
 25 26  1  0
 26 27  2  0
 27 28  1  0
 28 29  2  0
 29 30  1  0
 20 31  2  0
  5 32  1  0
 32 33  1  0
 33  2  1  0
 31  6  1  0
 18  9  1  0
 30 21  1  0
 17 12  1  0
 29 24  1  0
  1 34  1  0
  1 35  1  0
  2 36  1  6
  3 37  1  0
  3 38  1  0
  4 39  1  0
  4 40  1  0
  5 41  1  6
 10 42  1  0
 10 43  1  0
 11 44  1  0
 11 45  1  0
 13 46  1  0
 14 47  1  0
 15 48  1  0
 16 49  1  0
 18 50  1  0
 18 51  1  0
 22 52  1  0
 22 53  1  0
 23 54  1  0
 23 55  1  0
 25 56  1  0
 26 57  1  0
 27 58  1  0
 28 59  1  0
 30 60  1  0
 30 61  1  0
 32 62  1  0
 32 63  1  0
 33 64  1  0
 33 65  1  0
M  END
>  <smiles>  (26) 
N[C@H]1CC[C@H](c2nc(N3CCc4ccccc4C3)nc(N3CCc4ccccc4C3)n2)CC1

>  <score_type>  (26) 
oracle

>  <origin>  (26) 
autodockgpu

>  <m_score__min__energy>  (26) 
-10.24

>  <m_primary>  (26) 
energy

>  <rmsd>  (26) 
10.566665235942459

>  <m_score__min__rmsd>  (26) 
10.566665235942459

>  <meeko>  (26) 
{"free_energy": -10.11, "intermolecular_energy": -11.3, "internal_energy": -0.99, "cluster_size": 40, "cluster_id": 1, "rank_in_cluster": 24}

>  <energy>  (26) 
-10.08

>  <cluster_rmsd>  (26) 
0.32

>  <cluster>  (26) 
1

$$$$

     RDKit          3D

 65 70  0  0  0  0  0  0  0  0999 V2000
  146.3240   71.5920  219.7740 N   0  0  0  0  0  0  0  0  0  0  0  0
  145.4330   71.3740  218.6530 C   0  0  1  0  0  0  0  0  0  0  0  0
  144.3670   70.3320  218.9870 C   0  0  0  0  0  0  0  0  0  0  0  0
  143.4330   70.8120  220.0560 C   0  0  0  0  0  0  0  0  0  0  0  0
  143.3670   72.3190  220.0400 C   0  0  2  0  0  0  0  0  0  0  0  0
  142.2570   72.8750  220.8330 C   0  0  0  0  0  0  0  0  0  0  0  0
  141.6550   72.0760  221.7300 N   0  0  0  0  0  0  0  0  0  0  0  0
  140.6510   72.5250  222.4690 C   0  0  0  0  0  0  0  0  0  0  0  0
  140.0010   71.6710  223.4350 N   0  0  0  0  0  0  0  0  0  0  0  0
  138.7860   70.9960  223.0340 C   0  0  0  0  0  0  0  0  0  0  0  0
  138.0040   70.4850  224.2270 C   0  0  0  0  0  0  0  0  0  0  0  0
  138.9160   69.7080  225.1440 C   0  0  0  0  0  0  0  0  0  0  0  0
  138.5200   68.5340  225.7140 C   0  0  0  0  0  0  0  0  0  0  0  0
  139.3740   67.8630  226.5350 C   0  0  0  0  0  0  0  0  0  0  0  0
  140.6190   68.3610  226.7840 C   0  0  0  0  0  0  0  0  0  0  0  0
  141.0070   69.5510  226.2000 C   0  0  0  0  0  0  0  0  0  0  0  0
  140.1580   70.2690  225.3530 C   0  0  0  0  0  0  0  0  0  0  0  0
  140.6020   71.5400  224.7460 C   0  0  0  0  0  0  0  0  0  0  0  0
  140.2490   73.8000  222.3000 N   0  0  0  0  0  0  0  0  0  0  0  0
  140.8110   74.6420  221.4210 C   0  0  0  0  0  0  0  0  0  0  0  0
  140.3280   75.9730  221.3030 N   0  0  0  0  0  0  0  0  0  0  0  0
  138.8960   76.1800  221.3910 C   0  0  0  0  0  0  0  0  0  0  0  0
  138.6510   76.8590  222.7220 C   0  0  0  0  0  0  0  0  0  0  0  0
  139.5220   78.0620  222.7670 C   0  0  0  0  0  0  0  0  0  0  0  0
  139.1280   79.0880  223.5990 C   0  0  0  0  0  0  0  0  0  0  0  0
  139.8680   80.2400  223.7090 C   0  0  0  0  0  0  0  0  0  0  0  0
  141.0360   80.3940  222.9770 C   0  0  0  0  0  0  0  0  0  0  0  0
  141.4260   79.3650  222.1460 C   0  0  0  0  0  0  0  0  0  0  0  0
  140.6790   78.1890  222.0290 C   0  0  0  0  0  0  0  0  0  0  0  0
  141.1650   77.1140  221.1050 C   0  0  0  0  0  0  0  0  0  0  0  0
  141.8310   74.1560  220.6840 N   0  0  0  0  0  0  0  0  0  0  0  0
  143.3880   72.7730  218.6060 C   0  0  0  0  0  0  0  0  0  0  0  0
  144.8400   72.6420  218.1270 C   0  0  0  0  0  0  0  0  0  0  0  0
  146.8560   70.7240  220.0180 H   0  0  0  0  0  0  0  0  0  0  0  0
  145.8200   71.8890  220.6330 H   0  0  0  0  0  0  0  0  0  0  0  0
  146.0456   70.9696  217.8338 H   0  0  0  0  0  0  0  0  0  0  0  0
  144.8634   69.4139  219.3343 H   0  0  0  0  0  0  0  0  0  0  0  0
  143.7771   70.1438  218.0778 H   0  0  0  0  0  0  0  0  0  0  0  0
  143.7965   70.4731  221.0373 H   0  0  0  0  0  0  0  0  0  0  0  0
  142.4288   70.4031  219.8705 H   0  0  0  0  0  0  0  0  0  0  0  0
  144.2509   72.7252  220.5536 H   0  0  0  0  0  0  0  0  0  0  0  0
  138.1564   71.7011  222.4715 H   0  0  0  0  0  0  0  0  0  0  0  0
  139.0649   70.1317  222.4133 H   0  0  0  0  0  0  0  0  0  0  0  0
  137.5760   71.3374  224.7749 H   0  0  0  0  0  0  0  0  0  0  0  0
  137.1966   69.8258  223.8755 H   0  0  0  0  0  0  0  0  0  0  0  0
  137.5165   68.1316  225.5116 H   0  0  0  0  0  0  0  0  0  0  0  0
  139.0590   66.9166  226.9988 H   0  0  0  0  0  0  0  0  0  0  0  0
  141.3099   67.8183  227.4459 H   0  0  0  0  0  0  0  0  0  0  0  0
  142.0129   69.9449  226.4074 H   0  0  0  0  0  0  0  0  0  0  0  0
  140.2886   72.3815  225.3813 H   0  0  0  0  0  0  0  0  0  0  0  0
  141.6982   71.5456  224.6548 H   0  0  0  0  0  0  0  0  0  0  0  0
  138.5515   76.8211  220.5662 H   0  0  0  0  0  0  0  0  0  0  0  0
  138.3473   75.2295  221.3177 H   0  0  0  0  0  0  0  0  0  0  0  0
  137.5948   77.1548  222.8057 H   0  0  0  0  0  0  0  0  0  0  0  0
  138.8800   76.1791  223.5558 H   0  0  0  0  0  0  0  0  0  0  0  0
  138.2037   78.9822  224.1859 H   0  0  0  0  0  0  0  0  0  0  0  0
  139.5328   81.0440  224.3807 H   0  0  0  0  0  0  0  0  0  0  0  0
  141.6354   81.3128  223.0573 H   0  0  0  0  0  0  0  0  0  0  0  0
  142.3501   79.4724  221.5591 H   0  0  0  0  0  0  0  0  0  0  0  0
  141.0959   77.4550  220.0615 H   0  0  0  0  0  0  0  0  0  0  0  0
  142.2163   76.8667  221.3141 H   0  0  0  0  0  0  0  0  0  0  0  0
  143.0574   73.8197  218.5342 H   0  0  0  0  0  0  0  0  0  0  0  0
  142.7096   72.1669  217.9876 H   0  0  0  0  0  0  0  0  0  0  0  0
  145.4245   73.4985  218.4939 H   0  0  0  0  0  0  0  0  0  0  0  0
  144.8601   72.6242  217.0273 H   0  0  0  0  0  0  0  0  0  0  0  0
  1  2  1  0
  2  3  1  0
  3  4  1  0
  4  5  1  0
  5  6  1  0
  6  7  2  0
  7  8  1  0
  8  9  1  0
  9 10  1  0
 10 11  1  0
 11 12  1  0
 12 13  2  0
 13 14  1  0
 14 15  2  0
 15 16  1  0
 16 17  2  0
 17 18  1  0
  8 19  2  0
 19 20  1  0
 20 21  1  0
 21 22  1  0
 22 23  1  0
 23 24  1  0
 24 25  2  0
 25 26  1  0
 26 27  2  0
 27 28  1  0
 28 29  2  0
 29 30  1  0
 20 31  2  0
  5 32  1  0
 32 33  1  0
 33  2  1  0
 31  6  1  0
 18  9  1  0
 30 21  1  0
 17 12  1  0
 29 24  1  0
  1 34  1  0
  1 35  1  0
  2 36  1  6
  3 37  1  0
  3 38  1  0
  4 39  1  0
  4 40  1  0
  5 41  1  1
 10 42  1  0
 10 43  1  0
 11 44  1  0
 11 45  1  0
 13 46  1  0
 14 47  1  0
 15 48  1  0
 16 49  1  0
 18 50  1  0
 18 51  1  0
 22 52  1  0
 22 53  1  0
 23 54  1  0
 23 55  1  0
 25 56  1  0
 26 57  1  0
 27 58  1  0
 28 59  1  0
 30 60  1  0
 30 61  1  0
 32 62  1  0
 32 63  1  0
 33 64  1  0
 33 65  1  0
M  END
>  <smiles>  (27) 
N[C@H]1CC[C@H](c2nc(N3CCc4ccccc4C3)nc(N3CCc4ccccc4C3)n2)CC1

>  <score_type>  (27) 
oracle

>  <origin>  (27) 
autodockgpu

>  <m_score__min__energy>  (27) 
-10.24

>  <m_primary>  (27) 
energy

>  <rmsd>  (27) 
11.004941118580533

>  <m_score__min__rmsd>  (27) 
11.004941118580533

>  <meeko>  (27) 
{"free_energy": -9.9, "intermolecular_energy": -11.1, "internal_energy": -0.99, "cluster_size": 40, "cluster_id": 1, "rank_in_cluster": 37}

>  <energy>  (27) 
-10.08

>  <cluster_rmsd>  (27) 
0.46

>  <cluster>  (27) 
1

$$$$

     RDKit          3D

 65 70  0  0  0  0  0  0  0  0999 V2000
  145.4590   73.0140  217.8100 N   0  0  0  0  0  0  0  0  0  0  0  0
  145.5750   71.8870  218.7130 C   0  0  1  0  0  0  0  0  0  0  0  0
  145.9290   72.3450  220.1260 C   0  0  0  0  0  0  0  0  0  0  0  0
  144.8260   73.1470  220.7470 C   0  0  0  0  0  0  0  0  0  0  0  0
  143.5020   72.7520  220.1430 C   0  0  2  0  0  0  0  0  0  0  0  0
  142.3340   73.2500  220.8890 C   0  0  0  0  0  0  0  0  0  0  0  0
  141.7110   72.4060  221.7290 N   0  0  0  0  0  0  0  0  0  0  0  0
  140.6550   72.8020  222.4250 C   0  0  0  0  0  0  0  0  0  0  0  0
  139.9820   71.9000  223.3290 N   0  0  0  0  0  0  0  0  0  0  0  0
  138.7780   71.2460  222.8630 C   0  0  0  0  0  0  0  0  0  0  0  0
  137.9670   70.6750  224.0090 C   0  0  0  0  0  0  0  0  0  0  0  0
  138.8560   69.8520  224.9080 C   0  0  0  0  0  0  0  0  0  0  0  0
  138.4480   68.6510  225.4070 C   0  0  0  0  0  0  0  0  0  0  0  0
  139.2820   67.9390  226.2140 C   0  0  0  0  0  0  0  0  0  0  0  0
  140.5190   68.4240  226.5210 C   0  0  0  0  0  0  0  0  0  0  0  0
  140.9200   69.6430  226.0080 C   0  0  0  0  0  0  0  0  0  0  0  0
  140.0920   70.4020  225.1770 C   0  0  0  0  0  0  0  0  0  0  0  0
  140.5490   71.7030  224.6470 C   0  0  0  0  0  0  0  0  0  0  0  0
  140.2220   74.0680  222.2710 N   0  0  0  0  0  0  0  0  0  0  0  0
  140.8030   74.9540  221.4480 C   0  0  0  0  0  0  0  0  0  0  0  0
  140.2850   76.2720  221.3420 N   0  0  0  0  0  0  0  0  0  0  0  0
  138.8460   76.4380  221.4100 C   0  0  0  0  0  0  0  0  0  0  0  0
  138.5610   77.0900  222.7470 C   0  0  0  0  0  0  0  0  0  0  0  0
  139.3980   78.3160  222.8230 C   0  0  0  0  0  0  0  0  0  0  0  0
  138.9630   79.3170  223.6630 C   0  0  0  0  0  0  0  0  0  0  0  0
  139.6680   80.4880  223.8020 C   0  0  0  0  0  0  0  0  0  0  0  0
  140.8420   80.6860  223.0910 C   0  0  0  0  0  0  0  0  0  0  0  0
  141.2730   79.6810  222.2510 C   0  0  0  0  0  0  0  0  0  0  0  0
  140.5620   78.4860  222.1050 C   0  0  0  0  0  0  0  0  0  0  0  0
  141.0920   77.4390  221.1730 C   0  0  0  0  0  0  0  0  0  0  0  0
  141.8760   74.5220  220.7530 N   0  0  0  0  0  0  0  0  0  0  0  0
  143.5090   71.2620  219.9330 C   0  0  0  0  0  0  0  0  0  0  0  0
  144.3710   71.0000  218.6900 C   0  0  0  0  0  0  0  0  0  0  0  0
  145.8880   72.8060  216.8770 H   0  0  0  0  0  0  0  0  0  0  0  0
  145.9280   73.8670  218.1740 H   0  0  0  0  0  0  0  0  0  0  0  0
  146.4081   71.2688  218.3473 H   0  0  0  0  0  0  0  0  0  0  0  0
  146.8372   72.9640  220.0820 H   0  0  0  0  0  0  0  0  0  0  0  0
  146.0886   71.4494  220.7444 H   0  0  0  0  0  0  0  0  0  0  0  0
  145.0055   74.2168  220.5645 H   0  0  0  0  0  0  0  0  0  0  0  0
  144.8025   72.9534  221.8296 H   0  0  0  0  0  0  0  0  0  0  0  0
  143.3882   73.2477  219.1676 H   0  0  0  0  0  0  0  0  0  0  0  0
  138.1618   71.9788  222.3214 H   0  0  0  0  0  0  0  0  0  0  0  0
  139.0733   70.4146  222.2061 H   0  0  0  0  0  0  0  0  0  0  0  0
  137.5247   71.4987  224.5886 H   0  0  0  0  0  0  0  0  0  0  0  0
  137.1695   70.0346  223.6041 H   0  0  0  0  0  0  0  0  0  0  0  0
  137.4505   68.2592  225.1591 H   0  0  0  0  0  0  0  0  0  0  0  0
  138.9570   66.9695  226.6196 H   0  0  0  0  0  0  0  0  0  0  0  0
  141.1932   67.8488  227.1726 H   0  0  0  0  0  0  0  0  0  0  0  0
  141.9194   70.0266  226.2611 H   0  0  0  0  0  0  0  0  0  0  0  0
  140.2173   72.5109  225.3158 H   0  0  0  0  0  0  0  0  0  0  0  0
  141.6472   71.7142  224.5849 H   0  0  0  0  0  0  0  0  0  0  0  0
  138.4968   77.0817  220.5892 H   0  0  0  0  0  0  0  0  0  0  0  0
  138.3253   75.4738  221.3140 H   0  0  0  0  0  0  0  0  0  0  0  0
  137.4959   77.3554  222.8179 H   0  0  0  0  0  0  0  0  0  0  0  0
  138.7952   76.4043  223.5746 H   0  0  0  0  0  0  0  0  0  0  0  0
  138.0332   79.1762  224.2336 H   0  0  0  0  0  0  0  0  0  0  0  0
  139.2996   81.2718  224.4802 H   0  0  0  0  0  0  0  0  0  0  0  0
  141.4141   81.6198  223.1943 H   0  0  0  0  0  0  0  0  0  0  0  0
  142.2022   79.8234  221.6798 H   0  0  0  0  0  0  0  0  0  0  0  0
  141.0285   77.7933  220.1336 H   0  0  0  0  0  0  0  0  0  0  0  0
  142.1467   77.2185  221.3942 H   0  0  0  0  0  0  0  0  0  0  0  0
  142.4845   70.8968  219.7686 H   0  0  0  0  0  0  0  0  0  0  0  0
  143.9111   70.7386  220.8130 H   0  0  0  0  0  0  0  0  0  0  0  0
  143.7808   71.2087  217.7855 H   0  0  0  0  0  0  0  0  0  0  0  0
  144.6942   69.9486  218.6869 H   0  0  0  0  0  0  0  0  0  0  0  0
  1  2  1  0
  2  3  1  0
  3  4  1  0
  4  5  1  0
  5  6  1  0
  6  7  2  0
  7  8  1  0
  8  9  1  0
  9 10  1  0
 10 11  1  0
 11 12  1  0
 12 13  2  0
 13 14  1  0
 14 15  2  0
 15 16  1  0
 16 17  2  0
 17 18  1  0
  8 19  2  0
 19 20  1  0
 20 21  1  0
 21 22  1  0
 22 23  1  0
 23 24  1  0
 24 25  2  0
 25 26  1  0
 26 27  2  0
 27 28  1  0
 28 29  2  0
 29 30  1  0
 20 31  2  0
  5 32  1  0
 32 33  1  0
 33  2  1  0
 31  6  1  0
 18  9  1  0
 30 21  1  0
 17 12  1  0
 29 24  1  0
  1 34  1  0
  1 35  1  0
  2 36  1  6
  3 37  1  0
  3 38  1  0
  4 39  1  0
  4 40  1  0
  5 41  1  6
 10 42  1  0
 10 43  1  0
 11 44  1  0
 11 45  1  0
 13 46  1  0
 14 47  1  0
 15 48  1  0
 16 49  1  0
 18 50  1  0
 18 51  1  0
 22 52  1  0
 22 53  1  0
 23 54  1  0
 23 55  1  0
 25 56  1  0
 26 57  1  0
 27 58  1  0
 28 59  1  0
 30 60  1  0
 30 61  1  0
 32 62  1  0
 32 63  1  0
 33 64  1  0
 33 65  1  0
M  END
>  <smiles>  (28) 
N[C@H]1CC[C@H](c2nc(N3CCc4ccccc4C3)nc(N3CCc4ccccc4C3)n2)CC1

>  <score_type>  (28) 
oracle

>  <origin>  (28) 
autodockgpu

>  <m_score__min__energy>  (28) 
-10.24

>  <m_primary>  (28) 
energy

>  <rmsd>  (28) 
10.793059050998

>  <m_score__min__rmsd>  (28) 
10.793059050998

>  <meeko>  (28) 
{"free_energy": -10.07, "intermolecular_energy": -11.27, "internal_energy": -1.0, "cluster_size": 40, "cluster_id": 1, "rank_in_cluster": 28}

>  <energy>  (28) 
-10.07

>  <cluster_rmsd>  (28) 
0.46

>  <cluster>  (28) 
1

$$$$

     RDKit          3D

 65 70  0  0  0  0  0  0  0  0999 V2000
  142.0070   78.4990  221.7530 N   0  0  0  0  0  0  0  0  0  0  0  0
  141.1600   78.2180  220.6120 C   0  0  1  0  0  0  0  0  0  0  0  0
  141.9160   77.4330  219.5420 C   0  0  0  0  0  0  0  0  0  0  0  0
  142.2900   76.0610  220.0150 C   0  0  0  0  0  0  0  0  0  0  0  0
  141.3180   75.6000  221.0720 C   0  0  2  0  0  0  0  0  0  0  0  0
  141.4080   74.1630  221.3790 C   0  0  0  0  0  0  0  0  0  0  0  0
  142.2680   73.4150  220.6670 N   0  0  0  0  0  0  0  0  0  0  0  0
  142.3890   72.1160  220.9020 C   0  0  0  0  0  0  0  0  0  0  0  0
  143.3130   71.3080  220.1400 N   0  0  0  0  0  0  0  0  0  0  0  0
  144.6550   71.8140  219.9450 C   0  0  0  0  0  0  0  0  0  0  0  0
  145.3680   71.0970  218.8160 C   0  0  0  0  0  0  0  0  0  0  0  0
  145.2480   69.6050  218.9960 C   0  0  0  0  0  0  0  0  0  0  0  0
  146.3080   68.7740  218.7870 C   0  0  0  0  0  0  0  0  0  0  0  0
  146.1580   67.4320  218.9620 C   0  0  0  0  0  0  0  0  0  0  0  0
  144.9530   66.9220  219.3480 C   0  0  0  0  0  0  0  0  0  0  0  0
  143.8870   67.7750  219.5570 C   0  0  0  0  0  0  0  0  0  0  0  0
  144.0030   69.1570  219.3860 C   0  0  0  0  0  0  0  0  0  0  0  0
  142.8430   70.0430  219.6160 C   0  0  0  0  0  0  0  0  0  0  0  0
  141.6310   71.5640  221.8680 N   0  0  0  0  0  0  0  0  0  0  0  0
  140.7560   72.2600  222.6100 C   0  0  0  0  0  0  0  0  0  0  0  0
  139.9930   71.6030  223.6110 N   0  0  0  0  0  0  0  0  0  0  0  0
  138.7920   70.9050  223.1940 C   0  0  0  0  0  0  0  0  0  0  0  0
  139.1000   69.4280  223.3220 C   0  0  0  0  0  0  0  0  0  0  0  0
  139.5790   69.2000  224.7110 C   0  0  0  0  0  0  0  0  0  0  0  0
  139.4330   67.9280  225.2200 C   0  0  0  0  0  0  0  0  0  0  0  0
  139.8460   67.6180  226.4930 C   0  0  0  0  0  0  0  0  0  0  0  0
  140.4230   68.5900  227.2970 C   0  0  0  0  0  0  0  0  0  0  0  0
  140.5650   69.8620  226.7830 C   0  0  0  0  0  0  0  0  0  0  0  0
  140.1480   70.1840  225.4890 C   0  0  0  0  0  0  0  0  0  0  0  0
  140.3350   71.5880  224.9980 C   0  0  0  0  0  0  0  0  0  0  0  0
  140.6560   73.5790  222.3480 N   0  0  0  0  0  0  0  0  0  0  0  0
  139.9410   76.0600  220.6740 C   0  0  0  0  0  0  0  0  0  0  0  0
  139.8730   77.5590  220.9940 C   0  0  0  0  0  0  0  0  0  0  0  0
  142.9360   78.8820  221.4580 H   0  0  0  0  0  0  0  0  0  0  0  0
  142.1980   77.6540  222.3270 H   0  0  0  0  0  0  0  0  0  0  0  0
  140.8805   79.1881  220.1751 H   0  0  0  0  0  0  0  0  0  0  0  0
  142.8331   77.9812  219.2802 H   0  0  0  0  0  0  0  0  0  0  0  0
  141.2559   77.3244  218.6688 H   0  0  0  0  0  0  0  0  0  0  0  0
  143.3050   76.0852  220.4384 H   0  0  0  0  0  0  0  0  0  0  0  0
  142.2584   75.3636  219.1649 H   0  0  0  0  0  0  0  0  0  0  0  0
  141.5837   76.0636  222.0335 H   0  0  0  0  0  0  0  0  0  0  0  0
  144.6001   72.8866  219.7072 H   0  0  0  0  0  0  0  0  0  0  0  0
  145.2230   71.6431  220.8714 H   0  0  0  0  0  0  0  0  0  0  0  0
  144.9139   71.3859  217.8567 H   0  0  0  0  0  0  0  0  0  0  0  0
  146.4316   71.3775  218.8246 H   0  0  0  0  0  0  0  0  0  0  0  0
  147.2803   69.1856  218.4783 H   0  0  0  0  0  0  0  0  0  0  0  0
  147.0102   66.7577  218.7918 H   0  0  0  0  0  0  0  0  0  0  0  0
  144.8312   65.8383  219.4919 H   0  0  0  0  0  0  0  0  0  0  0  0
  142.9190   67.3544  219.8669 H   0  0  0  0  0  0  0  0  0  0  0  0
  142.3132   70.2110  218.6667 H   0  0  0  0  0  0  0  0  0  0  0  0
  142.1548   69.5752  220.3355 H   0  0  0  0  0  0  0  0  0  0  0  0
  137.9472   71.1767  223.8440 H   0  0  0  0  0  0  0  0  0  0  0  0
  138.5102   71.1694  222.1641 H   0  0  0  0  0  0  0  0  0  0  0  0
  138.1924   68.8356  223.1339 H   0  0  0  0  0  0  0  0  0  0  0  0
  139.8619   69.1221  222.5900 H   0  0  0  0  0  0  0  0  0  0  0  0
  138.9771   67.1459  224.5952 H   0  0  0  0  0  0  0  0  0  0  0  0
  139.7186   66.5948  226.8763 H   0  0  0  0  0  0  0  0  0  0  0  0
  140.7584   68.3526  228.3174 H   0  0  0  0  0  0  0  0  0  0  0  0
  141.0190   70.6443  227.4090 H   0  0  0  0  0  0  0  0  0  0  0  0
  139.6779   72.2721  225.5550 H   0  0  0  0  0  0  0  0  0  0  0  0
  141.3742   71.9168  225.1460 H   0  0  0  0  0  0  0  0  0  0  0  0
  139.1774   75.5140  221.2474 H   0  0  0  0  0  0  0  0  0  0  0  0
  139.7518   75.8721  219.6068 H   0  0  0  0  0  0  0  0  0  0  0  0
  139.6991   77.6947  222.0717 H   0  0  0  0  0  0  0  0  0  0  0  0
  139.0491   78.0146  220.4251 H   0  0  0  0  0  0  0  0  0  0  0  0
  1  2  1  0
  2  3  1  0
  3  4  1  0
  4  5  1  0
  5  6  1  0
  6  7  2  0
  7  8  1  0
  8  9  1  0
  9 10  1  0
 10 11  1  0
 11 12  1  0
 12 13  2  0
 13 14  1  0
 14 15  2  0
 15 16  1  0
 16 17  2  0
 17 18  1  0
  8 19  2  0
 19 20  1  0
 20 21  1  0
 21 22  1  0
 22 23  1  0
 23 24  1  0
 24 25  2  0
 25 26  1  0
 26 27  2  0
 27 28  1  0
 28 29  2  0
 29 30  1  0
 20 31  2  0
  5 32  1  0
 32 33  1  0
 33  2  1  0
 31  6  1  0
 18  9  1  0
 30 21  1  0
 17 12  1  0
 29 24  1  0
  1 34  1  0
  1 35  1  0
  2 36  1  6
  3 37  1  0
  3 38  1  0
  4 39  1  0
  4 40  1  0
  5 41  1  1
 10 42  1  0
 10 43  1  0
 11 44  1  0
 11 45  1  0
 13 46  1  0
 14 47  1  0
 15 48  1  0
 16 49  1  0
 18 50  1  0
 18 51  1  0
 22 52  1  0
 22 53  1  0
 23 54  1  0
 23 55  1  0
 25 56  1  0
 26 57  1  0
 27 58  1  0
 28 59  1  0
 30 60  1  0
 30 61  1  0
 32 62  1  0
 32 63  1  0
 33 64  1  0
 33 65  1  0
M  END
>  <smiles>  (29) 
N[C@H]1CC[C@H](c2nc(N3CCc4ccccc4C3)nc(N3CCc4ccccc4C3)n2)CC1

>  <score_type>  (29) 
oracle

>  <origin>  (29) 
autodockgpu

>  <m_score__min__energy>  (29) 
-10.24

>  <m_primary>  (29) 
energy

>  <rmsd>  (29) 
11.087711000288929

>  <m_score__min__rmsd>  (29) 
11.087711000288929

>  <meeko>  (29) 
{"free_energy": -9.9, "intermolecular_energy": -11.1, "internal_energy": -1.02, "cluster_size": 10, "cluster_id": 2, "rank_in_cluster": 4}

>  <energy>  (29) 
-10.07

>  <cluster_rmsd>  (29) 
0.32

>  <cluster>  (29) 
1

$$$$

     RDKit          3D

 65 70  0  0  0  0  0  0  0  0999 V2000
  145.8640   73.3810  218.2350 N   0  0  0  0  0  0  0  0  0  0  0  0
  145.9360   72.2320  219.1140 C   0  0  1  0  0  0  0  0  0  0  0  0
  146.1350   72.6580  220.5670 C   0  0  0  0  0  0  0  0  0  0  0  0
  144.9470   73.4000  221.0990 C   0  0  0  0  0  0  0  0  0  0  0  0
  143.7040   72.9760  220.3590 C   0  0  2  0  0  0  0  0  0  0  0  0
  142.4510   73.4070  221.0020 C   0  0  0  0  0  0  0  0  0  0  0  0
  141.7930   72.5200  221.7670 N   0  0  0  0  0  0  0  0  0  0  0  0
  140.6600   72.8560  222.3690 C   0  0  0  0  0  0  0  0  0  0  0  0
  139.9490   71.9070  223.1940 N   0  0  0  0  0  0  0  0  0  0  0  0
  138.8810   71.1450  222.5830 C   0  0  0  0  0  0  0  0  0  0  0  0
  137.9720   70.5170  223.6210 C   0  0  0  0  0  0  0  0  0  0  0  0
  138.7970   69.7850  224.6500 C   0  0  0  0  0  0  0  0  0  0  0  0
  138.4280   68.5580  225.1160 C   0  0  0  0  0  0  0  0  0  0  0  0
  139.2010   67.9300  226.0440 C   0  0  0  0  0  0  0  0  0  0  0  0
  140.3390   68.5250  226.5050 C   0  0  0  0  0  0  0  0  0  0  0  0
  140.7010   69.7690  226.0250 C   0  0  0  0  0  0  0  0  0  0  0  0
  139.9320   70.4440  225.0720 C   0  0  0  0  0  0  0  0  0  0  0  0
  140.3450   71.7750  224.5800 C   0  0  0  0  0  0  0  0  0  0  0  0
  140.1860   74.1040  222.1950 N   0  0  0  0  0  0  0  0  0  0  0  0
  140.7990   75.0300  221.4430 C   0  0  0  0  0  0  0  0  0  0  0  0
  140.2320   76.3260  221.3100 N   0  0  0  0  0  0  0  0  0  0  0  0
  138.7880   76.4400  221.3680 C   0  0  0  0  0  0  0  0  0  0  0  0
  138.4730   77.1060  222.6910 C   0  0  0  0  0  0  0  0  0  0  0  0
  139.2630   78.3630  222.7480 C   0  0  0  0  0  0  0  0  0  0  0  0
  138.7860   79.3630  223.5670 C   0  0  0  0  0  0  0  0  0  0  0  0
  139.4470   80.5610  223.6870 C   0  0  0  0  0  0  0  0  0  0  0  0
  140.6170   80.7890  222.9780 C   0  0  0  0  0  0  0  0  0  0  0  0
  141.0900   79.7860  222.1590 C   0  0  0  0  0  0  0  0  0  0  0  0
  140.4230   78.5630  222.0320 C   0  0  0  0  0  0  0  0  0  0  0  0
  140.9970   77.5190  221.1230 C   0  0  0  0  0  0  0  0  0  0  0  0
  141.9490   74.6600  220.8440 N   0  0  0  0  0  0  0  0  0  0  0  0
  143.7900   71.4940  220.1100 C   0  0  0  0  0  0  0  0  0  0  0  0
  144.7760   71.3020  218.9510 C   0  0  0  0  0  0  0  0  0  0  0  0
  146.7940   73.8510  218.1360 H   0  0  0  0  0  0  0  0  0  0  0  0
  145.1970   74.1030  218.5750 H   0  0  0  0  0  0  0  0  0  0  0  0
  146.8239   71.6566  218.8130 H   0  0  0  0  0  0  0  0  0  0  0  0
  147.0186   73.3103  220.6286 H   0  0  0  0  0  0  0  0  0  0  0  0
  146.2695   71.7501  221.1732 H   0  0  0  0  0  0  0  0  0  0  0  0
  145.1013   74.4807  220.9637 H   0  0  0  0  0  0  0  0  0  0  0  0
  144.8271   73.1727  222.1686 H   0  0  0  0  0  0  0  0  0  0  0  0
  143.6647   73.4975  219.3913 H   0  0  0  0  0  0  0  0  0  0  0  0
  138.2847   71.8151  221.9463 H   0  0  0  0  0  0  0  0  0  0  0  0
  139.3337   70.3360  221.9909 H   0  0  0  0  0  0  0  0  0  0  0  0
  137.3856   71.3046  224.1167 H   0  0  0  0  0  0  0  0  0  0  0  0
  137.2949   69.8051  223.1264 H   0  0  0  0  0  0  0  0  0  0  0  0
  137.5107   68.0781  224.7441 H   0  0  0  0  0  0  0  0  0  0  0  0
  138.9073   66.9401  226.4233 H   0  0  0  0  0  0  0  0  0  0  0  0
  140.9644   68.0174  227.2542 H   0  0  0  0  0  0  0  0  0  0  0  0
  141.6196   70.2415  226.4030 H   0  0  0  0  0  0  0  0  0  0  0  0
  139.8572   72.5578  225.1794 H   0  0  0  0  0  0  0  0  0  0  0  0
  141.4363   71.8821  224.6673 H   0  0  0  0  0  0  0  0  0  0  0  0
  138.4196   77.0549  220.5336 H   0  0  0  0  0  0  0  0  0  0  0  0
  138.3033   75.4558  221.2876 H   0  0  0  0  0  0  0  0  0  0  0  0
  137.3984   77.3329  222.7525 H   0  0  0  0  0  0  0  0  0  0  0  0
  138.7290   76.4450  223.5321 H   0  0  0  0  0  0  0  0  0  0  0  0
  137.8586   79.1989  224.1353 H   0  0  0  0  0  0  0  0  0  0  0  0
  139.0465   81.3433  224.3485 H   0  0  0  0  0  0  0  0  0  0  0  0
  141.1535   81.7452  223.0669 H   0  0  0  0  0  0  0  0  0  0  0  0
  142.0167   79.9519  221.5901 H   0  0  0  0  0  0  0  0  0  0  0  0
  140.9269   77.8511  220.0767 H   0  0  0  0  0  0  0  0  0  0  0  0
  142.0578   77.3418  221.3540 H   0  0  0  0  0  0  0  0  0  0  0  0
  142.8012   71.0968  219.8371 H   0  0  0  0  0  0  0  0  0  0  0  0
  144.1263   70.9589  221.0103 H   0  0  0  0  0  0  0  0  0  0  0  0
  144.2673   71.5158  217.9994 H   0  0  0  0  0  0  0  0  0  0  0  0
  145.1397   70.2639  218.9515 H   0  0  0  0  0  0  0  0  0  0  0  0
  1  2  1  0
  2  3  1  0
  3  4  1  0
  4  5  1  0
  5  6  1  0
  6  7  2  0
  7  8  1  0
  8  9  1  0
  9 10  1  0
 10 11  1  0
 11 12  1  0
 12 13  2  0
 13 14  1  0
 14 15  2  0
 15 16  1  0
 16 17  2  0
 17 18  1  0
  8 19  2  0
 19 20  1  0
 20 21  1  0
 21 22  1  0
 22 23  1  0
 23 24  1  0
 24 25  2  0
 25 26  1  0
 26 27  2  0
 27 28  1  0
 28 29  2  0
 29 30  1  0
 20 31  2  0
  5 32  1  0
 32 33  1  0
 33  2  1  0
 31  6  1  0
 18  9  1  0
 30 21  1  0
 17 12  1  0
 29 24  1  0
  1 34  1  0
  1 35  1  0
  2 36  1  6
  3 37  1  0
  3 38  1  0
  4 39  1  0
  4 40  1  0
  5 41  1  6
 10 42  1  0
 10 43  1  0
 11 44  1  0
 11 45  1  0
 13 46  1  0
 14 47  1  0
 15 48  1  0
 16 49  1  0
 18 50  1  0
 18 51  1  0
 22 52  1  0
 22 53  1  0
 23 54  1  0
 23 55  1  0
 25 56  1  0
 26 57  1  0
 27 58  1  0
 28 59  1  0
 30 60  1  0
 30 61  1  0
 32 62  1  0
 32 63  1  0
 33 64  1  0
 33 65  1  0
M  END
>  <smiles>  (30) 
N[C@H]1CC[C@H](c2nc(N3CCc4ccccc4C3)nc(N3CCc4ccccc4C3)n2)CC1

>  <score_type>  (30) 
oracle

>  <origin>  (30) 
autodockgpu

>  <m_score__min__energy>  (30) 
-10.24

>  <m_primary>  (30) 
energy

>  <rmsd>  (30) 
10.696824510429721

>  <m_score__min__rmsd>  (30) 
10.696824510429721

>  <meeko>  (30) 
{"free_energy": -10.24, "intermolecular_energy": -11.43, "internal_energy": -0.99, "cluster_size": 40, "cluster_id": 1, "rank_in_cluster": 1}

>  <energy>  (30) 
-10.07

>  <cluster_rmsd>  (30) 
0.51

>  <cluster>  (30) 
1

$$$$

     RDKit          3D

 65 70  0  0  0  0  0  0  0  0999 V2000
  145.4630   72.9830  217.8010 N   0  0  0  0  0  0  0  0  0  0  0  0
  145.5740   71.8600  218.7080 C   0  0  1  0  0  0  0  0  0  0  0  0
  145.9230   72.3220  220.1220 C   0  0  0  0  0  0  0  0  0  0  0  0
  144.8180   73.1270  220.7350 C   0  0  0  0  0  0  0  0  0  0  0  0
  143.4960   72.7300  220.1270 C   0  0  2  0  0  0  0  0  0  0  0  0
  142.3260   73.2310  220.8660 C   0  0  0  0  0  0  0  0  0  0  0  0
  141.6880   72.3860  221.6940 N   0  0  0  0  0  0  0  0  0  0  0  0
  140.6290   72.7850  222.3840 C   0  0  0  0  0  0  0  0  0  0  0  0
  139.9420   71.8810  223.2750 N   0  0  0  0  0  0  0  0  0  0  0  0
  138.8050   71.1500  222.7560 C   0  0  0  0  0  0  0  0  0  0  0  0
  137.9480   70.5780  223.8670 C   0  0  0  0  0  0  0  0  0  0  0  0
  138.8130   69.8340  224.8530 C   0  0  0  0  0  0  0  0  0  0  0  0
  138.4320   68.6310  225.3690 C   0  0  0  0  0  0  0  0  0  0  0  0
  139.2420   67.9910  226.2560 C   0  0  0  0  0  0  0  0  0  0  0  0
  140.4310   68.5500  226.6240 C   0  0  0  0  0  0  0  0  0  0  0  0
  140.8050   69.7690  226.0940 C   0  0  0  0  0  0  0  0  0  0  0  0
  139.9990   70.4550  225.1820 C   0  0  0  0  0  0  0  0  0  0  0  0
  140.4270   71.7590  224.6340 C   0  0  0  0  0  0  0  0  0  0  0  0
  140.2070   74.0550  222.2350 N   0  0  0  0  0  0  0  0  0  0  0  0
  140.8020   74.9420  221.4250 C   0  0  0  0  0  0  0  0  0  0  0  0
  140.2940   76.2650  221.3240 N   0  0  0  0  0  0  0  0  0  0  0  0
  138.8570   76.4430  221.3940 C   0  0  0  0  0  0  0  0  0  0  0  0
  138.5790   77.0920  222.7340 C   0  0  0  0  0  0  0  0  0  0  0  0
  139.4260   78.3110  222.8140 C   0  0  0  0  0  0  0  0  0  0  0  0
  139.0000   79.3130  223.6580 C   0  0  0  0  0  0  0  0  0  0  0  0
  139.7150   80.4770  223.8000 C   0  0  0  0  0  0  0  0  0  0  0  0
  140.8900   80.6680  223.0890 C   0  0  0  0  0  0  0  0  0  0  0  0
  141.3120   79.6620  222.2450 C   0  0  0  0  0  0  0  0  0  0  0  0
  140.5900   78.4750  222.0950 C   0  0  0  0  0  0  0  0  0  0  0  0
  141.1110   77.4260  221.1590 C   0  0  0  0  0  0  0  0  0  0  0  0
  141.8770   74.5080  220.7360 N   0  0  0  0  0  0  0  0  0  0  0  0
  143.5040   71.2390  219.9220 C   0  0  0  0  0  0  0  0  0  0  0  0
  144.3700   70.9730  218.6840 C   0  0  0  0  0  0  0  0  0  0  0  0
  145.8750   73.8540  218.2130 H   0  0  0  0  0  0  0  0  0  0  0  0
  144.4770   73.2030  217.5560 H   0  0  0  0  0  0  0  0  0  0  0  0
  146.4082   71.2407  218.3467 H   0  0  0  0  0  0  0  0  0  0  0  0
  146.8321   72.9398  220.0801 H   0  0  0  0  0  0  0  0  0  0  0  0
  146.0794   71.4283  220.7439 H   0  0  0  0  0  0  0  0  0  0  0  0
  144.9988   74.1959  220.5489 H   0  0  0  0  0  0  0  0  0  0  0  0
  144.7899   72.9380  221.8183 H   0  0  0  0  0  0  0  0  0  0  0  0
  143.3856   73.2220  219.1494 H   0  0  0  0  0  0  0  0  0  0  0  0
  138.1914   71.8311  222.1480 H   0  0  0  0  0  0  0  0  0  0  0  0
  139.1842   70.3128  222.1516 H   0  0  0  0  0  0  0  0  0  0  0  0
  137.4275   71.3974  224.3845 H   0  0  0  0  0  0  0  0  0  0  0  0
  137.2125   69.8834  223.4352 H   0  0  0  0  0  0  0  0  0  0  0  0
  137.4745   68.1797  225.0699 H   0  0  0  0  0  0  0  0  0  0  0  0
  138.9375   67.0214  226.6769 H   0  0  0  0  0  0  0  0  0  0  0  0
  141.0878   68.0326  227.3387 H   0  0  0  0  0  0  0  0  0  0  0  0
  141.7645   70.2124  226.3984 H   0  0  0  0  0  0  0  0  0  0  0  0
  140.0116   72.5715  225.2482 H   0  0  0  0  0  0  0  0  0  0  0  0
  141.5250   71.8242  224.6441 H   0  0  0  0  0  0  0  0  0  0  0  0
  138.5125   77.0930  220.5762 H   0  0  0  0  0  0  0  0  0  0  0  0
  138.3279   75.4838  221.2945 H   0  0  0  0  0  0  0  0  0  0  0  0
  137.5161   77.3657  222.8073 H   0  0  0  0  0  0  0  0  0  0  0  0
  138.8087   76.4011  223.5585 H   0  0  0  0  0  0  0  0  0  0  0  0
  138.0695   79.1783  224.2290 H   0  0  0  0  0  0  0  0  0  0  0  0
  139.3537   81.2616  224.4811 H   0  0  0  0  0  0  0  0  0  0  0  0
  141.4699   81.5967  223.1952 H   0  0  0  0  0  0  0  0  0  0  0  0
  142.2425   79.7978  221.6743 H   0  0  0  0  0  0  0  0  0  0  0  0
  141.0504   77.7844  220.1208 H   0  0  0  0  0  0  0  0  0  0  0  0
  142.1638   77.1957  221.3795 H   0  0  0  0  0  0  0  0  0  0  0  0
  142.4802   70.8731  219.7551 H   0  0  0  0  0  0  0  0  0  0  0  0
  143.9030   70.7186  220.8052 H   0  0  0  0  0  0  0  0  0  0  0  0
  143.7830   71.1785  217.7767 H   0  0  0  0  0  0  0  0  0  0  0  0
  144.6933   69.9216  218.6860 H   0  0  0  0  0  0  0  0  0  0  0  0
  1  2  1  0
  2  3  1  0
  3  4  1  0
  4  5  1  0
  5  6  1  0
  6  7  2  0
  7  8  1  0
  8  9  1  0
  9 10  1  0
 10 11  1  0
 11 12  1  0
 12 13  2  0
 13 14  1  0
 14 15  2  0
 15 16  1  0
 16 17  2  0
 17 18  1  0
  8 19  2  0
 19 20  1  0
 20 21  1  0
 21 22  1  0
 22 23  1  0
 23 24  1  0
 24 25  2  0
 25 26  1  0
 26 27  2  0
 27 28  1  0
 28 29  2  0
 29 30  1  0
 20 31  2  0
  5 32  1  0
 32 33  1  0
 33  2  1  0
 31  6  1  0
 18  9  1  0
 30 21  1  0
 17 12  1  0
 29 24  1  0
  1 34  1  0
  1 35  1  0
  2 36  1  6
  3 37  1  0
  3 38  1  0
  4 39  1  0
  4 40  1  0
  5 41  1  6
 10 42  1  0
 10 43  1  0
 11 44  1  0
 11 45  1  0
 13 46  1  0
 14 47  1  0
 15 48  1  0
 16 49  1  0
 18 50  1  0
 18 51  1  0
 22 52  1  0
 22 53  1  0
 23 54  1  0
 23 55  1  0
 25 56  1  0
 26 57  1  0
 27 58  1  0
 28 59  1  0
 30 60  1  0
 30 61  1  0
 32 62  1  0
 32 63  1  0
 33 64  1  0
 33 65  1  0
M  END
>  <smiles>  (31) 
N[C@H]1CC[C@H](c2nc(N3CCc4ccccc4C3)nc(N3CCc4ccccc4C3)n2)CC1

>  <score_type>  (31) 
oracle

>  <origin>  (31) 
autodockgpu

>  <m_score__min__energy>  (31) 
-10.24

>  <m_primary>  (31) 
energy

>  <rmsd>  (31) 
10.759378423210178

>  <m_score__min__rmsd>  (31) 
10.759378423210178

>  <meeko>  (31) 
{"free_energy": -10.15, "intermolecular_energy": -11.35, "internal_energy": -1.0, "cluster_size": 40, "cluster_id": 1, "rank_in_cluster": 13}

>  <energy>  (31) 
-10.07

>  <cluster_rmsd>  (31) 
0.5

>  <cluster>  (31) 
1

$$$$

     RDKit          3D

 65 70  0  0  0  0  0  0  0  0999 V2000
  145.9770   73.3980  218.0740 N   0  0  0  0  0  0  0  0  0  0  0  0
  145.5380   72.0330  218.2730 C   0  0  1  0  0  0  0  0  0  0  0  0
  145.6460   71.6250  219.7410 C   0  0  0  0  0  0  0  0  0  0  0  0
  144.7010   72.4000  220.6070 C   0  0  0  0  0  0  0  0  0  0  0  0
  143.5120   72.8500  219.7960 C   0  0  2  0  0  0  0  0  0  0  0  0
  142.3890   73.3460  220.6080 C   0  0  0  0  0  0  0  0  0  0  0  0
  141.7940   72.4910  221.4580 N   0  0  0  0  0  0  0  0  0  0  0  0
  140.7780   72.8850  222.2120 C   0  0  0  0  0  0  0  0  0  0  0  0
  140.1360   71.9710  223.1270 N   0  0  0  0  0  0  0  0  0  0  0  0
  139.0050   71.2100  222.6430 C   0  0  0  0  0  0  0  0  0  0  0  0
  138.1910   70.6250  223.7790 C   0  0  0  0  0  0  0  0  0  0  0  0
  139.0990   69.9090  224.7470 C   0  0  0  0  0  0  0  0  0  0  0  0
  138.7600   68.7010  225.2810 C   0  0  0  0  0  0  0  0  0  0  0  0
  139.6090   68.0860  226.1500 C   0  0  0  0  0  0  0  0  0  0  0  0
  140.7930   68.6760  226.4840 C   0  0  0  0  0  0  0  0  0  0  0  0
  141.1240   69.9000  225.9360 C   0  0  0  0  0  0  0  0  0  0  0  0
  140.2780   70.5600  225.0410 C   0  0  0  0  0  0  0  0  0  0  0  0
  140.6600   71.8700  224.4730 C   0  0  0  0  0  0  0  0  0  0  0  0
  140.3570   74.1600  222.1080 N   0  0  0  0  0  0  0  0  0  0  0  0
  140.9110   75.0560  221.2780 C   0  0  0  0  0  0  0  0  0  0  0  0
  140.4070   76.3840  221.2270 N   0  0  0  0  0  0  0  0  0  0  0  0
  138.9760   76.5680  221.3770 C   0  0  0  0  0  0  0  0  0  0  0  0
  138.7760   77.1960  222.7410 C   0  0  0  0  0  0  0  0  0  0  0  0
  139.6330   78.4090  222.7940 C   0  0  0  0  0  0  0  0  0  0  0  0
  139.2600   79.3990  223.6770 C   0  0  0  0  0  0  0  0  0  0  0  0
  139.9890   80.5560  223.7990 C   0  0  0  0  0  0  0  0  0  0  0  0
  141.1260   80.7520  223.0290 C   0  0  0  0  0  0  0  0  0  0  0  0
  141.4950   79.7590  222.1470 C   0  0  0  0  0  0  0  0  0  0  0  0
  140.7580   78.5780  222.0170 C   0  0  0  0  0  0  0  0  0  0  0  0
  141.2210   77.5420  221.0370 C   0  0  0  0  0  0  0  0  0  0  0  0
  141.9420   74.6260  220.5230 N   0  0  0  0  0  0  0  0  0  0  0  0
  143.1450   71.7380  218.8490 C   0  0  0  0  0  0  0  0  0  0  0  0
  144.1760   71.7740  217.7130 C   0  0  0  0  0  0  0  0  0  0  0  0
  146.5280   73.7490  218.8920 H   0  0  0  0  0  0  0  0  0  0  0  0
  145.1850   74.0570  217.9390 H   0  0  0  0  0  0  0  0  0  0  0  0
  146.2234   71.3914  217.6997 H   0  0  0  0  0  0  0  0  0  0  0  0
  146.6746   71.8066  220.0858 H   0  0  0  0  0  0  0  0  0  0  0  0
  145.3840   70.5595  219.8189 H   0  0  0  0  0  0  0  0  0  0  0  0
  145.2189   73.2808  221.0144 H   0  0  0  0  0  0  0  0  0  0  0  0
  144.3552   71.7576  221.4303 H   0  0  0  0  0  0  0  0  0  0  0  0
  143.7892   73.7392  219.2107 H   0  0  0  0  0  0  0  0  0  0  0  0
  138.3596   71.8720  222.0470 H   0  0  0  0  0  0  0  0  0  0  0  0
  139.3888   70.3779  222.0344 H   0  0  0  0  0  0  0  0  0  0  0  0
  137.6640   71.4349  224.3046 H   0  0  0  0  0  0  0  0  0  0  0  0
  137.4618   69.9098  223.3705 H   0  0  0  0  0  0  0  0  0  0  0  0
  137.8054   68.2257  225.0111 H   0  0  0  0  0  0  0  0  0  0  0  0
  139.3397   67.1116  226.5836 H   0  0  0  0  0  0  0  0  0  0  0  0
  141.4799   68.1799  227.1855 H   0  0  0  0  0  0  0  0  0  0  0  0
  142.0803   70.3682  226.2119 H   0  0  0  0  0  0  0  0  0  0  0  0
  140.2421   72.6768  225.0930 H   0  0  0  0  0  0  0  0  0  0  0  0
  141.7560   71.9610  224.4530 H   0  0  0  0  0  0  0  0  0  0  0  0
  138.5917   77.2334  220.5899 H   0  0  0  0  0  0  0  0  0  0  0  0
  138.4359   75.6137  221.2899 H   0  0  0  0  0  0  0  0  0  0  0  0
  137.7204   77.4737  222.8773 H   0  0  0  0  0  0  0  0  0  0  0  0
  139.0468   76.4903  223.5402 H   0  0  0  0  0  0  0  0  0  0  0  0
  138.3613   79.2597  224.2958 H   0  0  0  0  0  0  0  0  0  0  0  0
  139.6698   81.3314  224.5109 H   0  0  0  0  0  0  0  0  0  0  0  0
  141.7174   81.6751  223.1198 H   0  0  0  0  0  0  0  0  0  0  0  0
  142.3938   79.8996  221.5286 H   0  0  0  0  0  0  0  0  0  0  0  0
  141.1068   77.9180  220.0096 H   0  0  0  0  0  0  0  0  0  0  0  0
  142.2827   77.3022  221.1962 H   0  0  0  0  0  0  0  0  0  0  0  0
  142.1330   71.8984  218.4488 H   0  0  0  0  0  0  0  0  0  0  0  0
  143.1498   70.7635  219.3593 H   0  0  0  0  0  0  0  0  0  0  0  0
  143.9132   72.5752  217.0066 H   0  0  0  0  0  0  0  0  0  0  0  0
  144.1759   70.8054  217.1916 H   0  0  0  0  0  0  0  0  0  0  0  0
  1  2  1  0
  2  3  1  0
  3  4  1  0
  4  5  1  0
  5  6  1  0
  6  7  2  0
  7  8  1  0
  8  9  1  0
  9 10  1  0
 10 11  1  0
 11 12  1  0
 12 13  2  0
 13 14  1  0
 14 15  2  0
 15 16  1  0
 16 17  2  0
 17 18  1  0
  8 19  2  0
 19 20  1  0
 20 21  1  0
 21 22  1  0
 22 23  1  0
 23 24  1  0
 24 25  2  0
 25 26  1  0
 26 27  2  0
 27 28  1  0
 28 29  2  0
 29 30  1  0
 20 31  2  0
  5 32  1  0
 32 33  1  0
 33  2  1  0
 31  6  1  0
 18  9  1  0
 30 21  1  0
 17 12  1  0
 29 24  1  0
  1 34  1  0
  1 35  1  0
  2 36  1  6
  3 37  1  0
  3 38  1  0
  4 39  1  0
  4 40  1  0
  5 41  1  6
 10 42  1  0
 10 43  1  0
 11 44  1  0
 11 45  1  0
 13 46  1  0
 14 47  1  0
 15 48  1  0
 16 49  1  0
 18 50  1  0
 18 51  1  0
 22 52  1  0
 22 53  1  0
 23 54  1  0
 23 55  1  0
 25 56  1  0
 26 57  1  0
 27 58  1  0
 28 59  1  0
 30 60  1  0
 30 61  1  0
 32 62  1  0
 32 63  1  0
 33 64  1  0
 33 65  1  0
M  END
>  <smiles>  (32) 
N[C@H]1CC[C@H](c2nc(N3CCc4ccccc4C3)nc(N3CCc4ccccc4C3)n2)CC1

>  <score_type>  (32) 
oracle

>  <origin>  (32) 
autodockgpu

>  <m_score__min__energy>  (32) 
-10.24

>  <m_primary>  (32) 
energy

>  <rmsd>  (32) 
10.597704825457942

>  <m_score__min__rmsd>  (32) 
10.597704825457942

>  <meeko>  (32) 
{"free_energy": -10.19, "intermolecular_energy": -11.38, "internal_energy": -0.99, "cluster_size": 40, "cluster_id": 1, "rank_in_cluster": 8}

>  <energy>  (32) 
-10.06

>  <cluster_rmsd>  (32) 
0.51

>  <cluster>  (32) 
1

$$$$

     RDKit          3D

 65 70  0  0  0  0  0  0  0  0999 V2000
  141.8790   78.4450  221.7440 N   0  0  0  0  0  0  0  0  0  0  0  0
  140.6630   78.2000  220.9970 C   0  0  1  0  0  0  0  0  0  0  0  0
  140.9480   77.4120  219.7200 C   0  0  0  0  0  0  0  0  0  0  0  0
  141.4320   76.0250  220.0160 C   0  0  0  0  0  0  0  0  0  0  0  0
  140.9070   75.5740  221.3550 C   0  0  2  0  0  0  0  0  0  0  0  0
  141.0640   74.1300  221.6010 C   0  0  0  0  0  0  0  0  0  0  0  0
  141.9670   73.4560  220.8680 N   0  0  0  0  0  0  0  0  0  0  0  0
  142.1480   72.1560  221.0490 C   0  0  0  0  0  0  0  0  0  0  0  0
  143.1180   71.4270  220.2650 N   0  0  0  0  0  0  0  0  0  0  0  0
  144.4330   72.0080  220.1010 C   0  0  0  0  0  0  0  0  0  0  0  0
  145.1900   71.3740  218.9510 C   0  0  0  0  0  0  0  0  0  0  0  0
  145.1460   69.8720  219.0730 C   0  0  0  0  0  0  0  0  0  0  0  0
  146.2500   69.1060  218.8400 C   0  0  0  0  0  0  0  0  0  0  0  0
  146.1690   67.7530  218.9620 C   0  0  0  0  0  0  0  0  0  0  0  0
  144.9890   67.1660  219.3170 C   0  0  0  0  0  0  0  0  0  0  0  0
  143.8780   67.9540  219.5500 C   0  0  0  0  0  0  0  0  0  0  0  0
  143.9240   69.3460  219.4340 C   0  0  0  0  0  0  0  0  0  0  0  0
  142.7180   70.1600  219.6880 C   0  0  0  0  0  0  0  0  0  0  0  0
  141.4080   71.5270  221.9820 N   0  0  0  0  0  0  0  0  0  0  0  0
  140.4930   72.1470  222.7420 C   0  0  0  0  0  0  0  0  0  0  0  0
  139.7530   71.4110  223.7050 N   0  0  0  0  0  0  0  0  0  0  0  0
  138.7020   70.5350  223.2230 C   0  0  0  0  0  0  0  0  0  0  0  0
  139.2070   69.1220  223.4280 C   0  0  0  0  0  0  0  0  0  0  0  0
  139.5990   69.0010  224.8570 C   0  0  0  0  0  0  0  0  0  0  0  0
  139.5960   67.7350  225.4000 C   0  0  0  0  0  0  0  0  0  0  0  0
  139.9440   67.5210  226.7110 C   0  0  0  0  0  0  0  0  0  0  0  0
  140.3080   68.5870  227.5210 C   0  0  0  0  0  0  0  0  0  0  0  0
  140.3080   69.8520  226.9730 C   0  0  0  0  0  0  0  0  0  0  0  0
  139.9560   70.0770  225.6400 C   0  0  0  0  0  0  0  0  0  0  0  0
  139.9800   71.4810  225.1140 C   0  0  0  0  0  0  0  0  0  0  0  0
  140.3310   73.4700  222.5360 N   0  0  0  0  0  0  0  0  0  0  0  0
  139.4940   76.0720  221.4970 C   0  0  0  0  0  0  0  0  0  0  0  0
  139.5900   77.5680  221.8240 C   0  0  0  0  0  0  0  0  0  0  0  0
  142.6680   78.7250  221.1160 H   0  0  0  0  0  0  0  0  0  0  0  0
  142.1980   77.6090  222.2740 H   0  0  0  0  0  0  0  0  0  0  0  0
  140.2688   79.1829  220.6993 H   0  0  0  0  0  0  0  0  0  0  0  0
  141.7183   77.9413  219.1399 H   0  0  0  0  0  0  0  0  0  0  0  0
  140.0094   77.3318  219.1521 H   0  0  0  0  0  0  0  0  0  0  0  0
  142.5318   76.0185  220.0343 H   0  0  0  0  0  0  0  0  0  0  0  0
  141.0694   75.3403  219.2352 H   0  0  0  0  0  0  0  0  0  0  0  0
  141.5218   76.0186  222.1514 H   0  0  0  0  0  0  0  0  0  0  0  0
  144.3243   73.0849  219.9049 H   0  0  0  0  0  0  0  0  0  0  0  0
  145.0029   71.8295  221.0248 H   0  0  0  0  0  0  0  0  0  0  0  0
  144.7279   71.6762  217.9996 H   0  0  0  0  0  0  0  0  0  0  0  0
  146.2374   71.7088  218.9789 H   0  0  0  0  0  0  0  0  0  0  0  0
  147.2011   69.5794  218.5549 H   0  0  0  0  0  0  0  0  0  0  0  0
  147.0566   67.1310  218.7741 H   0  0  0  0  0  0  0  0  0  0  0  0
  144.9228   66.0726  219.4170 H   0  0  0  0  0  0  0  0  0  0  0  0
  142.9310   67.4722  219.8347 H   0  0  0  0  0  0  0  0  0  0  0  0
  142.1864   70.3371  218.7414 H   0  0  0  0  0  0  0  0  0  0  0  0
  142.0505   69.6291  220.3827 H   0  0  0  0  0  0  0  0  0  0  0  0
  137.7771   70.6969  223.7961 H   0  0  0  0  0  0  0  0  0  0  0  0
  138.4697   70.7296  222.1656 H   0  0  0  0  0  0  0  0  0  0  0  0
  138.4120   68.3992  223.1923 H   0  0  0  0  0  0  0  0  0  0  0  0
  140.0619   68.9121  222.7683 H   0  0  0  0  0  0  0  0  0  0  0  0
  139.3093   66.8791  224.7713 H   0  0  0  0  0  0  0  0  0  0  0  0
  139.9341   66.5002  227.1207 H   0  0  0  0  0  0  0  0  0  0  0  0
  140.5891   68.4271  228.5724 H   0  0  0  0  0  0  0  0  0  0  0  0
  140.5930   70.7077  227.6027 H   0  0  0  0  0  0  0  0  0  0  0  0
  139.1889   72.0762  225.5936 H   0  0  0  0  0  0  0  0  0  0  0  0
  140.9460   71.9610  225.3294 H   0  0  0  0  0  0  0  0  0  0  0  0
  138.9826   75.5372  222.3109 H   0  0  0  0  0  0  0  0  0  0  0  0
  138.9180   75.9025  220.5753 H   0  0  0  0  0  0  0  0  0  0  0  0
  139.8291   77.6940  222.8903 H   0  0  0  0  0  0  0  0  0  0  0  0
  138.6274   78.0509  221.6000 H   0  0  0  0  0  0  0  0  0  0  0  0
  1  2  1  0
  2  3  1  0
  3  4  1  0
  4  5  1  0
  5  6  1  0
  6  7  2  0
  7  8  1  0
  8  9  1  0
  9 10  1  0
 10 11  1  0
 11 12  1  0
 12 13  2  0
 13 14  1  0
 14 15  2  0
 15 16  1  0
 16 17  2  0
 17 18  1  0
  8 19  2  0
 19 20  1  0
 20 21  1  0
 21 22  1  0
 22 23  1  0
 23 24  1  0
 24 25  2  0
 25 26  1  0
 26 27  2  0
 27 28  1  0
 28 29  2  0
 29 30  1  0
 20 31  2  0
  5 32  1  0
 32 33  1  0
 33  2  1  0
 31  6  1  0
 18  9  1  0
 30 21  1  0
 17 12  1  0
 29 24  1  0
  1 34  1  0
  1 35  1  0
  2 36  1  6
  3 37  1  0
  3 38  1  0
  4 39  1  0
  4 40  1  0
  5 41  1  1
 10 42  1  0
 10 43  1  0
 11 44  1  0
 11 45  1  0
 13 46  1  0
 14 47  1  0
 15 48  1  0
 16 49  1  0
 18 50  1  0
 18 51  1  0
 22 52  1  0
 22 53  1  0
 23 54  1  0
 23 55  1  0
 25 56  1  0
 26 57  1  0
 27 58  1  0
 28 59  1  0
 30 60  1  0
 30 61  1  0
 32 62  1  0
 32 63  1  0
 33 64  1  0
 33 65  1  0
M  END
>  <smiles>  (33) 
N[C@H]1CC[C@H](c2nc(N3CCc4ccccc4C3)nc(N3CCc4ccccc4C3)n2)CC1

>  <score_type>  (33) 
oracle

>  <origin>  (33) 
autodockgpu

>  <m_score__min__energy>  (33) 
-10.24

>  <m_primary>  (33) 
energy

>  <rmsd>  (33) 
10.874409517418727

>  <m_score__min__rmsd>  (33) 
10.874409517418727

>  <meeko>  (33) 
{"free_energy": -9.91, "intermolecular_energy": -11.11, "internal_energy": -1.02, "cluster_size": 10, "cluster_id": 2, "rank_in_cluster": 3}

>  <energy>  (33) 
-10.05

>  <cluster_rmsd>  (33) 
0.71

>  <cluster>  (33) 
1

$$$$

     RDKit          3D

 65 70  0  0  0  0  0  0  0  0999 V2000
  146.2830   73.3720  218.7670 N   0  0  0  0  0  0  0  0  0  0  0  0
  145.5240   72.2090  218.3530 C   0  0  1  0  0  0  0  0  0  0  0  0
  145.2270   71.2920  219.5380 C   0  0  0  0  0  0  0  0  0  0  0  0
  144.3130   71.9410  220.5320 C   0  0  0  0  0  0  0  0  0  0  0  0
  143.4500   72.9670  219.8420 C   0  0  2  0  0  0  0  0  0  0  0  0
  142.3170   73.4370  220.6550 C   0  0  0  0  0  0  0  0  0  0  0  0
  141.7450   72.5710  221.5090 N   0  0  0  0  0  0  0  0  0  0  0  0
  140.7220   72.9420  222.2650 C   0  0  0  0  0  0  0  0  0  0  0  0
  140.1050   72.0140  223.1840 N   0  0  0  0  0  0  0  0  0  0  0  0
  138.9340   71.2920  222.7350 C   0  0  0  0  0  0  0  0  0  0  0  0
  138.1640   70.6910  223.8940 C   0  0  0  0  0  0  0  0  0  0  0  0
  139.1020   69.9270  224.7940 C   0  0  0  0  0  0  0  0  0  0  0  0
  138.7630   68.7110  225.3090 C   0  0  0  0  0  0  0  0  0  0  0  0
  139.6390   68.0530  226.1160 C   0  0  0  0  0  0  0  0  0  0  0  0
  140.8520   68.6070  226.4070 C   0  0  0  0  0  0  0  0  0  0  0  0
  141.1830   69.8400  225.8780 C   0  0  0  0  0  0  0  0  0  0  0  0
  140.3090   70.5440  225.0460 C   0  0  0  0  0  0  0  0  0  0  0  0
  140.6920   71.8620  224.4980 C   0  0  0  0  0  0  0  0  0  0  0  0
  140.2680   74.2050  222.1570 N   0  0  0  0  0  0  0  0  0  0  0  0
  140.7970   75.1120  221.3230 C   0  0  0  0  0  0  0  0  0  0  0  0
  140.2600   76.4260  221.2690 N   0  0  0  0  0  0  0  0  0  0  0  0
  138.8210   76.5720  221.3790 C   0  0  0  0  0  0  0  0  0  0  0  0
  138.5640   77.1800  222.7410 C   0  0  0  0  0  0  0  0  0  0  0  0
  139.3870   78.4150  222.8310 C   0  0  0  0  0  0  0  0  0  0  0  0
  138.9610   79.3860  223.7110 C   0  0  0  0  0  0  0  0  0  0  0  0
  139.6550   80.5610  223.8650 C   0  0  0  0  0  0  0  0  0  0  0  0
  140.8080   80.7950  223.1310 C   0  0  0  0  0  0  0  0  0  0  0  0
  141.2300   79.8200  222.2510 C   0  0  0  0  0  0  0  0  0  0  0  0
  140.5290   78.6210  222.0890 C   0  0  0  0  0  0  0  0  0  0  0  0
  141.0480   77.6080  221.1140 C   0  0  0  0  0  0  0  0  0  0  0  0
  141.8380   74.7060  220.5670 N   0  0  0  0  0  0  0  0  0  0  0  0
  143.0580   72.4200  218.4960 C   0  0  0  0  0  0  0  0  0  0  0  0
  144.2880   72.5650  217.5900 C   0  0  0  0  0  0  0  0  0  0  0  0
  145.6790   74.0710  219.2590 H   0  0  0  0  0  0  0  0  0  0  0  0
  146.7250   73.8660  217.9660 H   0  0  0  0  0  0  0  0  0  0  0  0
  146.1576   71.6479  217.6504 H   0  0  0  0  0  0  0  0  0  0  0  0
  146.1737   71.0390  220.0378 H   0  0  0  0  0  0  0  0  0  0  0  0
  144.7276   70.3902  219.1541 H   0  0  0  0  0  0  0  0  0  0  0  0
  144.9127   72.4336  221.3115 H   0  0  0  0  0  0  0  0  0  0  0  0
  143.6696   71.1737  220.9872 H   0  0  0  0  0  0  0  0  0  0  0  0
  144.0325   73.8884  219.6949 H   0  0  0  0  0  0  0  0  0  0  0  0
  138.2753   71.9851  222.1912 H   0  0  0  0  0  0  0  0  0  0  0  0
  139.2678   70.4706  222.0839 H   0  0  0  0  0  0  0  0  0  0  0  0
  137.6828   71.4962  224.4685 H   0  0  0  0  0  0  0  0  0  0  0  0
  137.3991   70.0042  223.5025 H   0  0  0  0  0  0  0  0  0  0  0  0
  137.7860   68.2640  225.0733 H   0  0  0  0  0  0  0  0  0  0  0  0
  139.3690   67.0723  226.5348 H   0  0  0  0  0  0  0  0  0  0  0  0
  141.5614   68.0755  227.0583 H   0  0  0  0  0  0  0  0  0  0  0  0
  142.1622   70.2795  226.1188 H   0  0  0  0  0  0  0  0  0  0  0  0
  140.3233   72.6585  225.1611 H   0  0  0  0  0  0  0  0  0  0  0  0
  141.7875   71.9307  224.4261 H   0  0  0  0  0  0  0  0  0  0  0  0
  138.4429   77.2354  220.5872 H   0  0  0  0  0  0  0  0  0  0  0  0
  138.3091   75.6048  221.2675 H   0  0  0  0  0  0  0  0  0  0  0  0
  137.4978   77.4285  222.8482 H   0  0  0  0  0  0  0  0  0  0  0  0
  138.8293   76.4736  223.5414 H   0  0  0  0  0  0  0  0  0  0  0  0
  138.0482   79.2169  224.3010 H   0  0  0  0  0  0  0  0  0  0  0  0
  139.2944   81.3205  224.5743 H   0  0  0  0  0  0  0  0  0  0  0  0
  141.3710   81.7328  223.2473 H   0  0  0  0  0  0  0  0  0  0  0  0
  142.1425   79.9904  221.6609 H   0  0  0  0  0  0  0  0  0  0  0  0
  140.9538   77.9912  220.0872 H   0  0  0  0  0  0  0  0  0  0  0  0
  142.1106   77.3950  221.3025 H   0  0  0  0  0  0  0  0  0  0  0  0
  142.2137   72.9926  218.0846 H   0  0  0  0  0  0  0  0  0  0  0  0
  142.7417   71.3691  218.5711 H   0  0  0  0  0  0  0  0  0  0  0  0
  144.3624   73.6048  217.2389 H   0  0  0  0  0  0  0  0  0  0  0  0
  144.1859   71.8892  216.7281 H   0  0  0  0  0  0  0  0  0  0  0  0
  1  2  1  0
  2  3  1  0
  3  4  1  0
  4  5  1  0
  5  6  1  0
  6  7  2  0
  7  8  1  0
  8  9  1  0
  9 10  1  0
 10 11  1  0
 11 12  1  0
 12 13  2  0
 13 14  1  0
 14 15  2  0
 15 16  1  0
 16 17  2  0
 17 18  1  0
  8 19  2  0
 19 20  1  0
 20 21  1  0
 21 22  1  0
 22 23  1  0
 23 24  1  0
 24 25  2  0
 25 26  1  0
 26 27  2  0
 27 28  1  0
 28 29  2  0
 29 30  1  0
 20 31  2  0
  5 32  1  0
 32 33  1  0
 33  2  1  0
 31  6  1  0
 18  9  1  0
 30 21  1  0
 17 12  1  0
 29 24  1  0
  1 34  1  0
  1 35  1  0
  2 36  1  6
  3 37  1  0
  3 38  1  0
  4 39  1  0
  4 40  1  0
  5 41  1  6
 10 42  1  0
 10 43  1  0
 11 44  1  0
 11 45  1  0
 13 46  1  0
 14 47  1  0
 15 48  1  0
 16 49  1  0
 18 50  1  0
 18 51  1  0
 22 52  1  0
 22 53  1  0
 23 54  1  0
 23 55  1  0
 25 56  1  0
 26 57  1  0
 27 58  1  0
 28 59  1  0
 30 60  1  0
 30 61  1  0
 32 62  1  0
 32 63  1  0
 33 64  1  0
 33 65  1  0
M  END
>  <smiles>  (34) 
N[C@H]1CC[C@H](c2nc(N3CCc4ccccc4C3)nc(N3CCc4ccccc4C3)n2)CC1

>  <score_type>  (34) 
oracle

>  <origin>  (34) 
autodockgpu

>  <m_score__min__energy>  (34) 
-10.24

>  <m_primary>  (34) 
energy

>  <rmsd>  (34) 
10.614409315594534

>  <m_score__min__rmsd>  (34) 
10.614409315594534

>  <meeko>  (34) 
{"free_energy": -10.14, "intermolecular_energy": -11.33, "internal_energy": -0.99, "cluster_size": 40, "cluster_id": 1, "rank_in_cluster": 16}

>  <energy>  (34) 
-10.01

>  <cluster_rmsd>  (34) 
0.69

>  <cluster>  (34) 
1

$$$$

     RDKit          3D

 65 70  0  0  0  0  0  0  0  0999 V2000
  145.6800   72.9560  218.1780 N   0  0  0  0  0  0  0  0  0  0  0  0
  145.8830   71.9780  219.2260 C   0  0  1  0  0  0  0  0  0  0  0  0
  146.1180   72.6530  220.5760 C   0  0  0  0  0  0  0  0  0  0  0  0
  144.9030   73.3900  221.0510 C   0  0  0  0  0  0  0  0  0  0  0  0
  143.6620   72.7640  220.4660 C   0  0  2  0  0  0  0  0  0  0  0  0
  142.4120   73.2100  221.1040 C   0  0  0  0  0  0  0  0  0  0  0  0
  141.7640   72.3460  221.9030 N   0  0  0  0  0  0  0  0  0  0  0  0
  140.6350   72.6960  222.5020 C   0  0  0  0  0  0  0  0  0  0  0  0
  139.9350   71.7710  223.3630 N   0  0  0  0  0  0  0  0  0  0  0  0
  138.8500   71.0020  222.7920 C   0  0  0  0  0  0  0  0  0  0  0  0
  137.9590   70.4040  223.8620 C   0  0  0  0  0  0  0  0  0  0  0  0
  138.8000   69.6920  224.8920 C   0  0  0  0  0  0  0  0  0  0  0  0
  138.4340   68.4780  225.3930 C   0  0  0  0  0  0  0  0  0  0  0  0
  139.2210   67.8660  226.3210 C   0  0  0  0  0  0  0  0  0  0  0  0
  140.3720   68.4650  226.7440 C   0  0  0  0  0  0  0  0  0  0  0  0
  140.7310   69.6950  226.2280 C   0  0  0  0  0  0  0  0  0  0  0  0
  139.9470   70.3520  225.2750 C   0  0  0  0  0  0  0  0  0  0  0  0
  140.3580   71.6680  224.7440 C   0  0  0  0  0  0  0  0  0  0  0  0
  140.1530   73.9360  222.2910 N   0  0  0  0  0  0  0  0  0  0  0  0
  140.7550   74.8400  221.5050 C   0  0  0  0  0  0  0  0  0  0  0  0
  140.1810   76.1280  221.3330 N   0  0  0  0  0  0  0  0  0  0  0  0
  138.7380   76.2400  221.4220 C   0  0  0  0  0  0  0  0  0  0  0  0
  138.4520   76.9570  222.7250 C   0  0  0  0  0  0  0  0  0  0  0  0
  139.2390   78.2170  222.7120 C   0  0  0  0  0  0  0  0  0  0  0  0
  138.7790   79.2490  223.5020 C   0  0  0  0  0  0  0  0  0  0  0  0
  139.4380   80.4520  223.5580 C   0  0  0  0  0  0  0  0  0  0  0  0
  140.5900   80.6550  222.8120 C   0  0  0  0  0  0  0  0  0  0  0  0
  141.0460   79.6200  222.0230 C   0  0  0  0  0  0  0  0  0  0  0  0
  140.3810   78.3920  221.9610 C   0  0  0  0  0  0  0  0  0  0  0  0
  140.9370   77.3140  221.0810 C   0  0  0  0  0  0  0  0  0  0  0  0
  141.9030   74.4550  220.9090 N   0  0  0  0  0  0  0  0  0  0  0  0
  143.8510   71.2710  220.4570 C   0  0  0  0  0  0  0  0  0  0  0  0
  144.7920   70.9570  219.2870 C   0  0  0  0  0  0  0  0  0  0  0  0
  146.1430   73.8680  218.4070 H   0  0  0  0  0  0  0  0  0  0  0  0
  144.6750   73.1620  218.0130 H   0  0  0  0  0  0  0  0  0  0  0  0
  146.7974   71.4228  218.9697 H   0  0  0  0  0  0  0  0  0  0  0  0
  146.9502   73.3655  220.4773 H   0  0  0  0  0  0  0  0  0  0  0  0
  146.3516   71.8701  221.3126 H   0  0  0  0  0  0  0  0  0  0  0  0
  144.9662   74.4410  220.7326 H   0  0  0  0  0  0  0  0  0  0  0  0
  144.8529   73.3365  222.1485 H   0  0  0  0  0  0  0  0  0  0  0  0
  143.5354   73.1122  219.4303 H   0  0  0  0  0  0  0  0  0  0  0  0
  138.2447   71.6611  222.1523 H   0  0  0  0  0  0  0  0  0  0  0  0
  139.2858   70.1766  222.2099 H   0  0  0  0  0  0  0  0  0  0  0  0
  137.3865   71.2064  224.3502 H   0  0  0  0  0  0  0  0  0  0  0  0
  137.2689   69.6841  223.3977 H   0  0  0  0  0  0  0  0  0  0  0  0
  137.5074   67.9950  225.0493 H   0  0  0  0  0  0  0  0  0  0  0  0
  138.9285   66.8877  226.7301 H   0  0  0  0  0  0  0  0  0  0  0  0
  141.0102   67.9711  227.4916 H   0  0  0  0  0  0  0  0  0  0  0  0
  141.6595   70.1708  226.5766 H   0  0  0  0  0  0  0  0  0  0  0  0
  139.8872   72.4676  225.3347 H   0  0  0  0  0  0  0  0  0  0  0  0
  141.4515   71.7695  224.8068 H   0  0  0  0  0  0  0  0  0  0  0  0
  138.3470   76.8202  220.5732 H   0  0  0  0  0  0  0  0  0  0  0  0
  138.2557   75.2518  221.3928 H   0  0  0  0  0  0  0  0  0  0  0  0
  137.3784   77.1835  222.8033 H   0  0  0  0  0  0  0  0  0  0  0  0
  138.7296   76.3308  223.5857 H   0  0  0  0  0  0  0  0  0  0  0  0
  137.8663   79.1057  224.0990 H   0  0  0  0  0  0  0  0  0  0  0  0
  139.0508   81.2589  224.1975 H   0  0  0  0  0  0  0  0  0  0  0  0
  141.1251   81.6154  222.8489 H   0  0  0  0  0  0  0  0  0  0  0  0
  141.9584   79.7648  221.4258 H   0  0  0  0  0  0  0  0  0  0  0  0
  140.8413   77.6040  220.0242 H   0  0  0  0  0  0  0  0  0  0  0  0
  142.0035   77.1487  221.2939 H   0  0  0  0  0  0  0  0  0  0  0  0
  142.8842   70.7666  220.3127 H   0  0  0  0  0  0  0  0  0  0  0  0
  144.2709   70.9179  221.4104 H   0  0  0  0  0  0  0  0  0  0  0  0
  144.2228   70.9742  218.3459 H   0  0  0  0  0  0  0  0  0  0  0  0
  145.2348   69.9609  219.4344 H   0  0  0  0  0  0  0  0  0  0  0  0
  1  2  1  0
  2  3  1  0
  3  4  1  0
  4  5  1  0
  5  6  1  0
  6  7  2  0
  7  8  1  0
  8  9  1  0
  9 10  1  0
 10 11  1  0
 11 12  1  0
 12 13  2  0
 13 14  1  0
 14 15  2  0
 15 16  1  0
 16 17  2  0
 17 18  1  0
  8 19  2  0
 19 20  1  0
 20 21  1  0
 21 22  1  0
 22 23  1  0
 23 24  1  0
 24 25  2  0
 25 26  1  0
 26 27  2  0
 27 28  1  0
 28 29  2  0
 29 30  1  0
 20 31  2  0
  5 32  1  0
 32 33  1  0
 33  2  1  0
 31  6  1  0
 18  9  1  0
 30 21  1  0
 17 12  1  0
 29 24  1  0
  1 34  1  0
  1 35  1  0
  2 36  1  6
  3 37  1  0
  3 38  1  0
  4 39  1  0
  4 40  1  0
  5 41  1  6
 10 42  1  0
 10 43  1  0
 11 44  1  0
 11 45  1  0
 13 46  1  0
 14 47  1  0
 15 48  1  0
 16 49  1  0
 18 50  1  0
 18 51  1  0
 22 52  1  0
 22 53  1  0
 23 54  1  0
 23 55  1  0
 25 56  1  0
 26 57  1  0
 27 58  1  0
 28 59  1  0
 30 60  1  0
 30 61  1  0
 32 62  1  0
 32 63  1  0
 33 64  1  0
 33 65  1  0
M  END
>  <smiles>  (35) 
N[C@H]1CC[C@H](c2nc(N3CCc4ccccc4C3)nc(N3CCc4ccccc4C3)n2)CC1

>  <score_type>  (35) 
oracle

>  <origin>  (35) 
autodockgpu

>  <m_score__min__energy>  (35) 
-10.24

>  <m_primary>  (35) 
energy

>  <rmsd>  (35) 
10.881335019515683

>  <m_score__min__rmsd>  (35) 
10.881335019515683

>  <meeko>  (35) 
{"free_energy": -10.13, "intermolecular_energy": -11.32, "internal_energy": -1.0, "cluster_size": 40, "cluster_id": 1, "rank_in_cluster": 17}

>  <energy>  (35) 
-10.0

>  <cluster_rmsd>  (35) 
0.73

>  <cluster>  (35) 
1

$$$$

     RDKit          3D

 65 70  0  0  0  0  0  0  0  0999 V2000
  145.4400   73.0840  217.7830 N   0  0  0  0  0  0  0  0  0  0  0  0
  145.5720   71.9740  218.7040 C   0  0  1  0  0  0  0  0  0  0  0  0
  145.9150   72.4610  220.1110 C   0  0  0  0  0  0  0  0  0  0  0  0
  144.7960   73.2530  220.7150 C   0  0  0  0  0  0  0  0  0  0  0  0
  143.4810   72.8260  220.1150 C   0  0  2  0  0  0  0  0  0  0  0  0
  142.3030   73.3150  220.8500 C   0  0  0  0  0  0  0  0  0  0  0  0
  141.6670   72.4620  221.6710 N   0  0  0  0  0  0  0  0  0  0  0  0
  140.6010   72.8500  222.3560 C   0  0  0  0  0  0  0  0  0  0  0  0
  139.9150   71.9370  223.2400 N   0  0  0  0  0  0  0  0  0  0  0  0
  138.7590   71.2350  222.7260 C   0  0  0  0  0  0  0  0  0  0  0  0
  137.9120   70.6520  223.8390 C   0  0  0  0  0  0  0  0  0  0  0  0
  138.7830   69.8740  224.7940 C   0  0  0  0  0  0  0  0  0  0  0  0
  138.3920   68.6660  225.2910 C   0  0  0  0  0  0  0  0  0  0  0  0
  139.2080   67.9950  226.1490 C   0  0  0  0  0  0  0  0  0  0  0  0
  140.4120   68.5270  226.5080 C   0  0  0  0  0  0  0  0  0  0  0  0
  140.7960   69.7520  225.9970 C   0  0  0  0  0  0  0  0  0  0  0  0
  139.9840   70.4700  225.1150 C   0  0  0  0  0  0  0  0  0  0  0  0
  140.4230   71.7790  224.5870 C   0  0  0  0  0  0  0  0  0  0  0  0
  140.1710   74.1180  222.2110 N   0  0  0  0  0  0  0  0  0  0  0  0
  140.7640   75.0130  221.4070 C   0  0  0  0  0  0  0  0  0  0  0  0
  140.2470   76.3320  221.3080 N   0  0  0  0  0  0  0  0  0  0  0  0
  138.8080   76.5000  221.3820 C   0  0  0  0  0  0  0  0  0  0  0  0
  138.5290   77.1450  222.7230 C   0  0  0  0  0  0  0  0  0  0  0  0
  139.3670   78.3700  222.8020 C   0  0  0  0  0  0  0  0  0  0  0  0
  138.9360   79.3680  223.6480 C   0  0  0  0  0  0  0  0  0  0  0  0
  139.6430   80.5370  223.7900 C   0  0  0  0  0  0  0  0  0  0  0  0
  140.8160   80.7360  223.0770 C   0  0  0  0  0  0  0  0  0  0  0  0
  141.2430   79.7350  222.2310 C   0  0  0  0  0  0  0  0  0  0  0  0
  140.5290   78.5420  222.0810 C   0  0  0  0  0  0  0  0  0  0  0  0
  141.0550   77.4990  221.1430 C   0  0  0  0  0  0  0  0  0  0  0  0
  141.8460   74.5890  220.7230 N   0  0  0  0  0  0  0  0  0  0  0  0
  143.5150   71.3320  219.9290 C   0  0  0  0  0  0  0  0  0  0  0  0
  144.3840   71.0660  218.6930 C   0  0  0  0  0  0  0  0  0  0  0  0
  145.5470   74.0040  218.2700 H   0  0  0  0  0  0  0  0  0  0  0  0
  144.5150   73.1000  217.3080 H   0  0  0  0  0  0  0  0  0  0  0  0
  146.4160   71.3640  218.3496 H   0  0  0  0  0  0  0  0  0  0  0  0
  146.8123   73.0952  220.0592 H   0  0  0  0  0  0  0  0  0  0  0  0
  146.0897   71.5789  220.7445 H   0  0  0  0  0  0  0  0  0  0  0  0
  144.9574   74.3226  220.5154 H   0  0  0  0  0  0  0  0  0  0  0  0
  144.7726   73.0758  221.8004 H   0  0  0  0  0  0  0  0  0  0  0  0
  143.3605   73.3044  219.1319 H   0  0  0  0  0  0  0  0  0  0  0  0
  138.1458   71.9382  222.1433 H   0  0  0  0  0  0  0  0  0  0  0  0
  139.1151   70.4052  222.0977 H   0  0  0  0  0  0  0  0  0  0  0  0
  137.4128   71.4676  224.3827 H   0  0  0  0  0  0  0  0  0  0  0  0
  137.1585   69.9780  223.4054 H   0  0  0  0  0  0  0  0  0  0  0  0
  137.4222   68.2361  225.0000 H   0  0  0  0  0  0  0  0  0  0  0  0
  138.8960   67.0211  226.5542 H   0  0  0  0  0  0  0  0  0  0  0  0
  141.0728   67.9841  227.1998 H   0  0  0  0  0  0  0  0  0  0  0  0
  141.7679   70.1738  226.2927 H   0  0  0  0  0  0  0  0  0  0  0  0
  140.0319   72.5846  225.2258 H   0  0  0  0  0  0  0  0  0  0  0  0
  141.5219   71.8273  224.5784 H   0  0  0  0  0  0  0  0  0  0  0  0
  138.4569   77.1487  220.5660 H   0  0  0  0  0  0  0  0  0  0  0  0
  138.2854   75.5372  221.2827 H   0  0  0  0  0  0  0  0  0  0  0  0
  137.4643   77.4107  222.7996 H   0  0  0  0  0  0  0  0  0  0  0  0
  138.7661   76.4549  223.5461 H   0  0  0  0  0  0  0  0  0  0  0  0
  138.0078   79.2260  224.2209 H   0  0  0  0  0  0  0  0  0  0  0  0
  139.2774   81.3187  224.4721 H   0  0  0  0  0  0  0  0  0  0  0  0
  141.3903   81.6680  223.1838 H   0  0  0  0  0  0  0  0  0  0  0  0
  142.1710   79.8786  221.6581 H   0  0  0  0  0  0  0  0  0  0  0  0
  140.9895   77.8585  220.1055 H   0  0  0  0  0  0  0  0  0  0  0  0
  142.1099   77.2760  221.3609 H   0  0  0  0  0  0  0  0  0  0  0  0
  142.4976   70.9459  219.7683 H   0  0  0  0  0  0  0  0  0  0  0  0
  143.9241   70.8299  220.8181 H   0  0  0  0  0  0  0  0  0  0  0  0
  143.7923   71.2499  217.7841 H   0  0  0  0  0  0  0  0  0  0  0  0
  144.7258   70.0206  218.7076 H   0  0  0  0  0  0  0  0  0  0  0  0
  1  2  1  0
  2  3  1  0
  3  4  1  0
  4  5  1  0
  5  6  1  0
  6  7  2  0
  7  8  1  0
  8  9  1  0
  9 10  1  0
 10 11  1  0
 11 12  1  0
 12 13  2  0
 13 14  1  0
 14 15  2  0
 15 16  1  0
 16 17  2  0
 17 18  1  0
  8 19  2  0
 19 20  1  0
 20 21  1  0
 21 22  1  0
 22 23  1  0
 23 24  1  0
 24 25  2  0
 25 26  1  0
 26 27  2  0
 27 28  1  0
 28 29  2  0
 29 30  1  0
 20 31  2  0
  5 32  1  0
 32 33  1  0
 33  2  1  0
 31  6  1  0
 18  9  1  0
 30 21  1  0
 17 12  1  0
 29 24  1  0
  1 34  1  0
  1 35  1  0
  2 36  1  6
  3 37  1  0
  3 38  1  0
  4 39  1  0
  4 40  1  0
  5 41  1  6
 10 42  1  0
 10 43  1  0
 11 44  1  0
 11 45  1  0
 13 46  1  0
 14 47  1  0
 15 48  1  0
 16 49  1  0
 18 50  1  0
 18 51  1  0
 22 52  1  0
 22 53  1  0
 23 54  1  0
 23 55  1  0
 25 56  1  0
 26 57  1  0
 27 58  1  0
 28 59  1  0
 30 60  1  0
 30 61  1  0
 32 62  1  0
 32 63  1  0
 33 64  1  0
 33 65  1  0
M  END
>  <smiles>  (36) 
N[C@H]1CC[C@H](c2nc(N3CCc4ccccc4C3)nc(N3CCc4ccccc4C3)n2)CC1

>  <score_type>  (36) 
oracle

>  <origin>  (36) 
autodockgpu

>  <m_score__min__energy>  (36) 
-10.24

>  <m_primary>  (36) 
energy

>  <rmsd>  (36) 
10.712832749829104

>  <m_score__min__rmsd>  (36) 
10.712832749829104

>  <meeko>  (36) 
{"free_energy": -10.11, "intermolecular_energy": -11.3, "internal_energy": -1.0, "cluster_size": 40, "cluster_id": 1, "rank_in_cluster": 23}

>  <energy>  (36) 
-10.0

>  <cluster_rmsd>  (36) 
0.36

>  <cluster>  (36) 
1

$$$$

     RDKit          3D

 65 70  0  0  0  0  0  0  0  0999 V2000
  145.6570   73.3770  217.9950 N   0  0  0  0  0  0  0  0  0  0  0  0
  145.5750   72.0880  218.6510 C   0  0  1  0  0  0  0  0  0  0  0  0
  145.8460   72.2100  220.1490 C   0  0  0  0  0  0  0  0  0  0  0  0
  144.7790   72.9980  220.8470 C   0  0  0  0  0  0  0  0  0  0  0  0
  143.4820   72.8910  220.0860 C   0  0  2  0  0  0  0  0  0  0  0  0
  142.3080   73.3650  220.8390 C   0  0  0  0  0  0  0  0  0  0  0  0
  141.6930   72.5020  221.6650 N   0  0  0  0  0  0  0  0  0  0  0  0
  140.6330   72.8770  222.3670 C   0  0  0  0  0  0  0  0  0  0  0  0
  139.9680   71.9530  223.2560 N   0  0  0  0  0  0  0  0  0  0  0  0
  138.8590   71.1860  222.7320 C   0  0  0  0  0  0  0  0  0  0  0  0
  138.0130   70.5890  223.8390 C   0  0  0  0  0  0  0  0  0  0  0  0
  138.8950   69.8760  224.8320 C   0  0  0  0  0  0  0  0  0  0  0  0
  138.5490   68.6630  225.3490 C   0  0  0  0  0  0  0  0  0  0  0  0
  139.3730   68.0510  226.2430 C   0  0  0  0  0  0  0  0  0  0  0  0
  140.5410   68.6490  226.6180 C   0  0  0  0  0  0  0  0  0  0  0  0
  140.8810   69.8770  226.0860 C   0  0  0  0  0  0  0  0  0  0  0  0
  140.0580   70.5350  225.1670 C   0  0  0  0  0  0  0  0  0  0  0  0
  140.4480   71.8510  224.6180 C   0  0  0  0  0  0  0  0  0  0  0  0
  140.1870   74.1410  222.2320 N   0  0  0  0  0  0  0  0  0  0  0  0
  140.7600   75.0440  221.4240 C   0  0  0  0  0  0  0  0  0  0  0  0
  140.2280   76.3590  221.3380 N   0  0  0  0  0  0  0  0  0  0  0  0
  138.7880   76.5100  221.4160 C   0  0  0  0  0  0  0  0  0  0  0  0
  138.5050   77.1420  222.7630 C   0  0  0  0  0  0  0  0  0  0  0  0
  139.3310   78.3740  222.8500 C   0  0  0  0  0  0  0  0  0  0  0  0
  138.8910   79.3610  223.7060 C   0  0  0  0  0  0  0  0  0  0  0  0
  139.5850   80.5360  223.8560 C   0  0  0  0  0  0  0  0  0  0  0  0
  140.7540   80.7550  223.1410 C   0  0  0  0  0  0  0  0  0  0  0  0
  141.1900   79.7650  222.2850 C   0  0  0  0  0  0  0  0  0  0  0  0
  140.4880   78.5660  222.1280 C   0  0  0  0  0  0  0  0  0  0  0  0
  141.0230   77.5350  221.1800 C   0  0  0  0  0  0  0  0  0  0  0  0
  141.8370   74.6340  220.7230 N   0  0  0  0  0  0  0  0  0  0  0  0
  143.3550   71.4810  219.5720 C   0  0  0  0  0  0  0  0  0  0  0  0
  144.2940   71.3720  218.3640 C   0  0  0  0  0  0  0  0  0  0  0  0
  146.6060   73.8070  218.1070 H   0  0  0  0  0  0  0  0  0  0  0  0
  144.9700   74.0610  218.3710 H   0  0  0  0  0  0  0  0  0  0  0  0
  146.3703   71.4610  218.2217 H   0  0  0  0  0  0  0  0  0  0  0  0
  146.8132   72.7130  220.2957 H   0  0  0  0  0  0  0  0  0  0  0  0
  145.8572   71.1969  220.5773 H   0  0  0  0  0  0  0  0  0  0  0  0
  145.0830   74.0537  220.9032 H   0  0  0  0  0  0  0  0  0  0  0  0
  144.6379   72.5974  221.8617 H   0  0  0  0  0  0  0  0  0  0  0  0
  143.5086   73.5808  219.2296 H   0  0  0  0  0  0  0  0  0  0  0  0
  138.2281   71.8461  222.1186 H   0  0  0  0  0  0  0  0  0  0  0  0
  139.2685   70.3600  222.1320 H   0  0  0  0  0  0  0  0  0  0  0  0
  137.4628   71.3922  224.3510 H   0  0  0  0  0  0  0  0  0  0  0  0
  137.3030   69.8701  223.4042 H   0  0  0  0  0  0  0  0  0  0  0  0
  137.6081   68.1810  225.0451 H   0  0  0  0  0  0  0  0  0  0  0  0
  139.0970   67.0729  226.6639 H   0  0  0  0  0  0  0  0  0  0  0  0
  141.2080   68.1554  227.3402 H   0  0  0  0  0  0  0  0  0  0  0  0
  141.8250   70.3505  226.3936 H   0  0  0  0  0  0  0  0  0  0  0  0
  140.0029   72.6516  225.2271 H   0  0  0  0  0  0  0  0  0  0  0  0
  141.5432   71.9517  224.6352 H   0  0  0  0  0  0  0  0  0  0  0  0
  138.4278   77.1608  220.6056 H   0  0  0  0  0  0  0  0  0  0  0  0
  138.2758   75.5423  221.3103 H   0  0  0  0  0  0  0  0  0  0  0  0
  137.4379   77.3967  222.8435 H   0  0  0  0  0  0  0  0  0  0  0  0
  138.7502   76.4478  223.5803 H   0  0  0  0  0  0  0  0  0  0  0  0
  137.9659   79.2040  224.2800 H   0  0  0  0  0  0  0  0  0  0  0  0
  139.2127   81.3074  224.5461 H   0  0  0  0  0  0  0  0  0  0  0  0
  141.3178   81.6928  223.2538 H   0  0  0  0  0  0  0  0  0  0  0  0
  142.1147   79.9231  221.7106 H   0  0  0  0  0  0  0  0  0  0  0  0
  140.9511   77.9017  220.1454 H   0  0  0  0  0  0  0  0  0  0  0  0
  142.0807   77.3214  221.3935 H   0  0  0  0  0  0  0  0  0  0  0  0
  142.3176   71.2798  219.2664 H   0  0  0  0  0  0  0  0  0  0  0  0
  143.6196   70.7488  220.3491 H   0  0  0  0  0  0  0  0  0  0  0  0
  143.8119   71.8245  217.4849 H   0  0  0  0  0  0  0  0  0  0  0  0
  144.5078   70.3115  218.1651 H   0  0  0  0  0  0  0  0  0  0  0  0
  1  2  1  0
  2  3  1  0
  3  4  1  0
  4  5  1  0
  5  6  1  0
  6  7  2  0
  7  8  1  0
  8  9  1  0
  9 10  1  0
 10 11  1  0
 11 12  1  0
 12 13  2  0
 13 14  1  0
 14 15  2  0
 15 16  1  0
 16 17  2  0
 17 18  1  0
  8 19  2  0
 19 20  1  0
 20 21  1  0
 21 22  1  0
 22 23  1  0
 23 24  1  0
 24 25  2  0
 25 26  1  0
 26 27  2  0
 27 28  1  0
 28 29  2  0
 29 30  1  0
 20 31  2  0
  5 32  1  0
 32 33  1  0
 33  2  1  0
 31  6  1  0
 18  9  1  0
 30 21  1  0
 17 12  1  0
 29 24  1  0
  1 34  1  0
  1 35  1  0
  2 36  1  6
  3 37  1  0
  3 38  1  0
  4 39  1  0
  4 40  1  0
  5 41  1  6
 10 42  1  0
 10 43  1  0
 11 44  1  0
 11 45  1  0
 13 46  1  0
 14 47  1  0
 15 48  1  0
 16 49  1  0
 18 50  1  0
 18 51  1  0
 22 52  1  0
 22 53  1  0
 23 54  1  0
 23 55  1  0
 25 56  1  0
 26 57  1  0
 27 58  1  0
 28 59  1  0
 30 60  1  0
 30 61  1  0
 32 62  1  0
 32 63  1  0
 33 64  1  0
 33 65  1  0
M  END
>  <smiles>  (37) 
N[C@H]1CC[C@H](c2nc(N3CCc4ccccc4C3)nc(N3CCc4ccccc4C3)n2)CC1

>  <score_type>  (37) 
oracle

>  <origin>  (37) 
autodockgpu

>  <m_score__min__energy>  (37) 
-10.24

>  <m_primary>  (37) 
energy

>  <rmsd>  (37) 
10.687357696622131

>  <m_score__min__rmsd>  (37) 
10.687357696622131

>  <meeko>  (37) 
{"free_energy": -10.18, "intermolecular_energy": -11.38, "internal_energy": -0.99, "cluster_size": 40, "cluster_id": 1, "rank_in_cluster": 9}

>  <energy>  (37) 
-9.9

>  <cluster_rmsd>  (37) 
1.1

>  <cluster>  (37) 
1

$$$$

     RDKit          3D

 65 70  0  0  0  0  0  0  0  0999 V2000
  146.2680   73.0810  218.8300 N   0  0  0  0  0  0  0  0  0  0  0  0
  145.4270   72.0180  218.3190 C   0  0  1  0  0  0  0  0  0  0  0  0
  145.0340   71.0430  219.4280 C   0  0  0  0  0  0  0  0  0  0  0  0
  144.1540   71.6890  220.4540 C   0  0  0  0  0  0  0  0  0  0  0  0
  143.3910   72.8300  219.8300 C   0  0  2  0  0  0  0  0  0  0  0  0
  142.2810   73.3300  220.6600 C   0  0  0  0  0  0  0  0  0  0  0  0
  141.7160   72.4850  221.5390 N   0  0  0  0  0  0  0  0  0  0  0  0
  140.7140   72.8830  222.3100 C   0  0  0  0  0  0  0  0  0  0  0  0
  140.1030   71.9790  223.2570 N   0  0  0  0  0  0  0  0  0  0  0  0
  138.9240   71.2520  222.8360 C   0  0  0  0  0  0  0  0  0  0  0  0
  138.1650   70.6810  224.0170 C   0  0  0  0  0  0  0  0  0  0  0  0
  139.1100   69.9330  224.9230 C   0  0  0  0  0  0  0  0  0  0  0  0
  138.7710   68.7300  225.4690 C   0  0  0  0  0  0  0  0  0  0  0  0
  139.6530   68.0870  226.2820 C   0  0  0  0  0  0  0  0  0  0  0  0
  140.8710   68.6420  226.5470 C   0  0  0  0  0  0  0  0  0  0  0  0
  141.2020   69.8610  225.9870 C   0  0  0  0  0  0  0  0  0  0  0  0
  140.3210   70.5500  225.1490 C   0  0  0  0  0  0  0  0  0  0  0  0
  140.7040   71.8540  224.5680 C   0  0  0  0  0  0  0  0  0  0  0  0
  140.2770   74.1510  222.1920 N   0  0  0  0  0  0  0  0  0  0  0  0
  140.8020   75.0380  221.3340 C   0  0  0  0  0  0  0  0  0  0  0  0
  140.2830   76.3590  221.2700 N   0  0  0  0  0  0  0  0  0  0  0  0
  138.8460   76.5240  221.3710 C   0  0  0  0  0  0  0  0  0  0  0  0
  138.5890   77.1430  222.7300 C   0  0  0  0  0  0  0  0  0  0  0  0
  139.4280   78.3660  222.8190 C   0  0  0  0  0  0  0  0  0  0  0  0
  139.0110   79.3470  223.6910 C   0  0  0  0  0  0  0  0  0  0  0  0
  139.7210   80.5130  223.8440 C   0  0  0  0  0  0  0  0  0  0  0  0
  140.8810   80.7280  223.1150 C   0  0  0  0  0  0  0  0  0  0  0  0
  141.2940   79.7430  222.2420 C   0  0  0  0  0  0  0  0  0  0  0  0
  140.5780   78.5530  222.0820 C   0  0  0  0  0  0  0  0  0  0  0  0
  141.0880   77.5280  221.1140 C   0  0  0  0  0  0  0  0  0  0  0  0
  141.8200   74.6040  220.5630 N   0  0  0  0  0  0  0  0  0  0  0  0
  142.9830   72.4170  218.4410 C   0  0  0  0  0  0  0  0  0  0  0  0
  144.2390   72.5280  217.5670 C   0  0  0  0  0  0  0  0  0  0  0  0
  146.0590   73.2900  219.8340 H   0  0  0  0  0  0  0  0  0  0  0  0
  146.1480   73.9710  218.3060 H   0  0  0  0  0  0  0  0  0  0  0  0
  146.0276   71.4610  217.5848 H   0  0  0  0  0  0  0  0  0  0  0  0
  145.9472   70.6787  219.9213 H   0  0  0  0  0  0  0  0  0  0  0  0
  144.4730   70.2147  218.9706 H   0  0  0  0  0  0  0  0  0  0  0  0
  144.7745   72.0722  221.2775 H   0  0  0  0  0  0  0  0  0  0  0  0
  143.4417   70.9452  220.8404 H   0  0  0  0  0  0  0  0  0  0  0  0
  144.0493   73.7085  219.7608 H   0  0  0  0  0  0  0  0  0  0  0  0
  138.2622   71.9355  222.2839 H   0  0  0  0  0  0  0  0  0  0  0  0
  139.2468   70.4151  222.1993 H   0  0  0  0  0  0  0  0  0  0  0  0
  137.6942   71.5012  224.5787 H   0  0  0  0  0  0  0  0  0  0  0  0
  137.3924   69.9893  223.6500 H   0  0  0  0  0  0  0  0  0  0  0  0
  137.7899   68.2818  225.2534 H   0  0  0  0  0  0  0  0  0  0  0  0
  139.3833   67.1176  226.7265 H   0  0  0  0  0  0  0  0  0  0  0  0
  141.5851   68.1221  227.2025 H   0  0  0  0  0  0  0  0  0  0  0  0
  142.1858   70.3012  226.2068 H   0  0  0  0  0  0  0  0  0  0  0  0
  140.3460   72.6667  225.2171 H   0  0  0  0  0  0  0  0  0  0  0  0
  141.7989   71.9165  224.4830 H   0  0  0  0  0  0  0  0  0  0  0  0
  138.4809   77.1881  220.5737 H   0  0  0  0  0  0  0  0  0  0  0  0
  138.3223   75.5629  221.2615 H   0  0  0  0  0  0  0  0  0  0  0  0
  137.5258   77.4068  222.8294 H   0  0  0  0  0  0  0  0  0  0  0  0
  138.8396   76.4369  223.5354 H   0  0  0  0  0  0  0  0  0  0  0  0
  138.0921   79.1940  224.2760 H   0  0  0  0  0  0  0  0  0  0  0  0
  139.3675   81.2803  224.5485 H   0  0  0  0  0  0  0  0  0  0  0  0
  141.4561   81.6586  223.2298 H   0  0  0  0  0  0  0  0  0  0  0  0
  142.2118   79.8981  221.6558 H   0  0  0  0  0  0  0  0  0  0  0  0
  141.0048   77.9078  220.0850 H   0  0  0  0  0  0  0  0  0  0  0  0
  142.1465   77.3008  221.3091 H   0  0  0  0  0  0  0  0  0  0  0  0
  142.1958   73.0852  218.0617 H   0  0  0  0  0  0  0  0  0  0  0  0
  142.5815   71.3929  218.4323 H   0  0  0  0  0  0  0  0  0  0  0  0
  144.4032   73.5814  217.2959 H   0  0  0  0  0  0  0  0  0  0  0  0
  144.1012   71.9276  216.6557 H   0  0  0  0  0  0  0  0  0  0  0  0
  1  2  1  0
  2  3  1  0
  3  4  1  0
  4  5  1  0
  5  6  1  0
  6  7  2  0
  7  8  1  0
  8  9  1  0
  9 10  1  0
 10 11  1  0
 11 12  1  0
 12 13  2  0
 13 14  1  0
 14 15  2  0
 15 16  1  0
 16 17  2  0
 17 18  1  0
  8 19  2  0
 19 20  1  0
 20 21  1  0
 21 22  1  0
 22 23  1  0
 23 24  1  0
 24 25  2  0
 25 26  1  0
 26 27  2  0
 27 28  1  0
 28 29  2  0
 29 30  1  0
 20 31  2  0
  5 32  1  0
 32 33  1  0
 33  2  1  0
 31  6  1  0
 18  9  1  0
 30 21  1  0
 17 12  1  0
 29 24  1  0
  1 34  1  0
  1 35  1  0
  2 36  1  6
  3 37  1  0
  3 38  1  0
  4 39  1  0
  4 40  1  0
  5 41  1  6
 10 42  1  0
 10 43  1  0
 11 44  1  0
 11 45  1  0
 13 46  1  0
 14 47  1  0
 15 48  1  0
 16 49  1  0
 18 50  1  0
 18 51  1  0
 22 52  1  0
 22 53  1  0
 23 54  1  0
 23 55  1  0
 25 56  1  0
 26 57  1  0
 27 58  1  0
 28 59  1  0
 30 60  1  0
 30 61  1  0
 32 62  1  0
 32 63  1  0
 33 64  1  0
 33 65  1  0
M  END
>  <smiles>  (38) 
N[C@H]1CC[C@H](c2nc(N3CCc4ccccc4C3)nc(N3CCc4ccccc4C3)n2)CC1

>  <score_type>  (38) 
oracle

>  <origin>  (38) 
autodockgpu

>  <m_score__min__energy>  (38) 
-10.24

>  <m_primary>  (38) 
energy

>  <rmsd>  (38) 
10.670265182713777

>  <m_score__min__rmsd>  (38) 
10.670265182713777

>  <meeko>  (38) 
{"free_energy": -10.01, "intermolecular_energy": -11.2, "internal_energy": -0.99, "cluster_size": 40, "cluster_id": 1, "rank_in_cluster": 34}

>  <energy>  (38) 
-9.88

>  <cluster_rmsd>  (38) 
0.53

>  <cluster>  (38) 
1

$$$$

     RDKit          3D

 65 70  0  0  0  0  0  0  0  0999 V2000
  145.6480   73.0230  217.8610 N   0  0  0  0  0  0  0  0  0  0  0  0
  145.5740   71.7740  218.5900 C   0  0  1  0  0  0  0  0  0  0  0  0
  145.8970   71.9770  220.0690 C   0  0  0  0  0  0  0  0  0  0  0  0
  144.8640   72.8170  220.7560 C   0  0  0  0  0  0  0  0  0  0  0  0
  143.5400   72.6840  220.0470 C   0  0  2  0  0  0  0  0  0  0  0  0
  142.3980   73.2160  220.8100 C   0  0  0  0  0  0  0  0  0  0  0  0
  141.7570   72.3880  221.6520 N   0  0  0  0  0  0  0  0  0  0  0  0
  140.7240   72.8150  222.3640 C   0  0  0  0  0  0  0  0  0  0  0  0
  140.0320   71.9290  223.2710 N   0  0  0  0  0  0  0  0  0  0  0  0
  138.8480   71.2520  222.7860 C   0  0  0  0  0  0  0  0  0  0  0  0
  138.0080   70.7030  223.9220 C   0  0  0  0  0  0  0  0  0  0  0  0
  138.8770   69.9120  224.8670 C   0  0  0  0  0  0  0  0  0  0  0  0
  138.4640   68.7200  225.3850 C   0  0  0  0  0  0  0  0  0  0  0  0
  139.2790   68.0360  226.2340 C   0  0  0  0  0  0  0  0  0  0  0  0
  140.5030   68.5410  226.5650 C   0  0  0  0  0  0  0  0  0  0  0  0
  140.9090   69.7490  226.0330 C   0  0  0  0  0  0  0  0  0  0  0  0
  140.0990   70.4790  225.1590 C   0  0  0  0  0  0  0  0  0  0  0  0
  140.5610   71.7710  224.6090 C   0  0  0  0  0  0  0  0  0  0  0  0
  140.3320   74.0950  222.2230 N   0  0  0  0  0  0  0  0  0  0  0  0
  140.9320   74.9660  221.3990 C   0  0  0  0  0  0  0  0  0  0  0  0
  140.4570   76.3020  221.3070 N   0  0  0  0  0  0  0  0  0  0  0  0
  139.0250   76.5150  221.3900 C   0  0  0  0  0  0  0  0  0  0  0  0
  138.7740   77.1650  222.7340 C   0  0  0  0  0  0  0  0  0  0  0  0
  139.6520   78.3620  222.8120 C   0  0  0  0  0  0  0  0  0  0  0  0
  139.2570   79.3710  223.6640 C   0  0  0  0  0  0  0  0  0  0  0  0
  140.0020   80.5160  223.8050 C   0  0  0  0  0  0  0  0  0  0  0  0
  141.1760   80.6810  223.0850 C   0  0  0  0  0  0  0  0  0  0  0  0
  141.5660   79.6680  222.2340 C   0  0  0  0  0  0  0  0  0  0  0  0
  140.8140   78.5000  222.0850 C   0  0  0  0  0  0  0  0  0  0  0  0
  141.3010   77.4420  221.1410 C   0  0  0  0  0  0  0  0  0  0  0  0
  141.9810   74.5030  220.6890 N   0  0  0  0  0  0  0  0  0  0  0  0
  143.3800   71.2500  219.6180 C   0  0  0  0  0  0  0  0  0  0  0  0
  144.2760   71.0610  218.3870 C   0  0  0  0  0  0  0  0  0  0  0  0
  146.1630   72.9110  216.9560 H   0  0  0  0  0  0  0  0  0  0  0  0
  146.1370   73.7700  218.3950 H   0  0  0  0  0  0  0  0  0  0  0  0
  146.3465   71.1129  218.1703 H   0  0  0  0  0  0  0  0  0  0  0  0
  146.8743   72.4745  220.1546 H   0  0  0  0  0  0  0  0  0  0  0  0
  145.9110   70.9896  220.5536 H   0  0  0  0  0  0  0  0  0  0  0  0
  145.1815   73.8701  220.7412 H   0  0  0  0  0  0  0  0  0  0  0  0
  144.7536   72.4765  221.7961 H   0  0  0  0  0  0  0  0  0  0  0  0
  143.5445   73.3241  219.1524 H   0  0  0  0  0  0  0  0  0  0  0  0
  138.2421   71.9649  222.2075 H   0  0  0  0  0  0  0  0  0  0  0  0
  139.1699   70.4070  222.1596 H   0  0  0  0  0  0  0  0  0  0  0  0
  137.5417   71.5370  224.4669 H   0  0  0  0  0  0  0  0  0  0  0  0
  137.2281   70.0453  223.5107 H   0  0  0  0  0  0  0  0  0  0  0  0
  137.4774   68.3134  225.1181 H   0  0  0  0  0  0  0  0  0  0  0  0
  138.9504   67.0740  226.6543 H   0  0  0  0  0  0  0  0  0  0  0  0
  141.1621   67.9892  227.2514 H   0  0  0  0  0  0  0  0  0  0  0  0
  141.8975   70.1477  226.3048 H   0  0  0  0  0  0  0  0  0  0  0  0
  140.2029   72.5926  225.2467 H   0  0  0  0  0  0  0  0  0  0  0  0
  141.6604   71.7906  224.5790 H   0  0  0  0  0  0  0  0  0  0  0  0
  138.6898   77.1765  220.5775 H   0  0  0  0  0  0  0  0  0  0  0  0
  138.4718   75.5693  221.2916 H   0  0  0  0  0  0  0  0  0  0  0  0
  137.7189   77.4650  222.8168 H   0  0  0  0  0  0  0  0  0  0  0  0
  138.9927   76.4652  223.5540 H   0  0  0  0  0  0  0  0  0  0  0  0
  138.3279   79.2570  224.2417 H   0  0  0  0  0  0  0  0  0  0  0  0
  139.6660   81.3063  224.4924 H   0  0  0  0  0  0  0  0  0  0  0  0
  141.7795   81.5947  223.1898 H   0  0  0  0  0  0  0  0  0  0  0  0
  142.4951   79.7830  221.6565 H   0  0  0  0  0  0  0  0  0  0  0  0
  141.2418   77.8062  220.1048 H   0  0  0  0  0  0  0  0  0  0  0  0
  142.3491   77.1841  221.3530 H   0  0  0  0  0  0  0  0  0  0  0  0
  142.3306   71.0456  219.3592 H   0  0  0  0  0  0  0  0  0  0  0  0
  143.6631   70.5592  220.4259 H   0  0  0  0  0  0  0  0  0  0  0  0
  143.7694   71.4704  217.5005 H   0  0  0  0  0  0  0  0  0  0  0  0
  144.4704   69.9882  218.2410 H   0  0  0  0  0  0  0  0  0  0  0  0
  1  2  1  0
  2  3  1  0
  3  4  1  0
  4  5  1  0
  5  6  1  0
  6  7  2  0
  7  8  1  0
  8  9  1  0
  9 10  1  0
 10 11  1  0
 11 12  1  0
 12 13  2  0
 13 14  1  0
 14 15  2  0
 15 16  1  0
 16 17  2  0
 17 18  1  0
  8 19  2  0
 19 20  1  0
 20 21  1  0
 21 22  1  0
 22 23  1  0
 23 24  1  0
 24 25  2  0
 25 26  1  0
 26 27  2  0
 27 28  1  0
 28 29  2  0
 29 30  1  0
 20 31  2  0
  5 32  1  0
 32 33  1  0
 33  2  1  0
 31  6  1  0
 18  9  1  0
 30 21  1  0
 17 12  1  0
 29 24  1  0
  1 34  1  0
  1 35  1  0
  2 36  1  6
  3 37  1  0
  3 38  1  0
  4 39  1  0
  4 40  1  0
  5 41  1  6
 10 42  1  0
 10 43  1  0
 11 44  1  0
 11 45  1  0
 13 46  1  0
 14 47  1  0
 15 48  1  0
 16 49  1  0
 18 50  1  0
 18 51  1  0
 22 52  1  0
 22 53  1  0
 23 54  1  0
 23 55  1  0
 25 56  1  0
 26 57  1  0
 27 58  1  0
 28 59  1  0
 30 60  1  0
 30 61  1  0
 32 62  1  0
 32 63  1  0
 33 64  1  0
 33 65  1  0
M  END
>  <smiles>  (39) 
N[C@H]1CC[C@H](c2nc(N3CCc4ccccc4C3)nc(N3CCc4ccccc4C3)n2)CC1

>  <score_type>  (39) 
oracle

>  <origin>  (39) 
autodockgpu

>  <m_score__min__energy>  (39) 
-10.24

>  <m_primary>  (39) 
energy

>  <rmsd>  (39) 
10.721235762168627

>  <m_score__min__rmsd>  (39) 
10.721235762168627

>  <meeko>  (39) 
{"free_energy": -10.07, "intermolecular_energy": -11.26, "internal_energy": -0.99, "cluster_size": 40, "cluster_id": 1, "rank_in_cluster": 30}

>  <energy>  (39) 
-9.86

>  <cluster_rmsd>  (39) 
0.96

>  <cluster>  (39) 
1

$$$$

     RDKit          3D

 65 70  0  0  0  0  0  0  0  0999 V2000
  141.7280   78.0440  222.2730 N   0  0  0  0  0  0  0  0  0  0  0  0
  140.9160   77.9020  221.0820 C   0  0  1  0  0  0  0  0  0  0  0  0
  141.7200   77.3000  219.9320 C   0  0  0  0  0  0  0  0  0  0  0  0
  142.1290   75.8870  220.2160 C   0  0  0  0  0  0  0  0  0  0  0  0
  141.1500   75.2520  221.1720 C   0  0  2  0  0  0  0  0  0  0  0  0
  141.2810   73.7890  221.2750 C   0  0  0  0  0  0  0  0  0  0  0  0
  140.7260   73.1740  222.3330 N   0  0  0  0  0  0  0  0  0  0  0  0
  140.8140   71.8590  222.4740 C   0  0  0  0  0  0  0  0  0  0  0  0
  140.2180   71.1940  223.6090 N   0  0  0  0  0  0  0  0  0  0  0  0
  139.4460   69.9950  223.3640 C   0  0  0  0  0  0  0  0  0  0  0  0
  138.5580   69.6460  224.5410 C   0  0  0  0  0  0  0  0  0  0  0  0
  139.3640   69.6600  225.8160 C   0  0  0  0  0  0  0  0  0  0  0  0
  139.2130   68.6930  226.7640 C   0  0  0  0  0  0  0  0  0  0  0  0
  139.9600   68.7410  227.9010 C   0  0  0  0  0  0  0  0  0  0  0  0
  140.8580   69.7520  228.0880 C   0  0  0  0  0  0  0  0  0  0  0  0
  141.0020   70.7250  227.1190 C   0  0  0  0  0  0  0  0  0  0  0  0
  140.2500   70.7080  225.9400 C   0  0  0  0  0  0  0  0  0  0  0  0
  140.4260   71.7660  224.9230 C   0  0  0  0  0  0  0  0  0  0  0  0
  141.4730   71.1550  221.5340 N   0  0  0  0  0  0  0  0  0  0  0  0
  142.0470   71.7130  220.4590 C   0  0  0  0  0  0  0  0  0  0  0  0
  142.7250   70.8990  219.5120 N   0  0  0  0  0  0  0  0  0  0  0  0
  143.8320   71.4900  218.7850 C   0  0  0  0  0  0  0  0  0  0  0  0
  145.0860   70.8400  219.3290 C   0  0  0  0  0  0  0  0  0  0  0  0
  144.9000   69.3690  219.2190 C   0  0  0  0  0  0  0  0  0  0  0  0
  146.0410   68.5980  219.1590 C   0  0  0  0  0  0  0  0  0  0  0  0
  145.9720   67.2300  219.0580 C   0  0  0  0  0  0  0  0  0  0  0  0
  144.7400   66.5930  219.0130 C   0  0  0  0  0  0  0  0  0  0  0  0
  143.6020   67.3690  219.0720 C   0  0  0  0  0  0  0  0  0  0  0  0
  143.6640   68.7620  219.1760 C   0  0  0  0  0  0  0  0  0  0  0  0
  142.3840   69.5390  219.2360 C   0  0  0  0  0  0  0  0  0  0  0  0
  141.9400   73.0520  220.3420 N   0  0  0  0  0  0  0  0  0  0  0  0
  139.7680   75.7220  220.8080 C   0  0  0  0  0  0  0  0  0  0  0  0
  139.6430   77.1580  221.3330 C   0  0  0  0  0  0  0  0  0  0  0  0
  142.6970   78.3680  222.0420 H   0  0  0  0  0  0  0  0  0  0  0  0
  141.8270   77.1520  222.7980 H   0  0  0  0  0  0  0  0  0  0  0  0
  140.6145   78.9157  220.7794 H   0  0  0  0  0  0  0  0  0  0  0  0
  142.6237   77.9069  219.7739 H   0  0  0  0  0  0  0  0  0  0  0  0
  141.0827   77.2968  219.0354 H   0  0  0  0  0  0  0  0  0  0  0  0
  143.1333   75.8811  220.6648 H   0  0  0  0  0  0  0  0  0  0  0  0
  142.1390   75.3166  219.2755 H   0  0  0  0  0  0  0  0  0  0  0  0
  141.3795   75.5826  222.1957 H   0  0  0  0  0  0  0  0  0  0  0  0
  138.8152   70.1530  222.4768 H   0  0  0  0  0  0  0  0  0  0  0  0
  140.1481   69.1628  223.2074 H   0  0  0  0  0  0  0  0  0  0  0  0
  137.7451   70.3834  224.6156 H   0  0  0  0  0  0  0  0  0  0  0  0
  138.1367   68.6411  224.3906 H   0  0  0  0  0  0  0  0  0  0  0  0
  138.4909   67.8774  226.6113 H   0  0  0  0  0  0  0  0  0  0  0  0
  139.8398   67.9639  228.6702 H   0  0  0  0  0  0  0  0  0  0  0  0
  141.4635   69.7913  229.0055 H   0  0  0  0  0  0  0  0  0  0  0  0
  141.7281   71.5357  227.2787 H   0  0  0  0  0  0  0  0  0  0  0  0
  139.6947   72.5694  225.0958 H   0  0  0  0  0  0  0  0  0  0  0  0
  141.4417   72.1827  224.9912 H   0  0  0  0  0  0  0  0  0  0  0  0
  143.7332   71.2874  217.7083 H   0  0  0  0  0  0  0  0  0  0  0  0
  143.8583   72.5824  218.9113 H   0  0  0  0  0  0  0  0  0  0  0  0
  145.9600   71.1547  218.7398 H   0  0  0  0  0  0  0  0  0  0  0  0
  145.2577   71.1354  220.3746 H   0  0  0  0  0  0  0  0  0  0  0  0
  147.0255   69.0876  219.1926 H   0  0  0  0  0  0  0  0  0  0  0  0
  146.8972   66.6368  219.0126 H   0  0  0  0  0  0  0  0  0  0  0  0
  144.6732   65.4980  218.9324 H   0  0  0  0  0  0  0  0  0  0  0  0
  142.6180   66.8787  219.0363 H   0  0  0  0  0  0  0  0  0  0  0  0
  141.8569   69.4711  218.2729 H   0  0  0  0  0  0  0  0  0  0  0  0
  141.7210   69.1376  220.0166 H   0  0  0  0  0  0  0  0  0  0  0  0
  139.0112   75.0779  221.2796 H   0  0  0  0  0  0  0  0  0  0  0  0
  139.6079   75.6811  219.7205 H   0  0  0  0  0  0  0  0  0  0  0  0
  139.4404   77.1353  222.4139 H   0  0  0  0  0  0  0  0  0  0  0  0
  138.8175   77.6646  220.8117 H   0  0  0  0  0  0  0  0  0  0  0  0
  1  2  1  0
  2  3  1  0
  3  4  1  0
  4  5  1  0
  5  6  1  0
  6  7  2  0
  7  8  1  0
  8  9  1  0
  9 10  1  0
 10 11  1  0
 11 12  1  0
 12 13  2  0
 13 14  1  0
 14 15  2  0
 15 16  1  0
 16 17  2  0
 17 18  1  0
  8 19  2  0
 19 20  1  0
 20 21  1  0
 21 22  1  0
 22 23  1  0
 23 24  1  0
 24 25  2  0
 25 26  1  0
 26 27  2  0
 27 28  1  0
 28 29  2  0
 29 30  1  0
 20 31  2  0
  5 32  1  0
 32 33  1  0
 33  2  1  0
 31  6  1  0
 18  9  1  0
 30 21  1  0
 17 12  1  0
 29 24  1  0
  1 34  1  0
  1 35  1  0
  2 36  1  6
  3 37  1  0
  3 38  1  0
  4 39  1  0
  4 40  1  0
  5 41  1  1
 10 42  1  0
 10 43  1  0
 11 44  1  0
 11 45  1  0
 13 46  1  0
 14 47  1  0
 15 48  1  0
 16 49  1  0
 18 50  1  0
 18 51  1  0
 22 52  1  0
 22 53  1  0
 23 54  1  0
 23 55  1  0
 25 56  1  0
 26 57  1  0
 27 58  1  0
 28 59  1  0
 30 60  1  0
 30 61  1  0
 32 62  1  0
 32 63  1  0
 33 64  1  0
 33 65  1  0
M  END
>  <smiles>  (40) 
N[C@H]1CC[C@H](c2nc(N3CCc4ccccc4C3)nc(N3CCc4ccccc4C3)n2)CC1

>  <score_type>  (40) 
oracle

>  <origin>  (40) 
autodockgpu

>  <m_score__min__energy>  (40) 
-10.24

>  <m_primary>  (40) 
energy

>  <rmsd>  (40) 
11.074494320553823

>  <m_score__min__rmsd>  (40) 
11.074494320553823

>  <meeko>  (40) 
{"free_energy": -9.64, "intermolecular_energy": -10.83, "internal_energy": -0.99, "cluster_size": 10, "cluster_id": 2, "rank_in_cluster": 10}

>  <energy>  (40) 
-9.79

>  <cluster_rmsd>  (40) 
0.63

>  <cluster>  (40) 
1

$$$$

     RDKit          3D

 65 70  0  0  0  0  0  0  0  0999 V2000
  145.7080   73.0020  218.2080 N   0  0  0  0  0  0  0  0  0  0  0  0
  145.9300   72.0020  219.2320 C   0  0  1  0  0  0  0  0  0  0  0  0
  146.1490   72.6480  220.5990 C   0  0  0  0  0  0  0  0  0  0  0  0
  144.9170   73.3470  221.0890 C   0  0  0  0  0  0  0  0  0  0  0  0
  143.6910   72.7100  220.4850 C   0  0  2  0  0  0  0  0  0  0  0  0
  142.4310   73.1130  221.1310 C   0  0  0  0  0  0  0  0  0  0  0  0
  141.8350   72.2400  221.9610 N   0  0  0  0  0  0  0  0  0  0  0  0
  140.6990   72.5520  222.5690 C   0  0  0  0  0  0  0  0  0  0  0  0
  140.0560   71.6170  223.4620 N   0  0  0  0  0  0  0  0  0  0  0  0
  139.0300   70.7540  222.9170 C   0  0  0  0  0  0  0  0  0  0  0  0
  138.1720   70.1410  224.0050 C   0  0  0  0  0  0  0  0  0  0  0  0
  139.0490   69.5290  225.0680 C   0  0  0  0  0  0  0  0  0  0  0  0
  138.7610   68.3140  225.6160 C   0  0  0  0  0  0  0  0  0  0  0  0
  139.5800   67.7960  226.5730 C   0  0  0  0  0  0  0  0  0  0  0  0
  140.6840   68.4880  226.9790 C   0  0  0  0  0  0  0  0  0  0  0  0
  140.9640   69.7170  226.4140 C   0  0  0  0  0  0  0  0  0  0  0  0
  140.1460   70.2810  225.4310 C   0  0  0  0  0  0  0  0  0  0  0  0
  140.4720   71.5990  224.8490 C   0  0  0  0  0  0  0  0  0  0  0  0
  140.1570   73.7620  222.3350 N   0  0  0  0  0  0  0  0  0  0  0  0
  140.7050   74.6730  221.5180 C   0  0  0  0  0  0  0  0  0  0  0  0
  140.0690   75.9280  221.3240 N   0  0  0  0  0  0  0  0  0  0  0  0
  138.6260   75.9810  221.4560 C   0  0  0  0  0  0  0  0  0  0  0  0
  138.3490   76.7280  222.7440 C   0  0  0  0  0  0  0  0  0  0  0  0
  139.0780   78.0200  222.6650 C   0  0  0  0  0  0  0  0  0  0  0  0
  138.5970   79.0560  223.4360 C   0  0  0  0  0  0  0  0  0  0  0  0
  139.2030   80.2890  223.4320 C   0  0  0  0  0  0  0  0  0  0  0  0
  140.3210   80.5160  222.6430 C   0  0  0  0  0  0  0  0  0  0  0  0
  140.7980   79.4770  221.8730 C   0  0  0  0  0  0  0  0  0  0  0  0
  140.1870   78.2190  221.8720 C   0  0  0  0  0  0  0  0  0  0  0  0
  140.7630   77.1370  221.0090 C   0  0  0  0  0  0  0  0  0  0  0  0
  141.8610   74.3270  220.9140 N   0  0  0  0  0  0  0  0  0  0  0  0
  143.9110   71.2210  220.4400 C   0  0  0  0  0  0  0  0  0  0  0  0
  144.8610   70.9570  219.2640 C   0  0  0  0  0  0  0  0  0  0  0  0
  146.0890   73.9350  218.4920 H   0  0  0  0  0  0  0  0  0  0  0  0
  144.7000   73.1390  217.9960 H   0  0  0  0  0  0  0  0  0  0  0  0
  146.8563   71.4724  218.9646 H   0  0  0  0  0  0  0  0  0  0  0  0
  146.9660   73.3803  220.5198 H   0  0  0  0  0  0  0  0  0  0  0  0
  146.3987   71.8526  221.3166 H   0  0  0  0  0  0  0  0  0  0  0  0
  144.9586   74.4068  220.7974 H   0  0  0  0  0  0  0  0  0  0  0  0
  144.8654   73.2646  222.1847 H   0  0  0  0  0  0  0  0  0  0  0  0
  143.5599   73.0813  219.4579 H   0  0  0  0  0  0  0  0  0  0  0  0
  138.3873   71.3443  222.2473 H   0  0  0  0  0  0  0  0  0  0  0  0
  139.5253   69.9369  222.3720 H   0  0  0  0  0  0  0  0  0  0  0  0
  137.5429   70.9222  224.4567 H   0  0  0  0  0  0  0  0  0  0  0  0
  137.5359   69.3582  223.5661 H   0  0  0  0  0  0  0  0  0  0  0  0
  137.8723   67.7555  225.2870 H   0  0  0  0  0  0  0  0  0  0  0  0
  139.3510   66.8173  227.0199 H   0  0  0  0  0  0  0  0  0  0  0  0
  141.3465   68.0698  227.7511 H   0  0  0  0  0  0  0  0  0  0  0  0
  141.8562   70.2675  226.7472 H   0  0  0  0  0  0  0  0  0  0  0  0
  139.9427   72.3881  225.4032 H   0  0  0  0  0  0  0  0  0  0  0  0
  141.5555   71.7769  224.9147 H   0  0  0  0  0  0  0  0  0  0  0  0
  138.1840   76.5154  220.6022 H   0  0  0  0  0  0  0  0  0  0  0  0
  138.1869   74.9726  221.4740 H   0  0  0  0  0  0  0  0  0  0  0  0
  137.2693   76.9098  222.8500 H   0  0  0  0  0  0  0  0  0  0  0  0
  138.6811   76.1436  223.6148 H   0  0  0  0  0  0  0  0  0  0  0  0
  137.7108   78.8926  224.0668 H   0  0  0  0  0  0  0  0  0  0  0  0
  138.8000   81.0995  224.0570 H   0  0  0  0  0  0  0  0  0  0  0  0
  140.8140   81.4993  222.6321 H   0  0  0  0  0  0  0  0  0  0  0  0
  141.6837   79.6419  221.2419 H   0  0  0  0  0  0  0  0  0  0  0  0
  140.6212   77.3868  219.9472 H   0  0  0  0  0  0  0  0  0  0  0  0
  141.8420   77.0258  221.1918 H   0  0  0  0  0  0  0  0  0  0  0  0
  142.9553   70.7002  220.2809 H   0  0  0  0  0  0  0  0  0  0  0  0
  144.3358   70.8526  221.3854 H   0  0  0  0  0  0  0  0  0  0  0  0
  144.2933   70.9864  218.3223 H   0  0  0  0  0  0  0  0  0  0  0  0
  145.3245   69.9670  219.3867 H   0  0  0  0  0  0  0  0  0  0  0  0
  1  2  1  0
  2  3  1  0
  3  4  1  0
  4  5  1  0
  5  6  1  0
  6  7  2  0
  7  8  1  0
  8  9  1  0
  9 10  1  0
 10 11  1  0
 11 12  1  0
 12 13  2  0
 13 14  1  0
 14 15  2  0
 15 16  1  0
 16 17  2  0
 17 18  1  0
  8 19  2  0
 19 20  1  0
 20 21  1  0
 21 22  1  0
 22 23  1  0
 23 24  1  0
 24 25  2  0
 25 26  1  0
 26 27  2  0
 27 28  1  0
 28 29  2  0
 29 30  1  0
 20 31  2  0
  5 32  1  0
 32 33  1  0
 33  2  1  0
 31  6  1  0
 18  9  1  0
 30 21  1  0
 17 12  1  0
 29 24  1  0
  1 34  1  0
  1 35  1  0
  2 36  1  6
  3 37  1  0
  3 38  1  0
  4 39  1  0
  4 40  1  0
  5 41  1  6
 10 42  1  0
 10 43  1  0
 11 44  1  0
 11 45  1  0
 13 46  1  0
 14 47  1  0
 15 48  1  0
 16 49  1  0
 18 50  1  0
 18 51  1  0
 22 52  1  0
 22 53  1  0
 23 54  1  0
 23 55  1  0
 25 56  1  0
 26 57  1  0
 27 58  1  0
 28 59  1  0
 30 60  1  0
 30 61  1  0
 32 62  1  0
 32 63  1  0
 33 64  1  0
 33 65  1  0
M  END
>  <smiles>  (41) 
N[C@H]1CC[C@H](c2nc(N3CCc4ccccc4C3)nc(N3CCc4ccccc4C3)n2)CC1

>  <score_type>  (41) 
oracle

>  <origin>  (41) 
autodockgpu

>  <m_score__min__energy>  (41) 
-10.24

>  <m_primary>  (41) 
energy

>  <rmsd>  (41) 
11.019895440996152

>  <m_score__min__rmsd>  (41) 
11.019895440996152

>  <meeko>  (41) 
{"free_energy": -10.13, "intermolecular_energy": -11.32, "internal_energy": -0.99, "cluster_size": 40, "cluster_id": 1, "rank_in_cluster": 19}

>  <energy>  (41) 
-9.94

>  <cluster_rmsd>  (41) 
0.0

>  <cluster>  (41) 
2

$$$$

     RDKit          3D

 65 70  0  0  0  0  0  0  0  0999 V2000
  145.7220   72.9450  218.1860 N   0  0  0  0  0  0  0  0  0  0  0  0
  145.9280   71.9730  219.2400 C   0  0  1  0  0  0  0  0  0  0  0  0
  146.1580   72.6560  220.5860 C   0  0  0  0  0  0  0  0  0  0  0  0
  144.9400   73.3910  221.0550 C   0  0  0  0  0  0  0  0  0  0  0  0
  143.7020   72.7580  220.4720 C   0  0  2  0  0  0  0  0  0  0  0  0
  142.4500   73.2020  221.1060 C   0  0  0  0  0  0  0  0  0  0  0  0
  141.8010   72.3380  221.9050 N   0  0  0  0  0  0  0  0  0  0  0  0
  140.6690   72.6870  222.5000 C   0  0  0  0  0  0  0  0  0  0  0  0
  139.9690   71.7620  223.3610 N   0  0  0  0  0  0  0  0  0  0  0  0
  138.8690   71.0100  222.7960 C   0  0  0  0  0  0  0  0  0  0  0  0
  137.9840   70.4130  223.8710 C   0  0  0  0  0  0  0  0  0  0  0  0
  138.8280   69.6820  224.8850 C   0  0  0  0  0  0  0  0  0  0  0  0
  138.4550   68.4680  225.3800 C   0  0  0  0  0  0  0  0  0  0  0  0
  139.2460   67.8400  226.2930 C   0  0  0  0  0  0  0  0  0  0  0  0
  140.4080   68.4220  226.7080 C   0  0  0  0  0  0  0  0  0  0  0  0
  140.7750   69.6520  226.1980 C   0  0  0  0  0  0  0  0  0  0  0  0
  139.9880   70.3260  225.2610 C   0  0  0  0  0  0  0  0  0  0  0  0
  140.4070   71.6430  224.7360 C   0  0  0  0  0  0  0  0  0  0  0  0
  140.1850   73.9250  222.2860 N   0  0  0  0  0  0  0  0  0  0  0  0
  140.7880   74.8290  221.4990 C   0  0  0  0  0  0  0  0  0  0  0  0
  140.2110   76.1150  221.3230 N   0  0  0  0  0  0  0  0  0  0  0  0
  138.7680   76.2240  221.4030 C   0  0  0  0  0  0  0  0  0  0  0  0
  138.4720   76.9410  222.7040 C   0  0  0  0  0  0  0  0  0  0  0  0
  139.2560   78.2030  222.6950 C   0  0  0  0  0  0  0  0  0  0  0  0
  138.7880   79.2340  223.4810 C   0  0  0  0  0  0  0  0  0  0  0  0
  139.4440   80.4390  223.5410 C   0  0  0  0  0  0  0  0  0  0  0  0
  140.6000   80.6440  222.8020 C   0  0  0  0  0  0  0  0  0  0  0  0
  141.0630   79.6100  222.0160 C   0  0  0  0  0  0  0  0  0  0  0  0
  140.4020   78.3800  221.9510 C   0  0  0  0  0  0  0  0  0  0  0  0
  140.9650   77.3030  221.0750 C   0  0  0  0  0  0  0  0  0  0  0  0
  141.9380   74.4450  220.9070 N   0  0  0  0  0  0  0  0  0  0  0  0
  143.8960   71.2650  220.4710 C   0  0  0  0  0  0  0  0  0  0  0  0
  144.8400   70.9480  219.3040 C   0  0  0  0  0  0  0  0  0  0  0  0
  146.1120   73.8820  218.4440 H   0  0  0  0  0  0  0  0  0  0  0  0
  144.7170   73.0870  217.9640 H   0  0  0  0  0  0  0  0  0  0  0  0
  146.8452   71.4201  218.9890 H   0  0  0  0  0  0  0  0  0  0  0  0
  146.9878   73.3710  220.4847 H   0  0  0  0  0  0  0  0  0  0  0  0
  146.3930   71.8780  221.3272 H   0  0  0  0  0  0  0  0  0  0  0  0
  145.0001   74.4405  220.7310 H   0  0  0  0  0  0  0  0  0  0  0  0
  144.8885   73.3429  222.1527 H   0  0  0  0  0  0  0  0  0  0  0  0
  143.5758   73.1012  219.4346 H   0  0  0  0  0  0  0  0  0  0  0  0
  138.2639   71.6812  222.1689 H   0  0  0  0  0  0  0  0  0  0  0  0
  139.2887   70.1849  222.2018 H   0  0  0  0  0  0  0  0  0  0  0  0
  137.4267   71.2177  224.3728 H   0  0  0  0  0  0  0  0  0  0  0  0
  137.2804   69.7052  223.4084 H   0  0  0  0  0  0  0  0  0  0  0  0
  137.5192   67.9979  225.0434 H   0  0  0  0  0  0  0  0  0  0  0  0
  138.9475   66.8613  226.6969 H   0  0  0  0  0  0  0  0  0  0  0  0
  141.0488   67.9148  227.4443 H   0  0  0  0  0  0  0  0  0  0  0  0
  141.7132   70.1138  226.5392 H   0  0  0  0  0  0  0  0  0  0  0  0
  139.9516   72.4425  225.3389 H   0  0  0  0  0  0  0  0  0  0  0  0
  141.5022   71.7326  224.7868 H   0  0  0  0  0  0  0  0  0  0  0  0
  138.3812   76.8030  220.5515 H   0  0  0  0  0  0  0  0  0  0  0  0
  138.2881   75.2347  221.3713 H   0  0  0  0  0  0  0  0  0  0  0  0
  137.3974   77.1648  222.7755 H   0  0  0  0  0  0  0  0  0  0  0  0
  138.7458   76.3160  223.5668 H   0  0  0  0  0  0  0  0  0  0  0  0
  137.8714   79.0888  224.0716 H   0  0  0  0  0  0  0  0  0  0  0  0
  139.0511   81.2452  224.1779 H   0  0  0  0  0  0  0  0  0  0  0  0
  141.1329   81.6055  222.8420 H   0  0  0  0  0  0  0  0  0  0  0  0
  141.9781   79.7571  221.4236 H   0  0  0  0  0  0  0  0  0  0  0  0
  140.8744   77.5923  220.0176 H   0  0  0  0  0  0  0  0  0  0  0  0
  142.0306   77.1404  221.2943 H   0  0  0  0  0  0  0  0  0  0  0  0
  142.9310   70.7567  220.3278 H   0  0  0  0  0  0  0  0  0  0  0  0
  144.3156   70.9182  221.4269 H   0  0  0  0  0  0  0  0  0  0  0  0
  144.2724   70.9585  218.3618 H   0  0  0  0  0  0  0  0  0  0  0  0
  145.2857   69.9540  219.4569 H   0  0  0  0  0  0  0  0  0  0  0  0
  1  2  1  0
  2  3  1  0
  3  4  1  0
  4  5  1  0
  5  6  1  0
  6  7  2  0
  7  8  1  0
  8  9  1  0
  9 10  1  0
 10 11  1  0
 11 12  1  0
 12 13  2  0
 13 14  1  0
 14 15  2  0
 15 16  1  0
 16 17  2  0
 17 18  1  0
  8 19  2  0
 19 20  1  0
 20 21  1  0
 21 22  1  0
 22 23  1  0
 23 24  1  0
 24 25  2  0
 25 26  1  0
 26 27  2  0
 27 28  1  0
 28 29  2  0
 29 30  1  0
 20 31  2  0
  5 32  1  0
 32 33  1  0
 33  2  1  0
 31  6  1  0
 18  9  1  0
 30 21  1  0
 17 12  1  0
 29 24  1  0
  1 34  1  0
  1 35  1  0
  2 36  1  6
  3 37  1  0
  3 38  1  0
  4 39  1  0
  4 40  1  0
  5 41  1  6
 10 42  1  0
 10 43  1  0
 11 44  1  0
 11 45  1  0
 13 46  1  0
 14 47  1  0
 15 48  1  0
 16 49  1  0
 18 50  1  0
 18 51  1  0
 22 52  1  0
 22 53  1  0
 23 54  1  0
 23 55  1  0
 25 56  1  0
 26 57  1  0
 27 58  1  0
 28 59  1  0
 30 60  1  0
 30 61  1  0
 32 62  1  0
 32 63  1  0
 33 64  1  0
 33 65  1  0
M  END
>  <smiles>  (42) 
N[C@H]1CC[C@H](c2nc(N3CCc4ccccc4C3)nc(N3CCc4ccccc4C3)n2)CC1

>  <score_type>  (42) 
oracle

>  <origin>  (42) 
autodockgpu

>  <m_score__min__energy>  (42) 
-10.24

>  <m_primary>  (42) 
energy

>  <rmsd>  (42) 
10.889071853564

>  <m_score__min__rmsd>  (42) 
10.889071853564

>  <meeko>  (42) 
{"free_energy": -10.13, "intermolecular_energy": -11.32, "internal_energy": -1.0, "cluster_size": 40, "cluster_id": 1, "rank_in_cluster": 18}

>  <energy>  (42) 
-9.93

>  <cluster_rmsd>  (42) 
0.08

>  <cluster>  (42) 
2

$$$$

     RDKit          3D

 65 70  0  0  0  0  0  0  0  0999 V2000
  145.6120   73.0050  218.0310 N   0  0  0  0  0  0  0  0  0  0  0  0
  145.8940   72.1190  219.1410 C   0  0  1  0  0  0  0  0  0  0  0  0
  146.1420   72.9040  220.4270 C   0  0  0  0  0  0  0  0  0  0  0  0
  144.9110   73.6230  220.8890 C   0  0  0  0  0  0  0  0  0  0  0  0
  143.6820   72.9020  220.3980 C   0  0  2  0  0  0  0  0  0  0  0  0
  142.4340   73.3410  221.0460 C   0  0  0  0  0  0  0  0  0  0  0  0
  141.7780   72.4610  221.8220 N   0  0  0  0  0  0  0  0  0  0  0  0
  140.6510   72.8050  222.4290 C   0  0  0  0  0  0  0  0  0  0  0  0
  139.9420   71.8630  223.2640 N   0  0  0  0  0  0  0  0  0  0  0  0
  138.8560   71.1130  222.6700 C   0  0  0  0  0  0  0  0  0  0  0  0
  137.9580   70.4950  223.7220 C   0  0  0  0  0  0  0  0  0  0  0  0
  138.7900   69.7540  224.7390 C   0  0  0  0  0  0  0  0  0  0  0  0
  138.4160   68.5310  225.2100 C   0  0  0  0  0  0  0  0  0  0  0  0
  139.1960   67.8940  226.1260 C   0  0  0  0  0  0  0  0  0  0  0  0
  140.3470   68.4780  226.5690 C   0  0  0  0  0  0  0  0  0  0  0  0
  140.7150   69.7170  226.0830 C   0  0  0  0  0  0  0  0  0  0  0  0
  139.9380   70.4000  225.1430 C   0  0  0  0  0  0  0  0  0  0  0  0
  140.3580   71.7260  224.6440 C   0  0  0  0  0  0  0  0  0  0  0  0
  140.1790   74.0530  222.2490 N   0  0  0  0  0  0  0  0  0  0  0  0
  140.7890   74.9720  221.4870 C   0  0  0  0  0  0  0  0  0  0  0  0
  140.2260   76.2690  221.3480 N   0  0  0  0  0  0  0  0  0  0  0  0
  138.7820   76.3880  221.4170 C   0  0  0  0  0  0  0  0  0  0  0  0
  138.4800   77.0640  222.7380 C   0  0  0  0  0  0  0  0  0  0  0  0
  139.2740   78.3190  222.7790 C   0  0  0  0  0  0  0  0  0  0  0  0
  138.8080   79.3270  223.5940 C   0  0  0  0  0  0  0  0  0  0  0  0
  139.4730   80.5240  223.6990 C   0  0  0  0  0  0  0  0  0  0  0  0
  140.6380   80.7430  222.9790 C   0  0  0  0  0  0  0  0  0  0  0  0
  141.1000   79.7320  222.1640 C   0  0  0  0  0  0  0  0  0  0  0  0
  140.4290   78.5100  222.0520 C   0  0  0  0  0  0  0  0  0  0  0  0
  140.9920   77.4570  221.1460 C   0  0  0  0  0  0  0  0  0  0  0  0
  141.9350   74.5940  220.8830 N   0  0  0  0  0  0  0  0  0  0  0  0
  143.9370   71.4210  220.4940 C   0  0  0  0  0  0  0  0  0  0  0  0
  144.8530   71.0600  219.3170 C   0  0  0  0  0  0  0  0  0  0  0  0
  145.9530   73.9770  218.2170 H   0  0  0  0  0  0  0  0  0  0  0  0
  144.5960   73.0770  217.8250 H   0  0  0  0  0  0  0  0  0  0  0  0
  146.8239   71.5857  218.8942 H   0  0  0  0  0  0  0  0  0  0  0  0
  146.9376   73.6416  220.2456 H   0  0  0  0  0  0  0  0  0  0  0  0
  146.4343   72.1901  221.2112 H   0  0  0  0  0  0  0  0  0  0  0  0
  144.9161   74.6483  220.4905 H   0  0  0  0  0  0  0  0  0  0  0  0
  144.8993   73.6518  221.9886 H   0  0  0  0  0  0  0  0  0  0  0  0
  143.5072   73.1651  219.3443 H   0  0  0  0  0  0  0  0  0  0  0  0
  138.2568   71.7899  222.0433 H   0  0  0  0  0  0  0  0  0  0  0  0
  139.2901   70.2995  222.0701 H   0  0  0  0  0  0  0  0  0  0  0  0
  137.3878   71.2890  224.2265 H   0  0  0  0  0  0  0  0  0  0  0  0
  137.2666   69.7897  223.2378 H   0  0  0  0  0  0  0  0  0  0  0  0
  137.4883   68.0609  224.8517 H   0  0  0  0  0  0  0  0  0  0  0  0
  138.8980   66.9071  226.5096 H   0  0  0  0  0  0  0  0  0  0  0  0
  140.9782   67.9646  227.3092 H   0  0  0  0  0  0  0  0  0  0  0  0
  141.6451   70.1792  226.4455 H   0  0  0  0  0  0  0  0  0  0  0  0
  139.8885   72.5142  225.2508 H   0  0  0  0  0  0  0  0  0  0  0  0
  141.4517   71.8204  224.7139 H   0  0  0  0  0  0  0  0  0  0  0  0
  138.4087   76.9984  220.5815 H   0  0  0  0  0  0  0  0  0  0  0  0
  138.2935   75.4049  221.3473 H   0  0  0  0  0  0  0  0  0  0  0  0
  137.4066   77.2944  222.8071 H   0  0  0  0  0  0  0  0  0  0  0  0
  138.7410   76.4082  223.5817 H   0  0  0  0  0  0  0  0  0  0  0  0
  137.8853   79.1702  224.1719 H   0  0  0  0  0  0  0  0  0  0  0  0
  139.0798   81.3128  224.3572 H   0  0  0  0  0  0  0  0  0  0  0  0
  141.1787   81.6978  223.0563 H   0  0  0  0  0  0  0  0  0  0  0  0
  142.0221   79.8907  221.5856 H   0  0  0  0  0  0  0  0  0  0  0  0
  140.9141   77.7814  220.0978 H   0  0  0  0  0  0  0  0  0  0  0  0
  142.0541   77.2782  221.3696 H   0  0  0  0  0  0  0  0  0  0  0  0
  142.9896   70.8667  220.4222 H   0  0  0  0  0  0  0  0  0  0  0  0
  144.4024   71.1588  221.4556 H   0  0  0  0  0  0  0  0  0  0  0  0
  144.2531   70.9815  218.3983 H   0  0  0  0  0  0  0  0  0  0  0  0
  145.3452   70.0979  219.5220 H   0  0  0  0  0  0  0  0  0  0  0  0
  1  2  1  0
  2  3  1  0
  3  4  1  0
  4  5  1  0
  5  6  1  0
  6  7  2  0
  7  8  1  0
  8  9  1  0
  9 10  1  0
 10 11  1  0
 11 12  1  0
 12 13  2  0
 13 14  1  0
 14 15  2  0
 15 16  1  0
 16 17  2  0
 17 18  1  0
  8 19  2  0
 19 20  1  0
 20 21  1  0
 21 22  1  0
 22 23  1  0
 23 24  1  0
 24 25  2  0
 25 26  1  0
 26 27  2  0
 27 28  1  0
 28 29  2  0
 29 30  1  0
 20 31  2  0
  5 32  1  0
 32 33  1  0
 33  2  1  0
 31  6  1  0
 18  9  1  0
 30 21  1  0
 17 12  1  0
 29 24  1  0
  1 34  1  0
  1 35  1  0
  2 36  1  6
  3 37  1  0
  3 38  1  0
  4 39  1  0
  4 40  1  0
  5 41  1  6
 10 42  1  0
 10 43  1  0
 11 44  1  0
 11 45  1  0
 13 46  1  0
 14 47  1  0
 15 48  1  0
 16 49  1  0
 18 50  1  0
 18 51  1  0
 22 52  1  0
 22 53  1  0
 23 54  1  0
 23 55  1  0
 25 56  1  0
 26 57  1  0
 27 58  1  0
 28 59  1  0
 30 60  1  0
 30 61  1  0
 32 62  1  0
 32 63  1  0
 33 64  1  0
 33 65  1  0
M  END
>  <smiles>  (43) 
N[C@H]1CC[C@H](c2nc(N3CCc4ccccc4C3)nc(N3CCc4ccccc4C3)n2)CC1

>  <score_type>  (43) 
oracle

>  <origin>  (43) 
autodockgpu

>  <m_score__min__energy>  (43) 
-10.24

>  <m_primary>  (43) 
energy

>  <rmsd>  (43) 
10.768111452322993

>  <m_score__min__rmsd>  (43) 
10.768111452322993

>  <meeko>  (43) 
{"free_energy": -10.07, "intermolecular_energy": -11.27, "internal_energy": -1.0, "cluster_size": 40, "cluster_id": 1, "rank_in_cluster": 29}

>  <energy>  (43) 
-9.91

>  <cluster_rmsd>  (43) 
0.1

>  <cluster>  (43) 
2

$$$$

     RDKit          3D

 65 70  0  0  0  0  0  0  0  0999 V2000
  141.9730   78.4330  221.5100 N   0  0  0  0  0  0  0  0  0  0  0  0
  140.7790   78.1600  220.7360 C   0  0  1  0  0  0  0  0  0  0  0  0
  141.1030   77.3290  219.4960 C   0  0  0  0  0  0  0  0  0  0  0  0
  141.5800   75.9540  219.8540 C   0  0  0  0  0  0  0  0  0  0  0  0
  141.0160   75.5480  221.1920 C   0  0  2  0  0  0  0  0  0  0  0  0
  141.1670   74.1140  221.4920 C   0  0  0  0  0  0  0  0  0  0  0  0
  142.0580   73.4070  220.7760 N   0  0  0  0  0  0  0  0  0  0  0  0
  142.2340   72.1130  221.0050 C   0  0  0  0  0  0  0  0  0  0  0  0
  143.1900   71.3480  220.2390 N   0  0  0  0  0  0  0  0  0  0  0  0
  144.5210   71.8930  220.0780 C   0  0  0  0  0  0  0  0  0  0  0  0
  145.2710   71.2230  218.9440 C   0  0  0  0  0  0  0  0  0  0  0  0
  145.1870   69.7240  219.0860 C   0  0  0  0  0  0  0  0  0  0  0  0
  146.2720   68.9270  218.8730 C   0  0  0  0  0  0  0  0  0  0  0  0
  146.1540   67.5780  219.0130 C   0  0  0  0  0  0  0  0  0  0  0  0
  144.9570   67.0270  219.3660 C   0  0  0  0  0  0  0  0  0  0  0  0
  143.8650   67.8470  219.5790 C   0  0  0  0  0  0  0  0  0  0  0  0
  143.9480   69.2350  219.4440 C   0  0  0  0  0  0  0  0  0  0  0  0
  142.7620   70.0850  219.6770 C   0  0  0  0  0  0  0  0  0  0  0  0
  141.5010   71.5250  221.9700 N   0  0  0  0  0  0  0  0  0  0  0  0
  140.5980   72.1800  222.7150 C   0  0  0  0  0  0  0  0  0  0  0  0
  139.8640   71.4860  223.7140 N   0  0  0  0  0  0  0  0  0  0  0  0
  138.7170   70.7080  223.2890 C   0  0  0  0  0  0  0  0  0  0  0  0
  139.1160   69.2550  223.4400 C   0  0  0  0  0  0  0  0  0  0  0  0
  139.5890   69.0740  224.8370 C   0  0  0  0  0  0  0  0  0  0  0  0
  139.5190   67.8010  225.3600 C   0  0  0  0  0  0  0  0  0  0  0  0
  139.9330   67.5330  226.6420 C   0  0  0  0  0  0  0  0  0  0  0  0
  140.4340   68.5500  227.4420 C   0  0  0  0  0  0  0  0  0  0  0  0
  140.5020   69.8220  226.9150 C   0  0  0  0  0  0  0  0  0  0  0  0
  140.0830   70.1020  225.6110 C   0  0  0  0  0  0  0  0  0  0  0  0
  140.1870   71.5090  225.1050 C   0  0  0  0  0  0  0  0  0  0  0  0
  140.4410   73.4950  222.4590 N   0  0  0  0  0  0  0  0  0  0  0  0
  139.5990   76.0480  221.2740 C   0  0  0  0  0  0  0  0  0  0  0  0
  139.6830   77.5540  221.5530 C   0  0  0  0  0  0  0  0  0  0  0  0
  142.5780   79.1500  221.0460 H   0  0  0  0  0  0  0  0  0  0  0  0
  142.5610   77.5870  221.6500 H   0  0  0  0  0  0  0  0  0  0  0  0
  140.3921   79.1309  220.3930 H   0  0  0  0  0  0  0  0  0  0  0  0
  141.8894   77.8398  218.9210 H   0  0  0  0  0  0  0  0  0  0  0  0
  140.1818   77.2269  218.9036 H   0  0  0  0  0  0  0  0  0  0  0  0
  142.6788   75.9508  219.9051 H   0  0  0  0  0  0  0  0  0  0  0  0
  141.2416   75.2419  219.0869 H   0  0  0  0  0  0  0  0  0  0  0  0
  141.6064   76.0204  221.9909 H   0  0  0  0  0  0  0  0  0  0  0  0
  144.4416   72.9693  219.8653 H   0  0  0  0  0  0  0  0  0  0  0  0
  145.0785   71.7137  221.0092 H   0  0  0  0  0  0  0  0  0  0  0  0
  144.8252   71.5237  217.9844 H   0  0  0  0  0  0  0  0  0  0  0  0
  146.3266   71.5307  218.9772 H   0  0  0  0  0  0  0  0  0  0  0  0
  147.2375   69.3713  218.5896 H   0  0  0  0  0  0  0  0  0  0  0  0
  147.0264   66.9304  218.8410 H   0  0  0  0  0  0  0  0  0  0  0  0
  144.8615   65.9371  219.4804 H   0  0  0  0  0  0  0  0  0  0  0  0
  142.9036   67.3940  219.8628 H   0  0  0  0  0  0  0  0  0  0  0  0
  142.2427   70.2627  218.7237 H   0  0  0  0  0  0  0  0  0  0  0  0
  142.0756   69.5819  220.3740 H   0  0  0  0  0  0  0  0  0  0  0  0
  137.8469   70.9329  223.9233 H   0  0  0  0  0  0  0  0  0  0  0  0
  138.4349   70.9416  222.2518 H   0  0  0  0  0  0  0  0  0  0  0  0
  138.2503   68.6042  223.2476 H   0  0  0  0  0  0  0  0  0  0  0  0
  139.9059   68.9896  222.7220 H   0  0  0  0  0  0  0  0  0  0  0  0
  139.1239   66.9837  224.7388 H   0  0  0  0  0  0  0  0  0  0  0  0
  139.8671   66.5081  227.0360 H   0  0  0  0  0  0  0  0  0  0  0  0
  140.7683   68.3465  228.4700 H   0  0  0  0  0  0  0  0  0  0  0  0
  140.8966   70.6387  227.5373 H   0  0  0  0  0  0  0  0  0  0  0  0
  139.4800   72.1562  225.6448 H   0  0  0  0  0  0  0  0  0  0  0  0
  141.2011   71.9051  225.2624 H   0  0  0  0  0  0  0  0  0  0  0  0
  139.0635   75.5399  222.0895 H   0  0  0  0  0  0  0  0  0  0  0  0
  139.0519   75.8465  220.3412 H   0  0  0  0  0  0  0  0  0  0  0  0
  139.8909   77.7166  222.6209 H   0  0  0  0  0  0  0  0  0  0  0  0
  138.7265   78.0269  221.2855 H   0  0  0  0  0  0  0  0  0  0  0  0
  1  2  1  0
  2  3  1  0
  3  4  1  0
  4  5  1  0
  5  6  1  0
  6  7  2  0
  7  8  1  0
  8  9  1  0
  9 10  1  0
 10 11  1  0
 11 12  1  0
 12 13  2  0
 13 14  1  0
 14 15  2  0
 15 16  1  0
 16 17  2  0
 17 18  1  0
  8 19  2  0
 19 20  1  0
 20 21  1  0
 21 22  1  0
 22 23  1  0
 23 24  1  0
 24 25  2  0
 25 26  1  0
 26 27  2  0
 27 28  1  0
 28 29  2  0
 29 30  1  0
 20 31  2  0
  5 32  1  0
 32 33  1  0
 33  2  1  0
 31  6  1  0
 18  9  1  0
 30 21  1  0
 17 12  1  0
 29 24  1  0
  1 34  1  0
  1 35  1  0
  2 36  1  6
  3 37  1  0
  3 38  1  0
  4 39  1  0
  4 40  1  0
  5 41  1  1
 10 42  1  0
 10 43  1  0
 11 44  1  0
 11 45  1  0
 13 46  1  0
 14 47  1  0
 15 48  1  0
 16 49  1  0
 18 50  1  0
 18 51  1  0
 22 52  1  0
 22 53  1  0
 23 54  1  0
 23 55  1  0
 25 56  1  0
 26 57  1  0
 27 58  1  0
 28 59  1  0
 30 60  1  0
 30 61  1  0
 32 62  1  0
 32 63  1  0
 33 64  1  0
 33 65  1  0
M  END
>  <smiles>  (44) 
N[C@H]1CC[C@H](c2nc(N3CCc4ccccc4C3)nc(N3CCc4ccccc4C3)n2)CC1

>  <score_type>  (44) 
oracle

>  <origin>  (44) 
autodockgpu

>  <m_score__min__energy>  (44) 
-10.24

>  <m_primary>  (44) 
energy

>  <rmsd>  (44) 
10.988413584694914

>  <m_score__min__rmsd>  (44) 
10.988413584694914

>  <meeko>  (44) 
{"free_energy": -9.87, "intermolecular_energy": -11.07, "internal_energy": -1.02, "cluster_size": 10, "cluster_id": 2, "rank_in_cluster": 6}

>  <energy>  (44) 
-9.9

>  <cluster_rmsd>  (44) 
0.4

>  <cluster>  (44) 
2

$$$$

     RDKit          3D

 65 70  0  0  0  0  0  0  0  0999 V2000
  145.4620   72.9690  217.8560 N   0  0  0  0  0  0  0  0  0  0  0  0
  145.5840   71.8340  218.7480 C   0  0  1  0  0  0  0  0  0  0  0  0
  145.9200   72.2800  220.1690 C   0  0  0  0  0  0  0  0  0  0  0  0
  144.8020   73.0620  220.7890 C   0  0  0  0  0  0  0  0  0  0  0  0
  143.4880   72.6570  220.1690 C   0  0  2  0  0  0  0  0  0  0  0  0
  142.3080   73.1320  220.9100 C   0  0  0  0  0  0  0  0  0  0  0  0
  141.7230   72.2900  221.7800 N   0  0  0  0  0  0  0  0  0  0  0  0
  140.6580   72.6660  222.4730 C   0  0  0  0  0  0  0  0  0  0  0  0
  140.0270   71.7650  223.4090 N   0  0  0  0  0  0  0  0  0  0  0  0
  138.8230   71.0830  222.9870 C   0  0  0  0  0  0  0  0  0  0  0  0
  138.0550   70.5150  224.1630 C   0  0  0  0  0  0  0  0  0  0  0  0
  138.9830   69.7230  225.0490 C   0  0  0  0  0  0  0  0  0  0  0  0
  138.6110   68.5220  225.5770 C   0  0  0  0  0  0  0  0  0  0  0  0
  139.4790   67.8370  226.3700 C   0  0  0  0  0  0  0  0  0  0  0  0
  140.7160   68.3490  226.6350 C   0  0  0  0  0  0  0  0  0  0  0  0
  141.0800   69.5660  226.0930 C   0  0  0  0  0  0  0  0  0  0  0  0
  140.2150   70.2980  225.2750 C   0  0  0  0  0  0  0  0  0  0  0  0
  140.6340   71.5990  224.7130 C   0  0  0  0  0  0  0  0  0  0  0  0
  140.1760   73.9090  222.2860 N   0  0  0  0  0  0  0  0  0  0  0  0
  140.7170   74.7920  221.4320 C   0  0  0  0  0  0  0  0  0  0  0  0
  140.1470   76.0860  221.2920 N   0  0  0  0  0  0  0  0  0  0  0  0
  138.7080   76.2070  221.4270 C   0  0  0  0  0  0  0  0  0  0  0  0
  138.4680   76.9120  222.7450 C   0  0  0  0  0  0  0  0  0  0  0  0
  139.2640   78.1670  222.7210 C   0  0  0  0  0  0  0  0  0  0  0  0
  138.8360   79.1940  223.5360 C   0  0  0  0  0  0  0  0  0  0  0  0
  139.5050   80.3920  223.5840 C   0  0  0  0  0  0  0  0  0  0  0  0
  140.6350   80.5940  222.8050 C   0  0  0  0  0  0  0  0  0  0  0  0
  141.0590   79.5650  221.9910 C   0  0  0  0  0  0  0  0  0  0  0  0
  140.3830   78.3420  221.9370 C   0  0  0  0  0  0  0  0  0  0  0  0
  140.9030   77.2690  221.0290 C   0  0  0  0  0  0  0  0  0  0  0  0
  141.8000   74.3810  220.7420 N   0  0  0  0  0  0  0  0  0  0  0  0
  143.5160   71.1690  219.9430 C   0  0  0  0  0  0  0  0  0  0  0  0
  144.3910   70.9320  218.7050 C   0  0  0  0  0  0  0  0  0  0  0  0
  145.8980   72.7760  216.9240 H   0  0  0  0  0  0  0  0  0  0  0  0
  145.9200   73.8230  218.2320 H   0  0  0  0  0  0  0  0  0  0  0  0
  146.4282   71.2307  218.3827 H   0  0  0  0  0  0  0  0  0  0  0  0
  146.8212   72.9101  220.1401 H   0  0  0  0  0  0  0  0  0  0  0  0
  146.0848   71.3794  220.7787 H   0  0  0  0  0  0  0  0  0  0  0  0
  144.9699   74.1358  220.6194 H   0  0  0  0  0  0  0  0  0  0  0  0
  144.7717   72.8569  221.8693 H   0  0  0  0  0  0  0  0  0  0  0  0
  143.3760   73.1617  219.1981 H   0  0  0  0  0  0  0  0  0  0  0  0
  138.1787   71.7965  222.4524 H   0  0  0  0  0  0  0  0  0  0  0  0
  139.1151   70.2472  222.3343 H   0  0  0  0  0  0  0  0  0  0  0  0
  137.6131   71.3392  224.7422 H   0  0  0  0  0  0  0  0  0  0  0  0
  137.2592   69.8536  223.7898 H   0  0  0  0  0  0  0  0  0  0  0  0
  137.6142   68.1090  225.3629 H   0  0  0  0  0  0  0  0  0  0  0  0
  139.1829   66.8681  226.7985 H   0  0  0  0  0  0  0  0  0  0  0  0
  141.4184   67.7961  227.2760 H   0  0  0  0  0  0  0  0  0  0  0  0
  142.0793   69.9707  226.3114 H   0  0  0  0  0  0  0  0  0  0  0  0
  140.3066   72.4112  225.3786 H   0  0  0  0  0  0  0  0  0  0  0  0
  141.7297   71.6289  224.6201 H   0  0  0  0  0  0  0  0  0  0  0  0
  138.2950   76.7987  220.5967 H   0  0  0  0  0  0  0  0  0  0  0  0
  138.2178   75.2226  221.4026 H   0  0  0  0  0  0  0  0  0  0  0  0
  137.3991   77.1454  222.8589 H   0  0  0  0  0  0  0  0  0  0  0  0
  138.7676   76.2746  223.5900 H   0  0  0  0  0  0  0  0  0  0  0  0
  137.9413   79.0505  224.1596 H   0  0  0  0  0  0  0  0  0  0  0  0
  139.1434   81.1951  224.2430 H   0  0  0  0  0  0  0  0  0  0  0  0
  141.1784   81.5499  222.8359 H   0  0  0  0  0  0  0  0  0  0  0  0
  141.9533   79.7100  221.3671 H   0  0  0  0  0  0  0  0  0  0  0  0
  140.7765   77.5707  219.9788 H   0  0  0  0  0  0  0  0  0  0  0  0
  141.9743   77.0939  221.2071 H   0  0  0  0  0  0  0  0  0  0  0  0
  142.4977   70.7924  219.7662 H   0  0  0  0  0  0  0  0  0  0  0  0
  143.9176   70.6412  220.8205 H   0  0  0  0  0  0  0  0  0  0  0  0
  143.8056   71.1435  217.7980 H   0  0  0  0  0  0  0  0  0  0  0  0
  144.7274   69.8848  218.6928 H   0  0  0  0  0  0  0  0  0  0  0  0
  1  2  1  0
  2  3  1  0
  3  4  1  0
  4  5  1  0
  5  6  1  0
  6  7  2  0
  7  8  1  0
  8  9  1  0
  9 10  1  0
 10 11  1  0
 11 12  1  0
 12 13  2  0
 13 14  1  0
 14 15  2  0
 15 16  1  0
 16 17  2  0
 17 18  1  0
  8 19  2  0
 19 20  1  0
 20 21  1  0
 21 22  1  0
 22 23  1  0
 23 24  1  0
 24 25  2  0
 25 26  1  0
 26 27  2  0
 27 28  1  0
 28 29  2  0
 29 30  1  0
 20 31  2  0
  5 32  1  0
 32 33  1  0
 33  2  1  0
 31  6  1  0
 18  9  1  0
 30 21  1  0
 17 12  1  0
 29 24  1  0
  1 34  1  0
  1 35  1  0
  2 36  1  6
  3 37  1  0
  3 38  1  0
  4 39  1  0
  4 40  1  0
  5 41  1  6
 10 42  1  0
 10 43  1  0
 11 44  1  0
 11 45  1  0
 13 46  1  0
 14 47  1  0
 15 48  1  0
 16 49  1  0
 18 50  1  0
 18 51  1  0
 22 52  1  0
 22 53  1  0
 23 54  1  0
 23 55  1  0
 25 56  1  0
 26 57  1  0
 27 58  1  0
 28 59  1  0
 30 60  1  0
 30 61  1  0
 32 62  1  0
 32 63  1  0
 33 64  1  0
 33 65  1  0
M  END
>  <smiles>  (45) 
N[C@H]1CC[C@H](c2nc(N3CCc4ccccc4C3)nc(N3CCc4ccccc4C3)n2)CC1

>  <score_type>  (45) 
oracle

>  <origin>  (45) 
autodockgpu

>  <m_score__min__energy>  (45) 
-10.24

>  <m_primary>  (45) 
energy

>  <rmsd>  (45) 
10.9307119724609

>  <m_score__min__rmsd>  (45) 
10.9307119724609

>  <meeko>  (45) 
{"free_energy": -10.06, "intermolecular_energy": -11.25, "internal_energy": -1.0, "cluster_size": 40, "cluster_id": 1, "rank_in_cluster": 32}

>  <energy>  (45) 
-9.88

>  <cluster_rmsd>  (45) 
0.44

>  <cluster>  (45) 
2

$$$$

     RDKit          3D

 65 70  0  0  0  0  0  0  0  0999 V2000
  146.1760   73.4030  218.3810 N   0  0  0  0  0  0  0  0  0  0  0  0
  145.4870   72.1450  218.1740 C   0  0  1  0  0  0  0  0  0  0  0  0
  145.3390   71.3740  219.4840 C   0  0  0  0  0  0  0  0  0  0  0  0
  144.4400   72.0820  220.4510 C   0  0  0  0  0  0  0  0  0  0  0  0
  143.4580   72.9450  219.7010 C   0  0  2  0  0  0  0  0  0  0  0  0
  142.3440   73.4370  220.5290 C   0  0  0  0  0  0  0  0  0  0  0  0
  141.7510   72.5750  221.3720 N   0  0  0  0  0  0  0  0  0  0  0  0
  140.7430   72.9660  222.1400 C   0  0  0  0  0  0  0  0  0  0  0  0
  140.1030   72.0440  223.0490 N   0  0  0  0  0  0  0  0  0  0  0  0
  138.9320   71.3330  222.5810 C   0  0  0  0  0  0  0  0  0  0  0  0
  138.1390   70.7390  223.7270 C   0  0  0  0  0  0  0  0  0  0  0  0
  139.0560   69.9660  224.6410 C   0  0  0  0  0  0  0  0  0  0  0  0
  138.6970   68.7530  225.1490 C   0  0  0  0  0  0  0  0  0  0  0  0
  139.5540   68.0850  225.9700 C   0  0  0  0  0  0  0  0  0  0  0  0
  140.7670   68.6280  226.2800 C   0  0  0  0  0  0  0  0  0  0  0  0
  141.1180   69.8570  225.7580 C   0  0  0  0  0  0  0  0  0  0  0  0
  140.2640   70.5710  224.9130 C   0  0  0  0  0  0  0  0  0  0  0  0
  140.6680   71.8850  224.3720 C   0  0  0  0  0  0  0  0  0  0  0  0
  140.3280   74.2440  222.0540 N   0  0  0  0  0  0  0  0  0  0  0  0
  140.8800   75.1480  221.2310 C   0  0  0  0  0  0  0  0  0  0  0  0
  140.3840   76.4780  221.2000 N   0  0  0  0  0  0  0  0  0  0  0  0
  138.9550   76.6690  221.3650 C   0  0  0  0  0  0  0  0  0  0  0  0
  138.7700   77.2810  222.7380 C   0  0  0  0  0  0  0  0  0  0  0  0
  139.6340   78.4880  222.7990 C   0  0  0  0  0  0  0  0  0  0  0  0
  139.2740   79.4700  223.6970 C   0  0  0  0  0  0  0  0  0  0  0  0
  140.0100   80.6210  223.8270 C   0  0  0  0  0  0  0  0  0  0  0  0
  141.1420   80.8210  223.0500 C   0  0  0  0  0  0  0  0  0  0  0  0
  141.4980   79.8360  222.1530 C   0  0  0  0  0  0  0  0  0  0  0  0
  140.7540   78.6610  222.0140 C   0  0  0  0  0  0  0  0  0  0  0  0
  141.2030   77.6350  221.0180 C   0  0  0  0  0  0  0  0  0  0  0  0
  141.9040   74.7210  220.4630 N   0  0  0  0  0  0  0  0  0  0  0  0
  143.0260   72.1990  218.4670 C   0  0  0  0  0  0  0  0  0  0  0  0
  144.1810   72.3090  217.4640 C   0  0  0  0  0  0  0  0  0  0  0  0
  145.9280   73.8310  219.3040 H   0  0  0  0  0  0  0  0  0  0  0  0
  145.9510   74.1070  217.6510 H   0  0  0  0  0  0  0  0  0  0  0  0
  146.1175   71.5423  217.5038 H   0  0  0  0  0  0  0  0  0  0  0  0
  146.3323   71.2573  219.9420 H   0  0  0  0  0  0  0  0  0  0  0  0
  144.8903   70.3961  219.2550 H   0  0  0  0  0  0  0  0  0  0  0  0
  145.0461   72.7136  221.1171 H   0  0  0  0  0  0  0  0  0  0  0  0
  143.8886   71.3378  221.0443 H   0  0  0  0  0  0  0  0  0  0  0  0
  143.9557   73.8773  219.3961 H   0  0  0  0  0  0  0  0  0  0  0  0
  138.2883   72.0325  222.0275 H   0  0  0  0  0  0  0  0  0  0  0  0
  139.2681   70.5089  221.9345 H   0  0  0  0  0  0  0  0  0  0  0  0
  137.6564   71.5484  224.2944 H   0  0  0  0  0  0  0  0  0  0  0  0
  137.3739   70.0595  223.3234 H   0  0  0  0  0  0  0  0  0  0  0  0
  137.7196   68.3158  224.8969 H   0  0  0  0  0  0  0  0  0  0  0  0
  139.2681   67.1067  226.3837 H   0  0  0  0  0  0  0  0  0  0  0  0
  141.4611   68.0896  226.9420 H   0  0  0  0  0  0  0  0  0  0  0  0
  142.0977   70.2864  226.0145 H   0  0  0  0  0  0  0  0  0  0  0  0
  140.2969   72.6846  225.0300 H   0  0  0  0  0  0  0  0  0  0  0  0
  141.7651   71.9427  224.3169 H   0  0  0  0  0  0  0  0  0  0  0  0
  138.5681   77.3465  220.5895 H   0  0  0  0  0  0  0  0  0  0  0  0
  138.4086   75.7189  221.2710 H   0  0  0  0  0  0  0  0  0  0  0  0
  137.7172   77.5629  222.8866 H   0  0  0  0  0  0  0  0  0  0  0  0
  139.0434   76.5639  223.5261 H   0  0  0  0  0  0  0  0  0  0  0  0
  138.3796   79.3283  224.3214 H   0  0  0  0  0  0  0  0  0  0  0  0
  139.7008   81.3892  224.5511 H   0  0  0  0  0  0  0  0  0  0  0  0
  141.7389   81.7398  223.1469 H   0  0  0  0  0  0  0  0  0  0  0  0
  142.3927   79.9791  221.5293 H   0  0  0  0  0  0  0  0  0  0  0  0
  141.0825   78.0244  219.9963 H   0  0  0  0  0  0  0  0  0  0  0  0
  142.2645   77.3875  221.1660 H   0  0  0  0  0  0  0  0  0  0  0  0
  142.1151   72.6520  218.0486 H   0  0  0  0  0  0  0  0  0  0  0  0
  142.7984   71.1477  218.6974 H   0  0  0  0  0  0  0  0  0  0  0  0
  144.1506   73.2959  216.9791 H   0  0  0  0  0  0  0  0  0  0  0  0
  144.0789   71.5193  216.7051 H   0  0  0  0  0  0  0  0  0  0  0  0
  1  2  1  0
  2  3  1  0
  3  4  1  0
  4  5  1  0
  5  6  1  0
  6  7  2  0
  7  8  1  0
  8  9  1  0
  9 10  1  0
 10 11  1  0
 11 12  1  0
 12 13  2  0
 13 14  1  0
 14 15  2  0
 15 16  1  0
 16 17  2  0
 17 18  1  0
  8 19  2  0
 19 20  1  0
 20 21  1  0
 21 22  1  0
 22 23  1  0
 23 24  1  0
 24 25  2  0
 25 26  1  0
 26 27  2  0
 27 28  1  0
 28 29  2  0
 29 30  1  0
 20 31  2  0
  5 32  1  0
 32 33  1  0
 33  2  1  0
 31  6  1  0
 18  9  1  0
 30 21  1  0
 17 12  1  0
 29 24  1  0
  1 34  1  0
  1 35  1  0
  2 36  1  6
  3 37  1  0
  3 38  1  0
  4 39  1  0
  4 40  1  0
  5 41  1  6
 10 42  1  0
 10 43  1  0
 11 44  1  0
 11 45  1  0
 13 46  1  0
 14 47  1  0
 15 48  1  0
 16 49  1  0
 18 50  1  0
 18 51  1  0
 22 52  1  0
 22 53  1  0
 23 54  1  0
 23 55  1  0
 25 56  1  0
 26 57  1  0
 27 58  1  0
 28 59  1  0
 30 60  1  0
 30 61  1  0
 32 62  1  0
 32 63  1  0
 33 64  1  0
 33 65  1  0
M  END
>  <smiles>  (46) 
N[C@H]1CC[C@H](c2nc(N3CCc4ccccc4C3)nc(N3CCc4ccccc4C3)n2)CC1

>  <score_type>  (46) 
oracle

>  <origin>  (46) 
autodockgpu

>  <m_score__min__energy>  (46) 
-10.24

>  <m_primary>  (46) 
energy

>  <rmsd>  (46) 
10.524262468343109

>  <m_score__min__rmsd>  (46) 
10.524262468343109

>  <meeko>  (46) 
{"free_energy": -10.12, "intermolecular_energy": -11.31, "internal_energy": -0.99, "cluster_size": 40, "cluster_id": 1, "rank_in_cluster": 22}

>  <energy>  (46) 
-9.87

>  <cluster_rmsd>  (46) 
0.14

>  <cluster>  (46) 
2

$$$$

     RDKit          3D

 65 70  0  0  0  0  0  0  0  0999 V2000
  145.8890   73.4610  218.1010 N   0  0  0  0  0  0  0  0  0  0  0  0
  145.5690   72.1000  218.4800 C   0  0  1  0  0  0  0  0  0  0  0  0
  145.7440   71.8890  219.9830 C   0  0  0  0  0  0  0  0  0  0  0  0
  144.7570   72.6890  220.7780 C   0  0  0  0  0  0  0  0  0  0  0  0
  143.5170   72.9370  219.9570 C   0  0  2  0  0  0  0  0  0  0  0  0
  142.3750   73.4400  220.7380 C   0  0  0  0  0  0  0  0  0  0  0  0
  141.7590   72.5920  221.5790 N   0  0  0  0  0  0  0  0  0  0  0  0
  140.7260   72.9930  222.3070 C   0  0  0  0  0  0  0  0  0  0  0  0
  140.0610   72.0860  223.2120 N   0  0  0  0  0  0  0  0  0  0  0  0
  138.8550   71.4310  222.7510 C   0  0  0  0  0  0  0  0  0  0  0  0
  138.0530   70.8540  223.9010 C   0  0  0  0  0  0  0  0  0  0  0  0
  138.9490   70.0300  224.7910 C   0  0  0  0  0  0  0  0  0  0  0  0
  138.5470   68.8260  225.2880 C   0  0  0  0  0  0  0  0  0  0  0  0
  139.3870   68.1130  226.0870 C   0  0  0  0  0  0  0  0  0  0  0  0
  140.6260   68.6000  226.3870 C   0  0  0  0  0  0  0  0  0  0  0  0
  141.0210   69.8210  225.8770 C   0  0  0  0  0  0  0  0  0  0  0  0
  140.1850   70.5810  225.0540 C   0  0  0  0  0  0  0  0  0  0  0  0
  140.6370   71.8850  224.5250 C   0  0  0  0  0  0  0  0  0  0  0  0
  140.3090   74.2670  222.1830 N   0  0  0  0  0  0  0  0  0  0  0  0
  140.8840   75.1580  221.3610 C   0  0  0  0  0  0  0  0  0  0  0  0
  140.3830   76.4850  221.2890 N   0  0  0  0  0  0  0  0  0  0  0  0
  138.9480   76.6700  221.3720 C   0  0  0  0  0  0  0  0  0  0  0  0
  138.6830   77.2950  222.7260 C   0  0  0  0  0  0  0  0  0  0  0  0
  139.5380   78.5070  222.8220 C   0  0  0  0  0  0  0  0  0  0  0  0
  139.1230   79.4960  223.6880 C   0  0  0  0  0  0  0  0  0  0  0  0
  139.8460   80.6530  223.8470 C   0  0  0  0  0  0  0  0  0  0  0  0
  141.0180   80.8500  223.1310 C   0  0  0  0  0  0  0  0  0  0  0  0
  141.4280   79.8580  222.2660 C   0  0  0  0  0  0  0  0  0  0  0  0
  140.6980   78.6780  222.0990 C   0  0  0  0  0  0  0  0  0  0  0  0
  141.2060   77.6440  221.1400 C   0  0  0  0  0  0  0  0  0  0  0  0
  141.9330   74.7210  220.6340 N   0  0  0  0  0  0  0  0  0  0  0  0
  143.2220   71.6910  219.1660 C   0  0  0  0  0  0  0  0  0  0  0  0
  144.2200   71.6660  218.0010 C   0  0  0  0  0  0  0  0  0  0  0  0
  146.7160   73.8240  218.6300 H   0  0  0  0  0  0  0  0  0  0  0  0
  145.1050   74.1200  218.2770 H   0  0  0  0  0  0  0  0  0  0  0  0
  146.2914   71.4478  217.9673 H   0  0  0  0  0  0  0  0  0  0  0  0
  146.7615   72.1939  220.2689 H   0  0  0  0  0  0  0  0  0  0  0  0
  145.5736   70.8242  220.2000 H   0  0  0  0  0  0  0  0  0  0  0  0
  145.2086   73.6525  221.0566 H   0  0  0  0  0  0  0  0  0  0  0  0
  144.4847   72.1297  221.6852 H   0  0  0  0  0  0  0  0  0  0  0  0
  143.7069   73.7648  219.2579 H   0  0  0  0  0  0  0  0  0  0  0  0
  138.2336   72.1644  222.2162 H   0  0  0  0  0  0  0  0  0  0  0  0
  139.1474   70.6029  222.0886 H   0  0  0  0  0  0  0  0  0  0  0  0
  137.6129   71.6748  224.4864 H   0  0  0  0  0  0  0  0  0  0  0  0
  137.2544   70.2131  223.4991 H   0  0  0  0  0  0  0  0  0  0  0  0
  137.5489   68.4328  225.0445 H   0  0  0  0  0  0  0  0  0  0  0  0
  139.0664   67.1418  226.4920 H   0  0  0  0  0  0  0  0  0  0  0  0
  141.3061   68.0234  227.0312 H   0  0  0  0  0  0  0  0  0  0  0  0
  142.0210   70.2061  226.1252 H   0  0  0  0  0  0  0  0  0  0  0  0
  140.3089   72.6902  225.1989 H   0  0  0  0  0  0  0  0  0  0  0  0
  141.7347   71.8976  224.4553 H   0  0  0  0  0  0  0  0  0  0  0  0
  138.6020   77.3375  220.5690 H   0  0  0  0  0  0  0  0  0  0  0  0
  138.4124   75.7160  221.2578 H   0  0  0  0  0  0  0  0  0  0  0  0
  137.6223   77.5735  222.8121 H   0  0  0  0  0  0  0  0  0  0  0  0
  138.9138   76.5875  223.5360 H   0  0  0  0  0  0  0  0  0  0  0  0
  138.1954   79.3560  224.2625 H   0  0  0  0  0  0  0  0  0  0  0  0
  139.4942   81.4269  224.5451 H   0  0  0  0  0  0  0  0  0  0  0  0
  141.6043   81.7730  223.2504 H   0  0  0  0  0  0  0  0  0  0  0  0
  142.3553   79.9991  221.6914 H   0  0  0  0  0  0  0  0  0  0  0  0
  141.1404   78.0222  220.1091 H   0  0  0  0  0  0  0  0  0  0  0  0
  142.2589   77.4033  221.3487 H   0  0  0  0  0  0  0  0  0  0  0  0
  142.1914   71.7198  218.7826 H   0  0  0  0  0  0  0  0  0  0  0  0
  143.3191   70.7913  219.7914 H   0  0  0  0  0  0  0  0  0  0  0  0
  143.8759   72.3493  217.2106 H   0  0  0  0  0  0  0  0  0  0  0  0
  144.2878   70.6429  217.6028 H   0  0  0  0  0  0  0  0  0  0  0  0
  1  2  1  0
  2  3  1  0
  3  4  1  0
  4  5  1  0
  5  6  1  0
  6  7  2  0
  7  8  1  0
  8  9  1  0
  9 10  1  0
 10 11  1  0
 11 12  1  0
 12 13  2  0
 13 14  1  0
 14 15  2  0
 15 16  1  0
 16 17  2  0
 17 18  1  0
  8 19  2  0
 19 20  1  0
 20 21  1  0
 21 22  1  0
 22 23  1  0
 23 24  1  0
 24 25  2  0
 25 26  1  0
 26 27  2  0
 27 28  1  0
 28 29  2  0
 29 30  1  0
 20 31  2  0
  5 32  1  0
 32 33  1  0
 33  2  1  0
 31  6  1  0
 18  9  1  0
 30 21  1  0
 17 12  1  0
 29 24  1  0
  1 34  1  0
  1 35  1  0
  2 36  1  6
  3 37  1  0
  3 38  1  0
  4 39  1  0
  4 40  1  0
  5 41  1  6
 10 42  1  0
 10 43  1  0
 11 44  1  0
 11 45  1  0
 13 46  1  0
 14 47  1  0
 15 48  1  0
 16 49  1  0
 18 50  1  0
 18 51  1  0
 22 52  1  0
 22 53  1  0
 23 54  1  0
 23 55  1  0
 25 56  1  0
 26 57  1  0
 27 58  1  0
 28 59  1  0
 30 60  1  0
 30 61  1  0
 32 62  1  0
 32 63  1  0
 33 64  1  0
 33 65  1  0
M  END
>  <smiles>  (47) 
N[C@H]1CC[C@H](c2nc(N3CCc4ccccc4C3)nc(N3CCc4ccccc4C3)n2)CC1

>  <score_type>  (47) 
oracle

>  <origin>  (47) 
autodockgpu

>  <m_score__min__energy>  (47) 
-10.24

>  <m_primary>  (47) 
energy

>  <rmsd>  (47) 
10.584466131668835

>  <m_score__min__rmsd>  (47) 
10.584466131668835

>  <meeko>  (47) 
{"free_energy": -10.21, "intermolecular_energy": -11.4, "internal_energy": -0.99, "cluster_size": 40, "cluster_id": 1, "rank_in_cluster": 5}

>  <energy>  (47) 
-9.86

>  <cluster_rmsd>  (47) 
0.7

>  <cluster>  (47) 
2

$$$$

     RDKit          3D

 65 70  0  0  0  0  0  0  0  0999 V2000
  145.6990   72.9110  218.1630 N   0  0  0  0  0  0  0  0  0  0  0  0
  145.9120   71.9500  219.2260 C   0  0  1  0  0  0  0  0  0  0  0  0
  146.1510   72.6480  220.5640 C   0  0  0  0  0  0  0  0  0  0  0  0
  144.9340   73.3860  221.0330 C   0  0  0  0  0  0  0  0  0  0  0  0
  143.6940   72.7460  220.4640 C   0  0  2  0  0  0  0  0  0  0  0  0
  142.4450   73.1950  221.1010 C   0  0  0  0  0  0  0  0  0  0  0  0
  141.7920   72.3320  221.8990 N   0  0  0  0  0  0  0  0  0  0  0  0
  140.6640   72.6860  222.4970 C   0  0  0  0  0  0  0  0  0  0  0  0
  139.9600   71.7630  223.3560 N   0  0  0  0  0  0  0  0  0  0  0  0
  138.8940   70.9740  222.7740 C   0  0  0  0  0  0  0  0  0  0  0  0
  137.9910   70.3780  223.8360 C   0  0  0  0  0  0  0  0  0  0  0  0
  138.8210   69.6870  224.8880 C   0  0  0  0  0  0  0  0  0  0  0  0
  138.4610   68.4740  225.3970 C   0  0  0  0  0  0  0  0  0  0  0  0
  139.2390   67.8830  226.3450 C   0  0  0  0  0  0  0  0  0  0  0  0
  140.3740   68.5000  226.7820 C   0  0  0  0  0  0  0  0  0  0  0  0
  140.7280   69.7280  226.2580 C   0  0  0  0  0  0  0  0  0  0  0  0
  139.9540   70.3650  225.2840 C   0  0  0  0  0  0  0  0  0  0  0  0
  140.3590   71.6800  224.7450 C   0  0  0  0  0  0  0  0  0  0  0  0
  140.1870   73.9270  222.2870 N   0  0  0  0  0  0  0  0  0  0  0  0
  140.7930   74.8300  221.5020 C   0  0  0  0  0  0  0  0  0  0  0  0
  140.2240   76.1200  221.3320 N   0  0  0  0  0  0  0  0  0  0  0  0
  138.7810   76.2370  221.4130 C   0  0  0  0  0  0  0  0  0  0  0  0
  138.4910   76.9510  222.7170 C   0  0  0  0  0  0  0  0  0  0  0  0
  139.2820   78.2090  222.7120 C   0  0  0  0  0  0  0  0  0  0  0  0
  138.8200   79.2390  223.5030 C   0  0  0  0  0  0  0  0  0  0  0  0
  139.4830   80.4410  223.5660 C   0  0  0  0  0  0  0  0  0  0  0  0
  140.6400   80.6420  222.8270 C   0  0  0  0  0  0  0  0  0  0  0  0
  141.0970   79.6080  222.0370 C   0  0  0  0  0  0  0  0  0  0  0  0
  140.4280   78.3820  221.9680 C   0  0  0  0  0  0  0  0  0  0  0  0
  140.9850   77.3050  221.0870 C   0  0  0  0  0  0  0  0  0  0  0  0
  141.9400   74.4420  220.9070 N   0  0  0  0  0  0  0  0  0  0  0  0
  143.8890   71.2530  220.4780 C   0  0  0  0  0  0  0  0  0  0  0  0
  144.8260   70.9250  219.3080 C   0  0  0  0  0  0  0  0  0  0  0  0
  145.9790   73.8770  218.4550 H   0  0  0  0  0  0  0  0  0  0  0  0
  144.7050   72.9630  217.8650 H   0  0  0  0  0  0  0  0  0  0  0  0
  146.8276   71.3946  218.9746 H   0  0  0  0  0  0  0  0  0  0  0  0
  146.9788   73.3633  220.4494 H   0  0  0  0  0  0  0  0  0  0  0  0
  146.3933   71.8787  221.3120 H   0  0  0  0  0  0  0  0  0  0  0  0
  144.9906   74.4323  220.6983 H   0  0  0  0  0  0  0  0  0  0  0  0
  144.8890   73.3484  222.1314 H   0  0  0  0  0  0  0  0  0  0  0  0
  143.5620   73.0784  219.4238 H   0  0  0  0  0  0  0  0  0  0  0  0
  138.2926   71.6183  222.1158 H   0  0  0  0  0  0  0  0  0  0  0  0
  139.3495   70.1474  222.2090 H   0  0  0  0  0  0  0  0  0  0  0  0
  137.4016   71.1796  224.3051 H   0  0  0  0  0  0  0  0  0  0  0  0
  137.3170   69.6453  223.3681 H   0  0  0  0  0  0  0  0  0  0  0  0
  137.5464   67.9756  225.0432 H   0  0  0  0  0  0  0  0  0  0  0  0
  138.9515   66.9055  226.7595 H   0  0  0  0  0  0  0  0  0  0  0  0
  141.0038   68.0226  227.5472 H   0  0  0  0  0  0  0  0  0  0  0  0
  141.6448   70.2184  226.6173 H   0  0  0  0  0  0  0  0  0  0  0  0
  139.8684   72.4805  225.3181 H   0  0  0  0  0  0  0  0  0  0  0  0
  141.4500   71.7948  224.8258 H   0  0  0  0  0  0  0  0  0  0  0  0
  138.3969   76.8214  220.5639 H   0  0  0  0  0  0  0  0  0  0  0  0
  138.2948   75.2509  221.3775 H   0  0  0  0  0  0  0  0  0  0  0  0
  137.4177   77.1805  222.7909 H   0  0  0  0  0  0  0  0  0  0  0  0
  138.7628   76.3212  223.5769 H   0  0  0  0  0  0  0  0  0  0  0  0
  137.9038   79.0961  224.0947 H   0  0  0  0  0  0  0  0  0  0  0  0
  139.0947   81.2476  224.2052 H   0  0  0  0  0  0  0  0  0  0  0  0
  141.1783   81.6003  222.8701 H   0  0  0  0  0  0  0  0  0  0  0  0
  142.0129   79.7517  221.4450 H   0  0  0  0  0  0  0  0  0  0  0  0
  140.8950   77.5986  220.0307 H   0  0  0  0  0  0  0  0  0  0  0  0
  142.0500   77.1359  221.3042 H   0  0  0  0  0  0  0  0  0  0  0  0
  142.9236   70.7424  220.3464 H   0  0  0  0  0  0  0  0  0  0  0  0
  144.3146   70.9164  221.4349 H   0  0  0  0  0  0  0  0  0  0  0  0
  144.2522   70.9251  218.3695 H   0  0  0  0  0  0  0  0  0  0  0  0
  145.2740   69.9333  219.4685 H   0  0  0  0  0  0  0  0  0  0  0  0
  1  2  1  0
  2  3  1  0
  3  4  1  0
  4  5  1  0
  5  6  1  0
  6  7  2  0
  7  8  1  0
  8  9  1  0
  9 10  1  0
 10 11  1  0
 11 12  1  0
 12 13  2  0
 13 14  1  0
 14 15  2  0
 15 16  1  0
 16 17  2  0
 17 18  1  0
  8 19  2  0
 19 20  1  0
 20 21  1  0
 21 22  1  0
 22 23  1  0
 23 24  1  0
 24 25  2  0
 25 26  1  0
 26 27  2  0
 27 28  1  0
 28 29  2  0
 29 30  1  0
 20 31  2  0
  5 32  1  0
 32 33  1  0
 33  2  1  0
 31  6  1  0
 18  9  1  0
 30 21  1  0
 17 12  1  0
 29 24  1  0
  1 34  1  0
  1 35  1  0
  2 36  1  6
  3 37  1  0
  3 38  1  0
  4 39  1  0
  4 40  1  0
  5 41  1  6
 10 42  1  0
 10 43  1  0
 11 44  1  0
 11 45  1  0
 13 46  1  0
 14 47  1  0
 15 48  1  0
 16 49  1  0
 18 50  1  0
 18 51  1  0
 22 52  1  0
 22 53  1  0
 23 54  1  0
 23 55  1  0
 25 56  1  0
 26 57  1  0
 27 58  1  0
 28 59  1  0
 30 60  1  0
 30 61  1  0
 32 62  1  0
 32 63  1  0
 33 64  1  0
 33 65  1  0
M  END
>  <smiles>  (48) 
N[C@H]1CC[C@H](c2nc(N3CCc4ccccc4C3)nc(N3CCc4ccccc4C3)n2)CC1

>  <score_type>  (48) 
oracle

>  <origin>  (48) 
autodockgpu

>  <m_score__min__energy>  (48) 
-10.24

>  <m_primary>  (48) 
energy

>  <rmsd>  (48) 
10.874595299400902

>  <m_score__min__rmsd>  (48) 
10.874595299400902

>  <meeko>  (48) 
{"free_energy": -10.12, "intermolecular_energy": -11.31, "internal_energy": -1.0, "cluster_size": 40, "cluster_id": 1, "rank_in_cluster": 21}

>  <energy>  (48) 
-9.78

>  <cluster_rmsd>  (48) 
0.7

>  <cluster>  (48) 
2

$$$$

     RDKit          3D

 65 70  0  0  0  0  0  0  0  0999 V2000
  145.9960   73.3800  218.1020 N   0  0  0  0  0  0  0  0  0  0  0  0
  145.5670   72.0050  218.2580 C   0  0  1  0  0  0  0  0  0  0  0  0
  145.6650   71.5570  219.7150 C   0  0  0  0  0  0  0  0  0  0  0  0
  144.7050   72.2990  220.5940 C   0  0  0  0  0  0  0  0  0  0  0  0
  143.5200   72.7620  219.7840 C   0  0  2  0  0  0  0  0  0  0  0  0
  142.3850   73.2260  220.5990 C   0  0  0  0  0  0  0  0  0  0  0  0
  141.8210   72.3560  221.4540 N   0  0  0  0  0  0  0  0  0  0  0  0
  140.7970   72.7210  222.2120 C   0  0  0  0  0  0  0  0  0  0  0  0
  140.1870   71.7910  223.1330 N   0  0  0  0  0  0  0  0  0  0  0  0
  139.2390   70.8350  222.6030 C   0  0  0  0  0  0  0  0  0  0  0  0
  138.3880   70.2200  223.6960 C   0  0  0  0  0  0  0  0  0  0  0  0
  139.2690   69.7210  224.8140 C   0  0  0  0  0  0  0  0  0  0  0  0
  139.0440   68.5180  225.4150 C   0  0  0  0  0  0  0  0  0  0  0  0
  139.8640   68.1030  226.4200 C   0  0  0  0  0  0  0  0  0  0  0  0
  140.9060   68.8870  226.8220 C   0  0  0  0  0  0  0  0  0  0  0  0
  141.1230   70.1030  226.2040 C   0  0  0  0  0  0  0  0  0  0  0  0
  140.3020   70.5620  225.1700 C   0  0  0  0  0  0  0  0  0  0  0  0
  140.5590   71.8690  224.5300 C   0  0  0  0  0  0  0  0  0  0  0  0
  140.3350   73.9820  222.1050 N   0  0  0  0  0  0  0  0  0  0  0  0
  140.8570   74.8920  221.2690 C   0  0  0  0  0  0  0  0  0  0  0  0
  140.3120   76.2030  221.2150 N   0  0  0  0  0  0  0  0  0  0  0  0
  138.8760   76.3430  221.3690 C   0  0  0  0  0  0  0  0  0  0  0  0
  138.6590   76.9680  222.7310 C   0  0  0  0  0  0  0  0  0  0  0  0
  139.4780   78.2070  222.7790 C   0  0  0  0  0  0  0  0  0  0  0  0
  139.0760   79.1870  223.6590 C   0  0  0  0  0  0  0  0  0  0  0  0
  139.7680   80.3670  223.7770 C   0  0  0  0  0  0  0  0  0  0  0  0
  140.8970   80.5970  223.0030 C   0  0  0  0  0  0  0  0  0  0  0  0
  141.2950   79.6130  222.1230 C   0  0  0  0  0  0  0  0  0  0  0  0
  140.5960   78.4090  221.9980 C   0  0  0  0  0  0  0  0  0  0  0  0
  141.0880   77.3860  221.0200 C   0  0  0  0  0  0  0  0  0  0  0  0
  141.8990   74.4920  220.5120 N   0  0  0  0  0  0  0  0  0  0  0  0
  143.1710   71.6750  218.8030 C   0  0  0  0  0  0  0  0  0  0  0  0
  144.2120   71.7520  217.6780 C   0  0  0  0  0  0  0  0  0  0  0  0
  146.7040   73.4770  217.3370 H   0  0  0  0  0  0  0  0  0  0  0  0
  146.4310   73.7630  218.9650 H   0  0  0  0  0  0  0  0  0  0  0  0
  146.2627   71.3848  217.6738 H   0  0  0  0  0  0  0  0  0  0  0  0
  146.6888   71.7378  220.0745 H   0  0  0  0  0  0  0  0  0  0  0  0
  145.4116   70.4875  219.7603 H   0  0  0  0  0  0  0  0  0  0  0  0
  145.2112   73.1721  221.0316 H   0  0  0  0  0  0  0  0  0  0  0  0
  144.3570   71.6307  221.3954 H   0  0  0  0  0  0  0  0  0  0  0  0
  143.7958   73.6692  219.2264 H   0  0  0  0  0  0  0  0  0  0  0  0
  138.5811   71.3467  221.8851 H   0  0  0  0  0  0  0  0  0  0  0  0
  139.8047   70.0274  222.1153 H   0  0  0  0  0  0  0  0  0  0  0  0
  137.6950   70.9786  224.0888 H   0  0  0  0  0  0  0  0  0  0  0  0
  137.8188   69.3758  223.2796 H   0  0  0  0  0  0  0  0  0  0  0  0
  138.2045   67.8859  225.0898 H   0  0  0  0  0  0  0  0  0  0  0  0
  139.6860   67.1337  226.9087 H   0  0  0  0  0  0  0  0  0  0  0  0
  141.5692   68.5526  227.6334 H   0  0  0  0  0  0  0  0  0  0  0  0
  141.9657   70.7279  226.5348 H   0  0  0  0  0  0  0  0  0  0  0  0
  139.9618   72.6472  225.0278 H   0  0  0  0  0  0  0  0  0  0  0  0
  141.6260   72.1220  224.6169 H   0  0  0  0  0  0  0  0  0  0  0  0
  138.4692   76.9938  220.5810 H   0  0  0  0  0  0  0  0  0  0  0  0
  138.3663   75.3717  221.2866 H   0  0  0  0  0  0  0  0  0  0  0  0
  137.5955   77.2132  222.8685 H   0  0  0  0  0  0  0  0  0  0  0  0
  138.9528   76.2733  223.5317 H   0  0  0  0  0  0  0  0  0  0  0  0
  138.1830   79.0212  224.2795 H   0  0  0  0  0  0  0  0  0  0  0  0
  139.4262   81.1335  224.4881 H   0  0  0  0  0  0  0  0  0  0  0  0
  141.4589   81.5387  223.0893 H   0  0  0  0  0  0  0  0  0  0  0  0
  142.1874   79.7801  221.5020 H   0  0  0  0  0  0  0  0  0  0  0  0
  140.9588   77.7555  219.9920 H   0  0  0  0  0  0  0  0  0  0  0  0
  142.1571   77.1803  221.1770 H   0  0  0  0  0  0  0  0  0  0  0  0
  142.1613   71.8384  218.3982 H   0  0  0  0  0  0  0  0  0  0  0  0
  143.1793   70.6864  219.2854 H   0  0  0  0  0  0  0  0  0  0  0  0
  143.9493   72.5714  216.9928 H   0  0  0  0  0  0  0  0  0  0  0  0
  144.2243   70.7990  217.1287 H   0  0  0  0  0  0  0  0  0  0  0  0
  1  2  1  0
  2  3  1  0
  3  4  1  0
  4  5  1  0
  5  6  1  0
  6  7  2  0
  7  8  1  0
  8  9  1  0
  9 10  1  0
 10 11  1  0
 11 12  1  0
 12 13  2  0
 13 14  1  0
 14 15  2  0
 15 16  1  0
 16 17  2  0
 17 18  1  0
  8 19  2  0
 19 20  1  0
 20 21  1  0
 21 22  1  0
 22 23  1  0
 23 24  1  0
 24 25  2  0
 25 26  1  0
 26 27  2  0
 27 28  1  0
 28 29  2  0
 29 30  1  0
 20 31  2  0
  5 32  1  0
 32 33  1  0
 33  2  1  0
 31  6  1  0
 18  9  1  0
 30 21  1  0
 17 12  1  0
 29 24  1  0
  1 34  1  0
  1 35  1  0
  2 36  1  6
  3 37  1  0
  3 38  1  0
  4 39  1  0
  4 40  1  0
  5 41  1  6
 10 42  1  0
 10 43  1  0
 11 44  1  0
 11 45  1  0
 13 46  1  0
 14 47  1  0
 15 48  1  0
 16 49  1  0
 18 50  1  0
 18 51  1  0
 22 52  1  0
 22 53  1  0
 23 54  1  0
 23 55  1  0
 25 56  1  0
 26 57  1  0
 27 58  1  0
 28 59  1  0
 30 60  1  0
 30 61  1  0
 32 62  1  0
 32 63  1  0
 33 64  1  0
 33 65  1  0
M  END
>  <smiles>  (49) 
N[C@H]1CC[C@H](c2nc(N3CCc4ccccc4C3)nc(N3CCc4ccccc4C3)n2)CC1

>  <score_type>  (49) 
oracle

>  <origin>  (49) 
autodockgpu

>  <m_score__min__energy>  (49) 
-10.24

>  <m_primary>  (49) 
energy

>  <rmsd>  (49) 
10.67488974610822

>  <m_score__min__rmsd>  (49) 
10.67488974610822

>  <meeko>  (49) 
{"free_energy": -9.79, "intermolecular_energy": -10.98, "internal_energy": -0.98, "cluster_size": 40, "cluster_id": 1, "rank_in_cluster": 40}

>  <energy>  (49) 
-9.77

>  <cluster_rmsd>  (49) 
0.38

>  <cluster>  (49) 
2

$$$$

     RDKit          3D

 65 70  0  0  0  0  0  0  0  0999 V2000
  145.8440   73.3980  218.0380 N   0  0  0  0  0  0  0  0  0  0  0  0
  145.5750   72.0460  218.4820 C   0  0  1  0  0  0  0  0  0  0  0  0
  145.7850   71.9060  219.9880 C   0  0  0  0  0  0  0  0  0  0  0  0
  144.7880   72.7080  220.7670 C   0  0  0  0  0  0  0  0  0  0  0  0
  143.5260   72.8810  219.9610 C   0  0  2  0  0  0  0  0  0  0  0  0
  142.3820   73.3820  220.7430 C   0  0  0  0  0  0  0  0  0  0  0  0
  141.7700   72.5330  221.5850 N   0  0  0  0  0  0  0  0  0  0  0  0
  140.7360   72.9310  222.3130 C   0  0  0  0  0  0  0  0  0  0  0  0
  140.0740   72.0230  223.2200 N   0  0  0  0  0  0  0  0  0  0  0  0
  138.8750   71.3560  222.7580 C   0  0  0  0  0  0  0  0  0  0  0  0
  138.0740   70.7790  223.9070 C   0  0  0  0  0  0  0  0  0  0  0  0
  138.9730   69.9660  224.8050 C   0  0  0  0  0  0  0  0  0  0  0  0
  138.5790   68.7620  225.3060 C   0  0  0  0  0  0  0  0  0  0  0  0
  139.4210   68.0580  226.1120 C   0  0  0  0  0  0  0  0  0  0  0  0
  140.6550   68.5570  226.4140 C   0  0  0  0  0  0  0  0  0  0  0  0
  141.0430   69.7780  225.8990 C   0  0  0  0  0  0  0  0  0  0  0  0
  140.2040   70.5280  225.0690 C   0  0  0  0  0  0  0  0  0  0  0  0
  140.6470   71.8330  224.5360 C   0  0  0  0  0  0  0  0  0  0  0  0
  140.3140   74.2040  222.1880 N   0  0  0  0  0  0  0  0  0  0  0  0
  140.8860   75.0950  221.3640 C   0  0  0  0  0  0  0  0  0  0  0  0
  140.3800   76.4200  221.2900 N   0  0  0  0  0  0  0  0  0  0  0  0
  138.9460   76.6030  221.4030 C   0  0  0  0  0  0  0  0  0  0  0  0
  138.7100   77.2400  222.7560 C   0  0  0  0  0  0  0  0  0  0  0  0
  139.5630   78.4550  222.8220 C   0  0  0  0  0  0  0  0  0  0  0  0
  139.1650   79.4510  223.6870 C   0  0  0  0  0  0  0  0  0  0  0  0
  139.8890   80.6110  223.8200 C   0  0  0  0  0  0  0  0  0  0  0  0
  141.0440   80.8040  223.0770 C   0  0  0  0  0  0  0  0  0  0  0  0
  141.4380   79.8050  222.2120 C   0  0  0  0  0  0  0  0  0  0  0  0
  140.7070   78.6210  222.0720 C   0  0  0  0  0  0  0  0  0  0  0  0
  141.1970   77.5790  221.1120 C   0  0  0  0  0  0  0  0  0  0  0  0
  141.9360   74.6610  220.6370 N   0  0  0  0  0  0  0  0  0  0  0  0
  143.2560   71.5930  219.2310 C   0  0  0  0  0  0  0  0  0  0  0  0
  144.2330   71.5490  218.0490 C   0  0  0  0  0  0  0  0  0  0  0  0
  146.6170   73.8390  218.5900 H   0  0  0  0  0  0  0  0  0  0  0  0
  145.0170   74.0200  218.1280 H   0  0  0  0  0  0  0  0  0  0  0  0
  146.3086   71.3952  217.9837 H   0  0  0  0  0  0  0  0  0  0  0  0
  146.7973   72.2550  220.2401 H   0  0  0  0  0  0  0  0  0  0  0  0
  145.6536   70.8468  220.2540 H   0  0  0  0  0  0  0  0  0  0  0  0
  145.2134   73.6964  220.9951 H   0  0  0  0  0  0  0  0  0  0  0  0
  144.5506   72.1803  221.7025 H   0  0  0  0  0  0  0  0  0  0  0  0
  143.6768   73.6828  219.2232 H   0  0  0  0  0  0  0  0  0  0  0  0
  138.2498   72.0817  222.2171 H   0  0  0  0  0  0  0  0  0  0  0  0
  139.1765   70.5269  222.1010 H   0  0  0  0  0  0  0  0  0  0  0  0
  137.6255   71.5993  224.4866 H   0  0  0  0  0  0  0  0  0  0  0  0
  137.2820   70.1299  223.5052 H   0  0  0  0  0  0  0  0  0  0  0  0
  137.5849   68.3602  225.0605 H   0  0  0  0  0  0  0  0  0  0  0  0
  139.1064   67.0862  226.5201 H   0  0  0  0  0  0  0  0  0  0  0  0
  141.3369   67.9894  227.0643 H   0  0  0  0  0  0  0  0  0  0  0  0
  142.0394   70.1715  226.1485 H   0  0  0  0  0  0  0  0  0  0  0  0
  140.3098   72.6384  225.2050 H   0  0  0  0  0  0  0  0  0  0  0  0
  141.7448   71.8546  224.4703 H   0  0  0  0  0  0  0  0  0  0  0  0
  138.5808   77.2622  220.6017 H   0  0  0  0  0  0  0  0  0  0  0  0
  138.4100   75.6470  221.3097 H   0  0  0  0  0  0  0  0  0  0  0  0
  137.6507   77.5164  222.8632 H   0  0  0  0  0  0  0  0  0  0  0  0
  138.9615   76.5407  223.5670 H   0  0  0  0  0  0  0  0  0  0  0  0
  138.2501   79.3147  224.2824 H   0  0  0  0  0  0  0  0  0  0  0  0
  139.5511   81.3902  224.5190 H   0  0  0  0  0  0  0  0  0  0  0  0
  141.6303   81.7295  223.1751 H   0  0  0  0  0  0  0  0  0  0  0  0
  142.3521   79.9431  221.6159 H   0  0  0  0  0  0  0  0  0  0  0  0
  141.1084   77.9471  220.0792 H   0  0  0  0  0  0  0  0  0  0  0  0
  142.2548   77.3427  221.3000 H   0  0  0  0  0  0  0  0  0  0  0  0
  142.2181   71.5729  218.8671 H   0  0  0  0  0  0  0  0  0  0  0  0
  143.3926   70.7248  219.8924 H   0  0  0  0  0  0  0  0  0  0  0  0
  143.8524   72.1858  217.2368 H   0  0  0  0  0  0  0  0  0  0  0  0
  144.3270   70.5121  217.6941 H   0  0  0  0  0  0  0  0  0  0  0  0
  1  2  1  0
  2  3  1  0
  3  4  1  0
  4  5  1  0
  5  6  1  0
  6  7  2  0
  7  8  1  0
  8  9  1  0
  9 10  1  0
 10 11  1  0
 11 12  1  0
 12 13  2  0
 13 14  1  0
 14 15  2  0
 15 16  1  0
 16 17  2  0
 17 18  1  0
  8 19  2  0
 19 20  1  0
 20 21  1  0
 21 22  1  0
 22 23  1  0
 23 24  1  0
 24 25  2  0
 25 26  1  0
 26 27  2  0
 27 28  1  0
 28 29  2  0
 29 30  1  0
 20 31  2  0
  5 32  1  0
 32 33  1  0
 33  2  1  0
 31  6  1  0
 18  9  1  0
 30 21  1  0
 17 12  1  0
 29 24  1  0
  1 34  1  0
  1 35  1  0
  2 36  1  6
  3 37  1  0
  3 38  1  0
  4 39  1  0
  4 40  1  0
  5 41  1  6
 10 42  1  0
 10 43  1  0
 11 44  1  0
 11 45  1  0
 13 46  1  0
 14 47  1  0
 15 48  1  0
 16 49  1  0
 18 50  1  0
 18 51  1  0
 22 52  1  0
 22 53  1  0
 23 54  1  0
 23 55  1  0
 25 56  1  0
 26 57  1  0
 27 58  1  0
 28 59  1  0
 30 60  1  0
 30 61  1  0
 32 62  1  0
 32 63  1  0
 33 64  1  0
 33 65  1  0
M  END
>  <smiles>  (50) 
N[C@H]1CC[C@H](c2nc(N3CCc4ccccc4C3)nc(N3CCc4ccccc4C3)n2)CC1

>  <score_type>  (50) 
oracle

>  <origin>  (50) 
autodockgpu

>  <m_score__min__energy>  (50) 
-10.24

>  <m_primary>  (50) 
energy

>  <rmsd>  (50) 
10.63371520272339

>  <m_score__min__rmsd>  (50) 
10.63371520272339

>  <meeko>  (50) 
{"free_energy": -10.22, "intermolecular_energy": -11.41, "internal_energy": -0.99, "cluster_size": 40, "cluster_id": 1, "rank_in_cluster": 3}

>  <energy>  (50) 
-9.64

>  <cluster_rmsd>  (50) 
0.79

>  <cluster>  (50) 
2

$$$$
