
     RDKit          3D

 51 55  0  0  0  0  0  0  0  0999 V2000
  143.6730   72.4630  220.8880 O   0  0  0  0  0  0  0  0  0  0  0  0
  142.7960   73.3570  220.8140 C   0  0  0  0  0  0  0  0  0  0  0  0
  143.1460   74.5980  220.0960 C   0  0  0  0  0  0  0  0  0  0  0  0
  141.9820   75.5070  220.1080 C   0  0  0  0  0  0  0  0  0  0  0  0
  142.1590   76.8090  219.4250 C   0  0  0  0  0  0  0  0  0  0  0  0
  142.5570   76.8660  218.0910 C   0  0  0  0  0  0  0  0  0  0  0  0
  142.7170   78.0940  217.4620 C   0  0  0  0  0  0  0  0  0  0  0  0
  142.4870   79.2940  218.1380 C   0  0  0  0  0  0  0  0  0  0  0  0
  142.0950   79.2330  219.4520 C   0  0  0  0  0  0  0  0  0  0  0  0
  141.8170   80.3970  220.2810 C   0  0  0  0  0  0  0  0  0  0  0  0
  141.3250   81.4030  219.6780 O   0  0  0  0  0  0  0  0  0  0  0  0
  142.0620   80.4480  221.6720 N   0  0  0  0  0  0  0  0  0  0  0  0
  142.6170   79.4540  222.5740 C   0  0  0  0  0  0  0  0  0  0  0  0
  141.6430   79.4820  223.7280 C   0  0  0  0  0  0  0  0  0  0  0  0
  141.1580   80.8960  223.7600 C   0  0  0  0  0  0  0  0  0  0  0  0
  141.7750   81.5840  222.5420 C   0  0  0  0  0  0  0  0  0  0  0  0
  141.9400   77.9960  220.0660 C   0  0  0  0  0  0  0  0  0  0  0  0
  140.8510   75.2740  220.6560 N   0  0  0  0  0  0  0  0  0  0  0  0
  140.5470   74.0660  221.3530 C   0  0  0  0  0  0  0  0  0  0  0  0
  139.3410   73.8140  221.9540 C   0  0  0  0  0  0  0  0  0  0  0  0
  139.1250   72.6180  222.6240 C   0  0  0  0  0  0  0  0  0  0  0  0
  140.0880   71.6390  222.7170 C   0  0  0  0  0  0  0  0  0  0  0  0
  139.8040   70.4130  223.4480 C   0  0  0  0  0  0  0  0  0  0  0  0
  140.2000   70.1890  224.7470 C   0  0  0  0  0  0  0  0  0  0  0  0
  139.9080   69.0100  225.4060 C   0  0  0  0  0  0  0  0  0  0  0  0
  140.4170   68.7240  227.0690 Cl  0  0  0  0  0  0  0  0  0  0  0  0
  139.1970   68.0060  224.7680 C   0  0  0  0  0  0  0  0  0  0  0  0
  138.8160   68.2630  223.4680 C   0  0  0  0  0  0  0  0  0  0  0  0
  139.1140   69.4290  222.8370 N   0  0  0  0  0  0  0  0  0  0  0  0
  141.2990   71.8850  222.1160 C   0  0  0  0  0  0  0  0  0  0  0  0
  141.5150   73.0920  221.4430 C   0  0  0  0  0  0  0  0  0  0  0  0
  143.9981   75.0839  220.5938 H   0  0  0  0  0  0  0  0  0  0  0  0
  143.4207   74.3608  219.0576 H   0  0  0  0  0  0  0  0  0  0  0  0
  142.7450   75.9360  217.5345 H   0  0  0  0  0  0  0  0  0  0  0  0
  143.0317   78.1218  216.4084 H   0  0  0  0  0  0  0  0  0  0  0  0
  142.6164   80.2617  217.6313 H   0  0  0  0  0  0  0  0  0  0  0  0
  142.6462   78.4608  222.1021 H   0  0  0  0  0  0  0  0  0  0  0  0
  143.6556   79.6617  222.8709 H   0  0  0  0  0  0  0  0  0  0  0  0
  140.8089   78.7867  223.5522 H   0  0  0  0  0  0  0  0  0  0  0  0
  142.1036   79.1715  224.6775 H   0  0  0  0  0  0  0  0  0  0  0  0
  140.0601   80.9244  223.6990 H   0  0  0  0  0  0  0  0  0  0  0  0
  141.4471   81.3988  224.6947 H   0  0  0  0  0  0  0  0  0  0  0  0
  141.0641   82.2793  222.0717 H   0  0  0  0  0  0  0  0  0  0  0  0
  142.6559   82.1997  222.7764 H   0  0  0  0  0  0  0  0  0  0  0  0
  141.6256   77.9710  221.1198 H   0  0  0  0  0  0  0  0  0  0  0  0
  138.5388   74.5651  221.9049 H   0  0  0  0  0  0  0  0  0  0  0  0
  138.1476   72.4460  223.0985 H   0  0  0  0  0  0  0  0  0  0  0  0
  140.7650   70.9708  225.2757 H   0  0  0  0  0  0  0  0  0  0  0  0
  138.9508   67.0586  225.2698 H   0  0  0  0  0  0  0  0  0  0  0  0
  138.2494   67.4951  222.9210 H   0  0  0  0  0  0  0  0  0  0  0  0
  142.0994   71.1319  222.1642 H   0  0  0  0  0  0  0  0  0  0  0  0
  1  2  2  0
  2  3  1  0
  3  4  1  0
  4  5  1  0
  5  6  2  0
  6  7  1  0
  7  8  2  0
  8  9  1  0
  9 10  1  0
 10 11  2  0
 10 12  1  0
 12 13  1  0
 13 14  1  0
 14 15  1  0
 15 16  1  0
  9 17  2  0
  4 18  2  0
 18 19  1  0
 19 20  2  0
 20 21  1  0
 21 22  2  0
 22 23  1  0
 23 24  2  0
 24 25  1  0
 25 26  1  0
 25 27  2  0
 27 28  1  0
 28 29  2  0
 22 30  1  0
 30 31  2  0
 31  2  1  0
 17  5  1  0
 31 19  1  0
 16 12  1  0
 29 23  1  0
  3 32  1  0
  3 33  1  0
  6 34  1  0
  7 35  1  0
  8 36  1  0
 13 37  1  0
 13 38  1  0
 14 39  1  0
 14 40  1  0
 15 41  1  0
 15 42  1  0
 16 43  1  0
 16 44  1  0
 17 45  1  0
 20 46  1  0
 21 47  1  0
 24 48  1  0
 27 49  1  0
 28 50  1  0
 30 51  1  0
M  END
>  <smiles>  (1) 
O=C1CC(c2cccc(C(=O)N3CCCC3)c2)=Nc2ccc(-c3cc(Cl)ccn3)cc21

>  <score_type>  (1) 
oracle

>  <origin>  (1) 
autodockgpu

>  <m_score__min__energy>  (1) 
-9.0099999999999998

>  <m_primary>  (1) 
energy

>  <rmsd>  (1) 
8.358406084887589

>  <m_score__min__rmsd>  (1) 
8.358406084887589

>  <meeko>  (1) 
{"free_energy": -8.3, "intermolecular_energy": -9.19, "internal_energy": -0.94, "cluster_size": 7, "cluster_id": 3, "rank_in_cluster": 4}

>  <energy>  (1) 
-9.01

>  <cluster_rmsd>  (1) 
0.0

>  <cluster>  (1) 
1

$$$$

     RDKit          3D

 51 55  0  0  0  0  0  0  0  0999 V2000
  142.9370   74.8890  220.3370 O   0  0  0  0  0  0  0  0  0  0  0  0
  141.9010   74.5570  220.9600 C   0  0  0  0  0  0  0  0  0  0  0  0
  141.6140   73.1150  221.0880 C   0  0  0  0  0  0  0  0  0  0  0  0
  140.3690   72.9370  221.8620 C   0  0  0  0  0  0  0  0  0  0  0  0
  139.9310   71.5400  222.0880 C   0  0  0  0  0  0  0  0  0  0  0  0
  139.6360   70.7030  221.0150 C   0  0  0  0  0  0  0  0  0  0  0  0
  139.2290   69.3940  221.2410 C   0  0  0  0  0  0  0  0  0  0  0  0
  139.1040   68.8840  222.5350 C   0  0  0  0  0  0  0  0  0  0  0  0
  139.3950   69.7130  223.5890 C   0  0  0  0  0  0  0  0  0  0  0  0
  139.3130   69.3210  224.9880 C   0  0  0  0  0  0  0  0  0  0  0  0
  138.8520   68.1570  225.2120 O   0  0  0  0  0  0  0  0  0  0  0  0
  139.7100   70.1490  226.0620 N   0  0  0  0  0  0  0  0  0  0  0  0
  140.2500   71.4980  226.0690 C   0  0  0  0  0  0  0  0  0  0  0  0
  141.4300   71.3720  227.0030 C   0  0  0  0  0  0  0  0  0  0  0  0
  141.0140   70.3130  227.9730 C   0  0  0  0  0  0  0  0  0  0  0  0
  139.6680   69.7850  227.4750 C   0  0  0  0  0  0  0  0  0  0  0  0
  139.8010   71.0190  223.3450 C   0  0  0  0  0  0  0  0  0  0  0  0
  139.6410   73.8710  222.3430 N   0  0  0  0  0  0  0  0  0  0  0  0
  139.9420   75.2590  222.1930 C   0  0  0  0  0  0  0  0  0  0  0  0
  139.1590   76.2670  222.6950 C   0  0  0  0  0  0  0  0  0  0  0  0
  139.5110   77.5950  222.4980 C   0  0  0  0  0  0  0  0  0  0  0  0
  140.6410   77.9650  221.8050 C   0  0  0  0  0  0  0  0  0  0  0  0
  140.9470   79.3750  221.6200 C   0  0  0  0  0  0  0  0  0  0  0  0
  141.0630   79.9750  220.3860 C   0  0  0  0  0  0  0  0  0  0  0  0
  141.3530   81.3200  220.2530 C   0  0  0  0  0  0  0  0  0  0  0  0
  141.5030   82.0870  218.6740 Cl  0  0  0  0  0  0  0  0  0  0  0  0
  141.5360   82.1140  221.3750 C   0  0  0  0  0  0  0  0  0  0  0  0
  141.4130   81.4810  222.5940 C   0  0  0  0  0  0  0  0  0  0  0  0
  141.1290   80.1560  222.7030 N   0  0  0  0  0  0  0  0  0  0  0  0
  141.4310   76.9580  221.3000 C   0  0  0  0  0  0  0  0  0  0  0  0
  141.0720   75.6210  221.4990 C   0  0  0  0  0  0  0  0  0  0  0  0
  141.4923   72.6734  220.0879 H   0  0  0  0  0  0  0  0  0  0  0  0
  142.4466   72.6159  221.6054 H   0  0  0  0  0  0  0  0  0  0  0  0
  139.7255   71.0794  219.9853 H   0  0  0  0  0  0  0  0  0  0  0  0
  139.0004   68.7455  220.3824 H   0  0  0  0  0  0  0  0  0  0  0  0
  138.7811   67.8462  222.7047 H   0  0  0  0  0  0  0  0  0  0  0  0
  140.5707   71.8032  225.0620 H   0  0  0  0  0  0  0  0  0  0  0  0
  139.5218   72.2606  226.3824 H   0  0  0  0  0  0  0  0  0  0  0  0
  142.3324   71.0658  226.4535 H   0  0  0  0  0  0  0  0  0  0  0  0
  141.6817   72.3222  227.4967 H   0  0  0  0  0  0  0  0  0  0  0  0
  141.7573   69.5024  227.9949 H   0  0  0  0  0  0  0  0  0  0  0  0
  140.9350   70.7131  228.9946 H   0  0  0  0  0  0  0  0  0  0  0  0
  139.5916   68.6955  227.6060 H   0  0  0  0  0  0  0  0  0  0  0  0
  138.8013   70.1936  228.0152 H   0  0  0  0  0  0  0  0  0  0  0  0
  140.0290   71.6654  224.2054 H   0  0  0  0  0  0  0  0  0  0  0  0
  138.2461   76.0213  223.2574 H   0  0  0  0  0  0  0  0  0  0  0  0
  138.8624   78.3814  222.9113 H   0  0  0  0  0  0  0  0  0  0  0  0
  140.9209   79.3668  219.4805 H   0  0  0  0  0  0  0  0  0  0  0  0
  141.7660   83.1869  221.2972 H   0  0  0  0  0  0  0  0  0  0  0  0
  141.5498   82.0704  223.5127 H   0  0  0  0  0  0  0  0  0  0  0  0
  142.3450   77.2045  220.7397 H   0  0  0  0  0  0  0  0  0  0  0  0
  1  2  2  0
  2  3  1  0
  3  4  1  0
  4  5  1  0
  5  6  2  0
  6  7  1  0
  7  8  2  0
  8  9  1  0
  9 10  1  0
 10 11  2  0
 10 12  1  0
 12 13  1  0
 13 14  1  0
 14 15  1  0
 15 16  1  0
  9 17  2  0
  4 18  2  0
 18 19  1  0
 19 20  2  0
 20 21  1  0
 21 22  2  0
 22 23  1  0
 23 24  2  0
 24 25  1  0
 25 26  1  0
 25 27  2  0
 27 28  1  0
 28 29  2  0
 22 30  1  0
 30 31  2  0
 31  2  1  0
 17  5  1  0
 31 19  1  0
 16 12  1  0
 29 23  1  0
  3 32  1  0
  3 33  1  0
  6 34  1  0
  7 35  1  0
  8 36  1  0
 13 37  1  0
 13 38  1  0
 14 39  1  0
 14 40  1  0
 15 41  1  0
 15 42  1  0
 16 43  1  0
 16 44  1  0
 17 45  1  0
 20 46  1  0
 21 47  1  0
 24 48  1  0
 27 49  1  0
 28 50  1  0
 30 51  1  0
M  END
>  <smiles>  (2) 
O=C1CC(c2cccc(C(=O)N3CCCC3)c2)=Nc2ccc(-c3cc(Cl)ccn3)cc21

>  <score_type>  (2) 
oracle

>  <origin>  (2) 
autodockgpu

>  <m_score__min__energy>  (2) 
-9.0099999999999998

>  <m_primary>  (2) 
energy

>  <rmsd>  (2) 
6.223719513527759

>  <m_score__min__rmsd>  (2) 
6.223719513527759

>  <meeko>  (2) 
{"free_energy": -8.95, "intermolecular_energy": -9.84, "internal_energy": -0.71, "cluster_size": 34, "cluster_id": 1, "rank_in_cluster": 13}

>  <energy>  (2) 
-8.99

>  <cluster_rmsd>  (2) 
0.04

>  <cluster>  (2) 
1

$$$$

     RDKit          3D

 51 55  0  0  0  0  0  0  0  0999 V2000
  142.6480   74.7580  218.9230 O   0  0  0  0  0  0  0  0  0  0  0  0
  141.9070   74.7110  219.9340 C   0  0  0  0  0  0  0  0  0  0  0  0
  141.6030   73.3800  220.4960 C   0  0  0  0  0  0  0  0  0  0  0  0
  140.7370   73.5420  221.6810 C   0  0  0  0  0  0  0  0  0  0  0  0
  140.3330   72.2970  222.3750 C   0  0  0  0  0  0  0  0  0  0  0  0
  139.6610   71.2860  221.6900 C   0  0  0  0  0  0  0  0  0  0  0  0
  139.2910   70.1230  222.3520 C   0  0  0  0  0  0  0  0  0  0  0  0
  139.5750   69.9330  223.7060 C   0  0  0  0  0  0  0  0  0  0  0  0
  140.2360   70.9330  224.3760 C   0  0  0  0  0  0  0  0  0  0  0  0
  140.6010   70.8740  225.7830 C   0  0  0  0  0  0  0  0  0  0  0  0
  140.8390   71.9920  226.3420 O   0  0  0  0  0  0  0  0  0  0  0  0
  140.6960   69.6730  226.5220 N   0  0  0  0  0  0  0  0  0  0  0  0
  140.4870   68.2930  226.1180 C   0  0  0  0  0  0  0  0  0  0  0  0
  139.6010   67.7620  227.2200 C   0  0  0  0  0  0  0  0  0  0  0  0
  140.0180   68.5380  228.4280 C   0  0  0  0  0  0  0  0  0  0  0  0
  141.0330   69.5720  227.9390 C   0  0  0  0  0  0  0  0  0  0  0  0
  140.5990   72.0890  223.6980 C   0  0  0  0  0  0  0  0  0  0  0  0
  140.3050   74.6500  222.1520 N   0  0  0  0  0  0  0  0  0  0  0  0
  140.6100   75.9210  221.5790 C   0  0  0  0  0  0  0  0  0  0  0  0
  140.1400   77.1130  222.0710 C   0  0  0  0  0  0  0  0  0  0  0  0
  140.4720   78.3090  221.4510 C   0  0  0  0  0  0  0  0  0  0  0  0
  141.2750   78.3650  220.3340 C   0  0  0  0  0  0  0  0  0  0  0  0
  141.5740   79.6500  219.7220 C   0  0  0  0  0  0  0  0  0  0  0  0
  141.0680   80.8480  220.1770 C   0  0  0  0  0  0  0  0  0  0  0  0
  141.3780   82.0490  219.5670 C   0  0  0  0  0  0  0  0  0  0  0  0
  140.7300   83.5810  220.1480 Cl  0  0  0  0  0  0  0  0  0  0  0  0
  142.2190   82.0820  218.4650 C   0  0  0  0  0  0  0  0  0  0  0  0
  142.7060   80.8650  218.0370 C   0  0  0  0  0  0  0  0  0  0  0  0
  142.3890   79.6940  218.6490 N   0  0  0  0  0  0  0  0  0  0  0  0
  141.7500   77.1740  219.8370 C   0  0  0  0  0  0  0  0  0  0  0  0
  141.4130   75.9700  220.4630 C   0  0  0  0  0  0  0  0  0  0  0  0
  141.0840   72.7712  219.7410 H   0  0  0  0  0  0  0  0  0  0  0  0
  142.5378   72.8780  220.7861 H   0  0  0  0  0  0  0  0  0  0  0  0
  139.4234   71.4098  220.6231 H   0  0  0  0  0  0  0  0  0  0  0  0
  138.7624   69.3336  221.7975 H   0  0  0  0  0  0  0  0  0  0  0  0
  139.2775   69.0080  224.2216 H   0  0  0  0  0  0  0  0  0  0  0  0
  139.9843   68.2363  225.1413 H   0  0  0  0  0  0  0  0  0  0  0  0
  141.4211   67.7256  225.9937 H   0  0  0  0  0  0  0  0  0  0  0  0
  138.5405   67.9398  226.9884 H   0  0  0  0  0  0  0  0  0  0  0  0
  139.7048   66.6758  227.3591 H   0  0  0  0  0  0  0  0  0  0  0  0
  139.1487   69.0397  228.8781 H   0  0  0  0  0  0  0  0  0  0  0  0
  140.4518   67.8818  229.1969 H   0  0  0  0  0  0  0  0  0  0  0  0
  140.9015   70.5362  228.4518 H   0  0  0  0  0  0  0  0  0  0  0  0
  142.0800   69.2937  228.1295 H   0  0  0  0  0  0  0  0  0  0  0  0
  141.1275   72.8769  224.2547 H   0  0  0  0  0  0  0  0  0  0  0  0
  139.4959   77.1202  222.9627 H   0  0  0  0  0  0  0  0  0  0  0  0
  140.0788   79.2480  221.8677 H   0  0  0  0  0  0  0  0  0  0  0  0
  140.3987   80.8487  221.0500 H   0  0  0  0  0  0  0  0  0  0  0  0
  142.4823   83.0240  217.9616 H   0  0  0  0  0  0  0  0  0  0  0  0
  143.3774   80.8412  217.1660 H   0  0  0  0  0  0  0  0  0  0  0  0
  142.3955   77.1685  218.9464 H   0  0  0  0  0  0  0  0  0  0  0  0
  1  2  2  0
  2  3  1  0
  3  4  1  0
  4  5  1  0
  5  6  2  0
  6  7  1  0
  7  8  2  0
  8  9  1  0
  9 10  1  0
 10 11  2  0
 10 12  1  0
 12 13  1  0
 13 14  1  0
 14 15  1  0
 15 16  1  0
  9 17  2  0
  4 18  2  0
 18 19  1  0
 19 20  2  0
 20 21  1  0
 21 22  2  0
 22 23  1  0
 23 24  2  0
 24 25  1  0
 25 26  1  0
 25 27  2  0
 27 28  1  0
 28 29  2  0
 22 30  1  0
 30 31  2  0
 31  2  1  0
 17  5  1  0
 31 19  1  0
 16 12  1  0
 29 23  1  0
  3 32  1  0
  3 33  1  0
  6 34  1  0
  7 35  1  0
  8 36  1  0
 13 37  1  0
 13 38  1  0
 14 39  1  0
 14 40  1  0
 15 41  1  0
 15 42  1  0
 16 43  1  0
 16 44  1  0
 17 45  1  0
 20 46  1  0
 21 47  1  0
 24 48  1  0
 27 49  1  0
 28 50  1  0
 30 51  1  0
M  END
>  <smiles>  (3) 
O=C1CC(c2cccc(C(=O)N3CCCC3)c2)=Nc2ccc(-c3cc(Cl)ccn3)cc21

>  <score_type>  (3) 
oracle

>  <origin>  (3) 
autodockgpu

>  <m_score__min__energy>  (3) 
-9.0099999999999998

>  <m_primary>  (3) 
energy

>  <rmsd>  (3) 
7.368901120231877

>  <m_score__min__rmsd>  (3) 
7.368901120231877

>  <meeko>  (3) 
{"free_energy": -8.73, "intermolecular_energy": -9.62, "internal_energy": -0.87, "cluster_size": 34, "cluster_id": 1, "rank_in_cluster": 28}

>  <energy>  (3) 
-8.99

>  <cluster_rmsd>  (3) 
0.19

>  <cluster>  (3) 
1

$$$$

     RDKit          3D

 51 55  0  0  0  0  0  0  0  0999 V2000
  142.9230   74.4620  220.4940 O   0  0  0  0  0  0  0  0  0  0  0  0
  141.8350   74.1910  221.0550 C   0  0  0  0  0  0  0  0  0  0  0  0
  141.4820   72.7660  221.2090 C   0  0  0  0  0  0  0  0  0  0  0  0
  140.1830   72.6610  221.9020 C   0  0  0  0  0  0  0  0  0  0  0  0
  139.6750   71.2910  222.1420 C   0  0  0  0  0  0  0  0  0  0  0  0
  139.1490   70.5330  221.0970 C   0  0  0  0  0  0  0  0  0  0  0  0
  138.6790   69.2480  221.3350 C   0  0  0  0  0  0  0  0  0  0  0  0
  138.7170   68.6840  222.6120 C   0  0  0  0  0  0  0  0  0  0  0  0
  139.2350   69.4340  223.6370 C   0  0  0  0  0  0  0  0  0  0  0  0
  139.3420   68.9780  225.0150 C   0  0  0  0  0  0  0  0  0  0  0  0
  139.1270   67.7400  225.2090 O   0  0  0  0  0  0  0  0  0  0  0  0
  139.6630   69.8240  226.1010 N   0  0  0  0  0  0  0  0  0  0  0  0
  139.9390   71.2500  226.1420 C   0  0  0  0  0  0  0  0  0  0  0  0
  141.1940   71.3150  226.9800 C   0  0  0  0  0  0  0  0  0  0  0  0
  141.0640   70.1580  227.9190 C   0  0  0  0  0  0  0  0  0  0  0  0
  139.8050   69.4030  227.4920 C   0  0  0  0  0  0  0  0  0  0  0  0
  139.7010   70.7180  223.3810 C   0  0  0  0  0  0  0  0  0  0  0  0
  139.4630   73.6390  222.3030 N   0  0  0  0  0  0  0  0  0  0  0  0
  139.8280   75.0080  222.1320 C   0  0  0  0  0  0  0  0  0  0  0  0
  139.0560   76.0620  222.5480 C   0  0  0  0  0  0  0  0  0  0  0  0
  139.4730   77.3680  222.3340 C   0  0  0  0  0  0  0  0  0  0  0  0
  140.6610   77.6710  221.7080 C   0  0  0  0  0  0  0  0  0  0  0  0
  141.0350   79.0610  221.5000 C   0  0  0  0  0  0  0  0  0  0  0  0
  141.2500   79.6160  220.2580 C   0  0  0  0  0  0  0  0  0  0  0  0
  141.6020   80.9440  220.1040 C   0  0  0  0  0  0  0  0  0  0  0  0
  141.8780   81.6530  218.5150 Cl  0  0  0  0  0  0  0  0  0  0  0  0
  141.7500   81.7660  221.2110 C   0  0  0  0  0  0  0  0  0  0  0  0
  141.5280   81.1770  222.4380 C   0  0  0  0  0  0  0  0  0  0  0  0
  141.1830   79.8690  222.5690 N   0  0  0  0  0  0  0  0  0  0  0  0
  141.4410   76.6180  221.2890 C   0  0  0  0  0  0  0  0  0  0  0  0
  141.0160   75.3030  221.5040 C   0  0  0  0  0  0  0  0  0  0  0  0
  141.4093   72.2955  220.2173 H   0  0  0  0  0  0  0  0  0  0  0  0
  142.2577   72.2541  221.7974 H   0  0  0  0  0  0  0  0  0  0  0  0
  139.1061   70.9536  220.0815 H   0  0  0  0  0  0  0  0  0  0  0  0
  138.2680   68.6619  220.4998 H   0  0  0  0  0  0  0  0  0  0  0  0
  138.3416   67.6657  222.7910 H   0  0  0  0  0  0  0  0  0  0  0  0
  140.1137   71.6505  225.1325 H   0  0  0  0  0  0  0  0  0  0  0  0
  139.1086   71.8463  226.5481 H   0  0  0  0  0  0  0  0  0  0  0  0
  142.0900   71.2088  226.3508 H   0  0  0  0  0  0  0  0  0  0  0  0
  141.3026   72.2755  227.5050 H   0  0  0  0  0  0  0  0  0  0  0  0
  141.9452   69.5041  227.8430 H   0  0  0  0  0  0  0  0  0  0  0  0
  140.9949   70.4949  228.9638 H   0  0  0  0  0  0  0  0  0  0  0  0
  139.9449   68.3147  227.5690 H   0  0  0  0  0  0  0  0  0  0  0  0
  138.9239   69.6170  228.1148 H   0  0  0  0  0  0  0  0  0  0  0  0
  140.1112   71.3017  224.2183 H   0  0  0  0  0  0  0  0  0  0  0  0
  138.0988   75.8708  223.0552 H   0  0  0  0  0  0  0  0  0  0  0  0
  138.8303   78.1920  222.6774 H   0  0  0  0  0  0  0  0  0  0  0  0
  141.1385   78.9851  219.3638 H   0  0  0  0  0  0  0  0  0  0  0  0
  142.0282   82.8260  221.1159 H   0  0  0  0  0  0  0  0  0  0  0  0
  141.6342   81.7894  223.3456 H   0  0  0  0  0  0  0  0  0  0  0  0
  142.3994   76.8104  220.7846 H   0  0  0  0  0  0  0  0  0  0  0  0
  1  2  2  0
  2  3  1  0
  3  4  1  0
  4  5  1  0
  5  6  2  0
  6  7  1  0
  7  8  2  0
  8  9  1  0
  9 10  1  0
 10 11  2  0
 10 12  1  0
 12 13  1  0
 13 14  1  0
 14 15  1  0
 15 16  1  0
  9 17  2  0
  4 18  2  0
 18 19  1  0
 19 20  2  0
 20 21  1  0
 21 22  2  0
 22 23  1  0
 23 24  2  0
 24 25  1  0
 25 26  1  0
 25 27  2  0
 27 28  1  0
 28 29  2  0
 22 30  1  0
 30 31  2  0
 31  2  1  0
 17  5  1  0
 31 19  1  0
 16 12  1  0
 29 23  1  0
  3 32  1  0
  3 33  1  0
  6 34  1  0
  7 35  1  0
  8 36  1  0
 13 37  1  0
 13 38  1  0
 14 39  1  0
 14 40  1  0
 15 41  1  0
 15 42  1  0
 16 43  1  0
 16 44  1  0
 17 45  1  0
 20 46  1  0
 21 47  1  0
 24 48  1  0
 27 49  1  0
 28 50  1  0
 30 51  1  0
M  END
>  <smiles>  (4) 
O=C1CC(c2cccc(C(=O)N3CCCC3)c2)=Nc2ccc(-c3cc(Cl)ccn3)cc21

>  <score_type>  (4) 
oracle

>  <origin>  (4) 
autodockgpu

>  <m_score__min__energy>  (4) 
-9.0099999999999998

>  <m_primary>  (4) 
energy

>  <rmsd>  (4) 
6.09704857815589

>  <m_score__min__rmsd>  (4) 
6.09704857815589

>  <meeko>  (4) 
{"free_energy": -8.95, "intermolecular_energy": -9.85, "internal_energy": -0.75, "cluster_size": 34, "cluster_id": 1, "rank_in_cluster": 12}

>  <energy>  (4) 
-8.99

>  <cluster_rmsd>  (4) 
0.08

>  <cluster>  (4) 
1

$$$$

     RDKit          3D

 51 55  0  0  0  0  0  0  0  0999 V2000
  141.5380   81.2380  224.2160 O   0  0  0  0  0  0  0  0  0  0  0  0
  140.9340   80.4330  223.4690 C   0  0  0  0  0  0  0  0  0  0  0  0
  141.7360   79.6780  222.4870 C   0  0  0  0  0  0  0  0  0  0  0  0
  140.8460   78.7810  221.7230 C   0  0  0  0  0  0  0  0  0  0  0  0
  141.4920   77.9420  220.6870 C   0  0  0  0  0  0  0  0  0  0  0  0
  141.9590   78.5060  219.5020 C   0  0  0  0  0  0  0  0  0  0  0  0
  142.5650   77.7090  218.5400 C   0  0  0  0  0  0  0  0  0  0  0  0
  142.7230   76.3340  218.7280 C   0  0  0  0  0  0  0  0  0  0  0  0
  142.2610   75.7830  219.8980 C   0  0  0  0  0  0  0  0  0  0  0  0
  142.3590   74.3700  220.2330 C   0  0  0  0  0  0  0  0  0  0  0  0
  141.2580   73.7370  220.2990 O   0  0  0  0  0  0  0  0  0  0  0  0
  143.5810   73.7030  220.4760 N   0  0  0  0  0  0  0  0  0  0  0  0
  144.9480   74.1950  220.4700 C   0  0  0  0  0  0  0  0  0  0  0  0
  145.6650   73.1570  219.6400 C   0  0  0  0  0  0  0  0  0  0  0  0
  144.9180   71.8910  219.9160 C   0  0  0  0  0  0  0  0  0  0  0  0
  143.7250   72.2840  220.7890 C   0  0  0  0  0  0  0  0  0  0  0  0
  141.6580   76.5950  220.8490 C   0  0  0  0  0  0  0  0  0  0  0  0
  139.5820   78.6700  221.8720 N   0  0  0  0  0  0  0  0  0  0  0  0
  138.8320   79.4220  222.8260 C   0  0  0  0  0  0  0  0  0  0  0  0
  137.4730   79.3190  222.9820 C   0  0  0  0  0  0  0  0  0  0  0  0
  136.8130   80.0930  223.9250 C   0  0  0  0  0  0  0  0  0  0  0  0
  137.4710   80.9870  224.7390 C   0  0  0  0  0  0  0  0  0  0  0  0
  136.7180   81.7810  225.6980 C   0  0  0  0  0  0  0  0  0  0  0  0
  136.4690   81.3810  226.9920 C   0  0  0  0  0  0  0  0  0  0  0  0
  135.7500   82.1680  227.8730 C   0  0  0  0  0  0  0  0  0  0  0  0
  135.4310   81.6550  229.5280 Cl  0  0  0  0  0  0  0  0  0  0  0  0
  135.2540   83.3990  227.4720 C   0  0  0  0  0  0  0  0  0  0  0  0
  135.5210   83.7670  226.1700 C   0  0  0  0  0  0  0  0  0  0  0  0
  136.2290   82.9790  225.3190 N   0  0  0  0  0  0  0  0  0  0  0  0
  138.8330   81.0950  224.5880 C   0  0  0  0  0  0  0  0  0  0  0  0
  139.4960   80.3140  223.6360 C   0  0  0  0  0  0  0  0  0  0  0  0
  142.2311   80.3791  221.7989 H   0  0  0  0  0  0  0  0  0  0  0  0
  142.4996   79.0841  223.0107 H   0  0  0  0  0  0  0  0  0  0  0  0
  141.8473   79.5864  219.3278 H   0  0  0  0  0  0  0  0  0  0  0  0
  142.9284   78.1703  217.6099 H   0  0  0  0  0  0  0  0  0  0  0  0
  143.2040   75.7100  217.9604 H   0  0  0  0  0  0  0  0  0  0  0  0
  145.0106   75.1894  220.0039 H   0  0  0  0  0  0  0  0  0  0  0  0
  145.3730   74.3217  221.4766 H   0  0  0  0  0  0  0  0  0  0  0  0
  145.6197   73.4122  218.5710 H   0  0  0  0  0  0  0  0  0  0  0  0
  146.7334   73.0803  219.8901 H   0  0  0  0  0  0  0  0  0  0  0  0
  144.5702   71.4400  218.9749 H   0  0  0  0  0  0  0  0  0  0  0  0
  145.5563   71.1491  220.4182 H   0  0  0  0  0  0  0  0  0  0  0  0
  142.8227   71.7191  220.5121 H   0  0  0  0  0  0  0  0  0  0  0  0
  143.8686   72.0761  221.8596 H   0  0  0  0  0  0  0  0  0  0  0  0
  141.2960   76.1315  221.7786 H   0  0  0  0  0  0  0  0  0  0  0  0
  136.9028   78.6178  222.3550 H   0  0  0  0  0  0  0  0  0  0  0  0
  135.7227   79.9885  224.0262 H   0  0  0  0  0  0  0  0  0  0  0  0
  136.8526   80.4086  227.3343 H   0  0  0  0  0  0  0  0  0  0  0  0
  134.6805   84.0449  228.1531 H   0  0  0  0  0  0  0  0  0  0  0  0
  135.1465   84.7353  225.8065 H   0  0  0  0  0  0  0  0  0  0  0  0
  139.4018   81.7962  225.2164 H   0  0  0  0  0  0  0  0  0  0  0  0
  1  2  2  0
  2  3  1  0
  3  4  1  0
  4  5  1  0
  5  6  2  0
  6  7  1  0
  7  8  2  0
  8  9  1  0
  9 10  1  0
 10 11  2  0
 10 12  1  0
 12 13  1  0
 13 14  1  0
 14 15  1  0
 15 16  1  0
  9 17  2  0
  4 18  2  0
 18 19  1  0
 19 20  2  0
 20 21  1  0
 21 22  2  0
 22 23  1  0
 23 24  2  0
 24 25  1  0
 25 26  1  0
 25 27  2  0
 27 28  1  0
 28 29  2  0
 22 30  1  0
 30 31  2  0
 31  2  1  0
 17  5  1  0
 31 19  1  0
 16 12  1  0
 29 23  1  0
  3 32  1  0
  3 33  1  0
  6 34  1  0
  7 35  1  0
  8 36  1  0
 13 37  1  0
 13 38  1  0
 14 39  1  0
 14 40  1  0
 15 41  1  0
 15 42  1  0
 16 43  1  0
 16 44  1  0
 17 45  1  0
 20 46  1  0
 21 47  1  0
 24 48  1  0
 27 49  1  0
 28 50  1  0
 30 51  1  0
M  END
>  <smiles>  (5) 
O=C1CC(c2cccc(C(=O)N3CCCC3)c2)=Nc2ccc(-c3cc(Cl)ccn3)cc21

>  <score_type>  (5) 
oracle

>  <origin>  (5) 
autodockgpu

>  <m_score__min__energy>  (5) 
-9.0099999999999998

>  <m_primary>  (5) 
energy

>  <rmsd>  (5) 
9.097159748354516

>  <m_score__min__rmsd>  (5) 
9.097159748354516

>  <meeko>  (5) 
{"free_energy": -8.35, "intermolecular_energy": -9.24, "internal_energy": -0.97, "cluster_size": 8, "cluster_id": 2, "rank_in_cluster": 1}

>  <energy>  (5) 
-8.98

>  <cluster_rmsd>  (5) 
0.06

>  <cluster>  (5) 
1

$$$$

     RDKit          3D

 51 55  0  0  0  0  0  0  0  0999 V2000
  142.9630   74.1910  220.5520 O   0  0  0  0  0  0  0  0  0  0  0  0
  141.8500   73.9450  221.0750 C   0  0  0  0  0  0  0  0  0  0  0  0
  141.4900   72.5280  221.2790 C   0  0  0  0  0  0  0  0  0  0  0  0
  140.1600   72.4540  221.9160 C   0  0  0  0  0  0  0  0  0  0  0  0
  139.6410   71.0950  222.1960 C   0  0  0  0  0  0  0  0  0  0  0  0
  139.0980   70.3160  221.1770 C   0  0  0  0  0  0  0  0  0  0  0  0
  138.6180   69.0430  221.4530 C   0  0  0  0  0  0  0  0  0  0  0  0
  138.6620   68.5110  222.7440 C   0  0  0  0  0  0  0  0  0  0  0  0
  139.1980   69.2830  223.7440 C   0  0  0  0  0  0  0  0  0  0  0  0
  139.3140   68.8620  225.1320 C   0  0  0  0  0  0  0  0  0  0  0  0
  139.0960   67.6300  225.3590 O   0  0  0  0  0  0  0  0  0  0  0  0
  139.6460   69.7340  226.1940 N   0  0  0  0  0  0  0  0  0  0  0  0
  139.9270   71.1600  226.1960 C   0  0  0  0  0  0  0  0  0  0  0  0
  141.1890   71.2410  227.0230 C   0  0  0  0  0  0  0  0  0  0  0  0
  141.0620   70.1100  227.9920 C   0  0  0  0  0  0  0  0  0  0  0  0
  139.7970   69.3490  227.5930 C   0  0  0  0  0  0  0  0  0  0  0  0
  139.6740   70.5540  223.4500 C   0  0  0  0  0  0  0  0  0  0  0  0
  139.4230   73.4480  222.2370 N   0  0  0  0  0  0  0  0  0  0  0  0
  139.7970   74.8080  222.0180 C   0  0  0  0  0  0  0  0  0  0  0  0
  139.0060   75.8790  222.3480 C   0  0  0  0  0  0  0  0  0  0  0  0
  139.4340   77.1740  222.0930 C   0  0  0  0  0  0  0  0  0  0  0  0
  140.6490   77.4490  221.5080 C   0  0  0  0  0  0  0  0  0  0  0  0
  141.0330   78.8290  221.2530 C   0  0  0  0  0  0  0  0  0  0  0  0
  141.3750   79.3080  220.0070 C   0  0  0  0  0  0  0  0  0  0  0  0
  141.7310   80.6280  219.8060 C   0  0  0  0  0  0  0  0  0  0  0  0
  142.1700   81.2400  218.2130 Cl  0  0  0  0  0  0  0  0  0  0  0  0
  141.7550   81.5200  220.8680 C   0  0  0  0  0  0  0  0  0  0  0  0
  141.4070   81.0070  222.1000 C   0  0  0  0  0  0  0  0  0  0  0  0
  141.0610   79.7040  222.2770 N   0  0  0  0  0  0  0  0  0  0  0  0
  141.4470   76.3790  221.1760 C   0  0  0  0  0  0  0  0  0  0  0  0
  141.0130   75.0760  221.4330 C   0  0  0  0  0  0  0  0  0  0  0  0
  141.4626   72.0115  220.3082 H   0  0  0  0  0  0  0  0  0  0  0  0
  142.2377   72.0452  221.9254 H   0  0  0  0  0  0  0  0  0  0  0  0
  139.0494   70.7104  220.1513 H   0  0  0  0  0  0  0  0  0  0  0  0
  138.1935   68.4397  220.6370 H   0  0  0  0  0  0  0  0  0  0  0  0
  138.2778   67.5017  222.9531 H   0  0  0  0  0  0  0  0  0  0  0  0
  140.0955   71.5338  225.1753 H   0  0  0  0  0  0  0  0  0  0  0  0
  139.1019   71.7699  226.5924 H   0  0  0  0  0  0  0  0  0  0  0  0
  142.0797   71.1149  226.3899 H   0  0  0  0  0  0  0  0  0  0  0  0
  141.3052   72.2142  227.5223 H   0  0  0  0  0  0  0  0  0  0  0  0
  141.9404   69.4511  227.9268 H   0  0  0  0  0  0  0  0  0  0  0  0
  141.0018   70.4738  229.0283 H   0  0  0  0  0  0  0  0  0  0  0  0
  139.9337   68.2625  227.6969 H   0  0  0  0  0  0  0  0  0  0  0  0
  138.9213   69.5826  228.2164 H   0  0  0  0  0  0  0  0  0  0  0  0
  140.0987   71.1551  224.2675 H   0  0  0  0  0  0  0  0  0  0  0  0
  138.0259   75.7101  222.8179 H   0  0  0  0  0  0  0  0  0  0  0  0
  138.7775   78.0124  222.3688 H   0  0  0  0  0  0  0  0  0  0  0  0
  141.3643   78.6204  219.1484 H   0  0  0  0  0  0  0  0  0  0  0  0
  142.0354   82.5754  220.7352 H   0  0  0  0  0  0  0  0  0  0  0  0
  141.4094   81.6772  222.9723 H   0  0  0  0  0  0  0  0  0  0  0  0
  142.4277   76.5493  220.7078 H   0  0  0  0  0  0  0  0  0  0  0  0
  1  2  2  0
  2  3  1  0
  3  4  1  0
  4  5  1  0
  5  6  2  0
  6  7  1  0
  7  8  2  0
  8  9  1  0
  9 10  1  0
 10 11  2  0
 10 12  1  0
 12 13  1  0
 13 14  1  0
 14 15  1  0
 15 16  1  0
  9 17  2  0
  4 18  2  0
 18 19  1  0
 19 20  2  0
 20 21  1  0
 21 22  2  0
 22 23  1  0
 23 24  2  0
 24 25  1  0
 25 26  1  0
 25 27  2  0
 27 28  1  0
 28 29  2  0
 22 30  1  0
 30 31  2  0
 31  2  1  0
 17  5  1  0
 31 19  1  0
 16 12  1  0
 29 23  1  0
  3 32  1  0
  3 33  1  0
  6 34  1  0
  7 35  1  0
  8 36  1  0
 13 37  1  0
 13 38  1  0
 14 39  1  0
 14 40  1  0
 15 41  1  0
 15 42  1  0
 16 43  1  0
 16 44  1  0
 17 45  1  0
 20 46  1  0
 21 47  1  0
 24 48  1  0
 27 49  1  0
 28 50  1  0
 30 51  1  0
M  END
>  <smiles>  (6) 
O=C1CC(c2cccc(C(=O)N3CCCC3)c2)=Nc2ccc(-c3cc(Cl)ccn3)cc21

>  <score_type>  (6) 
oracle

>  <origin>  (6) 
autodockgpu

>  <m_score__min__energy>  (6) 
-9.0099999999999998

>  <m_primary>  (6) 
energy

>  <rmsd>  (6) 
6.0538753166616095

>  <m_score__min__rmsd>  (6) 
6.0538753166616095

>  <meeko>  (6) 
{"free_energy": -8.9, "intermolecular_energy": -9.79, "internal_energy": -0.75, "cluster_size": 34, "cluster_id": 1, "rank_in_cluster": 17}

>  <energy>  (6) 
-8.98

>  <cluster_rmsd>  (6) 
0.06

>  <cluster>  (6) 
1

$$$$

     RDKit          3D

 51 55  0  0  0  0  0  0  0  0999 V2000
  142.9230   74.3640  220.5090 O   0  0  0  0  0  0  0  0  0  0  0  0
  141.8360   74.1010  221.0770 C   0  0  0  0  0  0  0  0  0  0  0  0
  141.4720   72.6790  221.2290 C   0  0  0  0  0  0  0  0  0  0  0  0
  140.1760   72.5830  221.9300 C   0  0  0  0  0  0  0  0  0  0  0  0
  139.6580   71.2170  222.1700 C   0  0  0  0  0  0  0  0  0  0  0  0
  139.0970   70.4750  221.1320 C   0  0  0  0  0  0  0  0  0  0  0  0
  138.6180   69.1940  221.3700 C   0  0  0  0  0  0  0  0  0  0  0  0
  138.6820   68.6160  222.6400 C   0  0  0  0  0  0  0  0  0  0  0  0
  139.2360   69.3510  223.6590 C   0  0  0  0  0  0  0  0  0  0  0  0
  139.3720   68.8800  225.0290 C   0  0  0  0  0  0  0  0  0  0  0  0
  139.2020   67.6320  225.2070 O   0  0  0  0  0  0  0  0  0  0  0  0
  139.6740   69.7220  226.1230 N   0  0  0  0  0  0  0  0  0  0  0  0
  139.9020   71.1560  226.1810 C   0  0  0  0  0  0  0  0  0  0  0  0
  141.1620   71.2530  227.0080 C   0  0  0  0  0  0  0  0  0  0  0  0
  141.0820   70.0800  227.9320 C   0  0  0  0  0  0  0  0  0  0  0  0
  139.8460   69.2880  227.5060 C   0  0  0  0  0  0  0  0  0  0  0  0
  139.7100   70.6310  223.4030 C   0  0  0  0  0  0  0  0  0  0  0  0
  139.4670   73.5660  222.3380 N   0  0  0  0  0  0  0  0  0  0  0  0
  139.8430   74.9320  222.1670 C   0  0  0  0  0  0  0  0  0  0  0  0
  139.0820   75.9920  222.5900 C   0  0  0  0  0  0  0  0  0  0  0  0
  139.5090   77.2950  222.3770 C   0  0  0  0  0  0  0  0  0  0  0  0
  140.6950   77.5890  221.7440 C   0  0  0  0  0  0  0  0  0  0  0  0
  141.0790   78.9770  221.5370 C   0  0  0  0  0  0  0  0  0  0  0  0
  141.2870   79.5340  220.2950 C   0  0  0  0  0  0  0  0  0  0  0  0
  141.6490   80.8590  220.1410 C   0  0  0  0  0  0  0  0  0  0  0  0
  141.9160   81.5710  218.5510 Cl  0  0  0  0  0  0  0  0  0  0  0  0
  141.8150   81.6760  221.2490 C   0  0  0  0  0  0  0  0  0  0  0  0
  141.6000   81.0850  222.4760 C   0  0  0  0  0  0  0  0  0  0  0  0
  141.2450   79.7800  222.6070 N   0  0  0  0  0  0  0  0  0  0  0  0
  141.4640   76.5310  221.3180 C   0  0  0  0  0  0  0  0  0  0  0  0
  141.0300   75.2190  221.5330 C   0  0  0  0  0  0  0  0  0  0  0  0
  141.3891   72.2121  220.2365 H   0  0  0  0  0  0  0  0  0  0  0  0
  142.2470   72.1588  221.8111 H   0  0  0  0  0  0  0  0  0  0  0  0
  139.0337   70.9055  220.1217 H   0  0  0  0  0  0  0  0  0  0  0  0
  138.1783   68.6214  220.5401 H   0  0  0  0  0  0  0  0  0  0  0  0
  138.2993   67.6003  222.8188 H   0  0  0  0  0  0  0  0  0  0  0  0
  140.0531   71.5756  225.1754 H   0  0  0  0  0  0  0  0  0  0  0  0
  139.0558   71.7180  226.6031 H   0  0  0  0  0  0  0  0  0  0  0  0
  142.0548   71.1866  226.3689 H   0  0  0  0  0  0  0  0  0  0  0  0
  141.2421   72.2095  227.5454 H   0  0  0  0  0  0  0  0  0  0  0  0
  141.9846   69.4583  227.8386 H   0  0  0  0  0  0  0  0  0  0  0  0
  141.0120   70.3998  228.9822 H   0  0  0  0  0  0  0  0  0  0  0  0
  140.0246   68.2043  227.5662 H   0  0  0  0  0  0  0  0  0  0  0  0
  138.9646   69.4634  228.1404 H   0  0  0  0  0  0  0  0  0  0  0  0
  140.1493   71.2015  224.2346 H   0  0  0  0  0  0  0  0  0  0  0  0
  138.1260   75.8077  223.1019 H   0  0  0  0  0  0  0  0  0  0  0  0
  138.8760   78.1237  222.7271 H   0  0  0  0  0  0  0  0  0  0  0  0
  141.1615   78.9067  219.4001 H   0  0  0  0  0  0  0  0  0  0  0  0
  142.1015   82.7338  221.1546 H   0  0  0  0  0  0  0  0  0  0  0  0
  141.7206   81.6937  223.3843 H   0  0  0  0  0  0  0  0  0  0  0  0
  142.4207   76.7170  220.8080 H   0  0  0  0  0  0  0  0  0  0  0  0
  1  2  2  0
  2  3  1  0
  3  4  1  0
  4  5  1  0
  5  6  2  0
  6  7  1  0
  7  8  2  0
  8  9  1  0
  9 10  1  0
 10 11  2  0
 10 12  1  0
 12 13  1  0
 13 14  1  0
 14 15  1  0
 15 16  1  0
  9 17  2  0
  4 18  2  0
 18 19  1  0
 19 20  2  0
 20 21  1  0
 21 22  2  0
 22 23  1  0
 23 24  2  0
 24 25  1  0
 25 26  1  0
 25 27  2  0
 27 28  1  0
 28 29  2  0
 22 30  1  0
 30 31  2  0
 31  2  1  0
 17  5  1  0
 31 19  1  0
 16 12  1  0
 29 23  1  0
  3 32  1  0
  3 33  1  0
  6 34  1  0
  7 35  1  0
  8 36  1  0
 13 37  1  0
 13 38  1  0
 14 39  1  0
 14 40  1  0
 15 41  1  0
 15 42  1  0
 16 43  1  0
 16 44  1  0
 17 45  1  0
 20 46  1  0
 21 47  1  0
 24 48  1  0
 27 49  1  0
 28 50  1  0
 30 51  1  0
M  END
>  <smiles>  (7) 
O=C1CC(c2cccc(C(=O)N3CCCC3)c2)=Nc2ccc(-c3cc(Cl)ccn3)cc21

>  <score_type>  (7) 
oracle

>  <origin>  (7) 
autodockgpu

>  <m_score__min__energy>  (7) 
-9.0099999999999998

>  <m_primary>  (7) 
energy

>  <rmsd>  (7) 
6.076725002615135

>  <m_score__min__rmsd>  (7) 
6.076725002615135

>  <meeko>  (7) 
{"free_energy": -8.91, "intermolecular_energy": -9.81, "internal_energy": -0.77, "cluster_size": 34, "cluster_id": 1, "rank_in_cluster": 15}

>  <energy>  (7) 
-8.97

>  <cluster_rmsd>  (7) 
0.07

>  <cluster>  (7) 
1

$$$$

     RDKit          3D

 51 55  0  0  0  0  0  0  0  0999 V2000
  142.8680   74.3000  219.8330 O   0  0  0  0  0  0  0  0  0  0  0  0
  141.8930   74.0260  220.5740 C   0  0  0  0  0  0  0  0  0  0  0  0
  141.5730   72.6000  220.7810 C   0  0  0  0  0  0  0  0  0  0  0  0
  140.4140   72.4920  221.6890 C   0  0  0  0  0  0  0  0  0  0  0  0
  139.9550   71.1200  222.0080 C   0  0  0  0  0  0  0  0  0  0  0  0
  139.5760   70.2410  220.9950 C   0  0  0  0  0  0  0  0  0  0  0  0
  139.1510   68.9570  221.3080 C   0  0  0  0  0  0  0  0  0  0  0  0
  139.0900   68.5120  222.6310 C   0  0  0  0  0  0  0  0  0  0  0  0
  139.4640   69.3820  223.6250 C   0  0  0  0  0  0  0  0  0  0  0  0
  139.4560   69.0580  225.0440 C   0  0  0  0  0  0  0  0  0  0  0  0
  139.1900   67.8490  225.3360 O   0  0  0  0  0  0  0  0  0  0  0  0
  139.7220   69.9970  226.0660 N   0  0  0  0  0  0  0  0  0  0  0  0
  140.0370   71.4130  225.9930 C   0  0  0  0  0  0  0  0  0  0  0  0
  141.2290   71.5290  226.9140 C   0  0  0  0  0  0  0  0  0  0  0  0
  140.9960   70.4720  227.9450 C   0  0  0  0  0  0  0  0  0  0  0  0
  139.7490   69.7090  227.4970 C   0  0  0  0  0  0  0  0  0  0  0  0
  139.8870   70.6630  223.2930 C   0  0  0  0  0  0  0  0  0  0  0  0
  139.7740   73.4670  222.2110 N   0  0  0  0  0  0  0  0  0  0  0  0
  140.1030   74.8370  221.9830 C   0  0  0  0  0  0  0  0  0  0  0  0
  139.4130   75.8890  222.5300 C   0  0  0  0  0  0  0  0  0  0  0  0
  139.7870   77.1960  222.2520 C   0  0  0  0  0  0  0  0  0  0  0  0
  140.8490   77.5020  221.4300 C   0  0  0  0  0  0  0  0  0  0  0  0
  141.1800   78.8940  221.1650 C   0  0  0  0  0  0  0  0  0  0  0  0
  141.4950   79.3790  219.9150 C   0  0  0  0  0  0  0  0  0  0  0  0
  141.8020   80.7100  219.7060 C   0  0  0  0  0  0  0  0  0  0  0  0
  142.2070   81.3290  218.1070 Cl  0  0  0  0  0  0  0  0  0  0  0  0
  141.8010   81.6070  220.7630 C   0  0  0  0  0  0  0  0  0  0  0  0
  141.4820   81.0870  222.0000 C   0  0  0  0  0  0  0  0  0  0  0  0
  141.1840   79.7740  222.1860 N   0  0  0  0  0  0  0  0  0  0  0  0
  141.5450   76.4510  220.8790 C   0  0  0  0  0  0  0  0  0  0  0  0
  141.1650   75.1360  221.1610 C   0  0  0  0  0  0  0  0  0  0  0  0
  141.3291   72.1332  219.8153 H   0  0  0  0  0  0  0  0  0  0  0  0
  142.4393   72.0861  221.2231 H   0  0  0  0  0  0  0  0  0  0  0  0
  139.6137   70.5655  219.9446 H   0  0  0  0  0  0  0  0  0  0  0  0
  138.8559   68.2752  220.4968 H   0  0  0  0  0  0  0  0  0  0  0  0
  138.7517   67.4929  222.8696 H   0  0  0  0  0  0  0  0  0  0  0  0
  140.2971   71.7103  224.9664 H   0  0  0  0  0  0  0  0  0  0  0  0
  139.1976   72.0648  226.2769 H   0  0  0  0  0  0  0  0  0  0  0  0
  142.1649   71.3418  226.3672 H   0  0  0  0  0  0  0  0  0  0  0  0
  141.3279   72.5328  227.3528 H   0  0  0  0  0  0  0  0  0  0  0  0
  141.8601   69.7934  227.9979 H   0  0  0  0  0  0  0  0  0  0  0  0
  140.8613   70.9095  228.9452 H   0  0  0  0  0  0  0  0  0  0  0  0
  139.8496   68.6302  227.6868 H   0  0  0  0  0  0  0  0  0  0  0  0
  138.8317   70.0027  228.0283 H   0  0  0  0  0  0  0  0  0  0  0  0
  140.1818   71.3430  224.1058 H   0  0  0  0  0  0  0  0  0  0  0  0
  138.5574   75.6951  223.1935 H   0  0  0  0  0  0  0  0  0  0  0  0
  139.2140   78.0184  222.7050 H   0  0  0  0  0  0  0  0  0  0  0  0
  141.5024   78.6877  219.0594 H   0  0  0  0  0  0  0  0  0  0  0  0
  142.0406   82.6714  220.6233 H   0  0  0  0  0  0  0  0  0  0  0  0
  141.4682   81.7608  222.8694 H   0  0  0  0  0  0  0  0  0  0  0  0
  142.4010   76.6457  220.2162 H   0  0  0  0  0  0  0  0  0  0  0  0
  1  2  2  0
  2  3  1  0
  3  4  1  0
  4  5  1  0
  5  6  2  0
  6  7  1  0
  7  8  2  0
  8  9  1  0
  9 10  1  0
 10 11  2  0
 10 12  1  0
 12 13  1  0
 13 14  1  0
 14 15  1  0
 15 16  1  0
  9 17  2  0
  4 18  2  0
 18 19  1  0
 19 20  2  0
 20 21  1  0
 21 22  2  0
 22 23  1  0
 23 24  2  0
 24 25  1  0
 25 26  1  0
 25 27  2  0
 27 28  1  0
 28 29  2  0
 22 30  1  0
 30 31  2  0
 31  2  1  0
 17  5  1  0
 31 19  1  0
 16 12  1  0
 29 23  1  0
  3 32  1  0
  3 33  1  0
  6 34  1  0
  7 35  1  0
  8 36  1  0
 13 37  1  0
 13 38  1  0
 14 39  1  0
 14 40  1  0
 15 41  1  0
 15 42  1  0
 16 43  1  0
 16 44  1  0
 17 45  1  0
 20 46  1  0
 21 47  1  0
 24 48  1  0
 27 49  1  0
 28 50  1  0
 30 51  1  0
M  END
>  <smiles>  (8) 
O=C1CC(c2cccc(C(=O)N3CCCC3)c2)=Nc2ccc(-c3cc(Cl)ccn3)cc21

>  <score_type>  (8) 
oracle

>  <origin>  (8) 
autodockgpu

>  <m_score__min__energy>  (8) 
-9.0099999999999998

>  <m_primary>  (8) 
energy

>  <rmsd>  (8) 
6.162771966405309

>  <m_score__min__rmsd>  (8) 
6.162771966405309

>  <meeko>  (8) 
{"free_energy": -8.84, "intermolecular_energy": -9.73, "internal_energy": -0.75, "cluster_size": 34, "cluster_id": 1, "rank_in_cluster": 22}

>  <energy>  (8) 
-8.96

>  <cluster_rmsd>  (8) 
0.28

>  <cluster>  (8) 
1

$$$$

     RDKit          3D

 51 55  0  0  0  0  0  0  0  0999 V2000
  142.2370   75.2740  218.9080 O   0  0  0  0  0  0  0  0  0  0  0  0
  141.6040   75.1270  219.9810 C   0  0  0  0  0  0  0  0  0  0  0  0
  141.3710   73.7480  220.4520 C   0  0  0  0  0  0  0  0  0  0  0  0
  140.6300   73.7920  221.7290 C   0  0  0  0  0  0  0  0  0  0  0  0
  140.3100   72.4850  222.3480 C   0  0  0  0  0  0  0  0  0  0  0  0
  139.7460   71.4580  221.5940 C   0  0  0  0  0  0  0  0  0  0  0  0
  139.4540   70.2370  222.1860 C   0  0  0  0  0  0  0  0  0  0  0  0
  139.7110   70.0030  223.5390 C   0  0  0  0  0  0  0  0  0  0  0  0
  140.2660   71.0190  224.2780 C   0  0  0  0  0  0  0  0  0  0  0  0
  140.5910   70.9200  225.6930 C   0  0  0  0  0  0  0  0  0  0  0  0
  140.8030   72.0220  226.2920 O   0  0  0  0  0  0  0  0  0  0  0  0
  140.6770   69.6970  226.3960 N   0  0  0  0  0  0  0  0  0  0  0  0
  140.4920   68.3290  225.9450 C   0  0  0  0  0  0  0  0  0  0  0  0
  139.5800   67.7570  227.0040 C   0  0  0  0  0  0  0  0  0  0  0  0
  139.9560   68.4980  228.2470 C   0  0  0  0  0  0  0  0  0  0  0  0
  140.9750   69.5560  227.8190 C   0  0  0  0  0  0  0  0  0  0  0  0
  140.5520   72.2340  223.6690 C   0  0  0  0  0  0  0  0  0  0  0  0
  140.2380   74.8470  222.3360 N   0  0  0  0  0  0  0  0  0  0  0  0
  140.4720   76.1680  221.8480 C   0  0  0  0  0  0  0  0  0  0  0  0
  140.0450   77.3050  222.4870 C   0  0  0  0  0  0  0  0  0  0  0  0
  140.3010   78.5560  221.9440 C   0  0  0  0  0  0  0  0  0  0  0  0
  140.9840   78.7210  220.7610 C   0  0  0  0  0  0  0  0  0  0  0  0
  141.2070   80.0600  220.2370 C   0  0  0  0  0  0  0  0  0  0  0  0
  141.9040   80.3200  219.0770 C   0  0  0  0  0  0  0  0  0  0  0  0
  142.0910   81.6070  218.6120 C   0  0  0  0  0  0  0  0  0  0  0  0
  142.9840   81.9390  217.1300 Cl  0  0  0  0  0  0  0  0  0  0  0  0
  141.5740   82.6890  219.3080 C   0  0  0  0  0  0  0  0  0  0  0  0
  140.8830   82.3930  220.4640 C   0  0  0  0  0  0  0  0  0  0  0  0
  140.7100   81.1190  220.9060 N   0  0  0  0  0  0  0  0  0  0  0  0
  141.4160   77.5860  220.1160 C   0  0  0  0  0  0  0  0  0  0  0  0
  141.1560   76.3270  220.6650 C   0  0  0  0  0  0  0  0  0  0  0  0
  140.7823   73.1976  219.7033 H   0  0  0  0  0  0  0  0  0  0  0  0
  142.3349   73.2393  220.6003 H   0  0  0  0  0  0  0  0  0  0  0  0
  139.5316   71.6153  220.5266 H   0  0  0  0  0  0  0  0  0  0  0  0
  139.0104   69.4360  221.5764 H   0  0  0  0  0  0  0  0  0  0  0  0
  139.4755   69.0323  223.9996 H   0  0  0  0  0  0  0  0  0  0  0  0
  140.0178   68.2981  224.9529 H   0  0  0  0  0  0  0  0  0  0  0  0
  141.4345   67.7734  225.8309 H   0  0  0  0  0  0  0  0  0  0  0  0
  138.5249   67.9338  226.7479 H   0  0  0  0  0  0  0  0  0  0  0  0
  139.6892   66.6678  227.1121 H   0  0  0  0  0  0  0  0  0  0  0  0
  139.0699   68.9779  228.6880 H   0  0  0  0  0  0  0  0  0  0  0  0
  140.3744   67.8216  229.0069 H   0  0  0  0  0  0  0  0  0  0  0  0
  140.8196   70.5029  228.3568 H   0  0  0  0  0  0  0  0  0  0  0  0
  142.0189   69.2816  228.0312 H   0  0  0  0  0  0  0  0  0  0  0  0
  140.9953   73.0338  224.2805 H   0  0  0  0  0  0  0  0  0  0  0  0
  139.4958   77.2240  223.4366 H   0  0  0  0  0  0  0  0  0  0  0  0
  139.9448   79.4487  222.4790 H   0  0  0  0  0  0  0  0  0  0  0  0
  142.3232   79.4789  218.5053 H   0  0  0  0  0  0  0  0  0  0  0  0
  141.7073   83.7234  218.9583 H   0  0  0  0  0  0  0  0  0  0  0  0
  140.4554   83.2192  221.0510 H   0  0  0  0  0  0  0  0  0  0  0  0
  141.9666   77.6688  219.1673 H   0  0  0  0  0  0  0  0  0  0  0  0
  1  2  2  0
  2  3  1  0
  3  4  1  0
  4  5  1  0
  5  6  2  0
  6  7  1  0
  7  8  2  0
  8  9  1  0
  9 10  1  0
 10 11  2  0
 10 12  1  0
 12 13  1  0
 13 14  1  0
 14 15  1  0
 15 16  1  0
  9 17  2  0
  4 18  2  0
 18 19  1  0
 19 20  2  0
 20 21  1  0
 21 22  2  0
 22 23  1  0
 23 24  2  0
 24 25  1  0
 25 26  1  0
 25 27  2  0
 27 28  1  0
 28 29  2  0
 22 30  1  0
 30 31  2  0
 31  2  1  0
 17  5  1  0
 31 19  1  0
 16 12  1  0
 29 23  1  0
  3 32  1  0
  3 33  1  0
  6 34  1  0
  7 35  1  0
  8 36  1  0
 13 37  1  0
 13 38  1  0
 14 39  1  0
 14 40  1  0
 15 41  1  0
 15 42  1  0
 16 43  1  0
 16 44  1  0
 17 45  1  0
 20 46  1  0
 21 47  1  0
 24 48  1  0
 27 49  1  0
 28 50  1  0
 30 51  1  0
M  END
>  <smiles>  (9) 
O=C1CC(c2cccc(C(=O)N3CCCC3)c2)=Nc2ccc(-c3cc(Cl)ccn3)cc21

>  <score_type>  (9) 
oracle

>  <origin>  (9) 
autodockgpu

>  <m_score__min__energy>  (9) 
-9.0099999999999998

>  <m_primary>  (9) 
energy

>  <rmsd>  (9) 
7.396459493330002

>  <m_score__min__rmsd>  (9) 
7.396459493330002

>  <meeko>  (9) 
{"free_energy": -8.53, "intermolecular_energy": -9.43, "internal_energy": -0.86, "cluster_size": 34, "cluster_id": 1, "rank_in_cluster": 32}

>  <energy>  (9) 
-8.96

>  <cluster_rmsd>  (9) 
0.28

>  <cluster>  (9) 
1

$$$$

     RDKit          3D

 51 55  0  0  0  0  0  0  0  0999 V2000
  143.7010   72.3770  220.8200 O   0  0  0  0  0  0  0  0  0  0  0  0
  142.8410   73.2880  220.7610 C   0  0  0  0  0  0  0  0  0  0  0  0
  143.2000   74.5210  220.0320 C   0  0  0  0  0  0  0  0  0  0  0  0
  142.0550   75.4520  220.0650 C   0  0  0  0  0  0  0  0  0  0  0  0
  142.2440   76.7490  219.3750 C   0  0  0  0  0  0  0  0  0  0  0  0
  142.7730   76.8010  218.0870 C   0  0  0  0  0  0  0  0  0  0  0  0
  142.9420   78.0240  217.4510 C   0  0  0  0  0  0  0  0  0  0  0  0
  142.5930   79.2240  218.0740 C   0  0  0  0  0  0  0  0  0  0  0  0
  142.0730   79.1670  219.3430 C   0  0  0  0  0  0  0  0  0  0  0  0
  141.6620   80.3320  220.1130 C   0  0  0  0  0  0  0  0  0  0  0  0
  141.0530   81.2410  219.4640 O   0  0  0  0  0  0  0  0  0  0  0  0
  141.9030   80.4830  221.4980 N   0  0  0  0  0  0  0  0  0  0  0  0
  142.5720   79.6080  222.4440 C   0  0  0  0  0  0  0  0  0  0  0  0
  141.6050   79.5810  223.6040 C   0  0  0  0  0  0  0  0  0  0  0  0
  140.9570   80.9280  223.5690 C   0  0  0  0  0  0  0  0  0  0  0  0
  141.4860   81.6210  222.3120 C   0  0  0  0  0  0  0  0  0  0  0  0
  141.9100   77.9360  219.9640 C   0  0  0  0  0  0  0  0  0  0  0  0
  140.9310   75.2430  220.6360 N   0  0  0  0  0  0  0  0  0  0  0  0
  140.6170   74.0430  221.3420 C   0  0  0  0  0  0  0  0  0  0  0  0
  139.4180   73.8160  221.9680 C   0  0  0  0  0  0  0  0  0  0  0  0
  139.1920   72.6260  222.6450 C   0  0  0  0  0  0  0  0  0  0  0  0
  140.1370   71.6290  222.7220 C   0  0  0  0  0  0  0  0  0  0  0  0
  139.8430   70.4100  223.4610 C   0  0  0  0  0  0  0  0  0  0  0  0
  140.2310   70.1960  224.7650 C   0  0  0  0  0  0  0  0  0  0  0  0
  139.9300   69.0240  225.4320 C   0  0  0  0  0  0  0  0  0  0  0  0
  140.4280   68.7500  227.1000 Cl  0  0  0  0  0  0  0  0  0  0  0  0
  139.2180   68.0170  224.7990 C   0  0  0  0  0  0  0  0  0  0  0  0
  138.8460   68.2650  223.4940 C   0  0  0  0  0  0  0  0  0  0  0  0
  139.1530   69.4240  222.8550 N   0  0  0  0  0  0  0  0  0  0  0  0
  141.3410   71.8500  222.0960 C   0  0  0  0  0  0  0  0  0  0  0  0
  141.5670   73.0500  221.4160 C   0  0  0  0  0  0  0  0  0  0  0  0
  144.0714   74.9916  220.5108 H   0  0  0  0  0  0  0  0  0  0  0  0
  143.4485   74.2759  218.9889 H   0  0  0  0  0  0  0  0  0  0  0  0
  143.0574   75.8712  217.5727 H   0  0  0  0  0  0  0  0  0  0  0  0
  143.3601   78.0479  216.4338 H   0  0  0  0  0  0  0  0  0  0  0  0
  142.7309   80.1879  217.5622 H   0  0  0  0  0  0  0  0  0  0  0  0
  142.7154   78.6022  222.0224 H   0  0  0  0  0  0  0  0  0  0  0  0
  143.5800   79.9503  222.7211 H   0  0  0  0  0  0  0  0  0  0  0  0
  140.8579   78.7846  223.4713 H   0  0  0  0  0  0  0  0  0  0  0  0
  142.1020   79.3761  224.5637 H   0  0  0  0  0  0  0  0  0  0  0  0
  139.8632   80.8241  223.5160 H   0  0  0  0  0  0  0  0  0  0  0  0
  141.1872   81.5082  224.4747 H   0  0  0  0  0  0  0  0  0  0  0  0
  140.6970   82.2028  221.8131 H   0  0  0  0  0  0  0  0  0  0  0  0
  142.2886   82.3473  222.5075 H   0  0  0  0  0  0  0  0  0  0  0  0
  141.4911   77.9151  220.9809 H   0  0  0  0  0  0  0  0  0  0  0  0
  138.6300   74.5827  221.9332 H   0  0  0  0  0  0  0  0  0  0  0  0
  138.2208   72.4741  223.1387 H   0  0  0  0  0  0  0  0  0  0  0  0
  140.7963   70.9800  225.2901 H   0  0  0  0  0  0  0  0  0  0  0  0
  138.9645   67.0752  225.3076 H   0  0  0  0  0  0  0  0  0  0  0  0
  138.2792   67.4951  222.9500 H   0  0  0  0  0  0  0  0  0  0  0  0
  142.1273   71.0815  222.1304 H   0  0  0  0  0  0  0  0  0  0  0  0
  1  2  2  0
  2  3  1  0
  3  4  1  0
  4  5  1  0
  5  6  2  0
  6  7  1  0
  7  8  2  0
  8  9  1  0
  9 10  1  0
 10 11  2  0
 10 12  1  0
 12 13  1  0
 13 14  1  0
 14 15  1  0
 15 16  1  0
  9 17  2  0
  4 18  2  0
 18 19  1  0
 19 20  2  0
 20 21  1  0
 21 22  2  0
 22 23  1  0
 23 24  2  0
 24 25  1  0
 25 26  1  0
 25 27  2  0
 27 28  1  0
 28 29  2  0
 22 30  1  0
 30 31  2  0
 31  2  1  0
 17  5  1  0
 31 19  1  0
 16 12  1  0
 29 23  1  0
  3 32  1  0
  3 33  1  0
  6 34  1  0
  7 35  1  0
  8 36  1  0
 13 37  1  0
 13 38  1  0
 14 39  1  0
 14 40  1  0
 15 41  1  0
 15 42  1  0
 16 43  1  0
 16 44  1  0
 17 45  1  0
 20 46  1  0
 21 47  1  0
 24 48  1  0
 27 49  1  0
 28 50  1  0
 30 51  1  0
M  END
>  <smiles>  (10) 
O=C1CC(c2cccc(C(=O)N3CCCC3)c2)=Nc2ccc(-c3cc(Cl)ccn3)cc21

>  <score_type>  (10) 
oracle

>  <origin>  (10) 
autodockgpu

>  <m_score__min__energy>  (10) 
-9.0099999999999998

>  <m_primary>  (10) 
energy

>  <rmsd>  (10) 
8.353512509720261

>  <m_score__min__rmsd>  (10) 
8.353512509720261

>  <meeko>  (10) 
{"free_energy": -8.28, "intermolecular_energy": -9.18, "internal_energy": -0.99, "cluster_size": 7, "cluster_id": 3, "rank_in_cluster": 5}

>  <energy>  (10) 
-8.96

>  <cluster_rmsd>  (10) 
0.18

>  <cluster>  (10) 
1

$$$$

     RDKit          3D

 51 55  0  0  0  0  0  0  0  0999 V2000
  141.6520   81.4660  223.7860 O   0  0  0  0  0  0  0  0  0  0  0  0
  141.0670   80.5700  223.1320 C   0  0  0  0  0  0  0  0  0  0  0  0
  141.8680   79.7990  222.1620 C   0  0  0  0  0  0  0  0  0  0  0  0
  141.0050   78.7910  221.5150 C   0  0  0  0  0  0  0  0  0  0  0  0
  141.6530   77.9210  220.5060 C   0  0  0  0  0  0  0  0  0  0  0  0
  142.1310   78.4520  219.3090 C   0  0  0  0  0  0  0  0  0  0  0  0
  142.7390   77.6260  218.3730 C   0  0  0  0  0  0  0  0  0  0  0  0
  142.8880   76.2560  218.5990 C   0  0  0  0  0  0  0  0  0  0  0  0
  142.4150   75.7380  219.7790 C   0  0  0  0  0  0  0  0  0  0  0  0
  142.5030   74.3340  220.1530 C   0  0  0  0  0  0  0  0  0  0  0  0
  141.4020   73.6990  220.1900 O   0  0  0  0  0  0  0  0  0  0  0  0
  143.7160   73.6770  220.4610 N   0  0  0  0  0  0  0  0  0  0  0  0
  145.0800   74.1740  220.4980 C   0  0  0  0  0  0  0  0  0  0  0  0
  145.8330   73.1180  219.7240 C   0  0  0  0  0  0  0  0  0  0  0  0
  145.0790   71.8570  220.0000 C   0  0  0  0  0  0  0  0  0  0  0  0
  143.8510   72.2670  220.8140 C   0  0  0  0  0  0  0  0  0  0  0  0
  141.8100   76.5790  220.7040 C   0  0  0  0  0  0  0  0  0  0  0  0
  139.7600   78.6100  221.7410 N   0  0  0  0  0  0  0  0  0  0  0  0
  139.0100   79.3800  222.6800 C   0  0  0  0  0  0  0  0  0  0  0  0
  137.6710   79.2000  222.9190 C   0  0  0  0  0  0  0  0  0  0  0  0
  137.0080   79.9980  223.8410 C   0  0  0  0  0  0  0  0  0  0  0  0
  137.6430   80.9900  224.5510 C   0  0  0  0  0  0  0  0  0  0  0  0
  136.8870   81.8030  225.4920 C   0  0  0  0  0  0  0  0  0  0  0  0
  136.5480   81.3860  226.7600 C   0  0  0  0  0  0  0  0  0  0  0  0
  135.8300   82.1900  227.6250 C   0  0  0  0  0  0  0  0  0  0  0  0
  135.3940   81.6550  229.2460 Cl  0  0  0  0  0  0  0  0  0  0  0  0
  135.4260   83.4580  227.2340 C   0  0  0  0  0  0  0  0  0  0  0  0
  135.7830   83.8430  225.9590 C   0  0  0  0  0  0  0  0  0  0  0  0
  136.4890   83.0360  225.1230 N   0  0  0  0  0  0  0  0  0  0  0  0
  138.9860   81.1750  224.3170 C   0  0  0  0  0  0  0  0  0  0  0  0
  139.6510   80.3710  223.3870 C   0  0  0  0  0  0  0  0  0  0  0  0
  142.2764   80.4783  221.3992 H   0  0  0  0  0  0  0  0  0  0  0  0
  142.6974   79.2975  222.6822 H   0  0  0  0  0  0  0  0  0  0  0  0
  142.0263   79.5279  219.1055 H   0  0  0  0  0  0  0  0  0  0  0  0
  143.1113   78.0601  217.4333 H   0  0  0  0  0  0  0  0  0  0  0  0
  143.3713   75.6095  217.8517 H   0  0  0  0  0  0  0  0  0  0  0  0
  145.1586   75.1566  220.0098 H   0  0  0  0  0  0  0  0  0  0  0  0
  145.4635   74.3278  221.5175 H   0  0  0  0  0  0  0  0  0  0  0  0
  145.8310   73.3467  218.6480 H   0  0  0  0  0  0  0  0  0  0  0  0
  146.8904   73.0511  220.0198 H   0  0  0  0  0  0  0  0  0  0  0  0
  144.7708   71.3822  219.0568 H   0  0  0  0  0  0  0  0  0  0  0  0
  145.6982   71.1296  220.5453 H   0  0  0  0  0  0  0  0  0  0  0  0
  142.9620   71.6923  220.5148 H   0  0  0  0  0  0  0  0  0  0  0  0
  143.9518   72.0859  221.8943 H   0  0  0  0  0  0  0  0  0  0  0  0
  141.4388   76.1423  221.6429 H   0  0  0  0  0  0  0  0  0  0  0  0
  137.1193   78.4182  222.3764 H   0  0  0  0  0  0  0  0  0  0  0  0
  135.9340   79.8307  224.0102 H   0  0  0  0  0  0  0  0  0  0  0  0
  136.8575   80.3846  227.0938 H   0  0  0  0  0  0  0  0  0  0  0  0
  134.8539   84.1183  227.9024 H   0  0  0  0  0  0  0  0  0  0  0  0
  135.4853   84.8410  225.6048 H   0  0  0  0  0  0  0  0  0  0  0  0
  139.5366   81.9559  224.8620 H   0  0  0  0  0  0  0  0  0  0  0  0
  1  2  2  0
  2  3  1  0
  3  4  1  0
  4  5  1  0
  5  6  2  0
  6  7  1  0
  7  8  2  0
  8  9  1  0
  9 10  1  0
 10 11  2  0
 10 12  1  0
 12 13  1  0
 13 14  1  0
 14 15  1  0
 15 16  1  0
  9 17  2  0
  4 18  2  0
 18 19  1  0
 19 20  2  0
 20 21  1  0
 21 22  2  0
 22 23  1  0
 23 24  2  0
 24 25  1  0
 25 26  1  0
 25 27  2  0
 27 28  1  0
 28 29  2  0
 22 30  1  0
 30 31  2  0
 31  2  1  0
 17  5  1  0
 31 19  1  0
 16 12  1  0
 29 23  1  0
  3 32  1  0
  3 33  1  0
  6 34  1  0
  7 35  1  0
  8 36  1  0
 13 37  1  0
 13 38  1  0
 14 39  1  0
 14 40  1  0
 15 41  1  0
 15 42  1  0
 16 43  1  0
 16 44  1  0
 17 45  1  0
 20 46  1  0
 21 47  1  0
 24 48  1  0
 27 49  1  0
 28 50  1  0
 30 51  1  0
M  END
>  <smiles>  (11) 
O=C1CC(c2cccc(C(=O)N3CCCC3)c2)=Nc2ccc(-c3cc(Cl)ccn3)cc21

>  <score_type>  (11) 
oracle

>  <origin>  (11) 
autodockgpu

>  <m_score__min__energy>  (11) 
-9.0099999999999998

>  <m_primary>  (11) 
energy

>  <rmsd>  (11) 
9.22669953901535

>  <m_score__min__rmsd>  (11) 
9.22669953901535

>  <meeko>  (11) 
{"free_energy": -8.3, "intermolecular_energy": -9.2, "internal_energy": -0.97, "cluster_size": 8, "cluster_id": 2, "rank_in_cluster": 7}

>  <energy>  (11) 
-8.96

>  <cluster_rmsd>  (11) 
0.32

>  <cluster>  (11) 
1

$$$$

     RDKit          3D

 51 55  0  0  0  0  0  0  0  0999 V2000
  142.8710   74.4960  220.2760 O   0  0  0  0  0  0  0  0  0  0  0  0
  141.8340   74.1970  220.9140 C   0  0  0  0  0  0  0  0  0  0  0  0
  141.5160   72.7630  221.0670 C   0  0  0  0  0  0  0  0  0  0  0  0
  140.2750   72.6250  221.8550 C   0  0  0  0  0  0  0  0  0  0  0  0
  139.8080   71.2420  222.1070 C   0  0  0  0  0  0  0  0  0  0  0  0
  139.3720   70.4350  221.0580 C   0  0  0  0  0  0  0  0  0  0  0  0
  138.9400   69.1390  221.3080 C   0  0  0  0  0  0  0  0  0  0  0  0
  138.9280   68.6120  222.6010 C   0  0  0  0  0  0  0  0  0  0  0  0
  139.3580   69.4110  223.6310 C   0  0  0  0  0  0  0  0  0  0  0  0
  139.4050   68.9980  225.0260 C   0  0  0  0  0  0  0  0  0  0  0  0
  139.1580   67.7710  225.2500 O   0  0  0  0  0  0  0  0  0  0  0  0
  139.7020   69.8730  226.0950 N   0  0  0  0  0  0  0  0  0  0  0  0
  140.0040   71.2940  226.1020 C   0  0  0  0  0  0  0  0  0  0  0  0
  141.2280   71.3620  226.9840 C   0  0  0  0  0  0  0  0  0  0  0  0
  141.0410   70.2400  227.9540 C   0  0  0  0  0  0  0  0  0  0  0  0
  139.7840   69.4950  227.5030 C   0  0  0  0  0  0  0  0  0  0  0  0
  139.7880   70.7050  223.3630 C   0  0  0  0  0  0  0  0  0  0  0  0
  139.5730   73.5830  222.3280 N   0  0  0  0  0  0  0  0  0  0  0  0
  139.9030   74.9610  222.1550 C   0  0  0  0  0  0  0  0  0  0  0  0
  139.1480   75.9940  222.6480 C   0  0  0  0  0  0  0  0  0  0  0  0
  139.5280   77.3110  222.4280 C   0  0  0  0  0  0  0  0  0  0  0  0
  140.6600   77.6440  221.7190 C   0  0  0  0  0  0  0  0  0  0  0  0
  140.9950   79.0440  221.5090 C   0  0  0  0  0  0  0  0  0  0  0  0
  141.2010   79.6020  220.2660 C   0  0  0  0  0  0  0  0  0  0  0  0
  141.5160   80.9380  220.1100 C   0  0  0  0  0  0  0  0  0  0  0  0
  141.7820   81.6500  218.5210 Cl  0  0  0  0  0  0  0  0  0  0  0  0
  141.6340   81.7670  221.2150 C   0  0  0  0  0  0  0  0  0  0  0  0
  141.4210   81.1760  222.4430 C   0  0  0  0  0  0  0  0  0  0  0  0
  141.1130   79.8590  222.5760 N   0  0  0  0  0  0  0  0  0  0  0  0
  141.4210   76.6120  221.2220 C   0  0  0  0  0  0  0  0  0  0  0  0
  141.0350   75.2870  221.4440 C   0  0  0  0  0  0  0  0  0  0  0  0
  141.3749   72.3091  220.0750 H   0  0  0  0  0  0  0  0  0  0  0  0
  142.3422   72.2532  221.5843 H   0  0  0  0  0  0  0  0  0  0  0  0
  139.3700   70.8253  220.0296 H   0  0  0  0  0  0  0  0  0  0  0  0
  138.5999   68.5140  220.4691 H   0  0  0  0  0  0  0  0  0  0  0  0
  138.5833   67.5845  222.7891 H   0  0  0  0  0  0  0  0  0  0  0  0
  140.2237   71.6590  225.0878 H   0  0  0  0  0  0  0  0  0  0  0  0
  139.1711   71.9182  226.4578 H   0  0  0  0  0  0  0  0  0  0  0  0
  142.1441   71.2182  226.3924 H   0  0  0  0  0  0  0  0  0  0  0  0
  141.3361   72.3369  227.4818 H   0  0  0  0  0  0  0  0  0  0  0  0
  141.9115   69.5678  227.9328 H   0  0  0  0  0  0  0  0  0  0  0  0
  140.9400   70.6119  228.9843 H   0  0  0  0  0  0  0  0  0  0  0  0
  139.8995   68.4073  227.6197 H   0  0  0  0  0  0  0  0  0  0  0  0
  138.8847   69.7457  228.0847 H   0  0  0  0  0  0  0  0  0  0  0  0
  140.1290   71.3274  224.2034 H   0  0  0  0  0  0  0  0  0  0  0  0
  138.2348   75.7777  223.2218 H   0  0  0  0  0  0  0  0  0  0  0  0
  138.9014   78.1182  222.8352 H   0  0  0  0  0  0  0  0  0  0  0  0
  141.1121   78.9659  219.3730 H   0  0  0  0  0  0  0  0  0  0  0  0
  141.8830   82.8340  221.1180 H   0  0  0  0  0  0  0  0  0  0  0  0
  141.5036   81.7942  223.3491 H   0  0  0  0  0  0  0  0  0  0  0  0
  142.3345   76.8295  220.6491 H   0  0  0  0  0  0  0  0  0  0  0  0
  1  2  2  0
  2  3  1  0
  3  4  1  0
  4  5  1  0
  5  6  2  0
  6  7  1  0
  7  8  2  0
  8  9  1  0
  9 10  1  0
 10 11  2  0
 10 12  1  0
 12 13  1  0
 13 14  1  0
 14 15  1  0
 15 16  1  0
  9 17  2  0
  4 18  2  0
 18 19  1  0
 19 20  2  0
 20 21  1  0
 21 22  2  0
 22 23  1  0
 23 24  2  0
 24 25  1  0
 25 26  1  0
 25 27  2  0
 27 28  1  0
 28 29  2  0
 22 30  1  0
 30 31  2  0
 31  2  1  0
 17  5  1  0
 31 19  1  0
 16 12  1  0
 29 23  1  0
  3 32  1  0
  3 33  1  0
  6 34  1  0
  7 35  1  0
  8 36  1  0
 13 37  1  0
 13 38  1  0
 14 39  1  0
 14 40  1  0
 15 41  1  0
 15 42  1  0
 16 43  1  0
 16 44  1  0
 17 45  1  0
 20 46  1  0
 21 47  1  0
 24 48  1  0
 27 49  1  0
 28 50  1  0
 30 51  1  0
M  END
>  <smiles>  (12) 
O=C1CC(c2cccc(C(=O)N3CCCC3)c2)=Nc2ccc(-c3cc(Cl)ccn3)cc21

>  <score_type>  (12) 
oracle

>  <origin>  (12) 
autodockgpu

>  <m_score__min__energy>  (12) 
-9.0099999999999998

>  <m_primary>  (12) 
energy

>  <rmsd>  (12) 
6.125264874156829

>  <m_score__min__rmsd>  (12) 
6.125264874156829

>  <meeko>  (12) 
{"free_energy": -8.98, "intermolecular_energy": -9.88, "internal_energy": -0.73, "cluster_size": 34, "cluster_id": 1, "rank_in_cluster": 6}

>  <energy>  (12) 
-8.95

>  <cluster_rmsd>  (12) 
0.09

>  <cluster>  (12) 
1

$$$$

     RDKit          3D

 51 55  0  0  0  0  0  0  0  0999 V2000
  142.8870   74.3410  220.5190 O   0  0  0  0  0  0  0  0  0  0  0  0
  141.7980   74.0790  221.0830 C   0  0  0  0  0  0  0  0  0  0  0  0
  141.4330   72.6570  221.2340 C   0  0  0  0  0  0  0  0  0  0  0  0
  140.1350   72.5630  221.9320 C   0  0  0  0  0  0  0  0  0  0  0  0
  139.6150   71.1960  222.1700 C   0  0  0  0  0  0  0  0  0  0  0  0
  139.0330   70.4650  221.1360 C   0  0  0  0  0  0  0  0  0  0  0  0
  138.5520   69.1840  221.3730 C   0  0  0  0  0  0  0  0  0  0  0  0
  138.6350   68.5970  222.6370 C   0  0  0  0  0  0  0  0  0  0  0  0
  139.2090   69.3210  223.6520 C   0  0  0  0  0  0  0  0  0  0  0  0
  139.3660   68.8400  225.0160 C   0  0  0  0  0  0  0  0  0  0  0  0
  139.2190   67.5880  225.1840 O   0  0  0  0  0  0  0  0  0  0  0  0
  139.6640   69.6760  226.1160 N   0  0  0  0  0  0  0  0  0  0  0  0
  139.8680   71.1130  226.1860 C   0  0  0  0  0  0  0  0  0  0  0  0
  141.1340   71.2240  227.0020 C   0  0  0  0  0  0  0  0  0  0  0  0
  141.0830   70.0410  227.9150 C   0  0  0  0  0  0  0  0  0  0  0  0
  139.8550   69.2320  227.4930 C   0  0  0  0  0  0  0  0  0  0  0  0
  139.6840   70.6010  223.3980 C   0  0  0  0  0  0  0  0  0  0  0  0
  139.4250   73.5460  222.3370 N   0  0  0  0  0  0  0  0  0  0  0  0
  139.8020   74.9120  222.1670 C   0  0  0  0  0  0  0  0  0  0  0  0
  139.0410   75.9720  222.5880 C   0  0  0  0  0  0  0  0  0  0  0  0
  139.4700   77.2750  222.3760 C   0  0  0  0  0  0  0  0  0  0  0  0
  140.6580   77.5680  221.7470 C   0  0  0  0  0  0  0  0  0  0  0  0
  141.0440   78.9550  221.5410 C   0  0  0  0  0  0  0  0  0  0  0  0
  141.2400   79.5170  220.2980 C   0  0  0  0  0  0  0  0  0  0  0  0
  141.6050   80.8410  220.1460 C   0  0  0  0  0  0  0  0  0  0  0  0
  141.8570   81.5580  218.5560 Cl  0  0  0  0  0  0  0  0  0  0  0  0
  141.7850   81.6530  221.2550 C   0  0  0  0  0  0  0  0  0  0  0  0
  141.5810   81.0590  222.4820 C   0  0  0  0  0  0  0  0  0  0  0  0
  141.2240   79.7540  222.6120 N   0  0  0  0  0  0  0  0  0  0  0  0
  141.4270   76.5090  221.3230 C   0  0  0  0  0  0  0  0  0  0  0  0
  140.9910   75.1980  221.5370 C   0  0  0  0  0  0  0  0  0  0  0  0
  141.3521   72.1900  220.2413 H   0  0  0  0  0  0  0  0  0  0  0  0
  142.2062   72.1358  221.8174 H   0  0  0  0  0  0  0  0  0  0  0  0
  138.9545   70.9035  220.1303 H   0  0  0  0  0  0  0  0  0  0  0  0
  138.0956   68.6194  220.5466 H   0  0  0  0  0  0  0  0  0  0  0  0
  138.2507   67.5817  222.8146 H   0  0  0  0  0  0  0  0  0  0  0  0
  140.0022   71.5448  225.1832 H   0  0  0  0  0  0  0  0  0  0  0  0
  139.0164   71.6561  226.6217 H   0  0  0  0  0  0  0  0  0  0  0  0
  142.0217   71.1793  226.3539 H   0  0  0  0  0  0  0  0  0  0  0  0
  141.2028   72.1765  227.5479 H   0  0  0  0  0  0  0  0  0  0  0  0
  141.9949   69.4354  227.8065 H   0  0  0  0  0  0  0  0  0  0  0  0
  141.0184   70.3493  228.9689 H   0  0  0  0  0  0  0  0  0  0  0  0
  140.0516   68.1508  227.5416 H   0  0  0  0  0  0  0  0  0  0  0  0
  138.9767   69.3868  228.1369 H   0  0  0  0  0  0  0  0  0  0  0  0
  140.1384   71.1638  224.2267 H   0  0  0  0  0  0  0  0  0  0  0  0
  138.0835   75.7885  223.0975 H   0  0  0  0  0  0  0  0  0  0  0  0
  138.8365   78.1042  222.7239 H   0  0  0  0  0  0  0  0  0  0  0  0
  141.1020   78.8942  219.4019 H   0  0  0  0  0  0  0  0  0  0  0  0
  142.0739   82.7102  221.1613 H   0  0  0  0  0  0  0  0  0  0  0  0
  141.7122   81.6644  223.3910 H   0  0  0  0  0  0  0  0  0  0  0  0
  142.3852   76.6938  220.8154 H   0  0  0  0  0  0  0  0  0  0  0  0
  1  2  2  0
  2  3  1  0
  3  4  1  0
  4  5  1  0
  5  6  2  0
  6  7  1  0
  7  8  2  0
  8  9  1  0
  9 10  1  0
 10 11  2  0
 10 12  1  0
 12 13  1  0
 13 14  1  0
 14 15  1  0
 15 16  1  0
  9 17  2  0
  4 18  2  0
 18 19  1  0
 19 20  2  0
 20 21  1  0
 21 22  2  0
 22 23  1  0
 23 24  2  0
 24 25  1  0
 25 26  1  0
 25 27  2  0
 27 28  1  0
 28 29  2  0
 22 30  1  0
 30 31  2  0
 31  2  1  0
 17  5  1  0
 31 19  1  0
 16 12  1  0
 29 23  1  0
  3 32  1  0
  3 33  1  0
  6 34  1  0
  7 35  1  0
  8 36  1  0
 13 37  1  0
 13 38  1  0
 14 39  1  0
 14 40  1  0
 15 41  1  0
 15 42  1  0
 16 43  1  0
 16 44  1  0
 17 45  1  0
 20 46  1  0
 21 47  1  0
 24 48  1  0
 27 49  1  0
 28 50  1  0
 30 51  1  0
M  END
>  <smiles>  (13) 
O=C1CC(c2cccc(C(=O)N3CCCC3)c2)=Nc2ccc(-c3cc(Cl)ccn3)cc21

>  <score_type>  (13) 
oracle

>  <origin>  (13) 
autodockgpu

>  <m_score__min__energy>  (13) 
-9.0099999999999998

>  <m_primary>  (13) 
energy

>  <rmsd>  (13) 
6.067509908513605

>  <m_score__min__rmsd>  (13) 
6.067509908513605

>  <meeko>  (13) 
{"free_energy": -8.88, "intermolecular_energy": -9.77, "internal_energy": -0.78, "cluster_size": 34, "cluster_id": 1, "rank_in_cluster": 20}

>  <energy>  (13) 
-8.95

>  <cluster_rmsd>  (13) 
0.36

>  <cluster>  (13) 
1

$$$$

     RDKit          3D

 51 55  0  0  0  0  0  0  0  0999 V2000
  142.8720   74.2960  220.2090 O   0  0  0  0  0  0  0  0  0  0  0  0
  141.8320   74.0340  220.8590 C   0  0  0  0  0  0  0  0  0  0  0  0
  141.4890   72.6120  221.0530 C   0  0  0  0  0  0  0  0  0  0  0  0
  140.2490   72.5180  221.8500 C   0  0  0  0  0  0  0  0  0  0  0  0
  139.7580   71.1510  222.1430 C   0  0  0  0  0  0  0  0  0  0  0  0
  139.2770   70.3340  221.1230 C   0  0  0  0  0  0  0  0  0  0  0  0
  138.8220   69.0540  221.4100 C   0  0  0  0  0  0  0  0  0  0  0  0
  138.8330   68.5530  222.7140 C   0  0  0  0  0  0  0  0  0  0  0  0
  139.3080   69.3630  223.7150 C   0  0  0  0  0  0  0  0  0  0  0  0
  139.3820   68.9770  225.1170 C   0  0  0  0  0  0  0  0  0  0  0  0
  139.1470   67.7530  225.3690 O   0  0  0  0  0  0  0  0  0  0  0  0
  139.6940   69.8730  226.1640 N   0  0  0  0  0  0  0  0  0  0  0  0
  139.9890   71.2960  226.1370 C   0  0  0  0  0  0  0  0  0  0  0  0
  141.2280   71.3880  226.9950 C   0  0  0  0  0  0  0  0  0  0  0  0
  141.0650   70.2830  227.9900 C   0  0  0  0  0  0  0  0  0  0  0  0
  139.8040   69.5230  227.5770 C   0  0  0  0  0  0  0  0  0  0  0  0
  139.7590   70.6400  223.4100 C   0  0  0  0  0  0  0  0  0  0  0  0
  139.5670   73.5020  222.2990 N   0  0  0  0  0  0  0  0  0  0  0  0
  139.9210   74.8680  222.0850 C   0  0  0  0  0  0  0  0  0  0  0  0
  139.1870   75.9290  222.5520 C   0  0  0  0  0  0  0  0  0  0  0  0
  139.5900   77.2310  222.2930 C   0  0  0  0  0  0  0  0  0  0  0  0
  140.7240   77.5240  221.5700 C   0  0  0  0  0  0  0  0  0  0  0  0
  141.0840   78.9110  221.3200 C   0  0  0  0  0  0  0  0  0  0  0  0
  141.4070   79.4030  220.0750 C   0  0  0  0  0  0  0  0  0  0  0  0
  141.7420   80.7290  219.8790 C   0  0  0  0  0  0  0  0  0  0  0  0
  142.1570   81.3570  218.2860 Cl  0  0  0  0  0  0  0  0  0  0  0  0
  141.7600   81.6150  220.9450 C   0  0  0  0  0  0  0  0  0  0  0  0
  141.4310   81.0890  222.1770 C   0  0  0  0  0  0  0  0  0  0  0  0
  141.1070   79.7800  222.3490 N   0  0  0  0  0  0  0  0  0  0  0  0
  141.4650   76.4640  221.1000 C   0  0  0  0  0  0  0  0  0  0  0  0
  141.0560   75.1530  221.3620 C   0  0  0  0  0  0  0  0  0  0  0  0
  141.3351   72.1335  220.0746 H   0  0  0  0  0  0  0  0  0  0  0  0
  142.3083   72.1020  221.5809 H   0  0  0  0  0  0  0  0  0  0  0  0
  139.2575   70.7037  220.0872 H   0  0  0  0  0  0  0  0  0  0  0  0
  138.4449   68.4210  220.5933 H   0  0  0  0  0  0  0  0  0  0  0  0
  138.4710   67.5375  222.9325 H   0  0  0  0  0  0  0  0  0  0  0  0
  140.1886   71.6414  225.1119 H   0  0  0  0  0  0  0  0  0  0  0  0
  139.1594   71.9232  226.4953 H   0  0  0  0  0  0  0  0  0  0  0  0
  142.1342   71.2381  226.3898 H   0  0  0  0  0  0  0  0  0  0  0  0
  141.3393   72.3729  227.4720 H   0  0  0  0  0  0  0  0  0  0  0  0
  141.9386   69.6150  227.9652 H   0  0  0  0  0  0  0  0  0  0  0  0
  140.9810   70.6741  229.0147 H   0  0  0  0  0  0  0  0  0  0  0  0
  139.9275   68.4384  227.7126 H   0  0  0  0  0  0  0  0  0  0  0  0
  138.9142   69.7804  228.1703 H   0  0  0  0  0  0  0  0  0  0  0  0
  140.1355   71.2712  224.2284 H   0  0  0  0  0  0  0  0  0  0  0  0
  138.2728   75.7460  223.1357 H   0  0  0  0  0  0  0  0  0  0  0  0
  138.9802   78.0606  222.6801 H   0  0  0  0  0  0  0  0  0  0  0  0
  141.3980   78.7209  219.2120 H   0  0  0  0  0  0  0  0  0  0  0  0
  142.0214   82.6757  220.8160 H   0  0  0  0  0  0  0  0  0  0  0  0
  141.4308   81.7538  223.0534 H   0  0  0  0  0  0  0  0  0  0  0  0
  142.3799   76.6483  220.5177 H   0  0  0  0  0  0  0  0  0  0  0  0
  1  2  2  0
  2  3  1  0
  3  4  1  0
  4  5  1  0
  5  6  2  0
  6  7  1  0
  7  8  2  0
  8  9  1  0
  9 10  1  0
 10 11  2  0
 10 12  1  0
 12 13  1  0
 13 14  1  0
 14 15  1  0
 15 16  1  0
  9 17  2  0
  4 18  2  0
 18 19  1  0
 19 20  2  0
 20 21  1  0
 21 22  2  0
 22 23  1  0
 23 24  2  0
 24 25  1  0
 25 26  1  0
 25 27  2  0
 27 28  1  0
 28 29  2  0
 22 30  1  0
 30 31  2  0
 31  2  1  0
 17  5  1  0
 31 19  1  0
 16 12  1  0
 29 23  1  0
  3 32  1  0
  3 33  1  0
  6 34  1  0
  7 35  1  0
  8 36  1  0
 13 37  1  0
 13 38  1  0
 14 39  1  0
 14 40  1  0
 15 41  1  0
 15 42  1  0
 16 43  1  0
 16 44  1  0
 17 45  1  0
 20 46  1  0
 21 47  1  0
 24 48  1  0
 27 49  1  0
 28 50  1  0
 30 51  1  0
M  END
>  <smiles>  (14) 
O=C1CC(c2cccc(C(=O)N3CCCC3)c2)=Nc2ccc(-c3cc(Cl)ccn3)cc21

>  <score_type>  (14) 
oracle

>  <origin>  (14) 
autodockgpu

>  <m_score__min__energy>  (14) 
-9.0099999999999998

>  <m_primary>  (14) 
energy

>  <rmsd>  (14) 
6.111209556203228

>  <m_score__min__rmsd>  (14) 
6.111209556203228

>  <meeko>  (14) 
{"free_energy": -8.99, "intermolecular_energy": -9.88, "internal_energy": -0.73, "cluster_size": 34, "cluster_id": 1, "rank_in_cluster": 3}

>  <energy>  (14) 
-8.93

>  <cluster_rmsd>  (14) 
0.36

>  <cluster>  (14) 
1

$$$$

     RDKit          3D

 51 55  0  0  0  0  0  0  0  0999 V2000
  142.8770   74.5040  220.2630 O   0  0  0  0  0  0  0  0  0  0  0  0
  141.8450   74.2040  220.9100 C   0  0  0  0  0  0  0  0  0  0  0  0
  141.5300   72.7700  221.0660 C   0  0  0  0  0  0  0  0  0  0  0  0
  140.2960   72.6310  221.8660 C   0  0  0  0  0  0  0  0  0  0  0  0
  139.8320   71.2480  222.1220 C   0  0  0  0  0  0  0  0  0  0  0  0
  139.4010   70.4360  221.0750 C   0  0  0  0  0  0  0  0  0  0  0  0
  138.9710   69.1400  221.3280 C   0  0  0  0  0  0  0  0  0  0  0  0
  138.9570   68.6170  222.6230 C   0  0  0  0  0  0  0  0  0  0  0  0
  139.3830   69.4220  223.6510 C   0  0  0  0  0  0  0  0  0  0  0  0
  139.4270   69.0140  225.0480 C   0  0  0  0  0  0  0  0  0  0  0  0
  139.1870   67.7860  225.2750 O   0  0  0  0  0  0  0  0  0  0  0  0
  139.7160   69.8940  226.1150 N   0  0  0  0  0  0  0  0  0  0  0  0
  140.0100   71.3160  226.1170 C   0  0  0  0  0  0  0  0  0  0  0  0
  141.2310   71.3950  227.0030 C   0  0  0  0  0  0  0  0  0  0  0  0
  141.0470   70.2750  227.9760 C   0  0  0  0  0  0  0  0  0  0  0  0
  139.7950   69.5210  227.5240 C   0  0  0  0  0  0  0  0  0  0  0  0
  139.8100   70.7150  223.3790 C   0  0  0  0  0  0  0  0  0  0  0  0
  139.5980   73.5880  222.3460 N   0  0  0  0  0  0  0  0  0  0  0  0
  139.9260   74.9670  222.1690 C   0  0  0  0  0  0  0  0  0  0  0  0
  139.1750   76.0000  222.6700 C   0  0  0  0  0  0  0  0  0  0  0  0
  139.5520   77.3160  222.4460 C   0  0  0  0  0  0  0  0  0  0  0  0
  140.6770   77.6500  221.7270 C   0  0  0  0  0  0  0  0  0  0  0  0
  141.0100   79.0510  221.5140 C   0  0  0  0  0  0  0  0  0  0  0  0
  141.2180   79.6060  220.2710 C   0  0  0  0  0  0  0  0  0  0  0  0
  141.5300   80.9420  220.1120 C   0  0  0  0  0  0  0  0  0  0  0  0
  141.7980   81.6510  218.5220 Cl  0  0  0  0  0  0  0  0  0  0  0  0
  141.6430   81.7740  221.2160 C   0  0  0  0  0  0  0  0  0  0  0  0
  141.4290   81.1860  222.4440 C   0  0  0  0  0  0  0  0  0  0  0  0
  141.1240   79.8680  222.5800 N   0  0  0  0  0  0  0  0  0  0  0  0
  141.4340   76.6190  221.2230 C   0  0  0  0  0  0  0  0  0  0  0  0
  141.0510   75.2940  221.4490 C   0  0  0  0  0  0  0  0  0  0  0  0
  141.3800   72.3158  220.0754 H   0  0  0  0  0  0  0  0  0  0  0  0
  142.3615   72.2610  221.5754 H   0  0  0  0  0  0  0  0  0  0  0  0
  139.4013   70.8226  220.0452 H   0  0  0  0  0  0  0  0  0  0  0  0
  138.6341   68.5117  220.4903 H   0  0  0  0  0  0  0  0  0  0  0  0
  138.6144   67.5893  222.8142 H   0  0  0  0  0  0  0  0  0  0  0  0
  140.2310   71.6779  225.1020 H   0  0  0  0  0  0  0  0  0  0  0  0
  139.1724   71.9369  226.4675 H   0  0  0  0  0  0  0  0  0  0  0  0
  142.1501   71.2548  226.4151 H   0  0  0  0  0  0  0  0  0  0  0  0
  141.3318   72.3723  227.4976 H   0  0  0  0  0  0  0  0  0  0  0  0
  141.9212   69.6076  227.9595 H   0  0  0  0  0  0  0  0  0  0  0  0
  140.9406   70.6500  229.0046 H   0  0  0  0  0  0  0  0  0  0  0  0
  139.9161   68.4344  227.6447 H   0  0  0  0  0  0  0  0  0  0  0  0
  138.8924   69.7682  228.1021 H   0  0  0  0  0  0  0  0  0  0  0  0
  140.1474   71.3412  224.2181 H   0  0  0  0  0  0  0  0  0  0  0  0
  138.2679   75.7833  223.2532 H   0  0  0  0  0  0  0  0  0  0  0  0
  138.9284   78.1229  222.8585 H   0  0  0  0  0  0  0  0  0  0  0  0
  141.1333   78.9672  219.3795 H   0  0  0  0  0  0  0  0  0  0  0  0
  141.8892   82.8415  221.1172 H   0  0  0  0  0  0  0  0  0  0  0  0
  141.5080   81.8067  223.3487 H   0  0  0  0  0  0  0  0  0  0  0  0
  142.3419   76.8371  220.6414 H   0  0  0  0  0  0  0  0  0  0  0  0
  1  2  2  0
  2  3  1  0
  3  4  1  0
  4  5  1  0
  5  6  2  0
  6  7  1  0
  7  8  2  0
  8  9  1  0
  9 10  1  0
 10 11  2  0
 10 12  1  0
 12 13  1  0
 13 14  1  0
 14 15  1  0
 15 16  1  0
  9 17  2  0
  4 18  2  0
 18 19  1  0
 19 20  2  0
 20 21  1  0
 21 22  2  0
 22 23  1  0
 23 24  2  0
 24 25  1  0
 25 26  1  0
 25 27  2  0
 27 28  1  0
 28 29  2  0
 22 30  1  0
 30 31  2  0
 31  2  1  0
 17  5  1  0
 31 19  1  0
 16 12  1  0
 29 23  1  0
  3 32  1  0
  3 33  1  0
  6 34  1  0
  7 35  1  0
  8 36  1  0
 13 37  1  0
 13 38  1  0
 14 39  1  0
 14 40  1  0
 15 41  1  0
 15 42  1  0
 16 43  1  0
 16 44  1  0
 17 45  1  0
 20 46  1  0
 21 47  1  0
 24 48  1  0
 27 49  1  0
 28 50  1  0
 30 51  1  0
M  END
>  <smiles>  (15) 
O=C1CC(c2cccc(C(=O)N3CCCC3)c2)=Nc2ccc(-c3cc(Cl)ccn3)cc21

>  <score_type>  (15) 
oracle

>  <origin>  (15) 
autodockgpu

>  <m_score__min__energy>  (15) 
-9.0099999999999998

>  <m_primary>  (15) 
energy

>  <rmsd>  (15) 
6.131327980083456

>  <m_score__min__rmsd>  (15) 
6.131327980083456

>  <meeko>  (15) 
{"free_energy": -8.98, "intermolecular_energy": -9.88, "internal_energy": -0.74, "cluster_size": 34, "cluster_id": 1, "rank_in_cluster": 5}

>  <energy>  (15) 
-8.91

>  <cluster_rmsd>  (15) 
0.14

>  <cluster>  (15) 
1

$$$$

     RDKit          3D

 51 55  0  0  0  0  0  0  0  0999 V2000
  142.8290   74.4610  220.1890 O   0  0  0  0  0  0  0  0  0  0  0  0
  141.8020   74.1710  220.8470 C   0  0  0  0  0  0  0  0  0  0  0  0
  141.4630   72.7410  220.9880 C   0  0  0  0  0  0  0  0  0  0  0  0
  140.2390   72.6130  221.8040 C   0  0  0  0  0  0  0  0  0  0  0  0
  139.7530   71.2350  222.0480 C   0  0  0  0  0  0  0  0  0  0  0  0
  139.2400   70.4650  221.0060 C   0  0  0  0  0  0  0  0  0  0  0  0
  138.7910   69.1740  221.2490 C   0  0  0  0  0  0  0  0  0  0  0  0
  138.8390   68.6140  222.5270 C   0  0  0  0  0  0  0  0  0  0  0  0
  139.3460   69.3770  223.5500 C   0  0  0  0  0  0  0  0  0  0  0  0
  139.4610   68.9270  224.9290 C   0  0  0  0  0  0  0  0  0  0  0  0
  139.2930   67.6810  225.1230 O   0  0  0  0  0  0  0  0  0  0  0  0
  139.7410   69.7860  226.0160 N   0  0  0  0  0  0  0  0  0  0  0  0
  139.9610   71.2220  226.0560 C   0  0  0  0  0  0  0  0  0  0  0  0
  141.2070   71.3360  226.9030 C   0  0  0  0  0  0  0  0  0  0  0  0
  141.1160   70.1770  227.8430 C   0  0  0  0  0  0  0  0  0  0  0  0
  139.8900   69.3730  227.4080 C   0  0  0  0  0  0  0  0  0  0  0  0
  139.7900   70.6670  223.2900 C   0  0  0  0  0  0  0  0  0  0  0  0
  139.5650   73.5770  222.3060 N   0  0  0  0  0  0  0  0  0  0  0  0
  139.9150   74.9510  222.1430 C   0  0  0  0  0  0  0  0  0  0  0  0
  139.1890   75.9900  222.6680 C   0  0  0  0  0  0  0  0  0  0  0  0
  139.5870   77.3030  222.4570 C   0  0  0  0  0  0  0  0  0  0  0  0
  140.7080   77.6270  221.7260 C   0  0  0  0  0  0  0  0  0  0  0  0
  141.0620   79.0240  221.5270 C   0  0  0  0  0  0  0  0  0  0  0  0
  141.2190   79.6020  220.2870 C   0  0  0  0  0  0  0  0  0  0  0  0
  141.5550   80.9350  220.1410 C   0  0  0  0  0  0  0  0  0  0  0  0
  141.7580   81.6740  218.5550 Cl  0  0  0  0  0  0  0  0  0  0  0  0
  141.7450   81.7380  221.2550 C   0  0  0  0  0  0  0  0  0  0  0  0
  141.5800   81.1260  222.4800 C   0  0  0  0  0  0  0  0  0  0  0  0
  141.2500   79.8130  222.6020 N   0  0  0  0  0  0  0  0  0  0  0  0
  141.4390   76.5890  221.1970 C   0  0  0  0  0  0  0  0  0  0  0  0
  141.0350   75.2670  221.4110 C   0  0  0  0  0  0  0  0  0  0  0  0
  141.2902   72.3036  219.9936 H   0  0  0  0  0  0  0  0  0  0  0  0
  142.2924   72.2100  221.4780 H   0  0  0  0  0  0  0  0  0  0  0  0
  139.1907   70.8809  219.9889 H   0  0  0  0  0  0  0  0  0  0  0  0
  138.3884   68.5790  220.4160 H   0  0  0  0  0  0  0  0  0  0  0  0
  138.4807   67.5901  222.7094 H   0  0  0  0  0  0  0  0  0  0  0  0
  140.1273   71.6274  225.0470 H   0  0  0  0  0  0  0  0  0  0  0  0
  139.1054   71.7867  226.4547 H   0  0  0  0  0  0  0  0  0  0  0  0
  142.1107   71.2635  226.2800 H   0  0  0  0  0  0  0  0  0  0  0  0
  141.2744   72.3006  227.4273 H   0  0  0  0  0  0  0  0  0  0  0  0
  142.0226   69.5578  227.7744 H   0  0  0  0  0  0  0  0  0  0  0  0
  141.0268   70.5124  228.8868 H   0  0  0  0  0  0  0  0  0  0  0  0
  140.0717   68.2910  227.4876 H   0  0  0  0  0  0  0  0  0  0  0  0
  138.9970   69.5536  228.0244 H   0  0  0  0  0  0  0  0  0  0  0  0
  140.1910   71.2604  224.1249 H   0  0  0  0  0  0  0  0  0  0  0  0
  138.2857   75.7812  223.2600 H   0  0  0  0  0  0  0  0  0  0  0  0
  138.9843   78.1150  222.8900 H   0  0  0  0  0  0  0  0  0  0  0  0
  141.0730   78.9858  219.3876 H   0  0  0  0  0  0  0  0  0  0  0  0
  142.0119   82.8015  221.1671 H   0  0  0  0  0  0  0  0  0  0  0  0
  141.7208   81.7232  223.3930 H   0  0  0  0  0  0  0  0  0  0  0  0
  142.3422   76.7986  220.6051 H   0  0  0  0  0  0  0  0  0  0  0  0
  1  2  2  0
  2  3  1  0
  3  4  1  0
  4  5  1  0
  5  6  2  0
  6  7  1  0
  7  8  2  0
  8  9  1  0
  9 10  1  0
 10 11  2  0
 10 12  1  0
 12 13  1  0
 13 14  1  0
 14 15  1  0
 15 16  1  0
  9 17  2  0
  4 18  2  0
 18 19  1  0
 19 20  2  0
 20 21  1  0
 21 22  2  0
 22 23  1  0
 23 24  2  0
 24 25  1  0
 25 26  1  0
 25 27  2  0
 27 28  1  0
 28 29  2  0
 22 30  1  0
 30 31  2  0
 31  2  1  0
 17  5  1  0
 31 19  1  0
 16 12  1  0
 29 23  1  0
  3 32  1  0
  3 33  1  0
  6 34  1  0
  7 35  1  0
  8 36  1  0
 13 37  1  0
 13 38  1  0
 14 39  1  0
 14 40  1  0
 15 41  1  0
 15 42  1  0
 16 43  1  0
 16 44  1  0
 17 45  1  0
 20 46  1  0
 21 47  1  0
 24 48  1  0
 27 49  1  0
 28 50  1  0
 30 51  1  0
M  END
>  <smiles>  (16) 
O=C1CC(c2cccc(C(=O)N3CCCC3)c2)=Nc2ccc(-c3cc(Cl)ccn3)cc21

>  <score_type>  (16) 
oracle

>  <origin>  (16) 
autodockgpu

>  <m_score__min__energy>  (16) 
-9.0099999999999998

>  <m_primary>  (16) 
energy

>  <rmsd>  (16) 
6.125295632996113

>  <m_score__min__rmsd>  (16) 
6.125295632996113

>  <meeko>  (16) 
{"free_energy": -8.89, "intermolecular_energy": -9.79, "internal_energy": -0.77, "cluster_size": 34, "cluster_id": 1, "rank_in_cluster": 19}

>  <energy>  (16) 
-8.91

>  <cluster_rmsd>  (16) 
0.3

>  <cluster>  (16) 
1

$$$$

     RDKit          3D

 51 55  0  0  0  0  0  0  0  0999 V2000
  142.9170   74.1500  220.3390 O   0  0  0  0  0  0  0  0  0  0  0  0
  141.8470   73.8950  220.9420 C   0  0  0  0  0  0  0  0  0  0  0  0
  141.4970   72.4750  221.1400 C   0  0  0  0  0  0  0  0  0  0  0  0
  140.2210   72.3900  221.8790 C   0  0  0  0  0  0  0  0  0  0  0  0
  139.7180   71.0270  222.1670 C   0  0  0  0  0  0  0  0  0  0  0  0
  139.1740   70.2390  221.1540 C   0  0  0  0  0  0  0  0  0  0  0  0
  138.7090   68.9620  221.4380 C   0  0  0  0  0  0  0  0  0  0  0  0
  138.7710   68.4340  222.7290 C   0  0  0  0  0  0  0  0  0  0  0  0
  139.3080   69.2140  223.7230 C   0  0  0  0  0  0  0  0  0  0  0  0
  139.4410   68.7970  225.1110 C   0  0  0  0  0  0  0  0  0  0  0  0
  139.2760   67.5570  225.3370 O   0  0  0  0  0  0  0  0  0  0  0  0
  139.7340   69.6830  226.1730 N   0  0  0  0  0  0  0  0  0  0  0  0
  139.9540   71.1190  226.1760 C   0  0  0  0  0  0  0  0  0  0  0  0
  141.2100   71.2540  227.0040 C   0  0  0  0  0  0  0  0  0  0  0  0
  141.1320   70.1180  227.9720 C   0  0  0  0  0  0  0  0  0  0  0  0
  139.9010   69.3030  227.5730 C   0  0  0  0  0  0  0  0  0  0  0  0
  139.7690   70.4890  223.4220 C   0  0  0  0  0  0  0  0  0  0  0  0
  139.5170   73.3780  222.2800 N   0  0  0  0  0  0  0  0  0  0  0  0
  139.8790   74.7420  222.0650 C   0  0  0  0  0  0  0  0  0  0  0  0
  139.1230   75.8080  222.4810 C   0  0  0  0  0  0  0  0  0  0  0  0
  139.5360   77.1070  222.2230 C   0  0  0  0  0  0  0  0  0  0  0  0
  140.7030   77.3920  221.5520 C   0  0  0  0  0  0  0  0  0  0  0  0
  141.0730   78.7760  221.2990 C   0  0  0  0  0  0  0  0  0  0  0  0
  141.3880   79.2670  220.0510 C   0  0  0  0  0  0  0  0  0  0  0  0
  141.7320   80.5900  219.8530 C   0  0  0  0  0  0  0  0  0  0  0  0
  142.1370   81.2170  218.2570 Cl  0  0  0  0  0  0  0  0  0  0  0  0
  141.7690   81.4740  220.9210 C   0  0  0  0  0  0  0  0  0  0  0  0
  141.4480   80.9500  222.1550 C   0  0  0  0  0  0  0  0  0  0  0  0
  141.1130   79.6440  222.3290 N   0  0  0  0  0  0  0  0  0  0  0  0
  141.4660   76.3280  221.1320 C   0  0  0  0  0  0  0  0  0  0  0  0
  141.0470   75.0190  221.3920 C   0  0  0  0  0  0  0  0  0  0  0  0
  141.3899   71.9823  220.1624 H   0  0  0  0  0  0  0  0  0  0  0  0
  142.2911   71.9741  221.7131 H   0  0  0  0  0  0  0  0  0  0  0  0
  139.1130   70.6297  220.1275 H   0  0  0  0  0  0  0  0  0  0  0  0
  138.2822   68.3526  220.6278 H   0  0  0  0  0  0  0  0  0  0  0  0
  138.3998   67.4210  222.9438 H   0  0  0  0  0  0  0  0  0  0  0  0
  140.1074   71.5000  225.1556 H   0  0  0  0  0  0  0  0  0  0  0  0
  139.1032   71.6928  226.5721 H   0  0  0  0  0  0  0  0  0  0  0  0
  142.1059   71.1674  226.3716 H   0  0  0  0  0  0  0  0  0  0  0  0
  141.2830   72.2309  227.5043 H   0  0  0  0  0  0  0  0  0  0  0  0
  142.0380   69.4977  227.9062 H   0  0  0  0  0  0  0  0  0  0  0  0
  141.0561   70.4784  229.0085 H   0  0  0  0  0  0  0  0  0  0  0  0
  140.0845   68.2233  227.6761 H   0  0  0  0  0  0  0  0  0  0  0  0
  139.0160   69.4975  228.1966 H   0  0  0  0  0  0  0  0  0  0  0  0
  140.1963   71.0957  224.2340 H   0  0  0  0  0  0  0  0  0  0  0  0
  138.1823   75.6317  223.0232 H   0  0  0  0  0  0  0  0  0  0  0  0
  138.9067   77.9407  222.5679 H   0  0  0  0  0  0  0  0  0  0  0  0
  141.3649   78.5860  219.1875 H   0  0  0  0  0  0  0  0  0  0  0  0
  142.0390   82.5324  220.7909 H   0  0  0  0  0  0  0  0  0  0  0  0
  141.4635   81.6137  223.0321 H   0  0  0  0  0  0  0  0  0  0  0  0
  142.4070   76.5064  220.5909 H   0  0  0  0  0  0  0  0  0  0  0  0
  1  2  2  0
  2  3  1  0
  3  4  1  0
  4  5  1  0
  5  6  2  0
  6  7  1  0
  7  8  2  0
  8  9  1  0
  9 10  1  0
 10 11  2  0
 10 12  1  0
 12 13  1  0
 13 14  1  0
 14 15  1  0
 15 16  1  0
  9 17  2  0
  4 18  2  0
 18 19  1  0
 19 20  2  0
 20 21  1  0
 21 22  2  0
 22 23  1  0
 23 24  2  0
 24 25  1  0
 25 26  1  0
 25 27  2  0
 27 28  1  0
 28 29  2  0
 22 30  1  0
 30 31  2  0
 31  2  1  0
 17  5  1  0
 31 19  1  0
 16 12  1  0
 29 23  1  0
  3 32  1  0
  3 33  1  0
  6 34  1  0
  7 35  1  0
  8 36  1  0
 13 37  1  0
 13 38  1  0
 14 39  1  0
 14 40  1  0
 15 41  1  0
 15 42  1  0
 16 43  1  0
 16 44  1  0
 17 45  1  0
 20 46  1  0
 21 47  1  0
 24 48  1  0
 27 49  1  0
 28 50  1  0
 30 51  1  0
M  END
>  <smiles>  (17) 
O=C1CC(c2cccc(C(=O)N3CCCC3)c2)=Nc2ccc(-c3cc(Cl)ccn3)cc21

>  <score_type>  (17) 
oracle

>  <origin>  (17) 
autodockgpu

>  <m_score__min__energy>  (17) 
-9.0099999999999998

>  <m_primary>  (17) 
energy

>  <rmsd>  (17) 
6.073125947290499

>  <m_score__min__rmsd>  (17) 
6.073125947290499

>  <meeko>  (17) 
{"free_energy": -8.91, "intermolecular_energy": -9.8, "internal_energy": -0.77, "cluster_size": 34, "cluster_id": 1, "rank_in_cluster": 16}

>  <energy>  (17) 
-8.9

>  <cluster_rmsd>  (17) 
0.29

>  <cluster>  (17) 
1

$$$$

     RDKit          3D

 51 55  0  0  0  0  0  0  0  0999 V2000
  143.2730   74.8020  219.4550 O   0  0  0  0  0  0  0  0  0  0  0  0
  142.3010   74.7550  220.2460 C   0  0  0  0  0  0  0  0  0  0  0  0
  141.9720   73.4470  220.8460 C   0  0  0  0  0  0  0  0  0  0  0  0
  140.8170   73.6070  221.7520 C   0  0  0  0  0  0  0  0  0  0  0  0
  140.3500   72.3840  222.4440 C   0  0  0  0  0  0  0  0  0  0  0  0
  139.6150   71.4160  221.7630 C   0  0  0  0  0  0  0  0  0  0  0  0
  139.1870   70.2720  222.4230 C   0  0  0  0  0  0  0  0  0  0  0  0
  139.4750   70.0600  223.7740 C   0  0  0  0  0  0  0  0  0  0  0  0
  140.1990   71.0160  224.4400 C   0  0  0  0  0  0  0  0  0  0  0  0
  140.5760   70.9300  225.8430 C   0  0  0  0  0  0  0  0  0  0  0  0
  140.7910   72.0380  226.4290 O   0  0  0  0  0  0  0  0  0  0  0  0
  140.7050   69.7130  226.5490 N   0  0  0  0  0  0  0  0  0  0  0  0
  140.5250   68.3400  226.1110 C   0  0  0  0  0  0  0  0  0  0  0  0
  139.6600   67.7590  227.2050 C   0  0  0  0  0  0  0  0  0  0  0  0
  140.0680   68.5140  228.4300 C   0  0  0  0  0  0  0  0  0  0  0  0
  141.0550   69.5840  227.9610 C   0  0  0  0  0  0  0  0  0  0  0  0
  140.6200   72.1540  223.7640 C   0  0  0  0  0  0  0  0  0  0  0  0
  140.1870   74.6960  221.9830 N   0  0  0  0  0  0  0  0  0  0  0  0
  140.5250   75.9440  221.3790 C   0  0  0  0  0  0  0  0  0  0  0  0
  139.8470   77.1140  221.6130 C   0  0  0  0  0  0  0  0  0  0  0  0
  140.2290   78.2870  220.9780 C   0  0  0  0  0  0  0  0  0  0  0  0
  141.2870   78.3410  220.1000 C   0  0  0  0  0  0  0  0  0  0  0  0
  141.6270   79.6000  219.4550 C   0  0  0  0  0  0  0  0  0  0  0  0
  141.0780   80.8130  219.8100 C   0  0  0  0  0  0  0  0  0  0  0  0
  141.4310   81.9870  219.1720 C   0  0  0  0  0  0  0  0  0  0  0  0
  140.7270   83.5370  219.6260 Cl  0  0  0  0  0  0  0  0  0  0  0  0
  142.3600   81.9770  218.1430 C   0  0  0  0  0  0  0  0  0  0  0  0
  142.8880   80.7470  217.8130 C   0  0  0  0  0  0  0  0  0  0  0  0
  142.5280   79.6030  218.4520 N   0  0  0  0  0  0  0  0  0  0  0  0
  141.9720   77.1720  219.8620 C   0  0  0  0  0  0  0  0  0  0  0  0
  141.5840   75.9910  220.5020 C   0  0  0  0  0  0  0  0  0  0  0  0
  141.7196   72.7301  220.0507 H   0  0  0  0  0  0  0  0  0  0  0  0
  142.8372   73.0711  221.4118 H   0  0  0  0  0  0  0  0  0  0  0  0
  139.3731   71.5585  220.6994 H   0  0  0  0  0  0  0  0  0  0  0  0
  138.6089   69.5164  221.8708 H   0  0  0  0  0  0  0  0  0  0  0  0
  139.1305   69.1513  224.2893 H   0  0  0  0  0  0  0  0  0  0  0  0
  140.0161   68.2969  225.1367 H   0  0  0  0  0  0  0  0  0  0  0  0
  141.4712   67.7983  225.9656 H   0  0  0  0  0  0  0  0  0  0  0  0
  138.5938   67.9171  226.9856 H   0  0  0  0  0  0  0  0  0  0  0  0
  139.7905   66.6723  227.3150 H   0  0  0  0  0  0  0  0  0  0  0  0
  139.1906   68.9834  228.8988 H   0  0  0  0  0  0  0  0  0  0  0  0
  140.5229   67.8487  229.1786 H   0  0  0  0  0  0  0  0  0  0  0  0
  140.9047   70.5314  228.4993 H   0  0  0  0  0  0  0  0  0  0  0  0
  142.1097   69.3259  228.1373 H   0  0  0  0  0  0  0  0  0  0  0  0
  141.1992   72.9072  224.3183 H   0  0  0  0  0  0  0  0  0  0  0  0
  138.9950   77.1219  222.3087 H   0  0  0  0  0  0  0  0  0  0  0  0
  139.6648   79.2085  221.1842 H   0  0  0  0  0  0  0  0  0  0  0  0
  140.3385   80.8478  220.6236 H   0  0  0  0  0  0  0  0  0  0  0  0
  142.6586   82.8975  217.6200 H   0  0  0  0  0  0  0  0  0  0  0  0
  143.6287   80.6894  217.0018 H   0  0  0  0  0  0  0  0  0  0  0  0
  142.8253   77.1664  219.1679 H   0  0  0  0  0  0  0  0  0  0  0  0
  1  2  2  0
  2  3  1  0
  3  4  1  0
  4  5  1  0
  5  6  2  0
  6  7  1  0
  7  8  2  0
  8  9  1  0
  9 10  1  0
 10 11  2  0
 10 12  1  0
 12 13  1  0
 13 14  1  0
 14 15  1  0
 15 16  1  0
  9 17  2  0
  4 18  2  0
 18 19  1  0
 19 20  2  0
 20 21  1  0
 21 22  2  0
 22 23  1  0
 23 24  2  0
 24 25  1  0
 25 26  1  0
 25 27  2  0
 27 28  1  0
 28 29  2  0
 22 30  1  0
 30 31  2  0
 31  2  1  0
 17  5  1  0
 31 19  1  0
 16 12  1  0
 29 23  1  0
  3 32  1  0
  3 33  1  0
  6 34  1  0
  7 35  1  0
  8 36  1  0
 13 37  1  0
 13 38  1  0
 14 39  1  0
 14 40  1  0
 15 41  1  0
 15 42  1  0
 16 43  1  0
 16 44  1  0
 17 45  1  0
 20 46  1  0
 21 47  1  0
 24 48  1  0
 27 49  1  0
 28 50  1  0
 30 51  1  0
M  END
>  <smiles>  (18) 
O=C1CC(c2cccc(C(=O)N3CCCC3)c2)=Nc2ccc(-c3cc(Cl)ccn3)cc21

>  <score_type>  (18) 
oracle

>  <origin>  (18) 
autodockgpu

>  <m_score__min__energy>  (18) 
-9.0099999999999998

>  <m_primary>  (18) 
energy

>  <rmsd>  (18) 
7.347082330742289

>  <m_score__min__rmsd>  (18) 
7.347082330742289

>  <meeko>  (18) 
{"free_energy": -8.73, "intermolecular_energy": -9.62, "internal_energy": -0.88, "cluster_size": 34, "cluster_id": 1, "rank_in_cluster": 27}

>  <energy>  (18) 
-8.9

>  <cluster_rmsd>  (18) 
0.13

>  <cluster>  (18) 
1

$$$$

     RDKit          3D

 51 55  0  0  0  0  0  0  0  0999 V2000
  142.9840   73.4670  220.4290 O   0  0  0  0  0  0  0  0  0  0  0  0
  141.8950   73.2760  221.0220 C   0  0  0  0  0  0  0  0  0  0  0  0
  141.5300   71.8830  221.3460 C   0  0  0  0  0  0  0  0  0  0  0  0
  140.2320   71.8750  222.0500 C   0  0  0  0  0  0  0  0  0  0  0  0
  139.7120   70.5480  222.4530 C   0  0  0  0  0  0  0  0  0  0  0  0
  139.1880   69.6700  221.5070 C   0  0  0  0  0  0  0  0  0  0  0  0
  138.7060   68.4280  221.8990 C   0  0  0  0  0  0  0  0  0  0  0  0
  138.7320   68.0260  223.2360 C   0  0  0  0  0  0  0  0  0  0  0  0
  139.2490   68.8940  224.1640 C   0  0  0  0  0  0  0  0  0  0  0  0
  139.3430   68.6120  225.5890 C   0  0  0  0  0  0  0  0  0  0  0  0
  139.1150   67.4090  225.9330 O   0  0  0  0  0  0  0  0  0  0  0  0
  139.6660   69.5830  226.5630 N   0  0  0  0  0  0  0  0  0  0  0  0
  139.9570   71.0000  226.4290 C   0  0  0  0  0  0  0  0  0  0  0  0
  141.2070   71.1560  227.2620 C   0  0  0  0  0  0  0  0  0  0  0  0
  141.0610   70.1270  228.3360 C   0  0  0  0  0  0  0  0  0  0  0  0
  139.7960   69.3360  227.9960 C   0  0  0  0  0  0  0  0  0  0  0  0
  139.7270   70.1330  223.7550 C   0  0  0  0  0  0  0  0  0  0  0  0
  139.5230   72.9000  222.3330 N   0  0  0  0  0  0  0  0  0  0  0  0
  139.9010   74.2350  221.9970 C   0  0  0  0  0  0  0  0  0  0  0  0
  139.1390   75.3400  222.2850 C   0  0  0  0  0  0  0  0  0  0  0  0
  139.5680   76.6060  221.9150 C   0  0  0  0  0  0  0  0  0  0  0  0
  140.7570   76.8200  221.2550 C   0  0  0  0  0  0  0  0  0  0  0  0
  141.1430   78.1720  220.8800 C   0  0  0  0  0  0  0  0  0  0  0  0
  141.1480   79.2350  221.7560 C   0  0  0  0  0  0  0  0  0  0  0  0
  141.5240   80.5040  221.3610 C   0  0  0  0  0  0  0  0  0  0  0  0
  141.5280   81.8630  222.4820 Cl  0  0  0  0  0  0  0  0  0  0  0  0
  141.9130   80.7470  220.0520 C   0  0  0  0  0  0  0  0  0  0  0  0
  141.8950   79.6610  219.2020 C   0  0  0  0  0  0  0  0  0  0  0  0
  141.5210   78.4200  219.6110 N   0  0  0  0  0  0  0  0  0  0  0  0
  141.5250   75.7170  220.9630 C   0  0  0  0  0  0  0  0  0  0  0  0
  141.0890   74.4420  221.3360 C   0  0  0  0  0  0  0  0  0  0  0  0
  141.4493   71.2980  220.4180 H   0  0  0  0  0  0  0  0  0  0  0  0
  142.3032   71.4373  221.9890 H   0  0  0  0  0  0  0  0  0  0  0  0
  139.1559   69.9612  220.4467 H   0  0  0  0  0  0  0  0  0  0  0  0
  138.2949   67.7462  221.1399 H   0  0  0  0  0  0  0  0  0  0  0  0
  138.3483   67.0400  223.5370 H   0  0  0  0  0  0  0  0  0  0  0  0
  140.1425   71.2704  225.3790 H   0  0  0  0  0  0  0  0  0  0  0  0
  139.1305   71.6503  226.7516 H   0  0  0  0  0  0  0  0  0  0  0  0
  142.1056   70.9642  226.6572 H   0  0  0  0  0  0  0  0  0  0  0  0
  141.3212   72.1731  227.6650 H   0  0  0  0  0  0  0  0  0  0  0  0
  141.9362   69.4608  228.3481 H   0  0  0  0  0  0  0  0  0  0  0  0
  140.9897   70.5913  229.3307 H   0  0  0  0  0  0  0  0  0  0  0  0
  139.9247   68.2643  228.2077 H   0  0  0  0  0  0  0  0  0  0  0  0
  138.9135   69.6336  228.5814 H   0  0  0  0  0  0  0  0  0  0  0  0
  140.1374   70.8128  224.5162 H   0  0  0  0  0  0  0  0  0  0  0  0
  138.1814   75.2205  222.8130 H   0  0  0  0  0  0  0  0  0  0  0  0
  138.9343   77.4716  222.1581 H   0  0  0  0  0  0  0  0  0  0  0  0
  140.8438   79.0685  222.7999 H   0  0  0  0  0  0  0  0  0  0  0  0
  142.2181   81.7475  219.7116 H   0  0  0  0  0  0  0  0  0  0  0  0
  142.1947   79.8047  218.1534 H   0  0  0  0  0  0  0  0  0  0  0  0
  142.4828   75.8380  220.4357 H   0  0  0  0  0  0  0  0  0  0  0  0
  1  2  2  0
  2  3  1  0
  3  4  1  0
  4  5  1  0
  5  6  2  0
  6  7  1  0
  7  8  2  0
  8  9  1  0
  9 10  1  0
 10 11  2  0
 10 12  1  0
 12 13  1  0
 13 14  1  0
 14 15  1  0
 15 16  1  0
  9 17  2  0
  4 18  2  0
 18 19  1  0
 19 20  2  0
 20 21  1  0
 21 22  2  0
 22 23  1  0
 23 24  2  0
 24 25  1  0
 25 26  1  0
 25 27  2  0
 27 28  1  0
 28 29  2  0
 22 30  1  0
 30 31  2  0
 31  2  1  0
 17  5  1  0
 31 19  1  0
 16 12  1  0
 29 23  1  0
  3 32  1  0
  3 33  1  0
  6 34  1  0
  7 35  1  0
  8 36  1  0
 13 37  1  0
 13 38  1  0
 14 39  1  0
 14 40  1  0
 15 41  1  0
 15 42  1  0
 16 43  1  0
 16 44  1  0
 17 45  1  0
 20 46  1  0
 21 47  1  0
 24 48  1  0
 27 49  1  0
 28 50  1  0
 30 51  1  0
M  END
>  <smiles>  (19) 
O=C1CC(c2cccc(C(=O)N3CCCC3)c2)=Nc2ccc(-c3cc(Cl)ccn3)cc21

>  <score_type>  (19) 
oracle

>  <origin>  (19) 
autodockgpu

>  <m_score__min__energy>  (19) 
-9.0099999999999998

>  <m_primary>  (19) 
energy

>  <rmsd>  (19) 
5.995157928002691

>  <m_score__min__rmsd>  (19) 
5.995157928002691

>  <meeko>  (19) 
{"free_energy": -8.83, "intermolecular_energy": -9.72, "internal_energy": -0.74, "cluster_size": 34, "cluster_id": 1, "rank_in_cluster": 24}

>  <energy>  (19) 
-8.89

>  <cluster_rmsd>  (19) 
0.12

>  <cluster>  (19) 
1

$$$$

     RDKit          3D

 51 55  0  0  0  0  0  0  0  0999 V2000
  143.7060   72.3550  220.8460 O   0  0  0  0  0  0  0  0  0  0  0  0
  142.8470   73.2670  220.7790 C   0  0  0  0  0  0  0  0  0  0  0  0
  143.2110   74.4940  220.0440 C   0  0  0  0  0  0  0  0  0  0  0  0
  142.0680   75.4290  220.0670 C   0  0  0  0  0  0  0  0  0  0  0  0
  142.2620   76.7210  219.3700 C   0  0  0  0  0  0  0  0  0  0  0  0
  142.7730   76.7620  218.0740 C   0  0  0  0  0  0  0  0  0  0  0  0
  142.9470   77.9800  217.4310 C   0  0  0  0  0  0  0  0  0  0  0  0
  142.6210   79.1860  218.0540 C   0  0  0  0  0  0  0  0  0  0  0  0
  142.1180   79.1400  219.3310 C   0  0  0  0  0  0  0  0  0  0  0  0
  141.7320   80.3120  220.1030 C   0  0  0  0  0  0  0  0  0  0  0  0
  141.1760   81.2500  219.4490 O   0  0  0  0  0  0  0  0  0  0  0  0
  141.9430   80.4410  221.4940 N   0  0  0  0  0  0  0  0  0  0  0  0
  142.5550   79.5320  222.4490 C   0  0  0  0  0  0  0  0  0  0  0  0
  141.5570   79.5310  223.5830 C   0  0  0  0  0  0  0  0  0  0  0  0
  140.9620   80.9020  223.5450 C   0  0  0  0  0  0  0  0  0  0  0  0
  141.5490   81.5860  222.3100 C   0  0  0  0  0  0  0  0  0  0  0  0
  141.9510   77.9130  219.9590 C   0  0  0  0  0  0  0  0  0  0  0  0
  140.9420   75.2250  220.6370 N   0  0  0  0  0  0  0  0  0  0  0  0
  140.6240   74.0300  221.3490 C   0  0  0  0  0  0  0  0  0  0  0  0
  139.4220   73.8100  221.9730 C   0  0  0  0  0  0  0  0  0  0  0  0
  139.1920   72.6250  222.6570 C   0  0  0  0  0  0  0  0  0  0  0  0
  140.1350   71.6260  222.7430 C   0  0  0  0  0  0  0  0  0  0  0  0
  139.8360   70.4130  223.4890 C   0  0  0  0  0  0  0  0  0  0  0  0
  140.2320   70.2000  224.7910 C   0  0  0  0  0  0  0  0  0  0  0  0
  139.9260   69.0340  225.4650 C   0  0  0  0  0  0  0  0  0  0  0  0
  140.4340   68.7620  227.1300 Cl  0  0  0  0  0  0  0  0  0  0  0  0
  139.2010   68.0300  224.8410 C   0  0  0  0  0  0  0  0  0  0  0  0
  138.8220   68.2760  223.5380 C   0  0  0  0  0  0  0  0  0  0  0  0
  139.1340   69.4300  222.8920 N   0  0  0  0  0  0  0  0  0  0  0  0
  141.3410   71.8400  222.1190 C   0  0  0  0  0  0  0  0  0  0  0  0
  141.5710   73.0360  221.4320 C   0  0  0  0  0  0  0  0  0  0  0  0
  144.0820   74.9653  220.5228 H   0  0  0  0  0  0  0  0  0  0  0  0
  143.4619   74.2415  219.0032 H   0  0  0  0  0  0  0  0  0  0  0  0
  143.0391   75.8270  217.5593 H   0  0  0  0  0  0  0  0  0  0  0  0
  143.3507   77.9952  216.4079 H   0  0  0  0  0  0  0  0  0  0  0  0
  142.7631   80.1462  217.5365 H   0  0  0  0  0  0  0  0  0  0  0  0
  142.6720   78.5254  222.0213 H   0  0  0  0  0  0  0  0  0  0  0  0
  143.5675   79.8335  222.7554 H   0  0  0  0  0  0  0  0  0  0  0  0
  140.7840   78.7651  223.4224 H   0  0  0  0  0  0  0  0  0  0  0  0
  142.0201   79.2980  224.5532 H   0  0  0  0  0  0  0  0  0  0  0  0
  139.8668   80.8405  223.4628 H   0  0  0  0  0  0  0  0  0  0  0  0
  141.1907   81.4645  224.4622 H   0  0  0  0  0  0  0  0  0  0  0  0
  140.7959   82.2028  221.7977 H   0  0  0  0  0  0  0  0  0  0  0  0
  142.3737   82.2786  222.5338 H   0  0  0  0  0  0  0  0  0  0  0  0
  141.5479   77.9005  220.9824 H   0  0  0  0  0  0  0  0  0  0  0  0
  138.6357   74.5780  221.9307 H   0  0  0  0  0  0  0  0  0  0  0  0
  138.2193   72.4783  223.1492 H   0  0  0  0  0  0  0  0  0  0  0  0
  140.8084   70.9809  225.3087 H   0  0  0  0  0  0  0  0  0  0  0  0
  138.9433   67.0923  225.3552 H   0  0  0  0  0  0  0  0  0  0  0  0
  138.2450   67.5086  223.0011 H   0  0  0  0  0  0  0  0  0  0  0  0
  142.1255   71.0700  222.1601 H   0  0  0  0  0  0  0  0  0  0  0  0
  1  2  2  0
  2  3  1  0
  3  4  1  0
  4  5  1  0
  5  6  2  0
  6  7  1  0
  7  8  2  0
  8  9  1  0
  9 10  1  0
 10 11  2  0
 10 12  1  0
 12 13  1  0
 13 14  1  0
 14 15  1  0
 15 16  1  0
  9 17  2  0
  4 18  2  0
 18 19  1  0
 19 20  2  0
 20 21  1  0
 21 22  2  0
 22 23  1  0
 23 24  2  0
 24 25  1  0
 25 26  1  0
 25 27  2  0
 27 28  1  0
 28 29  2  0
 22 30  1  0
 30 31  2  0
 31  2  1  0
 17  5  1  0
 31 19  1  0
 16 12  1  0
 29 23  1  0
  3 32  1  0
  3 33  1  0
  6 34  1  0
  7 35  1  0
  8 36  1  0
 13 37  1  0
 13 38  1  0
 14 39  1  0
 14 40  1  0
 15 41  1  0
 15 42  1  0
 16 43  1  0
 16 44  1  0
 17 45  1  0
 20 46  1  0
 21 47  1  0
 24 48  1  0
 27 49  1  0
 28 50  1  0
 30 51  1  0
M  END
>  <smiles>  (20) 
O=C1CC(c2cccc(C(=O)N3CCCC3)c2)=Nc2ccc(-c3cc(Cl)ccn3)cc21

>  <score_type>  (20) 
oracle

>  <origin>  (20) 
autodockgpu

>  <m_score__min__energy>  (20) 
-9.0099999999999998

>  <m_primary>  (20) 
energy

>  <rmsd>  (20) 
8.332086240993647

>  <m_score__min__rmsd>  (20) 
8.332086240993647

>  <meeko>  (20) 
{"free_energy": -8.3, "intermolecular_energy": -9.2, "internal_energy": -0.97, "cluster_size": 7, "cluster_id": 3, "rank_in_cluster": 1}

>  <energy>  (20) 
-8.88

>  <cluster_rmsd>  (20) 
0.17

>  <cluster>  (20) 
1

$$$$

     RDKit          3D

 51 55  0  0  0  0  0  0  0  0999 V2000
  142.9070   74.1560  220.3580 O   0  0  0  0  0  0  0  0  0  0  0  0
  141.8370   73.9070  220.9620 C   0  0  0  0  0  0  0  0  0  0  0  0
  141.4760   72.4890  221.1550 C   0  0  0  0  0  0  0  0  0  0  0  0
  140.2010   72.4110  221.8950 C   0  0  0  0  0  0  0  0  0  0  0  0
  139.6880   71.0500  222.1790 C   0  0  0  0  0  0  0  0  0  0  0  0
  139.1450   70.2670  221.1630 C   0  0  0  0  0  0  0  0  0  0  0  0
  138.6710   68.9920  221.4430 C   0  0  0  0  0  0  0  0  0  0  0  0
  138.7220   68.4630  222.7350 C   0  0  0  0  0  0  0  0  0  0  0  0
  139.2580   69.2390  223.7320 C   0  0  0  0  0  0  0  0  0  0  0  0
  139.3800   68.8210  225.1210 C   0  0  0  0  0  0  0  0  0  0  0  0
  139.1940   67.5830  225.3460 O   0  0  0  0  0  0  0  0  0  0  0  0
  139.6850   69.7010  226.1830 N   0  0  0  0  0  0  0  0  0  0  0  0
  139.9290   71.1340  226.1860 C   0  0  0  0  0  0  0  0  0  0  0  0
  141.1850   71.2480  227.0170 C   0  0  0  0  0  0  0  0  0  0  0  0
  141.0860   70.1140  227.9860 C   0  0  0  0  0  0  0  0  0  0  0  0
  139.8420   69.3200  227.5830 C   0  0  0  0  0  0  0  0  0  0  0  0
  139.7280   70.5120  223.4340 C   0  0  0  0  0  0  0  0  0  0  0  0
  139.5040   73.4030  222.3010 N   0  0  0  0  0  0  0  0  0  0  0  0
  139.8760   74.7650  222.0900 C   0  0  0  0  0  0  0  0  0  0  0  0
  139.1280   75.8350  222.5110 C   0  0  0  0  0  0  0  0  0  0  0  0
  139.5510   77.1320  222.2570 C   0  0  0  0  0  0  0  0  0  0  0  0
  140.7190   77.4100  221.5850 C   0  0  0  0  0  0  0  0  0  0  0  0
  141.0980   78.7930  221.3360 C   0  0  0  0  0  0  0  0  0  0  0  0
  141.4250   79.2830  220.0910 C   0  0  0  0  0  0  0  0  0  0  0  0
  141.7780   80.6050  219.8970 C   0  0  0  0  0  0  0  0  0  0  0  0
  142.1970   81.2300  218.3050 Cl  0  0  0  0  0  0  0  0  0  0  0  0
  141.8130   81.4870  220.9660 C   0  0  0  0  0  0  0  0  0  0  0  0
  141.4810   80.9630  222.1980 C   0  0  0  0  0  0  0  0  0  0  0  0
  141.1370   79.6590  222.3680 N   0  0  0  0  0  0  0  0  0  0  0  0
  141.4740   76.3420  221.1600 C   0  0  0  0  0  0  0  0  0  0  0  0
  141.0450   75.0360  221.4160 C   0  0  0  0  0  0  0  0  0  0  0  0
  141.3638   72.0010  220.1756 H   0  0  0  0  0  0  0  0  0  0  0  0
  142.2669   71.9798  221.7252 H   0  0  0  0  0  0  0  0  0  0  0  0
  139.0915   70.6593  220.1367 H   0  0  0  0  0  0  0  0  0  0  0  0
  138.2461   68.3854  220.6297 H   0  0  0  0  0  0  0  0  0  0  0  0
  138.3430   67.4524  222.9473 H   0  0  0  0  0  0  0  0  0  0  0  0
  140.0912   71.5121  225.1658 H   0  0  0  0  0  0  0  0  0  0  0  0
  139.0869   71.7222  226.5797 H   0  0  0  0  0  0  0  0  0  0  0  0
  142.0807   71.1458  226.3867 H   0  0  0  0  0  0  0  0  0  0  0  0
  141.2730   72.2238  227.5170 H   0  0  0  0  0  0  0  0  0  0  0  0
  141.9817   69.4785  227.9230 H   0  0  0  0  0  0  0  0  0  0  0  0
  141.0140   70.4757  229.0223 H   0  0  0  0  0  0  0  0  0  0  0  0
  140.0066   68.2374  227.6874 H   0  0  0  0  0  0  0  0  0  0  0  0
  138.9587   69.5308  228.2037 H   0  0  0  0  0  0  0  0  0  0  0  0
  140.1533   71.1164  224.2488 H   0  0  0  0  0  0  0  0  0  0  0  0
  138.1866   75.6638  223.0536 H   0  0  0  0  0  0  0  0  0  0  0  0
  138.9290   77.9695  222.6061 H   0  0  0  0  0  0  0  0  0  0  0  0
  141.4046   78.6029  219.2267 H   0  0  0  0  0  0  0  0  0  0  0  0
  142.0897   82.5440  220.8390 H   0  0  0  0  0  0  0  0  0  0  0  0
  141.4952   81.6254  223.0761 H   0  0  0  0  0  0  0  0  0  0  0  0
  142.4157   76.5152  220.6185 H   0  0  0  0  0  0  0  0  0  0  0  0
  1  2  2  0
  2  3  1  0
  3  4  1  0
  4  5  1  0
  5  6  2  0
  6  7  1  0
  7  8  2  0
  8  9  1  0
  9 10  1  0
 10 11  2  0
 10 12  1  0
 12 13  1  0
 13 14  1  0
 14 15  1  0
 15 16  1  0
  9 17  2  0
  4 18  2  0
 18 19  1  0
 19 20  2  0
 20 21  1  0
 21 22  2  0
 22 23  1  0
 23 24  2  0
 24 25  1  0
 25 26  1  0
 25 27  2  0
 27 28  1  0
 28 29  2  0
 22 30  1  0
 30 31  2  0
 31  2  1  0
 17  5  1  0
 31 19  1  0
 16 12  1  0
 29 23  1  0
  3 32  1  0
  3 33  1  0
  6 34  1  0
  7 35  1  0
  8 36  1  0
 13 37  1  0
 13 38  1  0
 14 39  1  0
 14 40  1  0
 15 41  1  0
 15 42  1  0
 16 43  1  0
 16 44  1  0
 17 45  1  0
 20 46  1  0
 21 47  1  0
 24 48  1  0
 27 49  1  0
 28 50  1  0
 30 51  1  0
M  END
>  <smiles>  (21) 
O=C1CC(c2cccc(C(=O)N3CCCC3)c2)=Nc2ccc(-c3cc(Cl)ccn3)cc21

>  <score_type>  (21) 
oracle

>  <origin>  (21) 
autodockgpu

>  <m_score__min__energy>  (21) 
-9.0099999999999998

>  <m_primary>  (21) 
energy

>  <rmsd>  (21) 
6.06738580753256

>  <m_score__min__rmsd>  (21) 
6.06738580753256

>  <meeko>  (21) 
{"free_energy": -8.96, "intermolecular_energy": -9.86, "internal_energy": -0.77, "cluster_size": 34, "cluster_id": 1, "rank_in_cluster": 9}

>  <energy>  (21) 
-8.85

>  <cluster_rmsd>  (21) 
1.17

>  <cluster>  (21) 
1

$$$$

     RDKit          3D

 51 55  0  0  0  0  0  0  0  0999 V2000
  142.9030   73.4540  220.1400 O   0  0  0  0  0  0  0  0  0  0  0  0
  141.8620   73.2860  220.8190 C   0  0  0  0  0  0  0  0  0  0  0  0
  141.4790   71.9000  221.1500 C   0  0  0  0  0  0  0  0  0  0  0  0
  140.2450   71.9200  221.9610 C   0  0  0  0  0  0  0  0  0  0  0  0
  139.7170   70.6030  222.3860 C   0  0  0  0  0  0  0  0  0  0  0  0
  139.1990   69.7080  221.4520 C   0  0  0  0  0  0  0  0  0  0  0  0
  138.7090   68.4750  221.8640 C   0  0  0  0  0  0  0  0  0  0  0  0
  138.7210   68.1000  223.2090 C   0  0  0  0  0  0  0  0  0  0  0  0
  139.2320   68.9850  224.1250 C   0  0  0  0  0  0  0  0  0  0  0  0
  139.3110   68.7310  225.5560 C   0  0  0  0  0  0  0  0  0  0  0  0
  139.0530   67.5420  225.9240 O   0  0  0  0  0  0  0  0  0  0  0  0
  139.6510   69.7150  226.5110 N   0  0  0  0  0  0  0  0  0  0  0  0
  139.9750   71.1220  226.3490 C   0  0  0  0  0  0  0  0  0  0  0  0
  141.2240   71.2680  227.1850 C   0  0  0  0  0  0  0  0  0  0  0  0
  141.0480   70.2650  228.2800 C   0  0  0  0  0  0  0  0  0  0  0  0
  139.7670   69.4970  227.9500 C   0  0  0  0  0  0  0  0  0  0  0  0
  139.7170   70.2140  223.6950 C   0  0  0  0  0  0  0  0  0  0  0  0
  139.5960   72.9620  222.3180 N   0  0  0  0  0  0  0  0  0  0  0  0
  139.9880   74.2900  221.9720 C   0  0  0  0  0  0  0  0  0  0  0  0
  139.2900   75.4130  222.3410 C   0  0  0  0  0  0  0  0  0  0  0  0
  139.7280   76.6720  221.9560 C   0  0  0  0  0  0  0  0  0  0  0  0
  140.8640   76.8600  221.2010 C   0  0  0  0  0  0  0  0  0  0  0  0
  141.2610   78.2050  220.8170 C   0  0  0  0  0  0  0  0  0  0  0  0
  141.1680   79.2970  221.6520 C   0  0  0  0  0  0  0  0  0  0  0  0
  141.5600   80.5590  221.2480 C   0  0  0  0  0  0  0  0  0  0  0  0
  141.4390   81.9550  222.3160 Cl  0  0  0  0  0  0  0  0  0  0  0  0
  142.0640   80.7650  219.9730 C   0  0  0  0  0  0  0  0  0  0  0  0
  142.1430   79.6510  219.1640 C   0  0  0  0  0  0  0  0  0  0  0  0
  141.7520   78.4180  219.5790 N   0  0  0  0  0  0  0  0  0  0  0  0
  141.5680   75.7390  220.8290 C   0  0  0  0  0  0  0  0  0  0  0  0
  141.1230   74.4710  221.2170 C   0  0  0  0  0  0  0  0  0  0  0  0
  141.3012   71.3356  220.2227 H   0  0  0  0  0  0  0  0  0  0  0  0
  142.2880   71.4177  221.7182 H   0  0  0  0  0  0  0  0  0  0  0  0
  139.1780   69.9784  220.3859 H   0  0  0  0  0  0  0  0  0  0  0  0
  138.3030   67.7794  221.1148 H   0  0  0  0  0  0  0  0  0  0  0  0
  138.3313   67.1214  223.5259 H   0  0  0  0  0  0  0  0  0  0  0  0
  140.1717   71.3658  225.2945 H   0  0  0  0  0  0  0  0  0  0  0  0
  139.1619   71.7972  226.6538 H   0  0  0  0  0  0  0  0  0  0  0  0
  142.1211   71.0430  226.5896 H   0  0  0  0  0  0  0  0  0  0  0  0
  141.3600   72.2907  227.5665 H   0  0  0  0  0  0  0  0  0  0  0  0
  141.9072   69.5789  228.3109 H   0  0  0  0  0  0  0  0  0  0  0  0
  140.9824   70.7519  229.2642 H   0  0  0  0  0  0  0  0  0  0  0  0
  139.8690   68.4275  228.1862 H   0  0  0  0  0  0  0  0  0  0  0  0
  138.8885   69.8283  228.5232 H   0  0  0  0  0  0  0  0  0  0  0  0
  140.1211   70.9082  224.4465 H   0  0  0  0  0  0  0  0  0  0  0  0
  138.3768   75.3140  222.9463 H   0  0  0  0  0  0  0  0  0  0  0  0
  139.1461   77.5527  222.2654 H   0  0  0  0  0  0  0  0  0  0  0  0
  140.7706   79.1604  222.6686 H   0  0  0  0  0  0  0  0  0  0  0  0
  142.3824   81.7594  219.6268 H   0  0  0  0  0  0  0  0  0  0  0  0
  142.5377   79.7652  218.1436 H   0  0  0  0  0  0  0  0  0  0  0  0
  142.4822   75.8395  220.2256 H   0  0  0  0  0  0  0  0  0  0  0  0
  1  2  2  0
  2  3  1  0
  3  4  1  0
  4  5  1  0
  5  6  2  0
  6  7  1  0
  7  8  2  0
  8  9  1  0
  9 10  1  0
 10 11  2  0
 10 12  1  0
 12 13  1  0
 13 14  1  0
 14 15  1  0
 15 16  1  0
  9 17  2  0
  4 18  2  0
 18 19  1  0
 19 20  2  0
 20 21  1  0
 21 22  2  0
 22 23  1  0
 23 24  2  0
 24 25  1  0
 25 26  1  0
 25 27  2  0
 27 28  1  0
 28 29  2  0
 22 30  1  0
 30 31  2  0
 31  2  1  0
 17  5  1  0
 31 19  1  0
 16 12  1  0
 29 23  1  0
  3 32  1  0
  3 33  1  0
  6 34  1  0
  7 35  1  0
  8 36  1  0
 13 37  1  0
 13 38  1  0
 14 39  1  0
 14 40  1  0
 15 41  1  0
 15 42  1  0
 16 43  1  0
 16 44  1  0
 17 45  1  0
 20 46  1  0
 21 47  1  0
 24 48  1  0
 27 49  1  0
 28 50  1  0
 30 51  1  0
M  END
>  <smiles>  (22) 
O=C1CC(c2cccc(C(=O)N3CCCC3)c2)=Nc2ccc(-c3cc(Cl)ccn3)cc21

>  <score_type>  (22) 
oracle

>  <origin>  (22) 
autodockgpu

>  <m_score__min__energy>  (22) 
-9.0099999999999998

>  <m_primary>  (22) 
energy

>  <rmsd>  (22) 
6.023419878409173

>  <m_score__min__rmsd>  (22) 
6.023419878409173

>  <meeko>  (22) 
{"free_energy": -8.85, "intermolecular_energy": -9.74, "internal_energy": -0.75, "cluster_size": 34, "cluster_id": 1, "rank_in_cluster": 21}

>  <energy>  (22) 
-8.84

>  <cluster_rmsd>  (22) 
0.36

>  <cluster>  (22) 
1

$$$$

     RDKit          3D

 51 55  0  0  0  0  0  0  0  0999 V2000
  141.8740   81.0690  223.6590 O   0  0  0  0  0  0  0  0  0  0  0  0
  141.2560   80.1580  223.0570 C   0  0  0  0  0  0  0  0  0  0  0  0
  142.0270   79.3090  222.1270 C   0  0  0  0  0  0  0  0  0  0  0  0
  141.1270   78.2970  221.5380 C   0  0  0  0  0  0  0  0  0  0  0  0
  141.7400   77.3540  220.5760 C   0  0  0  0  0  0  0  0  0  0  0  0
  142.2370   77.8030  219.3550 C   0  0  0  0  0  0  0  0  0  0  0  0
  142.8130   76.9080  218.4630 C   0  0  0  0  0  0  0  0  0  0  0  0
  142.9100   75.5470  218.7580 C   0  0  0  0  0  0  0  0  0  0  0  0
  142.4190   75.1080  219.9630 C   0  0  0  0  0  0  0  0  0  0  0  0
  142.4530   73.7230  220.4080 C   0  0  0  0  0  0  0  0  0  0  0  0
  143.5950   73.1630  220.3940 O   0  0  0  0  0  0  0  0  0  0  0  0
  141.3130   73.0070  220.8370 N   0  0  0  0  0  0  0  0  0  0  0  0
  139.9210   73.4110  220.9350 C   0  0  0  0  0  0  0  0  0  0  0  0
  139.5400   72.9370  222.3180 C   0  0  0  0  0  0  0  0  0  0  0  0
  140.3850   71.7210  222.5310 C   0  0  0  0  0  0  0  0  0  0  0  0
  141.3070   71.6270  221.3140 C   0  0  0  0  0  0  0  0  0  0  0  0
  141.8460   76.0180  220.8430 C   0  0  0  0  0  0  0  0  0  0  0  0
  139.8770   78.1710  221.7780 N   0  0  0  0  0  0  0  0  0  0  0  0
  139.1590   79.0150  222.6770 C   0  0  0  0  0  0  0  0  0  0  0  0
  137.8160   78.8940  222.9300 C   0  0  0  0  0  0  0  0  0  0  0  0
  137.1840   79.7620  223.8090 C   0  0  0  0  0  0  0  0  0  0  0  0
  137.8560   80.7690  224.4630 C   0  0  0  0  0  0  0  0  0  0  0  0
  137.1320   81.6570  225.3600 C   0  0  0  0  0  0  0  0  0  0  0  0
  136.6900   81.2830  226.6100 C   0  0  0  0  0  0  0  0  0  0  0  0
  136.0070   82.1580  227.4340 C   0  0  0  0  0  0  0  0  0  0  0  0
  135.4400   81.6790  229.0320 Cl  0  0  0  0  0  0  0  0  0  0  0  0
  135.7460   83.4550  227.0190 C   0  0  0  0  0  0  0  0  0  0  0  0
  136.2020   83.7950  225.7630 C   0  0  0  0  0  0  0  0  0  0  0  0
  136.8710   82.9190  224.9680 N   0  0  0  0  0  0  0  0  0  0  0  0
  139.2030   80.8960  224.2140 C   0  0  0  0  0  0  0  0  0  0  0  0
  139.8360   80.0210  223.3270 C   0  0  0  0  0  0  0  0  0  0  0  0
  142.4542   79.9321  221.3274 H   0  0  0  0  0  0  0  0  0  0  0  0
  142.8420   78.8088  222.6707 H   0  0  0  0  0  0  0  0  0  0  0  0
  142.1731   78.8702  219.0962 H   0  0  0  0  0  0  0  0  0  0  0  0
  143.2012   77.2795  217.5032 H   0  0  0  0  0  0  0  0  0  0  0  0
  143.3672   74.8454  218.0447 H   0  0  0  0  0  0  0  0  0  0  0  0
  139.8166   74.5024  220.8460 H   0  0  0  0  0  0  0  0  0  0  0  0
  139.2864   72.9952  220.1385 H   0  0  0  0  0  0  0  0  0  0  0  0
  139.7659   73.7066  223.0708 H   0  0  0  0  0  0  0  0  0  0  0  0
  138.4644   72.7260  222.4112 H   0  0  0  0  0  0  0  0  0  0  0  0
  140.9776   71.8244  223.4519 H   0  0  0  0  0  0  0  0  0  0  0  0
  139.7681   70.8167  222.6388 H   0  0  0  0  0  0  0  0  0  0  0  0
  142.3167   71.2979  221.6008 H   0  0  0  0  0  0  0  0  0  0  0  0
  140.9773   70.8965  220.5605 H   0  0  0  0  0  0  0  0  0  0  0  0
  141.4584   75.6444  221.8023 H   0  0  0  0  0  0  0  0  0  0  0  0
  137.2359   78.1030  222.4323 H   0  0  0  0  0  0  0  0  0  0  0  0
  136.1058   79.6406  223.9897 H   0  0  0  0  0  0  0  0  0  0  0  0
  136.8860   80.2595  226.9623 H   0  0  0  0  0  0  0  0  0  0  0  0
  135.2061   84.1716  227.6553 H   0  0  0  0  0  0  0  0  0  0  0  0
  136.0174   84.8134  225.3905 H   0  0  0  0  0  0  0  0  0  0  0  0
  139.7822   81.6867  224.7134 H   0  0  0  0  0  0  0  0  0  0  0  0
  1  2  2  0
  2  3  1  0
  3  4  1  0
  4  5  1  0
  5  6  2  0
  6  7  1  0
  7  8  2  0
  8  9  1  0
  9 10  1  0
 10 11  2  0
 10 12  1  0
 12 13  1  0
 13 14  1  0
 14 15  1  0
 15 16  1  0
  9 17  2  0
  4 18  2  0
 18 19  1  0
 19 20  2  0
 20 21  1  0
 21 22  2  0
 22 23  1  0
 23 24  2  0
 24 25  1  0
 25 26  1  0
 25 27  2  0
 27 28  1  0
 28 29  2  0
 22 30  1  0
 30 31  2  0
 31  2  1  0
 17  5  1  0
 31 19  1  0
 16 12  1  0
 29 23  1  0
  3 32  1  0
  3 33  1  0
  6 34  1  0
  7 35  1  0
  8 36  1  0
 13 37  1  0
 13 38  1  0
 14 39  1  0
 14 40  1  0
 15 41  1  0
 15 42  1  0
 16 43  1  0
 16 44  1  0
 17 45  1  0
 20 46  1  0
 21 47  1  0
 24 48  1  0
 27 49  1  0
 28 50  1  0
 30 51  1  0
M  END
>  <smiles>  (23) 
O=C1CC(c2cccc(C(=O)N3CCCC3)c2)=Nc2ccc(-c3cc(Cl)ccn3)cc21

>  <score_type>  (23) 
oracle

>  <origin>  (23) 
autodockgpu

>  <m_score__min__energy>  (23) 
-9.0099999999999998

>  <m_primary>  (23) 
energy

>  <rmsd>  (23) 
8.35085773420479

>  <m_score__min__rmsd>  (23) 
8.35085773420479

>  <meeko>  (23) 
{"free_energy": -7.96, "intermolecular_energy": -8.86, "internal_energy": -1.04, "cluster_size": 8, "cluster_id": 2, "rank_in_cluster": 8}

>  <energy>  (23) 
-8.83

>  <cluster_rmsd>  (23) 
1.2

>  <cluster>  (23) 
1

$$$$

     RDKit          3D

 51 55  0  0  0  0  0  0  0  0999 V2000
  142.2370   74.7080  218.7300 O   0  0  0  0  0  0  0  0  0  0  0  0
  141.6370   74.6610  219.8300 C   0  0  0  0  0  0  0  0  0  0  0  0
  141.3370   73.3270  220.3880 C   0  0  0  0  0  0  0  0  0  0  0  0
  140.6480   73.4890  221.6840 C   0  0  0  0  0  0  0  0  0  0  0  0
  140.2720   72.2410  222.3870 C   0  0  0  0  0  0  0  0  0  0  0  0
  139.6010   71.2190  221.7180 C   0  0  0  0  0  0  0  0  0  0  0  0
  139.2570   70.0530  222.3890 C   0  0  0  0  0  0  0  0  0  0  0  0
  139.5680   69.8710  223.7380 C   0  0  0  0  0  0  0  0  0  0  0  0
  140.2290   70.8810  224.3930 C   0  0  0  0  0  0  0  0  0  0  0  0
  140.6200   70.8310  225.7940 C   0  0  0  0  0  0  0  0  0  0  0  0
  140.8950   71.9490  226.3340 O   0  0  0  0  0  0  0  0  0  0  0  0
  140.7010   69.6370  226.5460 N   0  0  0  0  0  0  0  0  0  0  0  0
  140.4500   68.2580  226.1640 C   0  0  0  0  0  0  0  0  0  0  0  0
  139.5740   67.7620  227.2900 C   0  0  0  0  0  0  0  0  0  0  0  0
  140.0330   68.5420  228.4800 C   0  0  0  0  0  0  0  0  0  0  0  0
  141.0630   69.5460  227.9570 C   0  0  0  0  0  0  0  0  0  0  0  0
  140.5650   72.0400  223.7060 C   0  0  0  0  0  0  0  0  0  0  0  0
  140.3440   74.5980  222.2410 N   0  0  0  0  0  0  0  0  0  0  0  0
  140.6400   75.8730  221.6710 C   0  0  0  0  0  0  0  0  0  0  0  0
  140.3060   77.0670  222.2570 C   0  0  0  0  0  0  0  0  0  0  0  0
  140.6170   78.2680  221.6350 C   0  0  0  0  0  0  0  0  0  0  0  0
  141.2660   78.3250  220.4220 C   0  0  0  0  0  0  0  0  0  0  0  0
  141.5500   79.6160  219.8140 C   0  0  0  0  0  0  0  0  0  0  0  0
  141.0360   80.8070  220.2770 C   0  0  0  0  0  0  0  0  0  0  0  0
  141.3320   82.0130  219.6710 C   0  0  0  0  0  0  0  0  0  0  0  0
  140.6730   83.5360  220.2620 Cl  0  0  0  0  0  0  0  0  0  0  0  0
  142.1680   82.0580  218.5660 C   0  0  0  0  0  0  0  0  0  0  0  0
  142.6640   80.8480  218.1290 C   0  0  0  0  0  0  0  0  0  0  0  0
  142.3590   79.6720  218.7380 N   0  0  0  0  0  0  0  0  0  0  0  0
  141.6040   77.1310  219.8300 C   0  0  0  0  0  0  0  0  0  0  0  0
  141.2880   75.9230  220.4590 C   0  0  0  0  0  0  0  0  0  0  0  0
  140.6883   72.7742  219.6926 H   0  0  0  0  0  0  0  0  0  0  0  0
  142.2727   72.7672  220.5332 H   0  0  0  0  0  0  0  0  0  0  0  0
  139.3431   71.3364  220.6551 H   0  0  0  0  0  0  0  0  0  0  0  0
  138.7282   69.2557  221.8462 H   0  0  0  0  0  0  0  0  0  0  0  0
  139.2912   68.9441  224.2617 H   0  0  0  0  0  0  0  0  0  0  0  0
  139.9262   68.2019  225.1984 H   0  0  0  0  0  0  0  0  0  0  0  0
  141.3673   67.6663  226.0284 H   0  0  0  0  0  0  0  0  0  0  0  0
  138.5136   67.9624  227.0771 H   0  0  0  0  0  0  0  0  0  0  0  0
  139.6551   66.6754  227.4406 H   0  0  0  0  0  0  0  0  0  0  0  0
  139.1851   69.0698  228.9409 H   0  0  0  0  0  0  0  0  0  0  0  0
  140.4661   67.8851  229.2487 H   0  0  0  0  0  0  0  0  0  0  0  0
  140.9644   70.5196  228.4594 H   0  0  0  0  0  0  0  0  0  0  0  0
  142.1067   69.2451  228.1308 H   0  0  0  0  0  0  0  0  0  0  0  0
  141.0935   72.8360  224.2511 H   0  0  0  0  0  0  0  0  0  0  0  0
  139.7877   77.0729  223.2272 H   0  0  0  0  0  0  0  0  0  0  0  0
  140.3346   79.2092  222.1293 H   0  0  0  0  0  0  0  0  0  0  0  0
  140.3714   80.7979  221.1535 H   0  0  0  0  0  0  0  0  0  0  0  0
  142.4211   83.0048  218.0665 H   0  0  0  0  0  0  0  0  0  0  0  0
  143.3315   80.8340  217.2548 H   0  0  0  0  0  0  0  0  0  0  0  0
  142.1236   77.1261  218.8605 H   0  0  0  0  0  0  0  0  0  0  0  0
  1  2  2  0
  2  3  1  0
  3  4  1  0
  4  5  1  0
  5  6  2  0
  6  7  1  0
  7  8  2  0
  8  9  1  0
  9 10  1  0
 10 11  2  0
 10 12  1  0
 12 13  1  0
 13 14  1  0
 14 15  1  0
 15 16  1  0
  9 17  2  0
  4 18  2  0
 18 19  1  0
 19 20  2  0
 20 21  1  0
 21 22  2  0
 22 23  1  0
 23 24  2  0
 24 25  1  0
 25 26  1  0
 25 27  2  0
 27 28  1  0
 28 29  2  0
 22 30  1  0
 30 31  2  0
 31  2  1  0
 17  5  1  0
 31 19  1  0
 16 12  1  0
 29 23  1  0
  3 32  1  0
  3 33  1  0
  6 34  1  0
  7 35  1  0
  8 36  1  0
 13 37  1  0
 13 38  1  0
 14 39  1  0
 14 40  1  0
 15 41  1  0
 15 42  1  0
 16 43  1  0
 16 44  1  0
 17 45  1  0
 20 46  1  0
 21 47  1  0
 24 48  1  0
 27 49  1  0
 28 50  1  0
 30 51  1  0
M  END
>  <smiles>  (24) 
O=C1CC(c2cccc(C(=O)N3CCCC3)c2)=Nc2ccc(-c3cc(Cl)ccn3)cc21

>  <score_type>  (24) 
oracle

>  <origin>  (24) 
autodockgpu

>  <m_score__min__energy>  (24) 
-9.0099999999999998

>  <m_primary>  (24) 
energy

>  <rmsd>  (24) 
7.365712559221453

>  <m_score__min__rmsd>  (24) 
7.365712559221453

>  <meeko>  (24) 
{"free_energy": -8.69, "intermolecular_energy": -9.59, "internal_energy": -0.86, "cluster_size": 34, "cluster_id": 1, "rank_in_cluster": 29}

>  <energy>  (24) 
-8.83

>  <cluster_rmsd>  (24) 
1.19

>  <cluster>  (24) 
1

$$$$

     RDKit          3D

 51 55  0  0  0  0  0  0  0  0999 V2000
  142.8880   74.8380  220.2570 O   0  0  0  0  0  0  0  0  0  0  0  0
  141.8650   74.5120  220.9060 C   0  0  0  0  0  0  0  0  0  0  0  0
  141.5760   73.0710  221.0450 C   0  0  0  0  0  0  0  0  0  0  0  0
  140.3490   72.9000  221.8490 C   0  0  0  0  0  0  0  0  0  0  0  0
  139.9100   71.5060  222.0900 C   0  0  0  0  0  0  0  0  0  0  0  0
  139.6070   70.6610  221.0250 C   0  0  0  0  0  0  0  0  0  0  0  0
  139.1990   69.3550  221.2650 C   0  0  0  0  0  0  0  0  0  0  0  0
  139.0830   68.8550  222.5640 C   0  0  0  0  0  0  0  0  0  0  0  0
  139.3830   69.6920  223.6090 C   0  0  0  0  0  0  0  0  0  0  0  0
  139.3110   69.3110  225.0120 C   0  0  0  0  0  0  0  0  0  0  0  0
  138.8550   68.1480  225.2490 O   0  0  0  0  0  0  0  0  0  0  0  0
  139.7120   70.1500  226.0760 N   0  0  0  0  0  0  0  0  0  0  0  0
  140.2470   71.5010  226.0690 C   0  0  0  0  0  0  0  0  0  0  0  0
  141.4330   71.3870  226.9960 C   0  0  0  0  0  0  0  0  0  0  0  0
  141.0280   70.3340  227.9780 C   0  0  0  0  0  0  0  0  0  0  0  0
  139.6800   69.7980  227.4930 C   0  0  0  0  0  0  0  0  0  0  0  0
  139.7890   70.9960  223.3510 C   0  0  0  0  0  0  0  0  0  0  0  0
  139.6370   73.8390  222.3440 N   0  0  0  0  0  0  0  0  0  0  0  0
  139.9390   75.2250  222.1830 C   0  0  0  0  0  0  0  0  0  0  0  0
  139.1720   76.2390  222.7000 C   0  0  0  0  0  0  0  0  0  0  0  0
  139.5250   77.5640  222.4910 C   0  0  0  0  0  0  0  0  0  0  0  0
  140.6410   77.9270  221.7700 C   0  0  0  0  0  0  0  0  0  0  0  0
  140.9470   79.3350  221.5730 C   0  0  0  0  0  0  0  0  0  0  0  0
  141.1580   79.9050  220.3370 C   0  0  0  0  0  0  0  0  0  0  0  0
  141.4450   81.2500  220.1930 C   0  0  0  0  0  0  0  0  0  0  0  0
  141.7150   81.9780  218.6120 Cl  0  0  0  0  0  0  0  0  0  0  0  0
  141.5300   82.0740  221.3050 C   0  0  0  0  0  0  0  0  0  0  0  0
  141.3150   81.4700  222.5260 C   0  0  0  0  0  0  0  0  0  0  0  0
  141.0340   80.1460  222.6470 N   0  0  0  0  0  0  0  0  0  0  0  0
  141.4130   76.9150  221.2500 C   0  0  0  0  0  0  0  0  0  0  0  0
  141.0550   75.5810  221.4610 C   0  0  0  0  0  0  0  0  0  0  0  0
  141.4290   72.6270  220.0494 H   0  0  0  0  0  0  0  0  0  0  0  0
  142.4189   72.5702  221.5438 H   0  0  0  0  0  0  0  0  0  0  0  0
  139.6909   71.0286  219.9916 H   0  0  0  0  0  0  0  0  0  0  0  0
  138.9621   68.7003  220.4134 H   0  0  0  0  0  0  0  0  0  0  0  0
  138.7601   67.8190  222.7442 H   0  0  0  0  0  0  0  0  0  0  0  0
  140.5601   71.7994  225.0576 H   0  0  0  0  0  0  0  0  0  0  0  0
  139.5179   72.2632  226.3811 H   0  0  0  0  0  0  0  0  0  0  0  0
  142.3329   71.0799  226.4429 H   0  0  0  0  0  0  0  0  0  0  0  0
  141.6838   72.3422  227.4804 H   0  0  0  0  0  0  0  0  0  0  0  0
  141.7742   69.5261  228.0010 H   0  0  0  0  0  0  0  0  0  0  0  0
  140.9554   70.7414  228.9972 H   0  0  0  0  0  0  0  0  0  0  0  0
  139.6074   68.7095  227.6339 H   0  0  0  0  0  0  0  0  0  0  0  0
  138.8156   70.2090  228.0351 H   0  0  0  0  0  0  0  0  0  0  0  0
  140.0244   71.6491  224.2042 H   0  0  0  0  0  0  0  0  0  0  0  0
  138.2712   75.9993  223.2841 H   0  0  0  0  0  0  0  0  0  0  0  0
  138.8898   78.3546  222.9171 H   0  0  0  0  0  0  0  0  0  0  0  0
  141.0965   79.2725  219.4392 H   0  0  0  0  0  0  0  0  0  0  0  0
  141.7558   83.1471  221.2183 H   0  0  0  0  0  0  0  0  0  0  0  0
  141.3732   82.0836  223.4371 H   0  0  0  0  0  0  0  0  0  0  0  0
  142.3140   77.1560  220.6669 H   0  0  0  0  0  0  0  0  0  0  0  0
  1  2  2  0
  2  3  1  0
  3  4  1  0
  4  5  1  0
  5  6  2  0
  6  7  1  0
  7  8  2  0
  8  9  1  0
  9 10  1  0
 10 11  2  0
 10 12  1  0
 12 13  1  0
 13 14  1  0
 14 15  1  0
 15 16  1  0
  9 17  2  0
  4 18  2  0
 18 19  1  0
 19 20  2  0
 20 21  1  0
 21 22  2  0
 22 23  1  0
 23 24  2  0
 24 25  1  0
 25 26  1  0
 25 27  2  0
 27 28  1  0
 28 29  2  0
 22 30  1  0
 30 31  2  0
 31  2  1  0
 17  5  1  0
 31 19  1  0
 16 12  1  0
 29 23  1  0
  3 32  1  0
  3 33  1  0
  6 34  1  0
  7 35  1  0
  8 36  1  0
 13 37  1  0
 13 38  1  0
 14 39  1  0
 14 40  1  0
 15 41  1  0
 15 42  1  0
 16 43  1  0
 16 44  1  0
 17 45  1  0
 20 46  1  0
 21 47  1  0
 24 48  1  0
 27 49  1  0
 28 50  1  0
 30 51  1  0
M  END
>  <smiles>  (25) 
O=C1CC(c2cccc(C(=O)N3CCCC3)c2)=Nc2ccc(-c3cc(Cl)ccn3)cc21

>  <score_type>  (25) 
oracle

>  <origin>  (25) 
autodockgpu

>  <m_score__min__energy>  (25) 
-9.0099999999999998

>  <m_primary>  (25) 
energy

>  <rmsd>  (25) 
6.22238234169873

>  <m_score__min__rmsd>  (25) 
6.22238234169873

>  <meeko>  (25) 
{"free_energy": -8.96, "intermolecular_energy": -9.85, "internal_energy": -0.71, "cluster_size": 34, "cluster_id": 1, "rank_in_cluster": 11}

>  <energy>  (25) 
-8.81

>  <cluster_rmsd>  (25) 
1.18

>  <cluster>  (25) 
1

$$$$

     RDKit          3D

 51 55  0  0  0  0  0  0  0  0999 V2000
  141.5630   81.2190  224.2160 O   0  0  0  0  0  0  0  0  0  0  0  0
  140.9550   80.4160  223.4670 C   0  0  0  0  0  0  0  0  0  0  0  0
  141.7550   79.6590  222.4850 C   0  0  0  0  0  0  0  0  0  0  0  0
  140.8620   78.7660  221.7200 C   0  0  0  0  0  0  0  0  0  0  0  0
  141.5050   77.9250  220.6840 C   0  0  0  0  0  0  0  0  0  0  0  0
  141.9620   78.4850  219.4930 C   0  0  0  0  0  0  0  0  0  0  0  0
  142.5650   77.6860  218.5320 C   0  0  0  0  0  0  0  0  0  0  0  0
  142.7310   76.3130  218.7260 C   0  0  0  0  0  0  0  0  0  0  0  0
  142.2790   75.7650  219.9010 C   0  0  0  0  0  0  0  0  0  0  0  0
  142.3850   74.3540  220.2430 C   0  0  0  0  0  0  0  0  0  0  0  0
  141.2890   73.7130  220.3000 O   0  0  0  0  0  0  0  0  0  0  0  0
  143.6100   73.6980  220.5010 N   0  0  0  0  0  0  0  0  0  0  0  0
  144.9730   74.2030  220.5070 C   0  0  0  0  0  0  0  0  0  0  0  0
  145.7070   73.1670  219.6890 C   0  0  0  0  0  0  0  0  0  0  0  0
  144.9680   71.8960  219.9620 C   0  0  0  0  0  0  0  0  0  0  0  0
  143.7630   72.2820  220.8210 C   0  0  0  0  0  0  0  0  0  0  0  0
  141.6780   76.5800  220.8520 C   0  0  0  0  0  0  0  0  0  0  0  0
  139.5970   78.6610  221.8670 N   0  0  0  0  0  0  0  0  0  0  0  0
  138.8500   79.4160  222.8210 C   0  0  0  0  0  0  0  0  0  0  0  0
  137.4900   79.3190  222.9750 C   0  0  0  0  0  0  0  0  0  0  0  0
  136.8320   80.0960  223.9180 C   0  0  0  0  0  0  0  0  0  0  0  0
  137.4930   80.9860  224.7330 C   0  0  0  0  0  0  0  0  0  0  0  0
  136.7430   81.7830  225.6910 C   0  0  0  0  0  0  0  0  0  0  0  0
  136.4830   81.3800  226.9820 C   0  0  0  0  0  0  0  0  0  0  0  0
  135.7670   82.1690  227.8630 C   0  0  0  0  0  0  0  0  0  0  0  0
  135.4330   81.6520  229.5140 Cl  0  0  0  0  0  0  0  0  0  0  0  0
  135.2850   83.4070  227.4650 C   0  0  0  0  0  0  0  0  0  0  0  0
  135.5630   83.7790  226.1670 C   0  0  0  0  0  0  0  0  0  0  0  0
  136.2680   82.9870  225.3160 N   0  0  0  0  0  0  0  0  0  0  0  0
  138.8570   81.0880  224.5840 C   0  0  0  0  0  0  0  0  0  0  0  0
  139.5170   80.3040  223.6320 C   0  0  0  0  0  0  0  0  0  0  0  0
  142.2530   80.3588  221.7978 H   0  0  0  0  0  0  0  0  0  0  0  0
  142.5163   79.0620  223.0085 H   0  0  0  0  0  0  0  0  0  0  0  0
  141.8445   79.5639  219.3139 H   0  0  0  0  0  0  0  0  0  0  0  0
  142.9200   78.1441  217.5970 H   0  0  0  0  0  0  0  0  0  0  0  0
  143.2107   75.6878  217.9586 H   0  0  0  0  0  0  0  0  0  0  0  0
  145.0315   75.1957  220.0368 H   0  0  0  0  0  0  0  0  0  0  0  0
  145.3867   74.3389  221.5172 H   0  0  0  0  0  0  0  0  0  0  0  0
  145.6709   73.4174  218.6185 H   0  0  0  0  0  0  0  0  0  0  0  0
  146.7732   73.1000  219.9511 H   0  0  0  0  0  0  0  0  0  0  0  0
  144.6338   71.4387  219.0191 H   0  0  0  0  0  0  0  0  0  0  0  0
  145.6073   71.1614  220.4735 H   0  0  0  0  0  0  0  0  0  0  0  0
  142.8685   71.7082  220.5371 H   0  0  0  0  0  0  0  0  0  0  0  0
  143.8974   72.0796  221.8938 H   0  0  0  0  0  0  0  0  0  0  0  0
  141.3239   76.1199  221.7863 H   0  0  0  0  0  0  0  0  0  0  0  0
  136.9175   78.6207  222.3468 H   0  0  0  0  0  0  0  0  0  0  0  0
  135.7410   79.9966  224.0176 H   0  0  0  0  0  0  0  0  0  0  0  0
  136.8557   80.4024  227.3219 H   0  0  0  0  0  0  0  0  0  0  0  0
  134.7136   84.0549  228.1460 H   0  0  0  0  0  0  0  0  0  0  0  0
  135.2009   84.7531  225.8063 H   0  0  0  0  0  0  0  0  0  0  0  0
  139.4284   81.7860  225.2135 H   0  0  0  0  0  0  0  0  0  0  0  0
  1  2  2  0
  2  3  1  0
  3  4  1  0
  4  5  1  0
  5  6  2  0
  6  7  1  0
  7  8  2  0
  8  9  1  0
  9 10  1  0
 10 11  2  0
 10 12  1  0
 12 13  1  0
 13 14  1  0
 14 15  1  0
 15 16  1  0
  9 17  2  0
  4 18  2  0
 18 19  1  0
 19 20  2  0
 20 21  1  0
 21 22  2  0
 22 23  1  0
 23 24  2  0
 24 25  1  0
 25 26  1  0
 25 27  2  0
 27 28  1  0
 28 29  2  0
 22 30  1  0
 30 31  2  0
 31  2  1  0
 17  5  1  0
 31 19  1  0
 16 12  1  0
 29 23  1  0
  3 32  1  0
  3 33  1  0
  6 34  1  0
  7 35  1  0
  8 36  1  0
 13 37  1  0
 13 38  1  0
 14 39  1  0
 14 40  1  0
 15 41  1  0
 15 42  1  0
 16 43  1  0
 16 44  1  0
 17 45  1  0
 20 46  1  0
 21 47  1  0
 24 48  1  0
 27 49  1  0
 28 50  1  0
 30 51  1  0
M  END
>  <smiles>  (26) 
O=C1CC(c2cccc(C(=O)N3CCCC3)c2)=Nc2ccc(-c3cc(Cl)ccn3)cc21

>  <score_type>  (26) 
oracle

>  <origin>  (26) 
autodockgpu

>  <m_score__min__energy>  (26) 
-9.0099999999999998

>  <m_primary>  (26) 
energy

>  <rmsd>  (26) 
9.093680901837876

>  <m_score__min__rmsd>  (26) 
9.093680901837876

>  <meeko>  (26) 
{"free_energy": -8.34, "intermolecular_energy": -9.23, "internal_energy": -0.97, "cluster_size": 8, "cluster_id": 2, "rank_in_cluster": 3}

>  <energy>  (26) 
-8.74

>  <cluster_rmsd>  (26) 
1.74

>  <cluster>  (26) 
1

$$$$

     RDKit          3D

 51 55  0  0  0  0  0  0  0  0999 V2000
  142.9030   75.2390  220.1820 O   0  0  0  0  0  0  0  0  0  0  0  0
  141.8970   74.8950  220.8470 C   0  0  0  0  0  0  0  0  0  0  0  0
  141.6280   73.4500  220.9800 C   0  0  0  0  0  0  0  0  0  0  0  0
  140.4200   73.2570  221.8070 C   0  0  0  0  0  0  0  0  0  0  0  0
  140.0030   71.8550  222.0440 C   0  0  0  0  0  0  0  0  0  0  0  0
  140.0260   70.9200  221.0120 C   0  0  0  0  0  0  0  0  0  0  0  0
  139.6360   69.6090  221.2490 C   0  0  0  0  0  0  0  0  0  0  0  0
  139.2140   69.1920  222.5140 C   0  0  0  0  0  0  0  0  0  0  0  0
  139.1930   70.1170  223.5270 C   0  0  0  0  0  0  0  0  0  0  0  0
  138.7810   69.8290  224.8930 C   0  0  0  0  0  0  0  0  0  0  0  0
  137.5260   69.7950  225.0990 O   0  0  0  0  0  0  0  0  0  0  0  0
  139.6850   69.5930  225.9540 N   0  0  0  0  0  0  0  0  0  0  0  0
  141.1370   69.5850  225.9770 C   0  0  0  0  0  0  0  0  0  0  0  0
  141.4440   68.3070  226.7210 C   0  0  0  0  0  0  0  0  0  0  0  0
  140.2950   68.1510  227.6650 C   0  0  0  0  0  0  0  0  0  0  0  0
  139.3140   69.2750  227.3300 C   0  0  0  0  0  0  0  0  0  0  0  0
  139.5870   71.4250  223.2720 C   0  0  0  0  0  0  0  0  0  0  0  0
  139.7050   74.1830  222.3230 N   0  0  0  0  0  0  0  0  0  0  0  0
  139.9870   75.5740  222.1670 C   0  0  0  0  0  0  0  0  0  0  0  0
  139.2180   76.5730  222.7070 C   0  0  0  0  0  0  0  0  0  0  0  0
  139.5500   77.9050  222.5020 C   0  0  0  0  0  0  0  0  0  0  0  0
  140.6470   78.2870  221.7640 C   0  0  0  0  0  0  0  0  0  0  0  0
  140.9320   79.7010  221.5720 C   0  0  0  0  0  0  0  0  0  0  0  0
  141.0620   80.2930  220.3360 C   0  0  0  0  0  0  0  0  0  0  0  0
  141.3320   81.6420  220.1970 C   0  0  0  0  0  0  0  0  0  0  0  0
  141.5000   82.3980  218.6150 Cl  0  0  0  0  0  0  0  0  0  0  0  0
  141.4800   82.4480  221.3160 C   0  0  0  0  0  0  0  0  0  0  0  0
  141.3430   81.8220  222.5370 C   0  0  0  0  0  0  0  0  0  0  0  0
  141.0790   80.4940  222.6520 N   0  0  0  0  0  0  0  0  0  0  0  0
  141.4220   77.2900  221.2200 C   0  0  0  0  0  0  0  0  0  0  0  0
  141.0840   75.9490  221.4270 C   0  0  0  0  0  0  0  0  0  0  0  0
  141.4661   73.0123  219.9839 H   0  0  0  0  0  0  0  0  0  0  0  0
  142.4868   72.9558  221.4578 H   0  0  0  0  0  0  0  0  0  0  0  0
  140.3541   71.2213  220.0062 H   0  0  0  0  0  0  0  0  0  0  0  0
  139.6597   68.8828  220.4231 H   0  0  0  0  0  0  0  0  0  0  0  0
  138.9071   68.1509  222.6928 H   0  0  0  0  0  0  0  0  0  0  0  0
  141.5508   69.5612  224.9581 H   0  0  0  0  0  0  0  0  0  0  0  0
  141.5735   70.4803  226.4438 H   0  0  0  0  0  0  0  0  0  0  0  0
  141.4985   67.4548  226.0277 H   0  0  0  0  0  0  0  0  0  0  0  0
  142.4142   68.3416  227.2382 H   0  0  0  0  0  0  0  0  0  0  0  0
  139.8154   67.1712  227.5237 H   0  0  0  0  0  0  0  0  0  0  0  0
  140.6259   68.2059  228.7126 H   0  0  0  0  0  0  0  0  0  0  0  0
  138.2716   68.9296  227.3944 H   0  0  0  0  0  0  0  0  0  0  0  0
  139.3676   70.1331  228.0161 H   0  0  0  0  0  0  0  0  0  0  0  0
  139.5627   72.1494  224.0994 H   0  0  0  0  0  0  0  0  0  0  0  0
  138.3321   76.3169  223.3066 H   0  0  0  0  0  0  0  0  0  0  0  0
  138.9128   78.6841  222.9458 H   0  0  0  0  0  0  0  0  0  0  0  0
  140.9478   79.6752  219.4331 H   0  0  0  0  0  0  0  0  0  0  0  0
  141.6942   83.5238  221.2342 H   0  0  0  0  0  0  0  0  0  0  0  0
  141.4516   82.4208  223.4533 H   0  0  0  0  0  0  0  0  0  0  0  0
  142.3084   77.5474  220.6216 H   0  0  0  0  0  0  0  0  0  0  0  0
  1  2  2  0
  2  3  1  0
  3  4  1  0
  4  5  1  0
  5  6  2  0
  6  7  1  0
  7  8  2  0
  8  9  1  0
  9 10  1  0
 10 11  2  0
 10 12  1  0
 12 13  1  0
 13 14  1  0
 14 15  1  0
 15 16  1  0
  9 17  2  0
  4 18  2  0
 18 19  1  0
 19 20  2  0
 20 21  1  0
 21 22  2  0
 22 23  1  0
 23 24  2  0
 24 25  1  0
 25 26  1  0
 25 27  2  0
 27 28  1  0
 28 29  2  0
 22 30  1  0
 30 31  2  0
 31  2  1  0
 17  5  1  0
 31 19  1  0
 16 12  1  0
 29 23  1  0
  3 32  1  0
  3 33  1  0
  6 34  1  0
  7 35  1  0
  8 36  1  0
 13 37  1  0
 13 38  1  0
 14 39  1  0
 14 40  1  0
 15 41  1  0
 15 42  1  0
 16 43  1  0
 16 44  1  0
 17 45  1  0
 20 46  1  0
 21 47  1  0
 24 48  1  0
 27 49  1  0
 28 50  1  0
 30 51  1  0
M  END
>  <smiles>  (27) 
O=C1CC(c2cccc(C(=O)N3CCCC3)c2)=Nc2ccc(-c3cc(Cl)ccn3)cc21

>  <score_type>  (27) 
oracle

>  <origin>  (27) 
autodockgpu

>  <m_score__min__energy>  (27) 
-9.0099999999999998

>  <m_primary>  (27) 
energy

>  <rmsd>  (27) 
6.696180216924497

>  <m_score__min__rmsd>  (27) 
6.696180216924497

>  <meeko>  (27) 
{"free_energy": -8.39, "intermolecular_energy": -9.28, "internal_energy": -1.0, "cluster_size": 34, "cluster_id": 1, "rank_in_cluster": 33}

>  <energy>  (27) 
-8.73

>  <cluster_rmsd>  (27) 
1.74

>  <cluster>  (27) 
1

$$$$

     RDKit          3D

 51 55  0  0  0  0  0  0  0  0999 V2000
  142.9110   74.7760  220.3820 O   0  0  0  0  0  0  0  0  0  0  0  0
  141.8610   74.4610  220.9910 C   0  0  0  0  0  0  0  0  0  0  0  0
  141.5690   73.0230  221.1500 C   0  0  0  0  0  0  0  0  0  0  0  0
  140.3090   72.8660  221.9030 C   0  0  0  0  0  0  0  0  0  0  0  0
  139.8630   71.4760  222.1550 C   0  0  0  0  0  0  0  0  0  0  0  0
  139.5330   70.6300  221.0980 C   0  0  0  0  0  0  0  0  0  0  0  0
  139.1200   69.3290  221.3490 C   0  0  0  0  0  0  0  0  0  0  0  0
  139.0230   68.8330  222.6510 C   0  0  0  0  0  0  0  0  0  0  0  0
  139.3490   69.6710  223.6890 C   0  0  0  0  0  0  0  0  0  0  0  0
  139.2990   69.2940  225.0940 C   0  0  0  0  0  0  0  0  0  0  0  0
  138.8530   68.1280  225.3410 O   0  0  0  0  0  0  0  0  0  0  0  0
  139.7110   70.1380  226.1500 N   0  0  0  0  0  0  0  0  0  0  0  0
  140.2380   71.4920  226.1300 C   0  0  0  0  0  0  0  0  0  0  0  0
  141.4380   71.3870  227.0410 C   0  0  0  0  0  0  0  0  0  0  0  0
  141.0530   70.3360  228.0320 C   0  0  0  0  0  0  0  0  0  0  0  0
  139.7010   69.7900  227.5670 C   0  0  0  0  0  0  0  0  0  0  0  0
  139.7610   70.9700  223.4200 C   0  0  0  0  0  0  0  0  0  0  0  0
  139.5730   73.8130  222.3450 N   0  0  0  0  0  0  0  0  0  0  0  0
  139.8790   75.1960  222.1660 C   0  0  0  0  0  0  0  0  0  0  0  0
  139.0880   76.2190  222.6260 C   0  0  0  0  0  0  0  0  0  0  0  0
  139.4470   77.5400  222.4030 C   0  0  0  0  0  0  0  0  0  0  0  0
  140.5920   77.8910  221.7240 C   0  0  0  0  0  0  0  0  0  0  0  0
  140.9040   79.2950  221.5100 C   0  0  0  0  0  0  0  0  0  0  0  0
  141.1560   79.8410  220.2700 C   0  0  0  0  0  0  0  0  0  0  0  0
  141.4470   81.1820  220.1090 C   0  0  0  0  0  0  0  0  0  0  0  0
  141.7720   81.8780  218.5240 Cl  0  0  0  0  0  0  0  0  0  0  0  0
  141.4920   82.0290  221.2060 C   0  0  0  0  0  0  0  0  0  0  0  0
  141.2350   81.4500  222.4310 C   0  0  0  0  0  0  0  0  0  0  0  0
  140.9520   80.1270  222.5690 N   0  0  0  0  0  0  0  0  0  0  0  0
  141.3890   76.8700  221.2610 C   0  0  0  0  0  0  0  0  0  0  0  0
  141.0240   75.5390  221.4870 C   0  0  0  0  0  0  0  0  0  0  0  0
  141.4665   72.5563  220.1592 H   0  0  0  0  0  0  0  0  0  0  0  0
  142.3903   72.5364  221.6966 H   0  0  0  0  0  0  0  0  0  0  0  0
  139.6000   70.9942  220.0622 H   0  0  0  0  0  0  0  0  0  0  0  0
  138.8633   68.6738  220.5035 H   0  0  0  0  0  0  0  0  0  0  0  0
  138.6947   67.8002  222.8397 H   0  0  0  0  0  0  0  0  0  0  0  0
  140.5351   71.7883  225.1132 H   0  0  0  0  0  0  0  0  0  0  0  0
  139.5094   72.2518  226.4491 H   0  0  0  0  0  0  0  0  0  0  0  0
  142.3315   71.0825  226.4762 H   0  0  0  0  0  0  0  0  0  0  0  0
  141.6904   72.3452  227.5186 H   0  0  0  0  0  0  0  0  0  0  0  0
  141.8042   69.5326  228.0479 H   0  0  0  0  0  0  0  0  0  0  0  0
  140.9919   70.7468  229.0506 H   0  0  0  0  0  0  0  0  0  0  0  0
  139.6373   68.7014  227.7118 H   0  0  0  0  0  0  0  0  0  0  0  0
  138.8417   70.1971  228.1200 H   0  0  0  0  0  0  0  0  0  0  0  0
  140.0177   71.6233  224.2669 H   0  0  0  0  0  0  0  0  0  0  0  0
  138.1630   75.9896  223.1753 H   0  0  0  0  0  0  0  0  0  0  0  0
  138.7919   78.3377  222.7832 H   0  0  0  0  0  0  0  0  0  0  0  0
  141.1246   79.1907  219.3833 H   0  0  0  0  0  0  0  0  0  0  0  0
  141.7195   83.1005  221.1050 H   0  0  0  0  0  0  0  0  0  0  0  0
  141.2599   82.0824  223.3307 H   0  0  0  0  0  0  0  0  0  0  0  0
  142.3142   77.1006  220.7125 H   0  0  0  0  0  0  0  0  0  0  0  0
  1  2  2  0
  2  3  1  0
  3  4  1  0
  4  5  1  0
  5  6  2  0
  6  7  1  0
  7  8  2  0
  8  9  1  0
  9 10  1  0
 10 11  2  0
 10 12  1  0
 12 13  1  0
 13 14  1  0
 14 15  1  0
 15 16  1  0
  9 17  2  0
  4 18  2  0
 18 19  1  0
 19 20  2  0
 20 21  1  0
 21 22  2  0
 22 23  1  0
 23 24  2  0
 24 25  1  0
 25 26  1  0
 25 27  2  0
 27 28  1  0
 28 29  2  0
 22 30  1  0
 30 31  2  0
 31  2  1  0
 17  5  1  0
 31 19  1  0
 16 12  1  0
 29 23  1  0
  3 32  1  0
  3 33  1  0
  6 34  1  0
  7 35  1  0
  8 36  1  0
 13 37  1  0
 13 38  1  0
 14 39  1  0
 14 40  1  0
 15 41  1  0
 15 42  1  0
 16 43  1  0
 16 44  1  0
 17 45  1  0
 20 46  1  0
 21 47  1  0
 24 48  1  0
 27 49  1  0
 28 50  1  0
 30 51  1  0
M  END
>  <smiles>  (28) 
O=C1CC(c2cccc(C(=O)N3CCCC3)c2)=Nc2ccc(-c3cc(Cl)ccn3)cc21

>  <score_type>  (28) 
oracle

>  <origin>  (28) 
autodockgpu

>  <m_score__min__energy>  (28) 
-9.0099999999999998

>  <m_primary>  (28) 
energy

>  <rmsd>  (28) 
6.201896650906238

>  <m_score__min__rmsd>  (28) 
6.201896650906238

>  <meeko>  (28) 
{"free_energy": -8.96, "intermolecular_energy": -9.86, "internal_energy": -0.71, "cluster_size": 34, "cluster_id": 1, "rank_in_cluster": 8}

>  <energy>  (28) 
-8.73

>  <cluster_rmsd>  (28) 
1.7

>  <cluster>  (28) 
1

$$$$

     RDKit          3D

 51 55  0  0  0  0  0  0  0  0999 V2000
  143.1010   74.7580  219.2500 O   0  0  0  0  0  0  0  0  0  0  0  0
  142.1960   74.7260  220.1180 C   0  0  0  0  0  0  0  0  0  0  0  0
  141.8690   73.4160  220.7150 C   0  0  0  0  0  0  0  0  0  0  0  0
  140.7990   73.5950  221.7170 C   0  0  0  0  0  0  0  0  0  0  0  0
  140.3460   72.3730  222.4200 C   0  0  0  0  0  0  0  0  0  0  0  0
  139.6220   71.3910  221.7470 C   0  0  0  0  0  0  0  0  0  0  0  0
  139.2060   70.2480  222.4170 C   0  0  0  0  0  0  0  0  0  0  0  0
  139.4960   70.0500  223.7690 C   0  0  0  0  0  0  0  0  0  0  0  0
  140.2090   71.0210  224.4270 C   0  0  0  0  0  0  0  0  0  0  0  0
  140.5860   70.9510  225.8310 C   0  0  0  0  0  0  0  0  0  0  0  0
  140.7740   72.0670  226.4120 O   0  0  0  0  0  0  0  0  0  0  0  0
  140.7440   69.7400  226.5430 N   0  0  0  0  0  0  0  0  0  0  0  0
  140.5980   68.3610  226.1120 C   0  0  0  0  0  0  0  0  0  0  0  0
  139.7470   67.7650  227.2080 C   0  0  0  0  0  0  0  0  0  0  0  0
  140.1350   68.5350  228.4290 C   0  0  0  0  0  0  0  0  0  0  0  0
  141.0950   69.6270  227.9560 C   0  0  0  0  0  0  0  0  0  0  0  0
  140.6180   72.1570  223.7410 C   0  0  0  0  0  0  0  0  0  0  0  0
  140.2320   74.6990  222.0230 N   0  0  0  0  0  0  0  0  0  0  0  0
  140.5650   75.9490  221.4200 C   0  0  0  0  0  0  0  0  0  0  0  0
  139.9520   77.1360  221.7330 C   0  0  0  0  0  0  0  0  0  0  0  0
  140.3240   78.3100  221.0940 C   0  0  0  0  0  0  0  0  0  0  0  0
  141.3080   78.3480  220.1320 C   0  0  0  0  0  0  0  0  0  0  0  0
  141.6400   79.6090  219.4880 C   0  0  0  0  0  0  0  0  0  0  0  0
  141.0790   80.8170  219.8390 C   0  0  0  0  0  0  0  0  0  0  0  0
  141.4250   81.9940  219.2030 C   0  0  0  0  0  0  0  0  0  0  0  0
  140.7050   83.5390  219.6510 Cl  0  0  0  0  0  0  0  0  0  0  0  0
  142.3590   81.9920  218.1780 C   0  0  0  0  0  0  0  0  0  0  0  0
  142.8990   80.7660  217.8520 C   0  0  0  0  0  0  0  0  0  0  0  0
  142.5460   79.6190  218.4900 N   0  0  0  0  0  0  0  0  0  0  0  0
  141.9270   77.1620  219.8140 C   0  0  0  0  0  0  0  0  0  0  0  0
  141.5490   75.9800  220.4590 C   0  0  0  0  0  0  0  0  0  0  0  0
  141.5256   72.7281  219.9283 H   0  0  0  0  0  0  0  0  0  0  0  0
  142.7631   72.9957  221.1987 H   0  0  0  0  0  0  0  0  0  0  0  0
  139.3793   71.5215  220.6821 H   0  0  0  0  0  0  0  0  0  0  0  0
  138.6357   69.4819  221.8712 H   0  0  0  0  0  0  0  0  0  0  0  0
  139.1624   69.1414  224.2917 H   0  0  0  0  0  0  0  0  0  0  0  0
  140.0911   68.3005  225.1376 H   0  0  0  0  0  0  0  0  0  0  0  0
  141.5573   67.8418  225.9700 H   0  0  0  0  0  0  0  0  0  0  0  0
  138.6774   67.8960  226.9870 H   0  0  0  0  0  0  0  0  0  0  0  0
  139.9040   66.6824  227.3235 H   0  0  0  0  0  0  0  0  0  0  0  0
  139.2458   68.9844  228.8952 H   0  0  0  0  0  0  0  0  0  0  0  0
  140.6060   67.8846  229.1808 H   0  0  0  0  0  0  0  0  0  0  0  0
  140.9199   70.5730  228.4893 H   0  0  0  0  0  0  0  0  0  0  0  0
  142.1556   69.3966  228.1350 H   0  0  0  0  0  0  0  0  0  0  0  0
  141.1894   72.9209  224.2887 H   0  0  0  0  0  0  0  0  0  0  0  0
  139.1599   77.1570  222.4960 H   0  0  0  0  0  0  0  0  0  0  0  0
  139.8135   79.2455  221.3663 H   0  0  0  0  0  0  0  0  0  0  0  0
  140.3346   80.8456  220.6484 H   0  0  0  0  0  0  0  0  0  0  0  0
  142.6519   82.9146  217.6555 H   0  0  0  0  0  0  0  0  0  0  0  0
  143.6442   80.7142  217.0445 H   0  0  0  0  0  0  0  0  0  0  0  0
  142.7200   77.1429  219.0518 H   0  0  0  0  0  0  0  0  0  0  0  0
  1  2  2  0
  2  3  1  0
  3  4  1  0
  4  5  1  0
  5  6  2  0
  6  7  1  0
  7  8  2  0
  8  9  1  0
  9 10  1  0
 10 11  2  0
 10 12  1  0
 12 13  1  0
 13 14  1  0
 14 15  1  0
 15 16  1  0
  9 17  2  0
  4 18  2  0
 18 19  1  0
 19 20  2  0
 20 21  1  0
 21 22  2  0
 22 23  1  0
 23 24  2  0
 24 25  1  0
 25 26  1  0
 25 27  2  0
 27 28  1  0
 28 29  2  0
 22 30  1  0
 30 31  2  0
 31  2  1  0
 17  5  1  0
 31 19  1  0
 16 12  1  0
 29 23  1  0
  3 32  1  0
  3 33  1  0
  6 34  1  0
  7 35  1  0
  8 36  1  0
 13 37  1  0
 13 38  1  0
 14 39  1  0
 14 40  1  0
 15 41  1  0
 15 42  1  0
 16 43  1  0
 16 44  1  0
 17 45  1  0
 20 46  1  0
 21 47  1  0
 24 48  1  0
 27 49  1  0
 28 50  1  0
 30 51  1  0
M  END
>  <smiles>  (29) 
O=C1CC(c2cccc(C(=O)N3CCCC3)c2)=Nc2ccc(-c3cc(Cl)ccn3)cc21

>  <score_type>  (29) 
oracle

>  <origin>  (29) 
autodockgpu

>  <m_score__min__energy>  (29) 
-9.0099999999999998

>  <m_primary>  (29) 
energy

>  <rmsd>  (29) 
7.364920367275815

>  <m_score__min__rmsd>  (29) 
7.364920367275815

>  <meeko>  (29) 
{"free_energy": -8.74, "intermolecular_energy": -9.63, "internal_energy": -0.88, "cluster_size": 34, "cluster_id": 1, "rank_in_cluster": 26}

>  <energy>  (29) 
-8.69

>  <cluster_rmsd>  (29) 
1.7

>  <cluster>  (29) 
1

$$$$

     RDKit          3D

 51 55  0  0  0  0  0  0  0  0999 V2000
  142.0090   74.7760  218.5860 O   0  0  0  0  0  0  0  0  0  0  0  0
  141.4900   74.7200  219.7260 C   0  0  0  0  0  0  0  0  0  0  0  0
  141.1950   73.3830  220.2770 C   0  0  0  0  0  0  0  0  0  0  0  0
  140.6070   73.5330  221.6230 C   0  0  0  0  0  0  0  0  0  0  0  0
  140.2490   72.2800  222.3270 C   0  0  0  0  0  0  0  0  0  0  0  0
  139.6060   71.2430  221.6550 C   0  0  0  0  0  0  0  0  0  0  0  0
  139.2780   70.0730  222.3260 C   0  0  0  0  0  0  0  0  0  0  0  0
  139.5800   69.9010  223.6790 C   0  0  0  0  0  0  0  0  0  0  0  0
  140.2140   70.9250  224.3370 C   0  0  0  0  0  0  0  0  0  0  0  0
  140.5920   70.8870  225.7420 C   0  0  0  0  0  0  0  0  0  0  0  0
  140.8120   72.0140  226.2890 O   0  0  0  0  0  0  0  0  0  0  0  0
  140.7190   69.6950  226.4900 N   0  0  0  0  0  0  0  0  0  0  0  0
  140.5340   68.3070  226.1010 C   0  0  0  0  0  0  0  0  0  0  0  0
  139.6700   67.7680  227.2160 C   0  0  0  0  0  0  0  0  0  0  0  0
  140.0810   68.5640  228.4130 C   0  0  0  0  0  0  0  0  0  0  0  0
  141.0700   69.6140  227.9050 C   0  0  0  0  0  0  0  0  0  0  0  0
  140.5340   72.0890  223.6500 C   0  0  0  0  0  0  0  0  0  0  0  0
  140.3770   74.6370  222.2250 N   0  0  0  0  0  0  0  0  0  0  0  0
  140.6650   75.9160  221.6600 C   0  0  0  0  0  0  0  0  0  0  0  0
  140.4090   77.1060  222.2940 C   0  0  0  0  0  0  0  0  0  0  0  0
  140.7070   78.3110  221.6750 C   0  0  0  0  0  0  0  0  0  0  0  0
  141.2660   78.3780  220.4190 C   0  0  0  0  0  0  0  0  0  0  0  0
  141.5400   79.6740  219.8180 C   0  0  0  0  0  0  0  0  0  0  0  0
  141.0490   80.8630  220.3100 C   0  0  0  0  0  0  0  0  0  0  0  0
  141.3350   82.0750  219.7100 C   0  0  0  0  0  0  0  0  0  0  0  0
  140.7050   83.5950  220.3390 Cl  0  0  0  0  0  0  0  0  0  0  0  0
  142.1380   82.1280  218.5800 C   0  0  0  0  0  0  0  0  0  0  0  0
  142.6120   80.9200  218.1150 C   0  0  0  0  0  0  0  0  0  0  0  0
  142.3180   79.7380  218.7190 N   0  0  0  0  0  0  0  0  0  0  0  0
  141.5260   77.1890  219.7790 C   0  0  0  0  0  0  0  0  0  0  0  0
  141.2230   75.9760  220.4050 C   0  0  0  0  0  0  0  0  0  0  0  0
  140.4825   72.8630  219.6198 H   0  0  0  0  0  0  0  0  0  0  0  0
  142.1232   72.7964  220.3419 H   0  0  0  0  0  0  0  0  0  0  0  0
  139.3573   71.3517  220.5890 H   0  0  0  0  0  0  0  0  0  0  0  0
  138.7695   69.2642  221.7808 H   0  0  0  0  0  0  0  0  0  0  0  0
  139.3168   68.9702  224.2027 H   0  0  0  0  0  0  0  0  0  0  0  0
  140.0230   68.2310  225.1298 H   0  0  0  0  0  0  0  0  0  0  0  0
  141.4784   67.7576  225.9731 H   0  0  0  0  0  0  0  0  0  0  0  0
  138.6038   67.9209  226.9926 H   0  0  0  0  0  0  0  0  0  0  0  0
  139.7986   66.6856  227.3642 H   0  0  0  0  0  0  0  0  0  0  0  0
  139.2054   69.0519  228.8660 H   0  0  0  0  0  0  0  0  0  0  0  0
  140.5348   67.9245  229.1844 H   0  0  0  0  0  0  0  0  0  0  0  0
  140.9231   70.5801  228.4101 H   0  0  0  0  0  0  0  0  0  0  0  0
  142.1241   69.3588  228.0886 H   0  0  0  0  0  0  0  0  0  0  0  0
  141.0417   72.8967  224.1976 H   0  0  0  0  0  0  0  0  0  0  0  0
  139.9644   77.1042  223.3001 H   0  0  0  0  0  0  0  0  0  0  0  0
  140.4884   79.2482  222.2078 H   0  0  0  0  0  0  0  0  0  0  0  0
  140.4110   80.8477  221.2060 H   0  0  0  0  0  0  0  0  0  0  0  0
  142.3823   83.0789  218.0838 H   0  0  0  0  0  0  0  0  0  0  0  0
  143.2527   80.9121  217.2209 H   0  0  0  0  0  0  0  0  0  0  0  0
  141.9727   77.1922  218.7738 H   0  0  0  0  0  0  0  0  0  0  0  0
  1  2  2  0
  2  3  1  0
  3  4  1  0
  4  5  1  0
  5  6  2  0
  6  7  1  0
  7  8  2  0
  8  9  1  0
  9 10  1  0
 10 11  2  0
 10 12  1  0
 12 13  1  0
 13 14  1  0
 14 15  1  0
 15 16  1  0
  9 17  2  0
  4 18  2  0
 18 19  1  0
 19 20  2  0
 20 21  1  0
 21 22  2  0
 22 23  1  0
 23 24  2  0
 24 25  1  0
 25 26  1  0
 25 27  2  0
 27 28  1  0
 28 29  2  0
 22 30  1  0
 30 31  2  0
 31  2  1  0
 17  5  1  0
 31 19  1  0
 16 12  1  0
 29 23  1  0
  3 32  1  0
  3 33  1  0
  6 34  1  0
  7 35  1  0
  8 36  1  0
 13 37  1  0
 13 38  1  0
 14 39  1  0
 14 40  1  0
 15 41  1  0
 15 42  1  0
 16 43  1  0
 16 44  1  0
 17 45  1  0
 20 46  1  0
 21 47  1  0
 24 48  1  0
 27 49  1  0
 28 50  1  0
 30 51  1  0
M  END
>  <smiles>  (30) 
O=C1CC(c2cccc(C(=O)N3CCCC3)c2)=Nc2ccc(-c3cc(Cl)ccn3)cc21

>  <score_type>  (30) 
oracle

>  <origin>  (30) 
autodockgpu

>  <m_score__min__energy>  (30) 
-9.0099999999999998

>  <m_primary>  (30) 
energy

>  <rmsd>  (30) 
7.388122488085327

>  <m_score__min__rmsd>  (30) 
7.388122488085327

>  <meeko>  (30) 
{"free_energy": -8.67, "intermolecular_energy": -9.56, "internal_energy": -0.86, "cluster_size": 34, "cluster_id": 1, "rank_in_cluster": 30}

>  <energy>  (30) 
-8.67

>  <cluster_rmsd>  (30) 
1.72

>  <cluster>  (30) 
1

$$$$

     RDKit          3D

 51 55  0  0  0  0  0  0  0  0999 V2000
  143.7000   72.3880  220.8260 O   0  0  0  0  0  0  0  0  0  0  0  0
  142.8430   73.3020  220.7650 C   0  0  0  0  0  0  0  0  0  0  0  0
  143.2070   74.5300  220.0310 C   0  0  0  0  0  0  0  0  0  0  0  0
  142.0660   75.4670  220.0610 C   0  0  0  0  0  0  0  0  0  0  0  0
  142.2600   76.7610  219.3660 C   0  0  0  0  0  0  0  0  0  0  0  0
  142.7740   76.8040  218.0720 C   0  0  0  0  0  0  0  0  0  0  0  0
  142.9480   78.0230  217.4310 C   0  0  0  0  0  0  0  0  0  0  0  0
  142.6190   79.2280  218.0550 C   0  0  0  0  0  0  0  0  0  0  0  0
  142.1130   79.1800  219.3300 C   0  0  0  0  0  0  0  0  0  0  0  0
  141.7230   80.3500  220.1030 C   0  0  0  0  0  0  0  0  0  0  0  0
  141.1480   81.2800  219.4520 O   0  0  0  0  0  0  0  0  0  0  0  0
  141.9490   80.4870  221.4910 N   0  0  0  0  0  0  0  0  0  0  0  0
  142.5820   79.5880  222.4410 C   0  0  0  0  0  0  0  0  0  0  0  0
  141.5980   79.5800  223.5870 C   0  0  0  0  0  0  0  0  0  0  0  0
  140.9870   80.9440  223.5520 C   0  0  0  0  0  0  0  0  0  0  0  0
  141.5520   81.6300  222.3070 C   0  0  0  0  0  0  0  0  0  0  0  0
  141.9450   77.9520  219.9570 C   0  0  0  0  0  0  0  0  0  0  0  0
  140.9410   75.2650  220.6340 N   0  0  0  0  0  0  0  0  0  0  0  0
  140.6230   74.0690  221.3450 C   0  0  0  0  0  0  0  0  0  0  0  0
  139.4240   73.8500  221.9730 C   0  0  0  0  0  0  0  0  0  0  0  0
  139.1930   72.6630  222.6550 C   0  0  0  0  0  0  0  0  0  0  0  0
  140.1340   71.6620  222.7350 C   0  0  0  0  0  0  0  0  0  0  0  0
  139.8360   70.4480  223.4790 C   0  0  0  0  0  0  0  0  0  0  0  0
  140.2290   70.2350  224.7820 C   0  0  0  0  0  0  0  0  0  0  0  0
  139.9230   69.0670  225.4540 C   0  0  0  0  0  0  0  0  0  0  0  0
  140.4280   68.7940  227.1200 Cl  0  0  0  0  0  0  0  0  0  0  0  0
  139.2010   68.0630  224.8270 C   0  0  0  0  0  0  0  0  0  0  0  0
  138.8240   68.3090  223.5230 C   0  0  0  0  0  0  0  0  0  0  0  0
  139.1360   69.4650  222.8790 N   0  0  0  0  0  0  0  0  0  0  0  0
  141.3390   71.8760  222.1070 C   0  0  0  0  0  0  0  0  0  0  0  0
  141.5690   73.0720  221.4210 C   0  0  0  0  0  0  0  0  0  0  0  0
  144.0809   74.9984  220.5073 H   0  0  0  0  0  0  0  0  0  0  0  0
  143.4535   74.2794  218.9887 H   0  0  0  0  0  0  0  0  0  0  0  0
  143.0426   75.8699  217.5569 H   0  0  0  0  0  0  0  0  0  0  0  0
  143.3541   78.0400  216.4088 H   0  0  0  0  0  0  0  0  0  0  0  0
  142.7614   80.1890  217.5391 H   0  0  0  0  0  0  0  0  0  0  0  0
  142.7046   78.5813  222.0150 H   0  0  0  0  0  0  0  0  0  0  0  0
  143.5949   79.9013  222.7342 H   0  0  0  0  0  0  0  0  0  0  0  0
  140.8318   78.8049  223.4385 H   0  0  0  0  0  0  0  0  0  0  0  0
  142.0756   79.3558  224.5522 H   0  0  0  0  0  0  0  0  0  0  0  0
  139.8916   80.8700  223.4832 H   0  0  0  0  0  0  0  0  0  0  0  0
  141.2199   81.5123  224.4646 H   0  0  0  0  0  0  0  0  0  0  0  0
  140.7861   82.2364  221.8014 H   0  0  0  0  0  0  0  0  0  0  0  0
  142.3715   82.3326  222.5186 H   0  0  0  0  0  0  0  0  0  0  0  0
  141.5386   77.9376  220.9791 H   0  0  0  0  0  0  0  0  0  0  0  0
  138.6395   74.6202  221.9362 H   0  0  0  0  0  0  0  0  0  0  0  0
  138.2215   72.5172  223.1499 H   0  0  0  0  0  0  0  0  0  0  0  0
  140.8024   71.0165  225.3020 H   0  0  0  0  0  0  0  0  0  0  0  0
  138.9437   67.1245  225.3398 H   0  0  0  0  0  0  0  0  0  0  0  0
  138.2495   67.5412  222.9841 H   0  0  0  0  0  0  0  0  0  0  0  0
  142.1226   71.1049  222.1447 H   0  0  0  0  0  0  0  0  0  0  0  0
  1  2  2  0
  2  3  1  0
  3  4  1  0
  4  5  1  0
  5  6  2  0
  6  7  1  0
  7  8  2  0
  8  9  1  0
  9 10  1  0
 10 11  2  0
 10 12  1  0
 12 13  1  0
 13 14  1  0
 14 15  1  0
 15 16  1  0
  9 17  2  0
  4 18  2  0
 18 19  1  0
 19 20  2  0
 20 21  1  0
 21 22  2  0
 22 23  1  0
 23 24  2  0
 24 25  1  0
 25 26  1  0
 25 27  2  0
 27 28  1  0
 28 29  2  0
 22 30  1  0
 30 31  2  0
 31  2  1  0
 17  5  1  0
 31 19  1  0
 16 12  1  0
 29 23  1  0
  3 32  1  0
  3 33  1  0
  6 34  1  0
  7 35  1  0
  8 36  1  0
 13 37  1  0
 13 38  1  0
 14 39  1  0
 14 40  1  0
 15 41  1  0
 15 42  1  0
 16 43  1  0
 16 44  1  0
 17 45  1  0
 20 46  1  0
 21 47  1  0
 24 48  1  0
 27 49  1  0
 28 50  1  0
 30 51  1  0
M  END
>  <smiles>  (31) 
O=C1CC(c2cccc(C(=O)N3CCCC3)c2)=Nc2ccc(-c3cc(Cl)ccn3)cc21

>  <score_type>  (31) 
oracle

>  <origin>  (31) 
autodockgpu

>  <m_score__min__energy>  (31) 
-9.0099999999999998

>  <m_primary>  (31) 
energy

>  <rmsd>  (31) 
8.366236546248397

>  <m_score__min__rmsd>  (31) 
8.366236546248397

>  <meeko>  (31) 
{"free_energy": -8.3, "intermolecular_energy": -9.19, "internal_energy": -0.98, "cluster_size": 7, "cluster_id": 3, "rank_in_cluster": 3}

>  <energy>  (31) 
-8.6

>  <cluster_rmsd>  (31) 
1.53

>  <cluster>  (31) 
1

$$$$

     RDKit          3D

 51 55  0  0  0  0  0  0  0  0999 V2000
  142.9140   75.2230  220.1520 O   0  0  0  0  0  0  0  0  0  0  0  0
  141.9060   74.8770  220.8130 C   0  0  0  0  0  0  0  0  0  0  0  0
  141.6300   73.4320  220.9300 C   0  0  0  0  0  0  0  0  0  0  0  0
  140.4190   73.2370  221.7530 C   0  0  0  0  0  0  0  0  0  0  0  0
  139.9960   71.8350  221.9760 C   0  0  0  0  0  0  0  0  0  0  0  0
  140.0180   70.9100  220.9340 C   0  0  0  0  0  0  0  0  0  0  0  0
  139.6210   69.5980  221.1570 C   0  0  0  0  0  0  0  0  0  0  0  0
  139.1920   69.1710  222.4160 C   0  0  0  0  0  0  0  0  0  0  0  0
  139.1720   70.0860  223.4390 C   0  0  0  0  0  0  0  0  0  0  0  0
  138.7540   69.7860  224.8000 C   0  0  0  0  0  0  0  0  0  0  0  0
  137.4990   69.7080  224.9910 O   0  0  0  0  0  0  0  0  0  0  0  0
  139.6520   69.5860  225.8720 N   0  0  0  0  0  0  0  0  0  0  0  0
  141.1030   69.6290  225.9140 C   0  0  0  0  0  0  0  0  0  0  0  0
  141.4460   68.3650  226.6650 C   0  0  0  0  0  0  0  0  0  0  0  0
  140.2920   68.1700  227.5950 C   0  0  0  0  0  0  0  0  0  0  0  0
  139.2750   69.2580  227.2440 C   0  0  0  0  0  0  0  0  0  0  0  0
  139.5730   71.3940  223.1980 C   0  0  0  0  0  0  0  0  0  0  0  0
  139.7090   74.1610  222.2790 N   0  0  0  0  0  0  0  0  0  0  0  0
  139.9980   75.5510  222.1390 C   0  0  0  0  0  0  0  0  0  0  0  0
  139.2340   76.5490  222.6890 C   0  0  0  0  0  0  0  0  0  0  0  0
  139.5730   77.8810  222.4980 C   0  0  0  0  0  0  0  0  0  0  0  0
  140.6720   78.2660  221.7640 C   0  0  0  0  0  0  0  0  0  0  0  0
  140.9640   79.6800  221.5880 C   0  0  0  0  0  0  0  0  0  0  0  0
  141.0580   80.2930  220.3580 C   0  0  0  0  0  0  0  0  0  0  0  0
  141.3350   81.6410  220.2350 C   0  0  0  0  0  0  0  0  0  0  0  0
  141.4560   82.4250  218.6610 Cl  0  0  0  0  0  0  0  0  0  0  0  0
  141.5300   82.4260  221.3620 C   0  0  0  0  0  0  0  0  0  0  0  0
  141.4300   81.7800  222.5760 C   0  0  0  0  0  0  0  0  0  0  0  0
  141.1570   80.4520  222.6760 N   0  0  0  0  0  0  0  0  0  0  0  0
  141.4430   77.2700  221.2110 C   0  0  0  0  0  0  0  0  0  0  0  0
  141.0980   75.9290  221.4030 C   0  0  0  0  0  0  0  0  0  0  0  0
  141.4678   73.0056  219.9290 H   0  0  0  0  0  0  0  0  0  0  0  0
  142.4854   72.9282  221.4037 H   0  0  0  0  0  0  0  0  0  0  0  0
  140.3507   71.2198  219.9323 H   0  0  0  0  0  0  0  0  0  0  0  0
  139.6449   68.8796  220.3243 H   0  0  0  0  0  0  0  0  0  0  0  0
  138.8788   68.1299  222.5830 H   0  0  0  0  0  0  0  0  0  0  0  0
  141.5305   69.6176  224.9005 H   0  0  0  0  0  0  0  0  0  0  0  0
  141.5012   70.5402  226.3844 H   0  0  0  0  0  0  0  0  0  0  0  0
  141.5396   67.5137  225.9747 H   0  0  0  0  0  0  0  0  0  0  0  0
  142.4078   68.4357  227.1941 H   0  0  0  0  0  0  0  0  0  0  0  0
  139.8497   67.1732  227.4507 H   0  0  0  0  0  0  0  0  0  0  0  0
  140.6074   68.2392  228.6465 H   0  0  0  0  0  0  0  0  0  0  0  0
  138.2449   68.8755  227.2960 H   0  0  0  0  0  0  0  0  0  0  0  0
  139.2890   70.1191  227.9284 H   0  0  0  0  0  0  0  0  0  0  0  0
  139.5488   72.1103  224.0325 H   0  0  0  0  0  0  0  0  0  0  0  0
  138.3464   76.2915  223.2856 H   0  0  0  0  0  0  0  0  0  0  0  0
  138.9397   78.6585  222.9502 H   0  0  0  0  0  0  0  0  0  0  0  0
  140.9084   79.6927  219.4485 H   0  0  0  0  0  0  0  0  0  0  0  0
  141.7515   83.5011  221.2913 H   0  0  0  0  0  0  0  0  0  0  0  0
  141.5766   82.3611  223.4984 H   0  0  0  0  0  0  0  0  0  0  0  0
  142.3319   77.5290  220.6171 H   0  0  0  0  0  0  0  0  0  0  0  0
  1  2  2  0
  2  3  1  0
  3  4  1  0
  4  5  1  0
  5  6  2  0
  6  7  1  0
  7  8  2  0
  8  9  1  0
  9 10  1  0
 10 11  2  0
 10 12  1  0
 12 13  1  0
 13 14  1  0
 14 15  1  0
 15 16  1  0
  9 17  2  0
  4 18  2  0
 18 19  1  0
 19 20  2  0
 20 21  1  0
 21 22  2  0
 22 23  1  0
 23 24  2  0
 24 25  1  0
 25 26  1  0
 25 27  2  0
 27 28  1  0
 28 29  2  0
 22 30  1  0
 30 31  2  0
 31  2  1  0
 17  5  1  0
 31 19  1  0
 16 12  1  0
 29 23  1  0
  3 32  1  0
  3 33  1  0
  6 34  1  0
  7 35  1  0
  8 36  1  0
 13 37  1  0
 13 38  1  0
 14 39  1  0
 14 40  1  0
 15 41  1  0
 15 42  1  0
 16 43  1  0
 16 44  1  0
 17 45  1  0
 20 46  1  0
 21 47  1  0
 24 48  1  0
 27 49  1  0
 28 50  1  0
 30 51  1  0
M  END
>  <smiles>  (32) 
O=C1CC(c2cccc(C(=O)N3CCCC3)c2)=Nc2ccc(-c3cc(Cl)ccn3)cc21

>  <score_type>  (32) 
oracle

>  <origin>  (32) 
autodockgpu

>  <m_score__min__energy>  (32) 
-9.0099999999999998

>  <m_primary>  (32) 
energy

>  <rmsd>  (32) 
6.671799917471719

>  <m_score__min__rmsd>  (32) 
6.671799917471719

>  <meeko>  (32) 
{"free_energy": -8.38, "intermolecular_energy": -9.28, "internal_energy": -1.0, "cluster_size": 34, "cluster_id": 1, "rank_in_cluster": 34}

>  <energy>  (32) 
-8.53

>  <cluster_rmsd>  (32) 
1.53

>  <cluster>  (32) 
1

$$$$

     RDKit          3D

 51 55  0  0  0  0  0  0  0  0999 V2000
  142.9380   74.4960  220.3410 O   0  0  0  0  0  0  0  0  0  0  0  0
  141.8790   74.2020  220.9450 C   0  0  0  0  0  0  0  0  0  0  0  0
  141.5510   72.7700  221.0910 C   0  0  0  0  0  0  0  0  0  0  0  0
  140.2840   72.6380  221.8390 C   0  0  0  0  0  0  0  0  0  0  0  0
  139.8040   71.2570  222.0780 C   0  0  0  0  0  0  0  0  0  0  0  0
  139.3440   70.4700  221.0240 C   0  0  0  0  0  0  0  0  0  0  0  0
  138.8990   69.1760  221.2630 C   0  0  0  0  0  0  0  0  0  0  0  0
  138.8980   68.6320  222.5490 C   0  0  0  0  0  0  0  0  0  0  0  0
  139.3520   69.4120  223.5830 C   0  0  0  0  0  0  0  0  0  0  0  0
  139.4110   68.9790  224.9710 C   0  0  0  0  0  0  0  0  0  0  0  0
  139.1700   67.7480  225.1800 O   0  0  0  0  0  0  0  0  0  0  0  0
  139.7150   69.8400  226.0500 N   0  0  0  0  0  0  0  0  0  0  0  0
  140.0140   71.2610  226.0740 C   0  0  0  0  0  0  0  0  0  0  0  0
  141.2460   71.3210  226.9470 C   0  0  0  0  0  0  0  0  0  0  0  0
  141.0710   70.1840  227.9020 C   0  0  0  0  0  0  0  0  0  0  0  0
  139.8110   69.4420  227.4520 C   0  0  0  0  0  0  0  0  0  0  0  0
  139.7930   70.7040  223.3270 C   0  0  0  0  0  0  0  0  0  0  0  0
  139.5710   73.6000  222.2860 N   0  0  0  0  0  0  0  0  0  0  0  0
  139.9110   74.9760  222.1200 C   0  0  0  0  0  0  0  0  0  0  0  0
  139.1440   76.0140  222.5860 C   0  0  0  0  0  0  0  0  0  0  0  0
  139.5360   77.3280  222.3750 C   0  0  0  0  0  0  0  0  0  0  0  0
  140.6920   77.6550  221.7030 C   0  0  0  0  0  0  0  0  0  0  0  0
  141.0390   79.0540  221.5010 C   0  0  0  0  0  0  0  0  0  0  0  0
  141.1750   79.6350  220.2600 C   0  0  0  0  0  0  0  0  0  0  0  0
  141.5040   80.9690  220.1120 C   0  0  0  0  0  0  0  0  0  0  0  0
  141.6790   81.7120  218.5230 Cl  0  0  0  0  0  0  0  0  0  0  0  0
  141.7090   81.7710  221.2240 C   0  0  0  0  0  0  0  0  0  0  0  0
  141.5660   81.1560  222.4500 C   0  0  0  0  0  0  0  0  0  0  0  0
  141.2430   79.8420  222.5750 N   0  0  0  0  0  0  0  0  0  0  0  0
  141.4660   76.6190  221.2340 C   0  0  0  0  0  0  0  0  0  0  0  0
  141.0670   75.2960  221.4470 C   0  0  0  0  0  0  0  0  0  0  0  0
  141.4405   72.3141  220.0960 H   0  0  0  0  0  0  0  0  0  0  0  0
  142.3581   72.2587  221.6361 H   0  0  0  0  0  0  0  0  0  0  0  0
  139.3332   70.8742  220.0010 H   0  0  0  0  0  0  0  0  0  0  0  0
  138.5396   68.5665  220.4208 H   0  0  0  0  0  0  0  0  0  0  0  0
  138.5431   67.6064  222.7284 H   0  0  0  0  0  0  0  0  0  0  0  0
  140.2243   71.6402  225.0631 H   0  0  0  0  0  0  0  0  0  0  0  0
  139.1826   71.8780  226.4457 H   0  0  0  0  0  0  0  0  0  0  0  0
  142.1576   71.1893  226.3457 H   0  0  0  0  0  0  0  0  0  0  0  0
  141.3550   72.2890  227.4580 H   0  0  0  0  0  0  0  0  0  0  0  0
  141.9429   69.5145  227.8624 H   0  0  0  0  0  0  0  0  0  0  0  0
  140.9788   70.5404  228.9386 H   0  0  0  0  0  0  0  0  0  0  0  0
  139.9302   68.3531  227.5520 H   0  0  0  0  0  0  0  0  0  0  0  0
  138.9166   69.6820  228.0456 H   0  0  0  0  0  0  0  0  0  0  0  0
  140.1509   71.3115  224.1713 H   0  0  0  0  0  0  0  0  0  0  0  0
  138.2119   75.8028  223.1306 H   0  0  0  0  0  0  0  0  0  0  0  0
  138.8993   78.1387  222.7590 H   0  0  0  0  0  0  0  0  0  0  0  0
  141.0174   79.0202  219.3615 H   0  0  0  0  0  0  0  0  0  0  0  0
  141.9704   82.8357  221.1337 H   0  0  0  0  0  0  0  0  0  0  0  0
  141.7193   81.7520  223.3617 H   0  0  0  0  0  0  0  0  0  0  0  0
  142.3989   76.8315  220.6913 H   0  0  0  0  0  0  0  0  0  0  0  0
  1  2  2  0
  2  3  1  0
  3  4  1  0
  4  5  1  0
  5  6  2  0
  6  7  1  0
  7  8  2  0
  8  9  1  0
  9 10  1  0
 10 11  2  0
 10 12  1  0
 12 13  1  0
 13 14  1  0
 14 15  1  0
 15 16  1  0
  9 17  2  0
  4 18  2  0
 18 19  1  0
 19 20  2  0
 20 21  1  0
 21 22  2  0
 22 23  1  0
 23 24  2  0
 24 25  1  0
 25 26  1  0
 25 27  2  0
 27 28  1  0
 28 29  2  0
 22 30  1  0
 30 31  2  0
 31  2  1  0
 17  5  1  0
 31 19  1  0
 16 12  1  0
 29 23  1  0
  3 32  1  0
  3 33  1  0
  6 34  1  0
  7 35  1  0
  8 36  1  0
 13 37  1  0
 13 38  1  0
 14 39  1  0
 14 40  1  0
 15 41  1  0
 15 42  1  0
 16 43  1  0
 16 44  1  0
 17 45  1  0
 20 46  1  0
 21 47  1  0
 24 48  1  0
 27 49  1  0
 28 50  1  0
 30 51  1  0
M  END
>  <smiles>  (33) 
O=C1CC(c2cccc(C(=O)N3CCCC3)c2)=Nc2ccc(-c3cc(Cl)ccn3)cc21

>  <score_type>  (33) 
oracle

>  <origin>  (33) 
autodockgpu

>  <m_score__min__energy>  (33) 
-9.0099999999999998

>  <m_primary>  (33) 
energy

>  <rmsd>  (33) 
6.120402595691051

>  <m_score__min__rmsd>  (33) 
6.120402595691051

>  <meeko>  (33) 
{"free_energy": -8.97, "intermolecular_energy": -9.86, "internal_energy": -0.73, "cluster_size": 34, "cluster_id": 1, "rank_in_cluster": 7}

>  <energy>  (33) 
-8.39

>  <cluster_rmsd>  (33) 
1.0

>  <cluster>  (33) 
1

$$$$

     RDKit          3D

 51 55  0  0  0  0  0  0  0  0999 V2000
  142.9150   74.5040  220.3570 O   0  0  0  0  0  0  0  0  0  0  0  0
  141.8580   74.2170  220.9670 C   0  0  0  0  0  0  0  0  0  0  0  0
  141.5300   72.7870  221.1300 C   0  0  0  0  0  0  0  0  0  0  0  0
  140.2660   72.6630  221.8820 C   0  0  0  0  0  0  0  0  0  0  0  0
  139.7860   71.2860  222.1390 C   0  0  0  0  0  0  0  0  0  0  0  0
  139.3290   70.4840  221.0940 C   0  0  0  0  0  0  0  0  0  0  0  0
  138.8850   69.1930  221.3480 C   0  0  0  0  0  0  0  0  0  0  0  0
  138.8820   68.6650  222.6410 C   0  0  0  0  0  0  0  0  0  0  0  0
  139.3320   69.4590  223.6660 C   0  0  0  0  0  0  0  0  0  0  0  0
  139.3900   69.0440  225.0600 C   0  0  0  0  0  0  0  0  0  0  0  0
  139.1330   67.8190  225.2870 O   0  0  0  0  0  0  0  0  0  0  0  0
  139.7080   69.9150  226.1270 N   0  0  0  0  0  0  0  0  0  0  0  0
  140.0260   71.3330  226.1310 C   0  0  0  0  0  0  0  0  0  0  0  0
  141.2600   71.3870  227.0000 C   0  0  0  0  0  0  0  0  0  0  0  0
  141.0720   70.2660  227.9710 C   0  0  0  0  0  0  0  0  0  0  0  0
  139.8010   69.5350  227.5340 C   0  0  0  0  0  0  0  0  0  0  0  0
  139.7730   70.7480  223.3940 C   0  0  0  0  0  0  0  0  0  0  0  0
  139.5540   73.6300  222.3210 N   0  0  0  0  0  0  0  0  0  0  0  0
  139.8940   75.0040  222.1390 C   0  0  0  0  0  0  0  0  0  0  0  0
  139.1290   76.0470  222.5960 C   0  0  0  0  0  0  0  0  0  0  0  0
  139.5200   77.3590  222.3690 C   0  0  0  0  0  0  0  0  0  0  0  0
  140.6740   77.6790  221.6900 C   0  0  0  0  0  0  0  0  0  0  0  0
  141.0200   79.0750  221.4720 C   0  0  0  0  0  0  0  0  0  0  0  0
  141.2290   79.6240  220.2260 C   0  0  0  0  0  0  0  0  0  0  0  0
  141.5550   80.9560  220.0610 C   0  0  0  0  0  0  0  0  0  0  0  0
  141.8230   81.6570  218.4670 Cl  0  0  0  0  0  0  0  0  0  0  0  0
  141.6820   81.7900  221.1610 C   0  0  0  0  0  0  0  0  0  0  0  0
  141.4670   81.2080  222.3930 C   0  0  0  0  0  0  0  0  0  0  0  0
  141.1480   79.8940  222.5340 N   0  0  0  0  0  0  0  0  0  0  0  0
  141.4460   76.6380  221.2300 C   0  0  0  0  0  0  0  0  0  0  0  0
  141.0480   75.3170  221.4590 C   0  0  0  0  0  0  0  0  0  0  0  0
  141.4170   72.3201  220.1405 H   0  0  0  0  0  0  0  0  0  0  0  0
  142.3384   72.2821  221.6791 H   0  0  0  0  0  0  0  0  0  0  0  0
  139.3201   70.8749  220.0658 H   0  0  0  0  0  0  0  0  0  0  0  0
  138.5279   68.5727  220.5127 H   0  0  0  0  0  0  0  0  0  0  0  0
  138.5287   67.6410  222.8325 H   0  0  0  0  0  0  0  0  0  0  0  0
  140.2390   71.6958  225.1146 H   0  0  0  0  0  0  0  0  0  0  0  0
  139.2040   71.9664  226.4957 H   0  0  0  0  0  0  0  0  0  0  0  0
  142.1682   71.2343  226.3984 H   0  0  0  0  0  0  0  0  0  0  0  0
  141.3834   72.3602  227.4977 H   0  0  0  0  0  0  0  0  0  0  0  0
  141.9347   69.5843  227.9388 H   0  0  0  0  0  0  0  0  0  0  0  0
  140.9872   70.6379  229.0027 H   0  0  0  0  0  0  0  0  0  0  0  0
  139.9054   68.4460  227.6489 H   0  0  0  0  0  0  0  0  0  0  0  0
  138.9111   69.7952  228.1259 H   0  0  0  0  0  0  0  0  0  0  0  0
  140.1294   71.3660  224.2313 H   0  0  0  0  0  0  0  0  0  0  0  0
  138.1989   75.8419  223.1463 H   0  0  0  0  0  0  0  0  0  0  0  0
  138.8841   78.1737  222.7457 H   0  0  0  0  0  0  0  0  0  0  0  0
  141.1335   78.9832  219.3370 H   0  0  0  0  0  0  0  0  0  0  0  0
  141.9394   82.8544  221.0574 H   0  0  0  0  0  0  0  0  0  0  0  0
  141.5570   81.8306  223.2954 H   0  0  0  0  0  0  0  0  0  0  0  0
  142.3770   76.8445  220.6817 H   0  0  0  0  0  0  0  0  0  0  0  0
  1  2  2  0
  2  3  1  0
  3  4  1  0
  4  5  1  0
  5  6  2  0
  6  7  1  0
  7  8  2  0
  8  9  1  0
  9 10  1  0
 10 11  2  0
 10 12  1  0
 12 13  1  0
 13 14  1  0
 14 15  1  0
 15 16  1  0
  9 17  2  0
  4 18  2  0
 18 19  1  0
 19 20  2  0
 20 21  1  0
 21 22  2  0
 22 23  1  0
 23 24  2  0
 24 25  1  0
 25 26  1  0
 25 27  2  0
 27 28  1  0
 28 29  2  0
 22 30  1  0
 30 31  2  0
 31  2  1  0
 17  5  1  0
 31 19  1  0
 16 12  1  0
 29 23  1  0
  3 32  1  0
  3 33  1  0
  6 34  1  0
  7 35  1  0
  8 36  1  0
 13 37  1  0
 13 38  1  0
 14 39  1  0
 14 40  1  0
 15 41  1  0
 15 42  1  0
 16 43  1  0
 16 44  1  0
 17 45  1  0
 20 46  1  0
 21 47  1  0
 24 48  1  0
 27 49  1  0
 28 50  1  0
 30 51  1  0
M  END
>  <smiles>  (34) 
O=C1CC(c2cccc(C(=O)N3CCCC3)c2)=Nc2ccc(-c3cc(Cl)ccn3)cc21

>  <score_type>  (34) 
oracle

>  <origin>  (34) 
autodockgpu

>  <m_score__min__energy>  (34) 
-9.0099999999999998

>  <m_primary>  (34) 
energy

>  <rmsd>  (34) 
6.128342234500266

>  <m_score__min__rmsd>  (34) 
6.128342234500266

>  <meeko>  (34) 
{"free_energy": -8.99, "intermolecular_energy": -9.89, "internal_energy": -0.73, "cluster_size": 34, "cluster_id": 1, "rank_in_cluster": 2}

>  <energy>  (34) 
-8.38

>  <cluster_rmsd>  (34) 
0.99

>  <cluster>  (34) 
1

$$$$

     RDKit          3D

 51 55  0  0  0  0  0  0  0  0999 V2000
  143.7010   72.3490  220.8470 O   0  0  0  0  0  0  0  0  0  0  0  0
  142.8470   73.2650  220.7810 C   0  0  0  0  0  0  0  0  0  0  0  0
  143.2130   74.4870  220.0380 C   0  0  0  0  0  0  0  0  0  0  0  0
  142.0750   75.4270  220.0640 C   0  0  0  0  0  0  0  0  0  0  0  0
  142.2710   76.7150  219.3600 C   0  0  0  0  0  0  0  0  0  0  0  0
  142.7770   76.7480  218.0620 C   0  0  0  0  0  0  0  0  0  0  0  0
  142.9530   77.9620  217.4120 C   0  0  0  0  0  0  0  0  0  0  0  0
  142.6340   79.1730  218.0310 C   0  0  0  0  0  0  0  0  0  0  0  0
  142.1360   79.1350  219.3100 C   0  0  0  0  0  0  0  0  0  0  0  0
  141.7580   80.3120  220.0780 C   0  0  0  0  0  0  0  0  0  0  0  0
  141.2210   81.2580  219.4180 O   0  0  0  0  0  0  0  0  0  0  0  0
  141.9560   80.4390  221.4720 N   0  0  0  0  0  0  0  0  0  0  0  0
  142.5440   79.5210  222.4320 C   0  0  0  0  0  0  0  0  0  0  0  0
  141.5340   79.5340  223.5560 C   0  0  0  0  0  0  0  0  0  0  0  0
  140.9580   80.9130  223.5120 C   0  0  0  0  0  0  0  0  0  0  0  0
  141.5680   81.5890  222.2830 C   0  0  0  0  0  0  0  0  0  0  0  0
  141.9660   77.9120  219.9450 C   0  0  0  0  0  0  0  0  0  0  0  0
  140.9510   75.2330  220.6410 N   0  0  0  0  0  0  0  0  0  0  0  0
  140.6310   74.0420  221.3610 C   0  0  0  0  0  0  0  0  0  0  0  0
  139.4320   73.8310  221.9930 C   0  0  0  0  0  0  0  0  0  0  0  0
  139.1990   72.6500  222.6840 C   0  0  0  0  0  0  0  0  0  0  0  0
  140.1370   71.6470  222.7690 C   0  0  0  0  0  0  0  0  0  0  0  0
  139.8370   70.4390  223.5220 C   0  0  0  0  0  0  0  0  0  0  0  0
  140.2280   70.2360  224.8270 C   0  0  0  0  0  0  0  0  0  0  0  0
  139.9200   69.0730  225.5080 C   0  0  0  0  0  0  0  0  0  0  0  0
  140.4220   68.8140  227.1770 Cl  0  0  0  0  0  0  0  0  0  0  0  0
  139.1990   68.0650  224.8870 C   0  0  0  0  0  0  0  0  0  0  0  0
  138.8250   68.3010  223.5810 C   0  0  0  0  0  0  0  0  0  0  0  0
  139.1380   69.4510  222.9280 N   0  0  0  0  0  0  0  0  0  0  0  0
  141.3410   71.8520  222.1360 C   0  0  0  0  0  0  0  0  0  0  0  0
  141.5730   73.0430  221.4420 C   0  0  0  0  0  0  0  0  0  0  0  0
  144.0892   74.9562  220.5093 H   0  0  0  0  0  0  0  0  0  0  0  0
  143.4567   74.2288  218.9969 H   0  0  0  0  0  0  0  0  0  0  0  0
  143.0377   75.8094  217.5510 H   0  0  0  0  0  0  0  0  0  0  0  0
  143.3524   77.9705  216.3871 H   0  0  0  0  0  0  0  0  0  0  0  0
  142.7778   80.1302  217.5084 H   0  0  0  0  0  0  0  0  0  0  0  0
  142.6506   78.5130  222.0047 H   0  0  0  0  0  0  0  0  0  0  0  0
  143.5576   79.8073  222.7493 H   0  0  0  0  0  0  0  0  0  0  0  0
  140.7523   78.7786  223.3874 H   0  0  0  0  0  0  0  0  0  0  0  0
  141.9839   79.2951  224.5309 H   0  0  0  0  0  0  0  0  0  0  0  0
  139.8630   80.8664  223.4179 H   0  0  0  0  0  0  0  0  0  0  0  0
  141.1842   81.4723  224.4318 H   0  0  0  0  0  0  0  0  0  0  0  0
  140.8289   82.2154  221.7622 H   0  0  0  0  0  0  0  0  0  0  0  0
  142.3992   82.2708  222.5160 H   0  0  0  0  0  0  0  0  0  0  0  0
  141.5660   77.9062  220.9697 H   0  0  0  0  0  0  0  0  0  0  0  0
  138.6497   74.6032  221.9519 H   0  0  0  0  0  0  0  0  0  0  0  0
  138.2283   72.5107  223.1823 H   0  0  0  0  0  0  0  0  0  0  0  0
  140.8013   71.0211  225.3417 H   0  0  0  0  0  0  0  0  0  0  0  0
  138.9401   67.1305  225.4063 H   0  0  0  0  0  0  0  0  0  0  0  0
  138.2514   67.5289  223.0473 H   0  0  0  0  0  0  0  0  0  0  0  0
  142.1217   71.0781  222.1760 H   0  0  0  0  0  0  0  0  0  0  0  0
  1  2  2  0
  2  3  1  0
  3  4  1  0
  4  5  1  0
  5  6  2  0
  6  7  1  0
  7  8  2  0
  8  9  1  0
  9 10  1  0
 10 11  2  0
 10 12  1  0
 12 13  1  0
 13 14  1  0
 14 15  1  0
 15 16  1  0
  9 17  2  0
  4 18  2  0
 18 19  1  0
 19 20  2  0
 20 21  1  0
 21 22  2  0
 22 23  1  0
 23 24  2  0
 24 25  1  0
 25 26  1  0
 25 27  2  0
 27 28  1  0
 28 29  2  0
 22 30  1  0
 30 31  2  0
 31  2  1  0
 17  5  1  0
 31 19  1  0
 16 12  1  0
 29 23  1  0
  3 32  1  0
  3 33  1  0
  6 34  1  0
  7 35  1  0
  8 36  1  0
 13 37  1  0
 13 38  1  0
 14 39  1  0
 14 40  1  0
 15 41  1  0
 15 42  1  0
 16 43  1  0
 16 44  1  0
 17 45  1  0
 20 46  1  0
 21 47  1  0
 24 48  1  0
 27 49  1  0
 28 50  1  0
 30 51  1  0
M  END
>  <smiles>  (35) 
O=C1CC(c2cccc(C(=O)N3CCCC3)c2)=Nc2ccc(-c3cc(Cl)ccn3)cc21

>  <score_type>  (35) 
oracle

>  <origin>  (35) 
autodockgpu

>  <m_score__min__energy>  (35) 
-9.0099999999999998

>  <m_primary>  (35) 
energy

>  <rmsd>  (35) 
8.331352841141866

>  <m_score__min__rmsd>  (35) 
8.331352841141866

>  <meeko>  (35) 
{"free_energy": -8.3, "intermolecular_energy": -9.2, "internal_energy": -0.97, "cluster_size": 7, "cluster_id": 3, "rank_in_cluster": 2}

>  <energy>  (35) 
-8.35

>  <cluster_rmsd>  (35) 
0.0

>  <cluster>  (35) 
2

$$$$

     RDKit          3D

 51 55  0  0  0  0  0  0  0  0999 V2000
  142.9850   74.8860  220.3350 O   0  0  0  0  0  0  0  0  0  0  0  0
  141.9390   74.5500  220.9400 C   0  0  0  0  0  0  0  0  0  0  0  0
  141.6680   73.1060  221.0820 C   0  0  0  0  0  0  0  0  0  0  0  0
  140.4080   72.9220  221.8310 C   0  0  0  0  0  0  0  0  0  0  0  0
  139.9830   71.5230  222.0670 C   0  0  0  0  0  0  0  0  0  0  0  0
  139.7290   70.6650  221.0000 C   0  0  0  0  0  0  0  0  0  0  0  0
  139.3340   69.3550  221.2360 C   0  0  0  0  0  0  0  0  0  0  0  0
  139.1790   68.8640  222.5340 C   0  0  0  0  0  0  0  0  0  0  0  0
  139.4300   69.7130  223.5820 C   0  0  0  0  0  0  0  0  0  0  0  0
  139.3140   69.3420  224.9850 C   0  0  0  0  0  0  0  0  0  0  0  0
  138.8250   68.1910  225.2160 O   0  0  0  0  0  0  0  0  0  0  0  0
  139.7090   70.1770  226.0540 N   0  0  0  0  0  0  0  0  0  0  0  0
  140.2770   71.5140  226.0530 C   0  0  0  0  0  0  0  0  0  0  0  0
  141.4370   71.3760  227.0100 C   0  0  0  0  0  0  0  0  0  0  0  0
  140.9820   70.3390  227.9870 C   0  0  0  0  0  0  0  0  0  0  0  0
  139.6340   69.8330  227.4710 C   0  0  0  0  0  0  0  0  0  0  0  0
  139.8250   71.0210  223.3280 C   0  0  0  0  0  0  0  0  0  0  0  0
  139.6580   73.8540  222.2820 N   0  0  0  0  0  0  0  0  0  0  0  0
  139.9450   75.2430  222.1190 C   0  0  0  0  0  0  0  0  0  0  0  0
  139.1380   76.2490  222.5890 C   0  0  0  0  0  0  0  0  0  0  0  0
  139.4780   77.5780  222.3810 C   0  0  0  0  0  0  0  0  0  0  0  0
  140.6190   77.9520  221.7080 C   0  0  0  0  0  0  0  0  0  0  0  0
  140.9110   79.3640  221.5090 C   0  0  0  0  0  0  0  0  0  0  0  0
  141.1740   79.9230  220.2780 C   0  0  0  0  0  0  0  0  0  0  0  0
  141.4450   81.2700  220.1320 C   0  0  0  0  0  0  0  0  0  0  0  0
  141.7830   81.9840  218.5570 Cl  0  0  0  0  0  0  0  0  0  0  0  0
  141.4590   82.1080  221.2360 C   0  0  0  0  0  0  0  0  0  0  0  0
  141.1920   81.5160  222.4520 C   0  0  0  0  0  0  0  0  0  0  0  0
  140.9290   80.1880  222.5750 N   0  0  0  0  0  0  0  0  0  0  0  0
  141.4320   76.9490  221.2350 C   0  0  0  0  0  0  0  0  0  0  0  0
  141.0860   75.6100  221.4450 C   0  0  0  0  0  0  0  0  0  0  0  0
  141.5744   72.6491  220.0858 H   0  0  0  0  0  0  0  0  0  0  0  0
  142.4953   72.6253  221.6247 H   0  0  0  0  0  0  0  0  0  0  0  0
  139.8416   71.0262  219.9671 H   0  0  0  0  0  0  0  0  0  0  0  0
  139.1390   68.6896  220.3821 H   0  0  0  0  0  0  0  0  0  0  0  0
  138.8643   67.8250  222.7113 H   0  0  0  0  0  0  0  0  0  0  0  0
  140.6222   71.7987  225.0481 H   0  0  0  0  0  0  0  0  0  0  0  0
  139.5596   72.2958  226.3428 H   0  0  0  0  0  0  0  0  0  0  0  0
  142.3423   71.0436  226.4810 H   0  0  0  0  0  0  0  0  0  0  0  0
  141.6994   72.3275  227.4956 H   0  0  0  0  0  0  0  0  0  0  0  0
  141.7075   69.5134  228.0331 H   0  0  0  0  0  0  0  0  0  0  0  0
  140.8938   70.7540  229.0019 H   0  0  0  0  0  0  0  0  0  0  0  0
  139.5320   68.7472  227.6148 H   0  0  0  0  0  0  0  0  0  0  0  0
  138.7667   70.2673  227.9898 H   0  0  0  0  0  0  0  0  0  0  0  0
  140.0199   71.6843  224.1836 H   0  0  0  0  0  0  0  0  0  0  0  0
  138.2156   75.9999  223.1342 H   0  0  0  0  0  0  0  0  0  0  0  0
  138.8108   78.3621  222.7684 H   0  0  0  0  0  0  0  0  0  0  0  0
  141.1681   79.2791  219.3862 H   0  0  0  0  0  0  0  0  0  0  0  0
  141.6710   83.1837  221.1469 H   0  0  0  0  0  0  0  0  0  0  0  0
  141.1918   82.1417  223.3567 H   0  0  0  0  0  0  0  0  0  0  0  0
  142.3548   77.1996  220.6913 H   0  0  0  0  0  0  0  0  0  0  0  0
  1  2  2  0
  2  3  1  0
  3  4  1  0
  4  5  1  0
  5  6  2  0
  6  7  1  0
  7  8  2  0
  8  9  1  0
  9 10  1  0
 10 11  2  0
 10 12  1  0
 12 13  1  0
 13 14  1  0
 14 15  1  0
 15 16  1  0
  9 17  2  0
  4 18  2  0
 18 19  1  0
 19 20  2  0
 20 21  1  0
 21 22  2  0
 22 23  1  0
 23 24  2  0
 24 25  1  0
 25 26  1  0
 25 27  2  0
 27 28  1  0
 28 29  2  0
 22 30  1  0
 30 31  2  0
 31  2  1  0
 17  5  1  0
 31 19  1  0
 16 12  1  0
 29 23  1  0
  3 32  1  0
  3 33  1  0
  6 34  1  0
  7 35  1  0
  8 36  1  0
 13 37  1  0
 13 38  1  0
 14 39  1  0
 14 40  1  0
 15 41  1  0
 15 42  1  0
 16 43  1  0
 16 44  1  0
 17 45  1  0
 20 46  1  0
 21 47  1  0
 24 48  1  0
 27 49  1  0
 28 50  1  0
 30 51  1  0
M  END
>  <smiles>  (36) 
O=C1CC(c2cccc(C(=O)N3CCCC3)c2)=Nc2ccc(-c3cc(Cl)ccn3)cc21

>  <score_type>  (36) 
oracle

>  <origin>  (36) 
autodockgpu

>  <m_score__min__energy>  (36) 
-9.0099999999999998

>  <m_primary>  (36) 
energy

>  <rmsd>  (36) 
6.2330331890653845

>  <m_score__min__rmsd>  (36) 
6.2330331890653845

>  <meeko>  (36) 
{"free_energy": -8.93, "intermolecular_energy": -9.83, "internal_energy": -0.72, "cluster_size": 34, "cluster_id": 1, "rank_in_cluster": 14}

>  <energy>  (36) 
-8.34

>  <cluster_rmsd>  (36) 
0.02

>  <cluster>  (36) 
2

$$$$

     RDKit          3D

 51 55  0  0  0  0  0  0  0  0999 V2000
  142.9150   74.4340  220.4710 O   0  0  0  0  0  0  0  0  0  0  0  0
  141.8360   74.1670  221.0520 C   0  0  0  0  0  0  0  0  0  0  0  0
  141.4880   72.7430  221.2240 C   0  0  0  0  0  0  0  0  0  0  0  0
  140.2000   72.6440  221.9400 C   0  0  0  0  0  0  0  0  0  0  0  0
  139.6970   71.2750  222.2000 C   0  0  0  0  0  0  0  0  0  0  0  0
  139.1870   70.4950  221.1650 C   0  0  0  0  0  0  0  0  0  0  0  0
  138.7220   69.2120  221.4230 C   0  0  0  0  0  0  0  0  0  0  0  0
  138.7490   68.6720  222.7100 C   0  0  0  0  0  0  0  0  0  0  0  0
  139.2530   69.4450  223.7270 C   0  0  0  0  0  0  0  0  0  0  0  0
  139.3480   69.0160  225.1140 C   0  0  0  0  0  0  0  0  0  0  0  0
  139.1210   67.7840  225.3310 O   0  0  0  0  0  0  0  0  0  0  0  0
  139.6690   69.8810  226.1840 N   0  0  0  0  0  0  0  0  0  0  0  0
  139.9580   71.3050  226.1980 C   0  0  0  0  0  0  0  0  0  0  0  0
  141.2080   71.3760  227.0420 C   0  0  0  0  0  0  0  0  0  0  0  0
  141.0640   70.2400  228.0040 C   0  0  0  0  0  0  0  0  0  0  0  0
  139.8000   69.4870  227.5840 C   0  0  0  0  0  0  0  0  0  0  0  0
  139.7140   70.7260  223.4510 C   0  0  0  0  0  0  0  0  0  0  0  0
  139.4860   73.6240  222.3440 N   0  0  0  0  0  0  0  0  0  0  0  0
  139.8470   74.9920  222.1530 C   0  0  0  0  0  0  0  0  0  0  0  0
  139.0800   76.0500  222.5720 C   0  0  0  0  0  0  0  0  0  0  0  0
  139.4930   77.3540  222.3400 C   0  0  0  0  0  0  0  0  0  0  0  0
  140.6700   77.6520  221.6920 C   0  0  0  0  0  0  0  0  0  0  0  0
  141.0380   79.0410  221.4650 C   0  0  0  0  0  0  0  0  0  0  0  0
  141.2550   79.5790  220.2160 C   0  0  0  0  0  0  0  0  0  0  0  0
  141.6020   80.9050  220.0430 C   0  0  0  0  0  0  0  0  0  0  0  0
  141.8810   81.5920  218.4450 Cl  0  0  0  0  0  0  0  0  0  0  0  0
  141.7430   81.7430  221.1390 C   0  0  0  0  0  0  0  0  0  0  0  0
  141.5200   81.1720  222.3730 C   0  0  0  0  0  0  0  0  0  0  0  0
  141.1800   79.8640  222.5220 N   0  0  0  0  0  0  0  0  0  0  0  0
  141.4430   76.5960  221.2700 C   0  0  0  0  0  0  0  0  0  0  0  0
  141.0240   75.2830  221.5040 C   0  0  0  0  0  0  0  0  0  0  0  0
  141.3992   72.2637  220.2379 H   0  0  0  0  0  0  0  0  0  0  0  0
  142.2741   72.2364  221.8031 H   0  0  0  0  0  0  0  0  0  0  0  0
  139.1524   70.8959  220.1412 H   0  0  0  0  0  0  0  0  0  0  0  0
  138.3235   68.6078  220.5947 H   0  0  0  0  0  0  0  0  0  0  0  0
  138.3768   67.6553  222.9042 H   0  0  0  0  0  0  0  0  0  0  0  0
  140.1424   71.6833  225.1817 H   0  0  0  0  0  0  0  0  0  0  0  0
  139.1307   71.9167  226.5870 H   0  0  0  0  0  0  0  0  0  0  0  0
  142.1066   71.2496  226.4203 H   0  0  0  0  0  0  0  0  0  0  0  0
  141.3209   72.3460  227.5483 H   0  0  0  0  0  0  0  0  0  0  0  0
  141.9401   69.5774  227.9464 H   0  0  0  0  0  0  0  0  0  0  0  0
  140.9927   70.5982  229.0416 H   0  0  0  0  0  0  0  0  0  0  0  0
  139.9301   68.3993  227.6835 H   0  0  0  0  0  0  0  0  0  0  0  0
  138.9174   69.7213  228.1972 H   0  0  0  0  0  0  0  0  0  0  0  0
  140.1125   71.3282  224.2808 H   0  0  0  0  0  0  0  0  0  0  0  0
  138.1309   75.8628  223.0956 H   0  0  0  0  0  0  0  0  0  0  0  0
  138.8558   78.1807  222.6870 H   0  0  0  0  0  0  0  0  0  0  0  0
  141.1490   78.9346  219.3309 H   0  0  0  0  0  0  0  0  0  0  0  0
  142.0171   82.8027  221.0295 H   0  0  0  0  0  0  0  0  0  0  0  0
  141.6209   81.7981  223.2718 H   0  0  0  0  0  0  0  0  0  0  0  0
  142.3924   76.7847  220.7475 H   0  0  0  0  0  0  0  0  0  0  0  0
  1  2  2  0
  2  3  1  0
  3  4  1  0
  4  5  1  0
  5  6  2  0
  6  7  1  0
  7  8  2  0
  8  9  1  0
  9 10  1  0
 10 11  2  0
 10 12  1  0
 12 13  1  0
 13 14  1  0
 14 15  1  0
 15 16  1  0
  9 17  2  0
  4 18  2  0
 18 19  1  0
 19 20  2  0
 20 21  1  0
 21 22  2  0
 22 23  1  0
 23 24  2  0
 24 25  1  0
 25 26  1  0
 25 27  2  0
 27 28  1  0
 28 29  2  0
 22 30  1  0
 30 31  2  0
 31  2  1  0
 17  5  1  0
 31 19  1  0
 16 12  1  0
 29 23  1  0
  3 32  1  0
  3 33  1  0
  6 34  1  0
  7 35  1  0
  8 36  1  0
 13 37  1  0
 13 38  1  0
 14 39  1  0
 14 40  1  0
 15 41  1  0
 15 42  1  0
 16 43  1  0
 16 44  1  0
 17 45  1  0
 20 46  1  0
 21 47  1  0
 24 48  1  0
 27 49  1  0
 28 50  1  0
 30 51  1  0
M  END
>  <smiles>  (37) 
O=C1CC(c2cccc(C(=O)N3CCCC3)c2)=Nc2ccc(-c3cc(Cl)ccn3)cc21

>  <score_type>  (37) 
oracle

>  <origin>  (37) 
autodockgpu

>  <m_score__min__energy>  (37) 
-9.0099999999999998

>  <m_primary>  (37) 
energy

>  <rmsd>  (37) 
6.1033360814061

>  <m_score__min__rmsd>  (37) 
6.1033360814061

>  <meeko>  (37) 
{"free_energy": -8.99, "intermolecular_energy": -9.88, "internal_energy": -0.75, "cluster_size": 34, "cluster_id": 1, "rank_in_cluster": 4}

>  <energy>  (37) 
-8.34

>  <cluster_rmsd>  (37) 
0.03

>  <cluster>  (37) 
2

$$$$

     RDKit          3D

 51 55  0  0  0  0  0  0  0  0999 V2000
  143.6700   72.5020  220.9000 O   0  0  0  0  0  0  0  0  0  0  0  0
  142.7810   73.3840  220.8230 C   0  0  0  0  0  0  0  0  0  0  0  0
  143.1160   74.6310  220.1080 C   0  0  0  0  0  0  0  0  0  0  0  0
  141.9390   75.5230  220.1170 C   0  0  0  0  0  0  0  0  0  0  0  0
  142.1010   76.8290  219.4360 C   0  0  0  0  0  0  0  0  0  0  0  0
  142.4500   76.8920  218.0890 C   0  0  0  0  0  0  0  0  0  0  0  0
  142.5960   78.1230  217.4620 C   0  0  0  0  0  0  0  0  0  0  0  0
  142.4000   79.3200  218.1540 C   0  0  0  0  0  0  0  0  0  0  0  0
  142.0560   79.2520  219.4810 C   0  0  0  0  0  0  0  0  0  0  0  0
  141.8170   80.4120  220.3270 C   0  0  0  0  0  0  0  0  0  0  0  0
  141.3530   81.4410  219.7410 O   0  0  0  0  0  0  0  0  0  0  0  0
  142.0710   80.4380  221.7170 N   0  0  0  0  0  0  0  0  0  0  0  0
  142.5990   79.4140  222.6030 C   0  0  0  0  0  0  0  0  0  0  0  0
  141.6320   79.4560  223.7620 C   0  0  0  0  0  0  0  0  0  0  0  0
  141.1900   80.8830  223.8160 C   0  0  0  0  0  0  0  0  0  0  0  0
  141.8220   81.5700  222.6050 C   0  0  0  0  0  0  0  0  0  0  0  0
  141.9140   78.0120  220.0920 C   0  0  0  0  0  0  0  0  0  0  0  0
  140.8090   75.2740  220.6590 N   0  0  0  0  0  0  0  0  0  0  0  0
  140.5200   74.0600  221.3530 C   0  0  0  0  0  0  0  0  0  0  0  0
  139.3140   73.7900  221.9490 C   0  0  0  0  0  0  0  0  0  0  0  0
  139.1120   72.5910  222.6160 C   0  0  0  0  0  0  0  0  0  0  0  0
  140.0880   71.6250  222.7120 C   0  0  0  0  0  0  0  0  0  0  0  0
  139.8180   70.3950  223.4400 C   0  0  0  0  0  0  0  0  0  0  0  0
  140.2270   70.1680  224.7350 C   0  0  0  0  0  0  0  0  0  0  0  0
  139.9480   68.9850  225.3920 C   0  0  0  0  0  0  0  0  0  0  0  0
  140.4720   68.6950  227.0490 Cl  0  0  0  0  0  0  0  0  0  0  0  0
  139.2380   67.9780  224.7560 C   0  0  0  0  0  0  0  0  0  0  0  0
  138.8450   68.2380  223.4590 C   0  0  0  0  0  0  0  0  0  0  0  0
  139.1300   69.4090  222.8310 N   0  0  0  0  0  0  0  0  0  0  0  0
  141.2990   71.8900  222.1170 C   0  0  0  0  0  0  0  0  0  0  0  0
  141.5000   73.1000  221.4460 C   0  0  0  0  0  0  0  0  0  0  0  0
  143.9592   75.1283  220.6097 H   0  0  0  0  0  0  0  0  0  0  0  0
  143.3982   74.3994  219.0703 H   0  0  0  0  0  0  0  0  0  0  0  0
  142.6105   75.9643  217.5201 H   0  0  0  0  0  0  0  0  0  0  0  0
  142.8719   78.1556  216.3977 H   0  0  0  0  0  0  0  0  0  0  0  0
  142.5180   80.2904  217.6496 H   0  0  0  0  0  0  0  0  0  0  0  0
  142.5949   78.4271  222.1172 H   0  0  0  0  0  0  0  0  0  0  0  0
  143.6449   79.5851  222.8975 H   0  0  0  0  0  0  0  0  0  0  0  0
  140.7764   78.7887  223.5812 H   0  0  0  0  0  0  0  0  0  0  0  0
  142.0878   79.1191  224.7047 H   0  0  0  0  0  0  0  0  0  0  0  0
  140.0932   80.9451  223.7605 H   0  0  0  0  0  0  0  0  0  0  0  0
  141.4984   81.3634  224.7563 H   0  0  0  0  0  0  0  0  0  0  0  0
  141.1302   82.2930  222.1482 H   0  0  0  0  0  0  0  0  0  0  0  0
  142.7220   82.1557  222.8439 H   0  0  0  0  0  0  0  0  0  0  0  0
  141.6374   77.9819  221.1562 H   0  0  0  0  0  0  0  0  0  0  0  0
  138.5016   74.5298  221.8974 H   0  0  0  0  0  0  0  0  0  0  0  0
  138.1351   72.4049  223.0860 H   0  0  0  0  0  0  0  0  0  0  0  0
  140.7922   70.9511  225.2617 H   0  0  0  0  0  0  0  0  0  0  0  0
  139.0018   67.0272  225.2562 H   0  0  0  0  0  0  0  0  0  0  0  0
  138.2797   67.4684  222.9129 H   0  0  0  0  0  0  0  0  0  0  0  0
  142.1105   71.1492  222.1690 H   0  0  0  0  0  0  0  0  0  0  0  0
  1  2  2  0
  2  3  1  0
  3  4  1  0
  4  5  1  0
  5  6  2  0
  6  7  1  0
  7  8  2  0
  8  9  1  0
  9 10  1  0
 10 11  2  0
 10 12  1  0
 12 13  1  0
 13 14  1  0
 14 15  1  0
 15 16  1  0
  9 17  2  0
  4 18  2  0
 18 19  1  0
 19 20  2  0
 20 21  1  0
 21 22  2  0
 22 23  1  0
 23 24  2  0
 24 25  1  0
 25 26  1  0
 25 27  2  0
 27 28  1  0
 28 29  2  0
 22 30  1  0
 30 31  2  0
 31  2  1  0
 17  5  1  0
 31 19  1  0
 16 12  1  0
 29 23  1  0
  3 32  1  0
  3 33  1  0
  6 34  1  0
  7 35  1  0
  8 36  1  0
 13 37  1  0
 13 38  1  0
 14 39  1  0
 14 40  1  0
 15 41  1  0
 15 42  1  0
 16 43  1  0
 16 44  1  0
 17 45  1  0
 20 46  1  0
 21 47  1  0
 24 48  1  0
 27 49  1  0
 28 50  1  0
 30 51  1  0
M  END
>  <smiles>  (38) 
O=C1CC(c2cccc(C(=O)N3CCCC3)c2)=Nc2ccc(-c3cc(Cl)ccn3)cc21

>  <score_type>  (38) 
oracle

>  <origin>  (38) 
autodockgpu

>  <m_score__min__energy>  (38) 
-9.0099999999999998

>  <m_primary>  (38) 
energy

>  <rmsd>  (38) 
8.353806116044234

>  <m_score__min__rmsd>  (38) 
8.353806116044234

>  <meeko>  (38) 
{"free_energy": -8.27, "intermolecular_energy": -9.17, "internal_energy": -0.92, "cluster_size": 7, "cluster_id": 3, "rank_in_cluster": 6}

>  <energy>  (38) 
-8.34

>  <cluster_rmsd>  (38) 
0.22

>  <cluster>  (38) 
2

$$$$

     RDKit          3D

 51 55  0  0  0  0  0  0  0  0999 V2000
  141.6910   81.2360  224.0720 O   0  0  0  0  0  0  0  0  0  0  0  0
  141.0840   80.4210  223.3360 C   0  0  0  0  0  0  0  0  0  0  0  0
  141.8850   79.6520  222.3640 C   0  0  0  0  0  0  0  0  0  0  0  0
  140.9940   78.7460  221.6120 C   0  0  0  0  0  0  0  0  0  0  0  0
  141.6380   77.8920  220.5880 C   0  0  0  0  0  0  0  0  0  0  0  0
  142.0890   78.4360  219.3870 C   0  0  0  0  0  0  0  0  0  0  0  0
  142.6930   77.6250  218.4360 C   0  0  0  0  0  0  0  0  0  0  0  0
  142.8650   76.2550  218.6510 C   0  0  0  0  0  0  0  0  0  0  0  0
  142.4190   75.7240  219.8350 C   0  0  0  0  0  0  0  0  0  0  0  0
  142.5330   74.3190  220.1980 C   0  0  0  0  0  0  0  0  0  0  0  0
  141.4430   73.6650  220.2340 O   0  0  0  0  0  0  0  0  0  0  0  0
  143.7580   73.6820  220.5000 N   0  0  0  0  0  0  0  0  0  0  0  0
  145.1130   74.2030  220.5380 C   0  0  0  0  0  0  0  0  0  0  0  0
  145.8830   73.1660  219.7540 C   0  0  0  0  0  0  0  0  0  0  0  0
  145.1520   71.8900  220.0230 C   0  0  0  0  0  0  0  0  0  0  0  0
  143.9190   72.2720  220.8430 C   0  0  0  0  0  0  0  0  0  0  0  0
  141.8170   76.5510  220.7750 C   0  0  0  0  0  0  0  0  0  0  0  0
  139.7290   78.6400  221.7620 N   0  0  0  0  0  0  0  0  0  0  0  0
  138.9810   79.4060  222.7060 C   0  0  0  0  0  0  0  0  0  0  0  0
  137.6220   79.3080  222.8640 C   0  0  0  0  0  0  0  0  0  0  0  0
  136.9630   80.0960  223.7960 C   0  0  0  0  0  0  0  0  0  0  0  0
  137.6230   81.0000  224.5980 C   0  0  0  0  0  0  0  0  0  0  0  0
  136.8710   81.8090  225.5460 C   0  0  0  0  0  0  0  0  0  0  0  0
  136.5580   81.3950  226.8220 C   0  0  0  0  0  0  0  0  0  0  0  0
  135.8430   82.1960  227.6920 C   0  0  0  0  0  0  0  0  0  0  0  0
  135.4410   81.6660  229.3240 Cl  0  0  0  0  0  0  0  0  0  0  0  0
  135.4170   83.4560  227.3010 C   0  0  0  0  0  0  0  0  0  0  0  0
  135.7480   83.8370  226.0170 C   0  0  0  0  0  0  0  0  0  0  0  0
  136.4500   83.0340  225.1750 N   0  0  0  0  0  0  0  0  0  0  0  0
  138.9860   81.1030  224.4450 C   0  0  0  0  0  0  0  0  0  0  0  0
  139.6470   80.3080  223.5040 C   0  0  0  0  0  0  0  0  0  0  0  0
  142.3808   80.3433  221.6667 H   0  0  0  0  0  0  0  0  0  0  0  0
  142.6478   79.0641  222.8955 H   0  0  0  0  0  0  0  0  0  0  0  0
  141.9660   79.5115  219.1919 H   0  0  0  0  0  0  0  0  0  0  0  0
  143.0436   78.0702  217.4932 H   0  0  0  0  0  0  0  0  0  0  0  0
  143.3448   75.6197  217.8919 H   0  0  0  0  0  0  0  0  0  0  0  0
  145.1730   75.1905  220.0572 H   0  0  0  0  0  0  0  0  0  0  0  0
  145.4960   74.3560  221.5577 H   0  0  0  0  0  0  0  0  0  0  0  0
  145.8741   73.4023  218.6797 H   0  0  0  0  0  0  0  0  0  0  0  0
  146.9423   73.1159  220.0463 H   0  0  0  0  0  0  0  0  0  0  0  0
  144.8497   71.4166  219.0772 H   0  0  0  0  0  0  0  0  0  0  0  0
  145.7855   71.1700  220.5617 H   0  0  0  0  0  0  0  0  0  0  0  0
  143.0397   71.6836  220.5421 H   0  0  0  0  0  0  0  0  0  0  0  0
  144.0258   72.0851  221.9217 H   0  0  0  0  0  0  0  0  0  0  0  0
  141.4670   76.1034  221.7169 H   0  0  0  0  0  0  0  0  0  0  0  0
  137.0504   78.5991  222.2469 H   0  0  0  0  0  0  0  0  0  0  0  0
  135.8724   79.9950  223.8983 H   0  0  0  0  0  0  0  0  0  0  0  0
  136.8860   80.4001  227.1575 H   0  0  0  0  0  0  0  0  0  0  0  0
  134.8484   84.1135  227.9751 H   0  0  0  0  0  0  0  0  0  0  0  0
  135.4316   84.8286  225.6613 H   0  0  0  0  0  0  0  0  0  0  0  0
  139.5564   81.8115  225.0636 H   0  0  0  0  0  0  0  0  0  0  0  0
  1  2  2  0
  2  3  1  0
  3  4  1  0
  4  5  1  0
  5  6  2  0
  6  7  1  0
  7  8  2  0
  8  9  1  0
  9 10  1  0
 10 11  2  0
 10 12  1  0
 12 13  1  0
 13 14  1  0
 14 15  1  0
 15 16  1  0
  9 17  2  0
  4 18  2  0
 18 19  1  0
 19 20  2  0
 20 21  1  0
 21 22  2  0
 22 23  1  0
 23 24  2  0
 24 25  1  0
 25 26  1  0
 25 27  2  0
 27 28  1  0
 28 29  2  0
 22 30  1  0
 30 31  2  0
 31  2  1  0
 17  5  1  0
 31 19  1  0
 16 12  1  0
 29 23  1  0
  3 32  1  0
  3 33  1  0
  6 34  1  0
  7 35  1  0
  8 36  1  0
 13 37  1  0
 13 38  1  0
 14 39  1  0
 14 40  1  0
 15 41  1  0
 15 42  1  0
 16 43  1  0
 16 44  1  0
 17 45  1  0
 20 46  1  0
 21 47  1  0
 24 48  1  0
 27 49  1  0
 28 50  1  0
 30 51  1  0
M  END
>  <smiles>  (39) 
O=C1CC(c2cccc(C(=O)N3CCCC3)c2)=Nc2ccc(-c3cc(Cl)ccn3)cc21

>  <score_type>  (39) 
oracle

>  <origin>  (39) 
autodockgpu

>  <m_score__min__energy>  (39) 
-9.0099999999999998

>  <m_primary>  (39) 
energy

>  <rmsd>  (39) 
9.151785168290804

>  <m_score__min__rmsd>  (39) 
9.151785168290804

>  <meeko>  (39) 
{"free_energy": -8.32, "intermolecular_energy": -9.21, "internal_energy": -0.97, "cluster_size": 8, "cluster_id": 2, "rank_in_cluster": 6}

>  <energy>  (39) 
-8.33

>  <cluster_rmsd>  (39) 
0.23

>  <cluster>  (39) 
2

$$$$

     RDKit          3D

 51 55  0  0  0  0  0  0  0  0999 V2000
  142.9100   74.6880  220.2830 O   0  0  0  0  0  0  0  0  0  0  0  0
  141.8770   74.3750  220.9220 C   0  0  0  0  0  0  0  0  0  0  0  0
  141.5710   72.9380  221.0640 C   0  0  0  0  0  0  0  0  0  0  0  0
  140.3340   72.7840  221.8560 C   0  0  0  0  0  0  0  0  0  0  0  0
  139.8780   71.3950  222.0980 C   0  0  0  0  0  0  0  0  0  0  0  0
  139.4740   70.5830  221.0400 C   0  0  0  0  0  0  0  0  0  0  0  0
  139.0520   69.2820  221.2800 C   0  0  0  0  0  0  0  0  0  0  0  0
  139.0190   68.7550  222.5730 C   0  0  0  0  0  0  0  0  0  0  0  0
  139.4190   69.5590  223.6120 C   0  0  0  0  0  0  0  0  0  0  0  0
  139.4410   69.1450  225.0070 C   0  0  0  0  0  0  0  0  0  0  0  0
  139.1720   67.9220  225.2280 O   0  0  0  0  0  0  0  0  0  0  0  0
  139.7380   70.0160  226.0800 N   0  0  0  0  0  0  0  0  0  0  0  0
  140.0630   71.4320  226.0900 C   0  0  0  0  0  0  0  0  0  0  0  0
  141.2760   71.4820  226.9870 C   0  0  0  0  0  0  0  0  0  0  0  0
  141.0600   70.3620  227.9550 C   0  0  0  0  0  0  0  0  0  0  0  0
  139.7960   69.6370  227.4890 C   0  0  0  0  0  0  0  0  0  0  0  0
  139.8380   70.8570  223.3530 C   0  0  0  0  0  0  0  0  0  0  0  0
  139.6260   73.7320  222.3390 N   0  0  0  0  0  0  0  0  0  0  0  0
  139.9450   75.1140  222.1760 C   0  0  0  0  0  0  0  0  0  0  0  0
  139.1830   76.1380  222.6810 C   0  0  0  0  0  0  0  0  0  0  0  0
  139.5530   77.4590  222.4700 C   0  0  0  0  0  0  0  0  0  0  0  0
  140.6790   77.8070  221.7600 C   0  0  0  0  0  0  0  0  0  0  0  0
  141.0030   79.2110  221.5610 C   0  0  0  0  0  0  0  0  0  0  0  0
  141.2250   79.7750  220.3240 C   0  0  0  0  0  0  0  0  0  0  0  0
  141.5280   81.1160  220.1780 C   0  0  0  0  0  0  0  0  0  0  0  0
  141.8140   81.8360  218.5960 Cl  0  0  0  0  0  0  0  0  0  0  0  0
  141.6170   81.9420  221.2880 C   0  0  0  0  0  0  0  0  0  0  0  0
  141.3890   81.3440  222.5100 C   0  0  0  0  0  0  0  0  0  0  0  0
  141.0930   80.0230  222.6330 N   0  0  0  0  0  0  0  0  0  0  0  0
  141.4470   76.7850  221.2520 C   0  0  0  0  0  0  0  0  0  0  0  0
  141.0720   75.4550  221.4650 C   0  0  0  0  0  0  0  0  0  0  0  0
  141.4293   72.4913  220.0688 H   0  0  0  0  0  0  0  0  0  0  0  0
  142.4032   72.4302  221.5734 H   0  0  0  0  0  0  0  0  0  0  0  0
  139.4894   70.9737  220.0118 H   0  0  0  0  0  0  0  0  0  0  0  0
  138.7371   68.6533  220.4341 H   0  0  0  0  0  0  0  0  0  0  0  0
  138.6817   67.7238  222.7542 H   0  0  0  0  0  0  0  0  0  0  0  0
  140.3014   71.7924  225.0784 H   0  0  0  0  0  0  0  0  0  0  0  0
  139.2357   72.0695  226.4350 H   0  0  0  0  0  0  0  0  0  0  0  0
  142.1974   71.3247  226.4070 H   0  0  0  0  0  0  0  0  0  0  0  0
  141.3922   72.4552  227.4863 H   0  0  0  0  0  0  0  0  0  0  0  0
  141.9199   69.6761  227.9434 H   0  0  0  0  0  0  0  0  0  0  0  0
  140.9532   70.7351  228.9843 H   0  0  0  0  0  0  0  0  0  0  0  0
  139.8922   68.5476  227.6073 H   0  0  0  0  0  0  0  0  0  0  0  0
  138.8938   69.9022  228.0596 H   0  0  0  0  0  0  0  0  0  0  0  0
  140.1534   71.4833  224.2005 H   0  0  0  0  0  0  0  0  0  0  0  0
  138.2736   75.9103  223.2564 H   0  0  0  0  0  0  0  0  0  0  0  0
  138.9220   78.2581  222.8863 H   0  0  0  0  0  0  0  0  0  0  0  0
  141.1594   79.1409  219.4276 H   0  0  0  0  0  0  0  0  0  0  0  0
  141.8556   83.0121  221.1993 H   0  0  0  0  0  0  0  0  0  0  0  0
  141.4490   81.9596  223.4196 H   0  0  0  0  0  0  0  0  0  0  0  0
  142.3568   77.0143  220.6778 H   0  0  0  0  0  0  0  0  0  0  0  0
  1  2  2  0
  2  3  1  0
  3  4  1  0
  4  5  1  0
  5  6  2  0
  6  7  1  0
  7  8  2  0
  8  9  1  0
  9 10  1  0
 10 11  2  0
 10 12  1  0
 12 13  1  0
 13 14  1  0
 14 15  1  0
 15 16  1  0
  9 17  2  0
  4 18  2  0
 18 19  1  0
 19 20  2  0
 20 21  1  0
 21 22  2  0
 22 23  1  0
 23 24  2  0
 24 25  1  0
 25 26  1  0
 25 27  2  0
 27 28  1  0
 28 29  2  0
 22 30  1  0
 30 31  2  0
 31  2  1  0
 17  5  1  0
 31 19  1  0
 16 12  1  0
 29 23  1  0
  3 32  1  0
  3 33  1  0
  6 34  1  0
  7 35  1  0
  8 36  1  0
 13 37  1  0
 13 38  1  0
 14 39  1  0
 14 40  1  0
 15 41  1  0
 15 42  1  0
 16 43  1  0
 16 44  1  0
 17 45  1  0
 20 46  1  0
 21 47  1  0
 24 48  1  0
 27 49  1  0
 28 50  1  0
 30 51  1  0
M  END
>  <smiles>  (40) 
O=C1CC(c2cccc(C(=O)N3CCCC3)c2)=Nc2ccc(-c3cc(Cl)ccn3)cc21

>  <score_type>  (40) 
oracle

>  <origin>  (40) 
autodockgpu

>  <m_score__min__energy>  (40) 
-9.0099999999999998

>  <m_primary>  (40) 
energy

>  <rmsd>  (40) 
6.17128909780313

>  <m_score__min__rmsd>  (40) 
6.17128909780313

>  <meeko>  (40) 
{"free_energy": -8.96, "intermolecular_energy": -9.85, "internal_energy": -0.73, "cluster_size": 34, "cluster_id": 1, "rank_in_cluster": 10}

>  <energy>  (40) 
-8.32

>  <cluster_rmsd>  (40) 
0.21

>  <cluster>  (40) 
2

$$$$

     RDKit          3D

 51 55  0  0  0  0  0  0  0  0999 V2000
  142.2310   72.3230  221.2640 O   0  0  0  0  0  0  0  0  0  0  0  0
  142.7060   73.1440  220.4430 C   0  0  0  0  0  0  0  0  0  0  0  0
  142.2070   74.5320  220.4990 C   0  0  0  0  0  0  0  0  0  0  0  0
  142.8970   75.3350  219.4710 C   0  0  0  0  0  0  0  0  0  0  0  0
  142.5150   76.7640  219.3880 C   0  0  0  0  0  0  0  0  0  0  0  0
  142.4430   77.4120  218.1570 C   0  0  0  0  0  0  0  0  0  0  0  0
  142.0800   78.7510  218.0930 C   0  0  0  0  0  0  0  0  0  0  0  0
  141.7810   79.4800  219.2460 C   0  0  0  0  0  0  0  0  0  0  0  0
  141.8540   78.8370  220.4570 C   0  0  0  0  0  0  0  0  0  0  0  0
  141.5680   79.4650  221.7380 C   0  0  0  0  0  0  0  0  0  0  0  0
  142.3730   80.3810  222.0990 O   0  0  0  0  0  0  0  0  0  0  0  0
  140.4750   79.1120  222.5610 N   0  0  0  0  0  0  0  0  0  0  0  0
  139.4370   78.1110  222.3790 C   0  0  0  0  0  0  0  0  0  0  0  0
  138.1800   78.8840  222.7030 C   0  0  0  0  0  0  0  0  0  0  0  0
  138.6210   79.8870  223.7200 C   0  0  0  0  0  0  0  0  0  0  0  0
  140.1380   79.7330  223.8380 C   0  0  0  0  0  0  0  0  0  0  0  0
  142.2180   77.4970  220.5010 C   0  0  0  0  0  0  0  0  0  0  0  0
  143.7810   74.9100  218.6500 N   0  0  0  0  0  0  0  0  0  0  0  0
  144.2360   73.5570  218.6160 C   0  0  0  0  0  0  0  0  0  0  0  0
  145.1740   73.0900  217.7300 C   0  0  0  0  0  0  0  0  0  0  0  0
  145.5570   71.7570  217.7500 C   0  0  0  0  0  0  0  0  0  0  0  0
  145.0310   70.8500  218.6420 C   0  0  0  0  0  0  0  0  0  0  0  0
  145.4630   69.4610  218.6010 C   0  0  0  0  0  0  0  0  0  0  0  0
  145.8560   68.8180  217.4480 C   0  0  0  0  0  0  0  0  0  0  0  0
  146.2630   67.4970  217.4530 C   0  0  0  0  0  0  0  0  0  0  0  0
  146.7630   66.6730  215.9780 Cl  0  0  0  0  0  0  0  0  0  0  0  0
  146.2880   66.7730  218.6350 C   0  0  0  0  0  0  0  0  0  0  0  0
  145.8880   67.4480  219.7700 C   0  0  0  0  0  0  0  0  0  0  0  0
  145.4900   68.7470  219.7440 N   0  0  0  0  0  0  0  0  0  0  0  0
  144.0900   71.3120  219.5320 C   0  0  0  0  0  0  0  0  0  0  0  0
  143.7050   72.6560  219.5090 C   0  0  0  0  0  0  0  0  0  0  0  0
  141.1237   74.5419  220.3084 H   0  0  0  0  0  0  0  0  0  0  0  0
  142.4035   74.9566  221.4945 H   0  0  0  0  0  0  0  0  0  0  0  0
  142.6743   76.8616  217.2331 H   0  0  0  0  0  0  0  0  0  0  0  0
  142.0269   79.2480  217.1131 H   0  0  0  0  0  0  0  0  0  0  0  0
  141.4948   80.5404  219.1857 H   0  0  0  0  0  0  0  0  0  0  0  0
  139.4198   77.7393  221.3439 H   0  0  0  0  0  0  0  0  0  0  0  0
  139.5755   77.2159  223.0032 H   0  0  0  0  0  0  0  0  0  0  0  0
  137.7871   79.3845  221.8057 H   0  0  0  0  0  0  0  0  0  0  0  0
  137.3698   78.2375  223.0712 H   0  0  0  0  0  0  0  0  0  0  0  0
  138.3652   80.9043  223.3887 H   0  0  0  0  0  0  0  0  0  0  0  0
  138.1241   79.7231  224.6876 H   0  0  0  0  0  0  0  0  0  0  0  0
  140.6321   80.7092  223.9514 H   0  0  0  0  0  0  0  0  0  0  0  0
  140.4600   79.1520  224.7148 H   0  0  0  0  0  0  0  0  0  0  0  0
  142.2695   77.0016  221.4818 H   0  0  0  0  0  0  0  0  0  0  0  0
  145.6251   73.7772  216.9991 H   0  0  0  0  0  0  0  0  0  0  0  0
  146.3095   71.4116  217.0258 H   0  0  0  0  0  0  0  0  0  0  0  0
  145.8457   69.3709  216.4971 H   0  0  0  0  0  0  0  0  0  0  0  0
  146.6082   65.7211  218.6662 H   0  0  0  0  0  0  0  0  0  0  0  0
  145.8914   66.9145  220.7320 H   0  0  0  0  0  0  0  0  0  0  0  0
  143.6398   70.6237  220.2625 H   0  0  0  0  0  0  0  0  0  0  0  0
  1  2  2  0
  2  3  1  0
  3  4  1  0
  4  5  1  0
  5  6  2  0
  6  7  1  0
  7  8  2  0
  8  9  1  0
  9 10  1  0
 10 11  2  0
 10 12  1  0
 12 13  1  0
 13 14  1  0
 14 15  1  0
 15 16  1  0
  9 17  2  0
  4 18  2  0
 18 19  1  0
 19 20  2  0
 20 21  1  0
 21 22  2  0
 22 23  1  0
 23 24  2  0
 24 25  1  0
 25 26  1  0
 25 27  2  0
 27 28  1  0
 28 29  2  0
 22 30  1  0
 30 31  2  0
 31  2  1  0
 17  5  1  0
 31 19  1  0
 16 12  1  0
 29 23  1  0
  3 32  1  0
  3 33  1  0
  6 34  1  0
  7 35  1  0
  8 36  1  0
 13 37  1  0
 13 38  1  0
 14 39  1  0
 14 40  1  0
 15 41  1  0
 15 42  1  0
 16 43  1  0
 16 44  1  0
 17 45  1  0
 20 46  1  0
 21 47  1  0
 24 48  1  0
 27 49  1  0
 28 50  1  0
 30 51  1  0
M  END
>  <smiles>  (41) 
O=C1CC(c2cccc(C(=O)N3CCCC3)c2)=Nc2ccc(-c3cc(Cl)ccn3)cc21

>  <score_type>  (41) 
oracle

>  <origin>  (41) 
autodockgpu

>  <m_score__min__energy>  (41) 
-9.0099999999999998

>  <m_primary>  (41) 
energy

>  <rmsd>  (41) 
8.122734236335138

>  <m_score__min__rmsd>  (41) 
8.122734236335138

>  <meeko>  (41) 
{"free_energy": -7.85, "intermolecular_energy": -8.75, "internal_energy": -1.02, "cluster_size": 1, "cluster_id": 4, "rank_in_cluster": 1}

>  <energy>  (41) 
-8.3

>  <cluster_rmsd>  (41) 
0.27

>  <cluster>  (41) 
2

$$$$

     RDKit          3D

 51 55  0  0  0  0  0  0  0  0999 V2000
  141.6960   81.3330  223.9400 O   0  0  0  0  0  0  0  0  0  0  0  0
  141.0960   80.4770  223.2470 C   0  0  0  0  0  0  0  0  0  0  0  0
  141.8930   79.7050  222.2740 C   0  0  0  0  0  0  0  0  0  0  0  0
  141.0100   78.7480  221.5770 C   0  0  0  0  0  0  0  0  0  0  0  0
  141.6520   77.8860  220.5580 C   0  0  0  0  0  0  0  0  0  0  0  0
  142.1060   78.4210  219.3550 C   0  0  0  0  0  0  0  0  0  0  0  0
  142.7090   77.6010  218.4090 C   0  0  0  0  0  0  0  0  0  0  0  0
  142.8740   76.2320  218.6320 C   0  0  0  0  0  0  0  0  0  0  0  0
  142.4250   75.7100  219.8190 C   0  0  0  0  0  0  0  0  0  0  0  0
  142.5310   74.3070  220.1900 C   0  0  0  0  0  0  0  0  0  0  0  0
  141.4380   73.6590  220.2350 O   0  0  0  0  0  0  0  0  0  0  0  0
  143.7540   73.6640  220.4900 N   0  0  0  0  0  0  0  0  0  0  0  0
  145.1130   74.1770  220.5180 C   0  0  0  0  0  0  0  0  0  0  0  0
  145.8720   73.1310  219.7370 C   0  0  0  0  0  0  0  0  0  0  0  0
  145.1350   71.8610  220.0170 C   0  0  0  0  0  0  0  0  0  0  0  0
  143.9080   72.2550  220.8410 C   0  0  0  0  0  0  0  0  0  0  0  0
  141.8250   76.5450  220.7530 C   0  0  0  0  0  0  0  0  0  0  0  0
  139.7550   78.6060  221.7690 N   0  0  0  0  0  0  0  0  0  0  0  0
  139.0100   79.3750  222.7120 C   0  0  0  0  0  0  0  0  0  0  0  0
  137.6600   79.2370  222.9150 C   0  0  0  0  0  0  0  0  0  0  0  0
  137.0030   80.0310  223.8440 C   0  0  0  0  0  0  0  0  0  0  0  0
  137.6560   80.9790  224.5990 C   0  0  0  0  0  0  0  0  0  0  0  0
  136.9070   81.7910  225.5450 C   0  0  0  0  0  0  0  0  0  0  0  0
  136.5730   81.3720  226.8140 C   0  0  0  0  0  0  0  0  0  0  0  0
  135.8610   82.1750  227.6840 C   0  0  0  0  0  0  0  0  0  0  0  0
  135.4320   81.6370  229.3060 Cl  0  0  0  0  0  0  0  0  0  0  0  0
  135.4580   83.4450  227.2990 C   0  0  0  0  0  0  0  0  0  0  0  0
  135.8090   83.8320  226.0220 C   0  0  0  0  0  0  0  0  0  0  0  0
  136.5080   83.0260  225.1810 N   0  0  0  0  0  0  0  0  0  0  0  0
  139.0090   81.1220  224.4010 C   0  0  0  0  0  0  0  0  0  0  0  0
  139.6680   80.3220  223.4630 C   0  0  0  0  0  0  0  0  0  0  0  0
  142.3446   80.3902  221.5415 H   0  0  0  0  0  0  0  0  0  0  0  0
  142.6907   79.1588  222.7987 H   0  0  0  0  0  0  0  0  0  0  0  0
  141.9869   79.4957  219.1531 H   0  0  0  0  0  0  0  0  0  0  0  0
  143.0639   78.0392  217.4645 H   0  0  0  0  0  0  0  0  0  0  0  0
  143.3508   75.5899  217.8768 H   0  0  0  0  0  0  0  0  0  0  0  0
  145.1767   75.1612  220.0308 H   0  0  0  0  0  0  0  0  0  0  0  0
  145.5022   74.3339  221.5348 H   0  0  0  0  0  0  0  0  0  0  0  0
  145.8591   73.3610  218.6614 H   0  0  0  0  0  0  0  0  0  0  0  0
  146.9323   73.0761  220.0246 H   0  0  0  0  0  0  0  0  0  0  0  0
  144.8253   71.3839  219.0755 H   0  0  0  0  0  0  0  0  0  0  0  0
  145.7670   71.1405  220.5568 H   0  0  0  0  0  0  0  0  0  0  0  0
  143.0238   71.6700  220.5479 H   0  0  0  0  0  0  0  0  0  0  0  0
  144.0186   72.0738  221.9203 H   0  0  0  0  0  0  0  0  0  0  0  0
  141.4715   76.1044  221.6969 H   0  0  0  0  0  0  0  0  0  0  0  0
  137.0944   78.4914  222.3369 H   0  0  0  0  0  0  0  0  0  0  0  0
  135.9199   79.8980  223.9824 H   0  0  0  0  0  0  0  0  0  0  0  0
  136.8821   80.3693  227.1441 H   0  0  0  0  0  0  0  0  0  0  0  0
  134.8916   84.1051  227.9724 H   0  0  0  0  0  0  0  0  0  0  0  0
  135.5115   84.8313  225.6715 H   0  0  0  0  0  0  0  0  0  0  0  0
  139.5735   81.8667  224.9813 H   0  0  0  0  0  0  0  0  0  0  0  0
  1  2  2  0
  2  3  1  0
  3  4  1  0
  4  5  1  0
  5  6  2  0
  6  7  1  0
  7  8  2  0
  8  9  1  0
  9 10  1  0
 10 11  2  0
 10 12  1  0
 12 13  1  0
 13 14  1  0
 14 15  1  0
 15 16  1  0
  9 17  2  0
  4 18  2  0
 18 19  1  0
 19 20  2  0
 20 21  1  0
 21 22  2  0
 22 23  1  0
 23 24  2  0
 24 25  1  0
 25 26  1  0
 25 27  2  0
 27 28  1  0
 28 29  2  0
 22 30  1  0
 30 31  2  0
 31  2  1  0
 17  5  1  0
 31 19  1  0
 16 12  1  0
 29 23  1  0
  3 32  1  0
  3 33  1  0
  6 34  1  0
  7 35  1  0
  8 36  1  0
 13 37  1  0
 13 38  1  0
 14 39  1  0
 14 40  1  0
 15 41  1  0
 15 42  1  0
 16 43  1  0
 16 44  1  0
 17 45  1  0
 20 46  1  0
 21 47  1  0
 24 48  1  0
 27 49  1  0
 28 50  1  0
 30 51  1  0
M  END
>  <smiles>  (42) 
O=C1CC(c2cccc(C(=O)N3CCCC3)c2)=Nc2ccc(-c3cc(Cl)ccn3)cc21

>  <score_type>  (42) 
oracle

>  <origin>  (42) 
autodockgpu

>  <m_score__min__energy>  (42) 
-9.0099999999999998

>  <m_primary>  (42) 
energy

>  <rmsd>  (42) 
9.176640025540587

>  <m_score__min__rmsd>  (42) 
9.176640025540587

>  <meeko>  (42) 
{"free_energy": -8.33, "intermolecular_energy": -9.22, "internal_energy": -0.97, "cluster_size": 8, "cluster_id": 2, "rank_in_cluster": 5}

>  <energy>  (42) 
-7.96

>  <cluster_rmsd>  (42) 
1.44

>  <cluster>  (42) 
2

$$$$

     RDKit          3D

 51 55  0  0  0  0  0  0  0  0999 V2000
  142.5630   75.3200  219.1450 O   0  0  0  0  0  0  0  0  0  0  0  0
  141.8100   75.1660  220.1350 C   0  0  0  0  0  0  0  0  0  0  0  0
  141.5830   73.7880  220.6130 C   0  0  0  0  0  0  0  0  0  0  0  0
  140.6880   73.8250  221.7870 C   0  0  0  0  0  0  0  0  0  0  0  0
  140.3540   72.5180  222.3990 C   0  0  0  0  0  0  0  0  0  0  0  0
  139.7720   71.5040  221.6410 C   0  0  0  0  0  0  0  0  0  0  0  0
  139.4660   70.2830  222.2270 C   0  0  0  0  0  0  0  0  0  0  0  0
  139.7280   70.0370  223.5770 C   0  0  0  0  0  0  0  0  0  0  0  0
  140.3010   71.0390  224.3190 C   0  0  0  0  0  0  0  0  0  0  0  0
  140.6330   70.9260  225.7320 C   0  0  0  0  0  0  0  0  0  0  0  0
  140.8690   72.0200  226.3360 O   0  0  0  0  0  0  0  0  0  0  0  0
  140.7010   69.6980  226.4280 N   0  0  0  0  0  0  0  0  0  0  0  0
  140.4870   68.3360  225.9700 C   0  0  0  0  0  0  0  0  0  0  0  0
  139.5720   67.7750  227.0320 C   0  0  0  0  0  0  0  0  0  0  0  0
  139.9680   68.5020  228.2760 C   0  0  0  0  0  0  0  0  0  0  0  0
  141.0040   69.5430  227.8470 C   0  0  0  0  0  0  0  0  0  0  0  0
  140.6010   72.2540  223.7170 C   0  0  0  0  0  0  0  0  0  0  0  0
  140.1770   74.8730  222.3110 N   0  0  0  0  0  0  0  0  0  0  0  0
  140.4090   76.1920  221.8190 C   0  0  0  0  0  0  0  0  0  0  0  0
  139.8540   77.3210  222.3680 C   0  0  0  0  0  0  0  0  0  0  0  0
  140.1180   78.5700  221.8250 C   0  0  0  0  0  0  0  0  0  0  0  0
  140.9350   78.7420  220.7310 C   0  0  0  0  0  0  0  0  0  0  0  0
  141.1590   80.0780  220.1990 C   0  0  0  0  0  0  0  0  0  0  0  0
  141.8740   80.3320  219.0500 C   0  0  0  0  0  0  0  0  0  0  0  0
  142.0630   81.6170  218.5770 C   0  0  0  0  0  0  0  0  0  0  0  0
  142.9790   81.9420  217.1080 Cl  0  0  0  0  0  0  0  0  0  0  0  0
  141.5290   82.7020  219.2570 C   0  0  0  0  0  0  0  0  0  0  0  0
  140.8200   82.4110  220.4030 C   0  0  0  0  0  0  0  0  0  0  0  0
  140.6470   81.1400  220.8520 N   0  0  0  0  0  0  0  0  0  0  0  0
  141.4950   77.6150  220.1760 C   0  0  0  0  0  0  0  0  0  0  0  0
  141.2260   76.3580  220.7250 C   0  0  0  0  0  0  0  0  0  0  0  0
  141.1175   73.1928  219.8136 H   0  0  0  0  0  0  0  0  0  0  0  0
  142.5431   73.3301  220.8933 H   0  0  0  0  0  0  0  0  0  0  0  0
  139.5544   71.6712  220.5758 H   0  0  0  0  0  0  0  0  0  0  0  0
  139.0074   69.4923  221.6151 H   0  0  0  0  0  0  0  0  0  0  0  0
  139.4817   69.0666  224.0327 H   0  0  0  0  0  0  0  0  0  0  0  0
  140.0053   68.3200  224.9812 H   0  0  0  0  0  0  0  0  0  0  0  0
  141.4180   67.7634  225.8457 H   0  0  0  0  0  0  0  0  0  0  0  0
  138.5187   67.9717  226.7834 H   0  0  0  0  0  0  0  0  0  0  0  0
  139.6631   66.6835  227.1339 H   0  0  0  0  0  0  0  0  0  0  0  0
  139.0934   68.9960  228.7244 H   0  0  0  0  0  0  0  0  0  0  0  0
  140.3777   67.8143  229.0304 H   0  0  0  0  0  0  0  0  0  0  0  0
  140.8697   70.4896  228.3910 H   0  0  0  0  0  0  0  0  0  0  0  0
  142.0437   69.2473  228.0509 H   0  0  0  0  0  0  0  0  0  0  0  0
  141.0600   73.0427  224.3312 H   0  0  0  0  0  0  0  0  0  0  0  0
  139.1953   77.2348  223.2447 H   0  0  0  0  0  0  0  0  0  0  0  0
  139.6571   79.4560  222.2861 H   0  0  0  0  0  0  0  0  0  0  0  0
  142.3071   79.4883  218.4927 H   0  0  0  0  0  0  0  0  0  0  0  0
  141.6635   83.7345  218.9024 H   0  0  0  0  0  0  0  0  0  0  0  0
  140.3774   83.2392  220.9758 H   0  0  0  0  0  0  0  0  0  0  0  0
  142.1546   77.7029  219.3001 H   0  0  0  0  0  0  0  0  0  0  0  0
  1  2  2  0
  2  3  1  0
  3  4  1  0
  4  5  1  0
  5  6  2  0
  6  7  1  0
  7  8  2  0
  8  9  1  0
  9 10  1  0
 10 11  2  0
 10 12  1  0
 12 13  1  0
 13 14  1  0
 14 15  1  0
 15 16  1  0
  9 17  2  0
  4 18  2  0
 18 19  1  0
 19 20  2  0
 20 21  1  0
 21 22  2  0
 22 23  1  0
 23 24  2  0
 24 25  1  0
 25 26  1  0
 25 27  2  0
 27 28  1  0
 28 29  2  0
 22 30  1  0
 30 31  2  0
 31  2  1  0
 17  5  1  0
 31 19  1  0
 16 12  1  0
 29 23  1  0
  3 32  1  0
  3 33  1  0
  6 34  1  0
  7 35  1  0
  8 36  1  0
 13 37  1  0
 13 38  1  0
 14 39  1  0
 14 40  1  0
 15 41  1  0
 15 42  1  0
 16 43  1  0
 16 44  1  0
 17 45  1  0
 20 46  1  0
 21 47  1  0
 24 48  1  0
 27 49  1  0
 28 50  1  0
 30 51  1  0
M  END
>  <smiles>  (43) 
O=C1CC(c2cccc(C(=O)N3CCCC3)c2)=Nc2ccc(-c3cc(Cl)ccn3)cc21

>  <score_type>  (43) 
oracle

>  <origin>  (43) 
autodockgpu

>  <m_score__min__energy>  (43) 
-9.0099999999999998

>  <m_primary>  (43) 
energy

>  <rmsd>  (43) 
7.391787354355681

>  <m_score__min__rmsd>  (43) 
7.391787354355681

>  <meeko>  (43) 
{"free_energy": -8.6, "intermolecular_energy": -9.49, "internal_energy": -0.86, "cluster_size": 34, "cluster_id": 1, "rank_in_cluster": 31}

>  <energy>  (43) 
-8.3

>  <cluster_rmsd>  (43) 
0.0

>  <cluster>  (43) 
3

$$$$

     RDKit          3D

 51 55  0  0  0  0  0  0  0  0999 V2000
  142.9190   74.4750  220.3820 O   0  0  0  0  0  0  0  0  0  0  0  0
  141.8590   74.1890  220.9880 C   0  0  0  0  0  0  0  0  0  0  0  0
  141.5280   72.7590  221.1470 C   0  0  0  0  0  0  0  0  0  0  0  0
  140.2600   72.6360  221.8940 C   0  0  0  0  0  0  0  0  0  0  0  0
  139.7780   71.2590  222.1450 C   0  0  0  0  0  0  0  0  0  0  0  0
  139.3100   70.4650  221.1000 C   0  0  0  0  0  0  0  0  0  0  0  0
  138.8630   69.1740  221.3500 C   0  0  0  0  0  0  0  0  0  0  0  0
  138.8670   68.6390  222.6400 C   0  0  0  0  0  0  0  0  0  0  0  0
  139.3280   69.4250  223.6660 C   0  0  0  0  0  0  0  0  0  0  0  0
  139.3940   69.0030  225.0570 C   0  0  0  0  0  0  0  0  0  0  0  0
  139.1480   67.7740  225.2770 O   0  0  0  0  0  0  0  0  0  0  0  0
  139.7090   69.8690  226.1280 N   0  0  0  0  0  0  0  0  0  0  0  0
  140.0150   71.2900  226.1400 C   0  0  0  0  0  0  0  0  0  0  0  0
  141.2510   71.3500  227.0050 C   0  0  0  0  0  0  0  0  0  0  0  0
  141.0760   70.2210  227.9690 C   0  0  0  0  0  0  0  0  0  0  0  0
  139.8110   69.4820  227.5320 C   0  0  0  0  0  0  0  0  0  0  0  0
  139.7720   70.7140  223.3980 C   0  0  0  0  0  0  0  0  0  0  0  0
  139.5480   73.6030  222.3310 N   0  0  0  0  0  0  0  0  0  0  0  0
  139.8910   74.9770  222.1520 C   0  0  0  0  0  0  0  0  0  0  0  0
  139.1250   76.0210  222.6070 C   0  0  0  0  0  0  0  0  0  0  0  0
  139.5200   77.3320  222.3850 C   0  0  0  0  0  0  0  0  0  0  0  0
  140.6770   77.6520  221.7110 C   0  0  0  0  0  0  0  0  0  0  0  0
  141.0270   79.0470  221.4960 C   0  0  0  0  0  0  0  0  0  0  0  0
  141.2280   79.6010  220.2510 C   0  0  0  0  0  0  0  0  0  0  0  0
  141.5580   80.9330  220.0910 C   0  0  0  0  0  0  0  0  0  0  0  0
  141.8170   81.6410  218.4980 Cl  0  0  0  0  0  0  0  0  0  0  0  0
  141.6950   81.7620  221.1940 C   0  0  0  0  0  0  0  0  0  0  0  0
  141.4870   81.1750  222.4240 C   0  0  0  0  0  0  0  0  0  0  0  0
  141.1640   79.8620  222.5610 N   0  0  0  0  0  0  0  0  0  0  0  0
  141.4490   76.6100  221.2530 C   0  0  0  0  0  0  0  0  0  0  0  0
  141.0480   75.2890  221.4780 C   0  0  0  0  0  0  0  0  0  0  0  0
  141.4183   72.2941  220.1562 H   0  0  0  0  0  0  0  0  0  0  0  0
  142.3333   72.2516  221.6983 H   0  0  0  0  0  0  0  0  0  0  0  0
  139.2945   70.8618  220.0742 H   0  0  0  0  0  0  0  0  0  0  0  0
  138.4979   68.5596  220.5138 H   0  0  0  0  0  0  0  0  0  0  0  0
  138.5104   67.6156  222.8284 H   0  0  0  0  0  0  0  0  0  0  0  0
  140.2215   71.6609  225.1252 H   0  0  0  0  0  0  0  0  0  0  0  0
  139.1886   71.9137  226.5116 H   0  0  0  0  0  0  0  0  0  0  0  0
  142.1586   71.2095  226.3996 H   0  0  0  0  0  0  0  0  0  0  0  0
  141.3674   72.3211  227.5085 H   0  0  0  0  0  0  0  0  0  0  0  0
  141.9446   69.5472  227.9294 H   0  0  0  0  0  0  0  0  0  0  0  0
  140.9912   70.5855  229.0034 H   0  0  0  0  0  0  0  0  0  0  0  0
  139.9256   68.3933  227.6401 H   0  0  0  0  0  0  0  0  0  0  0  0
  138.9210   69.7311  228.1285 H   0  0  0  0  0  0  0  0  0  0  0  0
  140.1368   71.3261  224.2360 H   0  0  0  0  0  0  0  0  0  0  0  0
  138.1913   75.8167  223.1515 H   0  0  0  0  0  0  0  0  0  0  0  0
  138.8846   78.1470  222.7618 H   0  0  0  0  0  0  0  0  0  0  0  0
  141.1229   78.9653  219.3595 H   0  0  0  0  0  0  0  0  0  0  0  0
  141.9546   82.8262  221.0935 H   0  0  0  0  0  0  0  0  0  0  0  0
  141.5862   81.7928  223.3287 H   0  0  0  0  0  0  0  0  0  0  0  0
  142.3828   76.8157  220.7092 H   0  0  0  0  0  0  0  0  0  0  0  0
  1  2  2  0
  2  3  1  0
  3  4  1  0
  4  5  1  0
  5  6  2  0
  6  7  1  0
  7  8  2  0
  8  9  1  0
  9 10  1  0
 10 11  2  0
 10 12  1  0
 12 13  1  0
 13 14  1  0
 14 15  1  0
 15 16  1  0
  9 17  2  0
  4 18  2  0
 18 19  1  0
 19 20  2  0
 20 21  1  0
 21 22  2  0
 22 23  1  0
 23 24  2  0
 24 25  1  0
 25 26  1  0
 25 27  2  0
 27 28  1  0
 28 29  2  0
 22 30  1  0
 30 31  2  0
 31  2  1  0
 17  5  1  0
 31 19  1  0
 16 12  1  0
 29 23  1  0
  3 32  1  0
  3 33  1  0
  6 34  1  0
  7 35  1  0
  8 36  1  0
 13 37  1  0
 13 38  1  0
 14 39  1  0
 14 40  1  0
 15 41  1  0
 15 42  1  0
 16 43  1  0
 16 44  1  0
 17 45  1  0
 20 46  1  0
 21 47  1  0
 24 48  1  0
 27 49  1  0
 28 50  1  0
 30 51  1  0
M  END
>  <smiles>  (44) 
O=C1CC(c2cccc(C(=O)N3CCCC3)c2)=Nc2ccc(-c3cc(Cl)ccn3)cc21

>  <score_type>  (44) 
oracle

>  <origin>  (44) 
autodockgpu

>  <m_score__min__energy>  (44) 
-9.0099999999999998

>  <m_primary>  (44) 
energy

>  <rmsd>  (44) 
6.1172378539515115

>  <m_score__min__rmsd>  (44) 
6.1172378539515115

>  <meeko>  (44) 
{"free_energy": -9.01, "intermolecular_energy": -9.9, "internal_energy": -0.73, "cluster_size": 34, "cluster_id": 1, "rank_in_cluster": 1}

>  <energy>  (44) 
-8.3

>  <cluster_rmsd>  (44) 
0.03

>  <cluster>  (44) 
3

$$$$

     RDKit          3D

 51 55  0  0  0  0  0  0  0  0999 V2000
  142.9200   73.3670  220.2590 O   0  0  0  0  0  0  0  0  0  0  0  0
  141.8580   73.2070  220.9060 C   0  0  0  0  0  0  0  0  0  0  0  0
  141.4610   71.8250  221.2360 C   0  0  0  0  0  0  0  0  0  0  0  0
  140.2010   71.8550  222.0070 C   0  0  0  0  0  0  0  0  0  0  0  0
  139.6560   70.5420  222.4250 C   0  0  0  0  0  0  0  0  0  0  0  0
  139.0620   69.6890  221.4980 C   0  0  0  0  0  0  0  0  0  0  0  0
  138.5570   68.4610  221.9030 C   0  0  0  0  0  0  0  0  0  0  0  0
  138.6280   68.0480  223.2360 C   0  0  0  0  0  0  0  0  0  0  0  0
  139.2150   68.8920  224.1450 C   0  0  0  0  0  0  0  0  0  0  0  0
  139.3620   68.5960  225.5620 C   0  0  0  0  0  0  0  0  0  0  0  0
  139.1850   67.3820  225.8980 O   0  0  0  0  0  0  0  0  0  0  0  0
  139.6830   69.5660  226.5390 N   0  0  0  0  0  0  0  0  0  0  0  0
  139.9220   70.9940  226.4140 C   0  0  0  0  0  0  0  0  0  0  0  0
  141.1910   71.1830  227.2100 C   0  0  0  0  0  0  0  0  0  0  0  0
  141.1130   70.1360  228.2750 C   0  0  0  0  0  0  0  0  0  0  0  0
  139.8660   69.3070  227.9640 C   0  0  0  0  0  0  0  0  0  0  0  0
  139.7140   70.1170  223.7220 C   0  0  0  0  0  0  0  0  0  0  0  0
  139.5450   72.9010  222.3350 N   0  0  0  0  0  0  0  0  0  0  0  0
  139.9510   74.2260  221.9920 C   0  0  0  0  0  0  0  0  0  0  0  0
  139.2450   75.3520  222.3290 C   0  0  0  0  0  0  0  0  0  0  0  0
  139.6990   76.6070  221.9480 C   0  0  0  0  0  0  0  0  0  0  0  0
  140.8590   76.7860  221.2280 C   0  0  0  0  0  0  0  0  0  0  0  0
  141.2720   78.1280  220.8460 C   0  0  0  0  0  0  0  0  0  0  0  0
  141.1840   79.2200  221.6800 C   0  0  0  0  0  0  0  0  0  0  0  0
  141.5900   80.4790  221.2790 C   0  0  0  0  0  0  0  0  0  0  0  0
  141.4750   81.8770  222.3450 Cl  0  0  0  0  0  0  0  0  0  0  0  0
  142.1070   80.6790  220.0080 C   0  0  0  0  0  0  0  0  0  0  0  0
  142.1810   79.5640  219.2000 C   0  0  0  0  0  0  0  0  0  0  0  0
  141.7740   78.3340  219.6130 N   0  0  0  0  0  0  0  0  0  0  0  0
  141.5710   75.6600  220.8880 C   0  0  0  0  0  0  0  0  0  0  0  0
  141.1110   74.3970  221.2720 C   0  0  0  0  0  0  0  0  0  0  0  0
  141.3116   71.2532  220.3083 H   0  0  0  0  0  0  0  0  0  0  0  0
  142.2500   71.3455  221.8339 H   0  0  0  0  0  0  0  0  0  0  0  0
  138.9928   69.9892  220.4420 H   0  0  0  0  0  0  0  0  0  0  0  0
  138.0909   67.7988  221.1585 H   0  0  0  0  0  0  0  0  0  0  0  0
  138.2246   67.0734  223.5481 H   0  0  0  0  0  0  0  0  0  0  0  0
  140.0656   71.2826  225.3623 H   0  0  0  0  0  0  0  0  0  0  0  0
  139.0845   71.6119  226.7700 H   0  0  0  0  0  0  0  0  0  0  0  0
  142.0764   71.0295  226.5756 H   0  0  0  0  0  0  0  0  0  0  0  0
  141.2833   72.1986  227.6224 H   0  0  0  0  0  0  0  0  0  0  0  0
  142.0101   69.4998  228.2514 H   0  0  0  0  0  0  0  0  0  0  0  0
  141.0571   70.5856  229.2773 H   0  0  0  0  0  0  0  0  0  0  0  0
  140.0371   68.2379  228.1580 H   0  0  0  0  0  0  0  0  0  0  0  0
  138.9927   69.5677  228.5799 H   0  0  0  0  0  0  0  0  0  0  0  0
  140.1790   70.7779  224.4683 H   0  0  0  0  0  0  0  0  0  0  0  0
  138.3125   75.2601  222.9052 H   0  0  0  0  0  0  0  0  0  0  0  0
  139.1102   77.4917  222.2318 H   0  0  0  0  0  0  0  0  0  0  0  0
  140.7792   79.0868  222.6941 H   0  0  0  0  0  0  0  0  0  0  0  0
  142.4389   81.6698  219.6642 H   0  0  0  0  0  0  0  0  0  0  0  0
  142.5846   79.6737  218.1826 H   0  0  0  0  0  0  0  0  0  0  0  0
  142.5041   75.7531  220.3129 H   0  0  0  0  0  0  0  0  0  0  0  0
  1  2  2  0
  2  3  1  0
  3  4  1  0
  4  5  1  0
  5  6  2  0
  6  7  1  0
  7  8  2  0
  8  9  1  0
  9 10  1  0
 10 11  2  0
 10 12  1  0
 12 13  1  0
 13 14  1  0
 14 15  1  0
 15 16  1  0
  9 17  2  0
  4 18  2  0
 18 19  1  0
 19 20  2  0
 20 21  1  0
 21 22  2  0
 22 23  1  0
 23 24  2  0
 24 25  1  0
 25 26  1  0
 25 27  2  0
 27 28  1  0
 28 29  2  0
 22 30  1  0
 30 31  2  0
 31  2  1  0
 17  5  1  0
 31 19  1  0
 16 12  1  0
 29 23  1  0
  3 32  1  0
  3 33  1  0
  6 34  1  0
  7 35  1  0
  8 36  1  0
 13 37  1  0
 13 38  1  0
 14 39  1  0
 14 40  1  0
 15 41  1  0
 15 42  1  0
 16 43  1  0
 16 44  1  0
 17 45  1  0
 20 46  1  0
 21 47  1  0
 24 48  1  0
 27 49  1  0
 28 50  1  0
 30 51  1  0
M  END
>  <smiles>  (45) 
O=C1CC(c2cccc(C(=O)N3CCCC3)c2)=Nc2ccc(-c3cc(Cl)ccn3)cc21

>  <score_type>  (45) 
oracle

>  <origin>  (45) 
autodockgpu

>  <m_score__min__energy>  (45) 
-9.0099999999999998

>  <m_primary>  (45) 
energy

>  <rmsd>  (45) 
6.004509050071948

>  <m_score__min__rmsd>  (45) 
6.004509050071948

>  <meeko>  (45) 
{"free_energy": -8.83, "intermolecular_energy": -9.73, "internal_energy": -0.78, "cluster_size": 34, "cluster_id": 1, "rank_in_cluster": 23}

>  <energy>  (45) 
-8.3

>  <cluster_rmsd>  (45) 
0.04

>  <cluster>  (45) 
3

$$$$

     RDKit          3D

 51 55  0  0  0  0  0  0  0  0999 V2000
  142.9350   73.4790  220.3420 O   0  0  0  0  0  0  0  0  0  0  0  0
  141.8540   73.2940  220.9510 C   0  0  0  0  0  0  0  0  0  0  0  0
  141.4760   71.9020  221.2630 C   0  0  0  0  0  0  0  0  0  0  0  0
  140.1910   71.9010  221.9890 C   0  0  0  0  0  0  0  0  0  0  0  0
  139.6610   70.5760  222.3840 C   0  0  0  0  0  0  0  0  0  0  0  0
  139.0780   69.7320  221.4420 C   0  0  0  0  0  0  0  0  0  0  0  0
  138.5870   68.4900  221.8250 C   0  0  0  0  0  0  0  0  0  0  0  0
  138.6610   68.0560  223.1510 C   0  0  0  0  0  0  0  0  0  0  0  0
  139.2350   68.8920  224.0750 C   0  0  0  0  0  0  0  0  0  0  0  0
  139.3840   68.5740  225.4880 C   0  0  0  0  0  0  0  0  0  0  0  0
  139.2050   67.3550  225.8050 O   0  0  0  0  0  0  0  0  0  0  0  0
  139.7060   69.5280  226.4790 N   0  0  0  0  0  0  0  0  0  0  0  0
  139.9460   70.9570  226.3760 C   0  0  0  0  0  0  0  0  0  0  0  0
  141.2160   71.1330  227.1740 C   0  0  0  0  0  0  0  0  0  0  0  0
  141.1370   70.0700  228.2220 C   0  0  0  0  0  0  0  0  0  0  0  0
  139.8890   69.2470  227.9000 C   0  0  0  0  0  0  0  0  0  0  0  0
  139.7210   70.1300  223.6740 C   0  0  0  0  0  0  0  0  0  0  0  0
  139.5000   72.9320  222.2980 N   0  0  0  0  0  0  0  0  0  0  0  0
  139.8890   74.2660  221.9730 C   0  0  0  0  0  0  0  0  0  0  0  0
  139.1480   75.3760  222.2890 C   0  0  0  0  0  0  0  0  0  0  0  0
  139.5870   76.6420  221.9280 C   0  0  0  0  0  0  0  0  0  0  0  0
  140.7670   76.8490  221.2500 C   0  0  0  0  0  0  0  0  0  0  0  0
  141.1640   78.2010  220.8860 C   0  0  0  0  0  0  0  0  0  0  0  0
  141.1610   79.2600  221.7670 C   0  0  0  0  0  0  0  0  0  0  0  0
  141.5480   80.5290  221.3820 C   0  0  0  0  0  0  0  0  0  0  0  0
  141.5420   81.8840  222.5080 Cl  0  0  0  0  0  0  0  0  0  0  0  0
  141.9570   80.7760  220.0800 C   0  0  0  0  0  0  0  0  0  0  0  0
  141.9470   79.6930  219.2250 C   0  0  0  0  0  0  0  0  0  0  0  0
  141.5610   78.4520  219.6230 N   0  0  0  0  0  0  0  0  0  0  0  0
  141.5150   75.7400  220.9300 C   0  0  0  0  0  0  0  0  0  0  0  0
  141.0690   74.4660  221.2940 C   0  0  0  0  0  0  0  0  0  0  0  0
  141.3716   71.3306  220.3289 H   0  0  0  0  0  0  0  0  0  0  0  0
  142.2541   71.4379  221.8868 H   0  0  0  0  0  0  0  0  0  0  0  0
  139.0060   70.0497  220.3914 H   0  0  0  0  0  0  0  0  0  0  0  0
  138.1305   67.8347  221.0685 H   0  0  0  0  0  0  0  0  0  0  0  0
  138.2698   67.0711  223.4460 H   0  0  0  0  0  0  0  0  0  0  0  0
  140.0890   71.2617  225.3288 H   0  0  0  0  0  0  0  0  0  0  0  0
  139.1092   71.5699  226.7423 H   0  0  0  0  0  0  0  0  0  0  0  0
  142.1010   70.9885  226.5368 H   0  0  0  0  0  0  0  0  0  0  0  0
  141.3100   72.1421  227.6017 H   0  0  0  0  0  0  0  0  0  0  0  0
  142.0333   69.4332  228.1878 H   0  0  0  0  0  0  0  0  0  0  0  0
  141.0818   70.5045  229.2310 H   0  0  0  0  0  0  0  0  0  0  0  0
  140.0591   68.1749  228.0778 H   0  0  0  0  0  0  0  0  0  0  0  0
  139.0163   69.4989  228.5204 H   0  0  0  0  0  0  0  0  0  0  0  0
  140.1766   70.7835  224.4325 H   0  0  0  0  0  0  0  0  0  0  0  0
  138.1986   75.2619  222.8327 H   0  0  0  0  0  0  0  0  0  0  0  0
  138.9691   77.5125  222.1935 H   0  0  0  0  0  0  0  0  0  0  0  0
  140.8416   79.0905  222.8059 H   0  0  0  0  0  0  0  0  0  0  0  0
  142.2710   81.7767  219.7483 H   0  0  0  0  0  0  0  0  0  0  0  0
  142.2634   79.8395  218.1817 H   0  0  0  0  0  0  0  0  0  0  0  0
  142.4648   75.8556  220.3873 H   0  0  0  0  0  0  0  0  0  0  0  0
  1  2  2  0
  2  3  1  0
  3  4  1  0
  4  5  1  0
  5  6  2  0
  6  7  1  0
  7  8  2  0
  8  9  1  0
  9 10  1  0
 10 11  2  0
 10 12  1  0
 12 13  1  0
 13 14  1  0
 14 15  1  0
 15 16  1  0
  9 17  2  0
  4 18  2  0
 18 19  1  0
 19 20  2  0
 20 21  1  0
 21 22  2  0
 22 23  1  0
 23 24  2  0
 24 25  1  0
 25 26  1  0
 25 27  2  0
 27 28  1  0
 28 29  2  0
 22 30  1  0
 30 31  2  0
 31  2  1  0
 17  5  1  0
 31 19  1  0
 16 12  1  0
 29 23  1  0
  3 32  1  0
  3 33  1  0
  6 34  1  0
  7 35  1  0
  8 36  1  0
 13 37  1  0
 13 38  1  0
 14 39  1  0
 14 40  1  0
 15 41  1  0
 15 42  1  0
 16 43  1  0
 16 44  1  0
 17 45  1  0
 20 46  1  0
 21 47  1  0
 24 48  1  0
 27 49  1  0
 28 50  1  0
 30 51  1  0
M  END
>  <smiles>  (46) 
O=C1CC(c2cccc(C(=O)N3CCCC3)c2)=Nc2ccc(-c3cc(Cl)ccn3)cc21

>  <score_type>  (46) 
oracle

>  <origin>  (46) 
autodockgpu

>  <m_score__min__energy>  (46) 
-9.0099999999999998

>  <m_primary>  (46) 
energy

>  <rmsd>  (46) 
6.005007481331279

>  <m_score__min__rmsd>  (46) 
6.005007481331279

>  <meeko>  (46) 
{"free_energy": -8.81, "intermolecular_energy": -9.71, "internal_energy": -0.76, "cluster_size": 34, "cluster_id": 1, "rank_in_cluster": 25}

>  <energy>  (46) 
-8.3

>  <cluster_rmsd>  (46) 
0.16

>  <cluster>  (46) 
3

$$$$

     RDKit          3D

 51 55  0  0  0  0  0  0  0  0999 V2000
  141.6880   81.3380  223.9680 O   0  0  0  0  0  0  0  0  0  0  0  0
  141.0880   80.4870  223.2700 C   0  0  0  0  0  0  0  0  0  0  0  0
  141.8850   79.7190  222.2940 C   0  0  0  0  0  0  0  0  0  0  0  0
  141.0020   78.7670  221.5900 C   0  0  0  0  0  0  0  0  0  0  0  0
  141.6440   77.9080  220.5680 C   0  0  0  0  0  0  0  0  0  0  0  0
  142.0930   78.4470  219.3650 C   0  0  0  0  0  0  0  0  0  0  0  0
  142.6960   77.6300  218.4170 C   0  0  0  0  0  0  0  0  0  0  0  0
  142.8670   76.2620  218.6370 C   0  0  0  0  0  0  0  0  0  0  0  0
  142.4220   75.7360  219.8250 C   0  0  0  0  0  0  0  0  0  0  0  0
  142.5350   74.3330  220.1940 C   0  0  0  0  0  0  0  0  0  0  0  0
  141.4430   73.6820  220.2440 O   0  0  0  0  0  0  0  0  0  0  0  0
  143.7610   73.6930  220.4860 N   0  0  0  0  0  0  0  0  0  0  0  0
  145.1180   74.2100  220.5070 C   0  0  0  0  0  0  0  0  0  0  0  0
  145.8770   73.1670  219.7210 C   0  0  0  0  0  0  0  0  0  0  0  0
  145.1440   71.8940  220.0040 C   0  0  0  0  0  0  0  0  0  0  0  0
  143.9210   72.2840  220.8340 C   0  0  0  0  0  0  0  0  0  0  0  0
  141.8220   76.5670  220.7620 C   0  0  0  0  0  0  0  0  0  0  0  0
  139.7450   78.6260  221.7790 N   0  0  0  0  0  0  0  0  0  0  0  0
  139.0000   79.3930  222.7250 C   0  0  0  0  0  0  0  0  0  0  0  0
  137.6500   79.2570  222.9230 C   0  0  0  0  0  0  0  0  0  0  0  0
  136.9930   80.0480  223.8550 C   0  0  0  0  0  0  0  0  0  0  0  0
  137.6460   80.9900  224.6160 C   0  0  0  0  0  0  0  0  0  0  0  0
  136.8960   81.7990  225.5650 C   0  0  0  0  0  0  0  0  0  0  0  0
  136.5750   81.3820  226.8380 C   0  0  0  0  0  0  0  0  0  0  0  0
  135.8630   82.1820  227.7100 C   0  0  0  0  0  0  0  0  0  0  0  0
  135.4510   81.6470  229.3370 Cl  0  0  0  0  0  0  0  0  0  0  0  0
  135.4460   83.4470  227.3230 C   0  0  0  0  0  0  0  0  0  0  0  0
  135.7840   83.8320  226.0420 C   0  0  0  0  0  0  0  0  0  0  0  0
  136.4840   83.0290  225.1990 N   0  0  0  0  0  0  0  0  0  0  0  0
  139.0000   81.1310  224.4220 C   0  0  0  0  0  0  0  0  0  0  0  0
  139.6590   80.3340  223.4810 C   0  0  0  0  0  0  0  0  0  0  0  0
  142.3388   80.4076  221.5661 H   0  0  0  0  0  0  0  0  0  0  0  0
  142.6807   79.1684  222.8173 H   0  0  0  0  0  0  0  0  0  0  0  0
  141.9700   79.5217  219.1651 H   0  0  0  0  0  0  0  0  0  0  0  0
  143.0465   78.0707  217.4721 H   0  0  0  0  0  0  0  0  0  0  0  0
  143.3449   75.6231  217.8797 H   0  0  0  0  0  0  0  0  0  0  0  0
  145.1759   75.1947  220.0202 H   0  0  0  0  0  0  0  0  0  0  0  0
  145.5119   74.3671  221.5220 H   0  0  0  0  0  0  0  0  0  0  0  0
  145.8583   73.3979  218.6457 H   0  0  0  0  0  0  0  0  0  0  0  0
  146.9390   73.1150  220.0030 H   0  0  0  0  0  0  0  0  0  0  0  0
  144.8307   71.4168  219.0637 H   0  0  0  0  0  0  0  0  0  0  0  0
  145.7805   71.1747  220.5401 H   0  0  0  0  0  0  0  0  0  0  0  0
  143.0368   71.6970  220.5447 H   0  0  0  0  0  0  0  0  0  0  0  0
  144.0380   72.1020  221.9125 H   0  0  0  0  0  0  0  0  0  0  0  0
  141.4730   76.1242  221.7065 H   0  0  0  0  0  0  0  0  0  0  0  0
  137.0840   78.5161  222.3393 H   0  0  0  0  0  0  0  0  0  0  0  0
  135.9093   79.9169  223.9904 H   0  0  0  0  0  0  0  0  0  0  0  0
  136.8949   80.3831  227.1695 H   0  0  0  0  0  0  0  0  0  0  0  0
  134.8789   84.1048  227.9980 H   0  0  0  0  0  0  0  0  0  0  0  0
  135.4749   84.8272  225.6898 H   0  0  0  0  0  0  0  0  0  0  0  0
  139.5650   81.8713  225.0075 H   0  0  0  0  0  0  0  0  0  0  0  0
  1  2  2  0
  2  3  1  0
  3  4  1  0
  4  5  1  0
  5  6  2  0
  6  7  1  0
  7  8  2  0
  8  9  1  0
  9 10  1  0
 10 11  2  0
 10 12  1  0
 12 13  1  0
 13 14  1  0
 14 15  1  0
 15 16  1  0
  9 17  2  0
  4 18  2  0
 18 19  1  0
 19 20  2  0
 20 21  1  0
 21 22  2  0
 22 23  1  0
 23 24  2  0
 24 25  1  0
 25 26  1  0
 25 27  2  0
 27 28  1  0
 28 29  2  0
 22 30  1  0
 30 31  2  0
 31  2  1  0
 17  5  1  0
 31 19  1  0
 16 12  1  0
 29 23  1  0
  3 32  1  0
  3 33  1  0
  6 34  1  0
  7 35  1  0
  8 36  1  0
 13 37  1  0
 13 38  1  0
 14 39  1  0
 14 40  1  0
 15 41  1  0
 15 42  1  0
 16 43  1  0
 16 44  1  0
 17 45  1  0
 20 46  1  0
 21 47  1  0
 24 48  1  0
 27 49  1  0
 28 50  1  0
 30 51  1  0
M  END
>  <smiles>  (47) 
O=C1CC(c2cccc(C(=O)N3CCCC3)c2)=Nc2ccc(-c3cc(Cl)ccn3)cc21

>  <score_type>  (47) 
oracle

>  <origin>  (47) 
autodockgpu

>  <m_score__min__energy>  (47) 
-9.0099999999999998

>  <m_primary>  (47) 
energy

>  <rmsd>  (47) 
9.185015655865666

>  <m_score__min__rmsd>  (47) 
9.185015655865666

>  <meeko>  (47) 
{"free_energy": -8.34, "intermolecular_energy": -9.23, "internal_energy": -0.97, "cluster_size": 8, "cluster_id": 2, "rank_in_cluster": 4}

>  <energy>  (47) 
-8.28

>  <cluster_rmsd>  (47) 
0.05

>  <cluster>  (47) 
3

$$$$

     RDKit          3D

 51 55  0  0  0  0  0  0  0  0999 V2000
  141.5340   81.2600  224.1910 O   0  0  0  0  0  0  0  0  0  0  0  0
  140.9310   80.4440  223.4540 C   0  0  0  0  0  0  0  0  0  0  0  0
  141.7340   79.6880  222.4730 C   0  0  0  0  0  0  0  0  0  0  0  0
  140.8470   78.7780  221.7210 C   0  0  0  0  0  0  0  0  0  0  0  0
  141.4940   77.9350  220.6890 C   0  0  0  0  0  0  0  0  0  0  0  0
  141.9610   78.4960  219.5020 C   0  0  0  0  0  0  0  0  0  0  0  0
  142.5680   77.6950  218.5430 C   0  0  0  0  0  0  0  0  0  0  0  0
  142.7260   76.3210  218.7360 C   0  0  0  0  0  0  0  0  0  0  0  0
  142.2640   75.7740  219.9070 C   0  0  0  0  0  0  0  0  0  0  0  0
  142.3610   74.3620  220.2480 C   0  0  0  0  0  0  0  0  0  0  0  0
  141.2610   73.7260  220.3010 O   0  0  0  0  0  0  0  0  0  0  0  0
  143.5820   73.6990  220.5090 N   0  0  0  0  0  0  0  0  0  0  0  0
  144.9470   74.1960  220.5190 C   0  0  0  0  0  0  0  0  0  0  0  0
  145.6780   73.1570  219.7010 C   0  0  0  0  0  0  0  0  0  0  0  0
  144.9310   71.8900  219.9710 C   0  0  0  0  0  0  0  0  0  0  0  0
  143.7260   72.2810  220.8270 C   0  0  0  0  0  0  0  0  0  0  0  0
  141.6590   76.5900  220.8550 C   0  0  0  0  0  0  0  0  0  0  0  0
  139.5840   78.6590  221.8770 N   0  0  0  0  0  0  0  0  0  0  0  0
  138.8340   79.4130  222.8290 C   0  0  0  0  0  0  0  0  0  0  0  0
  137.4760   79.3010  222.9930 C   0  0  0  0  0  0  0  0  0  0  0  0
  136.8150   80.0790  223.9340 C   0  0  0  0  0  0  0  0  0  0  0  0
  137.4710   80.9840  224.7370 C   0  0  0  0  0  0  0  0  0  0  0  0
  136.7170   81.7800  225.6930 C   0  0  0  0  0  0  0  0  0  0  0  0
  136.4680   81.3840  226.9880 C   0  0  0  0  0  0  0  0  0  0  0  0
  135.7480   82.1720  227.8660 C   0  0  0  0  0  0  0  0  0  0  0  0
  135.4280   81.6640  229.5230 Cl  0  0  0  0  0  0  0  0  0  0  0  0
  135.2510   83.4020  227.4620 C   0  0  0  0  0  0  0  0  0  0  0  0
  135.5190   83.7670  226.1600 C   0  0  0  0  0  0  0  0  0  0  0  0
  136.2280   82.9760  225.3110 N   0  0  0  0  0  0  0  0  0  0  0  0
  138.8320   81.1000  224.5780 C   0  0  0  0  0  0  0  0  0  0  0  0
  139.4950   80.3170  223.6290 C   0  0  0  0  0  0  0  0  0  0  0  0
  142.2194   80.3878  221.7768 H   0  0  0  0  0  0  0  0  0  0  0  0
  142.5055   79.1044  222.9967 H   0  0  0  0  0  0  0  0  0  0  0  0
  141.8487   79.5757  219.3240 H   0  0  0  0  0  0  0  0  0  0  0  0
  142.9320   78.1529  217.6115 H   0  0  0  0  0  0  0  0  0  0  0  0
  143.2074   75.6944  217.9707 H   0  0  0  0  0  0  0  0  0  0  0  0
  145.0121   75.1891  220.0505 H   0  0  0  0  0  0  0  0  0  0  0  0
  145.3588   74.3278  221.5305 H   0  0  0  0  0  0  0  0  0  0  0  0
  145.6459   73.4089  218.6307 H   0  0  0  0  0  0  0  0  0  0  0  0
  146.7433   73.0840  219.9652 H   0  0  0  0  0  0  0  0  0  0  0  0
  144.5968   71.4355  219.0267 H   0  0  0  0  0  0  0  0  0  0  0  0
  145.5650   71.1517  220.4838 H   0  0  0  0  0  0  0  0  0  0  0  0
  142.8291   71.7128  220.5395 H   0  0  0  0  0  0  0  0  0  0  0  0
  143.8560   72.0758  221.8998 H   0  0  0  0  0  0  0  0  0  0  0  0
  141.2950   76.1295  221.7853 H   0  0  0  0  0  0  0  0  0  0  0  0
  136.9077   78.5903  222.3750 H   0  0  0  0  0  0  0  0  0  0  0  0
  135.7260   79.9679  224.0418 H   0  0  0  0  0  0  0  0  0  0  0  0
  136.8529   80.4132  227.3335 H   0  0  0  0  0  0  0  0  0  0  0  0
  134.6763   84.0489  228.1411 H   0  0  0  0  0  0  0  0  0  0  0  0
  135.1452   84.7346  225.7940 H   0  0  0  0  0  0  0  0  0  0  0  0
  139.3993   81.8096  225.1982 H   0  0  0  0  0  0  0  0  0  0  0  0
  1  2  2  0
  2  3  1  0
  3  4  1  0
  4  5  1  0
  5  6  2  0
  6  7  1  0
  7  8  2  0
  8  9  1  0
  9 10  1  0
 10 11  2  0
 10 12  1  0
 12 13  1  0
 13 14  1  0
 14 15  1  0
 15 16  1  0
  9 17  2  0
  4 18  2  0
 18 19  1  0
 19 20  2  0
 20 21  1  0
 21 22  2  0
 22 23  1  0
 23 24  2  0
 24 25  1  0
 25 26  1  0
 25 27  2  0
 27 28  1  0
 28 29  2  0
 22 30  1  0
 30 31  2  0
 31  2  1  0
 17  5  1  0
 31 19  1  0
 16 12  1  0
 29 23  1  0
  3 32  1  0
  3 33  1  0
  6 34  1  0
  7 35  1  0
  8 36  1  0
 13 37  1  0
 13 38  1  0
 14 39  1  0
 14 40  1  0
 15 41  1  0
 15 42  1  0
 16 43  1  0
 16 44  1  0
 17 45  1  0
 20 46  1  0
 21 47  1  0
 24 48  1  0
 27 49  1  0
 28 50  1  0
 30 51  1  0
M  END
>  <smiles>  (48) 
O=C1CC(c2cccc(C(=O)N3CCCC3)c2)=Nc2ccc(-c3cc(Cl)ccn3)cc21

>  <score_type>  (48) 
oracle

>  <origin>  (48) 
autodockgpu

>  <m_score__min__energy>  (48) 
-9.0099999999999998

>  <m_primary>  (48) 
energy

>  <rmsd>  (48) 
9.09908124220295

>  <m_score__min__rmsd>  (48) 
9.09908124220295

>  <meeko>  (48) 
{"free_energy": -8.34, "intermolecular_energy": -9.23, "internal_energy": -0.97, "cluster_size": 8, "cluster_id": 2, "rank_in_cluster": 2}

>  <energy>  (48) 
-8.27

>  <cluster_rmsd>  (48) 
0.21

>  <cluster>  (48) 
3

$$$$

     RDKit          3D

 51 55  0  0  0  0  0  0  0  0999 V2000
  142.8450   74.4770  220.1930 O   0  0  0  0  0  0  0  0  0  0  0  0
  141.8100   74.1990  220.8440 C   0  0  0  0  0  0  0  0  0  0  0  0
  141.4550   72.7740  220.9860 C   0  0  0  0  0  0  0  0  0  0  0  0
  140.2230   72.6600  221.7930 C   0  0  0  0  0  0  0  0  0  0  0  0
  139.7220   71.2880  222.0360 C   0  0  0  0  0  0  0  0  0  0  0  0
  139.1890   70.5290  220.9960 C   0  0  0  0  0  0  0  0  0  0  0  0
  138.7250   69.2420  221.2380 C   0  0  0  0  0  0  0  0  0  0  0  0
  138.7780   68.6770  222.5140 C   0  0  0  0  0  0  0  0  0  0  0  0
  139.3040   69.4290  223.5350 C   0  0  0  0  0  0  0  0  0  0  0  0
  139.4250   68.9730  224.9120 C   0  0  0  0  0  0  0  0  0  0  0  0
  139.2590   67.7260  225.1000 O   0  0  0  0  0  0  0  0  0  0  0  0
  139.7090   69.8270  226.0010 N   0  0  0  0  0  0  0  0  0  0  0  0
  139.9280   71.2620  226.0480 C   0  0  0  0  0  0  0  0  0  0  0  0
  141.1770   71.3740  226.8890 C   0  0  0  0  0  0  0  0  0  0  0  0
  141.0920   70.2100  227.8240 C   0  0  0  0  0  0  0  0  0  0  0  0
  139.8640   69.4070  227.3910 C   0  0  0  0  0  0  0  0  0  0  0  0
  139.7630   70.7140  223.2750 C   0  0  0  0  0  0  0  0  0  0  0  0
  139.5560   73.6310  222.2880 N   0  0  0  0  0  0  0  0  0  0  0  0
  139.9210   75.0020  222.1250 C   0  0  0  0  0  0  0  0  0  0  0  0
  139.2030   76.0500  222.6420 C   0  0  0  0  0  0  0  0  0  0  0  0
  139.6160   77.3580  222.4300 C   0  0  0  0  0  0  0  0  0  0  0  0
  140.7450   77.6680  221.7070 C   0  0  0  0  0  0  0  0  0  0  0  0
  141.1150   79.0610  221.5080 C   0  0  0  0  0  0  0  0  0  0  0  0
  141.2860   79.6350  220.2680 C   0  0  0  0  0  0  0  0  0  0  0  0
  141.6370   80.9640  220.1220 C   0  0  0  0  0  0  0  0  0  0  0  0
  141.8570   81.6980  218.5350 Cl  0  0  0  0  0  0  0  0  0  0  0  0
  141.8280   81.7680  221.2350 C   0  0  0  0  0  0  0  0  0  0  0  0
  141.6490   81.1600  222.4600 C   0  0  0  0  0  0  0  0  0  0  0  0
  141.3050   79.8510  222.5830 N   0  0  0  0  0  0  0  0  0  0  0  0
  141.4690   76.6220  221.1860 C   0  0  0  0  0  0  0  0  0  0  0  0
  141.0500   75.3050  221.4000 C   0  0  0  0  0  0  0  0  0  0  0  0
  141.2855   72.3359  219.9913 H   0  0  0  0  0  0  0  0  0  0  0  0
  142.2750   72.2361  221.4842 H   0  0  0  0  0  0  0  0  0  0  0  0
  139.1355   70.9498  219.9811 H   0  0  0  0  0  0  0  0  0  0  0  0
  138.3069   68.6554  220.4067 H   0  0  0  0  0  0  0  0  0  0  0  0
  138.4083   67.6571  222.6961 H   0  0  0  0  0  0  0  0  0  0  0  0
  140.0889   71.6729  225.0404 H   0  0  0  0  0  0  0  0  0  0  0  0
  139.0736   71.8231  226.4544 H   0  0  0  0  0  0  0  0  0  0  0  0
  142.0779   71.3059  226.2614 H   0  0  0  0  0  0  0  0  0  0  0  0
  141.2455   72.3363  227.4175 H   0  0  0  0  0  0  0  0  0  0  0  0
  141.9987   69.5919  227.7476 H   0  0  0  0  0  0  0  0  0  0  0  0
  141.0081   70.5400  228.8700 H   0  0  0  0  0  0  0  0  0  0  0  0
  140.0465   68.3247  227.4647 H   0  0  0  0  0  0  0  0  0  0  0  0
  138.9737   69.5839  228.0123 H   0  0  0  0  0  0  0  0  0  0  0  0
  140.1803   71.2985  224.1082 H   0  0  0  0  0  0  0  0  0  0  0  0
  138.2937   75.8525  223.2286 H   0  0  0  0  0  0  0  0  0  0  0  0
  139.0184   78.1775  222.8559 H   0  0  0  0  0  0  0  0  0  0  0  0
  141.1392   79.0188  219.3687 H   0  0  0  0  0  0  0  0  0  0  0  0
  142.1060   82.8286  221.1464 H   0  0  0  0  0  0  0  0  0  0  0  0
  141.7901   81.7577  223.3726 H   0  0  0  0  0  0  0  0  0  0  0  0
  142.3786   76.8210  220.6003 H   0  0  0  0  0  0  0  0  0  0  0  0
  1  2  2  0
  2  3  1  0
  3  4  1  0
  4  5  1  0
  5  6  2  0
  6  7  1  0
  7  8  2  0
  8  9  1  0
  9 10  1  0
 10 11  2  0
 10 12  1  0
 12 13  1  0
 13 14  1  0
 14 15  1  0
 15 16  1  0
  9 17  2  0
  4 18  2  0
 18 19  1  0
 19 20  2  0
 20 21  1  0
 21 22  2  0
 22 23  1  0
 23 24  2  0
 24 25  1  0
 25 26  1  0
 25 27  2  0
 27 28  1  0
 28 29  2  0
 22 30  1  0
 30 31  2  0
 31  2  1  0
 17  5  1  0
 31 19  1  0
 16 12  1  0
 29 23  1  0
  3 32  1  0
  3 33  1  0
  6 34  1  0
  7 35  1  0
  8 36  1  0
 13 37  1  0
 13 38  1  0
 14 39  1  0
 14 40  1  0
 15 41  1  0
 15 42  1  0
 16 43  1  0
 16 44  1  0
 17 45  1  0
 20 46  1  0
 21 47  1  0
 24 48  1  0
 27 49  1  0
 28 50  1  0
 30 51  1  0
M  END
>  <smiles>  (49) 
O=C1CC(c2cccc(C(=O)N3CCCC3)c2)=Nc2ccc(-c3cc(Cl)ccn3)cc21

>  <score_type>  (49) 
oracle

>  <origin>  (49) 
autodockgpu

>  <m_score__min__energy>  (49) 
-9.0099999999999998

>  <m_primary>  (49) 
energy

>  <rmsd>  (49) 
6.130019303155814

>  <m_score__min__rmsd>  (49) 
6.130019303155814

>  <meeko>  (49) 
{"free_energy": -8.9, "intermolecular_energy": -9.79, "internal_energy": -0.77, "cluster_size": 34, "cluster_id": 1, "rank_in_cluster": 18}

>  <energy>  (49) 
-8.26

>  <cluster_rmsd>  (49) 
0.1

>  <cluster>  (49) 
3

$$$$

     RDKit          3D

 51 55  0  0  0  0  0  0  0  0999 V2000
  143.6760   72.3850  220.8540 O   0  0  0  0  0  0  0  0  0  0  0  0
  142.8130   73.2940  220.7970 C   0  0  0  0  0  0  0  0  0  0  0  0
  143.1720   74.5320  220.0790 C   0  0  0  0  0  0  0  0  0  0  0  0
  142.0240   75.4600  220.1120 C   0  0  0  0  0  0  0  0  0  0  0  0
  142.2120   76.7620  219.4310 C   0  0  0  0  0  0  0  0  0  0  0  0
  142.7580   76.8250  218.1510 C   0  0  0  0  0  0  0  0  0  0  0  0
  142.9270   78.0520  217.5240 C   0  0  0  0  0  0  0  0  0  0  0  0
  142.5590   79.2460  218.1480 C   0  0  0  0  0  0  0  0  0  0  0  0
  142.0220   79.1790  219.4100 C   0  0  0  0  0  0  0  0  0  0  0  0
  141.5920   80.3360  220.1810 C   0  0  0  0  0  0  0  0  0  0  0  0
  140.9300   81.2140  219.5420 O   0  0  0  0  0  0  0  0  0  0  0  0
  141.8690   80.5120  221.5550 N   0  0  0  0  0  0  0  0  0  0  0  0
  142.6000   79.6730  222.4900 C   0  0  0  0  0  0  0  0  0  0  0  0
  141.6700   79.6240  223.6790 C   0  0  0  0  0  0  0  0  0  0  0  0
  140.9710   80.9450  223.6500 C   0  0  0  0  0  0  0  0  0  0  0  0
  141.4350   81.6430  222.3700 C   0  0  0  0  0  0  0  0  0  0  0  0
  141.8610   77.9430  220.0220 C   0  0  0  0  0  0  0  0  0  0  0  0
  140.8970   75.2430  220.6760 N   0  0  0  0  0  0  0  0  0  0  0  0
  140.5840   74.0370  221.3720 C   0  0  0  0  0  0  0  0  0  0  0  0
  139.3830   73.8030  221.9910 C   0  0  0  0  0  0  0  0  0  0  0  0
  139.1570   72.6080  222.6590 C   0  0  0  0  0  0  0  0  0  0  0  0
  140.1050   71.6130  222.7340 C   0  0  0  0  0  0  0  0  0  0  0  0
  139.8120   70.3890  223.4640 C   0  0  0  0  0  0  0  0  0  0  0  0
  140.2030   70.1630  224.7650 C   0  0  0  0  0  0  0  0  0  0  0  0
  139.9020   68.9860  225.4230 C   0  0  0  0  0  0  0  0  0  0  0  0
  140.4040   68.6970  227.0870 Cl  0  0  0  0  0  0  0  0  0  0  0  0
  139.1870   67.9850  224.7830 C   0  0  0  0  0  0  0  0  0  0  0  0
  138.8120   68.2440  223.4820 C   0  0  0  0  0  0  0  0  0  0  0  0
  139.1190   69.4080  222.8510 N   0  0  0  0  0  0  0  0  0  0  0  0
  141.3120   71.8420  222.1150 C   0  0  0  0  0  0  0  0  0  0  0  0
  141.5370   73.0470  221.4440 C   0  0  0  0  0  0  0  0  0  0  0  0
  144.0394   75.0017  220.5657 H   0  0  0  0  0  0  0  0  0  0  0  0
  143.4267   74.2946  219.0355 H   0  0  0  0  0  0  0  0  0  0  0  0
  143.0560   75.9000  217.6357 H   0  0  0  0  0  0  0  0  0  0  0  0
  143.3603   78.0845  216.5135 H   0  0  0  0  0  0  0  0  0  0  0  0
  142.6956   80.2134  217.6425 H   0  0  0  0  0  0  0  0  0  0  0  0
  142.7684   78.6683  222.0751 H   0  0  0  0  0  0  0  0  0  0  0  0
  143.6025   80.0556  222.7322 H   0  0  0  0  0  0  0  0  0  0  0  0
  140.9497   78.7988  223.5776 H   0  0  0  0  0  0  0  0  0  0  0  0
  142.2033   79.4493  224.6251 H   0  0  0  0  0  0  0  0  0  0  0  0
  139.8808   80.7996  223.6318 H   0  0  0  0  0  0  0  0  0  0  0  0
  141.2066   81.5438  224.5421 H   0  0  0  0  0  0  0  0  0  0  0  0
  140.6099   82.1896  221.8900 H   0  0  0  0  0  0  0  0  0  0  0  0
  142.2156   82.4007  222.5331 H   0  0  0  0  0  0  0  0  0  0  0  0
  141.4292   77.9131  221.0333 H   0  0  0  0  0  0  0  0  0  0  0  0
  138.5932   74.5680  221.9578 H   0  0  0  0  0  0  0  0  0  0  0  0
  138.1838   72.4500  223.1468 H   0  0  0  0  0  0  0  0  0  0  0  0
  140.7710   70.9416  225.2953 H   0  0  0  0  0  0  0  0  0  0  0  0
  138.9338   67.0392  225.2843 H   0  0  0  0  0  0  0  0  0  0  0  0
  138.2425   67.4793  222.9335 H   0  0  0  0  0  0  0  0  0  0  0  0
  142.1007   71.0760  222.1483 H   0  0  0  0  0  0  0  0  0  0  0  0
  1  2  2  0
  2  3  1  0
  3  4  1  0
  4  5  1  0
  5  6  2  0
  6  7  1  0
  7  8  2  0
  8  9  1  0
  9 10  1  0
 10 11  2  0
 10 12  1  0
 12 13  1  0
 13 14  1  0
 14 15  1  0
 15 16  1  0
  9 17  2  0
  4 18  2  0
 18 19  1  0
 19 20  2  0
 20 21  1  0
 21 22  2  0
 22 23  1  0
 23 24  2  0
 24 25  1  0
 25 26  1  0
 25 27  2  0
 27 28  1  0
 28 29  2  0
 22 30  1  0
 30 31  2  0
 31  2  1  0
 17  5  1  0
 31 19  1  0
 16 12  1  0
 29 23  1  0
  3 32  1  0
  3 33  1  0
  6 34  1  0
  7 35  1  0
  8 36  1  0
 13 37  1  0
 13 38  1  0
 14 39  1  0
 14 40  1  0
 15 41  1  0
 15 42  1  0
 16 43  1  0
 16 44  1  0
 17 45  1  0
 20 46  1  0
 21 47  1  0
 24 48  1  0
 27 49  1  0
 28 50  1  0
 30 51  1  0
M  END
>  <smiles>  (50) 
O=C1CC(c2cccc(C(=O)N3CCCC3)c2)=Nc2ccc(-c3cc(Cl)ccn3)cc21

>  <score_type>  (50) 
oracle

>  <origin>  (50) 
autodockgpu

>  <m_score__min__energy>  (50) 
-9.0099999999999998

>  <m_primary>  (50) 
energy

>  <rmsd>  (50) 
8.346388292137595

>  <m_score__min__rmsd>  (50) 
8.346388292137595

>  <meeko>  (50) 
{"free_energy": -8.26, "intermolecular_energy": -9.15, "internal_energy": -1.0, "cluster_size": 7, "cluster_id": 3, "rank_in_cluster": 7}

>  <energy>  (50) 
-7.85

>  <cluster_rmsd>  (50) 
0.0

>  <cluster>  (50) 
4

$$$$
