
     RDKit          3D

 50 53  0  0  0  0  0  0  0  0999 V2000
  141.0070   71.9110  221.7600 O   0  0  0  0  0  0  0  0  0  0  0  0
  140.0480   71.9840  222.5920 C   0  0  0  0  0  0  0  0  0  0  0  0
  138.9640   72.9060  222.4040 N   0  0  0  0  0  0  0  0  0  0  0  0
  139.0360   73.7370  221.2160 C   0  0  0  0  0  0  0  0  0  0  0  0
  140.2010   74.6650  221.3030 C   0  0  0  0  0  0  0  0  0  0  0  0
  140.2560   75.5900  222.1780 O   0  0  0  0  0  0  0  0  0  0  0  0
  141.2660   74.5010  220.3830 N   0  0  0  0  0  0  0  0  0  0  0  0
  141.1280   73.7920  219.1240 C   0  0  0  0  0  0  0  0  0  0  0  0
  141.7960   74.6790  218.0820 C   0  0  0  0  0  0  0  0  0  0  0  0
  141.9050   76.1010  218.5560 C   0  0  0  0  0  0  0  0  0  0  0  0
  142.8060   76.2410  219.7460 C   0  0  0  0  0  0  0  0  0  0  0  0
  142.5800   75.0610  220.6870 C   0  0  2  0  0  0  0  0  0  0  0  0
  143.6750   74.0750  220.4850 C   0  0  0  0  0  0  0  0  0  0  0  0
  144.9970   74.4700  220.4540 C   0  0  0  0  0  0  0  0  0  0  0  0
  145.9910   73.5110  220.2610 C   0  0  0  0  0  0  0  0  0  0  0  0
  145.6680   72.1630  220.1000 C   0  0  0  0  0  0  0  0  0  0  0  0
  144.3310   71.8150  220.1390 C   0  0  0  0  0  0  0  0  0  0  0  0
  143.4090   72.7710  220.3260 N   0  0  0  0  0  0  0  0  0  0  0  0
  140.0350   71.1180  223.7670 C   0  0  0  0  0  0  0  0  0  0  0  0
  139.4870   69.8540  223.6770 C   0  0  0  0  0  0  0  0  0  0  0  0
  139.4620   69.0180  224.7660 C   0  0  0  0  0  0  0  0  0  0  0  0
  139.9780   69.4050  225.9750 C   0  0  0  0  0  0  0  0  0  0  0  0
  139.9520   68.5730  227.0550 C   0  0  0  0  0  0  0  0  0  0  0  0
  140.4760   68.9870  228.2540 C   0  0  0  0  0  0  0  0  0  0  0  0
  140.4430   68.1500  229.3160 F   0  0  0  0  0  0  0  0  0  0  0  0
  141.0170   70.2400  228.3320 C   0  0  0  0  0  0  0  0  0  0  0  0
  141.0590   71.1160  227.2460 C   0  0  0  0  0  0  0  0  0  0  0  0
  140.5280   70.6890  226.0430 C   0  0  0  0  0  0  0  0  0  0  0  0
  140.5390   71.4880  224.9580 N   0  0  0  0  0  0  0  0  0  0  0  0
  138.1660   72.9750  223.0850 H   0  0  0  0  0  0  0  0  0  0  0  0
  139.1491   73.0947  220.3302 H   0  0  0  0  0  0  0  0  0  0  0  0
  138.1122   74.3289  221.1369 H   0  0  0  0  0  0  0  0  0  0  0  0
  141.6304   72.8148  219.1760 H   0  0  0  0  0  0  0  0  0  0  0  0
  140.0735   73.5976  218.8787 H   0  0  0  0  0  0  0  0  0  0  0  0
  142.8053   74.2922  217.8777 H   0  0  0  0  0  0  0  0  0  0  0  0
  141.1791   74.6655  217.1714 H   0  0  0  0  0  0  0  0  0  0  0  0
  142.3044   76.7166  217.7365 H   0  0  0  0  0  0  0  0  0  0  0  0
  140.8998   76.4316  218.8566 H   0  0  0  0  0  0  0  0  0  0  0  0
  143.8548   76.2517  219.4144 H   0  0  0  0  0  0  0  0  0  0  0  0
  142.5818   77.1812  220.2712 H   0  0  0  0  0  0  0  0  0  0  0  0
  142.5970   75.3619  221.7449 H   0  0  0  0  0  0  0  0  0  0  0  0
  145.2638   75.5297  220.5801 H   0  0  0  0  0  0  0  0  0  0  0  0
  147.0458   73.8219  220.2353 H   0  0  0  0  0  0  0  0  0  0  0  0
  146.4498   71.4043  219.9475 H   0  0  0  0  0  0  0  0  0  0  0  0
  144.0262   70.7650  220.0180 H   0  0  0  0  0  0  0  0  0  0  0  0
  139.0649   69.5122  222.7204 H   0  0  0  0  0  0  0  0  0  0  0  0
  139.0184   68.0164  224.6658 H   0  0  0  0  0  0  0  0  0  0  0  0
  139.5108   67.5694  226.9652 H   0  0  0  0  0  0  0  0  0  0  0  0
  141.4376   70.5725  229.2925 H   0  0  0  0  0  0  0  0  0  0  0  0
  141.5022   72.1179  227.3446 H   0  0  0  0  0  0  0  0  0  0  0  0
  1  2  2  0
  2  3  1  0
  3  4  1  0
  4  5  1  0
  5  6  2  0
  5  7  1  0
  7  8  1  0
  8  9  1  0
  9 10  1  0
 10 11  1  0
 11 12  1  0
 12 13  1  0
 13 14  2  0
 14 15  1  0
 15 16  2  0
 16 17  1  0
 17 18  2  0
  2 19  1  0
 19 20  2  0
 20 21  1  0
 21 22  2  0
 22 23  1  0
 23 24  2  0
 24 25  1  0
 24 26  1  0
 26 27  2  0
 27 28  1  0
 28 29  2  0
 12  7  1  0
 18 13  1  0
 29 19  1  0
 28 22  1  0
  3 30  1  0
  4 31  1  0
  4 32  1  0
  8 33  1  0
  8 34  1  0
  9 35  1  0
  9 36  1  0
 10 37  1  0
 10 38  1  0
 11 39  1  0
 11 40  1  0
 12 41  1  1
 14 42  1  0
 15 43  1  0
 16 44  1  0
 17 45  1  0
 20 46  1  0
 21 47  1  0
 23 48  1  0
 26 49  1  0
 27 50  1  0
M  END
>  <smiles>  (1) 
O=C(NCC(=O)N1CCCCC1c1ccccn1)c1ccc2cc(F)ccc2n1

>  <score_type>  (1) 
oracle

>  <origin>  (1) 
autodockgpu

>  <m_score__min__energy>  (1) 
-8.7100000000000009

>  <m_primary>  (1) 
energy

>  <rmsd>  (1) 
4.0436401367257915

>  <m_score__min__rmsd>  (1) 
4.0436401367257915

>  <meeko>  (1) 
{"free_energy": -8.18, "intermolecular_energy": -9.67, "internal_energy": -1.56, "cluster_size": 7, "cluster_id": 2, "rank_in_cluster": 1}

>  <energy>  (1) 
-8.71

>  <cluster_rmsd>  (1) 
0.0

>  <cluster>  (1) 
1

$$$$

     RDKit          3D

 50 53  0  0  0  0  0  0  0  0999 V2000
  141.2150   72.2940  221.5980 O   0  0  0  0  0  0  0  0  0  0  0  0
  140.3060   72.4880  222.4670 C   0  0  0  0  0  0  0  0  0  0  0  0
  139.3740   73.5710  222.3450 N   0  0  0  0  0  0  0  0  0  0  0  0
  139.5370   74.4210  221.1790 C   0  0  0  0  0  0  0  0  0  0  0  0
  140.6240   75.4170  221.4110 C   0  0  0  0  0  0  0  0  0  0  0  0
  141.8350   75.0590  221.5750 O   0  0  0  0  0  0  0  0  0  0  0  0
  140.2840   76.7920  221.4480 N   0  0  0  0  0  0  0  0  0  0  0  0
  140.3580   77.6610  220.2880 C   0  0  0  0  0  0  0  0  0  0  0  0
  139.0530   78.4480  220.2840 C   0  0  0  0  0  0  0  0  0  0  0  0
  137.9940   77.7610  221.0990 C   0  0  0  0  0  0  0  0  0  0  0  0
  138.3430   77.6930  222.5550 C   0  0  0  0  0  0  0  0  0  0  0  0
  139.8330   77.3950  222.6990 C   0  0  2  0  0  0  0  0  0  0  0  0
  140.5450   78.6630  223.0040 C   0  0  0  0  0  0  0  0  0  0  0  0
  141.9130   78.6910  223.1880 C   0  0  0  0  0  0  0  0  0  0  0  0
  142.5380   79.9040  223.4730 C   0  0  0  0  0  0  0  0  0  0  0  0
  141.8040   81.0860  223.5730 C   0  0  0  0  0  0  0  0  0  0  0  0
  140.4370   81.0100  223.3800 C   0  0  0  0  0  0  0  0  0  0  0  0
  139.8780   79.8220  223.1090 N   0  0  0  0  0  0  0  0  0  0  0  0
  140.1960   71.5950  223.6170 C   0  0  0  0  0  0  0  0  0  0  0  0
  139.5790   70.3690  223.4720 C   0  0  0  0  0  0  0  0  0  0  0  0
  139.4610   69.5090  224.5360 C   0  0  0  0  0  0  0  0  0  0  0  0
  139.9500   69.8350  225.7740 C   0  0  0  0  0  0  0  0  0  0  0  0
  139.8330   68.9790  226.8300 C   0  0  0  0  0  0  0  0  0  0  0  0
  140.3310   69.3320  228.0580 C   0  0  0  0  0  0  0  0  0  0  0  0
  140.2070   68.4730  229.0960 F   0  0  0  0  0  0  0  0  0  0  0  0
  140.9410   70.5480  228.1910 C   0  0  0  0  0  0  0  0  0  0  0  0
  141.0770   71.4470  227.1310 C   0  0  0  0  0  0  0  0  0  0  0  0
  140.5710   71.0820  225.8980 C   0  0  0  0  0  0  0  0  0  0  0  0
  140.6720   71.9050  224.8360 N   0  0  0  0  0  0  0  0  0  0  0  0
  138.6190   73.7410  223.0560 H   0  0  0  0  0  0  0  0  0  0  0  0
  139.7949   73.7985  220.3095 H   0  0  0  0  0  0  0  0  0  0  0  0
  138.5947   74.9571  220.9929 H   0  0  0  0  0  0  0  0  0  0  0  0
  141.2174   78.3424  220.3724 H   0  0  0  0  0  0  0  0  0  0  0  0
  140.4922   77.0891  219.3580 H   0  0  0  0  0  0  0  0  0  0  0  0
  139.2367   79.4472  220.7057 H   0  0  0  0  0  0  0  0  0  0  0  0
  138.6968   78.5210  219.2458 H   0  0  0  0  0  0  0  0  0  0  0  0
  137.0497   78.3141  220.9882 H   0  0  0  0  0  0  0  0  0  0  0  0
  137.9047   76.7291  220.7286 H   0  0  0  0  0  0  0  0  0  0  0  0
  138.1121   78.6558  223.0343 H   0  0  0  0  0  0  0  0  0  0  0  0
  137.7578   76.8973  223.0392 H   0  0  0  0  0  0  0  0  0  0  0  0
  140.0404   76.6943  223.5212 H   0  0  0  0  0  0  0  0  0  0  0  0
  142.5034   77.7661  223.1105 H   0  0  0  0  0  0  0  0  0  0  0  0
  143.6276   79.9295  223.6215 H   0  0  0  0  0  0  0  0  0  0  0  0
  142.2952   82.0443  223.7974 H   0  0  0  0  0  0  0  0  0  0  0  0
  139.8148   81.9146  223.4481 H   0  0  0  0  0  0  0  0  0  0  0  0
  139.1763   70.0768  222.4909 H   0  0  0  0  0  0  0  0  0  0  0  0
  138.9638   68.5385  224.3916 H   0  0  0  0  0  0  0  0  0  0  0  0
  139.3390   68.0053  226.6963 H   0  0  0  0  0  0  0  0  0  0  0  0
  141.3421   70.8307  229.1755 H   0  0  0  0  0  0  0  0  0  0  0  0
  141.5730   72.4184  227.2736 H   0  0  0  0  0  0  0  0  0  0  0  0
  1  2  2  0
  2  3  1  0
  3  4  1  0
  4  5  1  0
  5  6  2  0
  5  7  1  0
  7  8  1  0
  8  9  1  0
  9 10  1  0
 10 11  1  0
 11 12  1  0
 12 13  1  0
 13 14  2  0
 14 15  1  0
 15 16  2  0
 16 17  1  0
 17 18  2  0
  2 19  1  0
 19 20  2  0
 20 21  1  0
 21 22  2  0
 22 23  1  0
 23 24  2  0
 24 25  1  0
 24 26  1  0
 26 27  2  0
 27 28  1  0
 28 29  2  0
 12  7  1  0
 18 13  1  0
 29 19  1  0
 28 22  1  0
  3 30  1  0
  4 31  1  0
  4 32  1  0
  8 33  1  0
  8 34  1  0
  9 35  1  0
  9 36  1  0
 10 37  1  0
 10 38  1  0
 11 39  1  0
 11 40  1  0
 12 41  1  1
 14 42  1  0
 15 43  1  0
 16 44  1  0
 17 45  1  0
 20 46  1  0
 21 47  1  0
 23 48  1  0
 26 49  1  0
 27 50  1  0
M  END
>  <smiles>  (2) 
O=C(NCC(=O)N1CCCCC1c1ccccn1)c1ccc2cc(F)ccc2n1

>  <score_type>  (2) 
oracle

>  <origin>  (2) 
autodockgpu

>  <m_score__min__energy>  (2) 
-8.7100000000000009

>  <m_primary>  (2) 
energy

>  <rmsd>  (2) 
3.0055338425395286

>  <m_score__min__rmsd>  (2) 
3.0055338425395286

>  <meeko>  (2) 
{"free_energy": -8.69, "intermolecular_energy": -10.18, "internal_energy": -1.42, "cluster_size": 37, "cluster_id": 1, "rank_in_cluster": 4}

>  <energy>  (2) 
-8.7

>  <cluster_rmsd>  (2) 
0.14

>  <cluster>  (2) 
1

$$$$

     RDKit          3D

 50 53  0  0  0  0  0  0  0  0999 V2000
  140.2740   70.7490  221.3950 O   0  0  0  0  0  0  0  0  0  0  0  0
  139.9290   71.3010  222.4880 C   0  0  0  0  0  0  0  0  0  0  0  0
  139.5490   72.6830  222.5400 N   0  0  0  0  0  0  0  0  0  0  0  0
  139.5860   73.4000  221.2780 C   0  0  0  0  0  0  0  0  0  0  0  0
  140.7820   74.2900  221.2220 C   0  0  0  0  0  0  0  0  0  0  0  0
  140.8830   75.3220  221.9630 O   0  0  0  0  0  0  0  0  0  0  0  0
  141.8240   73.9670  220.3180 N   0  0  0  0  0  0  0  0  0  0  0  0
  141.6280   73.8600  218.8840 C   0  0  0  0  0  0  0  0  0  0  0  0
  142.7850   74.6270  218.2560 C   0  0  0  0  0  0  0  0  0  0  0  0
  143.3990   75.5920  219.2310 C   0  0  0  0  0  0  0  0  0  0  0  0
  144.0430   74.9020  220.3950 C   0  0  0  0  0  0  0  0  0  0  0  0
  143.1720   73.7230  220.8220 C   0  0  2  0  0  0  0  0  0  0  0  0
  143.7630   72.4730  220.2750 C   0  0  0  0  0  0  0  0  0  0  0  0
  145.0700   72.4320  219.8330 C   0  0  0  0  0  0  0  0  0  0  0  0
  145.5810   71.2380  219.3280 C   0  0  0  0  0  0  0  0  0  0  0  0
  144.7940   70.0880  219.2640 C   0  0  0  0  0  0  0  0  0  0  0  0
  143.4910   70.1770  219.7180 C   0  0  0  0  0  0  0  0  0  0  0  0
  143.0410   71.3460  220.1950 N   0  0  0  0  0  0  0  0  0  0  0  0
  139.9120   70.5230  223.7230 C   0  0  0  0  0  0  0  0  0  0  0  0
  139.3000   69.2850  223.7420 C   0  0  0  0  0  0  0  0  0  0  0  0
  139.2700   68.5320  224.8900 C   0  0  0  0  0  0  0  0  0  0  0  0
  139.8440   68.9770  226.0510 C   0  0  0  0  0  0  0  0  0  0  0  0
  139.8130   68.2270  227.1900 C   0  0  0  0  0  0  0  0  0  0  0  0
  140.3960   68.6980  228.3390 C   0  0  0  0  0  0  0  0  0  0  0  0
  140.3560   67.9430  229.4600 F   0  0  0  0  0  0  0  0  0  0  0  0
  141.0000   69.9240  228.3090 C   0  0  0  0  0  0  0  0  0  0  0  0
  141.0490   70.7170  227.1610 C   0  0  0  0  0  0  0  0  0  0  0  0
  140.4590   70.2330  226.0090 C   0  0  0  0  0  0  0  0  0  0  0  0
  140.4730   70.9510  224.8690 N   0  0  0  0  0  0  0  0  0  0  0  0
  139.2620   73.1490  223.4370 H   0  0  0  0  0  0  0  0  0  0  0  0
  139.6334   72.6763  220.4509 H   0  0  0  0  0  0  0  0  0  0  0  0
  138.6783   74.0151  221.1896 H   0  0  0  0  0  0  0  0  0  0  0  0
  141.6506   72.8058  218.5706 H   0  0  0  0  0  0  0  0  0  0  0  0
  140.6537   74.2659  218.5741 H   0  0  0  0  0  0  0  0  0  0  0  0
  143.5535   73.9108  217.9297 H   0  0  0  0  0  0  0  0  0  0  0  0
  142.3961   75.2000  217.4013 H   0  0  0  0  0  0  0  0  0  0  0  0
  144.1625   76.1853  218.7064 H   0  0  0  0  0  0  0  0  0  0  0  0
  142.5920   76.2274  219.6246 H   0  0  0  0  0  0  0  0  0  0  0  0
  145.0386   74.5373  220.1021 H   0  0  0  0  0  0  0  0  0  0  0  0
  144.1474   75.6077  221.2323 H   0  0  0  0  0  0  0  0  0  0  0  0
  143.1230   73.6143  221.9155 H   0  0  0  0  0  0  0  0  0  0  0  0
  145.7011   73.3318  219.8789 H   0  0  0  0  0  0  0  0  0  0  0  0
  146.6219   71.2017  218.9741 H   0  0  0  0  0  0  0  0  0  0  0  0
  145.1956   69.1442  218.8666 H   0  0  0  0  0  0  0  0  0  0  0  0
  142.8307   69.2977  219.6880 H   0  0  0  0  0  0  0  0  0  0  0  0
  138.8306   68.8972  222.8259 H   0  0  0  0  0  0  0  0  0  0  0  0
  138.7742   67.5502  224.8767 H   0  0  0  0  0  0  0  0  0  0  0  0
  139.3201   67.2436  227.1872 H   0  0  0  0  0  0  0  0  0  0  0  0
  141.4680   70.3023  229.2298 H   0  0  0  0  0  0  0  0  0  0  0  0
  141.5434   71.6996  227.1732 H   0  0  0  0  0  0  0  0  0  0  0  0
  1  2  2  0
  2  3  1  0
  3  4  1  0
  4  5  1  0
  5  6  2  0
  5  7  1  0
  7  8  1  0
  8  9  1  0
  9 10  1  0
 10 11  1  0
 11 12  1  0
 12 13  1  0
 13 14  2  0
 14 15  1  0
 15 16  2  0
 16 17  1  0
 17 18  2  0
  2 19  1  0
 19 20  2  0
 20 21  1  0
 21 22  2  0
 22 23  1  0
 23 24  2  0
 24 25  1  0
 24 26  1  0
 26 27  2  0
 27 28  1  0
 28 29  2  0
 12  7  1  0
 18 13  1  0
 29 19  1  0
 28 22  1  0
  3 30  1  0
  4 31  1  0
  4 32  1  0
  8 33  1  0
  8 34  1  0
  9 35  1  0
  9 36  1  0
 10 37  1  0
 10 38  1  0
 11 39  1  0
 11 40  1  0
 12 41  1  1
 14 42  1  0
 15 43  1  0
 16 44  1  0
 17 45  1  0
 20 46  1  0
 21 47  1  0
 23 48  1  0
 26 49  1  0
 27 50  1  0
M  END
>  <smiles>  (3) 
O=C(NCC(=O)N1CCCCC1c1ccccn1)c1ccc2cc(F)ccc2n1

>  <score_type>  (3) 
oracle

>  <origin>  (3) 
autodockgpu

>  <m_score__min__energy>  (3) 
-8.7100000000000009

>  <m_primary>  (3) 
energy

>  <rmsd>  (3) 
4.898701472915888

>  <m_score__min__rmsd>  (3) 
4.898701472915888

>  <meeko>  (3) 
{"free_energy": -7.56, "intermolecular_energy": -9.05, "internal_energy": -1.83, "cluster_size": 7, "cluster_id": 2, "rank_in_cluster": 5}

>  <energy>  (3) 
-8.7

>  <cluster_rmsd>  (3) 
0.1

>  <cluster>  (3) 
1

$$$$

     RDKit          3D

 50 53  0  0  0  0  0  0  0  0999 V2000
  140.5770   71.8120  221.1250 O   0  0  0  0  0  0  0  0  0  0  0  0
  139.8910   72.1600  222.1380 C   0  0  0  0  0  0  0  0  0  0  0  0
  139.0460   73.3190  222.1050 N   0  0  0  0  0  0  0  0  0  0  0  0
  139.0300   74.0590  220.8560 C   0  0  0  0  0  0  0  0  0  0  0  0
  140.1080   75.0900  220.8500 C   0  0  0  0  0  0  0  0  0  0  0  0
  140.0140   76.1600  221.5360 O   0  0  0  0  0  0  0  0  0  0  0  0
  141.2600   74.8590  220.0580 N   0  0  0  0  0  0  0  0  0  0  0  0
  141.2180   74.1990  218.7660 C   0  0  0  0  0  0  0  0  0  0  0  0
  142.0790   75.0530  217.8440 C   0  0  0  0  0  0  0  0  0  0  0  0
  142.2470   76.4470  218.3810 C   0  0  0  0  0  0  0  0  0  0  0  0
  143.0050   76.4760  219.6740 C   0  0  0  0  0  0  0  0  0  0  0  0
  142.5690   75.2940  220.5370 C   0  0  2  0  0  0  0  0  0  0  0  0
  143.5940   74.2230  220.4290 C   0  0  0  0  0  0  0  0  0  0  0  0
  143.2560   72.8910  220.5620 C   0  0  0  0  0  0  0  0  0  0  0  0
  144.2510   71.9210  220.4540 C   0  0  0  0  0  0  0  0  0  0  0  0
  145.5790   72.2760  220.2140 C   0  0  0  0  0  0  0  0  0  0  0  0
  145.8700   73.6210  220.0880 C   0  0  0  0  0  0  0  0  0  0  0  0
  144.8820   74.5200  220.1990 N   0  0  0  0  0  0  0  0  0  0  0  0
  139.9510   71.3710  223.3650 C   0  0  0  0  0  0  0  0  0  0  0  0
  139.4860   70.0720  223.3640 C   0  0  0  0  0  0  0  0  0  0  0  0
  139.5310   69.3070  224.5040 C   0  0  0  0  0  0  0  0  0  0  0  0
  140.0380   69.8020  225.6760 C   0  0  0  0  0  0  0  0  0  0  0  0
  140.0820   69.0410  226.8070 C   0  0  0  0  0  0  0  0  0  0  0  0
  140.5950   69.5630  227.9670 C   0  0  0  0  0  0  0  0  0  0  0  0
  140.6310   68.7960  229.0800 F   0  0  0  0  0  0  0  0  0  0  0  0
  141.0540   70.8510  227.9570 C   0  0  0  0  0  0  0  0  0  0  0  0
  141.0230   71.6570  226.8170 C   0  0  0  0  0  0  0  0  0  0  0  0
  140.5040   71.1210  225.6540 C   0  0  0  0  0  0  0  0  0  0  0  0
  140.4470   71.8480  224.5210 N   0  0  0  0  0  0  0  0  0  0  0  0
  138.4740   73.6160  222.9360 H   0  0  0  0  0  0  0  0  0  0  0  0
  139.1896   73.3625  220.0197 H   0  0  0  0  0  0  0  0  0  0  0  0
  138.0563   74.5595  220.7496 H   0  0  0  0  0  0  0  0  0  0  0  0
  141.6279   73.1810  218.8409 H   0  0  0  0  0  0  0  0  0  0  0  0
  140.1887   74.1033  218.3901 H   0  0  0  0  0  0  0  0  0  0  0  0
  143.0701   74.5858  217.7463 H   0  0  0  0  0  0  0  0  0  0  0  0
  141.5784   75.1179  216.8667 H   0  0  0  0  0  0  0  0  0  0  0  0
  142.7927   77.0478  217.6385 H   0  0  0  0  0  0  0  0  0  0  0  0
  141.2435   76.8549  218.5723 H   0  0  0  0  0  0  0  0  0  0  0  0
  144.0836   76.4048  219.4701 H   0  0  0  0  0  0  0  0  0  0  0  0
  142.7972   77.4174  220.2037 H   0  0  0  0  0  0  0  0  0  0  0  0
  142.4824   75.5630  221.6001 H   0  0  0  0  0  0  0  0  0  0  0  0
  142.2126   72.5984  220.7512 H   0  0  0  0  0  0  0  0  0  0  0  0
  143.9852   70.8588  220.5596 H   0  0  0  0  0  0  0  0  0  0  0  0
  146.3661   71.5124  220.1282 H   0  0  0  0  0  0  0  0  0  0  0  0
  146.9022   73.9506  219.8985 H   0  0  0  0  0  0  0  0  0  0  0  0
  139.0740   69.6435  222.4385 H   0  0  0  0  0  0  0  0  0  0  0  0
  139.1518   68.2748  224.4750 H   0  0  0  0  0  0  0  0  0  0  0  0
  139.7057   68.0075  226.7889 H   0  0  0  0  0  0  0  0  0  0  0  0
  141.4654   71.2703  228.8870 H   0  0  0  0  0  0  0  0  0  0  0  0
  141.4011   72.6896  226.8441 H   0  0  0  0  0  0  0  0  0  0  0  0
  1  2  2  0
  2  3  1  0
  3  4  1  0
  4  5  1  0
  5  6  2  0
  5  7  1  0
  7  8  1  0
  8  9  1  0
  9 10  1  0
 10 11  1  0
 11 12  1  0
 12 13  1  0
 13 14  2  0
 14 15  1  0
 15 16  2  0
 16 17  1  0
 17 18  2  0
  2 19  1  0
 19 20  2  0
 20 21  1  0
 21 22  2  0
 22 23  1  0
 23 24  2  0
 24 25  1  0
 24 26  1  0
 26 27  2  0
 27 28  1  0
 28 29  2  0
 12  7  1  0
 18 13  1  0
 29 19  1  0
 28 22  1  0
  3 30  1  0
  4 31  1  0
  4 32  1  0
  8 33  1  0
  8 34  1  0
  9 35  1  0
  9 36  1  0
 10 37  1  0
 10 38  1  0
 11 39  1  0
 11 40  1  0
 12 41  1  1
 14 42  1  0
 15 43  1  0
 16 44  1  0
 17 45  1  0
 20 46  1  0
 21 47  1  0
 23 48  1  0
 26 49  1  0
 27 50  1  0
M  END
>  <smiles>  (4) 
O=C(NCC(=O)N1CCCCC1c1ccccn1)c1ccc2cc(F)ccc2n1

>  <score_type>  (4) 
oracle

>  <origin>  (4) 
autodockgpu

>  <m_score__min__energy>  (4) 
-8.7100000000000009

>  <m_primary>  (4) 
energy

>  <rmsd>  (4) 
4.161124813849035

>  <m_score__min__rmsd>  (4) 
4.161124813849035

>  <meeko>  (4) 
{"free_energy": -7.71, "intermolecular_energy": -9.2, "internal_energy": -1.71, "cluster_size": 7, "cluster_id": 2, "rank_in_cluster": 3}

>  <energy>  (4) 
-8.69

>  <cluster_rmsd>  (4) 
0.59

>  <cluster>  (4) 
1

$$$$

     RDKit          3D

 50 53  0  0  0  0  0  0  0  0999 V2000
  141.1380   71.9090  221.2890 O   0  0  0  0  0  0  0  0  0  0  0  0
  140.3980   72.3530  222.2230 C   0  0  0  0  0  0  0  0  0  0  0  0
  139.7440   73.6260  222.1180 N   0  0  0  0  0  0  0  0  0  0  0  0
  139.9840   74.3630  220.8910 C   0  0  0  0  0  0  0  0  0  0  0  0
  140.9810   75.4480  221.1240 C   0  0  0  0  0  0  0  0  0  0  0  0
  142.2330   75.2130  221.1440 O   0  0  0  0  0  0  0  0  0  0  0  0
  140.5080   76.7680  221.3260 N   0  0  0  0  0  0  0  0  0  0  0  0
  140.3520   77.7310  220.2510 C   0  0  0  0  0  0  0  0  0  0  0  0
  138.9820   78.3630  220.4660 C   0  0  0  0  0  0  0  0  0  0  0  0
  138.1060   77.4980  221.3270 C   0  0  0  0  0  0  0  0  0  0  0  0
  138.6340   77.3530  222.7220 C   0  0  0  0  0  0  0  0  0  0  0  0
  140.1530   77.2140  222.6700 C   0  0  2  0  0  0  0  0  0  0  0  0
  140.7630   78.5270  223.0100 C   0  0  0  0  0  0  0  0  0  0  0  0
  142.1300   78.6700  223.1390 C   0  0  0  0  0  0  0  0  0  0  0  0
  142.6570   79.9200  223.4600 C   0  0  0  0  0  0  0  0  0  0  0  0
  141.8260   81.0240  223.6500 C   0  0  0  0  0  0  0  0  0  0  0  0
  140.4640   80.8330  223.5100 C   0  0  0  0  0  0  0  0  0  0  0  0
  140.0010   79.6130  223.2010 N   0  0  0  0  0  0  0  0  0  0  0  0
  140.1970   71.5600  223.4320 C   0  0  0  0  0  0  0  0  0  0  0  0
  139.4170   70.4230  223.3820 C   0  0  0  0  0  0  0  0  0  0  0  0
  139.2120   69.6580  224.5040 C   0  0  0  0  0  0  0  0  0  0  0  0
  139.7720   69.9940  225.7080 C   0  0  0  0  0  0  0  0  0  0  0  0
  139.5680   69.2330  226.8210 C   0  0  0  0  0  0  0  0  0  0  0  0
  140.1410   69.5930  228.0140 C   0  0  0  0  0  0  0  0  0  0  0  0
  139.9280   68.8280  229.1090 F   0  0  0  0  0  0  0  0  0  0  0  0
  140.9130   70.7200  228.0540 C   0  0  0  0  0  0  0  0  0  0  0  0
  141.1420   71.5210  226.9330 C   0  0  0  0  0  0  0  0  0  0  0  0
  140.5590   71.1500  225.7370 C   0  0  0  0  0  0  0  0  0  0  0  0
  140.7430   71.8810  224.6200 N   0  0  0  0  0  0  0  0  0  0  0  0
  139.1300   74.0020  222.8830 H   0  0  0  0  0  0  0  0  0  0  0  0
  140.3693   73.6749  220.1241 H   0  0  0  0  0  0  0  0  0  0  0  0
  139.0386   74.8129  220.5537 H   0  0  0  0  0  0  0  0  0  0  0  0
  141.1407   78.4961  220.3028 H   0  0  0  0  0  0  0  0  0  0  0  0
  140.4313   77.2553  219.2624 H   0  0  0  0  0  0  0  0  0  0  0  0
  139.1116   79.3396  220.9553 H   0  0  0  0  0  0  0  0  0  0  0  0
  138.4970   78.4778  219.4854 H   0  0  0  0  0  0  0  0  0  0  0  0
  137.1035   77.9483  221.3745 H   0  0  0  0  0  0  0  0  0  0  0  0
  138.0788   76.4957  220.8746 H   0  0  0  0  0  0  0  0  0  0  0  0
  138.3656   78.2420  223.3116 H   0  0  0  0  0  0  0  0  0  0  0  0
  138.1964   76.4602  223.1926 H   0  0  0  0  0  0  0  0  0  0  0  0
  140.5297   76.4774  223.3949 H   0  0  0  0  0  0  0  0  0  0  0  0
  142.7959   77.8072  222.9902 H   0  0  0  0  0  0  0  0  0  0  0  0
  143.7456   80.0376  223.5652 H   0  0  0  0  0  0  0  0  0  0  0  0
  142.2397   82.0115  223.9023 H   0  0  0  0  0  0  0  0  0  0  0  0
  139.7675   81.6728  223.6505 H   0  0  0  0  0  0  0  0  0  0  0  0
  138.9529   70.1251  222.4302 H   0  0  0  0  0  0  0  0  0  0  0  0
  138.5851   68.7568  224.4343 H   0  0  0  0  0  0  0  0  0  0  0  0
  138.9433   68.3295  226.7620 H   0  0  0  0  0  0  0  0  0  0  0  0
  141.3738   71.0087  229.0102 H   0  0  0  0  0  0  0  0  0  0  0  0
  141.7691   72.4222  227.0007 H   0  0  0  0  0  0  0  0  0  0  0  0
  1  2  2  0
  2  3  1  0
  3  4  1  0
  4  5  1  0
  5  6  2  0
  5  7  1  0
  7  8  1  0
  8  9  1  0
  9 10  1  0
 10 11  1  0
 11 12  1  0
 12 13  1  0
 13 14  2  0
 14 15  1  0
 15 16  2  0
 16 17  1  0
 17 18  2  0
  2 19  1  0
 19 20  2  0
 20 21  1  0
 21 22  2  0
 22 23  1  0
 23 24  2  0
 24 25  1  0
 24 26  1  0
 26 27  2  0
 27 28  1  0
 28 29  2  0
 12  7  1  0
 18 13  1  0
 29 19  1  0
 28 22  1  0
  3 30  1  0
  4 31  1  0
  4 32  1  0
  8 33  1  0
  8 34  1  0
  9 35  1  0
  9 36  1  0
 10 37  1  0
 10 38  1  0
 11 39  1  0
 11 40  1  0
 12 41  1  1
 14 42  1  0
 15 43  1  0
 16 44  1  0
 17 45  1  0
 20 46  1  0
 21 47  1  0
 23 48  1  0
 26 49  1  0
 27 50  1  0
M  END
>  <smiles>  (5) 
O=C(NCC(=O)N1CCCCC1c1ccccn1)c1ccc2cc(F)ccc2n1

>  <score_type>  (5) 
oracle

>  <origin>  (5) 
autodockgpu

>  <m_score__min__energy>  (5) 
-8.7100000000000009

>  <m_primary>  (5) 
energy

>  <rmsd>  (5) 
3.032389103858685

>  <m_score__min__rmsd>  (5) 
3.032389103858685

>  <meeko>  (5) 
{"free_energy": -8.49, "intermolecular_energy": -9.99, "internal_energy": -1.47, "cluster_size": 37, "cluster_id": 1, "rank_in_cluster": 28}

>  <energy>  (5) 
-8.67

>  <cluster_rmsd>  (5) 
0.58

>  <cluster>  (5) 
1

$$$$

     RDKit          3D

 50 53  0  0  0  0  0  0  0  0999 V2000
  141.1300   72.2190  221.4710 O   0  0  0  0  0  0  0  0  0  0  0  0
  140.2910   72.4670  222.3950 C   0  0  0  0  0  0  0  0  0  0  0  0
  139.4290   73.6110  222.3340 N   0  0  0  0  0  0  0  0  0  0  0  0
  139.5770   74.4570  221.1630 C   0  0  0  0  0  0  0  0  0  0  0  0
  140.7180   75.4010  221.3460 C   0  0  0  0  0  0  0  0  0  0  0  0
  141.9200   74.9880  221.4340 O   0  0  0  0  0  0  0  0  0  0  0  0
  140.4420   76.7880  221.4220 N   0  0  0  0  0  0  0  0  0  0  0  0
  140.5310   77.6810  220.2810 C   0  0  0  0  0  0  0  0  0  0  0  0
  139.2640   78.5250  220.3240 C   0  0  0  0  0  0  0  0  0  0  0  0
  138.1910   77.8670  221.1450 C   0  0  0  0  0  0  0  0  0  0  0  0
  138.5670   77.7490  222.5910 C   0  0  0  0  0  0  0  0  0  0  0  0
  140.0450   77.3800  222.6960 C   0  0  2  0  0  0  0  0  0  0  0  0
  140.8200   78.6080  223.0150 C   0  0  0  0  0  0  0  0  0  0  0  0
  140.2040   79.7280  223.5380 C   0  0  0  0  0  0  0  0  0  0  0  0
  140.9710   80.8570  223.8210 C   0  0  0  0  0  0  0  0  0  0  0  0
  142.3460   80.8710  223.5850 C   0  0  0  0  0  0  0  0  0  0  0  0
  142.9180   79.7270  223.0610 C   0  0  0  0  0  0  0  0  0  0  0  0
  142.1430   78.6640  222.8040 N   0  0  0  0  0  0  0  0  0  0  0  0
  140.1920   71.5750  223.5470 C   0  0  0  0  0  0  0  0  0  0  0  0
  139.5840   70.3440  223.4060 C   0  0  0  0  0  0  0  0  0  0  0  0
  139.4770   69.4850  224.4720 C   0  0  0  0  0  0  0  0  0  0  0  0
  139.9670   69.8170  225.7070 C   0  0  0  0  0  0  0  0  0  0  0  0
  139.8600   68.9620  226.7650 C   0  0  0  0  0  0  0  0  0  0  0  0
  140.3600   69.3210  227.9920 C   0  0  0  0  0  0  0  0  0  0  0  0
  140.2460   68.4630  229.0310 F   0  0  0  0  0  0  0  0  0  0  0  0
  140.9600   70.5420  228.1200 C   0  0  0  0  0  0  0  0  0  0  0  0
  141.0860   71.4400  227.0580 C   0  0  0  0  0  0  0  0  0  0  0  0
  140.5790   71.0690  225.8280 C   0  0  0  0  0  0  0  0  0  0  0  0
  140.6700   71.8910  224.7640 N   0  0  0  0  0  0  0  0  0  0  0  0
  138.7320   73.8260  223.0910 H   0  0  0  0  0  0  0  0  0  0  0  0
  139.7656   73.8266  220.2815 H   0  0  0  0  0  0  0  0  0  0  0  0
  138.6528   75.0365  221.0215 H   0  0  0  0  0  0  0  0  0  0  0  0
  141.4220   78.3209  220.3624 H   0  0  0  0  0  0  0  0  0  0  0  0
  140.6197   77.1265  219.3352 H   0  0  0  0  0  0  0  0  0  0  0  0
  139.5017   79.5042  220.7653 H   0  0  0  0  0  0  0  0  0  0  0  0
  138.8904   78.6390  219.2957 H   0  0  0  0  0  0  0  0  0  0  0  0
  137.2708   78.4646  221.0673 H   0  0  0  0  0  0  0  0  0  0  0  0
  138.0463   76.8495  220.7528 H   0  0  0  0  0  0  0  0  0  0  0  0
  138.3907   78.7098  223.0968 H   0  0  0  0  0  0  0  0  0  0  0  0
  137.9562   76.9694  223.0697 H   0  0  0  0  0  0  0  0  0  0  0  0
  140.2374   76.6507  223.4967 H   0  0  0  0  0  0  0  0  0  0  0  0
  139.1207   79.7291  223.7290 H   0  0  0  0  0  0  0  0  0  0  0  0
  140.4843   81.7514  224.2371 H   0  0  0  0  0  0  0  0  0  0  0  0
  142.9532   81.7607  223.8080 H   0  0  0  0  0  0  0  0  0  0  0  0
  143.9983   79.6893  222.8570 H   0  0  0  0  0  0  0  0  0  0  0  0
  139.1799   70.0471  222.4270 H   0  0  0  0  0  0  0  0  0  0  0  0
  138.9876   68.5100  224.3310 H   0  0  0  0  0  0  0  0  0  0  0  0
  139.3728   67.9844  226.6346 H   0  0  0  0  0  0  0  0  0  0  0  0
  141.3614   70.8302  229.1028 H   0  0  0  0  0  0  0  0  0  0  0  0
  141.5752   72.4153  227.1972 H   0  0  0  0  0  0  0  0  0  0  0  0
  1  2  2  0
  2  3  1  0
  3  4  1  0
  4  5  1  0
  5  6  2  0
  5  7  1  0
  7  8  1  0
  8  9  1  0
  9 10  1  0
 10 11  1  0
 11 12  1  0
 12 13  1  0
 13 14  2  0
 14 15  1  0
 15 16  2  0
 16 17  1  0
 17 18  2  0
  2 19  1  0
 19 20  2  0
 20 21  1  0
 21 22  2  0
 22 23  1  0
 23 24  2  0
 24 25  1  0
 24 26  1  0
 26 27  2  0
 27 28  1  0
 28 29  2  0
 12  7  1  0
 18 13  1  0
 29 19  1  0
 28 22  1  0
  3 30  1  0
  4 31  1  0
  4 32  1  0
  8 33  1  0
  8 34  1  0
  9 35  1  0
  9 36  1  0
 10 37  1  0
 10 38  1  0
 11 39  1  0
 11 40  1  0
 12 41  1  1
 14 42  1  0
 15 43  1  0
 16 44  1  0
 17 45  1  0
 20 46  1  0
 21 47  1  0
 23 48  1  0
 26 49  1  0
 27 50  1  0
M  END
>  <smiles>  (6) 
O=C(NCC(=O)N1CCCCC1c1ccccn1)c1ccc2cc(F)ccc2n1

>  <score_type>  (6) 
oracle

>  <origin>  (6) 
autodockgpu

>  <m_score__min__energy>  (6) 
-8.7100000000000009

>  <m_primary>  (6) 
energy

>  <rmsd>  (6) 
2.9312368776388236

>  <m_score__min__rmsd>  (6) 
2.9312368776388236

>  <meeko>  (6) 
{"free_energy": -8.7, "intermolecular_energy": -10.19, "internal_energy": -1.43, "cluster_size": 37, "cluster_id": 1, "rank_in_cluster": 3}

>  <energy>  (6) 
-8.66

>  <cluster_rmsd>  (6) 
0.13

>  <cluster>  (6) 
1

$$$$

     RDKit          3D

 50 53  0  0  0  0  0  0  0  0999 V2000
  139.8580   70.7790  221.4150 O   0  0  0  0  0  0  0  0  0  0  0  0
  139.8110   71.3550  222.5490 C   0  0  0  0  0  0  0  0  0  0  0  0
  139.7160   72.7820  222.6580 N   0  0  0  0  0  0  0  0  0  0  0  0
  139.6780   73.5140  221.4050 C   0  0  0  0  0  0  0  0  0  0  0  0
  140.8930   74.3700  221.2670 C   0  0  0  0  0  0  0  0  0  0  0  0
  141.0570   75.4160  221.9760 O   0  0  0  0  0  0  0  0  0  0  0  0
  141.8790   73.9980  220.3210 N   0  0  0  0  0  0  0  0  0  0  0  0
  141.5930   73.7890  218.9130 C   0  0  0  0  0  0  0  0  0  0  0  0
  142.6950   74.5240  218.1610 C   0  0  0  0  0  0  0  0  0  0  0  0
  143.3540   75.5620  219.0240 C   0  0  0  0  0  0  0  0  0  0  0  0
  144.0830   74.9620  220.1880 C   0  0  0  0  0  0  0  0  0  0  0  0
  143.2610   73.8050  220.7510 C   0  0  2  0  0  0  0  0  0  0  0  0
  143.8350   72.5270  220.2530 C   0  0  0  0  0  0  0  0  0  0  0  0
  145.1390   72.4540  219.8050 C   0  0  0  0  0  0  0  0  0  0  0  0
  145.6340   71.2340  219.3470 C   0  0  0  0  0  0  0  0  0  0  0  0
  144.8350   70.0910  219.3350 C   0  0  0  0  0  0  0  0  0  0  0  0
  143.5360   70.2120  219.7930 C   0  0  0  0  0  0  0  0  0  0  0  0
  143.1010   71.4050  220.2250 N   0  0  0  0  0  0  0  0  0  0  0  0
  139.8530   70.5600  223.7720 C   0  0  0  0  0  0  0  0  0  0  0  0
  139.2950   69.2970  223.7850 C   0  0  0  0  0  0  0  0  0  0  0  0
  139.3200   68.5270  224.9210 C   0  0  0  0  0  0  0  0  0  0  0  0
  139.8970   68.9810  226.0780 C   0  0  0  0  0  0  0  0  0  0  0  0
  139.9210   68.2140  227.2060 C   0  0  0  0  0  0  0  0  0  0  0  0
  140.5060   68.6950  228.3510 C   0  0  0  0  0  0  0  0  0  0  0  0
  140.5210   67.9220  229.4610 F   0  0  0  0  0  0  0  0  0  0  0  0
  141.0560   69.9460  228.3270 C   0  0  0  0  0  0  0  0  0  0  0  0
  141.0480   70.7560  227.1900 C   0  0  0  0  0  0  0  0  0  0  0  0
  140.4560   70.2630  226.0430 C   0  0  0  0  0  0  0  0  0  0  0  0
  140.4170   70.9960  224.9130 N   0  0  0  0  0  0  0  0  0  0  0  0
  139.6770   73.2690  223.5880 H   0  0  0  0  0  0  0  0  0  0  0  0
  139.6404   72.8002  220.5689 H   0  0  0  0  0  0  0  0  0  0  0  0
  138.7851   74.1563  221.3932 H   0  0  0  0  0  0  0  0  0  0  0  0
  141.6126   72.7160  218.6718 H   0  0  0  0  0  0  0  0  0  0  0  0
  140.5944   74.1605  218.6397 H   0  0  0  0  0  0  0  0  0  0  0  0
  143.4529   73.7958  217.8363 H   0  0  0  0  0  0  0  0  0  0  0  0
  142.2428   75.0314  217.2961 H   0  0  0  0  0  0  0  0  0  0  0  0
  144.0721   76.1263  218.4109 H   0  0  0  0  0  0  0  0  0  0  0  0
  142.5640   76.2142  219.4246 H   0  0  0  0  0  0  0  0  0  0  0  0
  145.0635   74.5898  219.8561 H   0  0  0  0  0  0  0  0  0  0  0  0
  144.2293   75.7253  220.9664 H   0  0  0  0  0  0  0  0  0  0  0  0
  143.2853   73.7715  221.8502 H   0  0  0  0  0  0  0  0  0  0  0  0
  145.7798   73.3481  219.8094 H   0  0  0  0  0  0  0  0  0  0  0  0
  146.6723   71.1718  218.9890 H   0  0  0  0  0  0  0  0  0  0  0  0
  145.2243   69.1276  218.9741 H   0  0  0  0  0  0  0  0  0  0  0  0
  142.8665   69.3393  219.8030 H   0  0  0  0  0  0  0  0  0  0  0  0
  138.8240   68.9026  222.8725 H   0  0  0  0  0  0  0  0  0  0  0  0
  138.8674   67.5246  224.9022 H   0  0  0  0  0  0  0  0  0  0  0  0
  139.4716   67.2100  227.1980 H   0  0  0  0  0  0  0  0  0  0  0  0
  141.5256   70.3316  229.2439 H   0  0  0  0  0  0  0  0  0  0  0  0
  141.5003   71.7586  227.2068 H   0  0  0  0  0  0  0  0  0  0  0  0
  1  2  2  0
  2  3  1  0
  3  4  1  0
  4  5  1  0
  5  6  2  0
  5  7  1  0
  7  8  1  0
  8  9  1  0
  9 10  1  0
 10 11  1  0
 11 12  1  0
 12 13  1  0
 13 14  2  0
 14 15  1  0
 15 16  2  0
 16 17  1  0
 17 18  2  0
  2 19  1  0
 19 20  2  0
 20 21  1  0
 21 22  2  0
 22 23  1  0
 23 24  2  0
 24 25  1  0
 24 26  1  0
 26 27  2  0
 27 28  1  0
 28 29  2  0
 12  7  1  0
 18 13  1  0
 29 19  1  0
 28 22  1  0
  3 30  1  0
  4 31  1  0
  4 32  1  0
  8 33  1  0
  8 34  1  0
  9 35  1  0
  9 36  1  0
 10 37  1  0
 10 38  1  0
 11 39  1  0
 11 40  1  0
 12 41  1  1
 14 42  1  0
 15 43  1  0
 16 44  1  0
 17 45  1  0
 20 46  1  0
 21 47  1  0
 23 48  1  0
 26 49  1  0
 27 50  1  0
M  END
>  <smiles>  (7) 
O=C(NCC(=O)N1CCCCC1c1ccccn1)c1ccc2cc(F)ccc2n1

>  <score_type>  (7) 
oracle

>  <origin>  (7) 
autodockgpu

>  <m_score__min__energy>  (7) 
-8.7100000000000009

>  <m_primary>  (7) 
energy

>  <rmsd>  (7) 
4.8876638837709665

>  <m_score__min__rmsd>  (7) 
4.8876638837709665

>  <meeko>  (7) 
{"free_energy": -7.55, "intermolecular_energy": -9.04, "internal_energy": -1.85, "cluster_size": 7, "cluster_id": 2, "rank_in_cluster": 6}

>  <energy>  (7) 
-8.65

>  <cluster_rmsd>  (7) 
0.15

>  <cluster>  (7) 
1

$$$$

     RDKit          3D

 50 53  0  0  0  0  0  0  0  0999 V2000
  141.1350   72.7020  221.8690 O   0  0  0  0  0  0  0  0  0  0  0  0
  140.0910   72.5600  222.5820 C   0  0  0  0  0  0  0  0  0  0  0  0
  138.9050   73.3270  222.3320 N   0  0  0  0  0  0  0  0  0  0  0  0
  138.9770   74.2660  221.2270 C   0  0  0  0  0  0  0  0  0  0  0  0
  138.9780   75.6680  221.7370 C   0  0  0  0  0  0  0  0  0  0  0  0
  138.0030   76.1350  222.4110 O   0  0  0  0  0  0  0  0  0  0  0  0
  140.0990   76.4880  221.4570 N   0  0  0  0  0  0  0  0  0  0  0  0
  141.4510   75.9740  221.3350 C   0  0  0  0  0  0  0  0  0  0  0  0
  142.0220   76.6240  220.0820 C   0  0  0  0  0  0  0  0  0  0  0  0
  140.9330   77.1280  219.1770 C   0  0  0  0  0  0  0  0  0  0  0  0
  140.1370   78.2360  219.7990 C   0  0  0  0  0  0  0  0  0  0  0  0
  139.9190   77.9260  221.2780 C   0  0  2  0  0  0  0  0  0  0  0  0
  140.8870   78.7210  222.0780 C   0  0  0  0  0  0  0  0  0  0  0  0
  140.9970   78.5520  223.4440 C   0  0  0  0  0  0  0  0  0  0  0  0
  141.9190   79.3210  224.1540 C   0  0  0  0  0  0  0  0  0  0  0  0
  142.7300   80.2530  223.5050 C   0  0  0  0  0  0  0  0  0  0  0  0
  142.5850   80.3860  222.1370 C   0  0  0  0  0  0  0  0  0  0  0  0
  141.6850   79.6270  221.4950 N   0  0  0  0  0  0  0  0  0  0  0  0
  140.0840   71.5960  223.6790 C   0  0  0  0  0  0  0  0  0  0  0  0
  139.5690   70.3320  223.4740 C   0  0  0  0  0  0  0  0  0  0  0  0
  139.5510   69.4060  224.4880 C   0  0  0  0  0  0  0  0  0  0  0  0
  140.0410   69.7010  225.7330 C   0  0  0  0  0  0  0  0  0  0  0  0
  140.0220   68.7800  226.7380 C   0  0  0  0  0  0  0  0  0  0  0  0
  140.5190   69.1030  227.9750 C   0  0  0  0  0  0  0  0  0  0  0  0
  140.4930   68.1780  228.9620 F   0  0  0  0  0  0  0  0  0  0  0  0
  141.0280   70.3570  228.1670 C   0  0  0  0  0  0  0  0  0  0  0  0
  141.0620   71.3230  227.1600 C   0  0  0  0  0  0  0  0  0  0  0  0
  140.5580   70.9880  225.9180 C   0  0  0  0  0  0  0  0  0  0  0  0
  140.5640   71.8760  224.9050 N   0  0  0  0  0  0  0  0  0  0  0  0
  138.0370   73.2170  222.9140 H   0  0  0  0  0  0  0  0  0  0  0  0
  139.9011   74.0864  220.6580 H   0  0  0  0  0  0  0  0  0  0  0  0
  138.1005   74.1223  220.5781 H   0  0  0  0  0  0  0  0  0  0  0  0
  142.0479   76.2493  222.2170 H   0  0  0  0  0  0  0  0  0  0  0  0
  141.4656   74.8761  221.2680 H   0  0  0  0  0  0  0  0  0  0  0  0
  142.6609   77.4693  220.3774 H   0  0  0  0  0  0  0  0  0  0  0  0
  142.6024   75.8667  219.5346 H   0  0  0  0  0  0  0  0  0  0  0  0
  141.3901   77.5003  218.2483 H   0  0  0  0  0  0  0  0  0  0  0  0
  140.2460   76.2912  218.9823 H   0  0  0  0  0  0  0  0  0  0  0  0
  140.6850   79.1845  219.6984 H   0  0  0  0  0  0  0  0  0  0  0  0
  139.1649   78.3235  219.2918 H   0  0  0  0  0  0  0  0  0  0  0  0
  138.9085   78.1979  221.6171 H   0  0  0  0  0  0  0  0  0  0  0  0
  140.3646   77.8191  223.9664 H   0  0  0  0  0  0  0  0  0  0  0  0
  142.0083   79.1908  225.2426 H   0  0  0  0  0  0  0  0  0  0  0  0
  143.4586   80.8601  224.0623 H   0  0  0  0  0  0  0  0  0  0  0  0
  143.2016   81.1071  221.5805 H   0  0  0  0  0  0  0  0  0  0  0  0
  139.1678   70.0629  222.4858 H   0  0  0  0  0  0  0  0  0  0  0  0
  139.1343   68.4061  224.2966 H   0  0  0  0  0  0  0  0  0  0  0  0
  139.6078   67.7772  226.5568 H   0  0  0  0  0  0  0  0  0  0  0  0
  141.4283   70.6162  229.1583 H   0  0  0  0  0  0  0  0  0  0  0  0
  141.4785   72.3232  227.3500 H   0  0  0  0  0  0  0  0  0  0  0  0
  1  2  2  0
  2  3  1  0
  3  4  1  0
  4  5  1  0
  5  6  2  0
  5  7  1  0
  7  8  1  0
  8  9  1  0
  9 10  1  0
 10 11  1  0
 11 12  1  0
 12 13  1  0
 13 14  2  0
 14 15  1  0
 15 16  2  0
 16 17  1  0
 17 18  2  0
  2 19  1  0
 19 20  2  0
 20 21  1  0
 21 22  2  0
 22 23  1  0
 23 24  2  0
 24 25  1  0
 24 26  1  0
 26 27  2  0
 27 28  1  0
 28 29  2  0
 12  7  1  0
 18 13  1  0
 29 19  1  0
 28 22  1  0
  3 30  1  0
  4 31  1  0
  4 32  1  0
  8 33  1  0
  8 34  1  0
  9 35  1  0
  9 36  1  0
 10 37  1  0
 10 38  1  0
 11 39  1  0
 11 40  1  0
 12 41  1  1
 14 42  1  0
 15 43  1  0
 16 44  1  0
 17 45  1  0
 20 46  1  0
 21 47  1  0
 23 48  1  0
 26 49  1  0
 27 50  1  0
M  END
>  <smiles>  (8) 
O=C(NCC(=O)N1CCCCC1c1ccccn1)c1ccc2cc(F)ccc2n1

>  <score_type>  (8) 
oracle

>  <origin>  (8) 
autodockgpu

>  <m_score__min__energy>  (8) 
-8.7100000000000009

>  <m_primary>  (8) 
energy

>  <rmsd>  (8) 
2.68342801453589

>  <m_score__min__rmsd>  (8) 
2.68342801453589

>  <meeko>  (8) 
{"free_energy": -8.57, "intermolecular_energy": -10.07, "internal_energy": -1.54, "cluster_size": 37, "cluster_id": 1, "rank_in_cluster": 19}

>  <energy>  (8) 
-8.65

>  <cluster_rmsd>  (8) 
0.13

>  <cluster>  (8) 
1

$$$$

     RDKit          3D

 50 53  0  0  0  0  0  0  0  0999 V2000
  139.6690   71.4520  221.0680 O   0  0  0  0  0  0  0  0  0  0  0  0
  139.5840   72.0110  222.2080 C   0  0  0  0  0  0  0  0  0  0  0  0
  139.3220   73.4150  222.3340 N   0  0  0  0  0  0  0  0  0  0  0  0
  139.1630   74.1460  221.0890 C   0  0  0  0  0  0  0  0  0  0  0  0
  139.0380   75.6080  221.3590 C   0  0  0  0  0  0  0  0  0  0  0  0
  137.9360   76.1270  221.7330 O   0  0  0  0  0  0  0  0  0  0  0  0
  140.1820   76.4270  221.1900 N   0  0  0  0  0  0  0  0  0  0  0  0
  141.5380   75.9080  221.1780 C   0  0  0  0  0  0  0  0  0  0  0  0
  142.2180   76.5740  219.9900 C   0  0  0  0  0  0  0  0  0  0  0  0
  141.2140   77.0970  219.0010 C   0  0  0  0  0  0  0  0  0  0  0  0
  140.3710   78.1980  219.5680 C   0  0  0  0  0  0  0  0  0  0  0  0
  140.0240   77.8680  221.0180 C   0  0  2  0  0  0  0  0  0  0  0  0
  140.9210   78.6460  221.9110 C   0  0  0  0  0  0  0  0  0  0  0  0
  140.9840   78.3870  223.2660 C   0  0  0  0  0  0  0  0  0  0  0  0
  141.8400   79.1420  224.0660 C   0  0  0  0  0  0  0  0  0  0  0  0
  142.6320   80.1520  223.5180 C   0  0  0  0  0  0  0  0  0  0  0  0
  142.5360   80.3760  222.1570 C   0  0  0  0  0  0  0  0  0  0  0  0
  141.6990   79.6250  221.4270 N   0  0  0  0  0  0  0  0  0  0  0  0
  139.7530   71.2180  223.4220 C   0  0  0  0  0  0  0  0  0  0  0  0
  139.4010   69.8830  223.4200 C   0  0  0  0  0  0  0  0  0  0  0  0
  139.5500   69.1130  224.5480 C   0  0  0  0  0  0  0  0  0  0  0  0
  140.0510   69.6390  225.7090 C   0  0  0  0  0  0  0  0  0  0  0  0
  140.1980   68.8730  226.8280 C   0  0  0  0  0  0  0  0  0  0  0  0
  140.7020   69.4250  227.9780 C   0  0  0  0  0  0  0  0  0  0  0  0
  140.8410   68.6530  229.0790 F   0  0  0  0  0  0  0  0  0  0  0  0
  141.0480   70.7480  227.9690 C   0  0  0  0  0  0  0  0  0  0  0  0
  140.9100   71.5590  226.8420 C   0  0  0  0  0  0  0  0  0  0  0  0
  140.4010   70.9930  225.6890 C   0  0  0  0  0  0  0  0  0  0  0  0
  140.2450   71.7240  224.5680 N   0  0  0  0  0  0  0  0  0  0  0  0
  139.2490   73.8880  223.2700 H   0  0  0  0  0  0  0  0  0  0  0  0
  140.0404   73.9688  220.4496 H   0  0  0  0  0  0  0  0  0  0  0  0
  138.2510   73.7965  220.5829 H   0  0  0  0  0  0  0  0  0  0  0  0
  142.0570   76.1668  222.1127 H   0  0  0  0  0  0  0  0  0  0  0  0
  141.5544   74.8112  221.0954 H   0  0  0  0  0  0  0  0  0  0  0  0
  142.8315   77.4117  220.3531 H   0  0  0  0  0  0  0  0  0  0  0  0
  142.8411   75.8221  219.4836 H   0  0  0  0  0  0  0  0  0  0  0  0
  141.7519   77.4814  218.1219 H   0  0  0  0  0  0  0  0  0  0  0  0
  140.5440   76.2666  218.7336 H   0  0  0  0  0  0  0  0  0  0  0  0
  140.9285   79.1455  219.5295 H   0  0  0  0  0  0  0  0  0  0  0  0
  139.4467   78.2964  218.9798 H   0  0  0  0  0  0  0  0  0  0  0  0
  138.9891   78.1406  221.2722 H   0  0  0  0  0  0  0  0  0  0  0  0
  140.3650   77.5931  223.7094 H   0  0  0  0  0  0  0  0  0  0  0  0
  141.8921   78.9386  225.1458 H   0  0  0  0  0  0  0  0  0  0  0  0
  143.3089   80.7490  224.1468 H   0  0  0  0  0  0  0  0  0  0  0  0
  143.1395   81.1615  221.6786 H   0  0  0  0  0  0  0  0  0  0  0  0
  138.9959   69.4299  222.5032 H   0  0  0  0  0  0  0  0  0  0  0  0
  139.2609   68.0521  224.5180 H   0  0  0  0  0  0  0  0  0  0  0  0
  139.9119   67.8110  226.8081 H   0  0  0  0  0  0  0  0  0  0  0  0
  141.4527   71.1922  228.8904 H   0  0  0  0  0  0  0  0  0  0  0  0
  141.1986   72.6201  226.8707 H   0  0  0  0  0  0  0  0  0  0  0  0
  1  2  2  0
  2  3  1  0
  3  4  1  0
  4  5  1  0
  5  6  2  0
  5  7  1  0
  7  8  1  0
  8  9  1  0
  9 10  1  0
 10 11  1  0
 11 12  1  0
 12 13  1  0
 13 14  2  0
 14 15  1  0
 15 16  2  0
 16 17  1  0
 17 18  2  0
  2 19  1  0
 19 20  2  0
 20 21  1  0
 21 22  2  0
 22 23  1  0
 23 24  2  0
 24 25  1  0
 24 26  1  0
 26 27  2  0
 27 28  1  0
 28 29  2  0
 12  7  1  0
 18 13  1  0
 29 19  1  0
 28 22  1  0
  3 30  1  0
  4 31  1  0
  4 32  1  0
  8 33  1  0
  8 34  1  0
  9 35  1  0
  9 36  1  0
 10 37  1  0
 10 38  1  0
 11 39  1  0
 11 40  1  0
 12 41  1  1
 14 42  1  0
 15 43  1  0
 16 44  1  0
 17 45  1  0
 20 46  1  0
 21 47  1  0
 23 48  1  0
 26 49  1  0
 27 50  1  0
M  END
>  <smiles>  (9) 
O=C(NCC(=O)N1CCCCC1c1ccccn1)c1ccc2cc(F)ccc2n1

>  <score_type>  (9) 
oracle

>  <origin>  (9) 
autodockgpu

>  <m_score__min__energy>  (9) 
-8.7100000000000009

>  <m_primary>  (9) 
energy

>  <rmsd>  (9) 
2.576161839877761

>  <m_score__min__rmsd>  (9) 
2.576161839877761

>  <meeko>  (9) 
{"free_energy": -8.2, "intermolecular_energy": -9.69, "internal_energy": -1.55, "cluster_size": 37, "cluster_id": 1, "rank_in_cluster": 33}

>  <energy>  (9) 
-8.63

>  <cluster_rmsd>  (9) 
1.19

>  <cluster>  (9) 
1

$$$$

     RDKit          3D

 50 53  0  0  0  0  0  0  0  0999 V2000
  141.7240   73.3630  221.0100 O   0  0  0  0  0  0  0  0  0  0  0  0
  140.9180   74.1660  221.5790 C   0  0  0  0  0  0  0  0  0  0  0  0
  139.7790   73.6900  222.3090 N   0  0  0  0  0  0  0  0  0  0  0  0
  139.6100   72.2490  222.3530 C   0  0  0  0  0  0  0  0  0  0  0  0
  138.2510   71.9010  222.8610 C   0  0  0  0  0  0  0  0  0  0  0  0
  137.2520   72.6700  222.6780 O   0  0  0  0  0  0  0  0  0  0  0  0
  138.0840   70.6820  223.5630 N   0  0  0  0  0  0  0  0  0  0  0  0
  136.8790   70.3460  224.3000 C   0  0  0  0  0  0  0  0  0  0  0  0
  136.5450   68.9140  223.9040 C   0  0  0  0  0  0  0  0  0  0  0  0
  137.2040   68.5320  222.6090 C   0  0  0  0  0  0  0  0  0  0  0  0
  138.6990   68.5140  222.7090 C   0  0  0  0  0  0  0  0  0  0  0  0
  139.1570   69.6930  223.5650 C   0  0  2  0  0  0  0  0  0  0  0  0
  139.4660   69.1960  224.9320 C   0  0  0  0  0  0  0  0  0  0  0  0
  140.0130   70.0260  225.8890 C   0  0  0  0  0  0  0  0  0  0  0  0
  140.2860   69.5160  227.1580 C   0  0  0  0  0  0  0  0  0  0  0  0
  140.0140   68.1840  227.4720 C   0  0  0  0  0  0  0  0  0  0  0  0
  139.4670   67.3910  226.4810 C   0  0  0  0  0  0  0  0  0  0  0  0
  139.2210   67.9230  225.2760 N   0  0  0  0  0  0  0  0  0  0  0  0
  141.1460   75.6060  221.4970 C   0  0  0  0  0  0  0  0  0  0  0  0
  141.7000   76.1450  220.3540 C   0  0  0  0  0  0  0  0  0  0  0  0
  141.9250   77.4960  220.2490 C   0  0  0  0  0  0  0  0  0  0  0  0
  141.6090   78.3530  221.2700 C   0  0  0  0  0  0  0  0  0  0  0  0
  141.8330   79.6940  221.1640 C   0  0  0  0  0  0  0  0  0  0  0  0
  141.5060   80.5290  222.2020 C   0  0  0  0  0  0  0  0  0  0  0  0
  141.7350   81.8570  222.0820 F   0  0  0  0  0  0  0  0  0  0  0  0
  140.9570   79.9850  223.3300 C   0  0  0  0  0  0  0  0  0  0  0  0
  140.7150   78.6180  223.4700 C   0  0  0  0  0  0  0  0  0  0  0  0
  141.0480   77.7850  222.4190 C   0  0  0  0  0  0  0  0  0  0  0  0
  140.8380   76.4560  222.4930 N   0  0  0  0  0  0  0  0  0  0  0  0
  139.1070   74.3440  222.7830 H   0  0  0  0  0  0  0  0  0  0  0  0
  139.7348   71.8382  221.3403 H   0  0  0  0  0  0  0  0  0  0  0  0
  140.3646   71.8213  223.0295 H   0  0  0  0  0  0  0  0  0  0  0  0
  137.0596   70.4131  225.3830 H   0  0  0  0  0  0  0  0  0  0  0  0
  136.0540   71.0360  224.0691 H   0  0  0  0  0  0  0  0  0  0  0  0
  136.8924   68.2341  224.6958 H   0  0  0  0  0  0  0  0  0  0  0  0
  135.4556   68.8380  223.7721 H   0  0  0  0  0  0  0  0  0  0  0  0
  136.8578   67.5288  222.3195 H   0  0  0  0  0  0  0  0  0  0  0  0
  136.9284   69.2874  221.8583 H   0  0  0  0  0  0  0  0  0  0  0  0
  139.0257   67.5723  223.1742 H   0  0  0  0  0  0  0  0  0  0  0  0
  139.1386   68.5931  221.7038 H   0  0  0  0  0  0  0  0  0  0  0  0
  140.0690   70.1653  223.1710 H   0  0  0  0  0  0  0  0  0  0  0  0
  140.2313   71.0781  225.6537 H   0  0  0  0  0  0  0  0  0  0  0  0
  140.7227   70.1743  227.9235 H   0  0  0  0  0  0  0  0  0  0  0  0
  140.2273   67.7795  228.4725 H   0  0  0  0  0  0  0  0  0  0  0  0
  139.2359   66.3340  226.6794 H   0  0  0  0  0  0  0  0  0  0  0  0
  141.9650   75.4840  219.5157 H   0  0  0  0  0  0  0  0  0  0  0  0
  142.3681   77.8981  219.3260 H   0  0  0  0  0  0  0  0  0  0  0  0
  142.2762   80.1063  220.2455 H   0  0  0  0  0  0  0  0  0  0  0  0
  140.6948   80.6539  224.1630 H   0  0  0  0  0  0  0  0  0  0  0  0
  140.2712   78.2144  224.3920 H   0  0  0  0  0  0  0  0  0  0  0  0
  1  2  2  0
  2  3  1  0
  3  4  1  0
  4  5  1  0
  5  6  2  0
  5  7  1  0
  7  8  1  0
  8  9  1  0
  9 10  1  0
 10 11  1  0
 11 12  1  0
 12 13  1  0
 13 14  2  0
 14 15  1  0
 15 16  2  0
 16 17  1  0
 17 18  2  0
  2 19  1  0
 19 20  2  0
 20 21  1  0
 21 22  2  0
 22 23  1  0
 23 24  2  0
 24 25  1  0
 24 26  1  0
 26 27  2  0
 27 28  1  0
 28 29  2  0
 12  7  1  0
 18 13  1  0
 29 19  1  0
 28 22  1  0
  3 30  1  0
  4 31  1  0
  4 32  1  0
  8 33  1  0
  8 34  1  0
  9 35  1  0
  9 36  1  0
 10 37  1  0
 10 38  1  0
 11 39  1  0
 11 40  1  0
 12 41  1  6
 14 42  1  0
 15 43  1  0
 16 44  1  0
 17 45  1  0
 20 46  1  0
 21 47  1  0
 23 48  1  0
 26 49  1  0
 27 50  1  0
M  END
>  <smiles>  (10) 
O=C(NCC(=O)N1CCCCC1c1ccccn1)c1ccc2cc(F)ccc2n1

>  <score_type>  (10) 
oracle

>  <origin>  (10) 
autodockgpu

>  <m_score__min__energy>  (10) 
-8.7100000000000009

>  <m_primary>  (10) 
energy

>  <rmsd>  (10) 
9.59291359590986

>  <m_score__min__rmsd>  (10) 
9.59291359590986

>  <meeko>  (10) 
{"free_energy": -7.98, "intermolecular_energy": -9.47, "internal_energy": -1.72, "cluster_size": 6, "cluster_id": 3, "rank_in_cluster": 2}

>  <energy>  (10) 
-8.62

>  <cluster_rmsd>  (10) 
1.18

>  <cluster>  (10) 
1

$$$$

     RDKit          3D

 50 53  0  0  0  0  0  0  0  0999 V2000
  141.2190   72.0830  221.4220 O   0  0  0  0  0  0  0  0  0  0  0  0
  140.3710   72.3950  222.3170 C   0  0  0  0  0  0  0  0  0  0  0  0
  139.5510   73.5660  222.1940 N   0  0  0  0  0  0  0  0  0  0  0  0
  139.7540   74.3600  220.9960 C   0  0  0  0  0  0  0  0  0  0  0  0
  140.8450   75.3550  221.2120 C   0  0  0  0  0  0  0  0  0  0  0  0
  142.0680   75.0050  221.2710 O   0  0  0  0  0  0  0  0  0  0  0  0
  140.4950   76.7210  221.3510 N   0  0  0  0  0  0  0  0  0  0  0  0
  140.4270   77.6440  220.2330 C   0  0  0  0  0  0  0  0  0  0  0  0
  139.1210   78.4080  220.4130 C   0  0  0  0  0  0  0  0  0  0  0  0
  138.1690   77.6660  221.3080 C   0  0  0  0  0  0  0  0  0  0  0  0
  138.6810   77.5380  222.7110 C   0  0  0  0  0  0  0  0  0  0  0  0
  140.1820   77.2580  222.6720 C   0  0  2  0  0  0  0  0  0  0  0  0
  140.9090   78.5240  222.9550 C   0  0  0  0  0  0  0  0  0  0  0  0
  140.2810   79.5890  223.5700 C   0  0  0  0  0  0  0  0  0  0  0  0
  141.0020   80.7560  223.8140 C   0  0  0  0  0  0  0  0  0  0  0  0
  142.3450   80.8630  223.4490 C   0  0  0  0  0  0  0  0  0  0  0  0
  142.9310   79.7710  222.8360 C   0  0  0  0  0  0  0  0  0  0  0  0
  142.1990   78.6690  222.6200 N   0  0  0  0  0  0  0  0  0  0  0  0
  140.2160   71.5520  223.4990 C   0  0  0  0  0  0  0  0  0  0  0  0
  139.5430   70.3510  223.3980 C   0  0  0  0  0  0  0  0  0  0  0  0
  139.3830   69.5380  224.4930 C   0  0  0  0  0  0  0  0  0  0  0  0
  139.8830   69.8880  225.7190 C   0  0  0  0  0  0  0  0  0  0  0  0
  139.7230   69.0790  226.8060 C   0  0  0  0  0  0  0  0  0  0  0  0
  140.2340   69.4540  228.0230 C   0  0  0  0  0  0  0  0  0  0  0  0
  140.0660   68.6410  229.0910 F   0  0  0  0  0  0  0  0  0  0  0  0
  140.8990   70.6450  228.1130 C   0  0  0  0  0  0  0  0  0  0  0  0
  141.0790   71.4960  227.0210 C   0  0  0  0  0  0  0  0  0  0  0  0
  140.5610   71.1090  225.8000 C   0  0  0  0  0  0  0  0  0  0  0  0
  140.7030   71.8860  224.7080 N   0  0  0  0  0  0  0  0  0  0  0  0
  138.8470   73.8340  222.9270 H   0  0  0  0  0  0  0  0  0  0  0  0
  140.0283   73.6961  220.1629 H   0  0  0  0  0  0  0  0  0  0  0  0
  138.8228   74.8960  220.7603 H   0  0  0  0  0  0  0  0  0  0  0  0
  141.2824   78.3353  220.2529 H   0  0  0  0  0  0  0  0  0  0  0  0
  140.4617   77.1180  219.2675 H   0  0  0  0  0  0  0  0  0  0  0  0
  139.3394   79.3896  220.8587 H   0  0  0  0  0  0  0  0  0  0  0  0
  138.6490   78.5229  219.4261 H   0  0  0  0  0  0  0  0  0  0  0  0
  137.2114   78.2069  221.3300 H   0  0  0  0  0  0  0  0  0  0  0  0
  138.0510   76.6507  220.9016 H   0  0  0  0  0  0  0  0  0  0  0  0
  138.4951   78.4742  223.2577 H   0  0  0  0  0  0  0  0  0  0  0  0
  138.1632   76.7119  223.2204 H   0  0  0  0  0  0  0  0  0  0  0  0
  140.4898   76.5236  223.4309 H   0  0  0  0  0  0  0  0  0  0  0  0
  139.2235   79.5168  223.8640 H   0  0  0  0  0  0  0  0  0  0  0  0
  140.5047   81.6070  224.3023 H   0  0  0  0  0  0  0  0  0  0  0  0
  142.9165   81.7828  223.6421 H   0  0  0  0  0  0  0  0  0  0  0  0
  143.9867   79.8062  222.5288 H   0  0  0  0  0  0  0  0  0  0  0  0
  139.1292   70.0410  222.4271 H   0  0  0  0  0  0  0  0  0  0  0  0
  138.8423   68.5864  224.3832 H   0  0  0  0  0  0  0  0  0  0  0  0
  139.1839   68.1253  226.7066 H   0  0  0  0  0  0  0  0  0  0  0  0
  141.3100   70.9458  229.0880 H   0  0  0  0  0  0  0  0  0  0  0  0
  141.6184   72.4485  227.1297 H   0  0  0  0  0  0  0  0  0  0  0  0
  1  2  2  0
  2  3  1  0
  3  4  1  0
  4  5  1  0
  5  6  2  0
  5  7  1  0
  7  8  1  0
  8  9  1  0
  9 10  1  0
 10 11  1  0
 11 12  1  0
 12 13  1  0
 13 14  2  0
 14 15  1  0
 15 16  2  0
 16 17  1  0
 17 18  2  0
  2 19  1  0
 19 20  2  0
 20 21  1  0
 21 22  2  0
 22 23  1  0
 23 24  2  0
 24 25  1  0
 24 26  1  0
 26 27  2  0
 27 28  1  0
 28 29  2  0
 12  7  1  0
 18 13  1  0
 29 19  1  0
 28 22  1  0
  3 30  1  0
  4 31  1  0
  4 32  1  0
  8 33  1  0
  8 34  1  0
  9 35  1  0
  9 36  1  0
 10 37  1  0
 10 38  1  0
 11 39  1  0
 11 40  1  0
 12 41  1  1
 14 42  1  0
 15 43  1  0
 16 44  1  0
 17 45  1  0
 20 46  1  0
 21 47  1  0
 23 48  1  0
 26 49  1  0
 27 50  1  0
M  END
>  <smiles>  (11) 
O=C(NCC(=O)N1CCCCC1c1ccccn1)c1ccc2cc(F)ccc2n1

>  <score_type>  (11) 
oracle

>  <origin>  (11) 
autodockgpu

>  <m_score__min__energy>  (11) 
-8.7100000000000009

>  <m_primary>  (11) 
energy

>  <rmsd>  (11) 
2.945013216365891

>  <m_score__min__rmsd>  (11) 
2.945013216365891

>  <meeko>  (11) 
{"free_energy": -8.66, "intermolecular_energy": -10.15, "internal_energy": -1.45, "cluster_size": 37, "cluster_id": 1, "rank_in_cluster": 6}

>  <energy>  (11) 
-8.62

>  <cluster_rmsd>  (11) 
1.18

>  <cluster>  (11) 
1

$$$$

     RDKit          3D

 50 53  0  0  0  0  0  0  0  0999 V2000
  140.4410   71.7600  221.1030 O   0  0  0  0  0  0  0  0  0  0  0  0
  140.1190   72.2770  222.2200 C   0  0  0  0  0  0  0  0  0  0  0  0
  139.7860   73.6680  222.3320 N   0  0  0  0  0  0  0  0  0  0  0  0
  139.8430   74.4350  221.1010 C   0  0  0  0  0  0  0  0  0  0  0  0
  140.9540   75.4300  221.1620 C   0  0  0  0  0  0  0  0  0  0  0  0
  142.1750   75.0700  221.1330 O   0  0  0  0  0  0  0  0  0  0  0  0
  140.6250   76.8050  221.2530 N   0  0  0  0  0  0  0  0  0  0  0  0
  140.7240   77.7230  220.1330 C   0  0  0  0  0  0  0  0  0  0  0  0
  139.4260   78.5210  220.1440 C   0  0  0  0  0  0  0  0  0  0  0  0
  138.3490   77.8100  220.9130 C   0  0  0  0  0  0  0  0  0  0  0  0
  138.6760   77.6760  222.3700 C   0  0  0  0  0  0  0  0  0  0  0  0
  140.1620   77.3580  222.5220 C   0  0  2  0  0  0  0  0  0  0  0  0
  140.8800   78.6060  222.8910 C   0  0  0  0  0  0  0  0  0  0  0  0
  140.2200   79.6640  223.4820 C   0  0  0  0  0  0  0  0  0  0  0  0
  140.9340   80.8160  223.8110 C   0  0  0  0  0  0  0  0  0  0  0  0
  142.3020   80.9120  223.5530 C   0  0  0  0  0  0  0  0  0  0  0  0
  142.9210   79.8260  222.9610 C   0  0  0  0  0  0  0  0  0  0  0  0
  142.1940   78.7400  222.6620 N   0  0  0  0  0  0  0  0  0  0  0  0
  140.0800   71.4480  223.4210 C   0  0  0  0  0  0  0  0  0  0  0  0
  139.5490   70.1750  223.3550 C   0  0  0  0  0  0  0  0  0  0  0  0
  139.5010   69.3740  224.4700 C   0  0  0  0  0  0  0  0  0  0  0  0
  139.9740   69.8050  225.6800 C   0  0  0  0  0  0  0  0  0  0  0  0
  139.9250   69.0080  226.7860 C   0  0  0  0  0  0  0  0  0  0  0  0
  140.4060   69.4660  227.9860 C   0  0  0  0  0  0  0  0  0  0  0  0
  140.3500   68.6640  229.0730 F   0  0  0  0  0  0  0  0  0  0  0  0
  140.9300   70.7280  228.0400 C   0  0  0  0  0  0  0  0  0  0  0  0
  140.9950   71.5700  226.9280 C   0  0  0  0  0  0  0  0  0  0  0  0
  140.5070   71.0980  225.7250 C   0  0  0  0  0  0  0  0  0  0  0  0
  140.5420   71.8620  224.6150 N   0  0  0  0  0  0  0  0  0  0  0  0
  139.5170   74.1050  223.2490 H   0  0  0  0  0  0  0  0  0  0  0  0
  140.0133   73.7522  220.2555 H   0  0  0  0  0  0  0  0  0  0  0  0
  138.8908   74.9694  220.9677 H   0  0  0  0  0  0  0  0  0  0  0  0
  141.5877   78.3923  220.2598 H   0  0  0  0  0  0  0  0  0  0  0  0
  140.8676   77.1909  219.1810 H   0  0  0  0  0  0  0  0  0  0  0  0
  139.6119   79.4995  220.6109 H   0  0  0  0  0  0  0  0  0  0  0  0
  139.0860   78.6412  219.1048 H   0  0  0  0  0  0  0  0  0  0  0  0
  137.4115   78.3765  220.8127 H   0  0  0  0  0  0  0  0  0  0  0  0
  138.2557   76.7959  220.4971 H   0  0  0  0  0  0  0  0  0  0  0  0
  138.4465   78.6193  222.8872 H   0  0  0  0  0  0  0  0  0  0  0  0
  138.0768   76.8658  222.8111 H   0  0  0  0  0  0  0  0  0  0  0  0
  140.3523   76.6209  223.3160 H   0  0  0  0  0  0  0  0  0  0  0  0
  139.1420   79.5995  223.6914 H   0  0  0  0  0  0  0  0  0  0  0  0
  140.4108   81.6618  224.2810 H   0  0  0  0  0  0  0  0  0  0  0  0
  142.8680   81.8192  223.8113 H   0  0  0  0  0  0  0  0  0  0  0  0
  143.9978   79.8531  222.7380 H   0  0  0  0  0  0  0  0  0  0  0  0
  139.1597   69.7977  222.3979 H   0  0  0  0  0  0  0  0  0  0  0  0
  139.0730   68.3639  224.3886 H   0  0  0  0  0  0  0  0  0  0  0  0
  139.4990   67.9963  226.7153 H   0  0  0  0  0  0  0  0  0  0  0  0
  141.3172   71.0959  229.0016 H   0  0  0  0  0  0  0  0  0  0  0  0
  141.4226   72.5803  227.0077 H   0  0  0  0  0  0  0  0  0  0  0  0
  1  2  2  0
  2  3  1  0
  3  4  1  0
  4  5  1  0
  5  6  2  0
  5  7  1  0
  7  8  1  0
  8  9  1  0
  9 10  1  0
 10 11  1  0
 11 12  1  0
 12 13  1  0
 13 14  2  0
 14 15  1  0
 15 16  2  0
 16 17  1  0
 17 18  2  0
  2 19  1  0
 19 20  2  0
 20 21  1  0
 21 22  2  0
 22 23  1  0
 23 24  2  0
 24 25  1  0
 24 26  1  0
 26 27  2  0
 27 28  1  0
 28 29  2  0
 12  7  1  0
 18 13  1  0
 29 19  1  0
 28 22  1  0
  3 30  1  0
  4 31  1  0
  4 32  1  0
  8 33  1  0
  8 34  1  0
  9 35  1  0
  9 36  1  0
 10 37  1  0
 10 38  1  0
 11 39  1  0
 11 40  1  0
 12 41  1  1
 14 42  1  0
 15 43  1  0
 16 44  1  0
 17 45  1  0
 20 46  1  0
 21 47  1  0
 23 48  1  0
 26 49  1  0
 27 50  1  0
M  END
>  <smiles>  (12) 
O=C(NCC(=O)N1CCCCC1c1ccccn1)c1ccc2cc(F)ccc2n1

>  <score_type>  (12) 
oracle

>  <origin>  (12) 
autodockgpu

>  <m_score__min__energy>  (12) 
-8.7100000000000009

>  <m_primary>  (12) 
energy

>  <rmsd>  (12) 
2.871245135263763

>  <m_score__min__rmsd>  (12) 
2.871245135263763

>  <meeko>  (12) 
{"free_energy": -8.5, "intermolecular_energy": -10.0, "internal_energy": -1.49, "cluster_size": 37, "cluster_id": 1, "rank_in_cluster": 27}

>  <energy>  (12) 
-8.61

>  <cluster_rmsd>  (12) 
1.18

>  <cluster>  (12) 
1

$$$$

     RDKit          3D

 50 53  0  0  0  0  0  0  0  0999 V2000
  141.1030   72.0640  221.3640 O   0  0  0  0  0  0  0  0  0  0  0  0
  140.3360   72.4200  222.3150 C   0  0  0  0  0  0  0  0  0  0  0  0
  139.5870   73.6410  222.2530 N   0  0  0  0  0  0  0  0  0  0  0  0
  139.7610   74.4340  221.0500 C   0  0  0  0  0  0  0  0  0  0  0  0
  140.8560   75.4290  221.2390 C   0  0  0  0  0  0  0  0  0  0  0  0
  142.0790   75.0770  221.2840 O   0  0  0  0  0  0  0  0  0  0  0  0
  140.5110   76.7970  221.3690 N   0  0  0  0  0  0  0  0  0  0  0  0
  140.4540   77.7140  220.2450 C   0  0  0  0  0  0  0  0  0  0  0  0
  139.1500   78.4840  220.4120 C   0  0  0  0  0  0  0  0  0  0  0  0
  138.1880   77.7510  221.3050 C   0  0  0  0  0  0  0  0  0  0  0  0
  138.6910   77.6280  222.7120 C   0  0  0  0  0  0  0  0  0  0  0  0
  140.1910   77.3420  222.6850 C   0  0  2  0  0  0  0  0  0  0  0  0
  140.9210   78.6070  222.9650 C   0  0  0  0  0  0  0  0  0  0  0  0
  140.2830   79.6910  223.5340 C   0  0  0  0  0  0  0  0  0  0  0  0
  141.0070   80.8570  223.7790 C   0  0  0  0  0  0  0  0  0  0  0  0
  142.3630   80.9420  223.4600 C   0  0  0  0  0  0  0  0  0  0  0  0
  142.9580   79.8310  222.8920 C   0  0  0  0  0  0  0  0  0  0  0  0
  142.2230   78.7320  222.6740 N   0  0  0  0  0  0  0  0  0  0  0  0
  140.2050   71.5760  223.4990 C   0  0  0  0  0  0  0  0  0  0  0  0
  139.5640   70.3570  223.4010 C   0  0  0  0  0  0  0  0  0  0  0  0
  139.4260   69.5430  224.4980 C   0  0  0  0  0  0  0  0  0  0  0  0
  139.9180   69.9080  225.7230 C   0  0  0  0  0  0  0  0  0  0  0  0
  139.7810   69.0970  226.8120 C   0  0  0  0  0  0  0  0  0  0  0  0
  140.2830   69.4880  228.0270 C   0  0  0  0  0  0  0  0  0  0  0  0
  140.1390   68.6740  229.0970 F   0  0  0  0  0  0  0  0  0  0  0  0
  140.9170   70.6970  228.1130 C   0  0  0  0  0  0  0  0  0  0  0  0
  141.0740   71.5490  227.0190 C   0  0  0  0  0  0  0  0  0  0  0  0
  140.5640   71.1460  225.8000 C   0  0  0  0  0  0  0  0  0  0  0  0
  140.6850   71.9250  224.7060 N   0  0  0  0  0  0  0  0  0  0  0  0
  138.9500   73.9450  223.0320 H   0  0  0  0  0  0  0  0  0  0  0  0
  140.0155   73.7695  220.2111 H   0  0  0  0  0  0  0  0  0  0  0  0
  138.8243   74.9695  220.8362 H   0  0  0  0  0  0  0  0  0  0  0  0
  141.3120   78.4021  220.2666 H   0  0  0  0  0  0  0  0  0  0  0  0
  140.4930   77.1823  219.2828 H   0  0  0  0  0  0  0  0  0  0  0  0
  139.3695   79.4672  220.8537 H   0  0  0  0  0  0  0  0  0  0  0  0
  138.6852   78.5949  219.4212 H   0  0  0  0  0  0  0  0  0  0  0  0
  137.2330   78.2967  221.3182 H   0  0  0  0  0  0  0  0  0  0  0  0
  138.0671   76.7342  220.9030 H   0  0  0  0  0  0  0  0  0  0  0  0
  138.5051   78.5677  223.2528 H   0  0  0  0  0  0  0  0  0  0  0  0
  138.1668   76.8061  223.2217 H   0  0  0  0  0  0  0  0  0  0  0  0
  140.4904   76.6107  223.4503 H   0  0  0  0  0  0  0  0  0  0  0  0
  139.2150   79.6354  223.7913 H   0  0  0  0  0  0  0  0  0  0  0  0
  140.5016   81.7234  224.2307 H   0  0  0  0  0  0  0  0  0  0  0  0
  142.9376   81.8598  223.6536 H   0  0  0  0  0  0  0  0  0  0  0  0
  144.0241   79.8489  222.6217 H   0  0  0  0  0  0  0  0  0  0  0  0
  139.1584   70.0337  222.4310 H   0  0  0  0  0  0  0  0  0  0  0  0
  138.9096   68.5777  224.3908 H   0  0  0  0  0  0  0  0  0  0  0  0
  139.2676   68.1290  226.7152 H   0  0  0  0  0  0  0  0  0  0  0  0
  141.3206   71.0113  229.0868 H   0  0  0  0  0  0  0  0  0  0  0  0
  141.5897   72.5149  227.1244 H   0  0  0  0  0  0  0  0  0  0  0  0
  1  2  2  0
  2  3  1  0
  3  4  1  0
  4  5  1  0
  5  6  2  0
  5  7  1  0
  7  8  1  0
  8  9  1  0
  9 10  1  0
 10 11  1  0
 11 12  1  0
 12 13  1  0
 13 14  2  0
 14 15  1  0
 15 16  2  0
 16 17  1  0
 17 18  2  0
  2 19  1  0
 19 20  2  0
 20 21  1  0
 21 22  2  0
 22 23  1  0
 23 24  2  0
 24 25  1  0
 24 26  1  0
 26 27  2  0
 27 28  1  0
 28 29  2  0
 12  7  1  0
 18 13  1  0
 29 19  1  0
 28 22  1  0
  3 30  1  0
  4 31  1  0
  4 32  1  0
  8 33  1  0
  8 34  1  0
  9 35  1  0
  9 36  1  0
 10 37  1  0
 10 38  1  0
 11 39  1  0
 11 40  1  0
 12 41  1  1
 14 42  1  0
 15 43  1  0
 16 44  1  0
 17 45  1  0
 20 46  1  0
 21 47  1  0
 23 48  1  0
 26 49  1  0
 27 50  1  0
M  END
>  <smiles>  (13) 
O=C(NCC(=O)N1CCCCC1c1ccccn1)c1ccc2cc(F)ccc2n1

>  <score_type>  (13) 
oracle

>  <origin>  (13) 
autodockgpu

>  <m_score__min__energy>  (13) 
-8.7100000000000009

>  <m_primary>  (13) 
energy

>  <rmsd>  (13) 
2.951317303764032

>  <m_score__min__rmsd>  (13) 
2.951317303764032

>  <meeko>  (13) 
{"free_energy": -8.65, "intermolecular_energy": -10.14, "internal_energy": -1.45, "cluster_size": 37, "cluster_id": 1, "rank_in_cluster": 8}

>  <energy>  (13) 
-8.61

>  <cluster_rmsd>  (13) 
1.21

>  <cluster>  (13) 
1

$$$$

     RDKit          3D

 50 53  0  0  0  0  0  0  0  0999 V2000
  141.2670   72.7490  222.0060 O   0  0  0  0  0  0  0  0  0  0  0  0
  140.1850   72.6110  222.6600 C   0  0  0  0  0  0  0  0  0  0  0  0
  139.0140   73.3750  222.3390 N   0  0  0  0  0  0  0  0  0  0  0  0
  139.1470   74.3050  221.2330 C   0  0  0  0  0  0  0  0  0  0  0  0
  139.0680   75.7110  221.7260 C   0  0  0  0  0  0  0  0  0  0  0  0
  138.0790   76.1240  222.4140 O   0  0  0  0  0  0  0  0  0  0  0  0
  140.1280   76.5980  221.4120 N   0  0  0  0  0  0  0  0  0  0  0  0
  141.4890   76.1570  221.1680 C   0  0  0  0  0  0  0  0  0  0  0  0
  141.9380   76.8960  219.9140 C   0  0  0  0  0  0  0  0  0  0  0  0
  140.7650   77.3910  219.1160 C   0  0  0  0  0  0  0  0  0  0  0  0
  139.9670   78.4260  219.8510 C   0  0  0  0  0  0  0  0  0  0  0  0
  139.8710   78.0320  221.3230 C   0  0  2  0  0  0  0  0  0  0  0  0
  140.8590   78.8320  222.0940 C   0  0  0  0  0  0  0  0  0  0  0  0
  141.0290   78.6450  223.4520 C   0  0  0  0  0  0  0  0  0  0  0  0
  141.9660   79.4180  224.1340 C   0  0  0  0  0  0  0  0  0  0  0  0
  142.7330   80.3750  223.4680 C   0  0  0  0  0  0  0  0  0  0  0  0
  142.5280   80.5270  222.1090 C   0  0  0  0  0  0  0  0  0  0  0  0
  141.6150   79.7620  221.4930 N   0  0  0  0  0  0  0  0  0  0  0  0
  140.1180   71.6560  223.7620 C   0  0  0  0  0  0  0  0  0  0  0  0
  139.5140   70.4300  223.5670 C   0  0  0  0  0  0  0  0  0  0  0  0
  139.4370   69.5120  224.5860 C   0  0  0  0  0  0  0  0  0  0  0  0
  139.9540   69.7780  225.8260 C   0  0  0  0  0  0  0  0  0  0  0  0
  139.8770   68.8650  226.8370 C   0  0  0  0  0  0  0  0  0  0  0  0
  140.4030   69.1590  228.0700 C   0  0  0  0  0  0  0  0  0  0  0  0
  140.3180   68.2430  229.0620 F   0  0  0  0  0  0  0  0  0  0  0  0
  141.0000   70.3750  228.2520 C   0  0  0  0  0  0  0  0  0  0  0  0
  141.0950   71.3320  227.2390 C   0  0  0  0  0  0  0  0  0  0  0  0
  140.5610   71.0260  226.0020 C   0  0  0  0  0  0  0  0  0  0  0  0
  140.6230   71.9070  224.9840 N   0  0  0  0  0  0  0  0  0  0  0  0
  138.1140   73.2680  222.8720 H   0  0  0  0  0  0  0  0  0  0  0  0
  140.1180   74.1471  220.7409 H   0  0  0  0  0  0  0  0  0  0  0  0
  138.3293   74.1301  220.5183 H   0  0  0  0  0  0  0  0  0  0  0  0
  142.1356   76.4164  222.0193 H   0  0  0  0  0  0  0  0  0  0  0  0
  141.5478   75.0659  221.0416 H   0  0  0  0  0  0  0  0  0  0  0  0
  142.5581   77.7555  220.2085 H   0  0  0  0  0  0  0  0  0  0  0  0
  142.5105   76.1961  219.2876 H   0  0  0  0  0  0  0  0  0  0  0  0
  141.1363   77.8315  218.1790 H   0  0  0  0  0  0  0  0  0  0  0  0
  140.1042   76.5326  218.9250 H   0  0  0  0  0  0  0  0  0  0  0  0
  140.4628   79.4040  219.7632 H   0  0  0  0  0  0  0  0  0  0  0  0
  138.9576   78.4910  219.4186 H   0  0  0  0  0  0  0  0  0  0  0  0
  138.8766   78.2371  221.7462 H   0  0  0  0  0  0  0  0  0  0  0  0
  140.4311   77.8939  223.9890 H   0  0  0  0  0  0  0  0  0  0  0  0
  142.1036   79.2716  225.2155 H   0  0  0  0  0  0  0  0  0  0  0  0
  143.4737   80.9861  224.0046 H   0  0  0  0  0  0  0  0  0  0  0  0
  143.1079   81.2678  221.5390 H   0  0  0  0  0  0  0  0  0  0  0  0
  139.0888   70.1850  222.5826 H   0  0  0  0  0  0  0  0  0  0  0  0
  138.9499   68.5430  224.4022 H   0  0  0  0  0  0  0  0  0  0  0  0
  139.3930   67.8926  226.6637 H   0  0  0  0  0  0  0  0  0  0  0  0
  141.4242   70.6102  229.2393 H   0  0  0  0  0  0  0  0  0  0  0  0
  141.5812   72.3018  227.4209 H   0  0  0  0  0  0  0  0  0  0  0  0
  1  2  2  0
  2  3  1  0
  3  4  1  0
  4  5  1  0
  5  6  2  0
  5  7  1  0
  7  8  1  0
  8  9  1  0
  9 10  1  0
 10 11  1  0
 11 12  1  0
 12 13  1  0
 13 14  2  0
 14 15  1  0
 15 16  2  0
 16 17  1  0
 17 18  2  0
  2 19  1  0
 19 20  2  0
 20 21  1  0
 21 22  2  0
 22 23  1  0
 23 24  2  0
 24 25  1  0
 24 26  1  0
 26 27  2  0
 27 28  1  0
 28 29  2  0
 12  7  1  0
 18 13  1  0
 29 19  1  0
 28 22  1  0
  3 30  1  0
  4 31  1  0
  4 32  1  0
  8 33  1  0
  8 34  1  0
  9 35  1  0
  9 36  1  0
 10 37  1  0
 10 38  1  0
 11 39  1  0
 11 40  1  0
 12 41  1  1
 14 42  1  0
 15 43  1  0
 16 44  1  0
 17 45  1  0
 20 46  1  0
 21 47  1  0
 23 48  1  0
 26 49  1  0
 27 50  1  0
M  END
>  <smiles>  (14) 
O=C(NCC(=O)N1CCCCC1c1ccccn1)c1ccc2cc(F)ccc2n1

>  <score_type>  (14) 
oracle

>  <origin>  (14) 
autodockgpu

>  <m_score__min__energy>  (14) 
-8.7100000000000009

>  <m_primary>  (14) 
energy

>  <rmsd>  (14) 
2.7120044831874823

>  <m_score__min__rmsd>  (14) 
2.7120044831874823

>  <meeko>  (14) 
{"free_energy": -8.58, "intermolecular_energy": -10.07, "internal_energy": -1.52, "cluster_size": 37, "cluster_id": 1, "rank_in_cluster": 18}

>  <energy>  (14) 
-8.6

>  <cluster_rmsd>  (14) 
1.12

>  <cluster>  (14) 
1

$$$$

     RDKit          3D

 50 53  0  0  0  0  0  0  0  0999 V2000
  139.7690   71.6200  221.0720 O   0  0  0  0  0  0  0  0  0  0  0  0
  139.7380   72.1840  222.2120 C   0  0  0  0  0  0  0  0  0  0  0  0
  139.5850   73.6040  222.3390 N   0  0  0  0  0  0  0  0  0  0  0  0
  139.4700   74.3450  221.0950 C   0  0  0  0  0  0  0  0  0  0  0  0
  140.8070   74.4820  220.4480 C   0  0  0  0  0  0  0  0  0  0  0  0
  141.4330   73.4720  219.9870 O   0  0  0  0  0  0  0  0  0  0  0  0
  141.3820   75.7730  220.3500 N   0  0  0  0  0  0  0  0  0  0  0  0
  142.7900   75.9990  220.0840 C   0  0  0  0  0  0  0  0  0  0  0  0
  142.8340   77.0800  219.0110 C   0  0  0  0  0  0  0  0  0  0  0  0
  141.5280   77.1760  218.2730 C   0  0  0  0  0  0  0  0  0  0  0  0
  140.4020   77.6210  219.1560 C   0  0  0  0  0  0  0  0  0  0  0  0
  140.5420   76.9550  220.5220 C   0  0  2  0  0  0  0  0  0  0  0  0
  141.1340   77.9350  221.4700 C   0  0  0  0  0  0  0  0  0  0  0  0
  141.1840   77.6800  222.8260 C   0  0  0  0  0  0  0  0  0  0  0  0
  141.7470   78.6290  223.6780 C   0  0  0  0  0  0  0  0  0  0  0  0
  142.2610   79.8280  223.1810 C   0  0  0  0  0  0  0  0  0  0  0  0
  142.1890   80.0390  221.8170 C   0  0  0  0  0  0  0  0  0  0  0  0
  141.6380   79.0990  221.0360 N   0  0  0  0  0  0  0  0  0  0  0  0
  139.8590   71.3810  223.4250 C   0  0  0  0  0  0  0  0  0  0  0  0
  139.4560   70.0610  223.4120 C   0  0  0  0  0  0  0  0  0  0  0  0
  139.5580   69.2820  224.5390 C   0  0  0  0  0  0  0  0  0  0  0  0
  140.0620   69.7840  225.7090 C   0  0  0  0  0  0  0  0  0  0  0  0
  140.1630   69.0080  226.8270 C   0  0  0  0  0  0  0  0  0  0  0  0
  140.6700   69.5370  227.9870 C   0  0  0  0  0  0  0  0  0  0  0  0
  140.7640   68.7560  229.0870 F   0  0  0  0  0  0  0  0  0  0  0  0
  141.0680   70.8450  227.9880 C   0  0  0  0  0  0  0  0  0  0  0  0
  140.9770   71.6660  226.8620 C   0  0  0  0  0  0  0  0  0  0  0  0
  140.4640   71.1230  225.7000 C   0  0  0  0  0  0  0  0  0  0  0  0
  140.3520   71.8640  224.5800 N   0  0  0  0  0  0  0  0  0  0  0  0
  139.5570   74.0810  223.2750 H   0  0  0  0  0  0  0  0  0  0  0  0
  138.7911   73.8094  220.4151 H   0  0  0  0  0  0  0  0  0  0  0  0
  139.0730   75.3478  221.3115 H   0  0  0  0  0  0  0  0  0  0  0  0
  143.3032   76.3407  220.9950 H   0  0  0  0  0  0  0  0  0  0  0  0
  143.2960   75.0788  219.7567 H   0  0  0  0  0  0  0  0  0  0  0  0
  143.0475   78.0482  219.4874 H   0  0  0  0  0  0  0  0  0  0  0  0
  143.6207   76.8176  218.2883 H   0  0  0  0  0  0  0  0  0  0  0  0
  141.6392   77.8991  217.4515 H   0  0  0  0  0  0  0  0  0  0  0  0
  141.2816   76.1720  217.8971 H   0  0  0  0  0  0  0  0  0  0  0  0
  140.4371   78.7141  219.2743 H   0  0  0  0  0  0  0  0  0  0  0  0
  139.4415   77.3353  218.7023 H   0  0  0  0  0  0  0  0  0  0  0  0
  139.5721   76.6402  220.9346 H   0  0  0  0  0  0  0  0  0  0  0  0
  140.7839   76.7382  223.2297 H   0  0  0  0  0  0  0  0  0  0  0  0
  141.7868   78.4299  224.7591 H   0  0  0  0  0  0  0  0  0  0  0  0
  142.7072   80.5778  223.8508 H   0  0  0  0  0  0  0  0  0  0  0  0
  142.5796   80.9684  221.3769 H   0  0  0  0  0  0  0  0  0  0  0  0
  139.0478   69.6271  222.4873 H   0  0  0  0  0  0  0  0  0  0  0  0
  139.2280   68.2334  224.5007 H   0  0  0  0  0  0  0  0  0  0  0  0
  139.8377   67.9576  226.7981 H   0  0  0  0  0  0  0  0  0  0  0  0
  141.4778   71.2693  228.9165 H   0  0  0  0  0  0  0  0  0  0  0  0
  141.3046   72.7154  226.8993 H   0  0  0  0  0  0  0  0  0  0  0  0
  1  2  2  0
  2  3  1  0
  3  4  1  0
  4  5  1  0
  5  6  2  0
  5  7  1  0
  7  8  1  0
  8  9  1  0
  9 10  1  0
 10 11  1  0
 11 12  1  0
 12 13  1  0
 13 14  2  0
 14 15  1  0
 15 16  2  0
 16 17  1  0
 17 18  2  0
  2 19  1  0
 19 20  2  0
 20 21  1  0
 21 22  2  0
 22 23  1  0
 23 24  2  0
 24 25  1  0
 24 26  1  0
 26 27  2  0
 27 28  1  0
 28 29  2  0
 12  7  1  0
 18 13  1  0
 29 19  1  0
 28 22  1  0
  3 30  1  0
  4 31  1  0
  4 32  1  0
  8 33  1  0
  8 34  1  0
  9 35  1  0
  9 36  1  0
 10 37  1  0
 10 38  1  0
 11 39  1  0
 11 40  1  0
 12 41  1  1
 14 42  1  0
 15 43  1  0
 16 44  1  0
 17 45  1  0
 20 46  1  0
 21 47  1  0
 23 48  1  0
 26 49  1  0
 27 50  1  0
M  END
>  <smiles>  (15) 
O=C(NCC(=O)N1CCCCC1c1ccccn1)c1ccc2cc(F)ccc2n1

>  <score_type>  (15) 
oracle

>  <origin>  (15) 
autodockgpu

>  <m_score__min__energy>  (15) 
-8.7100000000000009

>  <m_primary>  (15) 
energy

>  <rmsd>  (15) 
2.5721632958391294

>  <m_score__min__rmsd>  (15) 
2.5721632958391294

>  <meeko>  (15) 
{"free_energy": -8.12, "intermolecular_energy": -9.61, "internal_energy": -1.55, "cluster_size": 37, "cluster_id": 1, "rank_in_cluster": 36}

>  <energy>  (15) 
-8.59

>  <cluster_rmsd>  (15) 
1.14

>  <cluster>  (15) 
1

$$$$

     RDKit          3D

 50 53  0  0  0  0  0  0  0  0999 V2000
  140.9450   73.7250  220.3460 O   0  0  0  0  0  0  0  0  0  0  0  0
  140.3870   74.4950  221.1910 C   0  0  0  0  0  0  0  0  0  0  0  0
  139.3250   74.0320  222.0360 N   0  0  0  0  0  0  0  0  0  0  0  0
  138.9330   72.6450  221.8630 C   0  0  0  0  0  0  0  0  0  0  0  0
  139.8260   71.7510  222.6560 C   0  0  0  0  0  0  0  0  0  0  0  0
  141.0850   71.7250  222.4670 O   0  0  0  0  0  0  0  0  0  0  0  0
  139.2430   70.9160  223.6410 N   0  0  0  0  0  0  0  0  0  0  0  0
  137.9570   71.1890  224.2570 C   0  0  0  0  0  0  0  0  0  0  0  0
  137.2070   69.8630  224.2370 C   0  0  0  0  0  0  0  0  0  0  0  0
  137.7780   68.9220  223.2150 C   0  0  0  0  0  0  0  0  0  0  0  0
  139.1820   68.5090  223.5350 C   0  0  0  0  0  0  0  0  0  0  0  0
  139.9460   69.7140  224.0810 C   0  0  2  0  0  0  0  0  0  0  0  0
  140.0070   69.6060  225.5630 C   0  0  0  0  0  0  0  0  0  0  0  0
  139.8260   68.3950  226.2010 C   0  0  0  0  0  0  0  0  0  0  0  0
  139.8920   68.3410  227.5920 C   0  0  0  0  0  0  0  0  0  0  0  0
  140.1390   69.4890  228.3460 C   0  0  0  0  0  0  0  0  0  0  0  0
  140.3140   70.6780  227.6640 C   0  0  0  0  0  0  0  0  0  0  0  0
  140.2410   70.6840  226.3250 N   0  0  0  0  0  0  0  0  0  0  0  0
  140.8290   75.8810  221.3170 C   0  0  0  0  0  0  0  0  0  0  0  0
  141.6980   76.4070  220.3820 C   0  0  0  0  0  0  0  0  0  0  0  0
  142.1290   77.7080  220.4750 C   0  0  0  0  0  0  0  0  0  0  0  0
  141.7160   78.5250  221.4930 C   0  0  0  0  0  0  0  0  0  0  0  0
  142.1450   79.8170  221.5830 C   0  0  0  0  0  0  0  0  0  0  0  0
  141.7150   80.6130  222.6140 C   0  0  0  0  0  0  0  0  0  0  0  0
  142.1500   81.8920  222.6900 F   0  0  0  0  0  0  0  0  0  0  0  0
  140.8540   80.0830  223.5340 C   0  0  0  0  0  0  0  0  0  0  0  0
  140.3960   78.7660  223.4700 C   0  0  0  0  0  0  0  0  0  0  0  0
  140.8360   77.9720  222.4290 C   0  0  0  0  0  0  0  0  0  0  0  0
  140.4290   76.6920  222.3120 N   0  0  0  0  0  0  0  0  0  0  0  0
  138.8570   74.6590  222.7390 H   0  0  0  0  0  0  0  0  0  0  0  0
  137.8952   72.5161  222.2041 H   0  0  0  0  0  0  0  0  0  0  0  0
  139.0159   72.3802  220.7986 H   0  0  0  0  0  0  0  0  0  0  0  0
  138.0925   71.5386  225.2911 H   0  0  0  0  0  0  0  0  0  0  0  0
  137.4071   71.9772  223.7220 H   0  0  0  0  0  0  0  0  0  0  0  0
  137.2784   69.3971  225.2309 H   0  0  0  0  0  0  0  0  0  0  0  0
  136.1583   70.0640  223.9727 H   0  0  0  0  0  0  0  0  0  0  0  0
  137.1468   68.0221  223.1727 H   0  0  0  0  0  0  0  0  0  0  0  0
  137.7970   69.4491  222.2497 H   0  0  0  0  0  0  0  0  0  0  0  0
  139.1676   67.7092  224.2900 H   0  0  0  0  0  0  0  0  0  0  0  0
  139.6759   68.1390  222.6244 H   0  0  0  0  0  0  0  0  0  0  0  0
  140.9805   69.7561  223.7094 H   0  0  0  0  0  0  0  0  0  0  0  0
  139.6318   67.4828  225.6177 H   0  0  0  0  0  0  0  0  0  0  0  0
  139.7471   67.3781  228.1037 H   0  0  0  0  0  0  0  0  0  0  0  0
  140.1925   69.4488  229.4440 H   0  0  0  0  0  0  0  0  0  0  0  0
  140.5112   71.6101  228.2139 H   0  0  0  0  0  0  0  0  0  0  0  0
  142.0497   75.7764  219.5522 H   0  0  0  0  0  0  0  0  0  0  0  0
  142.8205   78.1017  219.7155 H   0  0  0  0  0  0  0  0  0  0  0  0
  142.8361   80.2206  220.8283 H   0  0  0  0  0  0  0  0  0  0  0  0
  140.5074   80.7215  224.3599 H   0  0  0  0  0  0  0  0  0  0  0  0
  139.7035   78.3712  224.2280 H   0  0  0  0  0  0  0  0  0  0  0  0
  1  2  2  0
  2  3  1  0
  3  4  1  0
  4  5  1  0
  5  6  2  0
  5  7  1  0
  7  8  1  0
  8  9  1  0
  9 10  1  0
 10 11  1  0
 11 12  1  0
 12 13  1  0
 13 14  2  0
 14 15  1  0
 15 16  2  0
 16 17  1  0
 17 18  2  0
  2 19  1  0
 19 20  2  0
 20 21  1  0
 21 22  2  0
 22 23  1  0
 23 24  2  0
 24 25  1  0
 24 26  1  0
 26 27  2  0
 27 28  1  0
 28 29  2  0
 12  7  1  0
 18 13  1  0
 29 19  1  0
 28 22  1  0
  3 30  1  0
  4 31  1  0
  4 32  1  0
  8 33  1  0
  8 34  1  0
  9 35  1  0
  9 36  1  0
 10 37  1  0
 10 38  1  0
 11 39  1  0
 11 40  1  0
 12 41  1  6
 14 42  1  0
 15 43  1  0
 16 44  1  0
 17 45  1  0
 20 46  1  0
 21 47  1  0
 23 48  1  0
 26 49  1  0
 27 50  1  0
M  END
>  <smiles>  (16) 
O=C(NCC(=O)N1CCCCC1c1ccccn1)c1ccc2cc(F)ccc2n1

>  <score_type>  (16) 
oracle

>  <origin>  (16) 
autodockgpu

>  <m_score__min__energy>  (16) 
-8.7100000000000009

>  <m_primary>  (16) 
energy

>  <rmsd>  (16) 
9.593584378535198

>  <m_score__min__rmsd>  (16) 
9.593584378535198

>  <meeko>  (16) 
{"free_energy": -7.89, "intermolecular_energy": -9.38, "internal_energy": -1.58, "cluster_size": 6, "cluster_id": 3, "rank_in_cluster": 4}

>  <energy>  (16) 
-8.59

>  <cluster_rmsd>  (16) 
1.09

>  <cluster>  (16) 
1

$$$$

     RDKit          3D

 50 53  0  0  0  0  0  0  0  0999 V2000
  141.1620   72.3250  221.5350 O   0  0  0  0  0  0  0  0  0  0  0  0
  140.2800   72.5150  222.4320 C   0  0  0  0  0  0  0  0  0  0  0  0
  139.3660   73.6190  222.3590 N   0  0  0  0  0  0  0  0  0  0  0  0
  139.5150   74.4920  221.2090 C   0  0  0  0  0  0  0  0  0  0  0  0
  140.6770   75.4080  221.4010 C   0  0  0  0  0  0  0  0  0  0  0  0
  141.8660   74.9650  221.5150 O   0  0  0  0  0  0  0  0  0  0  0  0
  140.4360   76.8030  221.4550 N   0  0  0  0  0  0  0  0  0  0  0  0
  140.5700   77.6790  220.3050 C   0  0  0  0  0  0  0  0  0  0  0  0
  139.3250   78.5570  220.3140 C   0  0  0  0  0  0  0  0  0  0  0  0
  138.2200   77.9370  221.1230 C   0  0  0  0  0  0  0  0  0  0  0  0
  138.5660   77.8270  222.5770 C   0  0  0  0  0  0  0  0  0  0  0  0
  140.0320   77.4210  222.7140 C   0  0  2  0  0  0  0  0  0  0  0  0
  140.8330   78.6320  223.0320 C   0  0  0  0  0  0  0  0  0  0  0  0
  140.2410   79.7670  223.5500 C   0  0  0  0  0  0  0  0  0  0  0  0
  141.0320   80.8800  223.8330 C   0  0  0  0  0  0  0  0  0  0  0  0
  142.4080   80.8620  223.6020 C   0  0  0  0  0  0  0  0  0  0  0  0
  142.9560   79.7040  223.0830 C   0  0  0  0  0  0  0  0  0  0  0  0
  142.1580   78.6590  222.8260 N   0  0  0  0  0  0  0  0  0  0  0  0
  140.1830   71.5980  223.5630 C   0  0  0  0  0  0  0  0  0  0  0  0
  139.5780   70.3690  223.3950 C   0  0  0  0  0  0  0  0  0  0  0  0
  139.4730   69.4860  224.4430 C   0  0  0  0  0  0  0  0  0  0  0  0
  139.9620   69.7920  225.6850 C   0  0  0  0  0  0  0  0  0  0  0  0
  139.8570   68.9140  226.7230 C   0  0  0  0  0  0  0  0  0  0  0  0
  140.3550   69.2470  227.9570 C   0  0  0  0  0  0  0  0  0  0  0  0
  140.2430   68.3660  228.9770 F   0  0  0  0  0  0  0  0  0  0  0  0
  140.9530   70.4660  228.1130 C   0  0  0  0  0  0  0  0  0  0  0  0
  141.0770   71.3880  227.0710 C   0  0  0  0  0  0  0  0  0  0  0  0
  140.5710   71.0430  225.8330 C   0  0  0  0  0  0  0  0  0  0  0  0
  140.6600   71.8890  224.7870 N   0  0  0  0  0  0  0  0  0  0  0  0
  138.6330   73.7850  223.0930 H   0  0  0  0  0  0  0  0  0  0  0  0
  139.6792   73.8814  220.3088 H   0  0  0  0  0  0  0  0  0  0  0  0
  138.6007   75.0930  221.0953 H   0  0  0  0  0  0  0  0  0  0  0  0
  141.4761   78.2961  220.3954 H   0  0  0  0  0  0  0  0  0  0  0  0
  140.6613   77.1105  219.3677 H   0  0  0  0  0  0  0  0  0  0  0  0
  139.5803   79.5350  220.7479 H   0  0  0  0  0  0  0  0  0  0  0  0
  138.9735   78.6684  219.2776 H   0  0  0  0  0  0  0  0  0  0  0  0
  137.3173   78.5573  221.0211 H   0  0  0  0  0  0  0  0  0  0  0  0
  138.0562   76.9188  220.7403 H   0  0  0  0  0  0  0  0  0  0  0  0
  138.4056   78.7982  223.0680 H   0  0  0  0  0  0  0  0  0  0  0  0
  137.9262   77.0695  223.0533 H   0  0  0  0  0  0  0  0  0  0  0  0
  140.1907   76.6973  223.5271 H   0  0  0  0  0  0  0  0  0  0  0  0
  139.1574   79.7928  223.7373 H   0  0  0  0  0  0  0  0  0  0  0  0
  140.5639   81.7863  224.2447 H   0  0  0  0  0  0  0  0  0  0  0  0
  143.0344   81.7383  223.8250 H   0  0  0  0  0  0  0  0  0  0  0  0
  144.0358   79.6411  222.8831 H   0  0  0  0  0  0  0  0  0  0  0  0
  139.1746   70.0926  222.4097 H   0  0  0  0  0  0  0  0  0  0  0  0
  138.9860   68.5131  224.2807 H   0  0  0  0  0  0  0  0  0  0  0  0
  139.3727   67.9382  226.5707 H   0  0  0  0  0  0  0  0  0  0  0  0
  141.3540   70.7326  229.1020 H   0  0  0  0  0  0  0  0  0  0  0  0
  141.5638   72.3612  227.2318 H   0  0  0  0  0  0  0  0  0  0  0  0
  1  2  2  0
  2  3  1  0
  3  4  1  0
  4  5  1  0
  5  6  2  0
  5  7  1  0
  7  8  1  0
  8  9  1  0
  9 10  1  0
 10 11  1  0
 11 12  1  0
 12 13  1  0
 13 14  2  0
 14 15  1  0
 15 16  2  0
 16 17  1  0
 17 18  2  0
  2 19  1  0
 19 20  2  0
 20 21  1  0
 21 22  2  0
 22 23  1  0
 23 24  2  0
 24 25  1  0
 24 26  1  0
 26 27  2  0
 27 28  1  0
 28 29  2  0
 12  7  1  0
 18 13  1  0
 29 19  1  0
 28 22  1  0
  3 30  1  0
  4 31  1  0
  4 32  1  0
  8 33  1  0
  8 34  1  0
  9 35  1  0
  9 36  1  0
 10 37  1  0
 10 38  1  0
 11 39  1  0
 11 40  1  0
 12 41  1  1
 14 42  1  0
 15 43  1  0
 16 44  1  0
 17 45  1  0
 20 46  1  0
 21 47  1  0
 23 48  1  0
 26 49  1  0
 27 50  1  0
M  END
>  <smiles>  (17) 
O=C(NCC(=O)N1CCCCC1c1ccccn1)c1ccc2cc(F)ccc2n1

>  <score_type>  (17) 
oracle

>  <origin>  (17) 
autodockgpu

>  <m_score__min__energy>  (17) 
-8.7100000000000009

>  <m_primary>  (17) 
energy

>  <rmsd>  (17) 
2.9363581264839564

>  <m_score__min__rmsd>  (17) 
2.9363581264839564

>  <meeko>  (17) 
{"free_energy": -8.7, "intermolecular_energy": -10.2, "internal_energy": -1.4, "cluster_size": 37, "cluster_id": 1, "rank_in_cluster": 2}

>  <energy>  (17) 
-8.58

>  <cluster_rmsd>  (17) 
1.23

>  <cluster>  (17) 
1

$$$$

     RDKit          3D

 50 53  0  0  0  0  0  0  0  0999 V2000
  140.1840   71.6200  221.0940 O   0  0  0  0  0  0  0  0  0  0  0  0
  139.9220   72.1430  222.2240 C   0  0  0  0  0  0  0  0  0  0  0  0
  139.5690   73.5280  222.3430 N   0  0  0  0  0  0  0  0  0  0  0  0
  139.5330   74.2830  221.1040 C   0  0  0  0  0  0  0  0  0  0  0  0
  140.7630   75.1160  220.9680 C   0  0  0  0  0  0  0  0  0  0  0  0
  140.8980   76.2160  221.5950 O   0  0  0  0  0  0  0  0  0  0  0  0
  141.7990   74.6580  220.1170 N   0  0  0  0  0  0  0  0  0  0  0  0
  141.5900   74.3150  218.7220 C   0  0  0  0  0  0  0  0  0  0  0  0
  142.7320   74.9790  217.9630 C   0  0  0  0  0  0  0  0  0  0  0  0
  143.3450   76.0970  218.7580 C   0  0  0  0  0  0  0  0  0  0  0  0
  144.0080   75.6130  220.0120 C   0  0  0  0  0  0  0  0  0  0  0  0
  143.1550   74.5120  220.6380 C   0  0  2  0  0  0  0  0  0  0  0  0
  143.7530   73.1950  220.2960 C   0  0  0  0  0  0  0  0  0  0  0  0
  145.0690   73.0890  219.8930 C   0  0  0  0  0  0  0  0  0  0  0  0
  145.5880   71.8330  219.5820 C   0  0  0  0  0  0  0  0  0  0  0  0
  144.7990   70.6850  219.6740 C   0  0  0  0  0  0  0  0  0  0  0  0
  143.4870   70.8410  220.0820 C   0  0  0  0  0  0  0  0  0  0  0  0
  143.0310   72.0680  220.3710 N   0  0  0  0  0  0  0  0  0  0  0  0
  139.9760   71.3270  223.4340 C   0  0  0  0  0  0  0  0  0  0  0  0
  139.5350   70.0190  223.3950 C   0  0  0  0  0  0  0  0  0  0  0  0
  139.5750   69.2290  224.5180 C   0  0  0  0  0  0  0  0  0  0  0  0
  140.0510   69.7070  225.7100 C   0  0  0  0  0  0  0  0  0  0  0  0
  140.0900   68.9200  226.8240 C   0  0  0  0  0  0  0  0  0  0  0  0
  140.5710   69.4250  228.0050 C   0  0  0  0  0  0  0  0  0  0  0  0
  140.6030   68.6320  229.1010 F   0  0  0  0  0  0  0  0  0  0  0  0
  141.0060   70.7210  228.0320 C   0  0  0  0  0  0  0  0  0  0  0  0
  140.9800   71.5520  226.9110 C   0  0  0  0  0  0  0  0  0  0  0  0
  140.4920   71.0340  225.7270 C   0  0  0  0  0  0  0  0  0  0  0  0
  140.4420   71.7860  224.6100 N   0  0  0  0  0  0  0  0  0  0  0  0
  139.3500   73.9700  223.2710 H   0  0  0  0  0  0  0  0  0  0  0  0
  139.4719   73.5853  220.2558 H   0  0  0  0  0  0  0  0  0  0  0  0
  138.6534   74.9435  221.1135 H   0  0  0  0  0  0  0  0  0  0  0  0
  141.6212   73.2239  218.5857 H   0  0  0  0  0  0  0  0  0  0  0  0
  140.6083   74.6555  218.3611 H   0  0  0  0  0  0  0  0  0  0  0  0
  143.5051   74.2261  217.7501 H   0  0  0  0  0  0  0  0  0  0  0  0
  142.3279   75.3998  217.0305 H   0  0  0  0  0  0  0  0  0  0  0  0
  144.0967   76.6026  218.1341 H   0  0  0  0  0  0  0  0  0  0  0  0
  142.5356   76.7819  219.0508 H   0  0  0  0  0  0  0  0  0  0  0  0
  145.0045   75.2143  219.7710 H   0  0  0  0  0  0  0  0  0  0  0  0
  144.1124   76.4477  220.7207 H   0  0  0  0  0  0  0  0  0  0  0  0
  143.1196   74.5836  221.7351 H   0  0  0  0  0  0  0  0  0  0  0  0
  145.7014   73.9859  219.8181 H   0  0  0  0  0  0  0  0  0  0  0  0
  146.6358   71.7452  219.2590 H   0  0  0  0  0  0  0  0  0  0  0  0
  145.2061   69.6925  219.4308 H   0  0  0  0  0  0  0  0  0  0  0  0
  142.8243   69.9673  220.1685 H   0  0  0  0  0  0  0  0  0  0  0  0
  139.1469   69.6045  222.4529 H   0  0  0  0  0  0  0  0  0  0  0  0
  139.2172   68.1905  224.4587 H   0  0  0  0  0  0  0  0  0  0  0  0
  139.7354   67.8799  226.7748 H   0  0  0  0  0  0  0  0  0  0  0  0
  141.3933   71.1263  228.9784 H   0  0  0  0  0  0  0  0  0  0  0  0
  141.3381   72.5905  226.9687 H   0  0  0  0  0  0  0  0  0  0  0  0
  1  2  2  0
  2  3  1  0
  3  4  1  0
  4  5  1  0
  5  6  2  0
  5  7  1  0
  7  8  1  0
  8  9  1  0
  9 10  1  0
 10 11  1  0
 11 12  1  0
 12 13  1  0
 13 14  2  0
 14 15  1  0
 15 16  2  0
 16 17  1  0
 17 18  2  0
  2 19  1  0
 19 20  2  0
 20 21  1  0
 21 22  2  0
 22 23  1  0
 23 24  2  0
 24 25  1  0
 24 26  1  0
 26 27  2  0
 27 28  1  0
 28 29  2  0
 12  7  1  0
 18 13  1  0
 29 19  1  0
 28 22  1  0
  3 30  1  0
  4 31  1  0
  4 32  1  0
  8 33  1  0
  8 34  1  0
  9 35  1  0
  9 36  1  0
 10 37  1  0
 10 38  1  0
 11 39  1  0
 11 40  1  0
 12 41  1  1
 14 42  1  0
 15 43  1  0
 16 44  1  0
 17 45  1  0
 20 46  1  0
 21 47  1  0
 23 48  1  0
 26 49  1  0
 27 50  1  0
M  END
>  <smiles>  (18) 
O=C(NCC(=O)N1CCCCC1c1ccccn1)c1ccc2cc(F)ccc2n1

>  <score_type>  (18) 
oracle

>  <origin>  (18) 
autodockgpu

>  <m_score__min__energy>  (18) 
-8.7100000000000009

>  <m_primary>  (18) 
energy

>  <rmsd>  (18) 
4.582612871986445

>  <m_score__min__rmsd>  (18) 
4.582612871986445

>  <meeko>  (18) 
{"free_energy": -7.44, "intermolecular_energy": -8.93, "internal_energy": -1.96, "cluster_size": 7, "cluster_id": 2, "rank_in_cluster": 7}

>  <energy>  (18) 
-8.58

>  <cluster_rmsd>  (18) 
1.13

>  <cluster>  (18) 
1

$$$$

     RDKit          3D

 50 53  0  0  0  0  0  0  0  0999 V2000
  141.2010   72.3820  221.6870 O   0  0  0  0  0  0  0  0  0  0  0  0
  140.2340   72.4730  222.5090 C   0  0  0  0  0  0  0  0  0  0  0  0
  139.2020   73.4560  222.3430 N   0  0  0  0  0  0  0  0  0  0  0  0
  139.3360   74.3290  221.1900 C   0  0  0  0  0  0  0  0  0  0  0  0
  139.1430   75.7530  221.5920 C   0  0  0  0  0  0  0  0  0  0  0  0
  138.0950   76.1380  222.2060 O   0  0  0  0  0  0  0  0  0  0  0  0
  140.1600   76.6880  221.2770 N   0  0  0  0  0  0  0  0  0  0  0  0
  141.5080   76.3020  220.9040 C   0  0  0  0  0  0  0  0  0  0  0  0
  141.8520   77.1480  219.6850 C   0  0  0  0  0  0  0  0  0  0  0  0
  140.6150   77.6730  219.0130 C   0  0  0  0  0  0  0  0  0  0  0  0
  139.8510   78.6270  219.8810 C   0  0  0  0  0  0  0  0  0  0  0  0
  139.8690   78.1180  221.3200 C   0  0  2  0  0  0  0  0  0  0  0  0
  140.8920   78.8800  222.0820 C   0  0  0  0  0  0  0  0  0  0  0  0
  141.1180   78.6340  223.4220 C   0  0  0  0  0  0  0  0  0  0  0  0
  142.0890   79.3740  224.0970 C   0  0  0  0  0  0  0  0  0  0  0  0
  142.8320   80.3550  223.4390 C   0  0  0  0  0  0  0  0  0  0  0  0
  142.5710   80.5660  222.0980 C   0  0  0  0  0  0  0  0  0  0  0  0
  141.6280   79.8310  221.4900 N   0  0  0  0  0  0  0  0  0  0  0  0
  140.1580   71.5640  223.6480 C   0  0  0  0  0  0  0  0  0  0  0  0
  139.5890   70.3170  223.4890 C   0  0  0  0  0  0  0  0  0  0  0  0
  139.5050   69.4400  224.5430 C   0  0  0  0  0  0  0  0  0  0  0  0
  139.9810   69.7700  225.7840 C   0  0  0  0  0  0  0  0  0  0  0  0
  139.8970   68.8990  226.8300 C   0  0  0  0  0  0  0  0  0  0  0  0
  140.3820   69.2560  228.0630 C   0  0  0  0  0  0  0  0  0  0  0  0
  140.2910   68.3810  229.0900 F   0  0  0  0  0  0  0  0  0  0  0  0
  140.9450   70.4930  228.2100 C   0  0  0  0  0  0  0  0  0  0  0  0
  141.0460   71.4090  227.1610 C   0  0  0  0  0  0  0  0  0  0  0  0
  140.5540   71.0390  225.9240 C   0  0  0  0  0  0  0  0  0  0  0  0
  140.6230   71.8780  224.8710 N   0  0  0  0  0  0  0  0  0  0  0  0
  138.3990   73.5410  223.0150 H   0  0  0  0  0  0  0  0  0  0  0  0
  140.3401   74.2071  220.7576 H   0  0  0  0  0  0  0  0  0  0  0  0
  138.5702   74.0604  220.4475 H   0  0  0  0  0  0  0  0  0  0  0  0
  142.2086   76.5099  221.7261 H   0  0  0  0  0  0  0  0  0  0  0  0
  141.5786   75.2260  220.6866 H   0  0  0  0  0  0  0  0  0  0  0  0
  142.4739   77.9976  220.0034 H   0  0  0  0  0  0  0  0  0  0  0  0
  142.3930   76.5146  218.9665 H   0  0  0  0  0  0  0  0  0  0  0  0
  140.9091   78.1941  218.0900 H   0  0  0  0  0  0  0  0  0  0  0  0
  139.9597   76.8151  218.8019 H   0  0  0  0  0  0  0  0  0  0  0  0
  140.3193   79.6214  219.8362 H   0  0  0  0  0  0  0  0  0  0  0  0
  138.8121   78.6993  219.5267 H   0  0  0  0  0  0  0  0  0  0  0  0
  138.9035   78.2648  221.8263 H   0  0  0  0  0  0  0  0  0  0  0  0
  140.5387   77.8631  223.9512 H   0  0  0  0  0  0  0  0  0  0  0  0
  142.2718   79.1812  225.1644 H   0  0  0  0  0  0  0  0  0  0  0  0
  143.5984   80.9398  223.9688 H   0  0  0  0  0  0  0  0  0  0  0  0
  143.1304   81.3282  221.5358 H   0  0  0  0  0  0  0  0  0  0  0  0
  139.1973   70.0211  222.5046 H   0  0  0  0  0  0  0  0  0  0  0  0
  139.0461   68.4526  224.3870 H   0  0  0  0  0  0  0  0  0  0  0  0
  139.4399   67.9090  226.6851 H   0  0  0  0  0  0  0  0  0  0  0  0
  141.3355   70.7792  229.1977 H   0  0  0  0  0  0  0  0  0  0  0  0
  141.5042   72.3971  227.3150 H   0  0  0  0  0  0  0  0  0  0  0  0
  1  2  2  0
  2  3  1  0
  3  4  1  0
  4  5  1  0
  5  6  2  0
  5  7  1  0
  7  8  1  0
  8  9  1  0
  9 10  1  0
 10 11  1  0
 11 12  1  0
 12 13  1  0
 13 14  2  0
 14 15  1  0
 15 16  2  0
 16 17  1  0
 17 18  2  0
  2 19  1  0
 19 20  2  0
 20 21  1  0
 21 22  2  0
 22 23  1  0
 23 24  2  0
 24 25  1  0
 24 26  1  0
 26 27  2  0
 27 28  1  0
 28 29  2  0
 12  7  1  0
 18 13  1  0
 29 19  1  0
 28 22  1  0
  3 30  1  0
  4 31  1  0
  4 32  1  0
  8 33  1  0
  8 34  1  0
  9 35  1  0
  9 36  1  0
 10 37  1  0
 10 38  1  0
 11 39  1  0
 11 40  1  0
 12 41  1  1
 14 42  1  0
 15 43  1  0
 16 44  1  0
 17 45  1  0
 20 46  1  0
 21 47  1  0
 23 48  1  0
 26 49  1  0
 27 50  1  0
M  END
>  <smiles>  (19) 
O=C(NCC(=O)N1CCCCC1c1ccccn1)c1ccc2cc(F)ccc2n1

>  <score_type>  (19) 
oracle

>  <origin>  (19) 
autodockgpu

>  <m_score__min__energy>  (19) 
-8.7100000000000009

>  <m_primary>  (19) 
energy

>  <rmsd>  (19) 
2.705906672089416

>  <m_score__min__rmsd>  (19) 
2.705906672089416

>  <meeko>  (19) 
{"free_energy": -8.59, "intermolecular_energy": -10.08, "internal_energy": -1.52, "cluster_size": 37, "cluster_id": 1, "rank_in_cluster": 16}

>  <energy>  (19) 
-8.57

>  <cluster_rmsd>  (19) 
1.14

>  <cluster>  (19) 
1

$$$$

     RDKit          3D

 50 53  0  0  0  0  0  0  0  0999 V2000
  139.3350   71.3550  221.1550 O   0  0  0  0  0  0  0  0  0  0  0  0
  139.4740   71.9280  222.2820 C   0  0  0  0  0  0  0  0  0  0  0  0
  139.4430   73.3580  222.4030 N   0  0  0  0  0  0  0  0  0  0  0  0
  139.2460   74.0950  221.1680 C   0  0  0  0  0  0  0  0  0  0  0  0
  139.0930   75.5520  221.4530 C   0  0  0  0  0  0  0  0  0  0  0  0
  137.9900   76.0400  221.8610 O   0  0  0  0  0  0  0  0  0  0  0  0
  140.2120   76.3990  221.2600 N   0  0  0  0  0  0  0  0  0  0  0  0
  141.5780   75.9130  221.2000 C   0  0  0  0  0  0  0  0  0  0  0  0
  142.2060   76.6100  220.0000 C   0  0  0  0  0  0  0  0  0  0  0  0
  141.1600   77.1210  219.0500 C   0  0  0  0  0  0  0  0  0  0  0  0
  140.3090   78.1950  219.6570 C   0  0  0  0  0  0  0  0  0  0  0  0
  140.0150   77.8380  221.1120 C   0  0  2  0  0  0  0  0  0  0  0  0
  140.9210   78.6260  221.9870 C   0  0  0  0  0  0  0  0  0  0  0  0
  141.6750   79.6680  221.4850 C   0  0  0  0  0  0  0  0  0  0  0  0
  142.5120   80.3790  222.3440 C   0  0  0  0  0  0  0  0  0  0  0  0
  142.5980   80.0550  223.6980 C   0  0  0  0  0  0  0  0  0  0  0  0
  141.8240   79.0050  224.1550 C   0  0  0  0  0  0  0  0  0  0  0  0
  141.0340   78.3480  223.2940 N   0  0  0  0  0  0  0  0  0  0  0  0
  139.6680   71.1270  223.4870 C   0  0  0  0  0  0  0  0  0  0  0  0
  139.3060   69.7950  223.4860 C   0  0  0  0  0  0  0  0  0  0  0  0
  139.4780   69.0180  224.6050 C   0  0  0  0  0  0  0  0  0  0  0  0
  140.0120   69.5330  225.7560 C   0  0  0  0  0  0  0  0  0  0  0  0
  140.1820   68.7590  226.8670 C   0  0  0  0  0  0  0  0  0  0  0  0
  140.7200   69.3020  228.0070 C   0  0  0  0  0  0  0  0  0  0  0  0
  140.8820   68.5220  229.1000 F   0  0  0  0  0  0  0  0  0  0  0  0
  141.0760   70.6220  227.9960 C   0  0  0  0  0  0  0  0  0  0  0  0
  140.9150   71.4410  226.8780 C   0  0  0  0  0  0  0  0  0  0  0  0
  140.3720   70.8850  225.7350 C   0  0  0  0  0  0  0  0  0  0  0  0
  140.1920   71.6240  224.6220 N   0  0  0  0  0  0  0  0  0  0  0  0
  139.5570   73.8420  223.3290 H   0  0  0  0  0  0  0  0  0  0  0  0
  140.1158   73.9430  220.5120 H   0  0  0  0  0  0  0  0  0  0  0  0
  138.3334   73.7292  220.6747 H   0  0  0  0  0  0  0  0  0  0  0  0
  142.1192   76.1725  222.1218 H   0  0  0  0  0  0  0  0  0  0  0  0
  141.6175   74.8180  221.1025 H   0  0  0  0  0  0  0  0  0  0  0  0
  142.8108   77.4574  220.3551 H   0  0  0  0  0  0  0  0  0  0  0  0
  142.8308   75.8797  219.4649 H   0  0  0  0  0  0  0  0  0  0  0  0
  141.6611   77.5289  218.1598 H   0  0  0  0  0  0  0  0  0  0  0  0
  140.5016   76.2782  218.7929 H   0  0  0  0  0  0  0  0  0  0  0  0
  140.8428   79.1559  219.6143 H   0  0  0  0  0  0  0  0  0  0  0  0
  139.3651   78.2794  219.0985 H   0  0  0  0  0  0  0  0  0  0  0  0
  138.9822   78.0820  221.4015 H   0  0  0  0  0  0  0  0  0  0  0  0
  141.6160   79.9342  220.4193 H   0  0  0  0  0  0  0  0  0  0  0  0
  143.1146   81.2094  221.9473 H   0  0  0  0  0  0  0  0  0  0  0  0
  143.2578   80.6147  224.3773 H   0  0  0  0  0  0  0  0  0  0  0  0
  141.8560   78.7114  225.2146 H   0  0  0  0  0  0  0  0  0  0  0  0
  138.8743   69.3503  222.5772 H   0  0  0  0  0  0  0  0  0  0  0  0
  139.1805   67.9594  224.5762 H   0  0  0  0  0  0  0  0  0  0  0  0
  139.8877   67.6993  226.8489 H   0  0  0  0  0  0  0  0  0  0  0  0
  141.5084   71.0575  228.9089 H   0  0  0  0  0  0  0  0  0  0  0  0
  141.2119   72.4998  226.9054 H   0  0  0  0  0  0  0  0  0  0  0  0
  1  2  2  0
  2  3  1  0
  3  4  1  0
  4  5  1  0
  5  6  2  0
  5  7  1  0
  7  8  1  0
  8  9  1  0
  9 10  1  0
 10 11  1  0
 11 12  1  0
 12 13  1  0
 13 14  2  0
 14 15  1  0
 15 16  2  0
 16 17  1  0
 17 18  2  0
  2 19  1  0
 19 20  2  0
 20 21  1  0
 21 22  2  0
 22 23  1  0
 23 24  2  0
 24 25  1  0
 24 26  1  0
 26 27  2  0
 27 28  1  0
 28 29  2  0
 12  7  1  0
 18 13  1  0
 29 19  1  0
 28 22  1  0
  3 30  1  0
  4 31  1  0
  4 32  1  0
  8 33  1  0
  8 34  1  0
  9 35  1  0
  9 36  1  0
 10 37  1  0
 10 38  1  0
 11 39  1  0
 11 40  1  0
 12 41  1  1
 14 42  1  0
 15 43  1  0
 16 44  1  0
 17 45  1  0
 20 46  1  0
 21 47  1  0
 23 48  1  0
 26 49  1  0
 27 50  1  0
M  END
>  <smiles>  (20) 
O=C(NCC(=O)N1CCCCC1c1ccccn1)c1ccc2cc(F)ccc2n1

>  <score_type>  (20) 
oracle

>  <origin>  (20) 
autodockgpu

>  <m_score__min__energy>  (20) 
-8.7100000000000009

>  <m_primary>  (20) 
energy

>  <rmsd>  (20) 
2.1653935887568276

>  <m_score__min__rmsd>  (20) 
2.1653935887568276

>  <meeko>  (20) 
{"free_energy": -8.22, "intermolecular_energy": -9.71, "internal_energy": -1.57, "cluster_size": 37, "cluster_id": 1, "rank_in_cluster": 32}

>  <energy>  (20) 
-8.55

>  <cluster_rmsd>  (20) 
1.1

>  <cluster>  (20) 
1

$$$$

     RDKit          3D

 50 53  0  0  0  0  0  0  0  0999 V2000
  141.2340   72.1260  221.4100 O   0  0  0  0  0  0  0  0  0  0  0  0
  140.3540   72.4640  222.2650 C   0  0  0  0  0  0  0  0  0  0  0  0
  139.5540   73.6410  222.0880 N   0  0  0  0  0  0  0  0  0  0  0  0
  139.8140   74.4110  220.8850 C   0  0  0  0  0  0  0  0  0  0  0  0
  140.8350   75.4660  221.1550 C   0  0  0  0  0  0  0  0  0  0  0  0
  142.0770   75.1920  221.2230 O   0  0  0  0  0  0  0  0  0  0  0  0
  140.3950   76.8000  221.3370 N   0  0  0  0  0  0  0  0  0  0  0  0
  140.2800   77.7560  220.2510 C   0  0  0  0  0  0  0  0  0  0  0  0
  138.9260   78.4270  220.4400 C   0  0  0  0  0  0  0  0  0  0  0  0
  138.0130   77.5940  221.2960 C   0  0  0  0  0  0  0  0  0  0  0  0
  138.5180   77.4500  222.7000 C   0  0  0  0  0  0  0  0  0  0  0  0
  140.0330   77.2690  222.6720 C   0  0  2  0  0  0  0  0  0  0  0  0
  140.6730   78.5680  223.0080 C   0  0  0  0  0  0  0  0  0  0  0  0
  142.0440   78.6800  223.1350 C   0  0  0  0  0  0  0  0  0  0  0  0
  142.6000   79.9180  223.4510 C   0  0  0  0  0  0  0  0  0  0  0  0
  141.7950   81.0420  223.6400 C   0  0  0  0  0  0  0  0  0  0  0  0
  140.4290   80.8810  223.5030 C   0  0  0  0  0  0  0  0  0  0  0  0
  139.9370   79.6720  223.1980 N   0  0  0  0  0  0  0  0  0  0  0  0
  140.1410   71.6440  223.4540 C   0  0  0  0  0  0  0  0  0  0  0  0
  139.3400   70.5230  223.3750 C   0  0  0  0  0  0  0  0  0  0  0  0
  139.1220   69.7340  224.4780 C   0  0  0  0  0  0  0  0  0  0  0  0
  139.6910   70.0280  225.6890 C   0  0  0  0  0  0  0  0  0  0  0  0
  139.4740   69.2430  226.7830 C   0  0  0  0  0  0  0  0  0  0  0  0
  140.0550   69.5620  227.9840 C   0  0  0  0  0  0  0  0  0  0  0  0
  139.8300   68.7730  229.0600 F   0  0  0  0  0  0  0  0  0  0  0  0
  140.8480   70.6730  228.0510 C   0  0  0  0  0  0  0  0  0  0  0  0
  141.0900   71.4980  226.9510 C   0  0  0  0  0  0  0  0  0  0  0  0
  140.4990   71.1680  225.7460 C   0  0  0  0  0  0  0  0  0  0  0  0
  140.6950   71.9240  224.6480 N   0  0  0  0  0  0  0  0  0  0  0  0
  138.8240   73.9300  222.7860 H   0  0  0  0  0  0  0  0  0  0  0  0
  140.1861   73.7391  220.0976 H   0  0  0  0  0  0  0  0  0  0  0  0
  138.8799   74.8923  220.5597 H   0  0  0  0  0  0  0  0  0  0  0  0
  141.0885   78.4998  220.3066 H   0  0  0  0  0  0  0  0  0  0  0  0
  140.3597   77.2682  219.2683 H   0  0  0  0  0  0  0  0  0  0  0  0
  139.0755   79.4041  220.9226 H   0  0  0  0  0  0  0  0  0  0  0  0
  138.4588   78.5460  219.4513 H   0  0  0  0  0  0  0  0  0  0  0  0
  137.0225   78.0716  221.3243 H   0  0  0  0  0  0  0  0  0  0  0  0
  137.9637   76.5884  220.8530 H   0  0  0  0  0  0  0  0  0  0  0  0
  138.2659   78.3525  223.2761 H   0  0  0  0  0  0  0  0  0  0  0  0
  138.0498   76.5743  223.1733 H   0  0  0  0  0  0  0  0  0  0  0  0
  140.3792   76.5298  223.4094 H   0  0  0  0  0  0  0  0  0  0  0  0
  142.6897   77.8016  222.9883 H   0  0  0  0  0  0  0  0  0  0  0  0
  143.6913   80.0108  223.5531 H   0  0  0  0  0  0  0  0  0  0  0  0
  142.2315   82.0205  223.8889 H   0  0  0  0  0  0  0  0  0  0  0  0
  139.7522   81.7368  223.6429 H   0  0  0  0  0  0  0  0  0  0  0  0
  138.8701   70.2579  222.4164 H   0  0  0  0  0  0  0  0  0  0  0  0
  138.4771   68.8476  224.3870 H   0  0  0  0  0  0  0  0  0  0  0  0
  138.8324   68.3531  226.7022 H   0  0  0  0  0  0  0  0  0  0  0  0
  141.3159   70.9283  229.0132 H   0  0  0  0  0  0  0  0  0  0  0  0
  141.7331   72.3859  227.0409 H   0  0  0  0  0  0  0  0  0  0  0  0
  1  2  2  0
  2  3  1  0
  3  4  1  0
  4  5  1  0
  5  6  2  0
  5  7  1  0
  7  8  1  0
  8  9  1  0
  9 10  1  0
 10 11  1  0
 11 12  1  0
 12 13  1  0
 13 14  2  0
 14 15  1  0
 15 16  2  0
 16 17  1  0
 17 18  2  0
  2 19  1  0
 19 20  2  0
 20 21  1  0
 21 22  2  0
 22 23  1  0
 23 24  2  0
 24 25  1  0
 24 26  1  0
 26 27  2  0
 27 28  1  0
 28 29  2  0
 12  7  1  0
 18 13  1  0
 29 19  1  0
 28 22  1  0
  3 30  1  0
  4 31  1  0
  4 32  1  0
  8 33  1  0
  8 34  1  0
  9 35  1  0
  9 36  1  0
 10 37  1  0
 10 38  1  0
 11 39  1  0
 11 40  1  0
 12 41  1  1
 14 42  1  0
 15 43  1  0
 16 44  1  0
 17 45  1  0
 20 46  1  0
 21 47  1  0
 23 48  1  0
 26 49  1  0
 27 50  1  0
M  END
>  <smiles>  (21) 
O=C(NCC(=O)N1CCCCC1c1ccccn1)c1ccc2cc(F)ccc2n1

>  <score_type>  (21) 
oracle

>  <origin>  (21) 
autodockgpu

>  <m_score__min__energy>  (21) 
-8.7100000000000009

>  <m_primary>  (21) 
energy

>  <rmsd>  (21) 
3.0385878838743863

>  <m_score__min__rmsd>  (21) 
3.0385878838743863

>  <meeko>  (21) 
{"free_energy": -8.54, "intermolecular_energy": -10.03, "internal_energy": -1.46, "cluster_size": 37, "cluster_id": 1, "rank_in_cluster": 22}

>  <energy>  (21) 
-8.55

>  <cluster_rmsd>  (21) 
1.15

>  <cluster>  (21) 
1

$$$$

     RDKit          3D

 50 53  0  0  0  0  0  0  0  0999 V2000
  141.3610   72.4220  221.7090 O   0  0  0  0  0  0  0  0  0  0  0  0
  140.3870   72.5380  222.5180 C   0  0  0  0  0  0  0  0  0  0  0  0
  139.3980   73.5650  222.3550 N   0  0  0  0  0  0  0  0  0  0  0  0
  139.5830   74.4510  221.2210 C   0  0  0  0  0  0  0  0  0  0  0  0
  139.2440   75.8540  221.5980 C   0  0  0  0  0  0  0  0  0  0  0  0
  138.1490   76.1440  222.1800 O   0  0  0  0  0  0  0  0  0  0  0  0
  140.1740   76.8790  221.2940 N   0  0  0  0  0  0  0  0  0  0  0  0
  141.5310   76.6170  220.8510 C   0  0  0  0  0  0  0  0  0  0  0  0
  141.7590   77.5470  219.6660 C   0  0  0  0  0  0  0  0  0  0  0  0
  140.4600   78.0090  219.0700 C   0  0  0  0  0  0  0  0  0  0  0  0
  139.6640   78.8560  220.0150 C   0  0  0  0  0  0  0  0  0  0  0  0
  139.7790   78.2790  221.4240 C   0  0  2  0  0  0  0  0  0  0  0  0
  140.7740   79.0780  222.1860 C   0  0  0  0  0  0  0  0  0  0  0  0
  141.2970   80.2490  221.6730 C   0  0  0  0  0  0  0  0  0  0  0  0
  142.2280   80.9660  222.4230 C   0  0  0  0  0  0  0  0  0  0  0  0
  142.6360   80.5200  223.6800 C   0  0  0  0  0  0  0  0  0  0  0  0
  142.0850   79.3430  224.1530 C   0  0  0  0  0  0  0  0  0  0  0  0
  141.1940   78.6860  223.3970 N   0  0  0  0  0  0  0  0  0  0  0  0
  140.2580   71.6130  223.6400 C   0  0  0  0  0  0  0  0  0  0  0  0
  139.6560   70.3860  223.4470 C   0  0  0  0  0  0  0  0  0  0  0  0
  139.5220   69.4960  224.4840 C   0  0  0  0  0  0  0  0  0  0  0  0
  139.9790   69.7910  225.7410 C   0  0  0  0  0  0  0  0  0  0  0  0
  139.8440   68.9050  226.7700 C   0  0  0  0  0  0  0  0  0  0  0  0
  140.3110   69.2280  228.0190 C   0  0  0  0  0  0  0  0  0  0  0  0
  140.1700   68.3390  229.0290 F   0  0  0  0  0  0  0  0  0  0  0  0
  140.9050   70.4460  228.2000 C   0  0  0  0  0  0  0  0  0  0  0  0
  141.0580   71.3740  227.1690 C   0  0  0  0  0  0  0  0  0  0  0  0
  140.5850   71.0400  225.9150 C   0  0  0  0  0  0  0  0  0  0  0  0
  140.7030   71.8930  224.8790 N   0  0  0  0  0  0  0  0  0  0  0  0
  138.5880   73.6700  223.0180 H   0  0  0  0  0  0  0  0  0  0  0  0
  140.6322   74.4069  220.8936 H   0  0  0  0  0  0  0  0  0  0  0  0
  138.9192   74.1300  220.4047 H   0  0  0  0  0  0  0  0  0  0  0  0
  142.2475   76.8373  221.6560 H   0  0  0  0  0  0  0  0  0  0  0  0
  141.6736   75.5618  220.5750 H   0  0  0  0  0  0  0  0  0  0  0  0
  142.3287   78.4247  220.0051 H   0  0  0  0  0  0  0  0  0  0  0  0
  142.3145   76.9931  218.8949 H   0  0  0  0  0  0  0  0  0  0  0  0
  140.6762   78.5971  218.1659 H   0  0  0  0  0  0  0  0  0  0  0  0
  139.8623   77.1152  218.8380 H   0  0  0  0  0  0  0  0  0  0  0  0
  140.0544   79.8844  220.0055 H   0  0  0  0  0  0  0  0  0  0  0  0
  138.6089   78.8653  219.7042 H   0  0  0  0  0  0  0  0  0  0  0  0
  138.8272   78.3265  221.9734 H   0  0  0  0  0  0  0  0  0  0  0  0
  140.9823   80.6118  220.6834 H   0  0  0  0  0  0  0  0  0  0  0  0
  142.6475   81.8983  222.0170 H   0  0  0  0  0  0  0  0  0  0  0  0
  143.3699   81.0844  224.2740 H   0  0  0  0  0  0  0  0  0  0  0  0
  142.3747   78.9502  225.1388 H   0  0  0  0  0  0  0  0  0  0  0  0
  139.2786   70.1176  222.4492 H   0  0  0  0  0  0  0  0  0  0  0  0
  139.0374   68.5256  224.3013 H   0  0  0  0  0  0  0  0  0  0  0  0
  139.3608   67.9319  226.5981 H   0  0  0  0  0  0  0  0  0  0  0  0
  141.2784   70.7057  229.2015 H   0  0  0  0  0  0  0  0  0  0  0  0
  141.5421   72.3450  227.3501 H   0  0  0  0  0  0  0  0  0  0  0  0
  1  2  2  0
  2  3  1  0
  3  4  1  0
  4  5  1  0
  5  6  2  0
  5  7  1  0
  7  8  1  0
  8  9  1  0
  9 10  1  0
 10 11  1  0
 11 12  1  0
 12 13  1  0
 13 14  2  0
 14 15  1  0
 15 16  2  0
 16 17  1  0
 17 18  2  0
  2 19  1  0
 19 20  2  0
 20 21  1  0
 21 22  2  0
 22 23  1  0
 23 24  2  0
 24 25  1  0
 24 26  1  0
 26 27  2  0
 27 28  1  0
 28 29  2  0
 12  7  1  0
 18 13  1  0
 29 19  1  0
 28 22  1  0
  3 30  1  0
  4 31  1  0
  4 32  1  0
  8 33  1  0
  8 34  1  0
  9 35  1  0
  9 36  1  0
 10 37  1  0
 10 38  1  0
 11 39  1  0
 11 40  1  0
 12 41  1  1
 14 42  1  0
 15 43  1  0
 16 44  1  0
 17 45  1  0
 20 46  1  0
 21 47  1  0
 23 48  1  0
 26 49  1  0
 27 50  1  0
M  END
>  <smiles>  (22) 
O=C(NCC(=O)N1CCCCC1c1ccccn1)c1ccc2cc(F)ccc2n1

>  <score_type>  (22) 
oracle

>  <origin>  (22) 
autodockgpu

>  <m_score__min__energy>  (22) 
-8.7100000000000009

>  <m_primary>  (22) 
energy

>  <rmsd>  (22) 
2.3838907812810133

>  <m_score__min__rmsd>  (22) 
2.3838907812810133

>  <meeko>  (22) 
{"free_energy": -8.53, "intermolecular_energy": -10.03, "internal_energy": -1.53, "cluster_size": 37, "cluster_id": 1, "rank_in_cluster": 24}

>  <energy>  (22) 
-8.54

>  <cluster_rmsd>  (22) 
0.62

>  <cluster>  (22) 
1

$$$$

     RDKit          3D

 50 53  0  0  0  0  0  0  0  0999 V2000
  141.0170   71.8000  221.2310 O   0  0  0  0  0  0  0  0  0  0  0  0
  140.3310   72.2870  222.1860 C   0  0  0  0  0  0  0  0  0  0  0  0
  139.7400   73.5910  222.0920 N   0  0  0  0  0  0  0  0  0  0  0  0
  139.9780   74.3090  220.8530 C   0  0  0  0  0  0  0  0  0  0  0  0
  140.9470   75.4210  221.0740 C   0  0  0  0  0  0  0  0  0  0  0  0
  142.2050   75.2240  221.0620 O   0  0  0  0  0  0  0  0  0  0  0  0
  140.4390   76.7240  221.3020 N   0  0  0  0  0  0  0  0  0  0  0  0
  140.2380   77.6960  220.2430 C   0  0  0  0  0  0  0  0  0  0  0  0
  138.8550   78.2850  220.4880 C   0  0  0  0  0  0  0  0  0  0  0  0
  138.0170   77.3830  221.3490 C   0  0  0  0  0  0  0  0  0  0  0  0
  138.5700   77.2350  222.7340 C   0  0  0  0  0  0  0  0  0  0  0  0
  140.0920   77.1410  222.6580 C   0  0  2  0  0  0  0  0  0  0  0  0
  140.6690   78.4660  223.0070 C   0  0  0  0  0  0  0  0  0  0  0  0
  142.0320   78.6420  223.1380 C   0  0  0  0  0  0  0  0  0  0  0  0
  142.5270   79.9020  223.4680 C   0  0  0  0  0  0  0  0  0  0  0  0
  141.6690   80.9850  223.6650 C   0  0  0  0  0  0  0  0  0  0  0  0
  140.3120   80.7600  223.5230 C   0  0  0  0  0  0  0  0  0  0  0  0
  139.8800   79.5320  223.2050 N   0  0  0  0  0  0  0  0  0  0  0  0
  140.1290   71.5130  223.4060 C   0  0  0  0  0  0  0  0  0  0  0  0
  139.3680   70.3620  223.3670 C   0  0  0  0  0  0  0  0  0  0  0  0
  139.1620   69.6140  224.5000 C   0  0  0  0  0  0  0  0  0  0  0  0
  139.7030   69.9790  225.7040 C   0  0  0  0  0  0  0  0  0  0  0  0
  139.4980   69.2350  226.8280 C   0  0  0  0  0  0  0  0  0  0  0  0
  140.0520   69.6250  228.0210 C   0  0  0  0  0  0  0  0  0  0  0  0
  139.8390   68.8760  229.1270 F   0  0  0  0  0  0  0  0  0  0  0  0
  140.8050   70.7650  228.0500 C   0  0  0  0  0  0  0  0  0  0  0  0
  141.0340   71.5500  226.9180 C   0  0  0  0  0  0  0  0  0  0  0  0
  140.4710   71.1480  225.7220 C   0  0  0  0  0  0  0  0  0  0  0  0
  140.6560   71.8630  224.5940 N   0  0  0  0  0  0  0  0  0  0  0  0
  139.1710   74.0030  222.8740 H   0  0  0  0  0  0  0  0  0  0  0  0
  140.3878   73.6146  220.1047 H   0  0  0  0  0  0  0  0  0  0  0  0
  139.0265   74.7306  220.4966 H   0  0  0  0  0  0  0  0  0  0  0  0
  141.0052   78.4827  220.2927 H   0  0  0  0  0  0  0  0  0  0  0  0
  140.3148   77.2358  219.2469 H   0  0  0  0  0  0  0  0  0  0  0  0
  138.9645   79.2577  220.9899 H   0  0  0  0  0  0  0  0  0  0  0  0
  138.3518   78.4001  219.5166 H   0  0  0  0  0  0  0  0  0  0  0  0
  137.0026   77.8030  221.4172 H   0  0  0  0  0  0  0  0  0  0  0  0
  138.0118   76.3866  220.8831 H   0  0  0  0  0  0  0  0  0  0  0  0
  138.2848   78.1080  223.3395 H   0  0  0  0  0  0  0  0  0  0  0  0
  138.1656   76.3236  223.1986 H   0  0  0  0  0  0  0  0  0  0  0  0
  140.5008   76.4061  223.3672 H   0  0  0  0  0  0  0  0  0  0  0  0
  142.7194   77.7972  222.9836 H   0  0  0  0  0  0  0  0  0  0  0  0
  143.6123   80.0455  223.5751 H   0  0  0  0  0  0  0  0  0  0  0  0
  142.0579   81.9809  223.9237 H   0  0  0  0  0  0  0  0  0  0  0  0
  139.5944   81.5807  223.6696 H   0  0  0  0  0  0  0  0  0  0  0  0
  138.9205   70.0396  222.4153 H   0  0  0  0  0  0  0  0  0  0  0  0
  138.5495   68.7023  224.4392 H   0  0  0  0  0  0  0  0  0  0  0  0
  138.8878   68.3211  226.7783 H   0  0  0  0  0  0  0  0  0  0  0  0
  141.2499   71.0777  229.0062 H   0  0  0  0  0  0  0  0  0  0  0  0
  141.6453   72.4626  226.9768 H   0  0  0  0  0  0  0  0  0  0  0  0
  1  2  2  0
  2  3  1  0
  3  4  1  0
  4  5  1  0
  5  6  2  0
  5  7  1  0
  7  8  1  0
  8  9  1  0
  9 10  1  0
 10 11  1  0
 11 12  1  0
 12 13  1  0
 13 14  2  0
 14 15  1  0
 15 16  2  0
 16 17  1  0
 17 18  2  0
  2 19  1  0
 19 20  2  0
 20 21  1  0
 21 22  2  0
 22 23  1  0
 23 24  2  0
 24 25  1  0
 24 26  1  0
 26 27  2  0
 27 28  1  0
 28 29  2  0
 12  7  1  0
 18 13  1  0
 29 19  1  0
 28 22  1  0
  3 30  1  0
  4 31  1  0
  4 32  1  0
  8 33  1  0
  8 34  1  0
  9 35  1  0
  9 36  1  0
 10 37  1  0
 10 38  1  0
 11 39  1  0
 11 40  1  0
 12 41  1  1
 14 42  1  0
 15 43  1  0
 16 44  1  0
 17 45  1  0
 20 46  1  0
 21 47  1  0
 23 48  1  0
 26 49  1  0
 27 50  1  0
M  END
>  <smiles>  (23) 
O=C(NCC(=O)N1CCCCC1c1ccccn1)c1ccc2cc(F)ccc2n1

>  <score_type>  (23) 
oracle

>  <origin>  (23) 
autodockgpu

>  <m_score__min__energy>  (23) 
-8.7100000000000009

>  <m_primary>  (23) 
energy

>  <rmsd>  (23) 
3.0163453391151553

>  <m_score__min__rmsd>  (23) 
3.0163453391151553

>  <meeko>  (23) 
{"free_energy": -8.44, "intermolecular_energy": -9.93, "internal_energy": -1.48, "cluster_size": 37, "cluster_id": 1, "rank_in_cluster": 29}

>  <energy>  (23) 
-8.53

>  <cluster_rmsd>  (23) 
1.0

>  <cluster>  (23) 
1

$$$$

     RDKit          3D

 50 53  0  0  0  0  0  0  0  0999 V2000
  141.1330   72.6170  221.8940 O   0  0  0  0  0  0  0  0  0  0  0  0
  140.0910   72.4930  222.6130 C   0  0  0  0  0  0  0  0  0  0  0  0
  138.9060   73.2560  222.3490 N   0  0  0  0  0  0  0  0  0  0  0  0
  138.9750   74.1680  221.2210 C   0  0  0  0  0  0  0  0  0  0  0  0
  138.9610   75.5820  221.6970 C   0  0  0  0  0  0  0  0  0  0  0  0
  137.9590   76.0700  222.3130 O   0  0  0  0  0  0  0  0  0  0  0  0
  140.0990   76.3890  221.4490 N   0  0  0  0  0  0  0  0  0  0  0  0
  141.4520   75.8650  221.4040 C   0  0  0  0  0  0  0  0  0  0  0  0
  142.0860   76.4800  220.1620 C   0  0  0  0  0  0  0  0  0  0  0  0
  141.0430   76.9660  219.1950 C   0  0  0  0  0  0  0  0  0  0  0  0
  140.2260   78.0930  219.7500 C   0  0  0  0  0  0  0  0  0  0  0  0
  139.9360   77.8220  221.2240 C   0  0  2  0  0  0  0  0  0  0  0  0
  140.8710   78.6330  222.0480 C   0  0  0  0  0  0  0  0  0  0  0  0
  141.6450   79.6280  221.4840 C   0  0  0  0  0  0  0  0  0  0  0  0
  142.5080   80.3630  222.2960 C   0  0  0  0  0  0  0  0  0  0  0  0
  142.5990   80.1090  223.6650 C   0  0  0  0  0  0  0  0  0  0  0  0
  141.8060   79.1040  224.1850 C   0  0  0  0  0  0  0  0  0  0  0  0
  140.9910   78.4220  223.3670 N   0  0  0  0  0  0  0  0  0  0  0  0
  140.0870   71.5570  223.7330 C   0  0  0  0  0  0  0  0  0  0  0  0
  139.5740   70.2870  223.5590 C   0  0  0  0  0  0  0  0  0  0  0  0
  139.5580   69.3860  224.5950 C   0  0  0  0  0  0  0  0  0  0  0  0
  140.0490   69.7120  225.8320 C   0  0  0  0  0  0  0  0  0  0  0  0
  140.0320   68.8150  226.8600 C   0  0  0  0  0  0  0  0  0  0  0  0
  140.5300   69.1680  228.0880 C   0  0  0  0  0  0  0  0  0  0  0  0
  140.5060   68.2680  229.0970 F   0  0  0  0  0  0  0  0  0  0  0  0
  141.0360   70.4280  228.2500 C   0  0  0  0  0  0  0  0  0  0  0  0
  141.0680   71.3690  227.2190 C   0  0  0  0  0  0  0  0  0  0  0  0
  140.5640   71.0030  225.9860 C   0  0  0  0  0  0  0  0  0  0  0  0
  140.5670   71.8670  224.9520 N   0  0  0  0  0  0  0  0  0  0  0  0
  138.0390   73.1610  222.9360 H   0  0  0  0  0  0  0  0  0  0  0  0
  139.9034   73.9828  220.6608 H   0  0  0  0  0  0  0  0  0  0  0  0
  138.1033   74.0004  220.5714 H   0  0  0  0  0  0  0  0  0  0  0  0
  142.0086   76.1598  222.3058 H   0  0  0  0  0  0  0  0  0  0  0  0
  141.4627   74.7657  221.3658 H   0  0  0  0  0  0  0  0  0  0  0  0
  142.7158   77.3293  220.4653 H   0  0  0  0  0  0  0  0  0  0  0  0
  142.6869   75.7063  219.6618 H   0  0  0  0  0  0  0  0  0  0  0  0
  141.5449   77.3118  218.2793 H   0  0  0  0  0  0  0  0  0  0  0  0
  140.3606   76.1278  218.9906 H   0  0  0  0  0  0  0  0  0  0  0  0
  140.7843   79.0357  219.6518 H   0  0  0  0  0  0  0  0  0  0  0  0
  139.2796   78.1726  219.1950 H   0  0  0  0  0  0  0  0  0  0  0  0
  138.9119   78.1068  221.5072 H   0  0  0  0  0  0  0  0  0  0  0  0
  141.5814   79.8384  220.4062 H   0  0  0  0  0  0  0  0  0  0  0  0
  143.1269   81.1557  221.8503 H   0  0  0  0  0  0  0  0  0  0  0  0
  143.2781   80.6884  224.3077 H   0  0  0  0  0  0  0  0  0  0  0  0
  141.8428   78.8659  225.2583 H   0  0  0  0  0  0  0  0  0  0  0  0
  139.1729   69.9932  222.5778 H   0  0  0  0  0  0  0  0  0  0  0  0
  139.1422   68.3813  224.4284 H   0  0  0  0  0  0  0  0  0  0  0  0
  139.6184   67.8078  226.7036 H   0  0  0  0  0  0  0  0  0  0  0  0
  141.4349   70.7124  229.2349 H   0  0  0  0  0  0  0  0  0  0  0  0
  141.4831   72.3742  227.3840 H   0  0  0  0  0  0  0  0  0  0  0  0
  1  2  2  0
  2  3  1  0
  3  4  1  0
  4  5  1  0
  5  6  2  0
  5  7  1  0
  7  8  1  0
  8  9  1  0
  9 10  1  0
 10 11  1  0
 11 12  1  0
 12 13  1  0
 13 14  2  0
 14 15  1  0
 15 16  2  0
 16 17  1  0
 17 18  2  0
  2 19  1  0
 19 20  2  0
 20 21  1  0
 21 22  2  0
 22 23  1  0
 23 24  2  0
 24 25  1  0
 24 26  1  0
 26 27  2  0
 27 28  1  0
 28 29  2  0
 12  7  1  0
 18 13  1  0
 29 19  1  0
 28 22  1  0
  3 30  1  0
  4 31  1  0
  4 32  1  0
  8 33  1  0
  8 34  1  0
  9 35  1  0
  9 36  1  0
 10 37  1  0
 10 38  1  0
 11 39  1  0
 11 40  1  0
 12 41  1  1
 14 42  1  0
 15 43  1  0
 16 44  1  0
 17 45  1  0
 20 46  1  0
 21 47  1  0
 23 48  1  0
 26 49  1  0
 27 50  1  0
M  END
>  <smiles>  (24) 
O=C(NCC(=O)N1CCCCC1c1ccccn1)c1ccc2cc(F)ccc2n1

>  <score_type>  (24) 
oracle

>  <origin>  (24) 
autodockgpu

>  <m_score__min__energy>  (24) 
-8.7100000000000009

>  <m_primary>  (24) 
energy

>  <rmsd>  (24) 
2.265625677108552

>  <m_score__min__rmsd>  (24) 
2.265625677108552

>  <meeko>  (24) 
{"free_energy": -8.62, "intermolecular_energy": -10.11, "internal_energy": -1.54, "cluster_size": 37, "cluster_id": 1, "rank_in_cluster": 10}

>  <energy>  (24) 
-8.53

>  <cluster_rmsd>  (24) 
1.13

>  <cluster>  (24) 
1

$$$$

     RDKit          3D

 50 53  0  0  0  0  0  0  0  0999 V2000
  138.5030   72.3990  221.7360 O   0  0  0  0  0  0  0  0  0  0  0  0
  139.5930   72.3460  222.3910 C   0  0  0  0  0  0  0  0  0  0  0  0
  140.7350   73.1240  222.0060 N   0  0  0  0  0  0  0  0  0  0  0  0
  140.5650   73.9630  220.8330 C   0  0  0  0  0  0  0  0  0  0  0  0
  141.4740   75.1440  220.9050 C   0  0  0  0  0  0  0  0  0  0  0  0
  142.7400   75.0190  220.8330 O   0  0  0  0  0  0  0  0  0  0  0  0
  140.9000   76.4310  221.0570 N   0  0  0  0  0  0  0  0  0  0  0  0
  140.7130   77.3540  219.9530 C   0  0  0  0  0  0  0  0  0  0  0  0
  139.2950   77.8890  220.1050 C   0  0  0  0  0  0  0  0  0  0  0  0
  138.4530   76.9820  220.9570 C   0  0  0  0  0  0  0  0  0  0  0  0
  138.9390   76.9080  222.3720 C   0  0  0  0  0  0  0  0  0  0  0  0
  140.4660   76.8800  222.3760 C   0  0  2  0  0  0  0  0  0  0  0  0
  140.9660   78.2410  222.7030 C   0  0  0  0  0  0  0  0  0  0  0  0
  140.2180   79.1150  223.4660 C   0  0  0  0  0  0  0  0  0  0  0  0
  140.7270   80.3820  223.7480 C   0  0  0  0  0  0  0  0  0  0  0  0
  141.9770   80.7770  223.2720 C   0  0  0  0  0  0  0  0  0  0  0  0
  142.6900   79.8680  222.5120 C   0  0  0  0  0  0  0  0  0  0  0  0
  142.1620   78.6610  222.2660 N   0  0  0  0  0  0  0  0  0  0  0  0
  139.6970   71.4810  223.5620 C   0  0  0  0  0  0  0  0  0  0  0  0
  139.1660   70.2070  223.5200 C   0  0  0  0  0  0  0  0  0  0  0  0
  139.2500   69.3720  224.6070 C   0  0  0  0  0  0  0  0  0  0  0  0
  139.8610   69.7700  225.7660 C   0  0  0  0  0  0  0  0  0  0  0  0
  139.9440   68.9390  226.8450 C   0  0  0  0  0  0  0  0  0  0  0  0
  140.5620   69.3640  227.9940 C   0  0  0  0  0  0  0  0  0  0  0  0
  140.6350   68.5280  229.0550 F   0  0  0  0  0  0  0  0  0  0  0  0
  141.0850   70.6260  228.0250 C   0  0  0  0  0  0  0  0  0  0  0  0
  141.0170   71.5010  226.9390 C   0  0  0  0  0  0  0  0  0  0  0  0
  140.3930   71.0640  225.7880 C   0  0  0  0  0  0  0  0  0  0  0  0
  140.2960   71.8610  224.7060 N   0  0  0  0  0  0  0  0  0  0  0  0
  141.6390   73.0890  222.5390 H   0  0  0  0  0  0  0  0  0  0  0  0
  140.8004   73.3783  219.9315 H   0  0  0  0  0  0  0  0  0  0  0  0
  139.5236   74.3149  220.7926 H   0  0  0  0  0  0  0  0  0  0  0  0
  141.4421   78.1756  220.0112 H   0  0  0  0  0  0  0  0  0  0  0  0
  140.8613   76.8620  218.9804 H   0  0  0  0  0  0  0  0  0  0  0  0
  139.3364   78.8832  220.5738 H   0  0  0  0  0  0  0  0  0  0  0  0
  138.8386   77.9461  219.1058 H   0  0  0  0  0  0  0  0  0  0  0  0
  137.4195   77.3587  220.9584 H   0  0  0  0  0  0  0  0  0  0  0  0
  138.5147   75.9703  220.5296 H   0  0  0  0  0  0  0  0  0  0  0  0
  138.5854   77.7880  222.9292 H   0  0  0  0  0  0  0  0  0  0  0  0
  138.5507   75.9963  222.8496 H   0  0  0  0  0  0  0  0  0  0  0  0
  140.8692   76.1902  223.1321 H   0  0  0  0  0  0  0  0  0  0  0  0
  139.2308   78.8150  223.8475 H   0  0  0  0  0  0  0  0  0  0  0  0
  140.1334   81.0810  224.3554 H   0  0  0  0  0  0  0  0  0  0  0  0
  142.3813   81.7758  223.4932 H   0  0  0  0  0  0  0  0  0  0  0  0
  143.6804   80.1329  222.1134 H   0  0  0  0  0  0  0  0  0  0  0  0
  138.6690   69.8563  222.6035 H   0  0  0  0  0  0  0  0  0  0  0  0
  138.8175   68.3625  224.5454 H   0  0  0  0  0  0  0  0  0  0  0  0
  139.5151   67.9274  226.7937 H   0  0  0  0  0  0  0  0  0  0  0  0
  141.5812   70.9674  228.9455 H   0  0  0  0  0  0  0  0  0  0  0  0
  141.4489   72.5109  226.9991 H   0  0  0  0  0  0  0  0  0  0  0  0
  1  2  2  0
  2  3  1  0
  3  4  1  0
  4  5  1  0
  5  6  2  0
  5  7  1  0
  7  8  1  0
  8  9  1  0
  9 10  1  0
 10 11  1  0
 11 12  1  0
 12 13  1  0
 13 14  2  0
 14 15  1  0
 15 16  2  0
 16 17  1  0
 17 18  2  0
  2 19  1  0
 19 20  2  0
 20 21  1  0
 21 22  2  0
 22 23  1  0
 23 24  2  0
 24 25  1  0
 24 26  1  0
 26 27  2  0
 27 28  1  0
 28 29  2  0
 12  7  1  0
 18 13  1  0
 29 19  1  0
 28 22  1  0
  3 30  1  0
  4 31  1  0
  4 32  1  0
  8 33  1  0
  8 34  1  0
  9 35  1  0
  9 36  1  0
 10 37  1  0
 10 38  1  0
 11 39  1  0
 11 40  1  0
 12 41  1  1
 14 42  1  0
 15 43  1  0
 16 44  1  0
 17 45  1  0
 20 46  1  0
 21 47  1  0
 23 48  1  0
 26 49  1  0
 27 50  1  0
M  END
>  <smiles>  (25) 
O=C(NCC(=O)N1CCCCC1c1ccccn1)c1ccc2cc(F)ccc2n1

>  <score_type>  (25) 
oracle

>  <origin>  (25) 
autodockgpu

>  <m_score__min__energy>  (25) 
-8.7100000000000009

>  <m_primary>  (25) 
energy

>  <rmsd>  (25) 
2.862194001156303

>  <m_score__min__rmsd>  (25) 
2.862194001156303

>  <meeko>  (25) 
{"free_energy": -7.79, "intermolecular_energy": -9.28, "internal_energy": -1.65, "cluster_size": 37, "cluster_id": 1, "rank_in_cluster": 37}

>  <energy>  (25) 
-8.53

>  <cluster_rmsd>  (25) 
0.27

>  <cluster>  (25) 
1

$$$$

     RDKit          3D

 50 53  0  0  0  0  0  0  0  0999 V2000
  140.5200   71.8060  221.1290 O   0  0  0  0  0  0  0  0  0  0  0  0
  140.1700   72.3180  222.2390 C   0  0  0  0  0  0  0  0  0  0  0  0
  139.8180   73.7050  222.3450 N   0  0  0  0  0  0  0  0  0  0  0  0
  139.8890   74.4740  221.1160 C   0  0  0  0  0  0  0  0  0  0  0  0
  141.2930   74.9050  220.8540 C   0  0  0  0  0  0  0  0  0  0  0  0
  142.2540   74.0690  220.8240 O   0  0  0  0  0  0  0  0  0  0  0  0
  141.5480   76.2810  220.6360 N   0  0  0  0  0  0  0  0  0  0  0  0
  142.7420   76.7740  219.9740 C   0  0  0  0  0  0  0  0  0  0  0  0
  142.2540   77.8140  218.9730 C   0  0  0  0  0  0  0  0  0  0  0  0
  140.7960   77.6300  218.6560 C   0  0  0  0  0  0  0  0  0  0  0  0
  139.9160   77.8670  219.8450 C   0  0  0  0  0  0  0  0  0  0  0  0
  140.5820   77.2780  221.0860 C   0  0  2  0  0  0  0  0  0  0  0  0
  141.2220   78.3810  221.8510 C   0  0  0  0  0  0  0  0  0  0  0  0
  141.4680   78.2650  223.2050 C   0  0  0  0  0  0  0  0  0  0  0  0
  142.0700   79.3250  223.8810 C   0  0  0  0  0  0  0  0  0  0  0  0
  142.4280   80.4960  223.2110 C   0  0  0  0  0  0  0  0  0  0  0  0
  142.1620   80.5660  221.8560 C   0  0  0  0  0  0  0  0  0  0  0  0
  141.5810   79.5230  221.2470 N   0  0  0  0  0  0  0  0  0  0  0  0
  140.1190   71.4890  223.4400 C   0  0  0  0  0  0  0  0  0  0  0  0
  139.5530   70.2310  223.3760 C   0  0  0  0  0  0  0  0  0  0  0  0
  139.4920   69.4290  224.4900 C   0  0  0  0  0  0  0  0  0  0  0  0
  139.9870   69.8450  225.6970 C   0  0  0  0  0  0  0  0  0  0  0  0
  139.9260   69.0470  226.8010 C   0  0  0  0  0  0  0  0  0  0  0  0
  140.4300   69.4900  227.9980 C   0  0  0  0  0  0  0  0  0  0  0  0
  140.3610   68.6870  229.0840 F   0  0  0  0  0  0  0  0  0  0  0  0
  140.9890   70.7370  228.0490 C   0  0  0  0  0  0  0  0  0  0  0  0
  141.0680   71.5780  226.9380 C   0  0  0  0  0  0  0  0  0  0  0  0
  140.5560   71.1230  225.7380 C   0  0  0  0  0  0  0  0  0  0  0  0
  140.6030   71.8880  224.6300 N   0  0  0  0  0  0  0  0  0  0  0  0
  139.5270   74.1390  223.2570 H   0  0  0  0  0  0  0  0  0  0  0  0
  139.5381   73.8528  220.2787 H   0  0  0  0  0  0  0  0  0  0  0  0
  139.2539   75.3666  221.2158 H   0  0  0  0  0  0  0  0  0  0  0  0
  143.4240   77.2340  220.7042 H   0  0  0  0  0  0  0  0  0  0  0  0
  143.2988   75.9635  219.4809 H   0  0  0  0  0  0  0  0  0  0  0  0
  142.4038   78.8174  219.3981 H   0  0  0  0  0  0  0  0  0  0  0  0
  142.8280   77.6941  218.0423 H   0  0  0  0  0  0  0  0  0  0  0  0
  140.5154   78.3384  217.8626 H   0  0  0  0  0  0  0  0  0  0  0  0
  140.6525   76.5873  218.3365 H   0  0  0  0  0  0  0  0  0  0  0  0
  139.7686   78.9481  219.9843 H   0  0  0  0  0  0  0  0  0  0  0  0
  138.9400   77.3856  219.6850 H   0  0  0  0  0  0  0  0  0  0  0  0
  139.8589   76.7883  221.7548 H   0  0  0  0  0  0  0  0  0  0  0  0
  141.1920   77.3466  223.7439 H   0  0  0  0  0  0  0  0  0  0  0  0
  142.2661   79.2372  224.9598 H   0  0  0  0  0  0  0  0  0  0  0  0
  142.9047   81.3332  223.7420 H   0  0  0  0  0  0  0  0  0  0  0  0
  142.4244   81.4681  221.2839 H   0  0  0  0  0  0  0  0  0  0  0  0
  139.1459   69.8665  222.4213 H   0  0  0  0  0  0  0  0  0  0  0  0
  139.0357   68.4313  224.4105 H   0  0  0  0  0  0  0  0  0  0  0  0
  139.4724   68.0473  226.7320 H   0  0  0  0  0  0  0  0  0  0  0  0
  141.3942   71.0928  229.0078 H   0  0  0  0  0  0  0  0  0  0  0  0
  141.5252   72.5755  227.0155 H   0  0  0  0  0  0  0  0  0  0  0  0
  1  2  2  0
  2  3  1  0
  3  4  1  0
  4  5  1  0
  5  6  2  0
  5  7  1  0
  7  8  1  0
  8  9  1  0
  9 10  1  0
 10 11  1  0
 11 12  1  0
 12 13  1  0
 13 14  2  0
 14 15  1  0
 15 16  2  0
 16 17  1  0
 17 18  2  0
  2 19  1  0
 19 20  2  0
 20 21  1  0
 21 22  2  0
 22 23  1  0
 23 24  2  0
 24 25  1  0
 24 26  1  0
 26 27  2  0
 27 28  1  0
 28 29  2  0
 12  7  1  0
 18 13  1  0
 29 19  1  0
 28 22  1  0
  3 30  1  0
  4 31  1  0
  4 32  1  0
  8 33  1  0
  8 34  1  0
  9 35  1  0
  9 36  1  0
 10 37  1  0
 10 38  1  0
 11 39  1  0
 11 40  1  0
 12 41  1  1
 14 42  1  0
 15 43  1  0
 16 44  1  0
 17 45  1  0
 20 46  1  0
 21 47  1  0
 23 48  1  0
 26 49  1  0
 27 50  1  0
M  END
>  <smiles>  (26) 
O=C(NCC(=O)N1CCCCC1c1ccccn1)c1ccc2cc(F)ccc2n1

>  <score_type>  (26) 
oracle

>  <origin>  (26) 
autodockgpu

>  <m_score__min__energy>  (26) 
-8.7100000000000009

>  <m_primary>  (26) 
energy

>  <rmsd>  (26) 
2.694499562637267

>  <m_score__min__rmsd>  (26) 
2.694499562637267

>  <meeko>  (26) 
{"free_energy": -8.53, "intermolecular_energy": -10.03, "internal_energy": -1.4, "cluster_size": 37, "cluster_id": 1, "rank_in_cluster": 23}

>  <energy>  (26) 
-8.51

>  <cluster_rmsd>  (26) 
0.61

>  <cluster>  (26) 
1

$$$$

     RDKit          3D

 50 53  0  0  0  0  0  0  0  0999 V2000
  139.0980   70.9490  221.4880 O   0  0  0  0  0  0  0  0  0  0  0  0
  139.4140   71.5020  222.5890 C   0  0  0  0  0  0  0  0  0  0  0  0
  139.5900   72.9220  222.6890 N   0  0  0  0  0  0  0  0  0  0  0  0
  139.3870   73.6750  221.4650 C   0  0  0  0  0  0  0  0  0  0  0  0
  139.1770   75.1200  221.7730 C   0  0  0  0  0  0  0  0  0  0  0  0
  138.1170   75.5340  222.3440 O   0  0  0  0  0  0  0  0  0  0  0  0
  140.1920   76.0420  221.4170 N   0  0  0  0  0  0  0  0  0  0  0  0
  141.5800   75.6620  221.2250 C   0  0  0  0  0  0  0  0  0  0  0  0
  142.0130   76.3390  219.9300 C   0  0  0  0  0  0  0  0  0  0  0  0
  140.8300   76.7130  219.0820 C   0  0  0  0  0  0  0  0  0  0  0  0
  139.9620   77.7480  219.7320 C   0  0  0  0  0  0  0  0  0  0  0  0
  139.8590   77.4500  221.2250 C   0  0  2  0  0  0  0  0  0  0  0  0
  140.7850   78.3540  221.9560 C   0  0  0  0  0  0  0  0  0  0  0  0
  141.4600   79.3670  221.3030 C   0  0  0  0  0  0  0  0  0  0  0  0
  142.3190   80.1910  222.0290 C   0  0  0  0  0  0  0  0  0  0  0  0
  142.5060   80.0080  223.4000 C   0  0  0  0  0  0  0  0  0  0  0  0
  141.8090   78.9810  224.0090 C   0  0  0  0  0  0  0  0  0  0  0  0
  140.9940   78.2130  223.2730 N   0  0  0  0  0  0  0  0  0  0  0  0
  139.6030   70.6860  223.7850 C   0  0  0  0  0  0  0  0  0  0  0  0
  139.1990   69.3660  223.7820 C   0  0  0  0  0  0  0  0  0  0  0  0
  139.3650   68.5760  224.8930 C   0  0  0  0  0  0  0  0  0  0  0  0
  139.9360   69.0660  226.0380 C   0  0  0  0  0  0  0  0  0  0  0  0
  140.1000   68.2790  227.1400 C   0  0  0  0  0  0  0  0  0  0  0  0
  140.6740   68.7960  228.2740 C   0  0  0  0  0  0  0  0  0  0  0  0
  140.8290   68.0030  229.3580 F   0  0  0  0  0  0  0  0  0  0  0  0
  141.0710   70.1040  228.2660 C   0  0  0  0  0  0  0  0  0  0  0  0
  140.9170   70.9360  227.1560 C   0  0  0  0  0  0  0  0  0  0  0  0
  140.3380   70.4050  226.0190 C   0  0  0  0  0  0  0  0  0  0  0  0
  140.1630   71.1570  224.9150 N   0  0  0  0  0  0  0  0  0  0  0  0
  139.8510   73.3900  223.5940 H   0  0  0  0  0  0  0  0  0  0  0  0
  140.2724   73.5664  220.8214 H   0  0  0  0  0  0  0  0  0  0  0  0
  138.4960   73.2864  220.9501 H   0  0  0  0  0  0  0  0  0  0  0  0
  142.1947   76.0138  222.0667 H   0  0  0  0  0  0  0  0  0  0  0  0
  141.7005   74.5698  221.1742 H   0  0  0  0  0  0  0  0  0  0  0  0
  142.5795   77.2496  220.1747 H   0  0  0  0  0  0  0  0  0  0  0  0
  142.6351   75.6317  219.3619 H   0  0  0  0  0  0  0  0  0  0  0  0
  141.1947   77.1101  218.1232 H   0  0  0  0  0  0  0  0  0  0  0  0
  140.2213   75.8079  218.9396 H   0  0  0  0  0  0  0  0  0  0  0  0
  140.4046   78.7443  219.5853 H   0  0  0  0  0  0  0  0  0  0  0  0
  138.9592   77.7261  219.2805 H   0  0  0  0  0  0  0  0  0  0  0  0
  138.8464   77.6276  221.6163 H   0  0  0  0  0  0  0  0  0  0  0  0
  141.3214   79.5218  220.2228 H   0  0  0  0  0  0  0  0  0  0  0  0
  142.8583   80.9988  221.5127 H   0  0  0  0  0  0  0  0  0  0  0  0
  143.1830   80.6570  223.9748 H   0  0  0  0  0  0  0  0  0  0  0  0
  141.9224   78.7961  225.0874 H   0  0  0  0  0  0  0  0  0  0  0  0
  138.7381   68.9414  222.8779 H   0  0  0  0  0  0  0  0  0  0  0  0
  139.0326   67.5279  224.8630 H   0  0  0  0  0  0  0  0  0  0  0  0
  139.7719   67.2293  227.1195 H   0  0  0  0  0  0  0  0  0  0  0  0
  141.5321   70.5191  229.1743 H   0  0  0  0  0  0  0  0  0  0  0  0
  141.2472   71.9849  227.1853 H   0  0  0  0  0  0  0  0  0  0  0  0
  1  2  2  0
  2  3  1  0
  3  4  1  0
  4  5  1  0
  5  6  2  0
  5  7  1  0
  7  8  1  0
  8  9  1  0
  9 10  1  0
 10 11  1  0
 11 12  1  0
 12 13  1  0
 13 14  2  0
 14 15  1  0
 15 16  2  0
 16 17  1  0
 17 18  2  0
  2 19  1  0
 19 20  2  0
 20 21  1  0
 21 22  2  0
 22 23  1  0
 23 24  2  0
 24 25  1  0
 24 26  1  0
 26 27  2  0
 27 28  1  0
 28 29  2  0
 12  7  1  0
 18 13  1  0
 29 19  1  0
 28 22  1  0
  3 30  1  0
  4 31  1  0
  4 32  1  0
  8 33  1  0
  8 34  1  0
  9 35  1  0
  9 36  1  0
 10 37  1  0
 10 38  1  0
 11 39  1  0
 11 40  1  0
 12 41  1  1
 14 42  1  0
 15 43  1  0
 16 44  1  0
 17 45  1  0
 20 46  1  0
 21 47  1  0
 23 48  1  0
 26 49  1  0
 27 50  1  0
M  END
>  <smiles>  (27) 
O=C(NCC(=O)N1CCCCC1c1ccccn1)c1ccc2cc(F)ccc2n1

>  <score_type>  (27) 
oracle

>  <origin>  (27) 
autodockgpu

>  <m_score__min__energy>  (27) 
-8.7100000000000009

>  <m_primary>  (27) 
energy

>  <rmsd>  (27) 
2.124106439096636

>  <m_score__min__rmsd>  (27) 
2.124106439096636

>  <meeko>  (27) 
{"free_energy": -8.15, "intermolecular_energy": -9.64, "internal_energy": -1.57, "cluster_size": 37, "cluster_id": 1, "rank_in_cluster": 35}

>  <energy>  (27) 
-8.5

>  <cluster_rmsd>  (27) 
0.32

>  <cluster>  (27) 
1

$$$$

     RDKit          3D

 50 53  0  0  0  0  0  0  0  0999 V2000
  141.1730   72.7960  222.0500 O   0  0  0  0  0  0  0  0  0  0  0  0
  140.0880   72.5810  222.6780 C   0  0  0  0  0  0  0  0  0  0  0  0
  138.8740   73.2610  222.3280 N   0  0  0  0  0  0  0  0  0  0  0  0
  138.9680   74.2000  221.2250 C   0  0  0  0  0  0  0  0  0  0  0  0
  138.9720   75.6020  221.7360 C   0  0  0  0  0  0  0  0  0  0  0  0
  137.9970   76.0710  222.4080 O   0  0  0  0  0  0  0  0  0  0  0  0
  140.0960   76.4190  221.4600 N   0  0  0  0  0  0  0  0  0  0  0  0
  141.4510   75.9060  221.3740 C   0  0  0  0  0  0  0  0  0  0  0  0
  142.0450   76.5300  220.1180 C   0  0  0  0  0  0  0  0  0  0  0  0
  140.9720   77.0110  219.1820 C   0  0  0  0  0  0  0  0  0  0  0  0
  140.1620   78.1290  219.7650 C   0  0  0  0  0  0  0  0  0  0  0  0
  139.9160   77.8520  221.2460 C   0  0  2  0  0  0  0  0  0  0  0  0
  140.8680   78.6670  222.0460 C   0  0  0  0  0  0  0  0  0  0  0  0
  141.6510   79.6380  221.4560 C   0  0  0  0  0  0  0  0  0  0  0  0
  142.5300   80.3780  222.2460 C   0  0  0  0  0  0  0  0  0  0  0  0
  142.6270   80.1520  223.6200 C   0  0  0  0  0  0  0  0  0  0  0  0
  141.8230   79.1690  224.1660 C   0  0  0  0  0  0  0  0  0  0  0  0
  140.9930   78.4820  223.3680 N   0  0  0  0  0  0  0  0  0  0  0  0
  140.0610   71.6220  223.7790 C   0  0  0  0  0  0  0  0  0  0  0  0
  139.5000   70.3760  223.5850 C   0  0  0  0  0  0  0  0  0  0  0  0
  139.4620   69.4540  224.6020 C   0  0  0  0  0  0  0  0  0  0  0  0
  139.9780   69.7360  225.8400 C   0  0  0  0  0  0  0  0  0  0  0  0
  139.9390   68.8190  226.8490 C   0  0  0  0  0  0  0  0  0  0  0  0
  140.4620   69.1290  228.0790 C   0  0  0  0  0  0  0  0  0  0  0  0
  140.4160   68.2090  229.0690 F   0  0  0  0  0  0  0  0  0  0  0  0
  141.0160   70.3650  228.2600 C   0  0  0  0  0  0  0  0  0  0  0  0
  141.0710   71.3260  227.2490 C   0  0  0  0  0  0  0  0  0  0  0  0
  140.5410   71.0040  226.0140 C   0  0  0  0  0  0  0  0  0  0  0  0
  140.5650   71.8890  224.9980 N   0  0  0  0  0  0  0  0  0  0  0  0
  137.9720   73.0910  222.8390 H   0  0  0  0  0  0  0  0  0  0  0  0
  139.8986   74.0141  220.6687 H   0  0  0  0  0  0  0  0  0  0  0  0
  138.0995   74.0630  220.5640 H   0  0  0  0  0  0  0  0  0  0  0  0
  142.0307   76.2016  222.2609 H   0  0  0  0  0  0  0  0  0  0  0  0
  141.4686   74.8070  221.3305 H   0  0  0  0  0  0  0  0  0  0  0  0
  142.6762   77.3833  220.4069 H   0  0  0  0  0  0  0  0  0  0  0  0
  142.6378   75.7628  219.5985 H   0  0  0  0  0  0  0  0  0  0  0  0
  141.4455   77.3647  218.2543 H   0  0  0  0  0  0  0  0  0  0  0  0
  140.2911   76.1682  218.9921 H   0  0  0  0  0  0  0  0  0  0  0  0
  140.7095   79.0766  219.6540 H   0  0  0  0  0  0  0  0  0  0  0  0
  139.1992   78.2015  219.2379 H   0  0  0  0  0  0  0  0  0  0  0  0
  138.8988   78.1291  221.5600 H   0  0  0  0  0  0  0  0  0  0  0  0
  141.5825   79.8262  220.3744 H   0  0  0  0  0  0  0  0  0  0  0  0
  143.1568   81.1520  221.7791 H   0  0  0  0  0  0  0  0  0  0  0  0
  143.3185   80.7352  224.2459 H   0  0  0  0  0  0  0  0  0  0  0  0
  141.8637   78.9527  225.2438 H   0  0  0  0  0  0  0  0  0  0  0  0
  139.0777   70.1180  222.6026 H   0  0  0  0  0  0  0  0  0  0  0  0
  139.0081   68.4688  224.4193 H   0  0  0  0  0  0  0  0  0  0  0  0
  139.4881   67.8306  226.6765 H   0  0  0  0  0  0  0  0  0  0  0  0
  141.4370   70.6135  229.2454 H   0  0  0  0  0  0  0  0  0  0  0  0
  141.5236   72.3121  227.4303 H   0  0  0  0  0  0  0  0  0  0  0  0
  1  2  2  0
  2  3  1  0
  3  4  1  0
  4  5  1  0
  5  6  2  0
  5  7  1  0
  7  8  1  0
  8  9  1  0
  9 10  1  0
 10 11  1  0
 11 12  1  0
 12 13  1  0
 13 14  2  0
 14 15  1  0
 15 16  2  0
 16 17  1  0
 17 18  2  0
  2 19  1  0
 19 20  2  0
 20 21  1  0
 21 22  2  0
 22 23  1  0
 23 24  2  0
 24 25  1  0
 24 26  1  0
 26 27  2  0
 27 28  1  0
 28 29  2  0
 12  7  1  0
 18 13  1  0
 29 19  1  0
 28 22  1  0
  3 30  1  0
  4 31  1  0
  4 32  1  0
  8 33  1  0
  8 34  1  0
  9 35  1  0
  9 36  1  0
 10 37  1  0
 10 38  1  0
 11 39  1  0
 11 40  1  0
 12 41  1  1
 14 42  1  0
 15 43  1  0
 16 44  1  0
 17 45  1  0
 20 46  1  0
 21 47  1  0
 23 48  1  0
 26 49  1  0
 27 50  1  0
M  END
>  <smiles>  (28) 
O=C(NCC(=O)N1CCCCC1c1ccccn1)c1ccc2cc(F)ccc2n1

>  <score_type>  (28) 
oracle

>  <origin>  (28) 
autodockgpu

>  <m_score__min__energy>  (28) 
-8.7100000000000009

>  <m_primary>  (28) 
energy

>  <rmsd>  (28) 
2.277216024624219

>  <m_score__min__rmsd>  (28) 
2.277216024624219

>  <meeko>  (28) 
{"free_energy": -8.63, "intermolecular_energy": -10.12, "internal_energy": -1.53, "cluster_size": 37, "cluster_id": 1, "rank_in_cluster": 9}

>  <energy>  (28) 
-8.49

>  <cluster_rmsd>  (28) 
0.62

>  <cluster>  (28) 
1

$$$$

     RDKit          3D

 50 53  0  0  0  0  0  0  0  0999 V2000
  140.6010   71.8090  221.1320 O   0  0  0  0  0  0  0  0  0  0  0  0
  140.2040   72.3120  222.2310 C   0  0  0  0  0  0  0  0  0  0  0  0
  139.8100   73.6880  222.3230 N   0  0  0  0  0  0  0  0  0  0  0  0
  139.8950   74.4570  221.0950 C   0  0  0  0  0  0  0  0  0  0  0  0
  140.9650   75.4910  221.2030 C   0  0  0  0  0  0  0  0  0  0  0  0
  142.2000   75.1820  221.1650 O   0  0  0  0  0  0  0  0  0  0  0  0
  140.5820   76.8470  221.3520 N   0  0  0  0  0  0  0  0  0  0  0  0
  140.5110   77.7800  220.2420 C   0  0  0  0  0  0  0  0  0  0  0  0
  139.1850   78.5120  220.4090 C   0  0  0  0  0  0  0  0  0  0  0  0
  138.2360   77.7390  221.2810 C   0  0  0  0  0  0  0  0  0  0  0  0
  138.7280   77.6080  222.6900 C   0  0  0  0  0  0  0  0  0  0  0  0
  140.2350   77.3620  222.6730 C   0  0  2  0  0  0  0  0  0  0  0  0
  140.9280   78.6410  222.9810 C   0  0  0  0  0  0  0  0  0  0  0  0
  140.2600   79.6930  223.5750 C   0  0  0  0  0  0  0  0  0  0  0  0
  140.9510   80.8740  223.8450 C   0  0  0  0  0  0  0  0  0  0  0  0
  142.3020   81.0060  223.5250 C   0  0  0  0  0  0  0  0  0  0  0  0
  142.9290   79.9270  222.9310 C   0  0  0  0  0  0  0  0  0  0  0  0
  142.2260   78.8110  222.6890 N   0  0  0  0  0  0  0  0  0  0  0  0
  140.1410   71.4830  223.4300 C   0  0  0  0  0  0  0  0  0  0  0  0
  139.5780   70.2240  223.3620 C   0  0  0  0  0  0  0  0  0  0  0  0
  139.5060   69.4230  224.4750 C   0  0  0  0  0  0  0  0  0  0  0  0
  139.9880   69.8410  225.6870 C   0  0  0  0  0  0  0  0  0  0  0  0
  139.9150   69.0430  226.7910 C   0  0  0  0  0  0  0  0  0  0  0  0
  140.4060   69.4870  227.9930 C   0  0  0  0  0  0  0  0  0  0  0  0
  140.3260   68.6850  229.0790 F   0  0  0  0  0  0  0  0  0  0  0  0
  140.9620   70.7350  228.0500 C   0  0  0  0  0  0  0  0  0  0  0  0
  141.0510   71.5760  226.9400 C   0  0  0  0  0  0  0  0  0  0  0  0
  140.5540   71.1190  225.7340 C   0  0  0  0  0  0  0  0  0  0  0  0
  140.6110   71.8840  224.6260 N   0  0  0  0  0  0  0  0  0  0  0  0
  139.4800   74.1150  223.2250 H   0  0  0  0  0  0  0  0  0  0  0  0
  140.1272   73.7808  220.2590 H   0  0  0  0  0  0  0  0  0  0  0  0
  138.9312   74.9573  220.9194 H   0  0  0  0  0  0  0  0  0  0  0  0
  141.3499   78.4903  220.2827 H   0  0  0  0  0  0  0  0  0  0  0  0
  140.5734   77.2653  219.2719 H   0  0  0  0  0  0  0  0  0  0  0  0
  139.3738   79.4935  220.8683 H   0  0  0  0  0  0  0  0  0  0  0  0
  138.7262   78.6265  219.4158 H   0  0  0  0  0  0  0  0  0  0  0  0
  137.2660   78.2577  221.2930 H   0  0  0  0  0  0  0  0  0  0  0  0
  138.1479   76.7256  220.8624 H   0  0  0  0  0  0  0  0  0  0  0  0
  138.5123   78.5341  223.2429 H   0  0  0  0  0  0  0  0  0  0  0  0
  138.2208   76.7653  223.1825 H   0  0  0  0  0  0  0  0  0  0  0  0
  140.5466   76.6262  223.4289 H   0  0  0  0  0  0  0  0  0  0  0  0
  139.1945   79.6008  223.8325 H   0  0  0  0  0  0  0  0  0  0  0  0
  140.4221   81.7146  224.3178 H   0  0  0  0  0  0  0  0  0  0  0  0
  142.8493   81.9361  223.7379 H   0  0  0  0  0  0  0  0  0  0  0  0
  143.9935   79.9831  222.6596 H   0  0  0  0  0  0  0  0  0  0  0  0
  139.1819   69.8578  222.4034 H   0  0  0  0  0  0  0  0  0  0  0  0
  139.0517   68.4247  224.3915 H   0  0  0  0  0  0  0  0  0  0  0  0
  139.4623   68.0432  226.7176 H   0  0  0  0  0  0  0  0  0  0  0  0
  141.3564   71.0916  229.0130 H   0  0  0  0  0  0  0  0  0  0  0  0
  141.5041   72.5749  227.0226 H   0  0  0  0  0  0  0  0  0  0  0  0
  1  2  2  0
  2  3  1  0
  3  4  1  0
  4  5  1  0
  5  6  2  0
  5  7  1  0
  7  8  1  0
  8  9  1  0
  9 10  1  0
 10 11  1  0
 11 12  1  0
 12 13  1  0
 13 14  2  0
 14 15  1  0
 15 16  2  0
 16 17  1  0
 17 18  2  0
  2 19  1  0
 19 20  2  0
 20 21  1  0
 21 22  2  0
 22 23  1  0
 23 24  2  0
 24 25  1  0
 24 26  1  0
 26 27  2  0
 27 28  1  0
 28 29  2  0
 12  7  1  0
 18 13  1  0
 29 19  1  0
 28 22  1  0
  3 30  1  0
  4 31  1  0
  4 32  1  0
  8 33  1  0
  8 34  1  0
  9 35  1  0
  9 36  1  0
 10 37  1  0
 10 38  1  0
 11 39  1  0
 11 40  1  0
 12 41  1  1
 14 42  1  0
 15 43  1  0
 16 44  1  0
 17 45  1  0
 20 46  1  0
 21 47  1  0
 23 48  1  0
 26 49  1  0
 27 50  1  0
M  END
>  <smiles>  (29) 
O=C(NCC(=O)N1CCCCC1c1ccccn1)c1ccc2cc(F)ccc2n1

>  <score_type>  (29) 
oracle

>  <origin>  (29) 
autodockgpu

>  <m_score__min__energy>  (29) 
-8.7100000000000009

>  <m_primary>  (29) 
energy

>  <rmsd>  (29) 
2.954495371171725

>  <m_score__min__rmsd>  (29) 
2.954495371171725

>  <meeko>  (29) 
{"free_energy": -8.53, "intermolecular_energy": -10.02, "internal_energy": -1.49, "cluster_size": 37, "cluster_id": 1, "rank_in_cluster": 25}

>  <energy>  (29) 
-8.44

>  <cluster_rmsd>  (29) 
0.65

>  <cluster>  (29) 
1

$$$$

     RDKit          3D

 50 53  0  0  0  0  0  0  0  0999 V2000
  141.1230   72.1650  221.4650 O   0  0  0  0  0  0  0  0  0  0  0  0
  140.2900   72.4260  222.3910 C   0  0  0  0  0  0  0  0  0  0  0  0
  139.4310   73.5730  222.3220 N   0  0  0  0  0  0  0  0  0  0  0  0
  139.5750   74.4040  221.1400 C   0  0  0  0  0  0  0  0  0  0  0  0
  140.7130   75.3530  221.3090 C   0  0  0  0  0  0  0  0  0  0  0  0
  141.9190   74.9470  221.3720 O   0  0  0  0  0  0  0  0  0  0  0  0
  140.4300   76.7390  221.4010 N   0  0  0  0  0  0  0  0  0  0  0  0
  140.4410   77.6300  220.2560 C   0  0  0  0  0  0  0  0  0  0  0  0
  139.1710   78.4640  220.3760 C   0  0  0  0  0  0  0  0  0  0  0  0
  138.1580   77.7980  221.2640 C   0  0  0  0  0  0  0  0  0  0  0  0
  138.6240   77.6850  222.6840 C   0  0  0  0  0  0  0  0  0  0  0  0
  140.1080   77.3290  222.6960 C   0  0  2  0  0  0  0  0  0  0  0  0
  140.8910   78.5640  222.9650 C   0  0  0  0  0  0  0  0  0  0  0  0
  140.3240   79.6460  223.6090 C   0  0  0  0  0  0  0  0  0  0  0  0
  141.0960   80.7840  223.8390 C   0  0  0  0  0  0  0  0  0  0  0  0
  142.4290   80.8440  223.4290 C   0  0  0  0  0  0  0  0  0  0  0  0
  142.9530   79.7370  222.7880 C   0  0  0  0  0  0  0  0  0  0  0  0
  142.1740   78.6650  222.5880 N   0  0  0  0  0  0  0  0  0  0  0  0
  140.1950   71.5480  223.5530 C   0  0  0  0  0  0  0  0  0  0  0  0
  139.5950   70.3120  223.4270 C   0  0  0  0  0  0  0  0  0  0  0  0
  139.4920   69.4660  224.5040 C   0  0  0  0  0  0  0  0  0  0  0  0
  139.9790   69.8150  225.7360 C   0  0  0  0  0  0  0  0  0  0  0  0
  139.8760   68.9730  226.8040 C   0  0  0  0  0  0  0  0  0  0  0  0
  140.3730   69.3500  228.0260 C   0  0  0  0  0  0  0  0  0  0  0  0
  140.2630   68.5040  229.0750 F   0  0  0  0  0  0  0  0  0  0  0  0
  140.9660   70.5760  228.1400 C   0  0  0  0  0  0  0  0  0  0  0  0
  141.0870   71.4620  227.0670 C   0  0  0  0  0  0  0  0  0  0  0  0
  140.5840   71.0730  225.8410 C   0  0  0  0  0  0  0  0  0  0  0  0
  140.6710   71.8820  224.7670 N   0  0  0  0  0  0  0  0  0  0  0  0
  138.7390   73.7980  223.0800 H   0  0  0  0  0  0  0  0  0  0  0  0
  139.7642   73.7627  220.2666 H   0  0  0  0  0  0  0  0  0  0  0  0
  138.6490   74.9790  220.9923 H   0  0  0  0  0  0  0  0  0  0  0  0
  141.3298   78.2775  220.2814 H   0  0  0  0  0  0  0  0  0  0  0  0
  140.4759   77.0744  219.3072 H   0  0  0  0  0  0  0  0  0  0  0  0
  139.4270   79.4464  220.7995 H   0  0  0  0  0  0  0  0  0  0  0  0
  138.7329   78.5728  219.3729 H   0  0  0  0  0  0  0  0  0  0  0  0
  137.2295   78.3875  221.2435 H   0  0  0  0  0  0  0  0  0  0  0  0
  137.9990   76.7785  220.8828 H   0  0  0  0  0  0  0  0  0  0  0  0
  138.4713   78.6448  223.1992 H   0  0  0  0  0  0  0  0  0  0  0  0
  138.0508   76.9012  223.2008 H   0  0  0  0  0  0  0  0  0  0  0  0
  140.3561   76.6021  223.4835 H   0  0  0  0  0  0  0  0  0  0  0  0
  139.2746   79.6104  223.9370 H   0  0  0  0  0  0  0  0  0  0  0  0
  140.6477   81.6479  224.3515 H   0  0  0  0  0  0  0  0  0  0  0  0
  143.0407   81.7403  223.6096 H   0  0  0  0  0  0  0  0  0  0  0  0
  143.9984   79.7360  222.4457 H   0  0  0  0  0  0  0  0  0  0  0  0
  139.1939   70.0001  222.4514 H   0  0  0  0  0  0  0  0  0  0  0  0
  139.0079   68.4868  224.3745 H   0  0  0  0  0  0  0  0  0  0  0  0
  139.3943   67.9912  226.6856 H   0  0  0  0  0  0  0  0  0  0  0  0
  141.3654   70.8782  229.1194 H   0  0  0  0  0  0  0  0  0  0  0  0
  141.5695   72.4422  227.1949 H   0  0  0  0  0  0  0  0  0  0  0  0
  1  2  2  0
  2  3  1  0
  3  4  1  0
  4  5  1  0
  5  6  2  0
  5  7  1  0
  7  8  1  0
  8  9  1  0
  9 10  1  0
 10 11  1  0
 11 12  1  0
 12 13  1  0
 13 14  2  0
 14 15  1  0
 15 16  2  0
 16 17  1  0
 17 18  2  0
  2 19  1  0
 19 20  2  0
 20 21  1  0
 21 22  2  0
 22 23  1  0
 23 24  2  0
 24 25  1  0
 24 26  1  0
 26 27  2  0
 27 28  1  0
 28 29  2  0
 12  7  1  0
 18 13  1  0
 29 19  1  0
 28 22  1  0
  3 30  1  0
  4 31  1  0
  4 32  1  0
  8 33  1  0
  8 34  1  0
  9 35  1  0
  9 36  1  0
 10 37  1  0
 10 38  1  0
 11 39  1  0
 11 40  1  0
 12 41  1  1
 14 42  1  0
 15 43  1  0
 16 44  1  0
 17 45  1  0
 20 46  1  0
 21 47  1  0
 23 48  1  0
 26 49  1  0
 27 50  1  0
M  END
>  <smiles>  (30) 
O=C(NCC(=O)N1CCCCC1c1ccccn1)c1ccc2cc(F)ccc2n1

>  <score_type>  (30) 
oracle

>  <origin>  (30) 
autodockgpu

>  <m_score__min__energy>  (30) 
-8.7100000000000009

>  <m_primary>  (30) 
energy

>  <rmsd>  (30) 
2.937415880406741

>  <m_score__min__rmsd>  (30) 
2.937415880406741

>  <meeko>  (30) 
{"free_energy": -8.71, "intermolecular_energy": -10.2, "internal_energy": -1.43, "cluster_size": 37, "cluster_id": 1, "rank_in_cluster": 1}

>  <energy>  (30) 
-8.4

>  <cluster_rmsd>  (30) 
0.99

>  <cluster>  (30) 
1

$$$$

     RDKit          3D

 50 53  0  0  0  0  0  0  0  0999 V2000
  140.5380   73.7470  220.0780 O   0  0  0  0  0  0  0  0  0  0  0  0
  140.0990   74.4610  221.0360 C   0  0  0  0  0  0  0  0  0  0  0  0
  139.0940   73.9690  221.9350 N   0  0  0  0  0  0  0  0  0  0  0  0
  138.6180   72.6220  221.6800 C   0  0  0  0  0  0  0  0  0  0  0  0
  139.5070   71.6240  222.3440 C   0  0  0  0  0  0  0  0  0  0  0  0
  140.6310   71.2930  221.8450 O   0  0  0  0  0  0  0  0  0  0  0  0
  139.0750   71.0380  223.5600 N   0  0  0  0  0  0  0  0  0  0  0  0
  137.8190   71.3770  224.2040 C   0  0  0  0  0  0  0  0  0  0  0  0
  137.1890   70.0460  224.5940 C   0  0  0  0  0  0  0  0  0  0  0  0
  137.7630   68.9100  223.7950 C   0  0  0  0  0  0  0  0  0  0  0  0
  139.2190   68.6890  224.0750 C   0  0  0  0  0  0  0  0  0  0  0  0
  139.9110   70.0420  224.2220 C   0  0  2  0  0  0  0  0  0  0  0  0
  140.0930   70.3280  225.6700 C   0  0  0  0  0  0  0  0  0  0  0  0
  139.7600   69.3960  226.6310 C   0  0  0  0  0  0  0  0  0  0  0  0
  139.9460   69.7080  227.9770 C   0  0  0  0  0  0  0  0  0  0  0  0
  140.4640   70.9450  228.3640 C   0  0  0  0  0  0  0  0  0  0  0  0
  140.7830   71.8460  227.3660 C   0  0  0  0  0  0  0  0  0  0  0  0
  140.5870   71.5040  226.0850 N   0  0  0  0  0  0  0  0  0  0  0  0
  140.6210   75.8090  221.2370 C   0  0  0  0  0  0  0  0  0  0  0  0
  141.5730   76.3090  220.3720 C   0  0  0  0  0  0  0  0  0  0  0  0
  142.0810   77.5740  220.5380 C   0  0  0  0  0  0  0  0  0  0  0  0
  141.6630   78.3820  221.5610 C   0  0  0  0  0  0  0  0  0  0  0  0
  142.1690   79.6380  221.7240 C   0  0  0  0  0  0  0  0  0  0  0  0
  141.7320   80.4260  222.7590 C   0  0  0  0  0  0  0  0  0  0  0  0
  142.2430   81.6700  222.9070 F   0  0  0  0  0  0  0  0  0  0  0  0
  140.7870   79.9220  223.6090 C   0  0  0  0  0  0  0  0  0  0  0  0
  140.2500   78.6420  223.4710 C   0  0  0  0  0  0  0  0  0  0  0  0
  140.6970   77.8560  222.4260 C   0  0  0  0  0  0  0  0  0  0  0  0
  140.2160   76.6110  222.2390 N   0  0  0  0  0  0  0  0  0  0  0  0
  138.7250   74.5500  222.7290 H   0  0  0  0  0  0  0  0  0  0  0  0
  137.5966   72.5173  222.0746 H   0  0  0  0  0  0  0  0  0  0  0  0
  138.6234   72.4400  220.5952 H   0  0  0  0  0  0  0  0  0  0  0  0
  137.9991   71.9934  225.0971 H   0  0  0  0  0  0  0  0  0  0  0  0
  137.1639   71.9593  223.5393 H   0  0  0  0  0  0  0  0  0  0  0  0
  137.3754   69.8617  225.6623 H   0  0  0  0  0  0  0  0  0  0  0  0
  136.1097   70.1016  224.3888 H   0  0  0  0  0  0  0  0  0  0  0  0
  137.2125   67.9906  224.0434 H   0  0  0  0  0  0  0  0  0  0  0  0
  137.6627   69.1664  222.7300 H   0  0  0  0  0  0  0  0  0  0  0  0
  139.3319   68.1145  225.0063 H   0  0  0  0  0  0  0  0  0  0  0  0
  139.6747   68.1281  223.2457 H   0  0  0  0  0  0  0  0  0  0  0  0
  140.9069   70.0544  223.7551 H   0  0  0  0  0  0  0  0  0  0  0  0
  139.3521   68.4172  226.3384 H   0  0  0  0  0  0  0  0  0  0  0  0
  139.6804   68.9677  228.7461 H   0  0  0  0  0  0  0  0  0  0  0  0
  140.6129   71.1937  229.4251 H   0  0  0  0  0  0  0  0  0  0  0  0
  141.1938   72.8342  227.6204 H   0  0  0  0  0  0  0  0  0  0  0  0
  141.9296   75.6860  219.5385 H   0  0  0  0  0  0  0  0  0  0  0  0
  142.8399   77.9460  219.8340 H   0  0  0  0  0  0  0  0  0  0  0  0
  142.9280   80.0197  221.0253 H   0  0  0  0  0  0  0  0  0  0  0  0
  140.4348   80.5535  224.4379 H   0  0  0  0  0  0  0  0  0  0  0  0
  139.4915   78.2685  224.1747 H   0  0  0  0  0  0  0  0  0  0  0  0
  1  2  2  0
  2  3  1  0
  3  4  1  0
  4  5  1  0
  5  6  2  0
  5  7  1  0
  7  8  1  0
  8  9  1  0
  9 10  1  0
 10 11  1  0
 11 12  1  0
 12 13  1  0
 13 14  2  0
 14 15  1  0
 15 16  2  0
 16 17  1  0
 17 18  2  0
  2 19  1  0
 19 20  2  0
 20 21  1  0
 21 22  2  0
 22 23  1  0
 23 24  2  0
 24 25  1  0
 24 26  1  0
 26 27  2  0
 27 28  1  0
 28 29  2  0
 12  7  1  0
 18 13  1  0
 29 19  1  0
 28 22  1  0
  3 30  1  0
  4 31  1  0
  4 32  1  0
  8 33  1  0
  8 34  1  0
  9 35  1  0
  9 36  1  0
 10 37  1  0
 10 38  1  0
 11 39  1  0
 11 40  1  0
 12 41  1  6
 14 42  1  0
 15 43  1  0
 16 44  1  0
 17 45  1  0
 20 46  1  0
 21 47  1  0
 23 48  1  0
 26 49  1  0
 27 50  1  0
M  END
>  <smiles>  (31) 
O=C(NCC(=O)N1CCCCC1c1ccccn1)c1ccc2cc(F)ccc2n1

>  <score_type>  (31) 
oracle

>  <origin>  (31) 
autodockgpu

>  <m_score__min__energy>  (31) 
-8.7100000000000009

>  <m_primary>  (31) 
energy

>  <rmsd>  (31) 
9.311333554272151

>  <m_score__min__rmsd>  (31) 
9.311333554272151

>  <meeko>  (31) 
{"free_energy": -7.95, "intermolecular_energy": -9.44, "internal_energy": -1.61, "cluster_size": 6, "cluster_id": 3, "rank_in_cluster": 3}

>  <energy>  (31) 
-8.29

>  <cluster_rmsd>  (31) 
1.19

>  <cluster>  (31) 
1

$$$$

     RDKit          3D

 50 53  0  0  0  0  0  0  0  0999 V2000
  141.0730   72.9780  222.2510 O   0  0  0  0  0  0  0  0  0  0  0  0
  139.9720   72.6260  222.7820 C   0  0  0  0  0  0  0  0  0  0  0  0
  138.7220   73.1770  222.3450 N   0  0  0  0  0  0  0  0  0  0  0  0
  138.7980   74.1520  221.2720 C   0  0  0  0  0  0  0  0  0  0  0  0
  138.8860   75.5330  221.8320 C   0  0  0  0  0  0  0  0  0  0  0  0
  137.9700   76.0130  222.5750 O   0  0  0  0  0  0  0  0  0  0  0  0
  140.0240   76.3170  221.5190 N   0  0  0  0  0  0  0  0  0  0  0  0
  141.3690   75.7750  221.4470 C   0  0  0  0  0  0  0  0  0  0  0  0
  141.9670   76.3400  220.1650 C   0  0  0  0  0  0  0  0  0  0  0  0
  140.8990   76.8050  219.2160 C   0  0  0  0  0  0  0  0  0  0  0  0
  140.1130   77.9600  219.7590 C   0  0  0  0  0  0  0  0  0  0  0  0
  139.8700   77.7440  221.2510 C   0  0  2  0  0  0  0  0  0  0  0  0
  140.8410   78.5700  222.0160 C   0  0  0  0  0  0  0  0  0  0  0  0
  141.6040   79.5380  221.3930 C   0  0  0  0  0  0  0  0  0  0  0  0
  142.5020   80.2890  222.1500 C   0  0  0  0  0  0  0  0  0  0  0  0
  142.6400   80.0770  223.5230 C   0  0  0  0  0  0  0  0  0  0  0  0
  141.8560   79.0970  224.1020 C   0  0  0  0  0  0  0  0  0  0  0  0
  141.0060   78.3990  223.3350 N   0  0  0  0  0  0  0  0  0  0  0  0
  139.9650   71.6390  223.8570 C   0  0  0  0  0  0  0  0  0  0  0  0
  139.3930   70.4010  223.6440 C   0  0  0  0  0  0  0  0  0  0  0  0
  139.3720   69.4530  224.6380 C   0  0  0  0  0  0  0  0  0  0  0  0
  139.9170   69.7000  225.8700 C   0  0  0  0  0  0  0  0  0  0  0  0
  139.8960   68.7580  226.8560 C   0  0  0  0  0  0  0  0  0  0  0  0
  140.4480   69.0320  228.0810 C   0  0  0  0  0  0  0  0  0  0  0  0
  140.4190   68.0870  229.0490 F   0  0  0  0  0  0  0  0  0  0  0  0
  141.0130   70.2610  228.2820 C   0  0  0  0  0  0  0  0  0  0  0  0
  141.0510   71.2480  227.2950 C   0  0  0  0  0  0  0  0  0  0  0  0
  140.4910   70.9610  226.0650 C   0  0  0  0  0  0  0  0  0  0  0  0
  140.4970   71.8710  225.0710 N   0  0  0  0  0  0  0  0  0  0  0  0
  137.8060   72.8940  222.7760 H   0  0  0  0  0  0  0  0  0  0  0  0
  139.6904   73.9506  220.6612 H   0  0  0  0  0  0  0  0  0  0  0  0
  137.8921   74.0740  220.6529 H   0  0  0  0  0  0  0  0  0  0  0  0
  141.9589   76.0931  222.3192 H   0  0  0  0  0  0  0  0  0  0  0  0
  141.3664   74.6750  221.4460 H   0  0  0  0  0  0  0  0  0  0  0  0
  142.6153   77.1918  220.4184 H   0  0  0  0  0  0  0  0  0  0  0  0
  142.5422   75.5423  219.6723 H   0  0  0  0  0  0  0  0  0  0  0  0
  141.3745   77.1138  218.2734 H   0  0  0  0  0  0  0  0  0  0  0  0
  140.2014   75.9687  219.0616 H   0  0  0  0  0  0  0  0  0  0  0  0
  140.6775   78.8922  219.6092 H   0  0  0  0  0  0  0  0  0  0  0  0
  139.1491   78.0309  219.2338 H   0  0  0  0  0  0  0  0  0  0  0  0
  138.8598   78.0525  221.5581 H   0  0  0  0  0  0  0  0  0  0  0  0
  141.5043   79.7144  220.3118 H   0  0  0  0  0  0  0  0  0  0  0  0
  143.1116   81.0610  221.6576 H   0  0  0  0  0  0  0  0  0  0  0  0
  143.3474   80.6688  224.1225 H   0  0  0  0  0  0  0  0  0  0  0  0
  141.9286   78.8919  225.1803 H   0  0  0  0  0  0  0  0  0  0  0  0
  138.9479   70.1703  222.6649 H   0  0  0  0  0  0  0  0  0  0  0  0
  138.9079   68.4755  224.4404 H   0  0  0  0  0  0  0  0  0  0  0  0
  139.4355   67.7768  226.6683 H   0  0  0  0  0  0  0  0  0  0  0  0
  141.4569   70.4817  229.2640 H   0  0  0  0  0  0  0  0  0  0  0  0
  141.5137   72.2265  227.4912 H   0  0  0  0  0  0  0  0  0  0  0  0
  1  2  2  0
  2  3  1  0
  3  4  1  0
  4  5  1  0
  5  6  2  0
  5  7  1  0
  7  8  1  0
  8  9  1  0
  9 10  1  0
 10 11  1  0
 11 12  1  0
 12 13  1  0
 13 14  2  0
 14 15  1  0
 15 16  2  0
 16 17  1  0
 17 18  2  0
  2 19  1  0
 19 20  2  0
 20 21  1  0
 21 22  2  0
 22 23  1  0
 23 24  2  0
 24 25  1  0
 24 26  1  0
 26 27  2  0
 27 28  1  0
 28 29  2  0
 12  7  1  0
 18 13  1  0
 29 19  1  0
 28 22  1  0
  3 30  1  0
  4 31  1  0
  4 32  1  0
  8 33  1  0
  8 34  1  0
  9 35  1  0
  9 36  1  0
 10 37  1  0
 10 38  1  0
 11 39  1  0
 11 40  1  0
 12 41  1  1
 14 42  1  0
 15 43  1  0
 16 44  1  0
 17 45  1  0
 20 46  1  0
 21 47  1  0
 23 48  1  0
 26 49  1  0
 27 50  1  0
M  END
>  <smiles>  (32) 
O=C(NCC(=O)N1CCCCC1c1ccccn1)c1ccc2cc(F)ccc2n1

>  <score_type>  (32) 
oracle

>  <origin>  (32) 
autodockgpu

>  <m_score__min__energy>  (32) 
-8.7100000000000009

>  <m_primary>  (32) 
energy

>  <rmsd>  (32) 
2.259047560718825

>  <m_score__min__rmsd>  (32) 
2.259047560718825

>  <meeko>  (32) 
{"free_energy": -8.58, "intermolecular_energy": -10.07, "internal_energy": -1.52, "cluster_size": 37, "cluster_id": 1, "rank_in_cluster": 17}

>  <energy>  (32) 
-8.22

>  <cluster_rmsd>  (32) 
1.24

>  <cluster>  (32) 
1

$$$$

     RDKit          3D

 50 53  0  0  0  0  0  0  0  0999 V2000
  140.4650   71.7870  221.1110 O   0  0  0  0  0  0  0  0  0  0  0  0
  140.1210   72.2970  222.2240 C   0  0  0  0  0  0  0  0  0  0  0  0
  139.7670   73.6830  222.3340 N   0  0  0  0  0  0  0  0  0  0  0  0
  139.8290   74.4530  221.1050 C   0  0  0  0  0  0  0  0  0  0  0  0
  141.2150   74.9600  220.8800 C   0  0  0  0  0  0  0  0  0  0  0  0
  142.2190   74.1770  220.8720 O   0  0  0  0  0  0  0  0  0  0  0  0
  141.4010   76.3490  220.6720 N   0  0  0  0  0  0  0  0  0  0  0  0
  142.5760   76.9070  220.0290 C   0  0  0  0  0  0  0  0  0  0  0  0
  142.0470   77.9260  219.0270 C   0  0  0  0  0  0  0  0  0  0  0  0
  140.6050   77.6690  218.6900 C   0  0  0  0  0  0  0  0  0  0  0  0
  139.6990   77.8530  219.8690 C   0  0  0  0  0  0  0  0  0  0  0  0
  140.3780   77.2920  221.1160 C   0  0  2  0  0  0  0  0  0  0  0  0
  140.9510   78.4220  221.8940 C   0  0  0  0  0  0  0  0  0  0  0  0
  141.4420   78.2350  223.1710 C   0  0  0  0  0  0  0  0  0  0  0  0
  141.9690   79.3240  223.8640 C   0  0  0  0  0  0  0  0  0  0  0  0
  142.0090   80.5940  223.2870 C   0  0  0  0  0  0  0  0  0  0  0  0
  141.5060   80.7320  222.0070 C   0  0  0  0  0  0  0  0  0  0  0  0
  141.0080   79.6580  221.3780 N   0  0  0  0  0  0  0  0  0  0  0  0
  140.0780   71.4660  223.4240 C   0  0  0  0  0  0  0  0  0  0  0  0
  139.5240   70.2030  223.3600 C   0  0  0  0  0  0  0  0  0  0  0  0
  139.4710   69.4000  224.4720 C   0  0  0  0  0  0  0  0  0  0  0  0
  139.9640   69.8190  225.6790 C   0  0  0  0  0  0  0  0  0  0  0  0
  139.9110   69.0200  226.7830 C   0  0  0  0  0  0  0  0  0  0  0  0
  140.4120   69.4660  227.9800 C   0  0  0  0  0  0  0  0  0  0  0  0
  140.3510   68.6610  229.0650 F   0  0  0  0  0  0  0  0  0  0  0  0
  140.9590   70.7180  228.0320 C   0  0  0  0  0  0  0  0  0  0  0  0
  141.0290   71.5610  226.9220 C   0  0  0  0  0  0  0  0  0  0  0  0
  140.5210   71.1020  225.7220 C   0  0  0  0  0  0  0  0  0  0  0  0
  140.5600   71.8680  224.6140 N   0  0  0  0  0  0  0  0  0  0  0  0
  139.4800   74.1150  223.2480 H   0  0  0  0  0  0  0  0  0  0  0  0
  139.5355   73.8124  220.2603 H   0  0  0  0  0  0  0  0  0  0  0  0
  139.1434   75.3095  221.1847 H   0  0  0  0  0  0  0  0  0  0  0  0
  143.2235   77.3976  220.7706 H   0  0  0  0  0  0  0  0  0  0  0  0
  143.1810   76.1296  219.5395 H   0  0  0  0  0  0  0  0  0  0  0  0
  142.1391   78.9334  219.4591 H   0  0  0  0  0  0  0  0  0  0  0  0
  142.6380   77.8409  218.1032 H   0  0  0  0  0  0  0  0  0  0  0  0
  140.2982   78.3669  217.8970 H   0  0  0  0  0  0  0  0  0  0  0  0
  140.5195   76.6223  218.3627 H   0  0  0  0  0  0  0  0  0  0  0  0
  139.4942   78.9243  220.0120 H   0  0  0  0  0  0  0  0  0  0  0  0
  138.7516   77.3223  219.6936 H   0  0  0  0  0  0  0  0  0  0  0  0
  139.6729   76.7621  221.7732 H   0  0  0  0  0  0  0  0  0  0  0  0
  141.4176   77.2385  223.6361 H   0  0  0  0  0  0  0  0  0  0  0  0
  142.3596   79.1798  224.8821 H   0  0  0  0  0  0  0  0  0  0  0  0
  142.4258   81.4543  223.8313 H   0  0  0  0  0  0  0  0  0  0  0  0
  141.5142   81.7131  221.5095 H   0  0  0  0  0  0  0  0  0  0  0  0
  139.1198   69.8354  222.4053 H   0  0  0  0  0  0  0  0  0  0  0  0
  139.0230   68.3986  224.3919 H   0  0  0  0  0  0  0  0  0  0  0  0
  139.4659   68.0165  226.7137 H   0  0  0  0  0  0  0  0  0  0  0  0
  141.3616   71.0766  228.9908 H   0  0  0  0  0  0  0  0  0  0  0  0
  141.4762   72.5629  227.0003 H   0  0  0  0  0  0  0  0  0  0  0  0
  1  2  2  0
  2  3  1  0
  3  4  1  0
  4  5  1  0
  5  6  2  0
  5  7  1  0
  7  8  1  0
  8  9  1  0
  9 10  1  0
 10 11  1  0
 11 12  1  0
 12 13  1  0
 13 14  2  0
 14 15  1  0
 15 16  2  0
 16 17  1  0
 17 18  2  0
  2 19  1  0
 19 20  2  0
 20 21  1  0
 21 22  2  0
 22 23  1  0
 23 24  2  0
 24 25  1  0
 24 26  1  0
 26 27  2  0
 27 28  1  0
 28 29  2  0
 12  7  1  0
 18 13  1  0
 29 19  1  0
 28 22  1  0
  3 30  1  0
  4 31  1  0
  4 32  1  0
  8 33  1  0
  8 34  1  0
  9 35  1  0
  9 36  1  0
 10 37  1  0
 10 38  1  0
 11 39  1  0
 11 40  1  0
 12 41  1  1
 14 42  1  0
 15 43  1  0
 16 44  1  0
 17 45  1  0
 20 46  1  0
 21 47  1  0
 23 48  1  0
 26 49  1  0
 27 50  1  0
M  END
>  <smiles>  (33) 
O=C(NCC(=O)N1CCCCC1c1ccccn1)c1ccc2cc(F)ccc2n1

>  <score_type>  (33) 
oracle

>  <origin>  (33) 
autodockgpu

>  <m_score__min__energy>  (33) 
-8.7100000000000009

>  <m_primary>  (33) 
energy

>  <rmsd>  (33) 
2.67067747350599

>  <m_score__min__rmsd>  (33) 
2.67067747350599

>  <meeko>  (33) 
{"free_energy": -8.4, "intermolecular_energy": -9.89, "internal_energy": -1.47, "cluster_size": 37, "cluster_id": 1, "rank_in_cluster": 30}

>  <energy>  (33) 
-8.2

>  <cluster_rmsd>  (33) 
1.19

>  <cluster>  (33) 
1

$$$$

     RDKit          3D

 50 53  0  0  0  0  0  0  0  0999 V2000
  141.1400   72.7060  221.9020 O   0  0  0  0  0  0  0  0  0  0  0  0
  140.0940   72.5440  222.6070 C   0  0  0  0  0  0  0  0  0  0  0  0
  138.8920   73.2810  222.3400 N   0  0  0  0  0  0  0  0  0  0  0  0
  138.9510   74.2110  221.2280 C   0  0  0  0  0  0  0  0  0  0  0  0
  138.9550   75.6170  221.7270 C   0  0  0  0  0  0  0  0  0  0  0  0
  137.9630   76.1040  222.3600 O   0  0  0  0  0  0  0  0  0  0  0  0
  140.0980   76.4170  221.4820 N   0  0  0  0  0  0  0  0  0  0  0  0
  141.4480   75.8860  221.4420 C   0  0  0  0  0  0  0  0  0  0  0  0
  142.0900   76.4960  220.2020 C   0  0  0  0  0  0  0  0  0  0  0  0
  141.0530   76.9880  219.2310 C   0  0  0  0  0  0  0  0  0  0  0  0
  140.2410   78.1200  219.7830 C   0  0  0  0  0  0  0  0  0  0  0  0
  139.9450   77.8520  221.2570 C   0  0  2  0  0  0  0  0  0  0  0  0
  140.8820   78.6570  222.0840 C   0  0  0  0  0  0  0  0  0  0  0  0
  141.6640   79.6470  221.5220 C   0  0  0  0  0  0  0  0  0  0  0  0
  142.5280   80.3770  222.3360 C   0  0  0  0  0  0  0  0  0  0  0  0
  142.6140   80.1230  223.7060 C   0  0  0  0  0  0  0  0  0  0  0  0
  141.8120   79.1230  224.2230 C   0  0  0  0  0  0  0  0  0  0  0  0
  140.9950   78.4460  223.4030 N   0  0  0  0  0  0  0  0  0  0  0  0
  140.1010   71.5910  223.7130 C   0  0  0  0  0  0  0  0  0  0  0  0
  139.5980   70.3200  223.5220 C   0  0  0  0  0  0  0  0  0  0  0  0
  139.5920   69.4030  224.5440 C   0  0  0  0  0  0  0  0  0  0  0  0
  140.0840   69.7150  225.7840 C   0  0  0  0  0  0  0  0  0  0  0  0
  140.0780   68.8020  226.7980 C   0  0  0  0  0  0  0  0  0  0  0  0
  140.5770   69.1420  228.0310 C   0  0  0  0  0  0  0  0  0  0  0  0
  140.5630   68.2260  229.0260 F   0  0  0  0  0  0  0  0  0  0  0  0
  141.0740   70.4030  228.2090 C   0  0  0  0  0  0  0  0  0  0  0  0
  141.0940   71.3600  227.1930 C   0  0  0  0  0  0  0  0  0  0  0  0
  140.5890   71.0080  225.9560 C   0  0  0  0  0  0  0  0  0  0  0  0
  140.5820   71.8870  224.9350 N   0  0  0  0  0  0  0  0  0  0  0  0
  138.0210   73.1550  222.9160 H   0  0  0  0  0  0  0  0  0  0  0  0
  139.8695   74.0284  220.6509 H   0  0  0  0  0  0  0  0  0  0  0  0
  138.0679   74.0610  220.5895 H   0  0  0  0  0  0  0  0  0  0  0  0
  142.0030   76.1787  222.3455 H   0  0  0  0  0  0  0  0  0  0  0  0
  141.4527   74.7866  221.4046 H   0  0  0  0  0  0  0  0  0  0  0  0
  142.7241   77.3416  220.5069 H   0  0  0  0  0  0  0  0  0  0  0  0
  142.6878   75.7182  219.7043 H   0  0  0  0  0  0  0  0  0  0  0  0
  141.5600   77.3305  218.3169 H   0  0  0  0  0  0  0  0  0  0  0  0
  140.3663   76.1539  219.0243 H   0  0  0  0  0  0  0  0  0  0  0  0
  140.8050   79.0594  219.6857 H   0  0  0  0  0  0  0  0  0  0  0  0
  139.2966   78.2044  219.2253 H   0  0  0  0  0  0  0  0  0  0  0  0
  138.9223   78.1443  221.5376 H   0  0  0  0  0  0  0  0  0  0  0  0
  141.6055   79.8570  220.4438 H   0  0  0  0  0  0  0  0  0  0  0  0
  143.1524   81.1662  221.8918 H   0  0  0  0  0  0  0  0  0  0  0  0
  143.2952   80.6978  224.3506 H   0  0  0  0  0  0  0  0  0  0  0  0
  141.8436   78.8849  225.2965 H   0  0  0  0  0  0  0  0  0  0  0  0
  139.1964   70.0378  222.5376 H   0  0  0  0  0  0  0  0  0  0  0  0
  139.1839   68.3976  224.3635 H   0  0  0  0  0  0  0  0  0  0  0  0
  139.6733   67.7935  226.6275 H   0  0  0  0  0  0  0  0  0  0  0  0
  141.4758   70.6755  229.1961 H   0  0  0  0  0  0  0  0  0  0  0  0
  141.5005   72.3663  227.3722 H   0  0  0  0  0  0  0  0  0  0  0  0
  1  2  2  0
  2  3  1  0
  3  4  1  0
  4  5  1  0
  5  6  2  0
  5  7  1  0
  7  8  1  0
  8  9  1  0
  9 10  1  0
 10 11  1  0
 11 12  1  0
 12 13  1  0
 13 14  2  0
 14 15  1  0
 15 16  2  0
 16 17  1  0
 17 18  2  0
  2 19  1  0
 19 20  2  0
 20 21  1  0
 21 22  2  0
 22 23  1  0
 23 24  2  0
 24 25  1  0
 24 26  1  0
 26 27  2  0
 27 28  1  0
 28 29  2  0
 12  7  1  0
 18 13  1  0
 29 19  1  0
 28 22  1  0
  3 30  1  0
  4 31  1  0
  4 32  1  0
  8 33  1  0
  8 34  1  0
  9 35  1  0
  9 36  1  0
 10 37  1  0
 10 38  1  0
 11 39  1  0
 11 40  1  0
 12 41  1  1
 14 42  1  0
 15 43  1  0
 16 44  1  0
 17 45  1  0
 20 46  1  0
 21 47  1  0
 23 48  1  0
 26 49  1  0
 27 50  1  0
M  END
>  <smiles>  (34) 
O=C(NCC(=O)N1CCCCC1c1ccccn1)c1ccc2cc(F)ccc2n1

>  <score_type>  (34) 
oracle

>  <origin>  (34) 
autodockgpu

>  <m_score__min__energy>  (34) 
-8.7100000000000009

>  <m_primary>  (34) 
energy

>  <rmsd>  (34) 
2.2877240111711656

>  <m_score__min__rmsd>  (34) 
2.2877240111711656

>  <meeko>  (34) 
{"free_energy": -8.62, "intermolecular_energy": -10.11, "internal_energy": -1.54, "cluster_size": 37, "cluster_id": 1, "rank_in_cluster": 11}

>  <energy>  (34) 
-8.17

>  <cluster_rmsd>  (34) 
1.31

>  <cluster>  (34) 
1

$$$$

     RDKit          3D

 50 53  0  0  0  0  0  0  0  0999 V2000
  141.4270   72.3640  221.7430 O   0  0  0  0  0  0  0  0  0  0  0  0
  140.4360   72.5070  222.5270 C   0  0  0  0  0  0  0  0  0  0  0  0
  139.4680   73.5460  222.3260 N   0  0  0  0  0  0  0  0  0  0  0  0
  139.6930   74.4120  221.1840 C   0  0  0  0  0  0  0  0  0  0  0  0
  139.3290   75.8200  221.5200 C   0  0  0  0  0  0  0  0  0  0  0  0
  138.2160   76.1100  222.0650 O   0  0  0  0  0  0  0  0  0  0  0  0
  140.2570   76.8480  221.2190 N   0  0  0  0  0  0  0  0  0  0  0  0
  141.6010   76.5910  220.7350 C   0  0  0  0  0  0  0  0  0  0  0  0
  141.8040   77.5490  219.5690 C   0  0  0  0  0  0  0  0  0  0  0  0
  140.4920   78.0320  219.0170 C   0  0  0  0  0  0  0  0  0  0  0  0
  139.7250   78.8590  220.0040 C   0  0  0  0  0  0  0  0  0  0  0  0
  139.8720   78.2450  221.3940 C   0  0  2  0  0  0  0  0  0  0  0  0
  140.8900   79.0210  222.1510 C   0  0  0  0  0  0  0  0  0  0  0  0
  141.2430   78.6740  223.4400 C   0  0  0  0  0  0  0  0  0  0  0  0
  142.2020   79.4300  224.1110 C   0  0  0  0  0  0  0  0  0  0  0  0
  142.8090   80.5290  223.5010 C   0  0  0  0  0  0  0  0  0  0  0  0
  142.4240   80.8380  222.2100 C   0  0  0  0  0  0  0  0  0  0  0  0
  141.4970   80.0830  221.6030 N   0  0  0  0  0  0  0  0  0  0  0  0
  140.2670   71.6000  223.6590 C   0  0  0  0  0  0  0  0  0  0  0  0
  139.6100   70.4000  223.4790 C   0  0  0  0  0  0  0  0  0  0  0  0
  139.4370   69.5270  224.5260 C   0  0  0  0  0  0  0  0  0  0  0  0
  139.9070   69.8150  225.7790 C   0  0  0  0  0  0  0  0  0  0  0  0
  139.7350   68.9470  226.8170 C   0  0  0  0  0  0  0  0  0  0  0  0
  140.2160   69.2620  228.0630 C   0  0  0  0  0  0  0  0  0  0  0  0
  140.0370   68.3910  229.0820 F   0  0  0  0  0  0  0  0  0  0  0  0
  140.8660   70.4530  228.2300 C   0  0  0  0  0  0  0  0  0  0  0  0
  141.0590   71.3630  227.1890 C   0  0  0  0  0  0  0  0  0  0  0  0
  140.5700   71.0370  225.9390 C   0  0  0  0  0  0  0  0  0  0  0  0
  140.7260   71.8730  224.8940 N   0  0  0  0  0  0  0  0  0  0  0  0
  138.6450   73.6730  222.9680 H   0  0  0  0  0  0  0  0  0  0  0  0
  140.7550   74.3698  220.9006 H   0  0  0  0  0  0  0  0  0  0  0  0
  139.0652   74.0706  220.3477 H   0  0  0  0  0  0  0  0  0  0  0  0
  142.3388   76.7875  221.5268 H   0  0  0  0  0  0  0  0  0  0  0  0
  141.7308   75.5425  220.4288 H   0  0  0  0  0  0  0  0  0  0  0  0
  142.3864   78.4154  219.9157 H   0  0  0  0  0  0  0  0  0  0  0  0
  142.3373   77.0122  218.7706 H   0  0  0  0  0  0  0  0  0  0  0  0
  140.6883   78.6416  218.1227 H   0  0  0  0  0  0  0  0  0  0  0  0
  139.8837   77.1474  218.7772 H   0  0  0  0  0  0  0  0  0  0  0  0
  140.1214   79.8851  220.0111 H   0  0  0  0  0  0  0  0  0  0  0  0
  138.6624   78.8822  219.7204 H   0  0  0  0  0  0  0  0  0  0  0  0
  138.9342   78.2814  221.9678 H   0  0  0  0  0  0  0  0  0  0  0  0
  140.7722   77.8100  223.9319 H   0  0  0  0  0  0  0  0  0  0  0  0
  142.4853   79.1563  225.1380 H   0  0  0  0  0  0  0  0  0  0  0  0
  143.5663   81.1275  224.0286 H   0  0  0  0  0  0  0  0  0  0  0  0
  142.8734   81.6944  221.6860 H   0  0  0  0  0  0  0  0  0  0  0  0
  139.2196   70.1388  222.4843 H   0  0  0  0  0  0  0  0  0  0  0  0
  138.9099   68.5770  224.3537 H   0  0  0  0  0  0  0  0  0  0  0  0
  139.2104   67.9938  226.6552 H   0  0  0  0  0  0  0  0  0  0  0  0
  141.2538   70.7053  229.2280 H   0  0  0  0  0  0  0  0  0  0  0  0
  141.5860   72.3134  227.3595 H   0  0  0  0  0  0  0  0  0  0  0  0
  1  2  2  0
  2  3  1  0
  3  4  1  0
  4  5  1  0
  5  6  2  0
  5  7  1  0
  7  8  1  0
  8  9  1  0
  9 10  1  0
 10 11  1  0
 11 12  1  0
 12 13  1  0
 13 14  2  0
 14 15  1  0
 15 16  2  0
 16 17  1  0
 17 18  2  0
  2 19  1  0
 19 20  2  0
 20 21  1  0
 21 22  2  0
 22 23  1  0
 23 24  2  0
 24 25  1  0
 24 26  1  0
 26 27  2  0
 27 28  1  0
 28 29  2  0
 12  7  1  0
 18 13  1  0
 29 19  1  0
 28 22  1  0
  3 30  1  0
  4 31  1  0
  4 32  1  0
  8 33  1  0
  8 34  1  0
  9 35  1  0
  9 36  1  0
 10 37  1  0
 10 38  1  0
 11 39  1  0
 11 40  1  0
 12 41  1  1
 14 42  1  0
 15 43  1  0
 16 44  1  0
 17 45  1  0
 20 46  1  0
 21 47  1  0
 23 48  1  0
 26 49  1  0
 27 50  1  0
M  END
>  <smiles>  (35) 
O=C(NCC(=O)N1CCCCC1c1ccccn1)c1ccc2cc(F)ccc2n1

>  <score_type>  (35) 
oracle

>  <origin>  (35) 
autodockgpu

>  <m_score__min__energy>  (35) 
-8.7100000000000009

>  <m_primary>  (35) 
energy

>  <rmsd>  (35) 
2.7956551223091246

>  <m_score__min__rmsd>  (35) 
2.7956551223091246

>  <meeko>  (35) 
{"free_energy": -8.55, "intermolecular_energy": -10.04, "internal_energy": -1.54, "cluster_size": 37, "cluster_id": 1, "rank_in_cluster": 20}

>  <energy>  (35) 
-8.15

>  <cluster_rmsd>  (35) 
1.34

>  <cluster>  (35) 
1

$$$$

     RDKit          3D

 50 53  0  0  0  0  0  0  0  0999 V2000
  141.2280   72.7680  221.9980 O   0  0  0  0  0  0  0  0  0  0  0  0
  140.1530   72.5900  222.6560 C   0  0  0  0  0  0  0  0  0  0  0  0
  138.9580   73.3200  222.3450 N   0  0  0  0  0  0  0  0  0  0  0  0
  139.0570   74.2630  221.2460 C   0  0  0  0  0  0  0  0  0  0  0  0
  139.0270   75.6630  221.7600 C   0  0  0  0  0  0  0  0  0  0  0  0
  138.0590   76.0960  222.4660 O   0  0  0  0  0  0  0  0  0  0  0  0
  140.1110   76.5210  221.4480 N   0  0  0  0  0  0  0  0  0  0  0  0
  141.4680   76.0470  221.2460 C   0  0  0  0  0  0  0  0  0  0  0  0
  141.9590   76.7450  219.9840 C   0  0  0  0  0  0  0  0  0  0  0  0
  140.8140   77.2410  219.1480 C   0  0  0  0  0  0  0  0  0  0  0  0
  140.0210   78.3100  219.8370 C   0  0  0  0  0  0  0  0  0  0  0  0
  139.8850   77.9570  221.3160 C   0  0  2  0  0  0  0  0  0  0  0  0
  140.8700   78.7580  222.0890 C   0  0  0  0  0  0  0  0  0  0  0  0
  141.0270   78.5820  223.4490 C   0  0  0  0  0  0  0  0  0  0  0  0
  141.9640   79.3560  224.1330 C   0  0  0  0  0  0  0  0  0  0  0  0
  142.7430   80.3010  223.4640 C   0  0  0  0  0  0  0  0  0  0  0  0
  142.5510   80.4420  222.1030 C   0  0  0  0  0  0  0  0  0  0  0  0
  141.6390   79.6770  221.4860 N   0  0  0  0  0  0  0  0  0  0  0  0
  140.1210   71.6250  223.7500 C   0  0  0  0  0  0  0  0  0  0  0  0
  139.5550   70.3820  223.5480 C   0  0  0  0  0  0  0  0  0  0  0  0
  139.5110   69.4540  224.5590 C   0  0  0  0  0  0  0  0  0  0  0  0
  140.0250   69.7260  225.7990 C   0  0  0  0  0  0  0  0  0  0  0  0
  139.9810   68.8030  226.8030 C   0  0  0  0  0  0  0  0  0  0  0  0
  140.5030   69.1030  228.0350 C   0  0  0  0  0  0  0  0  0  0  0  0
  140.4520   68.1770  229.0200 F   0  0  0  0  0  0  0  0  0  0  0  0
  141.0630   70.3360  228.2250 C   0  0  0  0  0  0  0  0  0  0  0  0
  141.1240   71.3030  227.2200 C   0  0  0  0  0  0  0  0  0  0  0  0
  140.5940   70.9910  225.9830 C   0  0  0  0  0  0  0  0  0  0  0  0
  140.6230   71.8820  224.9720 N   0  0  0  0  0  0  0  0  0  0  0  0
  138.0640   73.1810  222.8810 H   0  0  0  0  0  0  0  0  0  0  0  0
  140.0012   74.0945  220.7074 H   0  0  0  0  0  0  0  0  0  0  0  0
  138.2040   74.1127  220.5680 H   0  0  0  0  0  0  0  0  0  0  0  0
  142.1008   76.3153  222.1048 H   0  0  0  0  0  0  0  0  0  0  0  0
  141.5077   74.9520  221.1486 H   0  0  0  0  0  0  0  0  0  0  0  0
  142.5889   77.6000  220.2706 H   0  0  0  0  0  0  0  0  0  0  0  0
  142.5316   76.0187  219.3886 H   0  0  0  0  0  0  0  0  0  0  0  0
  141.2142   77.6491  218.2082 H   0  0  0  0  0  0  0  0  0  0  0  0
  140.1406   76.3906  218.9654 H   0  0  0  0  0  0  0  0  0  0  0  0
  140.5379   79.2756  219.7349 H   0  0  0  0  0  0  0  0  0  0  0  0
  139.0229   78.3831  219.3804 H   0  0  0  0  0  0  0  0  0  0  0  0
  138.8857   78.1925  221.7109 H   0  0  0  0  0  0  0  0  0  0  0  0
  140.4197   77.8394  223.9874 H   0  0  0  0  0  0  0  0  0  0  0  0
  142.0911   79.2194  225.2171 H   0  0  0  0  0  0  0  0  0  0  0  0
  143.4835   80.9119  224.0011 H   0  0  0  0  0  0  0  0  0  0  0  0
  143.1403   81.1743  221.5316 H   0  0  0  0  0  0  0  0  0  0  0  0
  139.1334   70.1316  222.5633 H   0  0  0  0  0  0  0  0  0  0  0  0
  139.0535   68.4718  224.3691 H   0  0  0  0  0  0  0  0  0  0  0  0
  139.5264   67.8175  226.6239 H   0  0  0  0  0  0  0  0  0  0  0  0
  141.4837   70.5763  229.2126 H   0  0  0  0  0  0  0  0  0  0  0  0
  141.5812   72.2857  227.4078 H   0  0  0  0  0  0  0  0  0  0  0  0
  1  2  2  0
  2  3  1  0
  3  4  1  0
  4  5  1  0
  5  6  2  0
  5  7  1  0
  7  8  1  0
  8  9  1  0
  9 10  1  0
 10 11  1  0
 11 12  1  0
 12 13  1  0
 13 14  2  0
 14 15  1  0
 15 16  2  0
 16 17  1  0
 17 18  2  0
  2 19  1  0
 19 20  2  0
 20 21  1  0
 21 22  2  0
 22 23  1  0
 23 24  2  0
 24 25  1  0
 24 26  1  0
 26 27  2  0
 27 28  1  0
 28 29  2  0
 12  7  1  0
 18 13  1  0
 29 19  1  0
 28 22  1  0
  3 30  1  0
  4 31  1  0
  4 32  1  0
  8 33  1  0
  8 34  1  0
  9 35  1  0
  9 36  1  0
 10 37  1  0
 10 38  1  0
 11 39  1  0
 11 40  1  0
 12 41  1  1
 14 42  1  0
 15 43  1  0
 16 44  1  0
 17 45  1  0
 20 46  1  0
 21 47  1  0
 23 48  1  0
 26 49  1  0
 27 50  1  0
M  END
>  <smiles>  (36) 
O=C(NCC(=O)N1CCCCC1c1ccccn1)c1ccc2cc(F)ccc2n1

>  <score_type>  (36) 
oracle

>  <origin>  (36) 
autodockgpu

>  <m_score__min__energy>  (36) 
-8.7100000000000009

>  <m_primary>  (36) 
energy

>  <rmsd>  (36) 
2.6973002484981694

>  <m_score__min__rmsd>  (36) 
2.6973002484981694

>  <meeko>  (36) 
{"free_energy": -8.59, "intermolecular_energy": -10.08, "internal_energy": -1.53, "cluster_size": 37, "cluster_id": 1, "rank_in_cluster": 15}

>  <energy>  (36) 
-8.12

>  <cluster_rmsd>  (36) 
1.21

>  <cluster>  (36) 
1

$$$$

     RDKit          3D

 50 53  0  0  0  0  0  0  0  0999 V2000
  140.5510   73.9480  220.3570 O   0  0  0  0  0  0  0  0  0  0  0  0
  140.0940   74.7040  221.2730 C   0  0  0  0  0  0  0  0  0  0  0  0
  139.0820   74.2490  222.1820 N   0  0  0  0  0  0  0  0  0  0  0  0
  138.6190   72.8870  221.9880 C   0  0  0  0  0  0  0  0  0  0  0  0
  139.5150   71.9290  222.6980 C   0  0  0  0  0  0  0  0  0  0  0  0
  140.7840   72.0120  222.6150 O   0  0  0  0  0  0  0  0  0  0  0  0
  138.9260   70.9060  223.4810 N   0  0  0  0  0  0  0  0  0  0  0  0
  137.6830   71.0780  224.2110 C   0  0  0  0  0  0  0  0  0  0  0  0
  136.8580   69.8330  223.9110 C   0  0  0  0  0  0  0  0  0  0  0  0
  137.3330   69.1450  222.6620 C   0  0  0  0  0  0  0  0  0  0  0  0
  138.7240   68.6040  222.8000 C   0  0  0  0  0  0  0  0  0  0  0  0
  139.5760   69.6020  223.5800 C   0  0  2  0  0  0  0  0  0  0  0  0
  139.6900   69.1330  224.9860 C   0  0  0  0  0  0  0  0  0  0  0  0
  140.2920   69.9110  225.9550 C   0  0  0  0  0  0  0  0  0  0  0  0
  140.3770   69.4300  227.2600 C   0  0  0  0  0  0  0  0  0  0  0  0
  139.8630   68.1790  227.6010 C   0  0  0  0  0  0  0  0  0  0  0  0
  139.2690   67.4350  226.5990 C   0  0  0  0  0  0  0  0  0  0  0  0
  139.2100   67.9370  225.3570 N   0  0  0  0  0  0  0  0  0  0  0  0
  140.6040   76.0650  221.4150 C   0  0  0  0  0  0  0  0  0  0  0  0
  141.5270   76.5460  220.5090 C   0  0  0  0  0  0  0  0  0  0  0  0
  142.0230   77.8220  220.6180 C   0  0  0  0  0  0  0  0  0  0  0  0
  141.6210   78.6600  221.6240 C   0  0  0  0  0  0  0  0  0  0  0  0
  142.1140   79.9270  221.7310 C   0  0  0  0  0  0  0  0  0  0  0  0
  141.6940   80.7440  222.7500 C   0  0  0  0  0  0  0  0  0  0  0  0
  142.1930   81.9980  222.8420 F   0  0  0  0  0  0  0  0  0  0  0  0
  140.7790   80.2580  223.6410 C   0  0  0  0  0  0  0  0  0  0  0  0
  140.2550   78.9670  223.5610 C   0  0  0  0  0  0  0  0  0  0  0  0
  140.6850   78.1520  222.5320 C   0  0  0  0  0  0  0  0  0  0  0  0
  140.2150   76.8960  222.4000 N   0  0  0  0  0  0  0  0  0  0  0  0
  138.6980   74.8650  222.9430 H   0  0  0  0  0  0  0  0  0  0  0  0
  137.5977   72.7910  222.3852 H   0  0  0  0  0  0  0  0  0  0  0  0
  138.6287   72.6558  220.9126 H   0  0  0  0  0  0  0  0  0  0  0  0
  137.8792   71.1581  225.2904 H   0  0  0  0  0  0  0  0  0  0  0  0
  137.1580   71.9970  223.9112 H   0  0  0  0  0  0  0  0  0  0  0  0
  136.9427   69.1356  224.7574 H   0  0  0  0  0  0  0  0  0  0  0  0
  135.8126   70.1400  223.7595 H   0  0  0  0  0  0  0  0  0  0  0  0
  136.6509   68.3119  222.4367 H   0  0  0  0  0  0  0  0  0  0  0  0
  137.3421   69.8896  221.8524 H   0  0  0  0  0  0  0  0  0  0  0  0
  138.6941   67.6456  223.3390 H   0  0  0  0  0  0  0  0  0  0  0  0
  139.1598   68.4466  221.8024 H   0  0  0  0  0  0  0  0  0  0  0  0
  140.5957   69.6860  223.1760 H   0  0  0  0  0  0  0  0  0  0  0  0
  140.7002   70.9000  225.6995 H   0  0  0  0  0  0  0  0  0  0  0  0
  140.8572   70.0469  228.0338 H   0  0  0  0  0  0  0  0  0  0  0  0
  139.9281   67.7980  228.6309 H   0  0  0  0  0  0  0  0  0  0  0  0
  138.8493   66.4421  226.8180 H   0  0  0  0  0  0  0  0  0  0  0  0
  141.8701   75.8987  219.6885 H   0  0  0  0  0  0  0  0  0  0  0  0
  142.7586   78.1785  219.8819 H   0  0  0  0  0  0  0  0  0  0  0  0
  142.8490   80.2942  220.9997 H   0  0  0  0  0  0  0  0  0  0  0  0
  140.4406   80.9132  224.4572 H   0  0  0  0  0  0  0  0  0  0  0  0
  139.5201   78.6085  224.2968 H   0  0  0  0  0  0  0  0  0  0  0  0
  1  2  2  0
  2  3  1  0
  3  4  1  0
  4  5  1  0
  5  6  2  0
  5  7  1  0
  7  8  1  0
  8  9  1  0
  9 10  1  0
 10 11  1  0
 11 12  1  0
 12 13  1  0
 13 14  2  0
 14 15  1  0
 15 16  2  0
 16 17  1  0
 17 18  2  0
  2 19  1  0
 19 20  2  0
 20 21  1  0
 21 22  2  0
 22 23  1  0
 23 24  2  0
 24 25  1  0
 24 26  1  0
 26 27  2  0
 27 28  1  0
 28 29  2  0
 12  7  1  0
 18 13  1  0
 29 19  1  0
 28 22  1  0
  3 30  1  0
  4 31  1  0
  4 32  1  0
  8 33  1  0
  8 34  1  0
  9 35  1  0
  9 36  1  0
 10 37  1  0
 10 38  1  0
 11 39  1  0
 11 40  1  0
 12 41  1  6
 14 42  1  0
 15 43  1  0
 16 44  1  0
 17 45  1  0
 20 46  1  0
 21 47  1  0
 23 48  1  0
 26 49  1  0
 27 50  1  0
M  END
>  <smiles>  (37) 
O=C(NCC(=O)N1CCCCC1c1ccccn1)c1ccc2cc(F)ccc2n1

>  <score_type>  (37) 
oracle

>  <origin>  (37) 
autodockgpu

>  <m_score__min__energy>  (37) 
-8.7100000000000009

>  <m_primary>  (37) 
energy

>  <rmsd>  (37) 
9.56116282049983

>  <m_score__min__rmsd>  (37) 
9.56116282049983

>  <meeko>  (37) 
{"free_energy": -8.05, "intermolecular_energy": -9.55, "internal_energy": -1.59, "cluster_size": 6, "cluster_id": 3, "rank_in_cluster": 1}

>  <energy>  (37) 
-7.79

>  <cluster_rmsd>  (37) 
0.95

>  <cluster>  (37) 
1

$$$$

     RDKit          3D

 50 53  0  0  0  0  0  0  0  0999 V2000
  139.8060   71.4780  221.0700 O   0  0  0  0  0  0  0  0  0  0  0  0
  139.7500   72.0350  222.2120 C   0  0  0  0  0  0  0  0  0  0  0  0
  139.5900   73.4540  222.3440 N   0  0  0  0  0  0  0  0  0  0  0  0
  139.4980   74.2020  221.1030 C   0  0  0  0  0  0  0  0  0  0  0  0
  139.2280   75.6420  221.3840 C   0  0  0  0  0  0  0  0  0  0  0  0
  138.0940   76.0390  221.8060 O   0  0  0  0  0  0  0  0  0  0  0  0
  140.2700   76.5790  221.1710 N   0  0  0  0  0  0  0  0  0  0  0  0
  141.6520   76.1950  220.9480 C   0  0  0  0  0  0  0  0  0  0  0  0
  142.1210   77.0330  219.7650 C   0  0  0  0  0  0  0  0  0  0  0  0
  140.9610   77.5470  218.9600 C   0  0  0  0  0  0  0  0  0  0  0  0
  140.1060   78.5050  219.7330 C   0  0  0  0  0  0  0  0  0  0  0  0
  139.9710   78.0070  221.1700 C   0  0  2  0  0  0  0  0  0  0  0  0
  140.9050   78.7810  222.0310 C   0  0  0  0  0  0  0  0  0  0  0  0
  141.6700   79.8070  221.5150 C   0  0  0  0  0  0  0  0  0  0  0  0
  142.5330   80.5050  222.3590 C   0  0  0  0  0  0  0  0  0  0  0  0
  142.6330   80.1820  223.7130 C   0  0  0  0  0  0  0  0  0  0  0  0
  141.8470   79.1460  224.1840 C   0  0  0  0  0  0  0  0  0  0  0  0
  141.0320   78.5030  223.3360 N   0  0  0  0  0  0  0  0  0  0  0  0
  139.8480   71.2250  223.4220 C   0  0  0  0  0  0  0  0  0  0  0  0
  139.4230   69.9110  223.4010 C   0  0  0  0  0  0  0  0  0  0  0  0
  139.5040   69.1260  224.5250 C   0  0  0  0  0  0  0  0  0  0  0  0
  140.0070   69.6140  225.7010 C   0  0  0  0  0  0  0  0  0  0  0  0
  140.0870   68.8330  226.8170 C   0  0  0  0  0  0  0  0  0  0  0  0
  140.5940   69.3480  227.9820 C   0  0  0  0  0  0  0  0  0  0  0  0
  140.6660   68.5610  229.0790 F   0  0  0  0  0  0  0  0  0  0  0  0
  141.0130   70.6500  227.9920 C   0  0  0  0  0  0  0  0  0  0  0  0
  140.9450   71.4760  226.8700 C   0  0  0  0  0  0  0  0  0  0  0  0
  140.4310   70.9470  225.7010 C   0  0  0  0  0  0  0  0  0  0  0  0
  140.3410   71.6940  224.5830 N   0  0  0  0  0  0  0  0  0  0  0  0
  139.5420   73.9250  223.2830 H   0  0  0  0  0  0  0  0  0  0  0  0
  140.4467   74.1114  220.5537 H   0  0  0  0  0  0  0  0  0  0  0  0
  138.6727   73.7946  220.5005 H   0  0  0  0  0  0  0  0  0  0  0  0
  142.2600   76.4126  221.8385 H   0  0  0  0  0  0  0  0  0  0  0  0
  141.7494   75.1175  220.7492 H   0  0  0  0  0  0  0  0  0  0  0  0
  142.7022   77.8880  220.1407 H   0  0  0  0  0  0  0  0  0  0  0  0
  142.7378   76.3961  219.1138 H   0  0  0  0  0  0  0  0  0  0  0  0
  141.3502   78.0614  218.0690 H   0  0  0  0  0  0  0  0  0  0  0  0
  140.3347   76.6847  218.6877 H   0  0  0  0  0  0  0  0  0  0  0  0
  140.5738   79.5006  219.7306 H   0  0  0  0  0  0  0  0  0  0  0  0
  139.1109   78.5711  219.2688 H   0  0  0  0  0  0  0  0  0  0  0  0
  138.9561   78.1527  221.5684 H   0  0  0  0  0  0  0  0  0  0  0  0
  141.5998   80.0713  220.4495 H   0  0  0  0  0  0  0  0  0  0  0  0
  143.1447   81.3232  221.9511 H   0  0  0  0  0  0  0  0  0  0  0  0
  143.3123   80.7314  224.3814 H   0  0  0  0  0  0  0  0  0  0  0  0
  141.8902   78.8528  225.2433 H   0  0  0  0  0  0  0  0  0  0  0  0
  139.0142   69.4876  222.4717 H   0  0  0  0  0  0  0  0  0  0  0  0
  139.1574   68.0830  224.4794 H   0  0  0  0  0  0  0  0  0  0  0  0
  139.7441   67.7884  226.7819 H   0  0  0  0  0  0  0  0  0  0  0  0
  141.4215   71.0639  228.9257 H   0  0  0  0  0  0  0  0  0  0  0  0
  141.2908   72.5193  226.9143 H   0  0  0  0  0  0  0  0  0  0  0  0
  1  2  2  0
  2  3  1  0
  3  4  1  0
  4  5  1  0
  5  6  2  0
  5  7  1  0
  7  8  1  0
  8  9  1  0
  9 10  1  0
 10 11  1  0
 11 12  1  0
 12 13  1  0
 13 14  2  0
 14 15  1  0
 15 16  2  0
 16 17  1  0
 17 18  2  0
  2 19  1  0
 19 20  2  0
 20 21  1  0
 21 22  2  0
 22 23  1  0
 23 24  2  0
 24 25  1  0
 24 26  1  0
 26 27  2  0
 27 28  1  0
 28 29  2  0
 12  7  1  0
 18 13  1  0
 29 19  1  0
 28 22  1  0
  3 30  1  0
  4 31  1  0
  4 32  1  0
  8 33  1  0
  8 34  1  0
  9 35  1  0
  9 36  1  0
 10 37  1  0
 10 38  1  0
 11 39  1  0
 11 40  1  0
 12 41  1  1
 14 42  1  0
 15 43  1  0
 16 44  1  0
 17 45  1  0
 20 46  1  0
 21 47  1  0
 23 48  1  0
 26 49  1  0
 27 50  1  0
M  END
>  <smiles>  (38) 
O=C(NCC(=O)N1CCCCC1c1ccccn1)c1ccc2cc(F)ccc2n1

>  <score_type>  (38) 
oracle

>  <origin>  (38) 
autodockgpu

>  <m_score__min__energy>  (38) 
-8.7100000000000009

>  <m_primary>  (38) 
energy

>  <rmsd>  (38) 
2.215472881332964

>  <m_score__min__rmsd>  (38) 
2.215472881332964

>  <meeko>  (38) 
{"free_energy": -8.29, "intermolecular_energy": -9.78, "internal_energy": -1.52, "cluster_size": 37, "cluster_id": 1, "rank_in_cluster": 31}

>  <energy>  (38) 
-8.18

>  <cluster_rmsd>  (38) 
0.0

>  <cluster>  (38) 
2

$$$$

     RDKit          3D

 50 53  0  0  0  0  0  0  0  0999 V2000
  140.6870   73.9720  220.2680 O   0  0  0  0  0  0  0  0  0  0  0  0
  140.2280   74.6990  221.2060 C   0  0  0  0  0  0  0  0  0  0  0  0
  139.2490   74.2000  222.1270 N   0  0  0  0  0  0  0  0  0  0  0  0
  138.8210   72.8280  221.9180 C   0  0  0  0  0  0  0  0  0  0  0  0
  139.7310   71.8860  222.6330 C   0  0  0  0  0  0  0  0  0  0  0  0
  140.9810   71.8530  222.3930 O   0  0  0  0  0  0  0  0  0  0  0  0
  139.1750   71.0140  223.6010 N   0  0  0  0  0  0  0  0  0  0  0  0
  137.8760   71.2280  224.2130 C   0  0  0  0  0  0  0  0  0  0  0  0
  137.1770   69.8760  224.1680 C   0  0  0  0  0  0  0  0  0  0  0  0
  137.7880   68.9730  223.1340 C   0  0  0  0  0  0  0  0  0  0  0  0
  139.2060   68.6090  223.4560 C   0  0  0  0  0  0  0  0  0  0  0  0
  139.9200   69.8330  224.0260 C   0  0  2  0  0  0  0  0  0  0  0  0
  139.9780   69.7030  225.5060 C   0  0  0  0  0  0  0  0  0  0  0  0
  139.7670   68.4880  226.1270 C   0  0  0  0  0  0  0  0  0  0  0  0
  139.8300   68.4140  227.5180 C   0  0  0  0  0  0  0  0  0  0  0  0
  140.1040   69.5450  228.2880 C   0  0  0  0  0  0  0  0  0  0  0  0
  140.3090   70.7390  227.6220 C   0  0  0  0  0  0  0  0  0  0  0  0
  140.2380   70.7640  226.2830 N   0  0  0  0  0  0  0  0  0  0  0  0
  140.7020   76.0710  221.3610 C   0  0  0  0  0  0  0  0  0  0  0  0
  141.6230   76.5810  220.4690 C   0  0  0  0  0  0  0  0  0  0  0  0
  142.0860   77.8680  220.5910 C   0  0  0  0  0  0  0  0  0  0  0  0
  141.6510   78.6890  221.5970 C   0  0  0  0  0  0  0  0  0  0  0  0
  142.1110   79.9680  221.7170 C   0  0  0  0  0  0  0  0  0  0  0  0
  141.6580   80.7690  222.7350 C   0  0  0  0  0  0  0  0  0  0  0  0
  142.1240   82.0340  222.8400 F   0  0  0  0  0  0  0  0  0  0  0  0
  140.7450   80.2550  223.6130 C   0  0  0  0  0  0  0  0  0  0  0  0
  140.2550   78.9510  223.5190 C   0  0  0  0  0  0  0  0  0  0  0  0
  140.7170   78.1530  222.4910 C   0  0  0  0  0  0  0  0  0  0  0  0
  140.2810   76.8860  222.3460 N   0  0  0  0  0  0  0  0  0  0  0  0
  138.8630   74.7910  222.9060 H   0  0  0  0  0  0  0  0  0  0  0  0
  137.7974   72.7049  222.3016 H   0  0  0  0  0  0  0  0  0  0  0  0
  138.8498   72.6047  220.8413 H   0  0  0  0  0  0  0  0  0  0  0  0
  137.9922   71.5662  225.2533 H   0  0  0  0  0  0  0  0  0  0  0  0
  137.2997   72.0029  223.6864 H   0  0  0  0  0  0  0  0  0  0  0  0
  137.2611   69.3974  225.1548 H   0  0  0  0  0  0  0  0  0  0  0  0
  136.1228   70.0418  223.9011 H   0  0  0  0  0  0  0  0  0  0  0  0
  137.1917   68.0505  223.0746 H   0  0  0  0  0  0  0  0  0  0  0  0
  137.7910   69.5148  222.1767 H   0  0  0  0  0  0  0  0  0  0  0  0
  139.2183   67.7969  224.1978 H   0  0  0  0  0  0  0  0  0  0  0  0
  139.7186   68.2734  222.5425 H   0  0  0  0  0  0  0  0  0  0  0  0
  140.9541   69.9208  223.6614 H   0  0  0  0  0  0  0  0  0  0  0  0
  139.5517   67.5887  225.5312 H   0  0  0  0  0  0  0  0  0  0  0  0
  139.6609   67.4482  228.0165 H   0  0  0  0  0  0  0  0  0  0  0  0
  140.1550   69.4886  229.3854 H   0  0  0  0  0  0  0  0  0  0  0  0
  140.5280   71.6587  228.1843 H   0  0  0  0  0  0  0  0  0  0  0  0
  141.9915   75.9477  219.6486 H   0  0  0  0  0  0  0  0  0  0  0  0
  142.8212   78.2472  219.8660 H   0  0  0  0  0  0  0  0  0  0  0  0
  142.8457   80.3574  220.9969 H   0  0  0  0  0  0  0  0  0  0  0  0
  140.3806   80.8965  224.4289 H   0  0  0  0  0  0  0  0  0  0  0  0
  139.5209   78.5697  224.2441 H   0  0  0  0  0  0  0  0  0  0  0  0
  1  2  2  0
  2  3  1  0
  3  4  1  0
  4  5  1  0
  5  6  2  0
  5  7  1  0
  7  8  1  0
  8  9  1  0
  9 10  1  0
 10 11  1  0
 11 12  1  0
 12 13  1  0
 13 14  2  0
 14 15  1  0
 15 16  2  0
 16 17  1  0
 17 18  2  0
  2 19  1  0
 19 20  2  0
 20 21  1  0
 21 22  2  0
 22 23  1  0
 23 24  2  0
 24 25  1  0
 24 26  1  0
 26 27  2  0
 27 28  1  0
 28 29  2  0
 12  7  1  0
 18 13  1  0
 29 19  1  0
 28 22  1  0
  3 30  1  0
  4 31  1  0
  4 32  1  0
  8 33  1  0
  8 34  1  0
  9 35  1  0
  9 36  1  0
 10 37  1  0
 10 38  1  0
 11 39  1  0
 11 40  1  0
 12 41  1  6
 14 42  1  0
 15 43  1  0
 16 44  1  0
 17 45  1  0
 20 46  1  0
 21 47  1  0
 23 48  1  0
 26 49  1  0
 27 50  1  0
M  END
>  <smiles>  (39) 
O=C(NCC(=O)N1CCCCC1c1ccccn1)c1ccc2cc(F)ccc2n1

>  <score_type>  (39) 
oracle

>  <origin>  (39) 
autodockgpu

>  <m_score__min__energy>  (39) 
-8.7100000000000009

>  <m_primary>  (39) 
energy

>  <rmsd>  (39) 
9.583751622063428

>  <m_score__min__rmsd>  (39) 
9.583751622063428

>  <meeko>  (39) 
{"free_energy": -7.84, "intermolecular_energy": -9.33, "internal_energy": -1.6, "cluster_size": 6, "cluster_id": 3, "rank_in_cluster": 6}

>  <energy>  (39) 
-8.1

>  <cluster_rmsd>  (39) 
0.37

>  <cluster>  (39) 
2

$$$$

     RDKit          3D

 50 53  0  0  0  0  0  0  0  0999 V2000
  141.2480   72.2950  221.6100 O   0  0  0  0  0  0  0  0  0  0  0  0
  140.3170   72.4750  222.4580 C   0  0  0  0  0  0  0  0  0  0  0  0
  139.3710   73.5440  222.3150 N   0  0  0  0  0  0  0  0  0  0  0  0
  139.5460   74.3960  221.1530 C   0  0  0  0  0  0  0  0  0  0  0  0
  140.6360   75.3850  221.3950 C   0  0  0  0  0  0  0  0  0  0  0  0
  141.8440   75.0200  221.5700 O   0  0  0  0  0  0  0  0  0  0  0  0
  140.3040   76.7620  221.4270 N   0  0  0  0  0  0  0  0  0  0  0  0
  140.3740   77.6260  220.2630 C   0  0  0  0  0  0  0  0  0  0  0  0
  139.0740   78.4190  220.2650 C   0  0  0  0  0  0  0  0  0  0  0  0
  138.0160   77.7420  221.0900 C   0  0  0  0  0  0  0  0  0  0  0  0
  138.3760   77.6790  222.5440 C   0  0  0  0  0  0  0  0  0  0  0  0
  139.8650   77.3730  222.6790 C   0  0  2  0  0  0  0  0  0  0  0  0
  140.5860   78.6400  222.9720 C   0  0  0  0  0  0  0  0  0  0  0  0
  141.9490   78.6530  223.1930 C   0  0  0  0  0  0  0  0  0  0  0  0
  142.5830   79.8650  223.4660 C   0  0  0  0  0  0  0  0  0  0  0  0
  141.8630   81.0590  223.5170 C   0  0  0  0  0  0  0  0  0  0  0  0
  140.5010   80.9960  223.2890 C   0  0  0  0  0  0  0  0  0  0  0  0
  139.9330   79.8090  223.0310 N   0  0  0  0  0  0  0  0  0  0  0  0
  140.1950   71.5810  223.6060 C   0  0  0  0  0  0  0  0  0  0  0  0
  139.5500   70.3690  223.4610 C   0  0  0  0  0  0  0  0  0  0  0  0
  139.4220   69.5080  224.5240 C   0  0  0  0  0  0  0  0  0  0  0  0
  139.9270   69.8180  225.7580 C   0  0  0  0  0  0  0  0  0  0  0  0
  139.7990   68.9620  226.8120 C   0  0  0  0  0  0  0  0  0  0  0  0
  140.3140   69.2990  228.0380 C   0  0  0  0  0  0  0  0  0  0  0  0
  140.1780   68.4390  229.0730 F   0  0  0  0  0  0  0  0  0  0  0  0
  140.9520   70.5010  228.1700 C   0  0  0  0  0  0  0  0  0  0  0  0
  141.1000   71.4000  227.1130 C   0  0  0  0  0  0  0  0  0  0  0  0
  140.5770   71.0510  225.8820 C   0  0  0  0  0  0  0  0  0  0  0  0
  140.6880   71.8760  224.8220 N   0  0  0  0  0  0  0  0  0  0  0  0
  138.5970   73.7010  223.0090 H   0  0  0  0  0  0  0  0  0  0  0  0
  139.8064   73.7746  220.2835 H   0  0  0  0  0  0  0  0  0  0  0  0
  138.6078   74.9375  220.9621 H   0  0  0  0  0  0  0  0  0  0  0  0
  141.2374   78.3033  220.3386 H   0  0  0  0  0  0  0  0  0  0  0  0
  140.4986   77.0497  219.3344 H   0  0  0  0  0  0  0  0  0  0  0  0
  139.2661   79.4189  220.6812 H   0  0  0  0  0  0  0  0  0  0  0  0
  138.7111   78.4886  219.2289 H   0  0  0  0  0  0  0  0  0  0  0  0
  137.0743   78.3004  220.9834 H   0  0  0  0  0  0  0  0  0  0  0  0
  137.9167   76.7092  220.7248 H   0  0  0  0  0  0  0  0  0  0  0  0
  138.1543   78.6455  223.0202 H   0  0  0  0  0  0  0  0  0  0  0  0
  137.7900   76.8888  223.0361 H   0  0  0  0  0  0  0  0  0  0  0  0
  140.0744   76.6749  223.5029 H   0  0  0  0  0  0  0  0  0  0  0  0
  142.5280   77.7185  223.1542 H   0  0  0  0  0  0  0  0  0  0  0  0
  143.6684   79.8797  223.6440 H   0  0  0  0  0  0  0  0  0  0  0  0
  142.3612   82.0161  223.7309 H   0  0  0  0  0  0  0  0  0  0  0  0
  139.8896   81.9100  223.3189 H   0  0  0  0  0  0  0  0  0  0  0  0
  139.1334   70.0892  222.4822 H   0  0  0  0  0  0  0  0  0  0  0  0
  138.9026   68.5490  224.3804 H   0  0  0  0  0  0  0  0  0  0  0  0
  139.2821   68.0002  226.6789 H   0  0  0  0  0  0  0  0  0  0  0  0
  141.3668   70.7712  229.1523 H   0  0  0  0  0  0  0  0  0  0  0  0
  141.6184   72.3597  227.2555 H   0  0  0  0  0  0  0  0  0  0  0  0
  1  2  2  0
  2  3  1  0
  3  4  1  0
  4  5  1  0
  5  6  2  0
  5  7  1  0
  7  8  1  0
  8  9  1  0
  9 10  1  0
 10 11  1  0
 11 12  1  0
 12 13  1  0
 13 14  2  0
 14 15  1  0
 15 16  2  0
 16 17  1  0
 17 18  2  0
  2 19  1  0
 19 20  2  0
 20 21  1  0
 21 22  2  0
 22 23  1  0
 23 24  2  0
 24 25  1  0
 24 26  1  0
 26 27  2  0
 27 28  1  0
 28 29  2  0
 12  7  1  0
 18 13  1  0
 29 19  1  0
 28 22  1  0
  3 30  1  0
  4 31  1  0
  4 32  1  0
  8 33  1  0
  8 34  1  0
  9 35  1  0
  9 36  1  0
 10 37  1  0
 10 38  1  0
 11 39  1  0
 11 40  1  0
 12 41  1  1
 14 42  1  0
 15 43  1  0
 16 44  1  0
 17 45  1  0
 20 46  1  0
 21 47  1  0
 23 48  1  0
 26 49  1  0
 27 50  1  0
M  END
>  <smiles>  (40) 
O=C(NCC(=O)N1CCCCC1c1ccccn1)c1ccc2cc(F)ccc2n1

>  <score_type>  (40) 
oracle

>  <origin>  (40) 
autodockgpu

>  <m_score__min__energy>  (40) 
-8.7100000000000009

>  <m_primary>  (40) 
energy

>  <rmsd>  (40) 
2.9956751438238167

>  <m_score__min__rmsd>  (40) 
2.9956751438238167

>  <meeko>  (40) 
{"free_energy": -8.67, "intermolecular_energy": -10.17, "internal_energy": -1.41, "cluster_size": 37, "cluster_id": 1, "rank_in_cluster": 5}

>  <energy>  (40) 
-7.71

>  <cluster_rmsd>  (40) 
0.71

>  <cluster>  (40) 
2

$$$$

     RDKit          3D

 50 53  0  0  0  0  0  0  0  0999 V2000
  141.2530   72.6690  221.9260 O   0  0  0  0  0  0  0  0  0  0  0  0
  140.1950   72.5680  222.6250 C   0  0  0  0  0  0  0  0  0  0  0  0
  139.0390   73.3730  222.3510 N   0  0  0  0  0  0  0  0  0  0  0  0
  139.1580   74.2980  221.2390 C   0  0  0  0  0  0  0  0  0  0  0  0
  139.0710   75.7060  221.7240 C   0  0  0  0  0  0  0  0  0  0  0  0
  138.0760   76.1190  222.4020 O   0  0  0  0  0  0  0  0  0  0  0  0
  140.1310   76.5930  221.4140 N   0  0  0  0  0  0  0  0  0  0  0  0
  141.4910   76.1520  221.1630 C   0  0  0  0  0  0  0  0  0  0  0  0
  141.9390   76.9010  219.9140 C   0  0  0  0  0  0  0  0  0  0  0  0
  140.7640   77.4030  219.1230 C   0  0  0  0  0  0  0  0  0  0  0  0
  139.9690   78.4330  219.8670 C   0  0  0  0  0  0  0  0  0  0  0  0
  139.8760   78.0290  221.3370 C   0  0  2  0  0  0  0  0  0  0  0  0
  140.8670   78.8220  222.1120 C   0  0  0  0  0  0  0  0  0  0  0  0
  141.0440   78.6200  223.4660 C   0  0  0  0  0  0  0  0  0  0  0  0
  141.9840   79.3870  224.1520 C   0  0  0  0  0  0  0  0  0  0  0  0
  142.7460   80.3520  223.4920 C   0  0  0  0  0  0  0  0  0  0  0  0
  142.5330   80.5190  222.1360 C   0  0  0  0  0  0  0  0  0  0  0  0
  141.6190   79.7590  221.5170 N   0  0  0  0  0  0  0  0  0  0  0  0
  140.1410   71.6170  223.7310 C   0  0  0  0  0  0  0  0  0  0  0  0
  139.5730   70.3740  223.5340 C   0  0  0  0  0  0  0  0  0  0  0  0
  139.5090   69.4590  224.5570 C   0  0  0  0  0  0  0  0  0  0  0  0
  140.0040   69.7440  225.8010 C   0  0  0  0  0  0  0  0  0  0  0  0
  139.9400   68.8340  226.8160 C   0  0  0  0  0  0  0  0  0  0  0  0
  140.4430   69.1480  228.0530 C   0  0  0  0  0  0  0  0  0  0  0  0
  140.3710   68.2350  229.0480 F   0  0  0  0  0  0  0  0  0  0  0  0
  141.0040   70.3810  228.2360 C   0  0  0  0  0  0  0  0  0  0  0  0
  141.0850   71.3350  227.2210 C   0  0  0  0  0  0  0  0  0  0  0  0
  140.5750   71.0100  225.9790 C   0  0  0  0  0  0  0  0  0  0  0  0
  140.6240   71.8870  224.9570 N   0  0  0  0  0  0  0  0  0  0  0  0
  138.1600   73.2980  222.9220 H   0  0  0  0  0  0  0  0  0  0  0  0
  140.1273   74.1448  220.7419 H   0  0  0  0  0  0  0  0  0  0  0  0
  138.3372   74.1127  220.5305 H   0  0  0  0  0  0  0  0  0  0  0  0
  142.1398   76.4031  222.0151 H   0  0  0  0  0  0  0  0  0  0  0  0
  141.5475   75.0619  221.0269 H   0  0  0  0  0  0  0  0  0  0  0  0
  142.5602   77.7577  220.2143 H   0  0  0  0  0  0  0  0  0  0  0  0
  142.5105   76.2064  219.2808 H   0  0  0  0  0  0  0  0  0  0  0  0
  141.1332   77.8499  218.1881 H   0  0  0  0  0  0  0  0  0  0  0  0
  140.1019   76.5465  218.9280 H   0  0  0  0  0  0  0  0  0  0  0  0
  140.4655   79.4111  219.7848 H   0  0  0  0  0  0  0  0  0  0  0  0
  138.9586   78.5016  219.4376 H   0  0  0  0  0  0  0  0  0  0  0  0
  138.8833   78.2331  221.7647 H   0  0  0  0  0  0  0  0  0  0  0  0
  140.4498   77.8622  223.9976 H   0  0  0  0  0  0  0  0  0  0  0  0
  142.1276   79.2292  225.2311 H   0  0  0  0  0  0  0  0  0  0  0  0
  143.4892   80.9579  224.0310 H   0  0  0  0  0  0  0  0  0  0  0  0
  143.1077   81.2678  221.5712 H   0  0  0  0  0  0  0  0  0  0  0  0
  139.1666   70.1130  222.5457 H   0  0  0  0  0  0  0  0  0  0  0  0
  139.0502   68.4764  224.3724 H   0  0  0  0  0  0  0  0  0  0  0  0
  139.4847   67.8479  226.6420 H   0  0  0  0  0  0  0  0  0  0  0  0
  141.4095   70.6322  229.2272 H   0  0  0  0  0  0  0  0  0  0  0  0
  141.5422   72.3185  227.4047 H   0  0  0  0  0  0  0  0  0  0  0  0
  1  2  2  0
  2  3  1  0
  3  4  1  0
  4  5  1  0
  5  6  2  0
  5  7  1  0
  7  8  1  0
  8  9  1  0
  9 10  1  0
 10 11  1  0
 11 12  1  0
 12 13  1  0
 13 14  2  0
 14 15  1  0
 15 16  2  0
 16 17  1  0
 17 18  2  0
  2 19  1  0
 19 20  2  0
 20 21  1  0
 21 22  2  0
 22 23  1  0
 23 24  2  0
 24 25  1  0
 24 26  1  0
 26 27  2  0
 27 28  1  0
 28 29  2  0
 12  7  1  0
 18 13  1  0
 29 19  1  0
 28 22  1  0
  3 30  1  0
  4 31  1  0
  4 32  1  0
  8 33  1  0
  8 34  1  0
  9 35  1  0
  9 36  1  0
 10 37  1  0
 10 38  1  0
 11 39  1  0
 11 40  1  0
 12 41  1  1
 14 42  1  0
 15 43  1  0
 16 44  1  0
 17 45  1  0
 20 46  1  0
 21 47  1  0
 23 48  1  0
 26 49  1  0
 27 50  1  0
M  END
>  <smiles>  (41) 
O=C(NCC(=O)N1CCCCC1c1ccccn1)c1ccc2cc(F)ccc2n1

>  <score_type>  (41) 
oracle

>  <origin>  (41) 
autodockgpu

>  <m_score__min__energy>  (41) 
-8.7100000000000009

>  <m_primary>  (41) 
energy

>  <rmsd>  (41) 
2.7119901722011113

>  <m_score__min__rmsd>  (41) 
2.7119901722011113

>  <meeko>  (41) 
{"free_energy": -8.6, "intermolecular_energy": -10.09, "internal_energy": -1.52, "cluster_size": 37, "cluster_id": 1, "rank_in_cluster": 14}

>  <energy>  (41) 
-7.61

>  <cluster_rmsd>  (41) 
0.81

>  <cluster>  (41) 
2

$$$$

     RDKit          3D

 50 53  0  0  0  0  0  0  0  0999 V2000
  141.1220   71.8980  221.6190 O   0  0  0  0  0  0  0  0  0  0  0  0
  140.2070   72.0700  222.4870 C   0  0  0  0  0  0  0  0  0  0  0  0
  139.2170   73.0970  222.3350 N   0  0  0  0  0  0  0  0  0  0  0  0
  139.3290   73.9160  221.1410 C   0  0  0  0  0  0  0  0  0  0  0  0
  140.5610   74.7550  221.2020 C   0  0  0  0  0  0  0  0  0  0  0  0
  140.7060   75.6670  222.0790 O   0  0  0  0  0  0  0  0  0  0  0  0
  141.5860   74.5190  220.2530 N   0  0  0  0  0  0  0  0  0  0  0  0
  141.3430   73.9350  218.9460 C   0  0  0  0  0  0  0  0  0  0  0  0
  142.1180   74.8020  217.9620 C   0  0  0  0  0  0  0  0  0  0  0  0
  142.4250   76.1540  218.5410 C   0  0  0  0  0  0  0  0  0  0  0  0
  143.3450   76.0780  219.7220 C   0  0  0  0  0  0  0  0  0  0  0  0
  142.9670   74.8690  220.5750 C   0  0  2  0  0  0  0  0  0  0  0  0
  143.9140   73.7620  220.2780 C   0  0  0  0  0  0  0  0  0  0  0  0
  145.2730   73.9890  220.1840 C   0  0  0  0  0  0  0  0  0  0  0  0
  146.1240   72.9210  219.9040 C   0  0  0  0  0  0  0  0  0  0  0  0
  145.6240   71.6310  219.7190 C   0  0  0  0  0  0  0  0  0  0  0  0
  144.2570   71.4530  219.8220 C   0  0  0  0  0  0  0  0  0  0  0  0
  143.4760   72.5090  220.0930 N   0  0  0  0  0  0  0  0  0  0  0  0
  140.1510   71.2110  223.6650 C   0  0  0  0  0  0  0  0  0  0  0  0
  139.5790   69.9580  223.5700 C   0  0  0  0  0  0  0  0  0  0  0  0
  139.5130   69.1280  224.6620 C   0  0  0  0  0  0  0  0  0  0  0  0
  140.0100   69.5110  225.8800 C   0  0  0  0  0  0  0  0  0  0  0  0
  139.9430   68.6860  226.9640 C   0  0  0  0  0  0  0  0  0  0  0  0
  140.4490   69.0960  228.1710 C   0  0  0  0  0  0  0  0  0  0  0  0
  140.3750   68.2660  229.2370 F   0  0  0  0  0  0  0  0  0  0  0  0
  141.0140   70.3380  228.2550 C   0  0  0  0  0  0  0  0  0  0  0  0
  141.0970   71.2070  227.1660 C   0  0  0  0  0  0  0  0  0  0  0  0
  140.5850   70.7840  225.9540 C   0  0  0  0  0  0  0  0  0  0  0  0
  140.6360   71.5770  224.8660 N   0  0  0  0  0  0  0  0  0  0  0  0
  138.4570   73.2480  223.0450 H   0  0  0  0  0  0  0  0  0  0  0  0
  139.3778   73.2635  220.2568 H   0  0  0  0  0  0  0  0  0  0  0  0
  138.4505   74.5748  221.0754 H   0  0  0  0  0  0  0  0  0  0  0  0
  141.7079   72.8978  218.9146 H   0  0  0  0  0  0  0  0  0  0  0  0
  140.2700   73.9047  218.7058 H   0  0  0  0  0  0  0  0  0  0  0  0
  143.0629   74.2986  217.7096 H   0  0  0  0  0  0  0  0  0  0  0  0
  141.4975   74.9441  217.0649 H   0  0  0  0  0  0  0  0  0  0  0  0
  142.8993   76.7711  217.7637 H   0  0  0  0  0  0  0  0  0  0  0  0
  141.4768   76.5935  218.8841 H   0  0  0  0  0  0  0  0  0  0  0  0
  144.3831   75.9726  219.3737 H   0  0  0  0  0  0  0  0  0  0  0  0
  143.2546   76.9961  220.3210 H   0  0  0  0  0  0  0  0  0  0  0  0
  143.0342   75.0809  221.6523 H   0  0  0  0  0  0  0  0  0  0  0  0
  145.6793   75.0010  220.3284 H   0  0  0  0  0  0  0  0  0  0  0  0
  147.2070   73.0977  219.8276 H   0  0  0  0  0  0  0  0  0  0  0  0
  146.2936   70.7864  219.4991 H   0  0  0  0  0  0  0  0  0  0  0  0
  143.8144   70.4556  219.6831 H   0  0  0  0  0  0  0  0  0  0  0  0
  139.1705   69.6199  222.6063 H   0  0  0  0  0  0  0  0  0  0  0  0
  139.0516   68.1350  224.5567 H   0  0  0  0  0  0  0  0  0  0  0  0
  139.4829   67.6913  226.8702 H   0  0  0  0  0  0  0  0  0  0  0  0
  141.4208   70.6667  229.2227 H   0  0  0  0  0  0  0  0  0  0  0  0
  141.5571   72.2008  227.2695 H   0  0  0  0  0  0  0  0  0  0  0  0
  1  2  2  0
  2  3  1  0
  3  4  1  0
  4  5  1  0
  5  6  2  0
  5  7  1  0
  7  8  1  0
  8  9  1  0
  9 10  1  0
 10 11  1  0
 11 12  1  0
 12 13  1  0
 13 14  2  0
 14 15  1  0
 15 16  2  0
 16 17  1  0
 17 18  2  0
  2 19  1  0
 19 20  2  0
 20 21  1  0
 21 22  2  0
 22 23  1  0
 23 24  2  0
 24 25  1  0
 24 26  1  0
 26 27  2  0
 27 28  1  0
 28 29  2  0
 12  7  1  0
 18 13  1  0
 29 19  1  0
 28 22  1  0
  3 30  1  0
  4 31  1  0
  4 32  1  0
  8 33  1  0
  8 34  1  0
  9 35  1  0
  9 36  1  0
 10 37  1  0
 10 38  1  0
 11 39  1  0
 11 40  1  0
 12 41  1  1
 14 42  1  0
 15 43  1  0
 16 44  1  0
 17 45  1  0
 20 46  1  0
 21 47  1  0
 23 48  1  0
 26 49  1  0
 27 50  1  0
M  END
>  <smiles>  (42) 
O=C(NCC(=O)N1CCCCC1c1ccccn1)c1ccc2cc(F)ccc2n1

>  <score_type>  (42) 
oracle

>  <origin>  (42) 
autodockgpu

>  <m_score__min__energy>  (42) 
-8.7100000000000009

>  <m_primary>  (42) 
energy

>  <rmsd>  (42) 
4.293601933606791

>  <m_score__min__rmsd>  (42) 
4.293601933606791

>  <meeko>  (42) 
{"free_energy": -8.1, "intermolecular_energy": -9.59, "internal_energy": -1.61, "cluster_size": 7, "cluster_id": 2, "rank_in_cluster": 2}

>  <energy>  (42) 
-7.56

>  <cluster_rmsd>  (42) 
0.96

>  <cluster>  (42) 
2

$$$$

     RDKit          3D

 50 53  0  0  0  0  0  0  0  0999 V2000
  140.5200   71.7930  221.1320 O   0  0  0  0  0  0  0  0  0  0  0  0
  140.1760   72.3100  222.2420 C   0  0  0  0  0  0  0  0  0  0  0  0
  139.8350   73.7000  222.3460 N   0  0  0  0  0  0  0  0  0  0  0  0
  139.9090   74.4650  221.1150 C   0  0  0  0  0  0  0  0  0  0  0  0
  140.9510   75.5270  221.2260 C   0  0  0  0  0  0  0  0  0  0  0  0
  142.1940   75.2490  221.1950 O   0  0  0  0  0  0  0  0  0  0  0  0
  140.5330   76.8730  221.3690 N   0  0  0  0  0  0  0  0  0  0  0  0
  140.4520   77.8040  220.2580 C   0  0  0  0  0  0  0  0  0  0  0  0
  139.1070   78.5020  220.4080 C   0  0  0  0  0  0  0  0  0  0  0  0
  138.1660   77.7070  221.2690 C   0  0  0  0  0  0  0  0  0  0  0  0
  138.6450   77.5880  222.6840 C   0  0  0  0  0  0  0  0  0  0  0  0
  140.1580   77.3800  222.6850 C   0  0  2  0  0  0  0  0  0  0  0  0
  140.8150   78.6750  223.0000 C   0  0  0  0  0  0  0  0  0  0  0  0
  142.1870   78.7720  223.1230 C   0  0  0  0  0  0  0  0  0  0  0  0
  142.7600   80.0070  223.4200 C   0  0  0  0  0  0  0  0  0  0  0  0
  141.9700   81.1440  223.5930 C   0  0  0  0  0  0  0  0  0  0  0  0
  140.6010   80.9990  223.4610 C   0  0  0  0  0  0  0  0  0  0  0  0
  140.0940   79.7920  223.1760 N   0  0  0  0  0  0  0  0  0  0  0  0
  140.1220   71.4840  223.4440 C   0  0  0  0  0  0  0  0  0  0  0  0
  139.5680   70.2210  223.3800 C   0  0  0  0  0  0  0  0  0  0  0  0
  139.5040   69.4220  224.4950 C   0  0  0  0  0  0  0  0  0  0  0  0
  139.9860   69.8460  225.7050 C   0  0  0  0  0  0  0  0  0  0  0  0
  139.9210   69.0500  226.8110 C   0  0  0  0  0  0  0  0  0  0  0  0
  140.4110   69.5010  228.0110 C   0  0  0  0  0  0  0  0  0  0  0  0
  140.3390   68.7010  229.0990 F   0  0  0  0  0  0  0  0  0  0  0  0
  140.9580   70.7530  228.0640 C   0  0  0  0  0  0  0  0  0  0  0  0
  141.0390   71.5920  226.9510 C   0  0  0  0  0  0  0  0  0  0  0  0
  140.5420   71.1280  225.7480 C   0  0  0  0  0  0  0  0  0  0  0  0
  140.5920   71.8910  224.6380 N   0  0  0  0  0  0  0  0  0  0  0  0
  139.5490   74.1380  223.2580 H   0  0  0  0  0  0  0  0  0  0  0  0
  140.1650   73.7912  220.2841 H   0  0  0  0  0  0  0  0  0  0  0  0
  138.9339   74.9391  220.9297 H   0  0  0  0  0  0  0  0  0  0  0  0
  141.2722   78.5352  220.3088 H   0  0  0  0  0  0  0  0  0  0  0  0
  140.5392   77.2909  219.2889 H   0  0  0  0  0  0  0  0  0  0  0  0
  139.2657   79.4883  220.8685 H   0  0  0  0  0  0  0  0  0  0  0  0
  138.6579   78.6035  219.4090 H   0  0  0  0  0  0  0  0  0  0  0  0
  137.1841   78.2028  221.2694 H   0  0  0  0  0  0  0  0  0  0  0  0
  138.1062   76.6918  220.8498 H   0  0  0  0  0  0  0  0  0  0  0  0
  138.3996   78.5083  223.2343 H   0  0  0  0  0  0  0  0  0  0  0  0
  138.1536   76.7324  223.1703 H   0  0  0  0  0  0  0  0  0  0  0  0
  140.4791   76.6528  223.4454 H   0  0  0  0  0  0  0  0  0  0  0  0
  142.8211   77.8834  222.9879 H   0  0  0  0  0  0  0  0  0  0  0  0
  143.8526   80.0868  223.5196 H   0  0  0  0  0  0  0  0  0  0  0  0
  142.4198   82.1204  223.8260 H   0  0  0  0  0  0  0  0  0  0  0  0
  139.9354   81.8654  223.5886 H   0  0  0  0  0  0  0  0  0  0  0  0
  139.1726   69.8498  222.4230 H   0  0  0  0  0  0  0  0  0  0  0  0
  139.0563   68.4204  224.4148 H   0  0  0  0  0  0  0  0  0  0  0  0
  139.4758   68.0466  226.7410 H   0  0  0  0  0  0  0  0  0  0  0  0
  141.3513   71.1150  229.0254 H   0  0  0  0  0  0  0  0  0  0  0  0
  141.4858   72.5941  227.0295 H   0  0  0  0  0  0  0  0  0  0  0  0
  1  2  2  0
  2  3  1  0
  3  4  1  0
  4  5  1  0
  5  6  2  0
  5  7  1  0
  7  8  1  0
  8  9  1  0
  9 10  1  0
 10 11  1  0
 11 12  1  0
 12 13  1  0
 13 14  2  0
 14 15  1  0
 15 16  2  0
 16 17  1  0
 17 18  2  0
  2 19  1  0
 19 20  2  0
 20 21  1  0
 21 22  2  0
 22 23  1  0
 23 24  2  0
 24 25  1  0
 24 26  1  0
 26 27  2  0
 27 28  1  0
 28 29  2  0
 12  7  1  0
 18 13  1  0
 29 19  1  0
 28 22  1  0
  3 30  1  0
  4 31  1  0
  4 32  1  0
  8 33  1  0
  8 34  1  0
  9 35  1  0
  9 36  1  0
 10 37  1  0
 10 38  1  0
 11 39  1  0
 11 40  1  0
 12 41  1  1
 14 42  1  0
 15 43  1  0
 16 44  1  0
 17 45  1  0
 20 46  1  0
 21 47  1  0
 23 48  1  0
 26 49  1  0
 27 50  1  0
M  END
>  <smiles>  (43) 
O=C(NCC(=O)N1CCCCC1c1ccccn1)c1ccc2cc(F)ccc2n1

>  <score_type>  (43) 
oracle

>  <origin>  (43) 
autodockgpu

>  <m_score__min__energy>  (43) 
-8.7100000000000009

>  <m_primary>  (43) 
energy

>  <rmsd>  (43) 
3.0141759681634865

>  <m_score__min__rmsd>  (43) 
3.0141759681634865

>  <meeko>  (43) 
{"free_energy": -8.51, "intermolecular_energy": -10.0, "internal_energy": -1.5, "cluster_size": 37, "cluster_id": 1, "rank_in_cluster": 26}

>  <energy>  (43) 
-7.55

>  <cluster_rmsd>  (43) 
1.0

>  <cluster>  (43) 
2

$$$$

     RDKit          3D

 50 53  0  0  0  0  0  0  0  0999 V2000
  141.1190   72.8920  222.1180 O   0  0  0  0  0  0  0  0  0  0  0  0
  140.0360   72.6020  222.7190 C   0  0  0  0  0  0  0  0  0  0  0  0
  138.7920   73.2150  222.3540 N   0  0  0  0  0  0  0  0  0  0  0  0
  138.8520   74.1760  221.2670 C   0  0  0  0  0  0  0  0  0  0  0  0
  138.9280   75.5650  221.8070 C   0  0  0  0  0  0  0  0  0  0  0  0
  137.9940   76.0570  222.5210 O   0  0  0  0  0  0  0  0  0  0  0  0
  140.0740   76.3440  221.5110 N   0  0  0  0  0  0  0  0  0  0  0  0
  141.4170   75.7970  221.4640 C   0  0  0  0  0  0  0  0  0  0  0  0
  142.0400   76.3540  220.1900 C   0  0  0  0  0  0  0  0  0  0  0  0
  140.9890   76.8190  219.2210 C   0  0  0  0  0  0  0  0  0  0  0  0
  140.1980   77.9790  219.7460 C   0  0  0  0  0  0  0  0  0  0  0  0
  139.9300   77.7700  221.2340 C   0  0  2  0  0  0  0  0  0  0  0  0
  140.8900   78.5960  222.0110 C   0  0  0  0  0  0  0  0  0  0  0  0
  141.6690   79.5570  221.3970 C   0  0  0  0  0  0  0  0  0  0  0  0
  142.5560   80.3090  222.1660 C   0  0  0  0  0  0  0  0  0  0  0  0
  142.6680   80.1050  223.5420 C   0  0  0  0  0  0  0  0  0  0  0  0
  141.8680   79.1320  224.1120 C   0  0  0  0  0  0  0  0  0  0  0  0
  141.0290   78.4330  223.3350 N   0  0  0  0  0  0  0  0  0  0  0  0
  140.0440   71.6260  223.8040 C   0  0  0  0  0  0  0  0  0  0  0  0
  139.5230   70.3650  223.5920 C   0  0  0  0  0  0  0  0  0  0  0  0
  139.5180   69.4270  224.5950 C   0  0  0  0  0  0  0  0  0  0  0  0
  140.0280   69.7050  225.8350 C   0  0  0  0  0  0  0  0  0  0  0  0
  140.0230   68.7710  226.8290 C   0  0  0  0  0  0  0  0  0  0  0  0
  140.5400   69.0780  228.0620 C   0  0  0  0  0  0  0  0  0  0  0  0
  140.5270   68.1410  229.0380 F   0  0  0  0  0  0  0  0  0  0  0  0
  141.0550   70.3280  228.2620 C   0  0  0  0  0  0  0  0  0  0  0  0
  141.0760   71.3070  227.2660 C   0  0  0  0  0  0  0  0  0  0  0  0
  140.5520   70.9880  226.0280 C   0  0  0  0  0  0  0  0  0  0  0  0
  140.5430   71.8890  225.0260 N   0  0  0  0  0  0  0  0  0  0  0  0
  137.8910   72.9830  222.8430 H   0  0  0  0  0  0  0  0  0  0  0  0
  139.7434   73.9756  220.6543 H   0  0  0  0  0  0  0  0  0  0  0  0
  137.9438   74.0798  220.6539 H   0  0  0  0  0  0  0  0  0  0  0  0
  141.9931   76.1164  222.3450 H   0  0  0  0  0  0  0  0  0  0  0  0
  141.4096   74.6970  221.4671 H   0  0  0  0  0  0  0  0  0  0  0  0
  142.6872   77.2044  220.4507 H   0  0  0  0  0  0  0  0  0  0  0  0
  142.6211   75.5524  219.7107 H   0  0  0  0  0  0  0  0  0  0  0  0
  141.4812   77.1222  218.2852 H   0  0  0  0  0  0  0  0  0  0  0  0
  140.2911   75.9844  219.0585 H   0  0  0  0  0  0  0  0  0  0  0  0
  140.7680   78.9087  219.6017 H   0  0  0  0  0  0  0  0  0  0  0  0
  139.2432   78.0510  219.2046 H   0  0  0  0  0  0  0  0  0  0  0  0
  138.9158   78.0830  221.5229 H   0  0  0  0  0  0  0  0  0  0  0  0
  141.5905   79.7272  220.3131 H   0  0  0  0  0  0  0  0  0  0  0  0
  143.1777   81.0756  221.6803 H   0  0  0  0  0  0  0  0  0  0  0  0
  143.3673   80.6968  224.1509 H   0  0  0  0  0  0  0  0  0  0  0  0
  141.9196   78.9335  225.1927 H   0  0  0  0  0  0  0  0  0  0  0  0
  139.1065   70.1084  222.6068 H   0  0  0  0  0  0  0  0  0  0  0  0
  139.0952   68.4308  224.3980 H   0  0  0  0  0  0  0  0  0  0  0  0
  139.6042   67.7712  226.6418 H   0  0  0  0  0  0  0  0  0  0  0  0
  141.4710   70.5738  229.2502 H   0  0  0  0  0  0  0  0  0  0  0  0
  141.4978   72.3039  227.4617 H   0  0  0  0  0  0  0  0  0  0  0  0
  1  2  2  0
  2  3  1  0
  3  4  1  0
  4  5  1  0
  5  6  2  0
  5  7  1  0
  7  8  1  0
  8  9  1  0
  9 10  1  0
 10 11  1  0
 11 12  1  0
 12 13  1  0
 13 14  2  0
 14 15  1  0
 15 16  2  0
 16 17  1  0
 17 18  2  0
  2 19  1  0
 19 20  2  0
 20 21  1  0
 21 22  2  0
 22 23  1  0
 23 24  2  0
 24 25  1  0
 24 26  1  0
 26 27  2  0
 27 28  1  0
 28 29  2  0
 12  7  1  0
 18 13  1  0
 29 19  1  0
 28 22  1  0
  3 30  1  0
  4 31  1  0
  4 32  1  0
  8 33  1  0
  8 34  1  0
  9 35  1  0
  9 36  1  0
 10 37  1  0
 10 38  1  0
 11 39  1  0
 11 40  1  0
 12 41  1  6
 14 42  1  0
 15 43  1  0
 16 44  1  0
 17 45  1  0
 20 46  1  0
 21 47  1  0
 23 48  1  0
 26 49  1  0
 27 50  1  0
M  END
>  <smiles>  (44) 
O=C(NCC(=O)N1CCCCC1c1ccccn1)c1ccc2cc(F)ccc2n1

>  <score_type>  (44) 
oracle

>  <origin>  (44) 
autodockgpu

>  <m_score__min__energy>  (44) 
-8.7100000000000009

>  <m_primary>  (44) 
energy

>  <rmsd>  (44) 
2.2660307422114903

>  <m_score__min__rmsd>  (44) 
2.2660307422114903

>  <meeko>  (44) 
{"free_energy": -8.61, "intermolecular_energy": -10.1, "internal_energy": -1.53, "cluster_size": 37, "cluster_id": 1, "rank_in_cluster": 13}

>  <energy>  (44) 
-7.44

>  <cluster_rmsd>  (44) 
0.85

>  <cluster>  (44) 
2

$$$$

     RDKit          3D

 50 53  0  0  0  0  0  0  0  0999 V2000
  141.0000   71.9850  221.2870 O   0  0  0  0  0  0  0  0  0  0  0  0
  140.3030   72.3820  222.2740 C   0  0  0  0  0  0  0  0  0  0  0  0
  139.6180   73.6430  222.2470 N   0  0  0  0  0  0  0  0  0  0  0  0
  139.7740   74.4240  221.0330 C   0  0  0  0  0  0  0  0  0  0  0  0
  140.8650   75.4280  221.1990 C   0  0  0  0  0  0  0  0  0  0  0  0
  142.0910   75.0840  221.2220 O   0  0  0  0  0  0  0  0  0  0  0  0
  140.5130   76.7930  221.3330 N   0  0  0  0  0  0  0  0  0  0  0  0
  140.4400   77.7100  220.2100 C   0  0  0  0  0  0  0  0  0  0  0  0
  139.1330   78.4720  220.3890 C   0  0  0  0  0  0  0  0  0  0  0  0
  138.1840   77.7330  221.2910 C   0  0  0  0  0  0  0  0  0  0  0  0
  138.7010   77.6130  222.6930 C   0  0  0  0  0  0  0  0  0  0  0  0
  140.2020   77.3370  222.6520 C   0  0  2  0  0  0  0  0  0  0  0  0
  140.9260   78.6050  222.9260 C   0  0  0  0  0  0  0  0  0  0  0  0
  140.3050   79.6630  223.5590 C   0  0  0  0  0  0  0  0  0  0  0  0
  141.0240   80.8340  223.7950 C   0  0  0  0  0  0  0  0  0  0  0  0
  142.3580   80.9510  223.4030 C   0  0  0  0  0  0  0  0  0  0  0  0
  142.9370   79.8660  222.7720 C   0  0  0  0  0  0  0  0  0  0  0  0
  142.2080   78.7600  222.5650 N   0  0  0  0  0  0  0  0  0  0  0  0
  140.1870   71.5470  223.4660 C   0  0  0  0  0  0  0  0  0  0  0  0
  139.5580   70.3210  223.3820 C   0  0  0  0  0  0  0  0  0  0  0  0
  139.4350   69.5150  224.4870 C   0  0  0  0  0  0  0  0  0  0  0  0
  139.9300   69.8950  225.7060 C   0  0  0  0  0  0  0  0  0  0  0  0
  139.8070   69.0930  226.8020 C   0  0  0  0  0  0  0  0  0  0  0  0
  140.3110   69.5000  228.0110 C   0  0  0  0  0  0  0  0  0  0  0  0
  140.1810   68.6930  229.0890 F   0  0  0  0  0  0  0  0  0  0  0  0
  140.9330   70.7150  228.0840 C   0  0  0  0  0  0  0  0  0  0  0  0
  141.0750   71.5600  226.9820 C   0  0  0  0  0  0  0  0  0  0  0  0
  140.5630   71.1410  225.7690 C   0  0  0  0  0  0  0  0  0  0  0  0
  140.6690   71.9110  224.6680 N   0  0  0  0  0  0  0  0  0  0  0  0
  139.0390   73.9810  223.0570 H   0  0  0  0  0  0  0  0  0  0  0  0
  140.0235   73.7518  220.1988 H   0  0  0  0  0  0  0  0  0  0  0  0
  138.8317   74.9514  220.8236 H   0  0  0  0  0  0  0  0  0  0  0  0
  141.2939   78.4033  220.2240 H   0  0  0  0  0  0  0  0  0  0  0  0
  140.4734   77.1788  219.2474 H   0  0  0  0  0  0  0  0  0  0  0  0
  139.3505   79.4566  220.8286 H   0  0  0  0  0  0  0  0  0  0  0  0
  138.6584   78.5801  219.4026 H   0  0  0  0  0  0  0  0  0  0  0  0
  137.2259   78.2729  221.3133 H   0  0  0  0  0  0  0  0  0  0  0  0
  138.0656   76.7155  220.8901 H   0  0  0  0  0  0  0  0  0  0  0  0
  138.5140   78.5513  223.2358 H   0  0  0  0  0  0  0  0  0  0  0  0
  138.1871   76.7875  223.2073 H   0  0  0  0  0  0  0  0  0  0  0  0
  140.5136   76.6079  223.4144 H   0  0  0  0  0  0  0  0  0  0  0  0
  139.2541   79.5830  223.8739 H   0  0  0  0  0  0  0  0  0  0  0  0
  140.5317   81.6792  224.2983 H   0  0  0  0  0  0  0  0  0  0  0  0
  142.9281   81.8731  223.5893 H   0  0  0  0  0  0  0  0  0  0  0  0
  143.9857   79.9095  222.4429 H   0  0  0  0  0  0  0  0  0  0  0  0
  139.1500   69.9853  222.4172 H   0  0  0  0  0  0  0  0  0  0  0  0
  138.9281   68.5435  224.3909 H   0  0  0  0  0  0  0  0  0  0  0  0
  139.3032   68.1189  226.7165 H   0  0  0  0  0  0  0  0  0  0  0  0
  141.3392   71.0409  229.0529 H   0  0  0  0  0  0  0  0  0  0  0  0
  141.5804   72.5324  227.0767 H   0  0  0  0  0  0  0  0  0  0  0  0
  1  2  2  0
  2  3  1  0
  3  4  1  0
  4  5  1  0
  5  6  2  0
  5  7  1  0
  7  8  1  0
  8  9  1  0
  9 10  1  0
 10 11  1  0
 11 12  1  0
 12 13  1  0
 13 14  2  0
 14 15  1  0
 15 16  2  0
 16 17  1  0
 17 18  2  0
  2 19  1  0
 19 20  2  0
 20 21  1  0
 21 22  2  0
 22 23  1  0
 23 24  2  0
 24 25  1  0
 24 26  1  0
 26 27  2  0
 27 28  1  0
 28 29  2  0
 12  7  1  0
 18 13  1  0
 29 19  1  0
 28 22  1  0
  3 30  1  0
  4 31  1  0
  4 32  1  0
  8 33  1  0
  8 34  1  0
  9 35  1  0
  9 36  1  0
 10 37  1  0
 10 38  1  0
 11 39  1  0
 11 40  1  0
 12 41  1  1
 14 42  1  0
 15 43  1  0
 16 44  1  0
 17 45  1  0
 20 46  1  0
 21 47  1  0
 23 48  1  0
 26 49  1  0
 27 50  1  0
M  END
>  <smiles>  (45) 
O=C(NCC(=O)N1CCCCC1c1ccccn1)c1ccc2cc(F)ccc2n1

>  <score_type>  (45) 
oracle

>  <origin>  (45) 
autodockgpu

>  <m_score__min__energy>  (45) 
-8.7100000000000009

>  <m_primary>  (45) 
energy

>  <rmsd>  (45) 
2.9415665142770937

>  <m_score__min__rmsd>  (45) 
2.9415665142770937

>  <meeko>  (45) 
{"free_energy": -8.65, "intermolecular_energy": -10.14, "internal_energy": -1.46, "cluster_size": 37, "cluster_id": 1, "rank_in_cluster": 7}

>  <energy>  (45) 
-8.05

>  <cluster_rmsd>  (45) 
0.0

>  <cluster>  (45) 
3

$$$$

     RDKit          3D

 50 53  0  0  0  0  0  0  0  0999 V2000
  138.9120   71.2510  221.2130 O   0  0  0  0  0  0  0  0  0  0  0  0
  139.2210   71.8500  222.2920 C   0  0  0  0  0  0  0  0  0  0  0  0
  139.2970   73.2810  222.3570 N   0  0  0  0  0  0  0  0  0  0  0  0
  139.0030   73.9900  221.1250 C   0  0  0  0  0  0  0  0  0  0  0  0
  138.9570   75.4610  221.3700 C   0  0  0  0  0  0  0  0  0  0  0  0
  137.8820   76.0460  221.7220 O   0  0  0  0  0  0  0  0  0  0  0  0
  140.1470   76.2110  221.2050 N   0  0  0  0  0  0  0  0  0  0  0  0
  141.4740   75.6330  221.3150 C   0  0  0  0  0  0  0  0  0  0  0  0
  142.2520   76.1680  220.1200 C   0  0  0  0  0  0  0  0  0  0  0  0
  141.3320   76.6510  219.0350 C   0  0  0  0  0  0  0  0  0  0  0  0
  140.5130   77.8320  219.4600 C   0  0  0  0  0  0  0  0  0  0  0  0
  140.0700   77.6380  220.9090 C   0  0  2  0  0  0  0  0  0  0  0  0
  140.9540   78.4470  221.7890 C   0  0  0  0  0  0  0  0  0  0  0  0
  141.7030   79.4920  221.2850 C   0  0  0  0  0  0  0  0  0  0  0  0
  142.5190   80.2230  222.1480 C   0  0  0  0  0  0  0  0  0  0  0  0
  142.5870   79.9160  223.5070 C   0  0  0  0  0  0  0  0  0  0  0  0
  141.8200   78.8610  223.9650 C   0  0  0  0  0  0  0  0  0  0  0  0
  141.0500   78.1850  223.1000 N   0  0  0  0  0  0  0  0  0  0  0  0
  139.5040   71.0780  223.4970 C   0  0  0  0  0  0  0  0  0  0  0  0
  139.2430   69.7220  223.5170 C   0  0  0  0  0  0  0  0  0  0  0  0
  139.5000   68.9710  224.6370 C   0  0  0  0  0  0  0  0  0  0  0  0
  140.0240   69.5360  225.7700 C   0  0  0  0  0  0  0  0  0  0  0  0
  140.2790   68.7880  226.8820 C   0  0  0  0  0  0  0  0  0  0  0  0
  140.8020   69.3800  228.0030 C   0  0  0  0  0  0  0  0  0  0  0  0
  141.0490   68.6250  229.0980 F   0  0  0  0  0  0  0  0  0  0  0  0
  141.0580   70.7230  227.9730 C   0  0  0  0  0  0  0  0  0  0  0  0
  140.8080   71.5160  226.8530 C   0  0  0  0  0  0  0  0  0  0  0  0
  140.2810   70.9100  225.7290 C   0  0  0  0  0  0  0  0  0  0  0  0
  140.0180   71.6220  224.6150 N   0  0  0  0  0  0  0  0  0  0  0  0
  139.5500   73.7870  223.2430 H   0  0  0  0  0  0  0  0  0  0  0  0
  139.7862   73.7702  220.3845 H   0  0  0  0  0  0  0  0  0  0  0  0
  138.0236   73.6601  220.7484 H   0  0  0  0  0  0  0  0  0  0  0  0
  141.9521   75.9444  222.2555 H   0  0  0  0  0  0  0  0  0  0  0  0
  141.4407   74.5335  221.3208 H   0  0  0  0  0  0  0  0  0  0  0  0
  142.8845   77.0049  220.4510 H   0  0  0  0  0  0  0  0  0  0  0  0
  142.8653   75.3502  219.7136 H   0  0  0  0  0  0  0  0  0  0  0  0
  141.9363   76.9369  218.1615 H   0  0  0  0  0  0  0  0  0  0  0  0
  140.6380   75.8317  218.7962 H   0  0  0  0  0  0  0  0  0  0  0  0
  141.1173   78.7476  219.3791 H   0  0  0  0  0  0  0  0  0  0  0  0
  139.6292   77.9227  218.8114 H   0  0  0  0  0  0  0  0  0  0  0  0
  139.0370   77.9759  221.0785 H   0  0  0  0  0  0  0  0  0  0  0  0
  141.6566   79.7448  220.2155 H   0  0  0  0  0  0  0  0  0  0  0  0
  143.1187   81.0551  221.7506 H   0  0  0  0  0  0  0  0  0  0  0  0
  143.2281   80.4928  224.1899 H   0  0  0  0  0  0  0  0  0  0  0  0
  141.8411   78.5790  225.0280 H   0  0  0  0  0  0  0  0  0  0  0  0
  138.8234   69.2371  222.6232 H   0  0  0  0  0  0  0  0  0  0  0  0
  139.2807   67.8932  224.6246 H   0  0  0  0  0  0  0  0  0  0  0  0
  140.0649   67.7090  226.8795 H   0  0  0  0  0  0  0  0  0  0  0  0
  141.4793   71.1985  228.8710 H   0  0  0  0  0  0  0  0  0  0  0  0
  141.0246   72.5944  226.8645 H   0  0  0  0  0  0  0  0  0  0  0  0
  1  2  2  0
  2  3  1  0
  3  4  1  0
  4  5  1  0
  5  6  2  0
  5  7  1  0
  7  8  1  0
  8  9  1  0
  9 10  1  0
 10 11  1  0
 11 12  1  0
 12 13  1  0
 13 14  2  0
 14 15  1  0
 15 16  2  0
 16 17  1  0
 17 18  2  0
  2 19  1  0
 19 20  2  0
 20 21  1  0
 21 22  2  0
 22 23  1  0
 23 24  2  0
 24 25  1  0
 24 26  1  0
 26 27  2  0
 27 28  1  0
 28 29  2  0
 12  7  1  0
 18 13  1  0
 29 19  1  0
 28 22  1  0
  3 30  1  0
  4 31  1  0
  4 32  1  0
  8 33  1  0
  8 34  1  0
  9 35  1  0
  9 36  1  0
 10 37  1  0
 10 38  1  0
 11 39  1  0
 11 40  1  0
 12 41  1  6
 14 42  1  0
 15 43  1  0
 16 44  1  0
 17 45  1  0
 20 46  1  0
 21 47  1  0
 23 48  1  0
 26 49  1  0
 27 50  1  0
M  END
>  <smiles>  (46) 
O=C(NCC(=O)N1CCCCC1c1ccccn1)c1ccc2cc(F)ccc2n1

>  <score_type>  (46) 
oracle

>  <origin>  (46) 
autodockgpu

>  <m_score__min__energy>  (46) 
-8.7100000000000009

>  <m_primary>  (46) 
energy

>  <rmsd>  (46) 
2.086629842773112

>  <m_score__min__rmsd>  (46) 
2.086629842773112

>  <meeko>  (46) 
{"free_energy": -8.17, "intermolecular_energy": -9.67, "internal_energy": -1.61, "cluster_size": 37, "cluster_id": 1, "rank_in_cluster": 34}

>  <energy>  (46) 
-7.98

>  <cluster_rmsd>  (46) 
0.94

>  <cluster>  (46) 
3

$$$$

     RDKit          3D

 50 53  0  0  0  0  0  0  0  0999 V2000
  140.2680   71.0060  221.3410 O   0  0  0  0  0  0  0  0  0  0  0  0
  139.8770   71.6560  222.3630 C   0  0  0  0  0  0  0  0  0  0  0  0
  139.2100   72.9190  222.2350 N   0  0  0  0  0  0  0  0  0  0  0  0
  139.0150   73.4000  220.8800 C   0  0  0  0  0  0  0  0  0  0  0  0
  139.7600   74.6750  220.6700 C   0  0  0  0  0  0  0  0  0  0  0  0
  139.3030   75.7920  221.0780 O   0  0  0  0  0  0  0  0  0  0  0  0
  141.0070   74.6260  219.9980 N   0  0  0  0  0  0  0  0  0  0  0  0
  141.1740   74.0670  218.6690 C   0  0  0  0  0  0  0  0  0  0  0  0
  142.0260   75.0730  217.9070 C   0  0  0  0  0  0  0  0  0  0  0  0
  141.9810   76.4310  218.5490 C   0  0  0  0  0  0  0  0  0  0  0  0
  142.5910   76.4400  219.9180 C   0  0  0  0  0  0  0  0  0  0  0  0
  142.2020   75.1560  220.6480 C   0  0  2  0  0  0  0  0  0  0  0  0
  143.3460   74.2090  220.5860 C   0  0  0  0  0  0  0  0  0  0  0  0
  144.6450   74.6610  220.4660 C   0  0  0  0  0  0  0  0  0  0  0  0
  145.6870   73.7360  220.4120 C   0  0  0  0  0  0  0  0  0  0  0  0
  145.4360   72.3650  220.4780 C   0  0  0  0  0  0  0  0  0  0  0  0
  144.1200   71.9590  220.5980 C   0  0  0  0  0  0  0  0  0  0  0  0
  143.1500   72.8840  220.6460 N   0  0  0  0  0  0  0  0  0  0  0  0
  140.1040   71.1150  223.7000 C   0  0  0  0  0  0  0  0  0  0  0  0
  140.6960   71.9050  224.6640 C   0  0  0  0  0  0  0  0  0  0  0  0
  140.9210   71.4220  225.9300 C   0  0  0  0  0  0  0  0  0  0  0  0
  140.5680   70.1460  226.2800 C   0  0  0  0  0  0  0  0  0  0  0  0
  140.7920   69.6680  227.5380 C   0  0  0  0  0  0  0  0  0  0  0  0
  140.4290   68.3850  227.8610 C   0  0  0  0  0  0  0  0  0  0  0  0
  140.6580   67.9260  229.1120 F   0  0  0  0  0  0  0  0  0  0  0  0
  139.8430   67.6110  226.8980 C   0  0  0  0  0  0  0  0  0  0  0  0
  139.6000   68.0690  225.6020 C   0  0  0  0  0  0  0  0  0  0  0  0
  139.9700   69.3620  225.2870 C   0  0  0  0  0  0  0  0  0  0  0  0
  139.7610   69.8630  224.0540 N   0  0  0  0  0  0  0  0  0  0  0  0
  138.8820   73.4640  223.0720 H   0  0  0  0  0  0  0  0  0  0  0  0
  139.3825   72.6441  220.1704 H   0  0  0  0  0  0  0  0  0  0  0  0
  137.9425   73.5816  220.7161 H   0  0  0  0  0  0  0  0  0  0  0  0
  141.6843   73.0940  218.7228 H   0  0  0  0  0  0  0  0  0  0  0  0
  140.2065   73.8952  218.1747 H   0  0  0  0  0  0  0  0  0  0  0  0
  143.0676   74.7196  217.8908 H   0  0  0  0  0  0  0  0  0  0  0  0
  141.6263   75.1605  216.8859 H   0  0  0  0  0  0  0  0  0  0  0  0
  142.5313   77.1401  217.9131 H   0  0  0  0  0  0  0  0  0  0  0  0
  140.9238   76.7164  218.6527 H   0  0  0  0  0  0  0  0  0  0  0  0
  143.6862   76.4977  219.8327 H   0  0  0  0  0  0  0  0  0  0  0  0
  142.2247   77.3113  220.4808 H   0  0  0  0  0  0  0  0  0  0  0  0
  141.9755   75.3315  221.7100 H   0  0  0  0  0  0  0  0  0  0  0  0
  144.8557   75.7394  220.4136 H   0  0  0  0  0  0  0  0  0  0  0  0
  146.7231   74.0927  220.3159 H   0  0  0  0  0  0  0  0  0  0  0  0
  146.2562   71.6332  220.4360 H   0  0  0  0  0  0  0  0  0  0  0  0
  143.8711   70.8890  220.6535 H   0  0  0  0  0  0  0  0  0  0  0  0
  140.9916   72.9350  224.4154 H   0  0  0  0  0  0  0  0  0  0  0  0
  141.3948   72.0740  226.6786 H   0  0  0  0  0  0  0  0  0  0  0  0
  141.2643   70.3121  228.2943 H   0  0  0  0  0  0  0  0  0  0  0  0
  139.5503   66.5825  227.1559 H   0  0  0  0  0  0  0  0  0  0  0  0
  139.1268   67.4181  224.8521 H   0  0  0  0  0  0  0  0  0  0  0  0
  1  2  2  0
  2  3  1  0
  3  4  1  0
  4  5  1  0
  5  6  2  0
  5  7  1  0
  7  8  1  0
  8  9  1  0
  9 10  1  0
 10 11  1  0
 11 12  1  0
 12 13  1  0
 13 14  2  0
 14 15  1  0
 15 16  2  0
 16 17  1  0
 17 18  2  0
  2 19  1  0
 19 20  2  0
 20 21  1  0
 21 22  2  0
 22 23  1  0
 23 24  2  0
 24 25  1  0
 24 26  1  0
 26 27  2  0
 27 28  1  0
 28 29  2  0
 12  7  1  0
 18 13  1  0
 29 19  1  0
 28 22  1  0
  3 30  1  0
  4 31  1  0
  4 32  1  0
  8 33  1  0
  8 34  1  0
  9 35  1  0
  9 36  1  0
 10 37  1  0
 10 38  1  0
 11 39  1  0
 11 40  1  0
 12 41  1  1
 14 42  1  0
 15 43  1  0
 16 44  1  0
 17 45  1  0
 20 46  1  0
 21 47  1  0
 23 48  1  0
 26 49  1  0
 27 50  1  0
M  END
>  <smiles>  (47) 
O=C(NCC(=O)N1CCCCC1c1ccccn1)c1ccc2cc(F)ccc2n1

>  <score_type>  (47) 
oracle

>  <origin>  (47) 
autodockgpu

>  <m_score__min__energy>  (47) 
-8.7100000000000009

>  <m_primary>  (47) 
energy

>  <rmsd>  (47) 
4.347073263166584

>  <m_score__min__rmsd>  (47) 
4.347073263166584

>  <meeko>  (47) 
{"free_energy": -7.61, "intermolecular_energy": -9.1, "internal_energy": -1.76, "cluster_size": 7, "cluster_id": 2, "rank_in_cluster": 4}

>  <energy>  (47) 
-7.95

>  <cluster_rmsd>  (47) 
1.06

>  <cluster>  (47) 
3

$$$$

     RDKit          3D

 50 53  0  0  0  0  0  0  0  0999 V2000
  141.1720   72.7000  221.9230 O   0  0  0  0  0  0  0  0  0  0  0  0
  140.1170   72.5540  222.6180 C   0  0  0  0  0  0  0  0  0  0  0  0
  138.9250   73.3000  222.3340 N   0  0  0  0  0  0  0  0  0  0  0  0
  139.0050   74.2220  221.2150 C   0  0  0  0  0  0  0  0  0  0  0  0
  138.9770   75.6320  221.7020 C   0  0  0  0  0  0  0  0  0  0  0  0
  137.9720   76.1040  222.3260 O   0  0  0  0  0  0  0  0  0  0  0  0
  140.1050   76.4540  221.4570 N   0  0  0  0  0  0  0  0  0  0  0  0
  141.4630   75.9450  221.3970 C   0  0  0  0  0  0  0  0  0  0  0  0
  142.0820   76.5820  220.1590 C   0  0  0  0  0  0  0  0  0  0  0  0
  141.0290   77.0690  219.2050 C   0  0  0  0  0  0  0  0  0  0  0  0
  140.2030   78.1800  219.7790 C   0  0  0  0  0  0  0  0  0  0  0  0
  139.9270   77.8880  221.2520 C   0  0  2  0  0  0  0  0  0  0  0  0
  140.8580   78.6980  222.0800 C   0  0  0  0  0  0  0  0  0  0  0  0
  141.5980   79.7250  221.5290 C   0  0  0  0  0  0  0  0  0  0  0  0
  142.4600   80.4580  222.3450 C   0  0  0  0  0  0  0  0  0  0  0  0
  142.5840   80.1690  223.7040 C   0  0  0  0  0  0  0  0  0  0  0  0
  141.8230   79.1320  224.2110 C   0  0  0  0  0  0  0  0  0  0  0  0
  141.0080   78.4540  223.3900 N   0  0  0  0  0  0  0  0  0  0  0  0
  140.1030   71.6090  223.7310 C   0  0  0  0  0  0  0  0  0  0  0  0
  139.5730   70.3470  223.5480 C   0  0  0  0  0  0  0  0  0  0  0  0
  139.5470   69.4380  224.5770 C   0  0  0  0  0  0  0  0  0  0  0  0
  140.0440   69.7470  225.8150 C   0  0  0  0  0  0  0  0  0  0  0  0
  140.0180   68.8430  226.8350 C   0  0  0  0  0  0  0  0  0  0  0  0
  140.5220   69.1800  228.0660 C   0  0  0  0  0  0  0  0  0  0  0  0
  140.4890   68.2720  229.0680 F   0  0  0  0  0  0  0  0  0  0  0  0
  141.0450   70.4310  228.2360 C   0  0  0  0  0  0  0  0  0  0  0  0
  141.0870   71.3800  227.2130 C   0  0  0  0  0  0  0  0  0  0  0  0
  140.5760   71.0310  225.9780 C   0  0  0  0  0  0  0  0  0  0  0  0
  140.5890   71.9020  224.9510 N   0  0  0  0  0  0  0  0  0  0  0  0
  138.0480   73.1880  222.9010 H   0  0  0  0  0  0  0  0  0  0  0  0
  139.9421   74.0462  220.6664 H   0  0  0  0  0  0  0  0  0  0  0  0
  138.1431   74.0555  220.5522 H   0  0  0  0  0  0  0  0  0  0  0  0
  142.0223   76.2346  222.2988 H   0  0  0  0  0  0  0  0  0  0  0  0
  141.4852   74.8464  221.3452 H   0  0  0  0  0  0  0  0  0  0  0  0
  142.7049   77.4340  220.4690 H   0  0  0  0  0  0  0  0  0  0  0  0
  142.6872   75.8205  219.6453 H   0  0  0  0  0  0  0  0  0  0  0  0
  141.5219   77.4320  218.2911 H   0  0  0  0  0  0  0  0  0  0  0  0
  140.3544   76.2262  218.9937 H   0  0  0  0  0  0  0  0  0  0  0  0
  140.7496   79.1302  219.6880 H   0  0  0  0  0  0  0  0  0  0  0  0
  139.2518   78.2554  219.2317 H   0  0  0  0  0  0  0  0  0  0  0  0
  138.9025   78.1595  221.5465 H   0  0  0  0  0  0  0  0  0  0  0  0
  141.5090   79.9626  220.4587 H   0  0  0  0  0  0  0  0  0  0  0  0
  143.0514   81.2770  221.9097 H   0  0  0  0  0  0  0  0  0  0  0  0
  143.2630   80.7456  224.3493 H   0  0  0  0  0  0  0  0  0  0  0  0
  141.8855   78.8660  225.2765 H   0  0  0  0  0  0  0  0  0  0  0  0
  139.1664   70.0662  222.5652 H   0  0  0  0  0  0  0  0  0  0  0  0
  139.1177   68.4403  224.4030 H   0  0  0  0  0  0  0  0  0  0  0  0
  139.5924   67.8420  226.6710 H   0  0  0  0  0  0  0  0  0  0  0  0
  141.4506   70.7021  229.2219 H   0  0  0  0  0  0  0  0  0  0  0  0
  141.5153   72.3784  227.3857 H   0  0  0  0  0  0  0  0  0  0  0  0
  1  2  2  0
  2  3  1  0
  3  4  1  0
  4  5  1  0
  5  6  2  0
  5  7  1  0
  7  8  1  0
  8  9  1  0
  9 10  1  0
 10 11  1  0
 11 12  1  0
 12 13  1  0
 13 14  2  0
 14 15  1  0
 15 16  2  0
 16 17  1  0
 17 18  2  0
  2 19  1  0
 19 20  2  0
 20 21  1  0
 21 22  2  0
 22 23  1  0
 23 24  2  0
 24 25  1  0
 24 26  1  0
 26 27  2  0
 27 28  1  0
 28 29  2  0
 12  7  1  0
 18 13  1  0
 29 19  1  0
 28 22  1  0
  3 30  1  0
  4 31  1  0
  4 32  1  0
  8 33  1  0
  8 34  1  0
  9 35  1  0
  9 36  1  0
 10 37  1  0
 10 38  1  0
 11 39  1  0
 11 40  1  0
 12 41  1  1
 14 42  1  0
 15 43  1  0
 16 44  1  0
 17 45  1  0
 20 46  1  0
 21 47  1  0
 23 48  1  0
 26 49  1  0
 27 50  1  0
M  END
>  <smiles>  (48) 
O=C(NCC(=O)N1CCCCC1c1ccccn1)c1ccc2cc(F)ccc2n1

>  <score_type>  (48) 
oracle

>  <origin>  (48) 
autodockgpu

>  <m_score__min__energy>  (48) 
-8.7100000000000009

>  <m_primary>  (48) 
energy

>  <rmsd>  (48) 
2.286728456132262

>  <m_score__min__rmsd>  (48) 
2.286728456132262

>  <meeko>  (48) 
{"free_energy": -8.61, "intermolecular_energy": -10.1, "internal_energy": -1.54, "cluster_size": 37, "cluster_id": 1, "rank_in_cluster": 12}

>  <energy>  (48) 
-7.89

>  <cluster_rmsd>  (48) 
0.78

>  <cluster>  (48) 
3

$$$$

     RDKit          3D

 50 53  0  0  0  0  0  0  0  0999 V2000
  141.1650   72.7990  221.9950 O   0  0  0  0  0  0  0  0  0  0  0  0
  140.0990   72.5880  222.6560 C   0  0  0  0  0  0  0  0  0  0  0  0
  138.8790   73.2760  222.3440 N   0  0  0  0  0  0  0  0  0  0  0  0
  138.9440   74.2170  221.2410 C   0  0  0  0  0  0  0  0  0  0  0  0
  138.9840   75.6170  221.7540 C   0  0  0  0  0  0  0  0  0  0  0  0
  138.0360   76.0990  222.4560 O   0  0  0  0  0  0  0  0  0  0  0  0
  140.1110   76.4190  221.4450 N   0  0  0  0  0  0  0  0  0  0  0  0
  141.4590   75.8910  221.3440 C   0  0  0  0  0  0  0  0  0  0  0  0
  142.0360   76.4900  220.0680 C   0  0  0  0  0  0  0  0  0  0  0  0
  140.9520   76.9670  219.1440 C   0  0  0  0  0  0  0  0  0  0  0  0
  140.1630   78.1030  219.7230 C   0  0  0  0  0  0  0  0  0  0  0  0
  139.9410   77.8500  221.2120 C   0  0  2  0  0  0  0  0  0  0  0  0
  140.9140   78.6670  221.9830 C   0  0  0  0  0  0  0  0  0  0  0  0
  141.0630   78.5080  223.3470 C   0  0  0  0  0  0  0  0  0  0  0  0
  141.9880   79.2970  224.0290 C   0  0  0  0  0  0  0  0  0  0  0  0
  142.7630   80.2410  223.3550 C   0  0  0  0  0  0  0  0  0  0  0  0
  142.5800   80.3660  221.9910 C   0  0  0  0  0  0  0  0  0  0  0  0
  141.6790   79.5860  221.3760 N   0  0  0  0  0  0  0  0  0  0  0  0
  140.1010   71.6280  223.7550 C   0  0  0  0  0  0  0  0  0  0  0  0
  139.5990   70.3580  223.5520 C   0  0  0  0  0  0  0  0  0  0  0  0
  139.5890   69.4340  224.5680 C   0  0  0  0  0  0  0  0  0  0  0  0
  140.0740   69.7370  225.8130 C   0  0  0  0  0  0  0  0  0  0  0  0
  140.0630   68.8180  226.8210 C   0  0  0  0  0  0  0  0  0  0  0  0
  140.5550   69.1490  228.0580 C   0  0  0  0  0  0  0  0  0  0  0  0
  140.5370   68.2270  229.0470 F   0  0  0  0  0  0  0  0  0  0  0  0
  141.0500   70.4090  228.2480 C   0  0  0  0  0  0  0  0  0  0  0  0
  141.0760   71.3730  227.2380 C   0  0  0  0  0  0  0  0  0  0  0  0
  140.5770   71.0290  225.9960 C   0  0  0  0  0  0  0  0  0  0  0  0
  140.5750   71.9150  224.9810 N   0  0  0  0  0  0  0  0  0  0  0  0
  137.9920   73.1100  222.8830 H   0  0  0  0  0  0  0  0  0  0  0  0
  139.8512   74.0213  220.6505 H   0  0  0  0  0  0  0  0  0  0  0  0
  138.0499   74.0926  220.6125 H   0  0  0  0  0  0  0  0  0  0  0  0
  142.0571   76.1945  222.2158 H   0  0  0  0  0  0  0  0  0  0  0  0
  141.4657   74.7913  221.3180 H   0  0  0  0  0  0  0  0  0  0  0  0
  142.6803   77.3414  220.3325 H   0  0  0  0  0  0  0  0  0  0  0  0
  142.6118   75.7089  219.5500 H   0  0  0  0  0  0  0  0  0  0  0  0
  141.4126   77.3011  218.2026 H   0  0  0  0  0  0  0  0  0  0  0  0
  140.2594   76.1283  218.9800 H   0  0  0  0  0  0  0  0  0  0  0  0
  140.7178   79.0432  219.5879 H   0  0  0  0  0  0  0  0  0  0  0  0
  139.1921   78.1783  219.2114 H   0  0  0  0  0  0  0  0  0  0  0  0
  138.9320   78.1415  221.5389 H   0  0  0  0  0  0  0  0  0  0  0  0
  140.4580   77.7665  223.8894 H   0  0  0  0  0  0  0  0  0  0  0  0
  142.1087   79.1733  225.1154 H   0  0  0  0  0  0  0  0  0  0  0  0
  143.4943   80.8642  223.8906 H   0  0  0  0  0  0  0  0  0  0  0  0
  143.1670   81.0973  221.4160 H   0  0  0  0  0  0  0  0  0  0  0  0
  139.2019   70.0827  222.5638 H   0  0  0  0  0  0  0  0  0  0  0  0
  139.1830   68.4294  224.3782 H   0  0  0  0  0  0  0  0  0  0  0  0
  139.6593   67.8106  226.6418 H   0  0  0  0  0  0  0  0  0  0  0  0
  141.4450   70.6751  229.2396 H   0  0  0  0  0  0  0  0  0  0  0  0
  141.4822   72.3779  227.4257 H   0  0  0  0  0  0  0  0  0  0  0  0
  1  2  2  0
  2  3  1  0
  3  4  1  0
  4  5  1  0
  5  6  2  0
  5  7  1  0
  7  8  1  0
  8  9  1  0
  9 10  1  0
 10 11  1  0
 11 12  1  0
 12 13  1  0
 13 14  2  0
 14 15  1  0
 15 16  2  0
 16 17  1  0
 17 18  2  0
  2 19  1  0
 19 20  2  0
 20 21  1  0
 21 22  2  0
 22 23  1  0
 23 24  2  0
 24 25  1  0
 24 26  1  0
 26 27  2  0
 27 28  1  0
 28 29  2  0
 12  7  1  0
 18 13  1  0
 29 19  1  0
 28 22  1  0
  3 30  1  0
  4 31  1  0
  4 32  1  0
  8 33  1  0
  8 34  1  0
  9 35  1  0
  9 36  1  0
 10 37  1  0
 10 38  1  0
 11 39  1  0
 11 40  1  0
 12 41  1  1
 14 42  1  0
 15 43  1  0
 16 44  1  0
 17 45  1  0
 20 46  1  0
 21 47  1  0
 23 48  1  0
 26 49  1  0
 27 50  1  0
M  END
>  <smiles>  (49) 
O=C(NCC(=O)N1CCCCC1c1ccccn1)c1ccc2cc(F)ccc2n1

>  <score_type>  (49) 
oracle

>  <origin>  (49) 
autodockgpu

>  <m_score__min__energy>  (49) 
-8.7100000000000009

>  <m_primary>  (49) 
energy

>  <rmsd>  (49) 
2.660937832607001

>  <m_score__min__rmsd>  (49) 
2.660937832607001

>  <meeko>  (49) 
{"free_energy": -8.55, "intermolecular_energy": -10.04, "internal_energy": -1.53, "cluster_size": 37, "cluster_id": 1, "rank_in_cluster": 21}

>  <energy>  (49) 
-7.88

>  <cluster_rmsd>  (49) 
0.77

>  <cluster>  (49) 
3

$$$$

     RDKit          3D

 50 53  0  0  0  0  0  0  0  0999 V2000
  140.9740   73.6700  220.3810 O   0  0  0  0  0  0  0  0  0  0  0  0
  140.4070   74.4480  221.2130 C   0  0  0  0  0  0  0  0  0  0  0  0
  139.3380   73.9920  222.0530 N   0  0  0  0  0  0  0  0  0  0  0  0
  138.9500   72.6030  221.8910 C   0  0  0  0  0  0  0  0  0  0  0  0
  139.8400   71.7190  222.6990 C   0  0  0  0  0  0  0  0  0  0  0  0
  141.1040   71.7200  222.5430 O   0  0  0  0  0  0  0  0  0  0  0  0
  139.2480   70.8620  223.6600 N   0  0  0  0  0  0  0  0  0  0  0  0
  137.9530   71.1160  224.2630 C   0  0  0  0  0  0  0  0  0  0  0  0
  137.2100   69.7880  224.2080 C   0  0  0  0  0  0  0  0  0  0  0  0
  137.7990   68.8690  223.1740 C   0  0  0  0  0  0  0  0  0  0  0  0
  139.2020   68.4580  223.5060 C   0  0  0  0  0  0  0  0  0  0  0  0
  139.9510   69.6550  224.0850 C   0  0  2  0  0  0  0  0  0  0  0  0
  139.9940   69.5180  225.5650 C   0  0  0  0  0  0  0  0  0  0  0  0
  139.8440   68.2890  226.1750 C   0  0  0  0  0  0  0  0  0  0  0  0
  139.8910   68.2080  227.5660 C   0  0  0  0  0  0  0  0  0  0  0  0
  140.0870   69.3480  228.3470 C   0  0  0  0  0  0  0  0  0  0  0  0
  140.2320   70.5570  227.6920 C   0  0  0  0  0  0  0  0  0  0  0  0
  140.1800   70.5870  226.3530 N   0  0  0  0  0  0  0  0  0  0  0  0
  140.8460   75.8360  221.3270 C   0  0  0  0  0  0  0  0  0  0  0  0
  141.7050   76.3600  220.3830 C   0  0  0  0  0  0  0  0  0  0  0  0
  142.1340   77.6620  220.4660 C   0  0  0  0  0  0  0  0  0  0  0  0
  141.7250   78.4840  221.4820 C   0  0  0  0  0  0  0  0  0  0  0  0
  142.1510   79.7780  221.5630 C   0  0  0  0  0  0  0  0  0  0  0  0
  141.7270   80.5790  222.5920 C   0  0  0  0  0  0  0  0  0  0  0  0
  142.1590   81.8590  222.6580 F   0  0  0  0  0  0  0  0  0  0  0  0
  140.8750   80.0500  223.5220 C   0  0  0  0  0  0  0  0  0  0  0  0
  140.4200   78.7310  223.4690 C   0  0  0  0  0  0  0  0  0  0  0  0
  140.8540   77.9330  222.4280 C   0  0  0  0  0  0  0  0  0  0  0  0
  140.4510   76.6520  222.3220 N   0  0  0  0  0  0  0  0  0  0  0  0
  138.8630   74.6260  222.7440 H   0  0  0  0  0  0  0  0  0  0  0  0
  137.9102   72.4752  222.2264 H   0  0  0  0  0  0  0  0  0  0  0  0
  139.0402   72.3278  220.8298 H   0  0  0  0  0  0  0  0  0  0  0  0
  138.0726   71.4465  225.3053 H   0  0  0  0  0  0  0  0  0  0  0  0
  137.4063   71.9112  223.7350 H   0  0  0  0  0  0  0  0  0  0  0  0
  137.2713   69.3031  225.1935 H   0  0  0  0  0  0  0  0  0  0  0  0
  136.1637   69.9892  223.9347 H   0  0  0  0  0  0  0  0  0  0  0  0
  137.1735   67.9667  223.1062 H   0  0  0  0  0  0  0  0  0  0  0  0
  137.8267   69.4136  222.2187 H   0  0  0  0  0  0  0  0  0  0  0  0
  139.1818   67.6438  224.2453 H   0  0  0  0  0  0  0  0  0  0  0  0
  139.7105   68.1088  222.5952 H   0  0  0  0  0  0  0  0  0  0  0  0
  140.9898   69.7098  223.7273 H   0  0  0  0  0  0  0  0  0  0  0  0
  139.6890   67.3833  225.5702 H   0  0  0  0  0  0  0  0  0  0  0  0
  139.7718   67.2302  228.0557 H   0  0  0  0  0  0  0  0  0  0  0  0
  140.1248   69.2868  229.4446 H   0  0  0  0  0  0  0  0  0  0  0  0
  140.3883   71.4839  228.2634 H   0  0  0  0  0  0  0  0  0  0  0  0
  142.0508   75.7265  219.5529 H   0  0  0  0  0  0  0  0  0  0  0  0
  142.8205   78.0527  219.7004 H   0  0  0  0  0  0  0  0  0  0  0  0
  142.8358   80.1792  220.8014 H   0  0  0  0  0  0  0  0  0  0  0  0
  140.5334   80.6916  224.3476 H   0  0  0  0  0  0  0  0  0  0  0  0
  139.7350   78.3381  224.2348 H   0  0  0  0  0  0  0  0  0  0  0  0
  1  2  2  0
  2  3  1  0
  3  4  1  0
  4  5  1  0
  5  6  2  0
  5  7  1  0
  7  8  1  0
  8  9  1  0
  9 10  1  0
 10 11  1  0
 11 12  1  0
 12 13  1  0
 13 14  2  0
 14 15  1  0
 15 16  2  0
 16 17  1  0
 17 18  2  0
  2 19  1  0
 19 20  2  0
 20 21  1  0
 21 22  2  0
 22 23  1  0
 23 24  2  0
 24 25  1  0
 24 26  1  0
 26 27  2  0
 27 28  1  0
 28 29  2  0
 12  7  1  0
 18 13  1  0
 29 19  1  0
 28 22  1  0
  3 30  1  0
  4 31  1  0
  4 32  1  0
  8 33  1  0
  8 34  1  0
  9 35  1  0
  9 36  1  0
 10 37  1  0
 10 38  1  0
 11 39  1  0
 11 40  1  0
 12 41  1  6
 14 42  1  0
 15 43  1  0
 16 44  1  0
 17 45  1  0
 20 46  1  0
 21 47  1  0
 23 48  1  0
 26 49  1  0
 27 50  1  0
M  END
>  <smiles>  (50) 
O=C(NCC(=O)N1CCCCC1c1ccccn1)c1ccc2cc(F)ccc2n1

>  <score_type>  (50) 
oracle

>  <origin>  (50) 
autodockgpu

>  <m_score__min__energy>  (50) 
-8.7100000000000009

>  <m_primary>  (50) 
energy

>  <rmsd>  (50) 
9.616434106503933

>  <m_score__min__rmsd>  (50) 
9.616434106503933

>  <meeko>  (50) 
{"free_energy": -7.88, "intermolecular_energy": -9.38, "internal_energy": -1.58, "cluster_size": 6, "cluster_id": 3, "rank_in_cluster": 5}

>  <energy>  (50) 
-7.84

>  <cluster_rmsd>  (50) 
0.75

>  <cluster>  (50) 
3

$$$$

     RDKit          3D

 50 53  0  0  0  0  0  0  0  0999 V2000
  141.4170   72.2340  221.6430 O   0  0  0  0  0  0  0  0  0  0  0  0
  140.4290   72.4090  222.4300 C   0  0  0  0  0  0  0  0  0  0  0  0
  139.5160   73.4780  222.1730 N   0  0  0  0  0  0  0  0  0  0  0  0
  139.6740   74.3690  221.0540 C   0  0  0  0  0  0  0  0  0  0  0  0
  140.8200   75.2960  221.2420 C   0  0  0  0  0  0  0  0  0  0  0  0
  140.9390   75.8680  222.3600 O   0  0  0  0  0  0  0  0  0  0  0  0
  141.7790   75.5650  220.2270 N   0  0  0  0  0  0  0  0  0  0  0  0
  142.2550   76.9190  220.0760 C   0  0  0  0  0  0  0  0  0  0  0  0
  142.5600   77.2670  218.6400 C   0  0  0  0  0  0  0  0  0  0  0  0
  143.2390   76.1000  217.9280 C   0  0  0  0  0  0  0  0  0  0  0  0
  142.2680   74.9470  217.9800 C   0  0  0  0  0  0  0  0  0  0  0  0
  142.2160   74.4590  219.4080 C   0  0  1  0  0  0  0  0  0  0  0  0
  143.5000   73.8800  219.8410 C   0  0  0  0  0  0  0  0  0  0  0  0
  144.4750   74.6360  220.4930 C   0  0  0  0  0  0  0  0  0  0  0  0
  145.6770   74.0740  220.8990 C   0  0  0  0  0  0  0  0  0  0  0  0
  145.9390   72.7480  220.6660 C   0  0  0  0  0  0  0  0  0  0  0  0
  144.9650   72.0150  220.0210 C   0  0  0  0  0  0  0  0  0  0  0  0
  143.8080   72.5880  219.6390 N   0  0  0  0  0  0  0  0  0  0  0  0
  140.2180   71.5450  223.5730 C   0  0  0  0  0  0  0  0  0  0  0  0
  139.5250   70.3650  223.4130 C   0  0  0  0  0  0  0  0  0  0  0  0
  139.3150   69.5300  224.4900 C   0  0  0  0  0  0  0  0  0  0  0  0
  139.8050   69.8880  225.7340 C   0  0  0  0  0  0  0  0  0  0  0  0
  139.6220   69.0960  226.8270 C   0  0  0  0  0  0  0  0  0  0  0  0
  140.1260   69.4950  228.0350 C   0  0  0  0  0  0  0  0  0  0  0  0
  139.9320   68.6840  229.1250 F   0  0  0  0  0  0  0  0  0  0  0  0
  140.8170   70.6880  228.1620 C   0  0  0  0  0  0  0  0  0  0  0  0
  141.0120   71.5030  227.0650 C   0  0  0  0  0  0  0  0  0  0  0  0
  140.4920   71.0740  225.8630 C   0  0  0  0  0  0  0  0  0  0  0  0
  140.6920   71.8860  224.7960 N   0  0  0  0  0  0  0  0  0  0  0  0
  138.7070   73.6300  222.8070 H   0  0  0  0  0  0  0  0  0  0  0  0
  139.8443   73.7725  220.1456 H   0  0  0  0  0  0  0  0  0  0  0  0
  138.7583   74.9721  220.9662 H   0  0  0  0  0  0  0  0  0  0  0  0
  141.4833   77.6080  220.4498 H   0  0  0  0  0  0  0  0  0  0  0  0
  143.1900   77.0105  220.6481 H   0  0  0  0  0  0  0  0  0  0  0  0
  141.6207   77.5081  218.1208 H   0  0  0  0  0  0  0  0  0  0  0  0
  143.2406   78.1311  218.6252 H   0  0  0  0  0  0  0  0  0  0  0  0
  143.4574   76.3667  216.8834 H   0  0  0  0  0  0  0  0  0  0  0  0
  144.1934   75.8399  218.4091 H   0  0  0  0  0  0  0  0  0  0  0  0
  141.2699   75.2823  217.6615 H   0  0  0  0  0  0  0  0  0  0  0  0
  142.5907   74.1391  217.3068 H   0  0  0  0  0  0  0  0  0  0  0  0
  141.4988   73.6311  219.5087 H   0  0  0  0  0  0  0  0  0  0  0  0
  144.2864   75.7017  220.6896 H   0  0  0  0  0  0  0  0  0  0  0  0
  146.4252   74.6965  221.4115 H   0  0  0  0  0  0  0  0  0  0  0  0
  146.8873   72.2880  220.9808 H   0  0  0  0  0  0  0  0  0  0  0  0
  145.1357   70.9479  219.8158 H   0  0  0  0  0  0  0  0  0  0  0  0
  139.1375   70.0878  222.4215 H   0  0  0  0  0  0  0  0  0  0  0  0
  138.7628   68.5874  224.3616 H   0  0  0  0  0  0  0  0  0  0  0  0
  139.0749   68.1457  226.7395 H   0  0  0  0  0  0  0  0  0  0  0  0
  141.2131   70.9883  229.1433 H   0  0  0  0  0  0  0  0  0  0  0  0
  141.5589   72.4539  227.1468 H   0  0  0  0  0  0  0  0  0  0  0  0
  1  2  2  0
  2  3  1  0
  3  4  1  0
  4  5  1  0
  5  6  2  0
  5  7  1  0
  7  8  1  0
  8  9  1  0
  9 10  1  0
 10 11  1  0
 11 12  1  0
 12 13  1  0
 13 14  2  0
 14 15  1  0
 15 16  2  0
 16 17  1  0
 17 18  2  0
  2 19  1  0
 19 20  2  0
 20 21  1  0
 21 22  2  0
 22 23  1  0
 23 24  2  0
 24 25  1  0
 24 26  1  0
 26 27  2  0
 27 28  1  0
 28 29  2  0
 12  7  1  0
 18 13  1  0
 29 19  1  0
 28 22  1  0
  3 30  1  0
  4 31  1  0
  4 32  1  0
  8 33  1  0
  8 34  1  0
  9 35  1  0
  9 36  1  0
 10 37  1  0
 10 38  1  0
 11 39  1  0
 11 40  1  0
 12 41  1  6
 14 42  1  0
 15 43  1  0
 16 44  1  0
 17 45  1  0
 20 46  1  0
 21 47  1  0
 23 48  1  0
 26 49  1  0
 27 50  1  0
M  END
>  <smiles>  (51) 
O=C(NCC(=O)N1CCCCC1c1ccccn1)c1ccc2cc(F)ccc2n1

>  <score_type>  (51) 
oracle

>  <origin>  (51) 
autodockgpu

>  <m_score__min__energy>  (51) 
-8.8900000000000006

>  <m_primary>  (51) 
energy

>  <rmsd>  (51) 
4.128675058369488

>  <m_score__min__rmsd>  (51) 
4.128675058369488

>  <meeko>  (51) 
{"free_energy": -8.67, "intermolecular_energy": -10.16, "internal_energy": -1.64, "cluster_size": 10, "cluster_id": 2, "rank_in_cluster": 4}

>  <energy>  (51) 
-8.89

>  <cluster_rmsd>  (51) 
0.0

>  <cluster>  (51) 
1

$$$$

     RDKit          3D

 50 53  0  0  0  0  0  0  0  0999 V2000
  141.2680   72.0730  221.4630 O   0  0  0  0  0  0  0  0  0  0  0  0
  140.4790   72.4060  222.4080 C   0  0  0  0  0  0  0  0  0  0  0  0
  139.8010   73.6620  222.3400 N   0  0  0  0  0  0  0  0  0  0  0  0
  139.9790   74.5710  221.2380 C   0  0  0  0  0  0  0  0  0  0  0  0
  139.6520   75.9700  221.6170 C   0  0  0  0  0  0  0  0  0  0  0  0
  138.9330   76.1520  222.6370 O   0  0  0  0  0  0  0  0  0  0  0  0
  140.1070   77.1020  220.8860 N   0  0  0  0  0  0  0  0  0  0  0  0
  139.2260   77.6790  219.8990 C   0  0  0  0  0  0  0  0  0  0  0  0
  139.9740   78.2440  218.7170 C   0  0  0  0  0  0  0  0  0  0  0  0
  141.2450   78.9600  219.1670 C   0  0  0  0  0  0  0  0  0  0  0  0
  142.0930   77.9250  219.8640 C   0  0  0  0  0  0  0  0  0  0  0  0
  141.4290   77.6010  221.1810 C   0  0  1  0  0  0  0  0  0  0  0  0
  141.4290   78.7550  222.0970 C   0  0  0  0  0  0  0  0  0  0  0  0
  142.6040   79.4020  222.4790 C   0  0  0  0  0  0  0  0  0  0  0  0
  142.5850   80.4920  223.3390 C   0  0  0  0  0  0  0  0  0  0  0  0
  141.3980   80.9630  223.8390 C   0  0  0  0  0  0  0  0  0  0  0  0
  140.2450   80.3120  223.4520 C   0  0  0  0  0  0  0  0  0  0  0  0
  140.2950   79.2580  222.6150 N   0  0  0  0  0  0  0  0  0  0  0  0
  140.2590   71.5330  223.5440 C   0  0  0  0  0  0  0  0  0  0  0  0
  139.5860   70.3440  223.3660 C   0  0  0  0  0  0  0  0  0  0  0  0
  139.3680   69.5010  224.4340 C   0  0  0  0  0  0  0  0  0  0  0  0
  139.8300   69.8600  225.6890 C   0  0  0  0  0  0  0  0  0  0  0  0
  139.6380   69.0610  226.7750 C   0  0  0  0  0  0  0  0  0  0  0  0
  140.1140   69.4600  227.9940 C   0  0  0  0  0  0  0  0  0  0  0  0
  139.9120   68.6410  229.0760 F   0  0  0  0  0  0  0  0  0  0  0  0
  140.7860   70.6630  228.1380 C   0  0  0  0  0  0  0  0  0  0  0  0
  140.9890   71.4850  227.0500 C   0  0  0  0  0  0  0  0  0  0  0  0
  140.4980   71.0540  225.8360 C   0  0  0  0  0  0  0  0  0  0  0  0
  140.7060   71.8750  224.7770 N   0  0  0  0  0  0  0  0  0  0  0  0
  139.1560   73.9430  223.1040 H   0  0  0  0  0  0  0  0  0  0  0  0
  141.0271   74.5278  220.9068 H   0  0  0  0  0  0  0  0  0  0  0  0
  139.2959   74.2673  220.4311 H   0  0  0  0  0  0  0  0  0  0  0  0
  138.5381   76.8988  219.5410 H   0  0  0  0  0  0  0  0  0  0  0  0
  138.6837   78.5073  220.3784 H   0  0  0  0  0  0  0  0  0  0  0  0
  140.2449   77.4232  218.0367 H   0  0  0  0  0  0  0  0  0  0  0  0
  139.3249   78.9696  218.2050 H   0  0  0  0  0  0  0  0  0  0  0  0
  141.7806   79.3673  218.2968 H   0  0  0  0  0  0  0  0  0  0  0  0
  141.0129   79.8017  219.8361 H   0  0  0  0  0  0  0  0  0  0  0  0
  142.1614   77.0180  219.2454 H   0  0  0  0  0  0  0  0  0  0  0  0
  143.1111   78.3076  220.0289 H   0  0  0  0  0  0  0  0  0  0  0  0
  141.9942   76.8269  221.7208 H   0  0  0  0  0  0  0  0  0  0  0  0
  143.5675   79.0407  222.0902 H   0  0  0  0  0  0  0  0  0  0  0  0
  143.5289   80.9813  223.6213 H   0  0  0  0  0  0  0  0  0  0  0  0
  141.3666   81.8253  224.5213 H   0  0  0  0  0  0  0  0  0  0  0  0
  139.2724   80.6581  223.8318 H   0  0  0  0  0  0  0  0  0  0  0  0
  139.2209   70.0663  222.3662 H   0  0  0  0  0  0  0  0  0  0  0  0
  138.8317   68.5513  224.2909 H   0  0  0  0  0  0  0  0  0  0  0  0
  139.1053   68.1040  226.6730 H   0  0  0  0  0  0  0  0  0  0  0  0
  141.1602   70.9644  229.1275 H   0  0  0  0  0  0  0  0  0  0  0  0
  141.5199   72.4436  227.1464 H   0  0  0  0  0  0  0  0  0  0  0  0
  1  2  2  0
  2  3  1  0
  3  4  1  0
  4  5  1  0
  5  6  2  0
  5  7  1  0
  7  8  1  0
  8  9  1  0
  9 10  1  0
 10 11  1  0
 11 12  1  0
 12 13  1  0
 13 14  2  0
 14 15  1  0
 15 16  2  0
 16 17  1  0
 17 18  2  0
  2 19  1  0
 19 20  2  0
 20 21  1  0
 21 22  2  0
 22 23  1  0
 23 24  2  0
 24 25  1  0
 24 26  1  0
 26 27  2  0
 27 28  1  0
 28 29  2  0
 12  7  1  0
 18 13  1  0
 29 19  1  0
 28 22  1  0
  3 30  1  0
  4 31  1  0
  4 32  1  0
  8 33  1  0
  8 34  1  0
  9 35  1  0
  9 36  1  0
 10 37  1  0
 10 38  1  0
 11 39  1  0
 11 40  1  0
 12 41  1  1
 14 42  1  0
 15 43  1  0
 16 44  1  0
 17 45  1  0
 20 46  1  0
 21 47  1  0
 23 48  1  0
 26 49  1  0
 27 50  1  0
M  END
>  <smiles>  (52) 
O=C(NCC(=O)N1CCCCC1c1ccccn1)c1ccc2cc(F)ccc2n1

>  <score_type>  (52) 
oracle

>  <origin>  (52) 
autodockgpu

>  <m_score__min__energy>  (52) 
-8.8900000000000006

>  <m_primary>  (52) 
energy

>  <rmsd>  (52) 
2.305710361221171

>  <m_score__min__rmsd>  (52) 
2.305710361221171

>  <meeko>  (52) 
{"free_energy": -8.62, "intermolecular_energy": -10.11, "internal_energy": -1.87, "cluster_size": 27, "cluster_id": 1, "rank_in_cluster": 9}

>  <energy>  (52) 
-8.77

>  <cluster_rmsd>  (52) 
0.52

>  <cluster>  (52) 
1

$$$$

     RDKit          3D

 50 53  0  0  0  0  0  0  0  0999 V2000
  140.2710   71.6820  221.0700 O   0  0  0  0  0  0  0  0  0  0  0  0
  140.0250   72.1790  222.2180 C   0  0  0  0  0  0  0  0  0  0  0  0
  139.7430   73.5760  222.3260 N   0  0  0  0  0  0  0  0  0  0  0  0
  139.7270   74.4460  221.1790 C   0  0  0  0  0  0  0  0  0  0  0  0
  140.7160   75.5480  221.3070 C   0  0  0  0  0  0  0  0  0  0  0  0
  140.6580   76.2760  222.3360 O   0  0  0  0  0  0  0  0  0  0  0  0
  141.7150   75.8170  220.3310 N   0  0  0  0  0  0  0  0  0  0  0  0
  142.2070   77.1680  220.2090 C   0  0  0  0  0  0  0  0  0  0  0  0
  142.5690   77.5250  218.7890 C   0  0  0  0  0  0  0  0  0  0  0  0
  143.2630   76.3580  218.0930 C   0  0  0  0  0  0  0  0  0  0  0  0
  142.2810   75.2130  218.0980 C   0  0  0  0  0  0  0  0  0  0  0  0
  142.1710   74.7140  219.5190 C   0  0  1  0  0  0  0  0  0  0  0  0
  143.4330   74.1200  219.9940 C   0  0  0  0  0  0  0  0  0  0  0  0
  143.6380   72.7400  220.0330 C   0  0  0  0  0  0  0  0  0  0  0  0
  144.8360   72.1980  220.4790 C   0  0  0  0  0  0  0  0  0  0  0  0
  145.8560   73.0130  220.8970 C   0  0  0  0  0  0  0  0  0  0  0  0
  145.6370   74.3740  220.8520 C   0  0  0  0  0  0  0  0  0  0  0  0
  144.4650   74.8720  220.4140 N   0  0  0  0  0  0  0  0  0  0  0  0
  140.0270   71.3550  223.4080 C   0  0  0  0  0  0  0  0  0  0  0  0
  139.5480   70.0640  223.3410 C   0  0  0  0  0  0  0  0  0  0  0  0
  139.5420   69.2640  224.4630 C   0  0  0  0  0  0  0  0  0  0  0  0
  140.0210   69.7690  225.6610 C   0  0  0  0  0  0  0  0  0  0  0  0
  140.0350   69.0170  226.7970 C   0  0  0  0  0  0  0  0  0  0  0  0
  140.5180   69.5620  227.9550 C   0  0  0  0  0  0  0  0  0  0  0  0
  140.5240   68.7890  229.0890 F   0  0  0  0  0  0  0  0  0  0  0  0
  140.9910   70.8630  227.9890 C   0  0  0  0  0  0  0  0  0  0  0  0
  140.9840   71.6390  226.8480 C   0  0  0  0  0  0  0  0  0  0  0  0
  140.4920   71.0610  225.6970 C   0  0  0  0  0  0  0  0  0  0  0  0
  140.4920   71.8380  224.5860 N   0  0  0  0  0  0  0  0  0  0  0  0
  139.5410   73.9920  223.2560 H   0  0  0  0  0  0  0  0  0  0  0  0
  139.9655   73.8562  220.2816 H   0  0  0  0  0  0  0  0  0  0  0  0
  138.7250   74.8935  221.1038 H   0  0  0  0  0  0  0  0  0  0  0  0
  141.4271   77.8604  220.5589 H   0  0  0  0  0  0  0  0  0  0  0  0
  143.1205   77.2471  220.8167 H   0  0  0  0  0  0  0  0  0  0  0  0
  141.6522   77.7796  218.2370 H   0  0  0  0  0  0  0  0  0  0  0  0
  143.2578   78.3825  218.8074 H   0  0  0  0  0  0  0  0  0  0  0  0
  143.5229   76.6316  217.0597 H   0  0  0  0  0  0  0  0  0  0  0  0
  144.1960   76.0849  218.6078 H   0  0  0  0  0  0  0  0  0  0  0  0
  141.2986   75.5595  217.7448 H   0  0  0  0  0  0  0  0  0  0  0  0
  142.6220   74.4079  217.4305 H   0  0  0  0  0  0  0  0  0  0  0  0
  141.4423   73.8927  219.5857 H   0  0  0  0  0  0  0  0  0  0  0  0
  142.8328   72.0670  219.7032 H   0  0  0  0  0  0  0  0  0  0  0  0
  144.9677   71.1061  220.4971 H   0  0  0  0  0  0  0  0  0  0  0  0
  146.8103   72.5983  221.2538 H   0  0  0  0  0  0  0  0  0  0  0  0
  146.4306   75.0622  221.1784 H   0  0  0  0  0  0  0  0  0  0  0  0
  139.1685   69.6703  222.3866 H   0  0  0  0  0  0  0  0  0  0  0  0
  139.1604   68.2338  224.4080 H   0  0  0  0  0  0  0  0  0  0  0  0
  139.6618   67.9823  226.7832 H   0  0  0  0  0  0  0  0  0  0  0  0
  141.3748   71.2805  228.9315 H   0  0  0  0  0  0  0  0  0  0  0  0
  141.3551   72.6745  226.8564 H   0  0  0  0  0  0  0  0  0  0  0  0
  1  2  2  0
  2  3  1  0
  3  4  1  0
  4  5  1  0
  5  6  2  0
  5  7  1  0
  7  8  1  0
  8  9  1  0
  9 10  1  0
 10 11  1  0
 11 12  1  0
 12 13  1  0
 13 14  2  0
 14 15  1  0
 15 16  2  0
 16 17  1  0
 17 18  2  0
  2 19  1  0
 19 20  2  0
 20 21  1  0
 21 22  2  0
 22 23  1  0
 23 24  2  0
 24 25  1  0
 24 26  1  0
 26 27  2  0
 27 28  1  0
 28 29  2  0
 12  7  1  0
 18 13  1  0
 29 19  1  0
 28 22  1  0
  3 30  1  0
  4 31  1  0
  4 32  1  0
  8 33  1  0
  8 34  1  0
  9 35  1  0
  9 36  1  0
 10 37  1  0
 10 38  1  0
 11 39  1  0
 11 40  1  0
 12 41  1  6
 14 42  1  0
 15 43  1  0
 16 44  1  0
 17 45  1  0
 20 46  1  0
 21 47  1  0
 23 48  1  0
 26 49  1  0
 27 50  1  0
M  END
>  <smiles>  (53) 
O=C(NCC(=O)N1CCCCC1c1ccccn1)c1ccc2cc(F)ccc2n1

>  <score_type>  (53) 
oracle

>  <origin>  (53) 
autodockgpu

>  <m_score__min__energy>  (53) 
-8.8900000000000006

>  <m_primary>  (53) 
energy

>  <rmsd>  (53) 
4.231775045289108

>  <m_score__min__rmsd>  (53) 
4.231775045289108

>  <meeko>  (53) 
{"free_energy": -8.43, "intermolecular_energy": -9.92, "internal_energy": -1.89, "cluster_size": 10, "cluster_id": 2, "rank_in_cluster": 9}

>  <energy>  (53) 
-8.74

>  <cluster_rmsd>  (53) 
1.17

>  <cluster>  (53) 
1

$$$$

     RDKit          3D

 50 53  0  0  0  0  0  0  0  0999 V2000
  141.4110   72.1190  221.5860 O   0  0  0  0  0  0  0  0  0  0  0  0
  140.4600   72.3390  222.4060 C   0  0  0  0  0  0  0  0  0  0  0  0
  139.5690   73.4300  222.1620 N   0  0  0  0  0  0  0  0  0  0  0  0
  139.7100   74.2940  221.0190 C   0  0  0  0  0  0  0  0  0  0  0  0
  140.7170   75.3610  221.2530 C   0  0  0  0  0  0  0  0  0  0  0  0
  140.6710   75.9860  222.3490 O   0  0  0  0  0  0  0  0  0  0  0  0
  141.7200   75.7070  220.3060 N   0  0  0  0  0  0  0  0  0  0  0  0
  142.1970   77.0690  220.2810 C   0  0  0  0  0  0  0  0  0  0  0  0
  142.5660   77.5260  218.8920 C   0  0  0  0  0  0  0  0  0  0  0  0
  143.2800   76.4170  218.1240 C   0  0  0  0  0  0  0  0  0  0  0  0
  142.3120   75.2630  218.0440 C   0  0  0  0  0  0  0  0  0  0  0  0
  142.1970   74.6670  219.4260 C   0  0  1  0  0  0  0  0  0  0  0  0
  143.4620   74.0570  219.8710 C   0  0  0  0  0  0  0  0  0  0  0  0
  144.4870   74.8060  220.4490 C   0  0  0  0  0  0  0  0  0  0  0  0
  145.6710   74.2140  220.8680 C   0  0  0  0  0  0  0  0  0  0  0  0
  145.8630   72.8650  220.7210 C   0  0  0  0  0  0  0  0  0  0  0  0
  144.8410   72.1380  220.1480 C   0  0  0  0  0  0  0  0  0  0  0  0
  143.7030   72.7400  219.7520 N   0  0  0  0  0  0  0  0  0  0  0  0
  140.2680   71.5050  223.5740 C   0  0  0  0  0  0  0  0  0  0  0  0
  139.6010   70.3050  223.4490 C   0  0  0  0  0  0  0  0  0  0  0  0
  139.4090   69.4980  224.5500 C   0  0  0  0  0  0  0  0  0  0  0  0
  139.8920   69.9020  225.7830 C   0  0  0  0  0  0  0  0  0  0  0  0
  139.7270   69.1390  226.8990 C   0  0  0  0  0  0  0  0  0  0  0  0
  140.2230   69.5830  228.0940 C   0  0  0  0  0  0  0  0  0  0  0  0
  140.0470   68.7990  229.2070 F   0  0  0  0  0  0  0  0  0  0  0  0
  140.8880   70.7930  228.1850 C   0  0  0  0  0  0  0  0  0  0  0  0
  141.0650   71.5800  227.0650 C   0  0  0  0  0  0  0  0  0  0  0  0
  140.5540   71.1050  225.8760 C   0  0  0  0  0  0  0  0  0  0  0  0
  140.7360   71.8910  224.7860 N   0  0  0  0  0  0  0  0  0  0  0  0
  138.7900   73.6190  222.8230 H   0  0  0  0  0  0  0  0  0  0  0  0
  140.0246   73.6914  220.1542 H   0  0  0  0  0  0  0  0  0  0  0  0
  138.7388   74.7761  220.8337 H   0  0  0  0  0  0  0  0  0  0  0  0
  141.4062   77.7270  220.6705 H   0  0  0  0  0  0  0  0  0  0  0  0
  143.1045   77.1169  220.9008 H   0  0  0  0  0  0  0  0  0  0  0  0
  141.6506   77.8070  218.3505 H   0  0  0  0  0  0  0  0  0  0  0  0
  143.2441   78.3881  218.9748 H   0  0  0  0  0  0  0  0  0  0  0  0
  143.5438   76.7630  217.1137 H   0  0  0  0  0  0  0  0  0  0  0  0
  144.2128   76.1209  218.6262 H   0  0  0  0  0  0  0  0  0  0  0  0
  141.3281   75.6214  217.7071 H   0  0  0  0  0  0  0  0  0  0  0  0
  142.6682   74.5090  217.3266 H   0  0  0  0  0  0  0  0  0  0  0  0
  141.4789   73.8338  219.4306 H   0  0  0  0  0  0  0  0  0  0  0  0
  144.3543   75.8906  220.5758 H   0  0  0  0  0  0  0  0  0  0  0  0
  146.4603   74.8319  221.3210 H   0  0  0  0  0  0  0  0  0  0  0  0
  146.7956   72.3813  221.0472 H   0  0  0  0  0  0  0  0  0  0  0  0
  144.9566   71.0525  220.0126 H   0  0  0  0  0  0  0  0  0  0  0  0
  139.2203   69.9900  222.4662 H   0  0  0  0  0  0  0  0  0  0  0  0
  138.8763   68.5408  224.4497 H   0  0  0  0  0  0  0  0  0  0  0  0
  139.2001   68.1752  226.8400 H   0  0  0  0  0  0  0  0  0  0  0  0
  141.2783   71.1300  229.1566 H   0  0  0  0  0  0  0  0  0  0  0  0
  141.5911   72.5445  227.1188 H   0  0  0  0  0  0  0  0  0  0  0  0
  1  2  2  0
  2  3  1  0
  3  4  1  0
  4  5  1  0
  5  6  2  0
  5  7  1  0
  7  8  1  0
  8  9  1  0
  9 10  1  0
 10 11  1  0
 11 12  1  0
 12 13  1  0
 13 14  2  0
 14 15  1  0
 15 16  2  0
 16 17  1  0
 17 18  2  0
  2 19  1  0
 19 20  2  0
 20 21  1  0
 21 22  2  0
 22 23  1  0
 23 24  2  0
 24 25  1  0
 24 26  1  0
 26 27  2  0
 27 28  1  0
 28 29  2  0
 12  7  1  0
 18 13  1  0
 29 19  1  0
 28 22  1  0
  3 30  1  0
  4 31  1  0
  4 32  1  0
  8 33  1  0
  8 34  1  0
  9 35  1  0
  9 36  1  0
 10 37  1  0
 10 38  1  0
 11 39  1  0
 11 40  1  0
 12 41  1  6
 14 42  1  0
 15 43  1  0
 16 44  1  0
 17 45  1  0
 20 46  1  0
 21 47  1  0
 23 48  1  0
 26 49  1  0
 27 50  1  0
M  END
>  <smiles>  (54) 
O=C(NCC(=O)N1CCCCC1c1ccccn1)c1ccc2cc(F)ccc2n1

>  <score_type>  (54) 
oracle

>  <origin>  (54) 
autodockgpu

>  <m_score__min__energy>  (54) 
-8.8900000000000006

>  <m_primary>  (54) 
energy

>  <rmsd>  (54) 
4.0682769744581435

>  <m_score__min__rmsd>  (54) 
4.0682769744581435

>  <meeko>  (54) 
{"free_energy": -8.67, "intermolecular_energy": -10.16, "internal_energy": -1.6, "cluster_size": 10, "cluster_id": 2, "rank_in_cluster": 3}

>  <energy>  (54) 
-8.73

>  <cluster_rmsd>  (54) 
1.18

>  <cluster>  (54) 
1

$$$$

     RDKit          3D

 50 53  0  0  0  0  0  0  0  0999 V2000
  140.4390   71.8040  221.0900 O   0  0  0  0  0  0  0  0  0  0  0  0
  140.0690   72.2540  222.2250 C   0  0  0  0  0  0  0  0  0  0  0  0
  139.6870   73.6260  222.3400 N   0  0  0  0  0  0  0  0  0  0  0  0
  139.7060   74.5240  221.2150 C   0  0  0  0  0  0  0  0  0  0  0  0
  139.5790   75.9430  221.6390 C   0  0  0  0  0  0  0  0  0  0  0  0
  138.9590   76.1850  222.7110 O   0  0  0  0  0  0  0  0  0  0  0  0
  140.1180   77.0290  220.8960 N   0  0  0  0  0  0  0  0  0  0  0  0
  139.3180   77.6020  219.8410 C   0  0  0  0  0  0  0  0  0  0  0  0
  140.1530   78.0950  218.6860 C   0  0  0  0  0  0  0  0  0  0  0  0
  141.4230   78.7780  219.1820 C   0  0  0  0  0  0  0  0  0  0  0  0
  142.1900   77.7390  219.9620 C   0  0  0  0  0  0  0  0  0  0  0  0
  141.4410   77.4890  221.2490 C   0  0  1  0  0  0  0  0  0  0  0  0
  141.4350   78.6750  222.1230 C   0  0  0  0  0  0  0  0  0  0  0  0
  142.6010   79.3740  222.4370 C   0  0  0  0  0  0  0  0  0  0  0  0
  142.5760   80.4930  223.2580 C   0  0  0  0  0  0  0  0  0  0  0  0
  141.3940   80.9430  223.7860 C   0  0  0  0  0  0  0  0  0  0  0  0
  140.2500   80.2410  223.4660 C   0  0  0  0  0  0  0  0  0  0  0  0
  140.3040   79.1590  222.6660 N   0  0  0  0  0  0  0  0  0  0  0  0
  140.0290   71.3980  223.3930 C   0  0  0  0  0  0  0  0  0  0  0  0
  139.5750   70.1030  223.2710 C   0  0  0  0  0  0  0  0  0  0  0  0
  139.5300   69.2740  224.3710 C   0  0  0  0  0  0  0  0  0  0  0  0
  139.9440   69.7540  225.6020 C   0  0  0  0  0  0  0  0  0  0  0  0
  139.9180   68.9730  226.7180 C   0  0  0  0  0  0  0  0  0  0  0  0
  140.3380   69.4950  227.9110 C   0  0  0  0  0  0  0  0  0  0  0  0
  140.3050   68.6930  229.0240 F   0  0  0  0  0  0  0  0  0  0  0  0
  140.7880   70.8010  227.9990 C   0  0  0  0  0  0  0  0  0  0  0  0
  140.8210   71.6070  226.8800 C   0  0  0  0  0  0  0  0  0  0  0  0
  140.3920   71.0520  225.6930 C   0  0  0  0  0  0  0  0  0  0  0  0
  140.4310   71.8580  224.6030 N   0  0  0  0  0  0  0  0  0  0  0  0
  139.3830   74.0020  223.2600 H   0  0  0  0  0  0  0  0  0  0  0  0
  140.6557   74.3976  220.6745 H   0  0  0  0  0  0  0  0  0  0  0  0
  138.8486   74.2819  220.5698 H   0  0  0  0  0  0  0  0  0  0  0  0
  138.6212   76.8356  219.4707 H   0  0  0  0  0  0  0  0  0  0  0  0
  138.7826   78.4669  220.2596 H   0  0  0  0  0  0  0  0  0  0  0  0
  140.4288   77.2403  218.0509 H   0  0  0  0  0  0  0  0  0  0  0  0
  139.5628   78.8258  218.1137 H   0  0  0  0  0  0  0  0  0  0  0  0
  142.0217   79.1325  218.3300 H   0  0  0  0  0  0  0  0  0  0  0  0
  141.1872   79.6517  219.8073 H   0  0  0  0  0  0  0  0  0  0  0  0
  142.2576   76.8077  219.3805 H   0  0  0  0  0  0  0  0  0  0  0  0
  143.2114   78.0894  220.1714 H   0  0  0  0  0  0  0  0  0  0  0  0
  141.9443   76.7148  221.8467 H   0  0  0  0  0  0  0  0  0  0  0  0
  143.5613   79.0307  222.0248 H   0  0  0  0  0  0  0  0  0  0  0  0
  143.5125   81.0229  223.4867 H   0  0  0  0  0  0  0  0  0  0  0  0
  141.3587   81.8279  224.4384 H   0  0  0  0  0  0  0  0  0  0  0  0
  139.2809   80.5695  223.8697 H   0  0  0  0  0  0  0  0  0  0  0  0
  139.2466   69.7286  222.2902 H   0  0  0  0  0  0  0  0  0  0  0  0
  139.1683   68.2399  224.2719 H   0  0  0  0  0  0  0  0  0  0  0  0
  139.5630   67.9334  226.6606 H   0  0  0  0  0  0  0  0  0  0  0  0
  141.1218   71.1992  228.9685 H   0  0  0  0  0  0  0  0  0  0  0  0
  141.1743   72.6474  226.9324 H   0  0  0  0  0  0  0  0  0  0  0  0
  1  2  2  0
  2  3  1  0
  3  4  1  0
  4  5  1  0
  5  6  2  0
  5  7  1  0
  7  8  1  0
  8  9  1  0
  9 10  1  0
 10 11  1  0
 11 12  1  0
 12 13  1  0
 13 14  2  0
 14 15  1  0
 15 16  2  0
 16 17  1  0
 17 18  2  0
  2 19  1  0
 19 20  2  0
 20 21  1  0
 21 22  2  0
 22 23  1  0
 23 24  2  0
 24 25  1  0
 24 26  1  0
 26 27  2  0
 27 28  1  0
 28 29  2  0
 12  7  1  0
 18 13  1  0
 29 19  1  0
 28 22  1  0
  3 30  1  0
  4 31  1  0
  4 32  1  0
  8 33  1  0
  8 34  1  0
  9 35  1  0
  9 36  1  0
 10 37  1  0
 10 38  1  0
 11 39  1  0
 11 40  1  0
 12 41  1  1
 14 42  1  0
 15 43  1  0
 16 44  1  0
 17 45  1  0
 20 46  1  0
 21 47  1  0
 23 48  1  0
 26 49  1  0
 27 50  1  0
M  END
>  <smiles>  (55) 
O=C(NCC(=O)N1CCCCC1c1ccccn1)c1ccc2cc(F)ccc2n1

>  <score_type>  (55) 
oracle

>  <origin>  (55) 
autodockgpu

>  <m_score__min__energy>  (55) 
-8.8900000000000006

>  <m_primary>  (55) 
energy

>  <rmsd>  (55) 
2.204724391285872

>  <m_score__min__rmsd>  (55) 
2.204724391285872

>  <meeko>  (55) 
{"free_energy": -8.48, "intermolecular_energy": -9.97, "internal_energy": -1.94, "cluster_size": 27, "cluster_id": 1, "rank_in_cluster": 18}

>  <energy>  (55) 
-8.68

>  <cluster_rmsd>  (55) 
1.2

>  <cluster>  (55) 
1

$$$$

     RDKit          3D

 50 53  0  0  0  0  0  0  0  0999 V2000
  141.0980   72.0140  221.3330 O   0  0  0  0  0  0  0  0  0  0  0  0
  140.4100   72.3870  222.3400 C   0  0  0  0  0  0  0  0  0  0  0  0
  139.8140   73.6860  222.3340 N   0  0  0  0  0  0  0  0  0  0  0  0
  139.9650   74.5940  221.2270 C   0  0  0  0  0  0  0  0  0  0  0  0
  139.6570   75.9950  221.6150 C   0  0  0  0  0  0  0  0  0  0  0  0
  138.9880   76.1810  222.6690 O   0  0  0  0  0  0  0  0  0  0  0  0
  140.0760   77.1230  220.8580 N   0  0  0  0  0  0  0  0  0  0  0  0
  139.0950   77.8120  220.0550 C   0  0  0  0  0  0  0  0  0  0  0  0
  139.6810   78.3760  218.7850 C   0  0  0  0  0  0  0  0  0  0  0  0
  141.0630   78.9720  219.0390 C   0  0  0  0  0  0  0  0  0  0  0  0
  141.9270   77.8430  219.5450 C   0  0  0  0  0  0  0  0  0  0  0  0
  141.4650   77.5060  220.9430 C   0  0  1  0  0  0  0  0  0  0  0  0
  141.7120   78.6110  221.8860 C   0  0  0  0  0  0  0  0  0  0  0  0
  141.4960   78.4810  223.2580 C   0  0  0  0  0  0  0  0  0  0  0  0
  141.7390   79.5310  224.1330 C   0  0  0  0  0  0  0  0  0  0  0  0
  142.2010   80.7340  223.6650 C   0  0  0  0  0  0  0  0  0  0  0  0
  142.4090   80.8470  222.3060 C   0  0  0  0  0  0  0  0  0  0  0  0
  142.1650   79.8110  221.4810 N   0  0  0  0  0  0  0  0  0  0  0  0
  140.2230   71.5180  223.4830 C   0  0  0  0  0  0  0  0  0  0  0  0
  139.5830   70.3080  223.3190 C   0  0  0  0  0  0  0  0  0  0  0  0
  139.3950   69.4680  224.3960 C   0  0  0  0  0  0  0  0  0  0  0  0
  139.8560   69.8500  225.6450 C   0  0  0  0  0  0  0  0  0  0  0  0
  139.6940   69.0540  226.7380 C   0  0  0  0  0  0  0  0  0  0  0  0
  140.1670   69.4760  227.9500 C   0  0  0  0  0  0  0  0  0  0  0  0
  139.9950   68.6600  229.0400 F   0  0  0  0  0  0  0  0  0  0  0  0
  140.8050   70.6980  228.0810 C   0  0  0  0  0  0  0  0  0  0  0  0
  140.9780   71.5170  226.9840 C   0  0  0  0  0  0  0  0  0  0  0  0
  140.4910   71.0630  225.7770 C   0  0  0  0  0  0  0  0  0  0  0  0
  140.6680   71.8810  224.7100 N   0  0  0  0  0  0  0  0  0  0  0  0
  139.2510   74.0000  223.1490 H   0  0  0  0  0  0  0  0  0  0  0  0
  141.0027   74.5448  220.8654 H   0  0  0  0  0  0  0  0  0  0  0  0
  139.2570   74.2941  220.4404 H   0  0  0  0  0  0  0  0  0  0  0  0
  138.2955   77.1042  219.7906 H   0  0  0  0  0  0  0  0  0  0  0  0
  138.7097   78.6544  220.6481 H   0  0  0  0  0  0  0  0  0  0  0  0
  139.7675   77.5712  218.0401 H   0  0  0  0  0  0  0  0  0  0  0  0
  139.0179   79.1723  218.4160 H   0  0  0  0  0  0  0  0  0  0  0  0
  141.4786   79.3805  218.1060 H   0  0  0  0  0  0  0  0  0  0  0  0
  141.0149   79.7948  219.7674 H   0  0  0  0  0  0  0  0  0  0  0  0
  141.8173   76.9648  218.8917 H   0  0  0  0  0  0  0  0  0  0  0  0
  142.9864   78.1390  219.5489 H   0  0  0  0  0  0  0  0  0  0  0  0
  142.0454   76.6658  221.3520 H   0  0  0  0  0  0  0  0  0  0  0  0
  141.1247   77.5249  223.6555 H   0  0  0  0  0  0  0  0  0  0  0  0
  141.5595   79.3968  225.2099 H   0  0  0  0  0  0  0  0  0  0  0  0
  142.3979   81.5753  224.3458 H   0  0  0  0  0  0  0  0  0  0  0  0
  142.7791   81.7960  221.8907 H   0  0  0  0  0  0  0  0  0  0  0  0
  139.2205   70.0112  222.3238 H   0  0  0  0  0  0  0  0  0  0  0  0
  138.8835   68.5031  224.2645 H   0  0  0  0  0  0  0  0  0  0  0  0
  139.1879   68.0816  226.6471 H   0  0  0  0  0  0  0  0  0  0  0  0
  141.1762   71.0179  229.0658 H   0  0  0  0  0  0  0  0  0  0  0  0
  141.4829   72.4905  227.0691 H   0  0  0  0  0  0  0  0  0  0  0  0
  1  2  2  0
  2  3  1  0
  3  4  1  0
  4  5  1  0
  5  6  2  0
  5  7  1  0
  7  8  1  0
  8  9  1  0
  9 10  1  0
 10 11  1  0
 11 12  1  0
 12 13  1  0
 13 14  2  0
 14 15  1  0
 15 16  2  0
 16 17  1  0
 17 18  2  0
  2 19  1  0
 19 20  2  0
 20 21  1  0
 21 22  2  0
 22 23  1  0
 23 24  2  0
 24 25  1  0
 24 26  1  0
 26 27  2  0
 27 28  1  0
 28 29  2  0
 12  7  1  0
 18 13  1  0
 29 19  1  0
 28 22  1  0
  3 30  1  0
  4 31  1  0
  4 32  1  0
  8 33  1  0
  8 34  1  0
  9 35  1  0
  9 36  1  0
 10 37  1  0
 10 38  1  0
 11 39  1  0
 11 40  1  0
 12 41  1  1
 14 42  1  0
 15 43  1  0
 16 44  1  0
 17 45  1  0
 20 46  1  0
 21 47  1  0
 23 48  1  0
 26 49  1  0
 27 50  1  0
M  END
>  <smiles>  (56) 
O=C(NCC(=O)N1CCCCC1c1ccccn1)c1ccc2cc(F)ccc2n1

>  <score_type>  (56) 
oracle

>  <origin>  (56) 
autodockgpu

>  <m_score__min__energy>  (56) 
-8.8900000000000006

>  <m_primary>  (56) 
energy

>  <rmsd>  (56) 
2.5260160196270207

>  <m_score__min__rmsd>  (56) 
2.5260160196270207

>  <meeko>  (56) 
{"free_energy": -8.6, "intermolecular_energy": -10.09, "internal_energy": -1.76, "cluster_size": 27, "cluster_id": 1, "rank_in_cluster": 10}

>  <energy>  (56) 
-8.66

>  <cluster_rmsd>  (56) 
1.18

>  <cluster>  (56) 
1

$$$$

     RDKit          3D

 50 53  0  0  0  0  0  0  0  0999 V2000
  141.4330   72.1860  221.5660 O   0  0  0  0  0  0  0  0  0  0  0  0
  140.4720   72.3860  222.3800 C   0  0  0  0  0  0  0  0  0  0  0  0
  139.5770   73.4750  222.1450 N   0  0  0  0  0  0  0  0  0  0  0  0
  139.7220   74.3580  221.0180 C   0  0  0  0  0  0  0  0  0  0  0  0
  140.8100   75.3480  221.2270 C   0  0  0  0  0  0  0  0  0  0  0  0
  140.8580   75.9450  222.3380 O   0  0  0  0  0  0  0  0  0  0  0  0
  141.7890   75.6500  220.2410 N   0  0  0  0  0  0  0  0  0  0  0  0
  142.2610   77.0100  220.1390 C   0  0  0  0  0  0  0  0  0  0  0  0
  142.5960   77.4000  218.7210 C   0  0  0  0  0  0  0  0  0  0  0  0
  143.2950   76.2570  217.9910 C   0  0  0  0  0  0  0  0  0  0  0  0
  142.3290   75.0980  217.9890 C   0  0  0  0  0  0  0  0  0  0  0  0
  142.2490   74.5690  219.4020 C   0  0  1  0  0  0  0  0  0  0  0  0
  143.5260   73.9840  219.8450 C   0  0  0  0  0  0  0  0  0  0  0  0
  144.5170   74.7450  220.4660 C   0  0  0  0  0  0  0  0  0  0  0  0
  145.7130   74.1760  220.8830 C   0  0  0  0  0  0  0  0  0  0  0  0
  145.9520   72.8400  220.6910 C   0  0  0  0  0  0  0  0  0  0  0  0
  144.9620   72.1020  220.0770 C   0  0  0  0  0  0  0  0  0  0  0  0
  143.8110   72.6810  219.6840 N   0  0  0  0  0  0  0  0  0  0  0  0
  140.2750   71.5310  223.5320 C   0  0  0  0  0  0  0  0  0  0  0  0
  139.6040   70.3370  223.3850 C   0  0  0  0  0  0  0  0  0  0  0  0
  139.4070   69.5100  224.4700 C   0  0  0  0  0  0  0  0  0  0  0  0
  139.8890   69.8900  225.7110 C   0  0  0  0  0  0  0  0  0  0  0  0
  139.7190   69.1080  226.8130 C   0  0  0  0  0  0  0  0  0  0  0  0
  140.2140   69.5280  228.0160 C   0  0  0  0  0  0  0  0  0  0  0  0
  140.0340   68.7260  229.1150 F   0  0  0  0  0  0  0  0  0  0  0  0
  140.8840   70.7350  228.1300 C   0  0  0  0  0  0  0  0  0  0  0  0
  141.0660   71.5410  227.0250 C   0  0  0  0  0  0  0  0  0  0  0  0
  140.5560   71.0890  225.8270 C   0  0  0  0  0  0  0  0  0  0  0  0
  140.7420   71.8940  224.7520 N   0  0  0  0  0  0  0  0  0  0  0  0
  138.7900   73.6470  222.8020 H   0  0  0  0  0  0  0  0  0  0  0  0
  139.9526   73.7594  220.1244 H   0  0  0  0  0  0  0  0  0  0  0  0
  138.7784   74.9094  220.8930 H   0  0  0  0  0  0  0  0  0  0  0  0
  141.4775   77.6845  220.5147 H   0  0  0  0  0  0  0  0  0  0  0  0
  143.1826   77.0896  220.7343 H   0  0  0  0  0  0  0  0  0  0  0  0
  141.6673   77.6527  218.1883 H   0  0  0  0  0  0  0  0  0  0  0  0
  143.2733   78.2664  218.7461 H   0  0  0  0  0  0  0  0  0  0  0  0
  143.5342   76.5545  216.9594 H   0  0  0  0  0  0  0  0  0  0  0  0
  144.2400   75.9873  218.4852 H   0  0  0  0  0  0  0  0  0  0  0  0
  141.3362   75.4375  217.6586 H   0  0  0  0  0  0  0  0  0  0  0  0
  142.6703   74.3112  217.3002 H   0  0  0  0  0  0  0  0  0  0  0  0
  141.5344   73.7351  219.4653 H   0  0  0  0  0  0  0  0  0  0  0  0
  144.3470   75.8195  220.6288 H   0  0  0  0  0  0  0  0  0  0  0  0
  146.4744   74.8021  221.3711 H   0  0  0  0  0  0  0  0  0  0  0  0
  146.8954   72.3753  221.0136 H   0  0  0  0  0  0  0  0  0  0  0  0
  145.1143   71.0261  219.9059 H   0  0  0  0  0  0  0  0  0  0  0  0
  139.2232   70.0418  222.3961 H   0  0  0  0  0  0  0  0  0  0  0  0
  138.8715   68.5565  224.3509 H   0  0  0  0  0  0  0  0  0  0  0  0
  139.1884   68.1475  226.7358 H   0  0  0  0  0  0  0  0  0  0  0  0
  141.2737   71.0531  229.1082 H   0  0  0  0  0  0  0  0  0  0  0  0
  141.5952   72.5026  227.0971 H   0  0  0  0  0  0  0  0  0  0  0  0
  1  2  2  0
  2  3  1  0
  3  4  1  0
  4  5  1  0
  5  6  2  0
  5  7  1  0
  7  8  1  0
  8  9  1  0
  9 10  1  0
 10 11  1  0
 11 12  1  0
 12 13  1  0
 13 14  2  0
 14 15  1  0
 15 16  2  0
 16 17  1  0
 17 18  2  0
  2 19  1  0
 19 20  2  0
 20 21  1  0
 21 22  2  0
 22 23  1  0
 23 24  2  0
 24 25  1  0
 24 26  1  0
 26 27  2  0
 27 28  1  0
 28 29  2  0
 12  7  1  0
 18 13  1  0
 29 19  1  0
 28 22  1  0
  3 30  1  0
  4 31  1  0
  4 32  1  0
  8 33  1  0
  8 34  1  0
  9 35  1  0
  9 36  1  0
 10 37  1  0
 10 38  1  0
 11 39  1  0
 11 40  1  0
 12 41  1  6
 14 42  1  0
 15 43  1  0
 16 44  1  0
 17 45  1  0
 20 46  1  0
 21 47  1  0
 23 48  1  0
 26 49  1  0
 27 50  1  0
M  END
>  <smiles>  (57) 
O=C(NCC(=O)N1CCCCC1c1ccccn1)c1ccc2cc(F)ccc2n1

>  <score_type>  (57) 
oracle

>  <origin>  (57) 
autodockgpu

>  <m_score__min__energy>  (57) 
-8.8900000000000006

>  <m_primary>  (57) 
energy

>  <rmsd>  (57) 
4.1028099759775385

>  <m_score__min__rmsd>  (57) 
4.1028099759775385

>  <meeko>  (57) 
{"free_energy": -8.71, "intermolecular_energy": -10.2, "internal_energy": -1.63, "cluster_size": 10, "cluster_id": 2, "rank_in_cluster": 1}

>  <energy>  (57) 
-8.63

>  <cluster_rmsd>  (57) 
1.2

>  <cluster>  (57) 
1

$$$$

     RDKit          3D

 50 53  0  0  0  0  0  0  0  0999 V2000
  141.1070   72.0010  221.3300 O   0  0  0  0  0  0  0  0  0  0  0  0
  140.3480   72.3270  222.3020 C   0  0  0  0  0  0  0  0  0  0  0  0
  139.6150   73.5520  222.2330 N   0  0  0  0  0  0  0  0  0  0  0  0
  139.7040   74.4360  221.1000 C   0  0  0  0  0  0  0  0  0  0  0  0
  140.7980   75.4290  221.2580 C   0  0  0  0  0  0  0  0  0  0  0  0
  140.8660   76.0630  222.3460 O   0  0  0  0  0  0  0  0  0  0  0  0
  141.7620   75.6940  220.2460 N   0  0  0  0  0  0  0  0  0  0  0  0
  142.2540   77.0440  220.1060 C   0  0  0  0  0  0  0  0  0  0  0  0
  142.5660   77.3990  218.6740 C   0  0  0  0  0  0  0  0  0  0  0  0
  143.2320   76.2300  217.9540 C   0  0  0  0  0  0  0  0  0  0  0  0
  142.2470   75.0870  217.9960 C   0  0  0  0  0  0  0  0  0  0  0  0
  142.1870   74.5890  219.4200 C   0  0  1  0  0  0  0  0  0  0  0  0
  143.4630   73.9920  219.8510 C   0  0  0  0  0  0  0  0  0  0  0  0
  144.4790   74.7490  220.4350 C   0  0  0  0  0  0  0  0  0  0  0  0
  145.6740   74.1690  220.8400 C   0  0  0  0  0  0  0  0  0  0  0  0
  145.8870   72.8250  220.6720 C   0  0  0  0  0  0  0  0  0  0  0  0
  144.8720   72.0910  220.0930 C   0  0  0  0  0  0  0  0  0  0  0  0
  143.7240   72.6810  219.7110 N   0  0  0  0  0  0  0  0  0  0  0  0
  140.2180   71.4790  223.4690 C   0  0  0  0  0  0  0  0  0  0  0  0
  139.6090   70.2490  223.3490 C   0  0  0  0  0  0  0  0  0  0  0  0
  139.4760   69.4280  224.4490 C   0  0  0  0  0  0  0  0  0  0  0  0
  139.9600   69.8510  225.6750 C   0  0  0  0  0  0  0  0  0  0  0  0
  139.8510   69.0750  226.7900 C   0  0  0  0  0  0  0  0  0  0  0  0
  140.3450   69.5380  227.9790 C   0  0  0  0  0  0  0  0  0  0  0  0
  140.2270   68.7420  229.0910 F   0  0  0  0  0  0  0  0  0  0  0  0
  140.9510   70.7800  228.0650 C   0  0  0  0  0  0  0  0  0  0  0  0
  141.0690   71.5790  226.9460 C   0  0  0  0  0  0  0  0  0  0  0  0
  140.5630   71.0850  225.7640 C   0  0  0  0  0  0  0  0  0  0  0  0
  140.6870   71.8830  224.6750 N   0  0  0  0  0  0  0  0  0  0  0  0
  138.9940   73.8270  223.0180 H   0  0  0  0  0  0  0  0  0  0  0  0
  139.8938   73.8382  220.1963 H   0  0  0  0  0  0  0  0  0  0  0  0
  138.7540   74.9846  221.0196 H   0  0  0  0  0  0  0  0  0  0  0  0
  141.4894   77.7391  220.4833 H   0  0  0  0  0  0  0  0  0  0  0  0
  143.1888   77.1205  220.6807 H   0  0  0  0  0  0  0  0  0  0  0  0
  141.6307   77.6555  218.1549 H   0  0  0  0  0  0  0  0  0  0  0  0
  143.2573   78.2546  218.6674 H   0  0  0  0  0  0  0  0  0  0  0  0
  143.4548   76.5022  216.9117 H   0  0  0  0  0  0  0  0  0  0  0  0
  144.1827   75.9551  218.4343 H   0  0  0  0  0  0  0  0  0  0  0  0
  141.2534   75.4361  217.6784 H   0  0  0  0  0  0  0  0  0  0  0  0
  142.5616   74.2805  217.3174 H   0  0  0  0  0  0  0  0  0  0  0  0
  141.4601   73.7687  219.5133 H   0  0  0  0  0  0  0  0  0  0  0  0
  144.3302   75.8295  220.5778 H   0  0  0  0  0  0  0  0  0  0  0  0
  146.4555   74.7924  221.2990 H   0  0  0  0  0  0  0  0  0  0  0  0
  146.8287   72.3511  220.9860 H   0  0  0  0  0  0  0  0  0  0  0  0
  145.0028   71.0093  219.9416 H   0  0  0  0  0  0  0  0  0  0  0  0
  139.2271   69.9203  222.3712 H   0  0  0  0  0  0  0  0  0  0  0  0
  138.9898   68.4460  224.3531 H   0  0  0  0  0  0  0  0  0  0  0  0
  139.3709   68.0868  226.7347 H   0  0  0  0  0  0  0  0  0  0  0  0
  141.3409   71.1321  229.0315 H   0  0  0  0  0  0  0  0  0  0  0  0
  141.5469   72.5685  226.9959 H   0  0  0  0  0  0  0  0  0  0  0  0
  1  2  2  0
  2  3  1  0
  3  4  1  0
  4  5  1  0
  5  6  2  0
  5  7  1  0
  7  8  1  0
  8  9  1  0
  9 10  1  0
 10 11  1  0
 11 12  1  0
 12 13  1  0
 13 14  2  0
 14 15  1  0
 15 16  2  0
 16 17  1  0
 17 18  2  0
  2 19  1  0
 19 20  2  0
 20 21  1  0
 21 22  2  0
 22 23  1  0
 23 24  2  0
 24 25  1  0
 24 26  1  0
 26 27  2  0
 27 28  1  0
 28 29  2  0
 12  7  1  0
 18 13  1  0
 29 19  1  0
 28 22  1  0
  3 30  1  0
  4 31  1  0
  4 32  1  0
  8 33  1  0
  8 34  1  0
  9 35  1  0
  9 36  1  0
 10 37  1  0
 10 38  1  0
 11 39  1  0
 11 40  1  0
 12 41  1  6
 14 42  1  0
 15 43  1  0
 16 44  1  0
 17 45  1  0
 20 46  1  0
 21 47  1  0
 23 48  1  0
 26 49  1  0
 27 50  1  0
M  END
>  <smiles>  (58) 
O=C(NCC(=O)N1CCCCC1c1ccccn1)c1ccc2cc(F)ccc2n1

>  <score_type>  (58) 
oracle

>  <origin>  (58) 
autodockgpu

>  <m_score__min__energy>  (58) 
-8.8900000000000006

>  <m_primary>  (58) 
energy

>  <rmsd>  (58) 
4.07632338679536

>  <m_score__min__rmsd>  (58) 
4.07632338679536

>  <meeko>  (58) 
{"free_energy": -8.7, "intermolecular_energy": -10.19, "internal_energy": -1.65, "cluster_size": 10, "cluster_id": 2, "rank_in_cluster": 2}

>  <energy>  (58) 
-8.62

>  <cluster_rmsd>  (58) 
1.2

>  <cluster>  (58) 
1

$$$$

     RDKit          3D

 50 53  0  0  0  0  0  0  0  0999 V2000
  138.5900   74.5470  222.0190 O   0  0  0  0  0  0  0  0  0  0  0  0
  139.7260   75.0560  221.7400 C   0  0  0  0  0  0  0  0  0  0  0  0
  139.8760   76.4770  221.7560 N   0  0  0  0  0  0  0  0  0  0  0  0
  138.7850   77.3590  222.0760 C   0  0  0  0  0  0  0  0  0  0  0  0
  139.2560   78.6020  222.7410 C   0  0  0  0  0  0  0  0  0  0  0  0
  138.4340   79.2330  223.4610 O   0  0  0  0  0  0  0  0  0  0  0  0
  140.5780   79.1070  222.6030 N   0  0  0  0  0  0  0  0  0  0  0  0
  141.5590   78.7370  223.5950 C   0  0  0  0  0  0  0  0  0  0  0  0
  142.5610   79.8340  223.8530 C   0  0  0  0  0  0  0  0  0  0  0  0
  142.9640   80.5230  222.5520 C   0  0  0  0  0  0  0  0  0  0  0  0
  141.7000   81.1090  221.9720 C   0  0  0  0  0  0  0  0  0  0  0  0
  140.8520   79.9630  221.4740 C   0  0  1  0  0  0  0  0  0  0  0  0
  141.4850   79.2590  220.3450 C   0  0  0  0  0  0  0  0  0  0  0  0
  141.7920   79.9010  219.1450 C   0  0  0  0  0  0  0  0  0  0  0  0
  142.3930   79.2230  218.0930 C   0  0  0  0  0  0  0  0  0  0  0  0
  142.7010   77.8920  218.2090 C   0  0  0  0  0  0  0  0  0  0  0  0
  142.3910   77.2720  219.4010 C   0  0  0  0  0  0  0  0  0  0  0  0
  141.8090   77.9560  220.4050 N   0  0  0  0  0  0  0  0  0  0  0  0
  140.8610   74.2190  221.4110 C   0  0  0  0  0  0  0  0  0  0  0  0
  140.7300   72.8480  221.4590 C   0  0  0  0  0  0  0  0  0  0  0  0
  141.8000   72.0350  221.1490 C   0  0  0  0  0  0  0  0  0  0  0  0
  143.0080   72.6080  220.7890 C   0  0  0  0  0  0  0  0  0  0  0  0
  144.0930   71.8470  220.4740 C   0  0  0  0  0  0  0  0  0  0  0  0
  145.2640   72.4610  220.1260 C   0  0  0  0  0  0  0  0  0  0  0  0
  146.3460   71.6770  219.8110 F   0  0  0  0  0  0  0  0  0  0  0  0
  145.3620   73.8420  220.0880 C   0  0  0  0  0  0  0  0  0  0  0  0
  144.2740   74.6290  220.4040 C   0  0  0  0  0  0  0  0  0  0  0  0
  143.1080   73.9800  220.7510 C   0  0  0  0  0  0  0  0  0  0  0  0
  142.0490   74.7680  221.0590 N   0  0  0  0  0  0  0  0  0  0  0  0
  140.7970   76.9020  221.5310 H   0  0  0  0  0  0  0  0  0  0  0  0
  138.2612   77.6288  221.1471 H   0  0  0  0  0  0  0  0  0  0  0  0
  138.1133   76.8334  222.7707 H   0  0  0  0  0  0  0  0  0  0  0  0
  141.0390   78.5056  224.5363 H   0  0  0  0  0  0  0  0  0  0  0  0
  142.1092   77.8648  223.2121 H   0  0  0  0  0  0  0  0  0  0  0  0
  142.1147   80.5770  224.5304 H   0  0  0  0  0  0  0  0  0  0  0  0
  143.4588   79.3892  224.3070 H   0  0  0  0  0  0  0  0  0  0  0  0
  143.6951   81.3197  222.7539 H   0  0  0  0  0  0  0  0  0  0  0  0
  143.4325   79.8141  221.8534 H   0  0  0  0  0  0  0  0  0  0  0  0
  141.1561   81.6689  222.7470 H   0  0  0  0  0  0  0  0  0  0  0  0
  141.9366   81.8003  221.1497 H   0  0  0  0  0  0  0  0  0  0  0  0
  139.9011   80.3334  221.0635 H   0  0  0  0  0  0  0  0  0  0  0  0
  141.5525   80.9684  219.0298 H   0  0  0  0  0  0  0  0  0  0  0  0
  142.6237   79.7575  217.1597 H   0  0  0  0  0  0  0  0  0  0  0  0
  143.1764   77.3408  217.3842 H   0  0  0  0  0  0  0  0  0  0  0  0
  142.6220   76.2048  219.5338 H   0  0  0  0  0  0  0  0  0  0  0  0
  139.7673   72.3999  221.7460 H   0  0  0  0  0  0  0  0  0  0  0  0
  141.6947   70.9407  221.1874 H   0  0  0  0  0  0  0  0  0  0  0  0
  144.0277   70.7492  220.4994 H   0  0  0  0  0  0  0  0  0  0  0  0
  146.3139   74.3145  219.8039 H   0  0  0  0  0  0  0  0  0  0  0  0
  144.3341   75.7271  220.3802 H   0  0  0  0  0  0  0  0  0  0  0  0
  1  2  2  0
  2  3  1  0
  3  4  1  0
  4  5  1  0
  5  6  2  0
  5  7  1  0
  7  8  1  0
  8  9  1  0
  9 10  1  0
 10 11  1  0
 11 12  1  0
 12 13  1  0
 13 14  2  0
 14 15  1  0
 15 16  2  0
 16 17  1  0
 17 18  2  0
  2 19  1  0
 19 20  2  0
 20 21  1  0
 21 22  2  0
 22 23  1  0
 23 24  2  0
 24 25  1  0
 24 26  1  0
 26 27  2  0
 27 28  1  0
 28 29  2  0
 12  7  1  0
 18 13  1  0
 29 19  1  0
 28 22  1  0
  3 30  1  0
  4 31  1  0
  4 32  1  0
  8 33  1  0
  8 34  1  0
  9 35  1  0
  9 36  1  0
 10 37  1  0
 10 38  1  0
 11 39  1  0
 11 40  1  0
 12 41  1  6
 14 42  1  0
 15 43  1  0
 16 44  1  0
 17 45  1  0
 20 46  1  0
 21 47  1  0
 23 48  1  0
 26 49  1  0
 27 50  1  0
M  END
>  <smiles>  (59) 
O=C(NCC(=O)N1CCCCC1c1ccccn1)c1ccc2cc(F)ccc2n1

>  <score_type>  (59) 
oracle

>  <origin>  (59) 
autodockgpu

>  <m_score__min__energy>  (59) 
-8.8900000000000006

>  <m_primary>  (59) 
energy

>  <rmsd>  (59) 
6.040590546074413

>  <m_score__min__rmsd>  (59) 
6.040590546074413

>  <meeko>  (59) 
{"free_energy": -7.0, "intermolecular_energy": -8.49, "internal_energy": -3.01, "cluster_size": 12, "cluster_id": 4, "rank_in_cluster": 9}

>  <energy>  (59) 
-8.62

>  <cluster_rmsd>  (59) 
1.19

>  <cluster>  (59) 
1

$$$$

     RDKit          3D

 50 53  0  0  0  0  0  0  0  0999 V2000
  140.1790   71.7820  221.0160 O   0  0  0  0  0  0  0  0  0  0  0  0
  139.9580   72.2570  222.1790 C   0  0  0  0  0  0  0  0  0  0  0  0
  139.6900   73.6530  222.3220 N   0  0  0  0  0  0  0  0  0  0  0  0
  139.6620   74.5480  221.1950 C   0  0  0  0  0  0  0  0  0  0  0  0
  139.6770   75.9720  221.6190 C   0  0  0  0  0  0  0  0  0  0  0  0
  139.2230   76.2510  222.7630 O   0  0  0  0  0  0  0  0  0  0  0  0
  140.1740   77.0240  220.8010 N   0  0  0  0  0  0  0  0  0  0  0  0
  139.3420   77.5050  219.7250 C   0  0  0  0  0  0  0  0  0  0  0  0
  140.1460   77.9470  218.5270 C   0  0  0  0  0  0  0  0  0  0  0  0
  141.4030   78.6970  218.9600 C   0  0  0  0  0  0  0  0  0  0  0  0
  142.2100   77.7310  219.7910 C   0  0  0  0  0  0  0  0  0  0  0  0
  141.4870   77.5420  221.1030 C   0  0  1  0  0  0  0  0  0  0  0  0
  141.4590   78.7810  221.9000 C   0  0  0  0  0  0  0  0  0  0  0  0
  142.1970   78.9270  223.0750 C   0  0  0  0  0  0  0  0  0  0  0  0
  142.1630   80.1040  223.8110 C   0  0  0  0  0  0  0  0  0  0  0  0
  141.3940   81.1610  223.3980 C   0  0  0  0  0  0  0  0  0  0  0  0
  140.6700   81.0000  222.2350 C   0  0  0  0  0  0  0  0  0  0  0  0
  140.7240   79.8470  221.5410 N   0  0  0  0  0  0  0  0  0  0  0  0
  139.9730   71.4060  223.3510 C   0  0  0  0  0  0  0  0  0  0  0  0
  139.5530   70.0980  223.2460 C   0  0  0  0  0  0  0  0  0  0  0  0
  139.5600   69.2730  224.3500 C   0  0  0  0  0  0  0  0  0  0  0  0
  139.9940   69.7710  225.5680 C   0  0  0  0  0  0  0  0  0  0  0  0
  140.0190   68.9950  226.6870 C   0  0  0  0  0  0  0  0  0  0  0  0
  140.4560   69.5330  227.8660 C   0  0  0  0  0  0  0  0  0  0  0  0
  140.4750   68.7360  228.9830 F   0  0  0  0  0  0  0  0  0  0  0  0
  140.8720   70.8520  227.9370 C   0  0  0  0  0  0  0  0  0  0  0  0
  140.8530   71.6530  226.8140 C   0  0  0  0  0  0  0  0  0  0  0  0
  140.4080   71.0810  225.6420 C   0  0  0  0  0  0  0  0  0  0  0  0
  140.3950   71.8820  224.5480 N   0  0  0  0  0  0  0  0  0  0  0  0
  139.5070   74.0500  223.2650 H   0  0  0  0  0  0  0  0  0  0  0  0
  140.5431   74.3549  220.5654 H   0  0  0  0  0  0  0  0  0  0  0  0
  138.7304   74.3673  220.6387 H   0  0  0  0  0  0  0  0  0  0  0  0
  138.6630   76.6968  219.4156 H   0  0  0  0  0  0  0  0  0  0  0  0
  138.7870   78.3791  220.0964 H   0  0  0  0  0  0  0  0  0  0  0  0
  140.4382   77.0618  217.9431 H   0  0  0  0  0  0  0  0  0  0  0  0
  139.5266   78.6221  217.9182 H   0  0  0  0  0  0  0  0  0  0  0  0
  141.9794   79.0143  218.0785 H   0  0  0  0  0  0  0  0  0  0  0  0
  141.1504   79.6015  219.5328 H   0  0  0  0  0  0  0  0  0  0  0  0
  142.2958   76.7672  219.2679 H   0  0  0  0  0  0  0  0  0  0  0  0
  143.2239   78.1220  219.9617 H   0  0  0  0  0  0  0  0  0  0  0  0
  142.0206   76.8216  221.7404 H   0  0  0  0  0  0  0  0  0  0  0  0
  142.8197   78.0910  223.4262 H   0  0  0  0  0  0  0  0  0  0  0  0
  142.7577   80.1889  224.7325 H   0  0  0  0  0  0  0  0  0  0  0  0
  141.3559   82.0994  223.9707 H   0  0  0  0  0  0  0  0  0  0  0  0
  140.0401   81.8244  221.8695 H   0  0  0  0  0  0  0  0  0  0  0  0
  139.2101   69.7100  222.2755 H   0  0  0  0  0  0  0  0  0  0  0  0
  139.2242   68.2290  224.2650 H   0  0  0  0  0  0  0  0  0  0  0  0
  139.6910   67.9460  226.6429 H   0  0  0  0  0  0  0  0  0  0  0  0
  141.2201   71.2639  228.8957 H   0  0  0  0  0  0  0  0  0  0  0  0
  141.1790   72.7029  226.8525 H   0  0  0  0  0  0  0  0  0  0  0  0
  1  2  2  0
  2  3  1  0
  3  4  1  0
  4  5  1  0
  5  6  2  0
  5  7  1  0
  7  8  1  0
  8  9  1  0
  9 10  1  0
 10 11  1  0
 11 12  1  0
 12 13  1  0
 13 14  2  0
 14 15  1  0
 15 16  2  0
 16 17  1  0
 17 18  2  0
  2 19  1  0
 19 20  2  0
 20 21  1  0
 21 22  2  0
 22 23  1  0
 23 24  2  0
 24 25  1  0
 24 26  1  0
 26 27  2  0
 27 28  1  0
 28 29  2  0
 12  7  1  0
 18 13  1  0
 29 19  1  0
 28 22  1  0
  3 30  1  0
  4 31  1  0
  4 32  1  0
  8 33  1  0
  8 34  1  0
  9 35  1  0
  9 36  1  0
 10 37  1  0
 10 38  1  0
 11 39  1  0
 11 40  1  0
 12 41  1  1
 14 42  1  0
 15 43  1  0
 16 44  1  0
 17 45  1  0
 20 46  1  0
 21 47  1  0
 23 48  1  0
 26 49  1  0
 27 50  1  0
M  END
>  <smiles>  (60) 
O=C(NCC(=O)N1CCCCC1c1ccccn1)c1ccc2cc(F)ccc2n1

>  <score_type>  (60) 
oracle

>  <origin>  (60) 
autodockgpu

>  <m_score__min__energy>  (60) 
-8.8900000000000006

>  <m_primary>  (60) 
energy

>  <rmsd>  (60) 
2.314060413354675

>  <m_score__min__rmsd>  (60) 
2.314060413354675

>  <meeko>  (60) 
{"free_energy": -8.22, "intermolecular_energy": -9.71, "internal_energy": -1.91, "cluster_size": 27, "cluster_id": 1, "rank_in_cluster": 26}

>  <energy>  (60) 
-8.6

>  <cluster_rmsd>  (60) 
1.18

>  <cluster>  (60) 
1

$$$$

     RDKit          3D

 50 53  0  0  0  0  0  0  0  0999 V2000
  141.3250   72.2190  221.4990 O   0  0  0  0  0  0  0  0  0  0  0  0
  140.3970   72.4190  222.3510 C   0  0  0  0  0  0  0  0  0  0  0  0
  139.5240   73.5370  222.1790 N   0  0  0  0  0  0  0  0  0  0  0  0
  139.6560   74.4510  221.0750 C   0  0  0  0  0  0  0  0  0  0  0  0
  140.8750   75.2920  221.1960 C   0  0  0  0  0  0  0  0  0  0  0  0
  141.1000   75.8480  222.3060 O   0  0  0  0  0  0  0  0  0  0  0  0
  141.7900   75.4970  220.1270 N   0  0  0  0  0  0  0  0  0  0  0  0
  142.2650   76.8370  219.8800 C   0  0  0  0  0  0  0  0  0  0  0  0
  142.5090   77.1030  218.4150 C   0  0  0  0  0  0  0  0  0  0  0  0
  143.1490   75.8930  217.7400 C   0  0  0  0  0  0  0  0  0  0  0  0
  142.1760   74.7520  217.8990 C   0  0  0  0  0  0  0  0  0  0  0  0
  142.1840   74.3440  219.3530 C   0  0  1  0  0  0  0  0  0  0  0  0
  143.4830   73.7810  219.7610 C   0  0  0  0  0  0  0  0  0  0  0  0
  144.4420   74.5350  220.4370 C   0  0  0  0  0  0  0  0  0  0  0  0
  145.6590   73.9870  220.8190 C   0  0  0  0  0  0  0  0  0  0  0  0
  145.9510   72.6780  220.5360 C   0  0  0  0  0  0  0  0  0  0  0  0
  144.9930   71.9460  219.8670 C   0  0  0  0  0  0  0  0  0  0  0  0
  143.8210   72.5040  219.5100 N   0  0  0  0  0  0  0  0  0  0  0  0
  140.2140   71.5340  223.4830 C   0  0  0  0  0  0  0  0  0  0  0  0
  139.5390   70.3450  223.3130 C   0  0  0  0  0  0  0  0  0  0  0  0
  139.3560   69.4900  224.3780 C   0  0  0  0  0  0  0  0  0  0  0  0
  139.8560   69.8370  225.6220 C   0  0  0  0  0  0  0  0  0  0  0  0
  139.7000   69.0250  226.7050 C   0  0  0  0  0  0  0  0  0  0  0  0
  140.2120   69.4130  227.9130 C   0  0  0  0  0  0  0  0  0  0  0  0
  140.0450   68.5810  228.9920 F   0  0  0  0  0  0  0  0  0  0  0  0
  140.8850   70.6150  228.0490 C   0  0  0  0  0  0  0  0  0  0  0  0
  141.0520   71.4500  226.9640 C   0  0  0  0  0  0  0  0  0  0  0  0
  140.5250   71.0310  225.7610 C   0  0  0  0  0  0  0  0  0  0  0  0
  140.6980   71.8640  224.7050 N   0  0  0  0  0  0  0  0  0  0  0  0
  138.7640   73.7100  222.8660 H   0  0  0  0  0  0  0  0  0  0  0  0
  139.7132   73.8740  220.1402 H   0  0  0  0  0  0  0  0  0  0  0  0
  138.7804   75.1168  221.0765 H   0  0  0  0  0  0  0  0  0  0  0  0
  141.5134   77.5510  220.2477 H   0  0  0  0  0  0  0  0  0  0  0  0
  143.2246   76.9534  220.4051 H   0  0  0  0  0  0  0  0  0  0  0  0
  141.5494   77.3231  217.9244 H   0  0  0  0  0  0  0  0  0  0  0  0
  143.1935   77.9592  218.3229 H   0  0  0  0  0  0  0  0  0  0  0  0
  143.3219   76.0996  216.6735 H   0  0  0  0  0  0  0  0  0  0  0  0
  144.1224   75.6527  218.1925 H   0  0  0  0  0  0  0  0  0  0  0  0
  141.1666   75.0763  217.6060 H   0  0  0  0  0  0  0  0  0  0  0  0
  142.4654   73.9056  217.2588 H   0  0  0  0  0  0  0  0  0  0  0  0
  141.4675   73.5285  219.5307 H   0  0  0  0  0  0  0  0  0  0  0  0
  144.2292   75.5881  220.6729 H   0  0  0  0  0  0  0  0  0  0  0  0
  146.3940   74.6076  221.3525 H   0  0  0  0  0  0  0  0  0  0  0  0
  146.9112   72.2295  220.8308 H   0  0  0  0  0  0  0  0  0  0  0  0
  145.1890   70.8918  219.6217 H   0  0  0  0  0  0  0  0  0  0  0  0
  139.1441   70.0769  222.3220 H   0  0  0  0  0  0  0  0  0  0  0  0
  138.8177   68.5405  224.2413 H   0  0  0  0  0  0  0  0  0  0  0  0
  139.1677   68.0671  226.6091 H   0  0  0  0  0  0  0  0  0  0  0  0
  141.2895   70.9063  229.0295 H   0  0  0  0  0  0  0  0  0  0  0  0
  141.5829   72.4091  227.0547 H   0  0  0  0  0  0  0  0  0  0  0  0
  1  2  2  0
  2  3  1  0
  3  4  1  0
  4  5  1  0
  5  6  2  0
  5  7  1  0
  7  8  1  0
  8  9  1  0
  9 10  1  0
 10 11  1  0
 11 12  1  0
 12 13  1  0
 13 14  2  0
 14 15  1  0
 15 16  2  0
 16 17  1  0
 17 18  2  0
  2 19  1  0
 19 20  2  0
 20 21  1  0
 21 22  2  0
 22 23  1  0
 23 24  2  0
 24 25  1  0
 24 26  1  0
 26 27  2  0
 27 28  1  0
 28 29  2  0
 12  7  1  0
 18 13  1  0
 29 19  1  0
 28 22  1  0
  3 30  1  0
  4 31  1  0
  4 32  1  0
  8 33  1  0
  8 34  1  0
  9 35  1  0
  9 36  1  0
 10 37  1  0
 10 38  1  0
 11 39  1  0
 11 40  1  0
 12 41  1  6
 14 42  1  0
 15 43  1  0
 16 44  1  0
 17 45  1  0
 20 46  1  0
 21 47  1  0
 23 48  1  0
 26 49  1  0
 27 50  1  0
M  END
>  <smiles>  (61) 
O=C(NCC(=O)N1CCCCC1c1ccccn1)c1ccc2cc(F)ccc2n1

>  <score_type>  (61) 
oracle

>  <origin>  (61) 
autodockgpu

>  <m_score__min__energy>  (61) 
-8.8900000000000006

>  <m_primary>  (61) 
energy

>  <rmsd>  (61) 
4.150966006386911

>  <m_score__min__rmsd>  (61) 
4.150966006386911

>  <meeko>  (61) 
{"free_energy": -8.56, "intermolecular_energy": -10.05, "internal_energy": -1.67, "cluster_size": 10, "cluster_id": 2, "rank_in_cluster": 7}

>  <energy>  (61) 
-8.59

>  <cluster_rmsd>  (61) 
1.21

>  <cluster>  (61) 
1

$$$$

     RDKit          3D

 50 53  0  0  0  0  0  0  0  0999 V2000
  140.2790   71.6550  221.0560 O   0  0  0  0  0  0  0  0  0  0  0  0
  140.0260   72.1340  222.2100 C   0  0  0  0  0  0  0  0  0  0  0  0
  139.7750   73.5350  222.3430 N   0  0  0  0  0  0  0  0  0  0  0  0
  139.7990   74.4290  221.2150 C   0  0  0  0  0  0  0  0  0  0  0  0
  139.6180   75.8450  221.6270 C   0  0  0  0  0  0  0  0  0  0  0  0
  138.9720   76.0720  222.6870 O   0  0  0  0  0  0  0  0  0  0  0  0
  140.1340   76.9440  220.8880 N   0  0  0  0  0  0  0  0  0  0  0  0
  139.3150   77.5140  219.8450 C   0  0  0  0  0  0  0  0  0  0  0  0
  140.1300   78.0270  218.6850 C   0  0  0  0  0  0  0  0  0  0  0  0
  141.3960   78.7250  219.1740 C   0  0  0  0  0  0  0  0  0  0  0  0
  142.1860   77.6900  219.9370 C   0  0  0  0  0  0  0  0  0  0  0  0
  141.4540   77.4200  221.2300 C   0  0  1  0  0  0  0  0  0  0  0  0
  141.4410   78.6000  222.1130 C   0  0  0  0  0  0  0  0  0  0  0  0
  142.5850   79.3580  222.3590 C   0  0  0  0  0  0  0  0  0  0  0  0
  142.5540   80.4700  223.1900 C   0  0  0  0  0  0  0  0  0  0  0  0
  141.3850   80.8530  223.7950 C   0  0  0  0  0  0  0  0  0  0  0  0
  140.2620   80.0930  223.5420 C   0  0  0  0  0  0  0  0  0  0  0  0
  140.3230   79.0190  222.7310 N   0  0  0  0  0  0  0  0  0  0  0  0
  139.9890   71.2850  223.3830 C   0  0  0  0  0  0  0  0  0  0  0  0
  139.5280   69.9920  223.2690 C   0  0  0  0  0  0  0  0  0  0  0  0
  139.4850   69.1690  224.3740 C   0  0  0  0  0  0  0  0  0  0  0  0
  139.9090   69.6530  225.6000 C   0  0  0  0  0  0  0  0  0  0  0  0
  139.8850   68.8780  226.7200 C   0  0  0  0  0  0  0  0  0  0  0  0
  140.3140   69.4040  227.9080 C   0  0  0  0  0  0  0  0  0  0  0  0
  140.2830   68.6070  229.0250 F   0  0  0  0  0  0  0  0  0  0  0  0
  140.7710   70.7080  227.9880 C   0  0  0  0  0  0  0  0  0  0  0  0
  140.8020   71.5080  226.8640 C   0  0  0  0  0  0  0  0  0  0  0  0
  140.3630   70.9490  225.6820 C   0  0  0  0  0  0  0  0  0  0  0  0
  140.4000   71.7490  224.5880 N   0  0  0  0  0  0  0  0  0  0  0  0
  139.5670   73.9360  223.2790 H   0  0  0  0  0  0  0  0  0  0  0  0
  140.7669   74.3287  220.7021 H   0  0  0  0  0  0  0  0  0  0  0  0
  138.9672   74.1588  220.5479 H   0  0  0  0  0  0  0  0  0  0  0  0
  138.6249   76.7408  219.4764 H   0  0  0  0  0  0  0  0  0  0  0  0
  138.7728   78.3686  220.2759 H   0  0  0  0  0  0  0  0  0  0  0  0
  140.4114   77.1810  218.0407 H   0  0  0  0  0  0  0  0  0  0  0  0
  139.5234   78.7530  218.1237 H   0  0  0  0  0  0  0  0  0  0  0  0
  141.9805   79.0955  218.3190 H   0  0  0  0  0  0  0  0  0  0  0  0
  141.1543   79.5900  219.8091 H   0  0  0  0  0  0  0  0  0  0  0  0
  142.2598   76.7644  219.3472 H   0  0  0  0  0  0  0  0  0  0  0  0
  143.2051   78.0521  220.1379 H   0  0  0  0  0  0  0  0  0  0  0  0
  141.9742   76.6483  221.8165 H   0  0  0  0  0  0  0  0  0  0  0  0
  143.5339   79.0685  221.8839 H   0  0  0  0  0  0  0  0  0  0  0  0
  143.4738   81.0476  223.3641 H   0  0  0  0  0  0  0  0  0  0  0  0
  141.3441   81.7314  224.4559 H   0  0  0  0  0  0  0  0  0  0  0  0
  139.3043   80.3674  224.0085 H   0  0  0  0  0  0  0  0  0  0  0  0
  139.1926   69.6145  222.2918 H   0  0  0  0  0  0  0  0  0  0  0  0
  139.1169   68.1364  224.2825 H   0  0  0  0  0  0  0  0  0  0  0  0
  139.5244   67.8400  226.6698 H   0  0  0  0  0  0  0  0  0  0  0  0
  141.1117   71.1093  228.9539 H   0  0  0  0  0  0  0  0  0  0  0  0
  141.1613   72.5467  226.9088 H   0  0  0  0  0  0  0  0  0  0  0  0
  1  2  2  0
  2  3  1  0
  3  4  1  0
  4  5  1  0
  5  6  2  0
  5  7  1  0
  7  8  1  0
  8  9  1  0
  9 10  1  0
 10 11  1  0
 11 12  1  0
 12 13  1  0
 13 14  2  0
 14 15  1  0
 15 16  2  0
 16 17  1  0
 17 18  2  0
  2 19  1  0
 19 20  2  0
 20 21  1  0
 21 22  2  0
 22 23  1  0
 23 24  2  0
 24 25  1  0
 24 26  1  0
 26 27  2  0
 27 28  1  0
 28 29  2  0
 12  7  1  0
 18 13  1  0
 29 19  1  0
 28 22  1  0
  3 30  1  0
  4 31  1  0
  4 32  1  0
  8 33  1  0
  8 34  1  0
  9 35  1  0
  9 36  1  0
 10 37  1  0
 10 38  1  0
 11 39  1  0
 11 40  1  0
 12 41  1  1
 14 42  1  0
 15 43  1  0
 16 44  1  0
 17 45  1  0
 20 46  1  0
 21 47  1  0
 23 48  1  0
 26 49  1  0
 27 50  1  0
M  END
>  <smiles>  (62) 
O=C(NCC(=O)N1CCCCC1c1ccccn1)c1ccc2cc(F)ccc2n1

>  <score_type>  (62) 
oracle

>  <origin>  (62) 
autodockgpu

>  <m_score__min__energy>  (62) 
-8.8900000000000006

>  <m_primary>  (62) 
energy

>  <rmsd>  (62) 
2.156914838544766

>  <m_score__min__rmsd>  (62) 
2.156914838544766

>  <meeko>  (62) 
{"free_energy": -8.44, "intermolecular_energy": -9.93, "internal_energy": -1.97, "cluster_size": 27, "cluster_id": 1, "rank_in_cluster": 22}

>  <energy>  (62) 
-8.56

>  <cluster_rmsd>  (62) 
1.29

>  <cluster>  (62) 
1

$$$$

     RDKit          3D

 50 53  0  0  0  0  0  0  0  0999 V2000
  138.7140   74.5330  222.3390 O   0  0  0  0  0  0  0  0  0  0  0  0
  139.7850   75.0310  221.8570 C   0  0  0  0  0  0  0  0  0  0  0  0
  139.8720   76.4450  221.6690 N   0  0  0  0  0  0  0  0  0  0  0  0
  138.7880   77.3310  222.0050 C   0  0  0  0  0  0  0  0  0  0  0  0
  139.2650   78.5360  222.7330 C   0  0  0  0  0  0  0  0  0  0  0  0
  138.4500   79.1250  223.4940 O   0  0  0  0  0  0  0  0  0  0  0  0
  140.5850   79.0500  222.6090 N   0  0  0  0  0  0  0  0  0  0  0  0
  141.5530   78.7000  223.6200 C   0  0  0  0  0  0  0  0  0  0  0  0
  142.5430   79.8080  223.8800 C   0  0  0  0  0  0  0  0  0  0  0  0
  142.9600   80.4840  222.5770 C   0  0  0  0  0  0  0  0  0  0  0  0
  141.7020   81.0530  221.9700 C   0  0  0  0  0  0  0  0  0  0  0  0
  140.8710   79.8940  221.4730 C   0  0  1  0  0  0  0  0  0  0  0  0
  141.5260   79.1800  220.3630 C   0  0  0  0  0  0  0  0  0  0  0  0
  141.8180   79.8010  219.1490 C   0  0  0  0  0  0  0  0  0  0  0  0
  142.4420   79.1150  218.1150 C   0  0  0  0  0  0  0  0  0  0  0  0
  142.7880   77.7970  218.2640 C   0  0  0  0  0  0  0  0  0  0  0  0
  142.4920   77.1980  219.4710 C   0  0  0  0  0  0  0  0  0  0  0  0
  141.8870   77.8890  220.4560 N   0  0  0  0  0  0  0  0  0  0  0  0
  140.9090   74.1900  221.5010 C   0  0  0  0  0  0  0  0  0  0  0  0
  140.7630   72.8200  221.5180 C   0  0  0  0  0  0  0  0  0  0  0  0
  141.8220   72.0030  221.1820 C   0  0  0  0  0  0  0  0  0  0  0  0
  143.0330   72.5710  220.8270 C   0  0  0  0  0  0  0  0  0  0  0  0
  144.1080   71.8060  220.4870 C   0  0  0  0  0  0  0  0  0  0  0  0
  145.2830   72.4160  220.1440 C   0  0  0  0  0  0  0  0  0  0  0  0
  146.3540   71.6280  219.8040 F   0  0  0  0  0  0  0  0  0  0  0  0
  145.3960   73.7960  220.1370 C   0  0  0  0  0  0  0  0  0  0  0  0
  144.3180   74.5870  220.4780 C   0  0  0  0  0  0  0  0  0  0  0  0
  143.1480   73.9430  220.8190 C   0  0  0  0  0  0  0  0  0  0  0  0
  142.0990   74.7350  221.1520 N   0  0  0  0  0  0  0  0  0  0  0  0
  140.7400   76.8620  221.2780 H   0  0  0  0  0  0  0  0  0  0  0  0
  138.2883   77.6495  221.0783 H   0  0  0  0  0  0  0  0  0  0  0  0
  138.0934   76.7873  222.6622 H   0  0  0  0  0  0  0  0  0  0  0  0
  141.0203   78.4761  224.5560 H   0  0  0  0  0  0  0  0  0  0  0  0
  142.1156   77.8276  223.2563 H   0  0  0  0  0  0  0  0  0  0  0  0
  142.0810   80.5556  224.5415 H   0  0  0  0  0  0  0  0  0  0  0  0
  143.4372   79.3759  224.3530 H   0  0  0  0  0  0  0  0  0  0  0  0
  143.6819   81.2887  222.7801 H   0  0  0  0  0  0  0  0  0  0  0  0
  143.4439   79.7697  221.8946 H   0  0  0  0  0  0  0  0  0  0  0  0
  141.1415   81.6183  222.7292 H   0  0  0  0  0  0  0  0  0  0  0  0
  141.9464   81.7361  221.1432 H   0  0  0  0  0  0  0  0  0  0  0  0
  139.9244   80.2525  221.0423 H   0  0  0  0  0  0  0  0  0  0  0  0
  141.5481   80.8579  219.0071 H   0  0  0  0  0  0  0  0  0  0  0  0
  142.6602   79.6332  217.1695 H   0  0  0  0  0  0  0  0  0  0  0  0
  143.2815   77.2397  217.4542 H   0  0  0  0  0  0  0  0  0  0  0  0
  142.7537   76.1416  219.6310 H   0  0  0  0  0  0  0  0  0  0  0  0
  139.7972   72.3759  221.8009 H   0  0  0  0  0  0  0  0  0  0  0  0
  141.7051   70.9093  221.1961 H   0  0  0  0  0  0  0  0  0  0  0  0
  144.0316   70.7087  220.4884 H   0  0  0  0  0  0  0  0  0  0  0  0
  146.3512   74.2647  219.8578 H   0  0  0  0  0  0  0  0  0  0  0  0
  144.3893   75.6847  220.4777 H   0  0  0  0  0  0  0  0  0  0  0  0
  1  2  2  0
  2  3  1  0
  3  4  1  0
  4  5  1  0
  5  6  2  0
  5  7  1  0
  7  8  1  0
  8  9  1  0
  9 10  1  0
 10 11  1  0
 11 12  1  0
 12 13  1  0
 13 14  2  0
 14 15  1  0
 15 16  2  0
 16 17  1  0
 17 18  2  0
  2 19  1  0
 19 20  2  0
 20 21  1  0
 21 22  2  0
 22 23  1  0
 23 24  2  0
 24 25  1  0
 24 26  1  0
 26 27  2  0
 27 28  1  0
 28 29  2  0
 12  7  1  0
 18 13  1  0
 29 19  1  0
 28 22  1  0
  3 30  1  0
  4 31  1  0
  4 32  1  0
  8 33  1  0
  8 34  1  0
  9 35  1  0
  9 36  1  0
 10 37  1  0
 10 38  1  0
 11 39  1  0
 11 40  1  0
 12 41  1  6
 14 42  1  0
 15 43  1  0
 16 44  1  0
 17 45  1  0
 20 46  1  0
 21 47  1  0
 23 48  1  0
 26 49  1  0
 27 50  1  0
M  END
>  <smiles>  (63) 
O=C(NCC(=O)N1CCCCC1c1ccccn1)c1ccc2cc(F)ccc2n1

>  <score_type>  (63) 
oracle

>  <origin>  (63) 
autodockgpu

>  <m_score__min__energy>  (63) 
-8.8900000000000006

>  <m_primary>  (63) 
energy

>  <rmsd>  (63) 
6.022410796399382

>  <m_score__min__rmsd>  (63) 
6.022410796399382

>  <meeko>  (63) 
{"free_energy": -7.03, "intermolecular_energy": -8.52, "internal_energy": -3.01, "cluster_size": 12, "cluster_id": 4, "rank_in_cluster": 7}

>  <energy>  (63) 
-8.53

>  <cluster_rmsd>  (63) 
1.2

>  <cluster>  (63) 
1

$$$$

     RDKit          3D

 50 53  0  0  0  0  0  0  0  0999 V2000
  141.2080   72.1770  221.5030 O   0  0  0  0  0  0  0  0  0  0  0  0
  140.3650   72.4160  222.4300 C   0  0  0  0  0  0  0  0  0  0  0  0
  139.5410   73.5800  222.3390 N   0  0  0  0  0  0  0  0  0  0  0  0
  139.6280   74.4970  221.2330 C   0  0  0  0  0  0  0  0  0  0  0  0
  139.5750   75.9120  221.6830 C   0  0  0  0  0  0  0  0  0  0  0  0
  139.0200   76.1590  222.7890 O   0  0  0  0  0  0  0  0  0  0  0  0
  140.1150   76.9900  220.9290 N   0  0  0  0  0  0  0  0  0  0  0  0
  139.3160   77.5510  219.8670 C   0  0  0  0  0  0  0  0  0  0  0  0
  140.1520   78.0320  218.7070 C   0  0  0  0  0  0  0  0  0  0  0  0
  141.4220   78.7210  219.1980 C   0  0  0  0  0  0  0  0  0  0  0  0
  142.1880   77.6890  219.9890 C   0  0  0  0  0  0  0  0  0  0  0  0
  141.4370   77.4540  221.2780 C   0  0  1  0  0  0  0  0  0  0  0  0
  141.4300   78.6500  222.1390 C   0  0  0  0  0  0  0  0  0  0  0  0
  142.5890   79.3770  222.4120 C   0  0  0  0  0  0  0  0  0  0  0  0
  142.5640   80.5050  223.2210 C   0  0  0  0  0  0  0  0  0  0  0  0
  141.3870   80.9350  223.7780 C   0  0  0  0  0  0  0  0  0  0  0  0
  140.2500   80.2050  223.4990 C   0  0  0  0  0  0  0  0  0  0  0  0
  140.3060   79.1150  222.7100 N   0  0  0  0  0  0  0  0  0  0  0  0
  140.2320   71.5300  223.5680 C   0  0  0  0  0  0  0  0  0  0  0  0
  139.6110   70.3100  223.4100 C   0  0  0  0  0  0  0  0  0  0  0  0
  139.4750   69.4540  224.4810 C   0  0  0  0  0  0  0  0  0  0  0  0
  139.9680   69.8300  225.7200 C   0  0  0  0  0  0  0  0  0  0  0  0
  139.8570   69.0190  226.8080 C   0  0  0  0  0  0  0  0  0  0  0  0
  140.3590   69.4370  228.0100 C   0  0  0  0  0  0  0  0  0  0  0  0
  140.2380   68.6050  229.0950 F   0  0  0  0  0  0  0  0  0  0  0  0
  140.9770   70.6700  228.1350 C   0  0  0  0  0  0  0  0  0  0  0  0
  141.0980   71.5050  227.0440 C   0  0  0  0  0  0  0  0  0  0  0  0
  140.5820   71.0550  225.8470 C   0  0  0  0  0  0  0  0  0  0  0  0
  140.7090   71.8890  224.7850 N   0  0  0  0  0  0  0  0  0  0  0  0
  138.8510   73.7840  223.0890 H   0  0  0  0  0  0  0  0  0  0  0  0
  140.5772   74.3272  220.7037 H   0  0  0  0  0  0  0  0  0  0  0  0
  138.7681   74.3166  220.5712 H   0  0  0  0  0  0  0  0  0  0  0  0
  138.6199   76.7803  219.5045 H   0  0  0  0  0  0  0  0  0  0  0  0
  138.7800   78.4203  220.2757 H   0  0  0  0  0  0  0  0  0  0  0  0
  140.4287   77.1707  218.0813 H   0  0  0  0  0  0  0  0  0  0  0  0
  139.5622   78.7562  218.1259 H   0  0  0  0  0  0  0  0  0  0  0  0
  142.0217   79.0673  218.3433 H   0  0  0  0  0  0  0  0  0  0  0  0
  141.1855   79.6010  219.8142 H   0  0  0  0  0  0  0  0  0  0  0  0
  142.2549   76.7516  219.4173 H   0  0  0  0  0  0  0  0  0  0  0  0
  143.2100   78.0397  220.1951 H   0  0  0  0  0  0  0  0  0  0  0  0
  141.9396   76.6867  221.8851 H   0  0  0  0  0  0  0  0  0  0  0  0
  143.5443   79.0490  221.9764 H   0  0  0  0  0  0  0  0  0  0  0  0
  143.4948   81.0576  223.4165 H   0  0  0  0  0  0  0  0  0  0  0  0
  141.3508   81.8264  224.4216 H   0  0  0  0  0  0  0  0  0  0  0  0
  139.2857   80.5172  223.9263 H   0  0  0  0  0  0  0  0  0  0  0  0
  139.2218   70.0180  222.4235 H   0  0  0  0  0  0  0  0  0  0  0  0
  138.9793   68.4804  224.3535 H   0  0  0  0  0  0  0  0  0  0  0  0
  139.3684   68.0373  226.7214 H   0  0  0  0  0  0  0  0  0  0  0  0
  141.3741   70.9855  229.1111 H   0  0  0  0  0  0  0  0  0  0  0  0
  141.5853   72.4878  227.1252 H   0  0  0  0  0  0  0  0  0  0  0  0
  1  2  2  0
  2  3  1  0
  3  4  1  0
  4  5  1  0
  5  6  2  0
  5  7  1  0
  7  8  1  0
  8  9  1  0
  9 10  1  0
 10 11  1  0
 11 12  1  0
 12 13  1  0
 13 14  2  0
 14 15  1  0
 15 16  2  0
 16 17  1  0
 17 18  2  0
  2 19  1  0
 19 20  2  0
 20 21  1  0
 21 22  2  0
 22 23  1  0
 23 24  2  0
 24 25  1  0
 24 26  1  0
 26 27  2  0
 27 28  1  0
 28 29  2  0
 12  7  1  0
 18 13  1  0
 29 19  1  0
 28 22  1  0
  3 30  1  0
  4 31  1  0
  4 32  1  0
  8 33  1  0
  8 34  1  0
  9 35  1  0
  9 36  1  0
 10 37  1  0
 10 38  1  0
 11 39  1  0
 11 40  1  0
 12 41  1  1
 14 42  1  0
 15 43  1  0
 16 44  1  0
 17 45  1  0
 20 46  1  0
 21 47  1  0
 23 48  1  0
 26 49  1  0
 27 50  1  0
M  END
>  <smiles>  (64) 
O=C(NCC(=O)N1CCCCC1c1ccccn1)c1ccc2cc(F)ccc2n1

>  <score_type>  (64) 
oracle

>  <origin>  (64) 
autodockgpu

>  <m_score__min__energy>  (64) 
-8.8900000000000006

>  <m_primary>  (64) 
energy

>  <rmsd>  (64) 
2.2271262414885284

>  <m_score__min__rmsd>  (64) 
2.2271262414885284

>  <meeko>  (64) 
{"free_energy": -8.73, "intermolecular_energy": -10.22, "internal_energy": -1.72, "cluster_size": 27, "cluster_id": 1, "rank_in_cluster": 4}

>  <energy>  (64) 
-8.52

>  <cluster_rmsd>  (64) 
1.21

>  <cluster>  (64) 
1

$$$$

     RDKit          3D

 50 53  0  0  0  0  0  0  0  0999 V2000
  141.1330   72.0240  221.3770 O   0  0  0  0  0  0  0  0  0  0  0  0
  140.4170   72.3870  222.3680 C   0  0  0  0  0  0  0  0  0  0  0  0
  139.7950   73.6730  222.3450 N   0  0  0  0  0  0  0  0  0  0  0  0
  139.9480   74.5790  221.2370 C   0  0  0  0  0  0  0  0  0  0  0  0
  139.6610   75.9840  221.6270 C   0  0  0  0  0  0  0  0  0  0  0  0
  138.9670   76.1770  222.6630 O   0  0  0  0  0  0  0  0  0  0  0  0
  140.1270   77.1080  220.8920 N   0  0  0  0  0  0  0  0  0  0  0  0
  139.2560   77.6840  219.8960 C   0  0  0  0  0  0  0  0  0  0  0  0
  140.0150   78.2370  218.7160 C   0  0  0  0  0  0  0  0  0  0  0  0
  141.2860   78.9490  219.1690 C   0  0  0  0  0  0  0  0  0  0  0  0
  142.1250   77.9130  219.8770 C   0  0  0  0  0  0  0  0  0  0  0  0
  141.4500   77.6020  221.1920 C   0  0  1  0  0  0  0  0  0  0  0  0
  141.4510   78.7610  222.1010 C   0  0  0  0  0  0  0  0  0  0  0  0
  142.6280   79.4000  222.4920 C   0  0  0  0  0  0  0  0  0  0  0  0
  142.6100   80.4960  223.3450 C   0  0  0  0  0  0  0  0  0  0  0  0
  141.4220   80.9800  223.8290 C   0  0  0  0  0  0  0  0  0  0  0  0
  140.2680   80.3370  223.4340 C   0  0  0  0  0  0  0  0  0  0  0  0
  140.3160   79.2770  222.6050 N   0  0  0  0  0  0  0  0  0  0  0  0
  140.2260   71.5180  223.5120 C   0  0  0  0  0  0  0  0  0  0  0  0
  139.5820   70.3110  223.3470 C   0  0  0  0  0  0  0  0  0  0  0  0
  139.3910   69.4720  224.4240 C   0  0  0  0  0  0  0  0  0  0  0  0
  139.8510   69.8520  225.6730 C   0  0  0  0  0  0  0  0  0  0  0  0
  139.6850   69.0570  226.7670 C   0  0  0  0  0  0  0  0  0  0  0  0
  140.1570   69.4790  227.9790 C   0  0  0  0  0  0  0  0  0  0  0  0
  139.9820   68.6630  229.0690 F   0  0  0  0  0  0  0  0  0  0  0  0
  140.7990   70.6980  228.1100 C   0  0  0  0  0  0  0  0  0  0  0  0
  140.9760   71.5170  227.0140 C   0  0  0  0  0  0  0  0  0  0  0  0
  140.4900   71.0640  225.8060 C   0  0  0  0  0  0  0  0  0  0  0  0
  140.6710   71.8810  224.7390 N   0  0  0  0  0  0  0  0  0  0  0  0
  139.2090   73.9780  223.1470 H   0  0  0  0  0  0  0  0  0  0  0  0
  140.9819   74.5167  220.8667 H   0  0  0  0  0  0  0  0  0  0  0  0
  139.2294   74.2880  220.4566 H   0  0  0  0  0  0  0  0  0  0  0  0
  138.5658   76.9058  219.5383 H   0  0  0  0  0  0  0  0  0  0  0  0
  138.7154   78.5184  220.3667 H   0  0  0  0  0  0  0  0  0  0  0  0
  140.2861   77.4102  218.0431 H   0  0  0  0  0  0  0  0  0  0  0  0
  139.3732   78.9628  218.1952 H   0  0  0  0  0  0  0  0  0  0  0  0
  141.8286   79.3488  218.2997 H   0  0  0  0  0  0  0  0  0  0  0  0
  141.0543   79.7957  219.8319 H   0  0  0  0  0  0  0  0  0  0  0  0
  142.1919   77.0017  219.2646 H   0  0  0  0  0  0  0  0  0  0  0  0
  143.1447   78.2898  220.0450 H   0  0  0  0  0  0  0  0  0  0  0  0
  142.0074   76.8284  221.7405 H   0  0  0  0  0  0  0  0  0  0  0  0
  143.5923   79.0273  222.1161 H   0  0  0  0  0  0  0  0  0  0  0  0
  143.5551   80.9789  223.6342 H   0  0  0  0  0  0  0  0  0  0  0  0
  141.3907   81.8468  224.5055 H   0  0  0  0  0  0  0  0  0  0  0  0
  139.2948   80.6949  223.8012 H   0  0  0  0  0  0  0  0  0  0  0  0
  139.2187   70.0157  222.3516 H   0  0  0  0  0  0  0  0  0  0  0  0
  138.8772   68.5084  224.2919 H   0  0  0  0  0  0  0  0  0  0  0  0
  139.1766   68.0858  226.6762 H   0  0  0  0  0  0  0  0  0  0  0  0
  141.1708   71.0162  229.0951 H   0  0  0  0  0  0  0  0  0  0  0  0
  141.4830   72.4894  227.1003 H   0  0  0  0  0  0  0  0  0  0  0  0
  1  2  2  0
  2  3  1  0
  3  4  1  0
  4  5  1  0
  5  6  2  0
  5  7  1  0
  7  8  1  0
  8  9  1  0
  9 10  1  0
 10 11  1  0
 11 12  1  0
 12 13  1  0
 13 14  2  0
 14 15  1  0
 15 16  2  0
 16 17  1  0
 17 18  2  0
  2 19  1  0
 19 20  2  0
 20 21  1  0
 21 22  2  0
 22 23  1  0
 23 24  2  0
 24 25  1  0
 24 26  1  0
 26 27  2  0
 27 28  1  0
 28 29  2  0
 12  7  1  0
 18 13  1  0
 29 19  1  0
 28 22  1  0
  3 30  1  0
  4 31  1  0
  4 32  1  0
  8 33  1  0
  8 34  1  0
  9 35  1  0
  9 36  1  0
 10 37  1  0
 10 38  1  0
 11 39  1  0
 11 40  1  0
 12 41  1  1
 14 42  1  0
 15 43  1  0
 16 44  1  0
 17 45  1  0
 20 46  1  0
 21 47  1  0
 23 48  1  0
 26 49  1  0
 27 50  1  0
M  END
>  <smiles>  (65) 
O=C(NCC(=O)N1CCCCC1c1ccccn1)c1ccc2cc(F)ccc2n1

>  <score_type>  (65) 
oracle

>  <origin>  (65) 
autodockgpu

>  <m_score__min__energy>  (65) 
-8.8900000000000006

>  <m_primary>  (65) 
energy

>  <rmsd>  (65) 
2.3003704563952967

>  <m_score__min__rmsd>  (65) 
2.3003704563952967

>  <meeko>  (65) 
{"free_energy": -8.62, "intermolecular_energy": -10.11, "internal_energy": -1.9, "cluster_size": 27, "cluster_id": 1, "rank_in_cluster": 8}

>  <energy>  (65) 
-8.51

>  <cluster_rmsd>  (65) 
1.22

>  <cluster>  (65) 
1

$$$$

     RDKit          3D

 50 53  0  0  0  0  0  0  0  0999 V2000
  138.6520   74.5310  222.0780 O   0  0  0  0  0  0  0  0  0  0  0  0
  139.7710   75.0350  221.7320 C   0  0  0  0  0  0  0  0  0  0  0  0
  139.9040   76.4570  221.6690 N   0  0  0  0  0  0  0  0  0  0  0  0
  138.8150   77.3440  221.9840 C   0  0  0  0  0  0  0  0  0  0  0  0
  139.2800   78.5550  222.7090 C   0  0  0  0  0  0  0  0  0  0  0  0
  138.4580   79.1400  223.4660 O   0  0  0  0  0  0  0  0  0  0  0  0
  140.5960   79.0790  222.5860 N   0  0  0  0  0  0  0  0  0  0  0  0
  141.5700   78.7260  223.5910 C   0  0  0  0  0  0  0  0  0  0  0  0
  142.5530   79.8380  223.8590 C   0  0  0  0  0  0  0  0  0  0  0  0
  142.9620   80.5300  222.5620 C   0  0  0  0  0  0  0  0  0  0  0  0
  141.6970   81.0960  221.9640 C   0  0  0  0  0  0  0  0  0  0  0  0
  140.8730   79.9360  221.4580 C   0  0  1  0  0  0  0  0  0  0  0  0
  141.5300   79.2380  220.3390 C   0  0  0  0  0  0  0  0  0  0  0  0
  141.8420   79.8810  219.1410 C   0  0  0  0  0  0  0  0  0  0  0  0
  142.4670   79.2100  218.0990 C   0  0  0  0  0  0  0  0  0  0  0  0
  142.7940   77.8840  218.2230 C   0  0  0  0  0  0  0  0  0  0  0  0
  142.4790   77.2630  219.4140 C   0  0  0  0  0  0  0  0  0  0  0  0
  141.8730   77.9400  220.4070 N   0  0  0  0  0  0  0  0  0  0  0  0
  140.9030   74.1940  221.4040 C   0  0  0  0  0  0  0  0  0  0  0  0
  140.7650   72.8240  221.4490 C   0  0  0  0  0  0  0  0  0  0  0  0
  141.8320   72.0070  221.1400 C   0  0  0  0  0  0  0  0  0  0  0  0
  143.0430   72.5750  220.7840 C   0  0  0  0  0  0  0  0  0  0  0  0
  144.1250   71.8090  220.4700 C   0  0  0  0  0  0  0  0  0  0  0  0
  145.3000   72.4190  220.1260 C   0  0  0  0  0  0  0  0  0  0  0  0
  146.3790   71.6310  219.8120 F   0  0  0  0  0  0  0  0  0  0  0  0
  145.4050   73.7990  220.0910 C   0  0  0  0  0  0  0  0  0  0  0  0
  144.3190   74.5910  220.4050 C   0  0  0  0  0  0  0  0  0  0  0  0
  143.1500   73.9470  220.7480 C   0  0  0  0  0  0  0  0  0  0  0  0
  142.0930   74.7390  221.0550 N   0  0  0  0  0  0  0  0  0  0  0  0
  140.8110   76.8790  221.3890 H   0  0  0  0  0  0  0  0  0  0  0  0
  138.3272   77.6548  221.0483 H   0  0  0  0  0  0  0  0  0  0  0  0
  138.1128   76.8042  222.6363 H   0  0  0  0  0  0  0  0  0  0  0  0
  141.0417   78.4892  224.5263 H   0  0  0  0  0  0  0  0  0  0  0  0
  142.1377   77.8613  223.2168 H   0  0  0  0  0  0  0  0  0  0  0  0
  142.0877   80.5758  224.5292 H   0  0  0  0  0  0  0  0  0  0  0  0
  143.4514   79.4071  224.3250 H   0  0  0  0  0  0  0  0  0  0  0  0
  143.6785   81.3380  222.7714 H   0  0  0  0  0  0  0  0  0  0  0  0
  143.4497   79.8265  221.8712 H   0  0  0  0  0  0  0  0  0  0  0  0
  141.1347   81.6495  222.7304 H   0  0  0  0  0  0  0  0  0  0  0  0
  141.9339   81.7890  221.1432 H   0  0  0  0  0  0  0  0  0  0  0  0
  139.9226   80.2918  221.0336 H   0  0  0  0  0  0  0  0  0  0  0  0
  141.5869   80.9441  219.0193 H   0  0  0  0  0  0  0  0  0  0  0  0
  142.7016   79.7456  217.1673 H   0  0  0  0  0  0  0  0  0  0  0  0
  143.2876   77.3376  217.4058 H   0  0  0  0  0  0  0  0  0  0  0  0
  142.7264   76.2004  219.5539 H   0  0  0  0  0  0  0  0  0  0  0  0
  139.7994   72.3799  221.7327 H   0  0  0  0  0  0  0  0  0  0  0  0
  141.7217   70.9131  221.1761 H   0  0  0  0  0  0  0  0  0  0  0  0
  144.0545   70.7115  220.4929 H   0  0  0  0  0  0  0  0  0  0  0  0
  146.3601   74.2674  219.8111 H   0  0  0  0  0  0  0  0  0  0  0  0
  144.3839   75.6889  220.3824 H   0  0  0  0  0  0  0  0  0  0  0  0
  1  2  2  0
  2  3  1  0
  3  4  1  0
  4  5  1  0
  5  6  2  0
  5  7  1  0
  7  8  1  0
  8  9  1  0
  9 10  1  0
 10 11  1  0
 11 12  1  0
 12 13  1  0
 13 14  2  0
 14 15  1  0
 15 16  2  0
 16 17  1  0
 17 18  2  0
  2 19  1  0
 19 20  2  0
 20 21  1  0
 21 22  2  0
 22 23  1  0
 23 24  2  0
 24 25  1  0
 24 26  1  0
 26 27  2  0
 27 28  1  0
 28 29  2  0
 12  7  1  0
 18 13  1  0
 29 19  1  0
 28 22  1  0
  3 30  1  0
  4 31  1  0
  4 32  1  0
  8 33  1  0
  8 34  1  0
  9 35  1  0
  9 36  1  0
 10 37  1  0
 10 38  1  0
 11 39  1  0
 11 40  1  0
 12 41  1  6
 14 42  1  0
 15 43  1  0
 16 44  1  0
 17 45  1  0
 20 46  1  0
 21 47  1  0
 23 48  1  0
 26 49  1  0
 27 50  1  0
M  END
>  <smiles>  (66) 
O=C(NCC(=O)N1CCCCC1c1ccccn1)c1ccc2cc(F)ccc2n1

>  <score_type>  (66) 
oracle

>  <origin>  (66) 
autodockgpu

>  <m_score__min__energy>  (66) 
-8.8900000000000006

>  <m_primary>  (66) 
energy

>  <rmsd>  (66) 
6.038376165459156

>  <m_score__min__rmsd>  (66) 
6.038376165459156

>  <meeko>  (66) 
{"free_energy": -7.01, "intermolecular_energy": -8.5, "internal_energy": -3.01, "cluster_size": 12, "cluster_id": 4, "rank_in_cluster": 8}

>  <energy>  (66) 
-8.49

>  <cluster_rmsd>  (66) 
1.22

>  <cluster>  (66) 
1

$$$$

     RDKit          3D

 50 53  0  0  0  0  0  0  0  0999 V2000
  141.2630   72.1690  221.5580 O   0  0  0  0  0  0  0  0  0  0  0  0
  140.3980   72.4210  222.4600 C   0  0  0  0  0  0  0  0  0  0  0  0
  139.5980   73.6000  222.3470 N   0  0  0  0  0  0  0  0  0  0  0  0
  139.7350   74.5170  221.2460 C   0  0  0  0  0  0  0  0  0  0  0  0
  139.5960   75.9310  221.6830 C   0  0  0  0  0  0  0  0  0  0  0  0
  138.9830   76.1560  222.7620 O   0  0  0  0  0  0  0  0  0  0  0  0
  140.1170   77.0290  220.9460 N   0  0  0  0  0  0  0  0  0  0  0  0
  139.2820   77.6350  219.9370 C   0  0  0  0  0  0  0  0  0  0  0  0
  140.0760   78.1480  218.7620 C   0  0  0  0  0  0  0  0  0  0  0  0
  141.3720   78.8070  219.2250 C   0  0  0  0  0  0  0  0  0  0  0  0
  142.1580   77.7420  219.9480 C   0  0  0  0  0  0  0  0  0  0  0  0
  141.4570   77.4680  221.2580 C   0  0  1  0  0  0  0  0  0  0  0  0
  141.4970   78.6330  222.1590 C   0  0  0  0  0  0  0  0  0  0  0  0
  140.4020   79.0110  222.9360 C   0  0  0  0  0  0  0  0  0  0  0  0
  140.4590   80.1090  223.7840 C   0  0  0  0  0  0  0  0  0  0  0  0
  141.6050   80.8560  223.8790 C   0  0  0  0  0  0  0  0  0  0  0  0
  142.6790   80.4690  223.1040 C   0  0  0  0  0  0  0  0  0  0  0  0
  142.5940   79.3990  222.2910 N   0  0  0  0  0  0  0  0  0  0  0  0
  140.2140   71.5360  223.5910 C   0  0  0  0  0  0  0  0  0  0  0  0
  139.5360   70.3490  223.4210 C   0  0  0  0  0  0  0  0  0  0  0  0
  139.3510   69.4940  224.4860 C   0  0  0  0  0  0  0  0  0  0  0  0
  139.8530   69.8380  225.7300 C   0  0  0  0  0  0  0  0  0  0  0  0
  139.6960   69.0260  226.8120 C   0  0  0  0  0  0  0  0  0  0  0  0
  140.2100   69.4110  228.0200 C   0  0  0  0  0  0  0  0  0  0  0  0
  140.0420   68.5790  229.0980 F   0  0  0  0  0  0  0  0  0  0  0  0
  140.8860   70.6120  228.1570 C   0  0  0  0  0  0  0  0  0  0  0  0
  141.0550   71.4470  227.0720 C   0  0  0  0  0  0  0  0  0  0  0  0
  140.5260   71.0300  225.8690 C   0  0  0  0  0  0  0  0  0  0  0  0
  140.7000   71.8630  224.8130 N   0  0  0  0  0  0  0  0  0  0  0  0
  138.8890   73.8150  223.0750 H   0  0  0  0  0  0  0  0  0  0  0  0
  140.7273   74.3811  220.7911 H   0  0  0  0  0  0  0  0  0  0  0  0
  138.9348   74.3032  220.5221 H   0  0  0  0  0  0  0  0  0  0  0  0
  138.5633   76.8844  219.5764 H   0  0  0  0  0  0  0  0  0  0  0  0
  138.7725   78.4946  220.3969 H   0  0  0  0  0  0  0  0  0  0  0  0
  140.3180   77.3065  218.0962 H   0  0  0  0  0  0  0  0  0  0  0  0
  139.4715   78.8977  218.2305 H   0  0  0  0  0  0  0  0  0  0  0  0
  141.9406   79.1774  218.3593 H   0  0  0  0  0  0  0  0  0  0  0  0
  141.1695   79.6667  219.8807 H   0  0  0  0  0  0  0  0  0  0  0  0
  142.1926   76.8247  219.3419 H   0  0  0  0  0  0  0  0  0  0  0  0
  143.1908   78.0768  220.1248 H   0  0  0  0  0  0  0  0  0  0  0  0
  141.9752   76.6753  221.8175 H   0  0  0  0  0  0  0  0  0  0  0  0
  139.4724   78.4261  222.8756 H   0  0  0  0  0  0  0  0  0  0  0  0
  139.5783   80.3817  224.3840 H   0  0  0  0  0  0  0  0  0  0  0  0
  141.6656   81.7285  224.5461 H   0  0  0  0  0  0  0  0  0  0  0  0
  143.6168   81.0420  223.1509 H   0  0  0  0  0  0  0  0  0  0  0  0
  139.1401   70.0821  222.4300 H   0  0  0  0  0  0  0  0  0  0  0  0
  138.8093   68.5465  224.3491 H   0  0  0  0  0  0  0  0  0  0  0  0
  139.1610   68.0697  226.7156 H   0  0  0  0  0  0  0  0  0  0  0  0
  141.2910   70.9021  229.1378 H   0  0  0  0  0  0  0  0  0  0  0  0
  141.5889   72.4045  227.1627 H   0  0  0  0  0  0  0  0  0  0  0  0
  1  2  2  0
  2  3  1  0
  3  4  1  0
  4  5  1  0
  5  6  2  0
  5  7  1  0
  7  8  1  0
  8  9  1  0
  9 10  1  0
 10 11  1  0
 11 12  1  0
 12 13  1  0
 13 14  2  0
 14 15  1  0
 15 16  2  0
 16 17  1  0
 17 18  2  0
  2 19  1  0
 19 20  2  0
 20 21  1  0
 21 22  2  0
 22 23  1  0
 23 24  2  0
 24 25  1  0
 24 26  1  0
 26 27  2  0
 27 28  1  0
 28 29  2  0
 12  7  1  0
 18 13  1  0
 29 19  1  0
 28 22  1  0
  3 30  1  0
  4 31  1  0
  4 32  1  0
  8 33  1  0
  8 34  1  0
  9 35  1  0
  9 36  1  0
 10 37  1  0
 10 38  1  0
 11 39  1  0
 11 40  1  0
 12 41  1  1
 14 42  1  0
 15 43  1  0
 16 44  1  0
 17 45  1  0
 20 46  1  0
 21 47  1  0
 23 48  1  0
 26 49  1  0
 27 50  1  0
M  END
>  <smiles>  (67) 
O=C(NCC(=O)N1CCCCC1c1ccccn1)c1ccc2cc(F)ccc2n1

>  <score_type>  (67) 
oracle

>  <origin>  (67) 
autodockgpu

>  <m_score__min__energy>  (67) 
-8.8900000000000006

>  <m_primary>  (67) 
energy

>  <rmsd>  (67) 
2.373587471453548

>  <m_score__min__rmsd>  (67) 
2.373587471453548

>  <meeko>  (67) 
{"free_energy": -8.66, "intermolecular_energy": -10.15, "internal_energy": -1.73, "cluster_size": 27, "cluster_id": 1, "rank_in_cluster": 6}

>  <energy>  (67) 
-8.48

>  <cluster_rmsd>  (67) 
1.21

>  <cluster>  (67) 
1

$$$$

     RDKit          3D

 50 53  0  0  0  0  0  0  0  0999 V2000
  141.1050   71.9490  221.3470 O   0  0  0  0  0  0  0  0  0  0  0  0
  140.4340   72.3430  222.3570 C   0  0  0  0  0  0  0  0  0  0  0  0
  139.8570   73.6500  222.3420 N   0  0  0  0  0  0  0  0  0  0  0  0
  140.0060   74.5420  221.2210 C   0  0  0  0  0  0  0  0  0  0  0  0
  139.6490   75.9400  221.5760 C   0  0  0  0  0  0  0  0  0  0  0  0
  138.8960   76.1220  222.5720 O   0  0  0  0  0  0  0  0  0  0  0  0
  140.1120   77.0710  220.8490 N   0  0  0  0  0  0  0  0  0  0  0  0
  139.2180   77.6890  219.9010 C   0  0  0  0  0  0  0  0  0  0  0  0
  139.9430   78.2540  218.7050 C   0  0  0  0  0  0  0  0  0  0  0  0
  141.2470   78.9260  219.1250 C   0  0  0  0  0  0  0  0  0  0  0  0
  142.0880   77.8560  219.7770 C   0  0  0  0  0  0  0  0  0  0  0  0
  141.4570   77.5290  221.1090 C   0  0  1  0  0  0  0  0  0  0  0  0
  141.5180   78.6660  222.0440 C   0  0  0  0  0  0  0  0  0  0  0  0
  140.4640   78.9830  222.9010 C   0  0  0  0  0  0  0  0  0  0  0  0
  140.5410   80.0560  223.7790 C   0  0  0  0  0  0  0  0  0  0  0  0
  141.6660   80.8390  223.8240 C   0  0  0  0  0  0  0  0  0  0  0  0
  142.6990   80.5130  222.9690 C   0  0  0  0  0  0  0  0  0  0  0  0
  142.5960   79.4650  222.1290 N   0  0  0  0  0  0  0  0  0  0  0  0
  140.2500   71.4920  223.5140 C   0  0  0  0  0  0  0  0  0  0  0  0
  139.6160   70.2770  223.3680 C   0  0  0  0  0  0  0  0  0  0  0  0
  139.4320   69.4530  224.4570 C   0  0  0  0  0  0  0  0  0  0  0  0
  139.8880   69.8560  225.7000 C   0  0  0  0  0  0  0  0  0  0  0  0
  139.7290   69.0770  226.8060 C   0  0  0  0  0  0  0  0  0  0  0  0
  140.1970   69.5210  228.0120 C   0  0  0  0  0  0  0  0  0  0  0  0
  140.0280   68.7210  229.1150 F   0  0  0  0  0  0  0  0  0  0  0  0
  140.8290   70.7470  228.1240 C   0  0  0  0  0  0  0  0  0  0  0  0
  140.9990   71.5500  227.0150 C   0  0  0  0  0  0  0  0  0  0  0  0
  140.5170   71.0750  225.8150 C   0  0  0  0  0  0  0  0  0  0  0  0
  140.6920   71.8770  224.7350 N   0  0  0  0  0  0  0  0  0  0  0  0
  139.3080   73.9820  223.1590 H   0  0  0  0  0  0  0  0  0  0  0  0
  141.0524   74.5168  220.8827 H   0  0  0  0  0  0  0  0  0  0  0  0
  139.3246   74.2071  220.4250 H   0  0  0  0  0  0  0  0  0  0  0  0
  138.4974   76.9345  219.5524 H   0  0  0  0  0  0  0  0  0  0  0  0
  138.7154   78.5237  220.4115 H   0  0  0  0  0  0  0  0  0  0  0  0
  140.1685   77.4383  218.0023 H   0  0  0  0  0  0  0  0  0  0  0  0
  139.2984   79.0064  218.2270 H   0  0  0  0  0  0  0  0  0  0  0  0
  141.7656   79.3335  218.2446 H   0  0  0  0  0  0  0  0  0  0  0  0
  141.0602   79.7617  219.8154 H   0  0  0  0  0  0  0  0  0  0  0  0
  142.1110   76.9580  219.1421 H   0  0  0  0  0  0  0  0  0  0  0  0
  143.1215   78.2068  219.9145 H   0  0  0  0  0  0  0  0  0  0  0  0
  142.0179   76.7310  221.6174 H   0  0  0  0  0  0  0  0  0  0  0  0
  139.5514   78.3692  222.8808 H   0  0  0  0  0  0  0  0  0  0  0  0
  139.6933   80.2796  224.4434 H   0  0  0  0  0  0  0  0  0  0  0  0
  141.7419   81.6925  224.5138 H   0  0  0  0  0  0  0  0  0  0  0  0
  143.6185   81.1168  222.9735 H   0  0  0  0  0  0  0  0  0  0  0  0
  139.2551   69.9635  222.3773 H   0  0  0  0  0  0  0  0  0  0  0  0
  138.9269   68.4829  224.3394 H   0  0  0  0  0  0  0  0  0  0  0  0
  139.2290   68.1002  226.7299 H   0  0  0  0  0  0  0  0  0  0  0  0
  141.1984   71.0836  229.1039 H   0  0  0  0  0  0  0  0  0  0  0  0
  141.4981   72.5277  227.0859 H   0  0  0  0  0  0  0  0  0  0  0  0
  1  2  2  0
  2  3  1  0
  3  4  1  0
  4  5  1  0
  5  6  2  0
  5  7  1  0
  7  8  1  0
  8  9  1  0
  9 10  1  0
 10 11  1  0
 11 12  1  0
 12 13  1  0
 13 14  2  0
 14 15  1  0
 15 16  2  0
 16 17  1  0
 17 18  2  0
  2 19  1  0
 19 20  2  0
 20 21  1  0
 21 22  2  0
 22 23  1  0
 23 24  2  0
 24 25  1  0
 24 26  1  0
 26 27  2  0
 27 28  1  0
 28 29  2  0
 12  7  1  0
 18 13  1  0
 29 19  1  0
 28 22  1  0
  3 30  1  0
  4 31  1  0
  4 32  1  0
  8 33  1  0
  8 34  1  0
  9 35  1  0
  9 36  1  0
 10 37  1  0
 10 38  1  0
 11 39  1  0
 11 40  1  0
 12 41  1  1
 14 42  1  0
 15 43  1  0
 16 44  1  0
 17 45  1  0
 20 46  1  0
 21 47  1  0
 23 48  1  0
 26 49  1  0
 27 50  1  0
M  END
>  <smiles>  (68) 
O=C(NCC(=O)N1CCCCC1c1ccccn1)c1ccc2cc(F)ccc2n1

>  <score_type>  (68) 
oracle

>  <origin>  (68) 
autodockgpu

>  <m_score__min__energy>  (68) 
-8.8900000000000006

>  <m_primary>  (68) 
energy

>  <rmsd>  (68) 
2.384637326603758

>  <m_score__min__rmsd>  (68) 
2.384637326603758

>  <meeko>  (68) 
{"free_energy": -8.48, "intermolecular_energy": -9.98, "internal_energy": -1.87, "cluster_size": 27, "cluster_id": 1, "rank_in_cluster": 17}

>  <energy>  (68) 
-8.48

>  <cluster_rmsd>  (68) 
1.24

>  <cluster>  (68) 
1

$$$$

     RDKit          3D

 50 53  0  0  0  0  0  0  0  0999 V2000
  140.8010   71.8840  221.1990 O   0  0  0  0  0  0  0  0  0  0  0  0
  140.2490   72.2840  222.2760 C   0  0  0  0  0  0  0  0  0  0  0  0
  139.7110   73.6070  222.3340 N   0  0  0  0  0  0  0  0  0  0  0  0
  139.7720   74.5090  221.2140 C   0  0  0  0  0  0  0  0  0  0  0  0
  139.5910   75.9230  221.6320 C   0  0  0  0  0  0  0  0  0  0  0  0
  138.9420   76.1460  222.6910 O   0  0  0  0  0  0  0  0  0  0  0  0
  140.1100   77.0260  220.8990 N   0  0  0  0  0  0  0  0  0  0  0  0
  139.2730   77.6340  219.8930 C   0  0  0  0  0  0  0  0  0  0  0  0
  140.0660   78.1530  218.7190 C   0  0  0  0  0  0  0  0  0  0  0  0
  141.3610   78.8120  219.1830 C   0  0  0  0  0  0  0  0  0  0  0  0
  142.1490   77.7450  219.9020 C   0  0  0  0  0  0  0  0  0  0  0  0
  141.4500   77.4650  221.2110 C   0  0  1  0  0  0  0  0  0  0  0  0
  141.4900   78.6260  222.1170 C   0  0  0  0  0  0  0  0  0  0  0  0
  140.4050   78.9830  222.9180 C   0  0  0  0  0  0  0  0  0  0  0  0
  140.4620   80.0770  223.7710 C   0  0  0  0  0  0  0  0  0  0  0  0
  141.5970   80.8420  223.8450 C   0  0  0  0  0  0  0  0  0  0  0  0
  142.6610   80.4770  223.0460 C   0  0  0  0  0  0  0  0  0  0  0  0
  142.5760   79.4090  222.2300 N   0  0  0  0  0  0  0  0  0  0  0  0
  140.1580   71.4220  223.4370 C   0  0  0  0  0  0  0  0  0  0  0  0
  139.5920   70.1720  223.3110 C   0  0  0  0  0  0  0  0  0  0  0  0
  139.4970   69.3380  224.4040 C   0  0  0  0  0  0  0  0  0  0  0  0
  139.9740   69.7670  225.6310 C   0  0  0  0  0  0  0  0  0  0  0  0
  139.9020   68.9790  226.7400 C   0  0  0  0  0  0  0  0  0  0  0  0
  140.3880   69.4500  227.9290 C   0  0  0  0  0  0  0  0  0  0  0  0
  140.3070   68.6410  229.0350 F   0  0  0  0  0  0  0  0  0  0  0  0
  140.9500   70.7120  228.0210 C   0  0  0  0  0  0  0  0  0  0  0  0
  141.0310   71.5240  226.9090 C   0  0  0  0  0  0  0  0  0  0  0  0
  140.5340   71.0210  225.7260 C   0  0  0  0  0  0  0  0  0  0  0  0
  140.6210   71.8320  224.6430 N   0  0  0  0  0  0  0  0  0  0  0  0
  139.2580   73.9430  223.2060 H   0  0  0  0  0  0  0  0  0  0  0  0
  140.7525   74.4049  220.7264 H   0  0  0  0  0  0  0  0  0  0  0  0
  138.9563   74.2504  220.5228 H   0  0  0  0  0  0  0  0  0  0  0  0
  138.5556   76.8833  219.5301 H   0  0  0  0  0  0  0  0  0  0  0  0
  138.7618   78.4907  220.3563 H   0  0  0  0  0  0  0  0  0  0  0  0
  140.3087   77.3144  218.0498 H   0  0  0  0  0  0  0  0  0  0  0  0
  139.4600   78.9040  218.1911 H   0  0  0  0  0  0  0  0  0  0  0  0
  141.9285   79.1860  218.3181 H   0  0  0  0  0  0  0  0  0  0  0  0
  141.1580   79.6693  219.8416 H   0  0  0  0  0  0  0  0  0  0  0  0
  142.1844   76.8300  219.2925 H   0  0  0  0  0  0  0  0  0  0  0  0
  143.1813   78.0808  220.0795 H   0  0  0  0  0  0  0  0  0  0  0  0
  141.9697   76.6703  221.7663 H   0  0  0  0  0  0  0  0  0  0  0  0
  139.4834   78.3842  222.8727 H   0  0  0  0  0  0  0  0  0  0  0  0
  139.5903   80.3316  224.3917 H   0  0  0  0  0  0  0  0  0  0  0  0
  141.6572   81.7124  224.5149 H   0  0  0  0  0  0  0  0  0  0  0  0
  143.5899   81.0654  223.0759 H   0  0  0  0  0  0  0  0  0  0  0  0
  139.2142   69.8382  222.3333 H   0  0  0  0  0  0  0  0  0  0  0  0
  139.0460   68.3399  224.3025 H   0  0  0  0  0  0  0  0  0  0  0  0
  139.4577   67.9745  226.6801 H   0  0  0  0  0  0  0  0  0  0  0  0
  141.3345   71.0695  228.9876 H   0  0  0  0  0  0  0  0  0  0  0  0
  141.4732   72.5297  226.9640 H   0  0  0  0  0  0  0  0  0  0  0  0
  1  2  2  0
  2  3  1  0
  3  4  1  0
  4  5  1  0
  5  6  2  0
  5  7  1  0
  7  8  1  0
  8  9  1  0
  9 10  1  0
 10 11  1  0
 11 12  1  0
 12 13  1  0
 13 14  2  0
 14 15  1  0
 15 16  2  0
 16 17  1  0
 17 18  2  0
  2 19  1  0
 19 20  2  0
 20 21  1  0
 21 22  2  0
 22 23  1  0
 23 24  2  0
 24 25  1  0
 24 26  1  0
 26 27  2  0
 27 28  1  0
 28 29  2  0
 12  7  1  0
 18 13  1  0
 29 19  1  0
 28 22  1  0
  3 30  1  0
  4 31  1  0
  4 32  1  0
  8 33  1  0
  8 34  1  0
  9 35  1  0
  9 36  1  0
 10 37  1  0
 10 38  1  0
 11 39  1  0
 11 40  1  0
 12 41  1  1
 14 42  1  0
 15 43  1  0
 16 44  1  0
 17 45  1  0
 20 46  1  0
 21 47  1  0
 23 48  1  0
 26 49  1  0
 27 50  1  0
M  END
>  <smiles>  (69) 
O=C(NCC(=O)N1CCCCC1c1ccccn1)c1ccc2cc(F)ccc2n1

>  <score_type>  (69) 
oracle

>  <origin>  (69) 
autodockgpu

>  <m_score__min__energy>  (69) 
-8.8900000000000006

>  <m_primary>  (69) 
energy

>  <rmsd>  (69) 
2.3346958558157023

>  <m_score__min__rmsd>  (69) 
2.3346958558157023

>  <meeko>  (69) 
{"free_energy": -8.51, "intermolecular_energy": -10.0, "internal_energy": -1.87, "cluster_size": 27, "cluster_id": 1, "rank_in_cluster": 15}

>  <energy>  (69) 
-8.45

>  <cluster_rmsd>  (69) 
1.25

>  <cluster>  (69) 
1

$$$$

     RDKit          3D

 50 53  0  0  0  0  0  0  0  0999 V2000
  138.5340   74.6130  222.0140 O   0  0  0  0  0  0  0  0  0  0  0  0
  139.6850   75.1250  221.8130 C   0  0  0  0  0  0  0  0  0  0  0  0
  139.8450   76.5410  221.9190 N   0  0  0  0  0  0  0  0  0  0  0  0
  138.7480   77.4150  222.2450 C   0  0  0  0  0  0  0  0  0  0  0  0
  139.2180   78.6990  222.8260 C   0  0  0  0  0  0  0  0  0  0  0  0
  138.3840   79.3990  223.4620 O   0  0  0  0  0  0  0  0  0  0  0  0
  140.5540   79.1710  222.6960 N   0  0  0  0  0  0  0  0  0  0  0  0
  141.5270   78.7490  223.6750 C   0  0  0  0  0  0  0  0  0  0  0  0
  142.5600   79.8110  223.9570 C   0  0  0  0  0  0  0  0  0  0  0  0
  142.9780   80.5200  222.6720 C   0  0  0  0  0  0  0  0  0  0  0  0
  141.7300   81.1560  222.1100 C   0  0  0  0  0  0  0  0  0  0  0  0
  140.8500   80.0460  221.5870 C   0  0  1  0  0  0  0  0  0  0  0  0
  141.4600   79.3520  220.4390 C   0  0  0  0  0  0  0  0  0  0  0  0
  141.8050   80.0190  219.2640 C   0  0  0  0  0  0  0  0  0  0  0  0
  142.3840   79.3510  218.1940 C   0  0  0  0  0  0  0  0  0  0  0  0
  142.6320   78.0050  218.2670 C   0  0  0  0  0  0  0  0  0  0  0  0
  142.2850   77.3590  219.4360 C   0  0  0  0  0  0  0  0  0  0  0  0
  141.7250   78.0350  220.4580 N   0  0  0  0  0  0  0  0  0  0  0  0
  140.8260   74.2970  221.4820 C   0  0  0  0  0  0  0  0  0  0  0  0
  140.7070   72.9260  221.5320 C   0  0  0  0  0  0  0  0  0  0  0  0
  141.7820   72.1220  221.2200 C   0  0  0  0  0  0  0  0  0  0  0  0
  142.9850   72.7040  220.8560 C   0  0  0  0  0  0  0  0  0  0  0  0
  144.0750   71.9520  220.5400 C   0  0  0  0  0  0  0  0  0  0  0  0
  145.2400   72.5760  220.1870 C   0  0  0  0  0  0  0  0  0  0  0  0
  146.3280   71.8010  219.8700 F   0  0  0  0  0  0  0  0  0  0  0  0
  145.3260   73.9570  220.1470 C   0  0  0  0  0  0  0  0  0  0  0  0
  144.2320   74.7350  220.4640 C   0  0  0  0  0  0  0  0  0  0  0  0
  143.0730   74.0770  220.8160 C   0  0  0  0  0  0  0  0  0  0  0  0
  142.0080   74.8570  221.1250 N   0  0  0  0  0  0  0  0  0  0  0  0
  140.7780   76.9690  221.7590 H   0  0  0  0  0  0  0  0  0  0  0  0
  138.1773   77.6268  221.3288 H   0  0  0  0  0  0  0  0  0  0  0  0
  138.1206   76.9105  222.9945 H   0  0  0  0  0  0  0  0  0  0  0  0
  141.0033   78.5085  224.6120 H   0  0  0  0  0  0  0  0  0  0  0  0
  142.0516   77.8718  223.2685 H   0  0  0  0  0  0  0  0  0  0  0  0
  142.1365   80.5491  224.6540 H   0  0  0  0  0  0  0  0  0  0  0  0
  143.4463   79.3307  224.3972 H   0  0  0  0  0  0  0  0  0  0  0  0
  143.7320   81.2904  222.8908 H   0  0  0  0  0  0  0  0  0  0  0  0
  143.4236   79.8150  221.9548 H   0  0  0  0  0  0  0  0  0  0  0  0
  141.2036   81.7119  222.8999 H   0  0  0  0  0  0  0  0  0  0  0  0
  141.9838   81.8609  221.3046 H   0  0  0  0  0  0  0  0  0  0  0  0
  139.9090   80.4526  221.1880 H   0  0  0  0  0  0  0  0  0  0  0  0
  141.6139   81.0993  219.1833 H   0  0  0  0  0  0  0  0  0  0  0  0
  142.6457   79.9058  217.2809 H   0  0  0  0  0  0  0  0  0  0  0  0
  143.0894   77.4614  217.4272 H   0  0  0  0  0  0  0  0  0  0  0  0
  142.4679   76.2788  219.5346 H   0  0  0  0  0  0  0  0  0  0  0  0
  139.7489   72.4702  221.8225 H   0  0  0  0  0  0  0  0  0  0  0  0
  141.6854   71.0270  221.2597 H   0  0  0  0  0  0  0  0  0  0  0  0
  144.0194   70.8538  220.5682 H   0  0  0  0  0  0  0  0  0  0  0  0
  146.2732   74.4373  219.8605 H   0  0  0  0  0  0  0  0  0  0  0  0
  144.2823   75.8335  220.4371 H   0  0  0  0  0  0  0  0  0  0  0  0
  1  2  2  0
  2  3  1  0
  3  4  1  0
  4  5  1  0
  5  6  2  0
  5  7  1  0
  7  8  1  0
  8  9  1  0
  9 10  1  0
 10 11  1  0
 11 12  1  0
 12 13  1  0
 13 14  2  0
 14 15  1  0
 15 16  2  0
 16 17  1  0
 17 18  2  0
  2 19  1  0
 19 20  2  0
 20 21  1  0
 21 22  2  0
 22 23  1  0
 23 24  2  0
 24 25  1  0
 24 26  1  0
 26 27  2  0
 27 28  1  0
 28 29  2  0
 12  7  1  0
 18 13  1  0
 29 19  1  0
 28 22  1  0
  3 30  1  0
  4 31  1  0
  4 32  1  0
  8 33  1  0
  8 34  1  0
  9 35  1  0
  9 36  1  0
 10 37  1  0
 10 38  1  0
 11 39  1  0
 11 40  1  0
 12 41  1  6
 14 42  1  0
 15 43  1  0
 16 44  1  0
 17 45  1  0
 20 46  1  0
 21 47  1  0
 23 48  1  0
 26 49  1  0
 27 50  1  0
M  END
>  <smiles>  (70) 
O=C(NCC(=O)N1CCCCC1c1ccccn1)c1ccc2cc(F)ccc2n1

>  <score_type>  (70) 
oracle

>  <origin>  (70) 
autodockgpu

>  <m_score__min__energy>  (70) 
-8.8900000000000006

>  <m_primary>  (70) 
energy

>  <rmsd>  (70) 
6.0618336855809565

>  <m_score__min__rmsd>  (70) 
6.0618336855809565

>  <meeko>  (70) 
{"free_energy": -6.99, "intermolecular_energy": -8.48, "internal_energy": -3.01, "cluster_size": 12, "cluster_id": 4, "rank_in_cluster": 10}

>  <energy>  (70) 
-8.44

>  <cluster_rmsd>  (70) 
0.81

>  <cluster>  (70) 
1

$$$$

     RDKit          3D

 50 53  0  0  0  0  0  0  0  0999 V2000
  139.7620   71.4170  221.0540 O   0  0  0  0  0  0  0  0  0  0  0  0
  139.6990   71.9350  222.2170 C   0  0  0  0  0  0  0  0  0  0  0  0
  139.5890   73.3540  222.3430 N   0  0  0  0  0  0  0  0  0  0  0  0
  139.5500   74.2250  221.1970 C   0  0  0  0  0  0  0  0  0  0  0  0
  139.6130   75.6570  221.5890 C   0  0  0  0  0  0  0  0  0  0  0  0
  139.2500   75.9660  222.7570 O   0  0  0  0  0  0  0  0  0  0  0  0
  140.0580   76.6850  220.7130 N   0  0  0  0  0  0  0  0  0  0  0  0
  139.1280   77.2080  219.7420 C   0  0  0  0  0  0  0  0  0  0  0  0
  139.8040   77.6130  218.4550 C   0  0  0  0  0  0  0  0  0  0  0  0
  141.1370   78.3010  218.7320 C   0  0  0  0  0  0  0  0  0  0  0  0
  141.9910   77.2960  219.4650 C   0  0  0  0  0  0  0  0  0  0  0  0
  141.4210   77.1400  220.8540 C   0  0  1  0  0  0  0  0  0  0  0  0
  141.5470   78.3770  221.6450 C   0  0  0  0  0  0  0  0  0  0  0  0
  141.2780   78.4180  223.0130 C   0  0  0  0  0  0  0  0  0  0  0  0
  141.4070   79.5910  223.7430 C   0  0  0  0  0  0  0  0  0  0  0  0
  141.8050   80.7510  223.1310 C   0  0  0  0  0  0  0  0  0  0  0  0
  142.0680   80.6950  221.7780 C   0  0  0  0  0  0  0  0  0  0  0  0
  141.9340   79.5420  221.0950 N   0  0  0  0  0  0  0  0  0  0  0  0
  139.7340   71.1110  223.4080 C   0  0  0  0  0  0  0  0  0  0  0  0
  139.2930   69.8070  223.3430 C   0  0  0  0  0  0  0  0  0  0  0  0
  139.3200   69.0070  224.4660 C   0  0  0  0  0  0  0  0  0  0  0  0
  139.7930   69.5250  225.6600 C   0  0  0  0  0  0  0  0  0  0  0  0
  139.8380   68.7740  226.7950 C   0  0  0  0  0  0  0  0  0  0  0  0
  140.3130   69.3330  227.9500 C   0  0  0  0  0  0  0  0  0  0  0  0
  140.3520   68.5610  229.0830 F   0  0  0  0  0  0  0  0  0  0  0  0
  140.7480   70.6470  227.9800 C   0  0  0  0  0  0  0  0  0  0  0  0
  140.7100   71.4230  226.8390 C   0  0  0  0  0  0  0  0  0  0  0  0
  140.2260   70.8310  225.6930 C   0  0  0  0  0  0  0  0  0  0  0  0
  140.1940   71.6080  224.5810 N   0  0  0  0  0  0  0  0  0  0  0  0
  139.5360   73.7870  223.2860 H   0  0  0  0  0  0  0  0  0  0  0  0
  140.4070   73.9960  220.5466 H   0  0  0  0  0  0  0  0  0  0  0  0
  138.5984   74.0561  220.6718 H   0  0  0  0  0  0  0  0  0  0  0  0
  138.3786   76.4343  219.5187 H   0  0  0  0  0  0  0  0  0  0  0  0
  138.6642   78.1072  220.1736 H   0  0  0  0  0  0  0  0  0  0  0  0
  139.9822   76.7157  217.8442 H   0  0  0  0  0  0  0  0  0  0  0  0
  139.1494   78.3179  217.9215 H   0  0  0  0  0  0  0  0  0  0  0  0
  141.6186   78.5920  217.7868 H   0  0  0  0  0  0  0  0  0  0  0  0
  140.9976   79.2154  219.3273 H   0  0  0  0  0  0  0  0  0  0  0  0
  141.9681   76.3300  218.9394 H   0  0  0  0  0  0  0  0  0  0  0  0
  143.0355   77.6377  219.5120 H   0  0  0  0  0  0  0  0  0  0  0  0
  141.9926   76.3941  221.4258 H   0  0  0  0  0  0  0  0  0  0  0  0
  140.9561   77.4992  223.5250 H   0  0  0  0  0  0  0  0  0  0  0  0
  141.1882   79.5899  224.8210 H   0  0  0  0  0  0  0  0  0  0  0  0
  141.9104   81.6889  223.6960 H   0  0  0  0  0  0  0  0  0  0  0  0
  142.3914   81.6041  221.2499 H   0  0  0  0  0  0  0  0  0  0  0  0
  138.9179   69.4025  222.3913 H   0  0  0  0  0  0  0  0  0  0  0  0
  138.9687   67.9659  224.4137 H   0  0  0  0  0  0  0  0  0  0  0  0
  139.4960   67.7286  226.7834 H   0  0  0  0  0  0  0  0  0  0  0  0
  141.1266   71.0757  228.9197 H   0  0  0  0  0  0  0  0  0  0  0  0
  141.0514   72.4687  226.8445 H   0  0  0  0  0  0  0  0  0  0  0  0
  1  2  2  0
  2  3  1  0
  3  4  1  0
  4  5  1  0
  5  6  2  0
  5  7  1  0
  7  8  1  0
  8  9  1  0
  9 10  1  0
 10 11  1  0
 11 12  1  0
 12 13  1  0
 13 14  2  0
 14 15  1  0
 15 16  2  0
 16 17  1  0
 17 18  2  0
  2 19  1  0
 19 20  2  0
 20 21  1  0
 21 22  2  0
 22 23  1  0
 23 24  2  0
 24 25  1  0
 24 26  1  0
 26 27  2  0
 27 28  1  0
 28 29  2  0
 12  7  1  0
 18 13  1  0
 29 19  1  0
 28 22  1  0
  3 30  1  0
  4 31  1  0
  4 32  1  0
  8 33  1  0
  8 34  1  0
  9 35  1  0
  9 36  1  0
 10 37  1  0
 10 38  1  0
 11 39  1  0
 11 40  1  0
 12 41  1  1
 14 42  1  0
 15 43  1  0
 16 44  1  0
 17 45  1  0
 20 46  1  0
 21 47  1  0
 23 48  1  0
 26 49  1  0
 27 50  1  0
M  END
>  <smiles>  (71) 
O=C(NCC(=O)N1CCCCC1c1ccccn1)c1ccc2cc(F)ccc2n1

>  <score_type>  (71) 
oracle

>  <origin>  (71) 
autodockgpu

>  <m_score__min__energy>  (71) 
-8.8900000000000006

>  <m_primary>  (71) 
energy

>  <rmsd>  (71) 
2.1943855976173943

>  <m_score__min__rmsd>  (71) 
2.1943855976173943

>  <meeko>  (71) 
{"free_energy": -8.22, "intermolecular_energy": -9.71, "internal_energy": -1.87, "cluster_size": 27, "cluster_id": 1, "rank_in_cluster": 25}

>  <energy>  (71) 
-8.44

>  <cluster_rmsd>  (71) 
0.82

>  <cluster>  (71) 
1

$$$$

     RDKit          3D

 50 53  0  0  0  0  0  0  0  0999 V2000
  139.5920   75.2530  222.5120 O   0  0  0  0  0  0  0  0  0  0  0  0
  140.2340   75.7880  221.5480 C   0  0  0  0  0  0  0  0  0  0  0  0
  139.7740   77.0290  221.0100 N   0  0  0  0  0  0  0  0  0  0  0  0
  138.6070   77.7000  221.5190 C   0  0  0  0  0  0  0  0  0  0  0  0
  138.9650   78.8310  222.4150 C   0  0  0  0  0  0  0  0  0  0  0  0
  138.0480   79.3440  223.1120 O   0  0  0  0  0  0  0  0  0  0  0  0
  140.2830   79.3550  222.5190 N   0  0  0  0  0  0  0  0  0  0  0  0
  141.2460   78.6330  223.3160 C   0  0  0  0  0  0  0  0  0  0  0  0
  142.2270   79.5480  224.0050 C   0  0  0  0  0  0  0  0  0  0  0  0
  142.6500   80.6890  223.0840 C   0  0  0  0  0  0  0  0  0  0  0  0
  141.3920   81.4500  222.7420 C   0  0  0  0  0  0  0  0  0  0  0  0
  140.5720   80.5830  221.8160 C   0  0  1  0  0  0  0  0  0  0  0  0
  141.2410   80.3730  220.5200 C   0  0  0  0  0  0  0  0  0  0  0  0
  141.5600   81.4300  219.6670 C   0  0  0  0  0  0  0  0  0  0  0  0
  142.1950   81.2150  218.4520 C   0  0  0  0  0  0  0  0  0  0  0  0
  142.5260   79.9450  218.0560 C   0  0  0  0  0  0  0  0  0  0  0  0
  142.2040   78.9110  218.9100 C   0  0  0  0  0  0  0  0  0  0  0  0
  141.5890   79.1500  220.0830 N   0  0  0  0  0  0  0  0  0  0  0  0
  141.4150   75.1590  220.9940 C   0  0  0  0  0  0  0  0  0  0  0  0
  142.3200   75.9200  220.2860 C   0  0  0  0  0  0  0  0  0  0  0  0
  143.4500   75.3400  219.7520 C   0  0  0  0  0  0  0  0  0  0  0  0
  143.6690   73.9850  219.9320 C   0  0  0  0  0  0  0  0  0  0  0  0
  144.7700   73.3660  219.4220 C   0  0  0  0  0  0  0  0  0  0  0  0
  144.9400   72.0240  219.6270 C   0  0  0  0  0  0  0  0  0  0  0  0
  146.0570   71.4190  219.1070 F   0  0  0  0  0  0  0  0  0  0  0  0
  144.0110   71.2890  220.3430 C   0  0  0  0  0  0  0  0  0  0  0  0
  142.8900   71.8980  220.8660 C   0  0  0  0  0  0  0  0  0  0  0  0
  142.7470   73.2510  220.6430 C   0  0  0  0  0  0  0  0  0  0  0  0
  141.6390   73.8330  221.1630 N   0  0  0  0  0  0  0  0  0  0  0  0
  140.2890   77.4740  220.2250 H   0  0  0  0  0  0  0  0  0  0  0  0
  138.0223   78.0884  220.6721 H   0  0  0  0  0  0  0  0  0  0  0  0
  138.0234   76.9734  222.1034 H   0  0  0  0  0  0  0  0  0  0  0  0
  140.7077   78.0532  224.0802 H   0  0  0  0  0  0  0  0  0  0  0  0
  141.8166   77.9792  222.6400 H   0  0  0  0  0  0  0  0  0  0  0  0
  141.7555   79.9685  224.9055 H   0  0  0  0  0  0  0  0  0  0  0  0
  143.1203   78.9653  224.2743 H   0  0  0  0  0  0  0  0  0  0  0  0
  143.3651   81.3478  223.5984 H   0  0  0  0  0  0  0  0  0  0  0  0
  143.1439   80.3078  222.1781 H   0  0  0  0  0  0  0  0  0  0  0  0
  140.8222   81.6640  223.6582 H   0  0  0  0  0  0  0  0  0  0  0  0
  141.6384   82.4068  222.2585 H   0  0  0  0  0  0  0  0  0  0  0  0
  139.6262   81.0801  221.5545 H   0  0  0  0  0  0  0  0  0  0  0  0
  141.3023   82.4572  219.9644 H   0  0  0  0  0  0  0  0  0  0  0  0
  142.4344   82.0696  217.8021 H   0  0  0  0  0  0  0  0  0  0  0  0
  143.0284   79.7581  217.0954 H   0  0  0  0  0  0  0  0  0  0  0  0
  142.4532   77.8772  218.6286 H   0  0  0  0  0  0  0  0  0  0  0  0
  142.1393   76.9960  220.1465 H   0  0  0  0  0  0  0  0  0  0  0  0
  144.1719   75.9484  219.1875 H   0  0  0  0  0  0  0  0  0  0  0  0
  145.5151   73.9394  218.8510 H   0  0  0  0  0  0  0  0  0  0  0  0
  144.1682   70.2111  220.4959 H   0  0  0  0  0  0  0  0  0  0  0  0
  142.1417   71.3286  221.4368 H   0  0  0  0  0  0  0  0  0  0  0  0
  1  2  2  0
  2  3  1  0
  3  4  1  0
  4  5  1  0
  5  6  2  0
  5  7  1  0
  7  8  1  0
  8  9  1  0
  9 10  1  0
 10 11  1  0
 11 12  1  0
 12 13  1  0
 13 14  2  0
 14 15  1  0
 15 16  2  0
 16 17  1  0
 17 18  2  0
  2 19  1  0
 19 20  2  0
 20 21  1  0
 21 22  2  0
 22 23  1  0
 23 24  2  0
 24 25  1  0
 24 26  1  0
 26 27  2  0
 27 28  1  0
 28 29  2  0
 12  7  1  0
 18 13  1  0
 29 19  1  0
 28 22  1  0
  3 30  1  0
  4 31  1  0
  4 32  1  0
  8 33  1  0
  8 34  1  0
  9 35  1  0
  9 36  1  0
 10 37  1  0
 10 38  1  0
 11 39  1  0
 11 40  1  0
 12 41  1  6
 14 42  1  0
 15 43  1  0
 16 44  1  0
 17 45  1  0
 20 46  1  0
 21 47  1  0
 23 48  1  0
 26 49  1  0
 27 50  1  0
M  END
>  <smiles>  (72) 
O=C(NCC(=O)N1CCCCC1c1ccccn1)c1ccc2cc(F)ccc2n1

>  <score_type>  (72) 
oracle

>  <origin>  (72) 
autodockgpu

>  <m_score__min__energy>  (72) 
-8.8900000000000006

>  <m_primary>  (72) 
energy

>  <rmsd>  (72) 
6.6035732904421245

>  <m_score__min__rmsd>  (72) 
6.6035732904421245

>  <meeko>  (72) 
{"free_energy": -6.92, "intermolecular_energy": -8.41, "internal_energy": -2.68, "cluster_size": 12, "cluster_id": 4, "rank_in_cluster": 12}

>  <energy>  (72) 
-8.44

>  <cluster_rmsd>  (72) 
1.25

>  <cluster>  (72) 
1

$$$$

     RDKit          3D

 50 53  0  0  0  0  0  0  0  0999 V2000
  140.8980   71.8240  221.2200 O   0  0  0  0  0  0  0  0  0  0  0  0
  140.3760   72.2780  222.2920 C   0  0  0  0  0  0  0  0  0  0  0  0
  139.9480   73.6410  222.3340 N   0  0  0  0  0  0  0  0  0  0  0  0
  140.0870   74.5240  221.2060 C   0  0  0  0  0  0  0  0  0  0  0  0
  139.9200   75.9490  221.5950 C   0  0  0  0  0  0  0  0  0  0  0  0
  139.4090   76.1960  222.7210 O   0  0  0  0  0  0  0  0  0  0  0  0
  140.3060   77.0350  220.7610 N   0  0  0  0  0  0  0  0  0  0  0  0
  139.3220   77.5950  219.8670 C   0  0  0  0  0  0  0  0  0  0  0  0
  139.9270   78.0870  218.5760 C   0  0  0  0  0  0  0  0  0  0  0  0
  141.2610   78.7840  218.8300 C   0  0  0  0  0  0  0  0  0  0  0  0
  142.1660   77.7550  219.4620 C   0  0  0  0  0  0  0  0  0  0  0  0
  141.6660   77.5070  220.8650 C   0  0  1  0  0  0  0  0  0  0  0  0
  141.8090   78.6990  221.7200 C   0  0  0  0  0  0  0  0  0  0  0  0
  141.6830   78.6390  223.1080 C   0  0  0  0  0  0  0  0  0  0  0  0
  141.8260   79.7710  223.8980 C   0  0  0  0  0  0  0  0  0  0  0  0
  142.0970   80.9880  223.3280 C   0  0  0  0  0  0  0  0  0  0  0  0
  142.2180   81.0310  221.9550 C   0  0  0  0  0  0  0  0  0  0  0  0
  142.0750   79.9150  221.2140 N   0  0  0  0  0  0  0  0  0  0  0  0
  140.2110   71.4380  223.4590 C   0  0  0  0  0  0  0  0  0  0  0  0
  139.5830   70.2180  223.3340 C   0  0  0  0  0  0  0  0  0  0  0  0
  139.4160   69.4050  224.4350 C   0  0  0  0  0  0  0  0  0  0  0  0
  139.8850   69.8250  225.6680 C   0  0  0  0  0  0  0  0  0  0  0  0
  139.7430   69.0570  226.7840 C   0  0  0  0  0  0  0  0  0  0  0  0
  140.2230   69.5170  227.9800 C   0  0  0  0  0  0  0  0  0  0  0  0
  140.0720   68.7280  229.0930 F   0  0  0  0  0  0  0  0  0  0  0  0
  140.8490   70.7490  228.0710 C   0  0  0  0  0  0  0  0  0  0  0  0
  141.0010   71.5400  226.9510 C   0  0  0  0  0  0  0  0  0  0  0  0
  140.5070   71.0490  225.7620 C   0  0  0  0  0  0  0  0  0  0  0  0
  140.6640   71.8400  224.6720 N   0  0  0  0  0  0  0  0  0  0  0  0
  139.5210   74.0220  223.2020 H   0  0  0  0  0  0  0  0  0  0  0  0
  141.0878   74.3892  220.7698 H   0  0  0  0  0  0  0  0  0  0  0  0
  139.3009   74.2744  220.4782 H   0  0  0  0  0  0  0  0  0  0  0  0
  138.5759   76.8209  219.6343 H   0  0  0  0  0  0  0  0  0  0  0  0
  138.8652   78.4588  220.3722 H   0  0  0  0  0  0  0  0  0  0  0  0
  140.0902   77.2305  217.9054 H   0  0  0  0  0  0  0  0  0  0  0  0
  139.2355   78.8086  218.1166 H   0  0  0  0  0  0  0  0  0  0  0  0
  141.6917   79.1383  217.8819 H   0  0  0  0  0  0  0  0  0  0  0  0
  141.1352   79.6596  219.4838 H   0  0  0  0  0  0  0  0  0  0  0  0
  142.1343   76.8209  218.8820 H   0  0  0  0  0  0  0  0  0  0  0  0
  143.2055   78.1142  219.4803 H   0  0  0  0  0  0  0  0  0  0  0  0
  142.2762   76.7403  221.3649 H   0  0  0  0  0  0  0  0  0  0  0  0
  141.4654   77.6729  223.5870 H   0  0  0  0  0  0  0  0  0  0  0  0
  141.7211   79.6911  224.9901 H   0  0  0  0  0  0  0  0  0  0  0  0
  142.2132   81.8938  223.9412 H   0  0  0  0  0  0  0  0  0  0  0  0
  142.4340   81.9885  221.4586 H   0  0  0  0  0  0  0  0  0  0  0  0
  139.2130   69.8910  222.3510 H   0  0  0  0  0  0  0  0  0  0  0  0
  138.9145   68.4311  224.3346 H   0  0  0  0  0  0  0  0  0  0  0  0
  139.2474   68.0768  226.7244 H   0  0  0  0  0  0  0  0  0  0  0  0
  141.2275   71.0991  229.0427 H   0  0  0  0  0  0  0  0  0  0  0  0
  141.4956   72.5211  227.0048 H   0  0  0  0  0  0  0  0  0  0  0  0
  1  2  2  0
  2  3  1  0
  3  4  1  0
  4  5  1  0
  5  6  2  0
  5  7  1  0
  7  8  1  0
  8  9  1  0
  9 10  1  0
 10 11  1  0
 11 12  1  0
 12 13  1  0
 13 14  2  0
 14 15  1  0
 15 16  2  0
 16 17  1  0
 17 18  2  0
  2 19  1  0
 19 20  2  0
 20 21  1  0
 21 22  2  0
 22 23  1  0
 23 24  2  0
 24 25  1  0
 24 26  1  0
 26 27  2  0
 27 28  1  0
 28 29  2  0
 12  7  1  0
 18 13  1  0
 29 19  1  0
 28 22  1  0
  3 30  1  0
  4 31  1  0
  4 32  1  0
  8 33  1  0
  8 34  1  0
  9 35  1  0
  9 36  1  0
 10 37  1  0
 10 38  1  0
 11 39  1  0
 11 40  1  0
 12 41  1  1
 14 42  1  0
 15 43  1  0
 16 44  1  0
 17 45  1  0
 20 46  1  0
 21 47  1  0
 23 48  1  0
 26 49  1  0
 27 50  1  0
M  END
>  <smiles>  (73) 
O=C(NCC(=O)N1CCCCC1c1ccccn1)c1ccc2cc(F)ccc2n1

>  <score_type>  (73) 
oracle

>  <origin>  (73) 
autodockgpu

>  <m_score__min__energy>  (73) 
-8.8900000000000006

>  <m_primary>  (73) 
energy

>  <rmsd>  (73) 
2.4329162233343578

>  <m_score__min__rmsd>  (73) 
2.4329162233343578

>  <meeko>  (73) 
{"free_energy": -8.56, "intermolecular_energy": -10.05, "internal_energy": -1.76, "cluster_size": 27, "cluster_id": 1, "rank_in_cluster": 12}

>  <energy>  (73) 
-8.37

>  <cluster_rmsd>  (73) 
0.88

>  <cluster>  (73) 
1

$$$$

     RDKit          3D

 50 53  0  0  0  0  0  0  0  0999 V2000
  138.7810   74.5700  222.3430 O   0  0  0  0  0  0  0  0  0  0  0  0
  139.8330   75.0580  221.8120 C   0  0  0  0  0  0  0  0  0  0  0  0
  139.9000   76.4640  221.5650 N   0  0  0  0  0  0  0  0  0  0  0  0
  138.8170   77.3530  221.8950 C   0  0  0  0  0  0  0  0  0  0  0  0
  139.2870   78.5340  222.6660 C   0  0  0  0  0  0  0  0  0  0  0  0
  138.4690   79.0890  223.4500 O   0  0  0  0  0  0  0  0  0  0  0  0
  140.6030   79.0610  222.5590 N   0  0  0  0  0  0  0  0  0  0  0  0
  141.5660   78.7110  223.5750 C   0  0  0  0  0  0  0  0  0  0  0  0
  142.5430   79.8260  223.8540 C   0  0  0  0  0  0  0  0  0  0  0  0
  142.9650   80.5180  222.5610 C   0  0  0  0  0  0  0  0  0  0  0  0
  141.7060   81.0810  221.9480 C   0  0  0  0  0  0  0  0  0  0  0  0
  140.8900   79.9190  221.4330 C   0  0  1  0  0  0  0  0  0  0  0  0
  141.5620   79.2230  220.3220 C   0  0  0  0  0  0  0  0  0  0  0  0
  141.8770   79.8640  219.1240 C   0  0  0  0  0  0  0  0  0  0  0  0
  142.5150   79.1940  218.0890 C   0  0  0  0  0  0  0  0  0  0  0  0
  142.8540   77.8720  218.2210 C   0  0  0  0  0  0  0  0  0  0  0  0
  142.5370   77.2530  219.4120 C   0  0  0  0  0  0  0  0  0  0  0  0
  141.9180   77.9290  220.3980 N   0  0  0  0  0  0  0  0  0  0  0  0
  140.9550   74.2130  221.4590 C   0  0  0  0  0  0  0  0  0  0  0  0
  140.8080   72.8440  221.4830 C   0  0  0  0  0  0  0  0  0  0  0  0
  141.8650   72.0240  221.1490 C   0  0  0  0  0  0  0  0  0  0  0  0
  143.0770   72.5890  220.7900 C   0  0  0  0  0  0  0  0  0  0  0  0
  144.1500   71.8200  220.4530 C   0  0  0  0  0  0  0  0  0  0  0  0
  145.3260   72.4270  220.1060 C   0  0  0  0  0  0  0  0  0  0  0  0
  146.3960   71.6360  219.7680 F   0  0  0  0  0  0  0  0  0  0  0  0
  145.4410   73.8070  220.0920 C   0  0  0  0  0  0  0  0  0  0  0  0
  144.3640   74.6010  220.4310 C   0  0  0  0  0  0  0  0  0  0  0  0
  143.1940   73.9600  220.7760 C   0  0  0  0  0  0  0  0  0  0  0  0
  142.1470   74.7550  221.1070 N   0  0  0  0  0  0  0  0  0  0  0  0
  140.7530   76.8720  221.1340 H   0  0  0  0  0  0  0  0  0  0  0  0
  138.3453   77.7004  220.9640 H   0  0  0  0  0  0  0  0  0  0  0  0
  138.0996   76.8005  222.5196 H   0  0  0  0  0  0  0  0  0  0  0  0
  141.0276   78.4731  224.5043 H   0  0  0  0  0  0  0  0  0  0  0  0
  142.1403   77.8477  223.2077 H   0  0  0  0  0  0  0  0  0  0  0  0
  142.0680   80.5630  224.5182 H   0  0  0  0  0  0  0  0  0  0  0  0
  143.4371   79.3981  224.3310 H   0  0  0  0  0  0  0  0  0  0  0  0
  143.6774   81.3276  222.7779 H   0  0  0  0  0  0  0  0  0  0  0  0
  143.4617   79.8148  221.8763 H   0  0  0  0  0  0  0  0  0  0  0  0
  141.1337   81.6339  222.7075 H   0  0  0  0  0  0  0  0  0  0  0  0
  141.9511   81.7739  221.1296 H   0  0  0  0  0  0  0  0  0  0  0  0
  139.9432   80.2717  220.9981 H   0  0  0  0  0  0  0  0  0  0  0  0
  141.6139   80.9244  218.9964 H   0  0  0  0  0  0  0  0  0  0  0  0
  142.7503   79.7275  217.1563 H   0  0  0  0  0  0  0  0  0  0  0  0
  143.3585   77.3270  217.4096 H   0  0  0  0  0  0  0  0  0  0  0  0
  142.7933   76.1933  219.5581 H   0  0  0  0  0  0  0  0  0  0  0  0
  139.8423   72.4023  221.7701 H   0  0  0  0  0  0  0  0  0  0  0  0
  141.7464   70.9306  221.1676 H   0  0  0  0  0  0  0  0  0  0  0  0
  144.0716   70.7228  220.4598 H   0  0  0  0  0  0  0  0  0  0  0  0
  146.3963   74.2732  219.8090 H   0  0  0  0  0  0  0  0  0  0  0  0
  144.4366   75.6986  220.4260 H   0  0  0  0  0  0  0  0  0  0  0  0
  1  2  2  0
  2  3  1  0
  3  4  1  0
  4  5  1  0
  5  6  2  0
  5  7  1  0
  7  8  1  0
  8  9  1  0
  9 10  1  0
 10 11  1  0
 11 12  1  0
 12 13  1  0
 13 14  2  0
 14 15  1  0
 15 16  2  0
 16 17  1  0
 17 18  2  0
  2 19  1  0
 19 20  2  0
 20 21  1  0
 21 22  2  0
 22 23  1  0
 23 24  2  0
 24 25  1  0
 24 26  1  0
 26 27  2  0
 27 28  1  0
 28 29  2  0
 12  7  1  0
 18 13  1  0
 29 19  1  0
 28 22  1  0
  3 30  1  0
  4 31  1  0
  4 32  1  0
  8 33  1  0
  8 34  1  0
  9 35  1  0
  9 36  1  0
 10 37  1  0
 10 38  1  0
 11 39  1  0
 11 40  1  0
 12 41  1  6
 14 42  1  0
 15 43  1  0
 16 44  1  0
 17 45  1  0
 20 46  1  0
 21 47  1  0
 23 48  1  0
 26 49  1  0
 27 50  1  0
M  END
>  <smiles>  (74) 
O=C(NCC(=O)N1CCCCC1c1ccccn1)c1ccc2cc(F)ccc2n1

>  <score_type>  (74) 
oracle

>  <origin>  (74) 
autodockgpu

>  <m_score__min__energy>  (74) 
-8.8900000000000006

>  <m_primary>  (74) 
energy

>  <rmsd>  (74) 
6.046757371390483

>  <m_score__min__rmsd>  (74) 
6.046757371390483

>  <meeko>  (74) 
{"free_energy": -7.06, "intermolecular_energy": -8.55, "internal_energy": -3.01, "cluster_size": 12, "cluster_id": 4, "rank_in_cluster": 5}

>  <energy>  (74) 
-8.36

>  <cluster_rmsd>  (74) 
0.87

>  <cluster>  (74) 
1

$$$$

     RDKit          3D

 50 53  0  0  0  0  0  0  0  0999 V2000
  138.4970   74.6510  221.9720 O   0  0  0  0  0  0  0  0  0  0  0  0
  139.6580   75.1660  221.8640 C   0  0  0  0  0  0  0  0  0  0  0  0
  139.8240   76.5660  222.1000 N   0  0  0  0  0  0  0  0  0  0  0  0
  138.7210   77.4200  222.4550 C   0  0  0  0  0  0  0  0  0  0  0  0
  139.1570   78.8240  222.6720 C   0  0  0  0  0  0  0  0  0  0  0  0
  138.2710   79.6810  222.9420 O   0  0  0  0  0  0  0  0  0  0  0  0
  140.5140   79.2410  222.5870 N   0  0  0  0  0  0  0  0  0  0  0  0
  141.4370   78.7760  223.5940 C   0  0  0  0  0  0  0  0  0  0  0  0
  142.5030   79.7930  223.9150 C   0  0  0  0  0  0  0  0  0  0  0  0
  142.9900   80.4910  222.6480 C   0  0  0  0  0  0  0  0  0  0  0  0
  141.7880   81.1800  222.0510 C   0  0  0  0  0  0  0  0  0  0  0  0
  140.8800   80.1100  221.4930 C   0  0  1  0  0  0  0  0  0  0  0  0
  141.4970   79.3970  220.3610 C   0  0  0  0  0  0  0  0  0  0  0  0
  141.9790   80.0650  219.2350 C   0  0  0  0  0  0  0  0  0  0  0  0
  142.5630   79.3780  218.1790 C   0  0  0  0  0  0  0  0  0  0  0  0
  142.6800   78.0130  218.2180 C   0  0  0  0  0  0  0  0  0  0  0  0
  142.1990   77.3670  219.3380 C   0  0  0  0  0  0  0  0  0  0  0  0
  141.6380   78.0600  220.3470 N   0  0  0  0  0  0  0  0  0  0  0  0
  140.8070   74.3580  221.5090 C   0  0  0  0  0  0  0  0  0  0  0  0
  140.7120   72.9850  221.5600 C   0  0  0  0  0  0  0  0  0  0  0  0
  141.7940   72.1990  221.2260 C   0  0  0  0  0  0  0  0  0  0  0  0
  142.9780   72.8020  220.8380 C   0  0  0  0  0  0  0  0  0  0  0  0
  144.0750   72.0680  220.4990 C   0  0  0  0  0  0  0  0  0  0  0  0
  145.2220   72.7120  220.1230 C   0  0  0  0  0  0  0  0  0  0  0  0
  146.3160   71.9550  219.7840 F   0  0  0  0  0  0  0  0  0  0  0  0
  145.2840   74.0940  220.0830 C   0  0  0  0  0  0  0  0  0  0  0  0
  144.1830   74.8540  220.4230 C   0  0  0  0  0  0  0  0  0  0  0  0
  143.0430   74.1760  220.7970 C   0  0  0  0  0  0  0  0  0  0  0  0
  141.9710   74.9380  221.1290 N   0  0  0  0  0  0  0  0  0  0  0  0
  140.7660   76.9960  222.0160 H   0  0  0  0  0  0  0  0  0  0  0  0
  137.9790   77.3991  221.6432 H   0  0  0  0  0  0  0  0  0  0  0  0
  138.2891   77.0471  223.3954 H   0  0  0  0  0  0  0  0  0  0  0  0
  140.8741   78.5533  224.5124 H   0  0  0  0  0  0  0  0  0  0  0  0
  141.9383   77.8800  223.1992 H   0  0  0  0  0  0  0  0  0  0  0  0
  142.0883   80.5443  224.6032 H   0  0  0  0  0  0  0  0  0  0  0  0
  143.3546   79.2744  224.3796 H   0  0  0  0  0  0  0  0  0  0  0  0
  143.7674   81.2289  222.8953 H   0  0  0  0  0  0  0  0  0  0  0  0
  143.4290   79.7719  221.9407 H   0  0  0  0  0  0  0  0  0  0  0  0
  141.2598   81.7530  222.8274 H   0  0  0  0  0  0  0  0  0  0  0  0
  142.0962   81.8777  221.2584 H   0  0  0  0  0  0  0  0  0  0  0  0
  139.9699   80.5577  221.0673 H   0  0  0  0  0  0  0  0  0  0  0  0
  141.8945   81.1605  219.1826 H   0  0  0  0  0  0  0  0  0  0  0  0
  142.9343   79.9332  217.3050 H   0  0  0  0  0  0  0  0  0  0  0  0
  143.1393   77.4546  217.3890 H   0  0  0  0  0  0  0  0  0  0  0  0
  142.2747   76.2718  219.4077 H   0  0  0  0  0  0  0  0  0  0  0  0
  139.7676   72.5131  221.8689 H   0  0  0  0  0  0  0  0  0  0  0  0
  141.7172   71.1025  221.2674 H   0  0  0  0  0  0  0  0  0  0  0  0
  144.0386   70.9690  220.5274 H   0  0  0  0  0  0  0  0  0  0  0  0
  146.2172   74.5903  219.7781 H   0  0  0  0  0  0  0  0  0  0  0  0
  144.2142   75.9532  220.3966 H   0  0  0  0  0  0  0  0  0  0  0  0
  1  2  2  0
  2  3  1  0
  3  4  1  0
  4  5  1  0
  5  6  2  0
  5  7  1  0
  7  8  1  0
  8  9  1  0
  9 10  1  0
 10 11  1  0
 11 12  1  0
 12 13  1  0
 13 14  2  0
 14 15  1  0
 15 16  2  0
 16 17  1  0
 17 18  2  0
  2 19  1  0
 19 20  2  0
 20 21  1  0
 21 22  2  0
 22 23  1  0
 23 24  2  0
 24 25  1  0
 24 26  1  0
 26 27  2  0
 27 28  1  0
 28 29  2  0
 12  7  1  0
 18 13  1  0
 29 19  1  0
 28 22  1  0
  3 30  1  0
  4 31  1  0
  4 32  1  0
  8 33  1  0
  8 34  1  0
  9 35  1  0
  9 36  1  0
 10 37  1  0
 10 38  1  0
 11 39  1  0
 11 40  1  0
 12 41  1  6
 14 42  1  0
 15 43  1  0
 16 44  1  0
 17 45  1  0
 20 46  1  0
 21 47  1  0
 23 48  1  0
 26 49  1  0
 27 50  1  0
M  END
>  <smiles>  (75) 
O=C(NCC(=O)N1CCCCC1c1ccccn1)c1ccc2cc(F)ccc2n1

>  <score_type>  (75) 
oracle

>  <origin>  (75) 
autodockgpu

>  <m_score__min__energy>  (75) 
-8.8900000000000006

>  <m_primary>  (75) 
energy

>  <rmsd>  (75) 
6.095478962880944

>  <m_score__min__rmsd>  (75) 
6.095478962880944

>  <meeko>  (75) 
{"free_energy": -6.94, "intermolecular_energy": -8.43, "internal_energy": -3.0, "cluster_size": 12, "cluster_id": 4, "rank_in_cluster": 11}

>  <energy>  (75) 
-8.22

>  <cluster_rmsd>  (75) 
1.35

>  <cluster>  (75) 
1

$$$$

     RDKit          3D

 50 53  0  0  0  0  0  0  0  0999 V2000
  141.2400   72.1230  221.4920 O   0  0  0  0  0  0  0  0  0  0  0  0
  140.4220   72.4170  222.4240 C   0  0  0  0  0  0  0  0  0  0  0  0
  139.6790   73.6350  222.3410 N   0  0  0  0  0  0  0  0  0  0  0  0
  139.8220   74.5470  221.2370 C   0  0  0  0  0  0  0  0  0  0  0  0
  139.6490   75.9610  221.6620 C   0  0  0  0  0  0  0  0  0  0  0  0
  139.0260   76.1810  222.7360 O   0  0  0  0  0  0  0  0  0  0  0  0
  140.1500   77.0640  220.9180 N   0  0  0  0  0  0  0  0  0  0  0  0
  139.3020   77.6490  219.9060 C   0  0  0  0  0  0  0  0  0  0  0  0
  140.0850   78.1690  218.7270 C   0  0  0  0  0  0  0  0  0  0  0  0
  141.3700   78.8550  219.1840 C   0  0  0  0  0  0  0  0  0  0  0  0
  142.1760   77.8090  219.9130 C   0  0  0  0  0  0  0  0  0  0  0  0
  141.4810   77.5300  221.2250 C   0  0  1  0  0  0  0  0  0  0  0  0
  141.5020   78.7000  222.1190 C   0  0  0  0  0  0  0  0  0  0  0  0
  140.3550   79.1630  222.7650 C   0  0  0  0  0  0  0  0  0  0  0  0
  140.3930   80.2650  223.6090 C   0  0  0  0  0  0  0  0  0  0  0  0
  141.5710   80.9320  223.8300 C   0  0  0  0  0  0  0  0  0  0  0  0
  142.6950   80.4620  223.1840 C   0  0  0  0  0  0  0  0  0  0  0  0
  142.6280   79.3900  222.3710 N   0  0  0  0  0  0  0  0  0  0  0  0
  140.2340   71.5390  223.5610 C   0  0  0  0  0  0  0  0  0  0  0  0
  139.5670   70.3450  223.3930 C   0  0  0  0  0  0  0  0  0  0  0  0
  139.3790   69.4960  224.4630 C   0  0  0  0  0  0  0  0  0  0  0  0
  139.8660   69.8540  225.7090 C   0  0  0  0  0  0  0  0  0  0  0  0
  139.7050   69.0500  226.7960 C   0  0  0  0  0  0  0  0  0  0  0  0
  140.2040   69.4490  228.0060 C   0  0  0  0  0  0  0  0  0  0  0  0
  140.0320   68.6240  229.0890 F   0  0  0  0  0  0  0  0  0  0  0  0
  140.8690   70.6560  228.1400 C   0  0  0  0  0  0  0  0  0  0  0  0
  141.0420   71.4840  227.0500 C   0  0  0  0  0  0  0  0  0  0  0  0
  140.5280   71.0530  225.8450 C   0  0  0  0  0  0  0  0  0  0  0  0
  140.7060   71.8800  224.7850 N   0  0  0  0  0  0  0  0  0  0  0  0
  139.0090   73.8840  223.0950 H   0  0  0  0  0  0  0  0  0  0  0  0
  140.8256   74.4260  220.8031 H   0  0  0  0  0  0  0  0  0  0  0  0
  139.0408   74.3143  220.4984 H   0  0  0  0  0  0  0  0  0  0  0  0
  138.5966   76.8833  219.5510 H   0  0  0  0  0  0  0  0  0  0  0  0
  138.7774   78.5019  220.3614 H   0  0  0  0  0  0  0  0  0  0  0  0
  140.3416   77.3278  218.0662 H   0  0  0  0  0  0  0  0  0  0  0  0
  139.4662   78.9043  218.1918 H   0  0  0  0  0  0  0  0  0  0  0  0
  141.9307   79.2299  218.3151 H   0  0  0  0  0  0  0  0  0  0  0  0
  141.1529   79.7154  219.8341 H   0  0  0  0  0  0  0  0  0  0  0  0
  142.2272   76.8888  219.3124 H   0  0  0  0  0  0  0  0  0  0  0  0
  143.2025   78.1639  220.0871 H   0  0  0  0  0  0  0  0  0  0  0  0
  142.0135   76.7498  221.7886 H   0  0  0  0  0  0  0  0  0  0  0  0
  139.3993   78.6433  222.6020 H   0  0  0  0  0  0  0  0  0  0  0  0
  139.4716   80.6056  224.1040 H   0  0  0  0  0  0  0  0  0  0  0  0
  141.6172   81.8065  224.4957 H   0  0  0  0  0  0  0  0  0  0  0  0
  143.6593   80.9693  223.3346 H   0  0  0  0  0  0  0  0  0  0  0  0
  139.1826   70.0678  222.4003 H   0  0  0  0  0  0  0  0  0  0  0  0
  138.8469   68.5428  224.3281 H   0  0  0  0  0  0  0  0  0  0  0  0
  139.1787   68.0886  226.7023 H   0  0  0  0  0  0  0  0  0  0  0  0
  141.2621   70.9569  229.1223 H   0  0  0  0  0  0  0  0  0  0  0  0
  141.5673   72.4464  227.1383 H   0  0  0  0  0  0  0  0  0  0  0  0
  1  2  2  0
  2  3  1  0
  3  4  1  0
  4  5  1  0
  5  6  2  0
  5  7  1  0
  7  8  1  0
  8  9  1  0
  9 10  1  0
 10 11  1  0
 11 12  1  0
 12 13  1  0
 13 14  2  0
 14 15  1  0
 15 16  2  0
 16 17  1  0
 17 18  2  0
  2 19  1  0
 19 20  2  0
 20 21  1  0
 21 22  2  0
 22 23  1  0
 23 24  2  0
 24 25  1  0
 24 26  1  0
 26 27  2  0
 27 28  1  0
 28 29  2  0
 12  7  1  0
 18 13  1  0
 29 19  1  0
 28 22  1  0
  3 30  1  0
  4 31  1  0
  4 32  1  0
  8 33  1  0
  8 34  1  0
  9 35  1  0
  9 36  1  0
 10 37  1  0
 10 38  1  0
 11 39  1  0
 11 40  1  0
 12 41  1  1
 14 42  1  0
 15 43  1  0
 16 44  1  0
 17 45  1  0
 20 46  1  0
 21 47  1  0
 23 48  1  0
 26 49  1  0
 27 50  1  0
M  END
>  <smiles>  (76) 
O=C(NCC(=O)N1CCCCC1c1ccccn1)c1ccc2cc(F)ccc2n1

>  <score_type>  (76) 
oracle

>  <origin>  (76) 
autodockgpu

>  <m_score__min__energy>  (76) 
-8.8900000000000006

>  <m_primary>  (76) 
energy

>  <rmsd>  (76) 
2.339948223394858

>  <m_score__min__rmsd>  (76) 
2.339948223394858

>  <meeko>  (76) 
{"free_energy": -8.63, "intermolecular_energy": -10.12, "internal_energy": -1.76, "cluster_size": 27, "cluster_id": 1, "rank_in_cluster": 7}

>  <energy>  (76) 
-8.22

>  <cluster_rmsd>  (76) 
1.33

>  <cluster>  (76) 
1

$$$$

     RDKit          3D

 50 53  0  0  0  0  0  0  0  0999 V2000
  138.9180   71.1480  221.4660 O   0  0  0  0  0  0  0  0  0  0  0  0
  139.3290   71.6050  222.5840 C   0  0  0  0  0  0  0  0  0  0  0  0
  139.6080   73.0020  222.7050 N   0  0  0  0  0  0  0  0  0  0  0  0
  139.4410   73.9150  221.6040 C   0  0  0  0  0  0  0  0  0  0  0  0
  140.1850   75.1830  221.8210 C   0  0  0  0  0  0  0  0  0  0  0  0
  141.4400   75.1180  221.9410 O   0  0  0  0  0  0  0  0  0  0  0  0
  139.5520   76.4540  221.9000 N   0  0  0  0  0  0  0  0  0  0  0  0
  138.3490   76.5720  222.6860 C   0  0  0  0  0  0  0  0  0  0  0  0
  137.3800   77.5760  222.1130 C   0  0  0  0  0  0  0  0  0  0  0  0
  138.1150   78.8070  221.5920 C   0  0  0  0  0  0  0  0  0  0  0  0
  139.0480   78.3210  220.5110 C   0  0  0  0  0  0  0  0  0  0  0  0
  140.1600   77.5500  221.1820 C   0  0  1  0  0  0  0  0  0  0  0  0
  140.9970   78.4150  222.0320 C   0  0  0  0  0  0  0  0  0  0  0  0
  141.7780   79.4440  221.5050 C   0  0  0  0  0  0  0  0  0  0  0  0
  142.5570   80.2530  222.3210 C   0  0  0  0  0  0  0  0  0  0  0  0
  142.5790   80.0570  223.6780 C   0  0  0  0  0  0  0  0  0  0  0  0
  141.8020   79.0350  224.1830 C   0  0  0  0  0  0  0  0  0  0  0  0
  141.0550   78.2670  223.3660 N   0  0  0  0  0  0  0  0  0  0  0  0
  139.5150   70.7360  223.7270 C   0  0  0  0  0  0  0  0  0  0  0  0
  139.0820   69.4290  223.6630 C   0  0  0  0  0  0  0  0  0  0  0  0
  139.2500   68.5870  224.7410 C   0  0  0  0  0  0  0  0  0  0  0  0
  139.8600   69.0640  225.8890 C   0  0  0  0  0  0  0  0  0  0  0  0
  140.0480   68.2700  226.9800 C   0  0  0  0  0  0  0  0  0  0  0  0
  140.6550   68.7900  228.0900 C   0  0  0  0  0  0  0  0  0  0  0  0
  140.8370   67.9740  229.1790 F   0  0  0  0  0  0  0  0  0  0  0  0
  141.0780   70.1080  228.1210 C   0  0  0  0  0  0  0  0  0  0  0  0
  140.8960   70.9270  227.0260 C   0  0  0  0  0  0  0  0  0  0  0  0
  140.2820   70.3740  225.9230 C   0  0  0  0  0  0  0  0  0  0  0  0
  140.1090   71.1930  224.8560 N   0  0  0  0  0  0  0  0  0  0  0  0
  139.9420   73.3850  223.6100 H   0  0  0  0  0  0  0  0  0  0  0  0
  139.8123   73.4370  220.6855 H   0  0  0  0  0  0  0  0  0  0  0  0
  138.3712   74.1564  221.5192 H   0  0  0  0  0  0  0  0  0  0  0  0
  137.8562   75.5894  222.7261 H   0  0  0  0  0  0  0  0  0  0  0  0
  138.6379   76.9211  223.6883 H   0  0  0  0  0  0  0  0  0  0  0  0
  136.8264   77.1098  221.2846 H   0  0  0  0  0  0  0  0  0  0  0  0
  136.6887   77.8904  222.9087 H   0  0  0  0  0  0  0  0  0  0  0  0
  137.3979   79.5313  221.1782 H   0  0  0  0  0  0  0  0  0  0  0  0
  138.6676   79.3120  222.3980 H   0  0  0  0  0  0  0  0  0  0  0  0
  138.5053   77.6663  219.8132 H   0  0  0  0  0  0  0  0  0  0  0  0
  139.4547   79.1692  219.9409 H   0  0  0  0  0  0  0  0  0  0  0  0
  140.8595   77.1478  220.4344 H   0  0  0  0  0  0  0  0  0  0  0  0
  141.7765   79.6181  220.4189 H   0  0  0  0  0  0  0  0  0  0  0  0
  143.1611   81.0572  221.8757 H   0  0  0  0  0  0  0  0  0  0  0  0
  143.1916   80.6893  224.3375 H   0  0  0  0  0  0  0  0  0  0  0  0
  141.7922   78.8447  225.2664 H   0  0  0  0  0  0  0  0  0  0  0  0
  138.6001   69.0562  222.7471 H   0  0  0  0  0  0  0  0  0  0  0  0
  138.9024   67.5446  224.6899 H   0  0  0  0  0  0  0  0  0  0  0  0
  139.7151   67.2216  226.9683 H   0  0  0  0  0  0  0  0  0  0  0  0
  141.5626   70.5049  229.0252 H   0  0  0  0  0  0  0  0  0  0  0  0
  141.2266   71.9761  227.0329 H   0  0  0  0  0  0  0  0  0  0  0  0
  1  2  2  0
  2  3  1  0
  3  4  1  0
  4  5  1  0
  5  6  2  0
  5  7  1  0
  7  8  1  0
  8  9  1  0
  9 10  1  0
 10 11  1  0
 11 12  1  0
 12 13  1  0
 13 14  2  0
 14 15  1  0
 15 16  2  0
 16 17  1  0
 17 18  2  0
  2 19  1  0
 19 20  2  0
 20 21  1  0
 21 22  2  0
 22 23  1  0
 23 24  2  0
 24 25  1  0
 24 26  1  0
 26 27  2  0
 27 28  1  0
 28 29  2  0
 12  7  1  0
 18 13  1  0
 29 19  1  0
 28 22  1  0
  3 30  1  0
  4 31  1  0
  4 32  1  0
  8 33  1  0
  8 34  1  0
  9 35  1  0
  9 36  1  0
 10 37  1  0
 10 38  1  0
 11 39  1  0
 11 40  1  0
 12 41  1  6
 14 42  1  0
 15 43  1  0
 16 44  1  0
 17 45  1  0
 20 46  1  0
 21 47  1  0
 23 48  1  0
 26 49  1  0
 27 50  1  0
M  END
>  <smiles>  (77) 
O=C(NCC(=O)N1CCCCC1c1ccccn1)c1ccc2cc(F)ccc2n1

>  <score_type>  (77) 
oracle

>  <origin>  (77) 
autodockgpu

>  <m_score__min__energy>  (77) 
-8.8900000000000006

>  <m_primary>  (77) 
energy

>  <rmsd>  (77) 
2.5526029675442556

>  <m_score__min__rmsd>  (77) 
2.5526029675442556

>  <meeko>  (77) 
{"free_energy": -8.44, "intermolecular_energy": -9.94, "internal_energy": -1.68, "cluster_size": 27, "cluster_id": 1, "rank_in_cluster": 20}

>  <energy>  (77) 
-8.14

>  <cluster_rmsd>  (77) 
1.45

>  <cluster>  (77) 
1

$$$$

     RDKit          3D

 50 53  0  0  0  0  0  0  0  0999 V2000
  137.5600   75.1880  220.7740 O   0  0  0  0  0  0  0  0  0  0  0  0
  138.4570   75.3780  221.6600 C   0  0  0  0  0  0  0  0  0  0  0  0
  139.0320   74.2500  222.3220 N   0  0  0  0  0  0  0  0  0  0  0  0
  138.6330   72.9000  222.0240 C   0  0  0  0  0  0  0  0  0  0  0  0
  139.3820   71.9090  222.8400 C   0  0  0  0  0  0  0  0  0  0  0  0
  140.3260   72.3320  223.5610 O   0  0  0  0  0  0  0  0  0  0  0  0
  139.0850   70.5180  222.8420 N   0  0  0  0  0  0  0  0  0  0  0  0
  139.5660   69.7130  221.7450 C   0  0  0  0  0  0  0  0  0  0  0  0
  138.6230   68.5880  221.3980 C   0  0  0  0  0  0  0  0  0  0  0  0
  138.0450   67.9520  222.6580 C   0  0  0  0  0  0  0  0  0  0  0  0
  137.2950   69.0440  223.3810 C   0  0  0  0  0  0  0  0  0  0  0  0
  138.3160   70.0000  223.9490 C   0  0  1  0  0  0  0  0  0  0  0  0
  139.1430   69.3680  224.9920 C   0  0  0  0  0  0  0  0  0  0  0  0
  140.2680   69.9930  225.5310 C   0  0  0  0  0  0  0  0  0  0  0  0
  141.0330   69.3850  226.5170 C   0  0  0  0  0  0  0  0  0  0  0  0
  140.6980   68.1410  226.9890 C   0  0  0  0  0  0  0  0  0  0  0  0
  139.5840   67.5370  226.4450 C   0  0  0  0  0  0  0  0  0  0  0  0
  138.8610   68.1510  225.4900 N   0  0  0  0  0  0  0  0  0  0  0  0
  138.8990   76.7140  222.0030 C   0  0  0  0  0  0  0  0  0  0  0  0
  138.0780   77.7890  221.7440 C   0  0  0  0  0  0  0  0  0  0  0  0
  138.4820   79.0670  222.0630 C   0  0  0  0  0  0  0  0  0  0  0  0
  139.7220   79.2630  222.6480 C   0  0  0  0  0  0  0  0  0  0  0  0
  140.1660   80.5070  222.9810 C   0  0  0  0  0  0  0  0  0  0  0  0
  141.3990   80.6460  223.5560 C   0  0  0  0  0  0  0  0  0  0  0  0
  141.8280   81.9080  223.8850 F   0  0  0  0  0  0  0  0  0  0  0  0
  142.2010   79.5450  223.8030 C   0  0  0  0  0  0  0  0  0  0  0  0
  141.7680   78.2770  223.4710 C   0  0  0  0  0  0  0  0  0  0  0  0
  140.5210   78.1690  222.8940 C   0  0  0  0  0  0  0  0  0  0  0  0
  140.1120   76.9170  222.5740 N   0  0  0  0  0  0  0  0  0  0  0  0
  139.7640   74.3940  223.0450 H   0  0  0  0  0  0  0  0  0  0  0  0
  137.5582   72.7925  222.2319 H   0  0  0  0  0  0  0  0  0  0  0  0
  138.8527   72.7052  220.9639 H   0  0  0  0  0  0  0  0  0  0  0  0
  139.6874   70.3569  220.8615 H   0  0  0  0  0  0  0  0  0  0  0  0
  140.5223   69.2650  222.0530 H   0  0  0  0  0  0  0  0  0  0  0  0
  137.8001   68.9843  220.7850 H   0  0  0  0  0  0  0  0  0  0  0  0
  139.1819   67.8206  220.8424 H   0  0  0  0  0  0  0  0  0  0  0  0
  137.3609   67.1330  222.3913 H   0  0  0  0  0  0  0  0  0  0  0  0
  138.8386   67.5273  223.2903 H   0  0  0  0  0  0  0  0  0  0  0  0
  136.6349   69.5740  222.6786 H   0  0  0  0  0  0  0  0  0  0  0  0
  136.6742   68.6199  224.1840 H   0  0  0  0  0  0  0  0  0  0  0  0
  137.8203   70.8352  224.4655 H   0  0  0  0  0  0  0  0  0  0  0  0
  140.5553   70.9902  225.1663 H   0  0  0  0  0  0  0  0  0  0  0  0
  141.9139   69.9041  226.9227 H   0  0  0  0  0  0  0  0  0  0  0  0
  141.2939   67.6455  227.7697 H   0  0  0  0  0  0  0  0  0  0  0  0
  139.2820   66.5394  226.7965 H   0  0  0  0  0  0  0  0  0  0  0  0
  137.0941   77.6263  221.2798 H   0  0  0  0  0  0  0  0  0  0  0  0
  137.8252   79.9245  221.8548 H   0  0  0  0  0  0  0  0  0  0  0  0
  139.5393   81.3905  222.7894 H   0  0  0  0  0  0  0  0  0  0  0  0
  143.1892   79.6814  224.2666 H   0  0  0  0  0  0  0  0  0  0  0  0
  142.3916   77.3906  223.6589 H   0  0  0  0  0  0  0  0  0  0  0  0
  1  2  2  0
  2  3  1  0
  3  4  1  0
  4  5  1  0
  5  6  2  0
  5  7  1  0
  7  8  1  0
  8  9  1  0
  9 10  1  0
 10 11  1  0
 11 12  1  0
 12 13  1  0
 13 14  2  0
 14 15  1  0
 15 16  2  0
 16 17  1  0
 17 18  2  0
  2 19  1  0
 19 20  2  0
 20 21  1  0
 21 22  2  0
 22 23  1  0
 23 24  2  0
 24 25  1  0
 24 26  1  0
 26 27  2  0
 27 28  1  0
 28 29  2  0
 12  7  1  0
 18 13  1  0
 29 19  1  0
 28 22  1  0
  3 30  1  0
  4 31  1  0
  4 32  1  0
  8 33  1  0
  8 34  1  0
  9 35  1  0
  9 36  1  0
 10 37  1  0
 10 38  1  0
 11 39  1  0
 11 40  1  0
 12 41  1  1
 14 42  1  0
 15 43  1  0
 16 44  1  0
 17 45  1  0
 20 46  1  0
 21 47  1  0
 23 48  1  0
 26 49  1  0
 27 50  1  0
M  END
>  <smiles>  (78) 
O=C(NCC(=O)N1CCCCC1c1ccccn1)c1ccc2cc(F)ccc2n1

>  <score_type>  (78) 
oracle

>  <origin>  (78) 
autodockgpu

>  <m_score__min__energy>  (78) 
-8.8900000000000006

>  <m_primary>  (78) 
energy

>  <rmsd>  (78) 
9.390860041927555

>  <m_score__min__rmsd>  (78) 
9.390860041927555

>  <meeko>  (78) 
{"free_energy": -7.65, "intermolecular_energy": -9.15, "internal_energy": -2.03, "cluster_size": 1, "cluster_id": 3, "rank_in_cluster": 1}

>  <energy>  (78) 
-8.71

>  <cluster_rmsd>  (78) 
0.0

>  <cluster>  (78) 
2

$$$$

     RDKit          3D

 50 53  0  0  0  0  0  0  0  0999 V2000
  140.2320   71.7930  221.0630 O   0  0  0  0  0  0  0  0  0  0  0  0
  139.9500   72.2570  222.2170 C   0  0  0  0  0  0  0  0  0  0  0  0
  139.6360   73.6440  222.3520 N   0  0  0  0  0  0  0  0  0  0  0  0
  139.6270   74.5410  221.2260 C   0  0  0  0  0  0  0  0  0  0  0  0
  139.5320   75.9620  221.6520 C   0  0  0  0  0  0  0  0  0  0  0  0
  138.9150   76.2160  222.7240 O   0  0  0  0  0  0  0  0  0  0  0  0
  140.0980   77.0370  220.9130 N   0  0  0  0  0  0  0  0  0  0  0  0
  139.3220   77.6150  219.8430 C   0  0  0  0  0  0  0  0  0  0  0  0
  140.1810   78.0910  218.6980 C   0  0  0  0  0  0  0  0  0  0  0  0
  141.4530   78.7590  219.2120 C   0  0  0  0  0  0  0  0  0  0  0  0
  142.1930   77.7130  220.0080 C   0  0  0  0  0  0  0  0  0  0  0  0
  141.4200   77.4800  221.2840 C   0  0  1  0  0  0  0  0  0  0  0  0
  141.4170   78.6710  222.1520 C   0  0  0  0  0  0  0  0  0  0  0  0
  142.5790   79.3880  222.4370 C   0  0  0  0  0  0  0  0  0  0  0  0
  142.5570   80.5110  223.2520 C   0  0  0  0  0  0  0  0  0  0  0  0
  141.3810   80.9470  223.8050 C   0  0  0  0  0  0  0  0  0  0  0  0
  140.2400   80.2270  223.5140 C   0  0  0  0  0  0  0  0  0  0  0  0
  140.2920   79.1410  222.7190 N   0  0  0  0  0  0  0  0  0  0  0  0
  139.9430   71.4030  223.3870 C   0  0  0  0  0  0  0  0  0  0  0  0
  139.5150   70.0980  223.2730 C   0  0  0  0  0  0  0  0  0  0  0  0
  139.5010   69.2710  224.3750 C   0  0  0  0  0  0  0  0  0  0  0  0
  139.9210   69.7620  225.6000 C   0  0  0  0  0  0  0  0  0  0  0  0
  139.9260   68.9830  226.7170 C   0  0  0  0  0  0  0  0  0  0  0  0
  140.3500   69.5160  227.9030 C   0  0  0  0  0  0  0  0  0  0  0  0
  140.3480   68.7150  229.0180 F   0  0  0  0  0  0  0  0  0  0  0  0
  140.7730   70.8320  227.9840 C   0  0  0  0  0  0  0  0  0  0  0  0
  140.7760   71.6360  226.8630 C   0  0  0  0  0  0  0  0  0  0  0  0
  140.3430   71.0700  225.6830 C   0  0  0  0  0  0  0  0  0  0  0  0
  140.3510   71.8730  224.5910 N   0  0  0  0  0  0  0  0  0  0  0  0
  139.4040   74.0330  223.2870 H   0  0  0  0  0  0  0  0  0  0  0  0
  140.5558   74.4025  220.6532 H   0  0  0  0  0  0  0  0  0  0  0  0
  138.7447   74.3089  220.6114 H   0  0  0  0  0  0  0  0  0  0  0  0
  138.6207   76.8560  219.4660 H   0  0  0  0  0  0  0  0  0  0  0  0
  138.7921   78.4892  220.2491 H   0  0  0  0  0  0  0  0  0  0  0  0
  140.4548   77.2297  218.0710 H   0  0  0  0  0  0  0  0  0  0  0  0
  139.6099   78.8266  218.1126 H   0  0  0  0  0  0  0  0  0  0  0  0
  142.0700   79.1018  218.3683 H   0  0  0  0  0  0  0  0  0  0  0  0
  141.2192   79.6383  219.8301 H   0  0  0  0  0  0  0  0  0  0  0  0
  142.2564   76.7782  219.4317 H   0  0  0  0  0  0  0  0  0  0  0  0
  143.2161   78.0494  220.2317 H   0  0  0  0  0  0  0  0  0  0  0  0
  141.9026   76.7017  221.8934 H   0  0  0  0  0  0  0  0  0  0  0  0
  143.5348   79.0556  222.0058 H   0  0  0  0  0  0  0  0  0  0  0  0
  143.4907   81.0556  223.4559 H   0  0  0  0  0  0  0  0  0  0  0  0
  141.3480   81.8344  224.4541 H   0  0  0  0  0  0  0  0  0  0  0  0
  139.2754   80.5443  223.9370 H   0  0  0  0  0  0  0  0  0  0  0  0
  139.1828   69.7145  222.2970 H   0  0  0  0  0  0  0  0  0  0  0  0
  139.1591   68.2296  224.2826 H   0  0  0  0  0  0  0  0  0  0  0  0
  139.5925   67.9360  226.6659 H   0  0  0  0  0  0  0  0  0  0  0  0
  141.1090   71.2392  228.9490 H   0  0  0  0  0  0  0  0  0  0  0  0
  141.1094   72.6833  226.9088 H   0  0  0  0  0  0  0  0  0  0  0  0
  1  2  2  0
  2  3  1  0
  3  4  1  0
  4  5  1  0
  5  6  2  0
  5  7  1  0
  7  8  1  0
  8  9  1  0
  9 10  1  0
 10 11  1  0
 11 12  1  0
 12 13  1  0
 13 14  2  0
 14 15  1  0
 15 16  2  0
 16 17  1  0
 17 18  2  0
  2 19  1  0
 19 20  2  0
 20 21  1  0
 21 22  2  0
 22 23  1  0
 23 24  2  0
 24 25  1  0
 24 26  1  0
 26 27  2  0
 27 28  1  0
 28 29  2  0
 12  7  1  0
 18 13  1  0
 29 19  1  0
 28 22  1  0
  3 30  1  0
  4 31  1  0
  4 32  1  0
  8 33  1  0
  8 34  1  0
  9 35  1  0
  9 36  1  0
 10 37  1  0
 10 38  1  0
 11 39  1  0
 11 40  1  0
 12 41  1  1
 14 42  1  0
 15 43  1  0
 16 44  1  0
 17 45  1  0
 20 46  1  0
 21 47  1  0
 23 48  1  0
 26 49  1  0
 27 50  1  0
M  END
>  <smiles>  (79) 
O=C(NCC(=O)N1CCCCC1c1ccccn1)c1ccc2cc(F)ccc2n1

>  <score_type>  (79) 
oracle

>  <origin>  (79) 
autodockgpu

>  <m_score__min__energy>  (79) 
-8.8900000000000006

>  <m_primary>  (79) 
energy

>  <rmsd>  (79) 
2.197410981511921

>  <m_score__min__rmsd>  (79) 
2.197410981511921

>  <meeko>  (79) 
{"free_energy": -8.45, "intermolecular_energy": -9.95, "internal_energy": -1.94, "cluster_size": 27, "cluster_id": 1, "rank_in_cluster": 19}

>  <energy>  (79) 
-8.7

>  <cluster_rmsd>  (79) 
0.14

>  <cluster>  (79) 
2

$$$$

     RDKit          3D

 50 53  0  0  0  0  0  0  0  0999 V2000
  138.8030   74.6120  222.3190 O   0  0  0  0  0  0  0  0  0  0  0  0
  139.8450   75.0890  221.7590 C   0  0  0  0  0  0  0  0  0  0  0  0
  139.9050   76.4890  221.4790 N   0  0  0  0  0  0  0  0  0  0  0  0
  138.8270   77.3840  221.8080 C   0  0  0  0  0  0  0  0  0  0  0  0
  139.2960   78.5430  222.6120 C   0  0  0  0  0  0  0  0  0  0  0  0
  138.4760   79.0780  223.4080 O   0  0  0  0  0  0  0  0  0  0  0  0
  140.6130   79.0700  222.5240 N   0  0  0  0  0  0  0  0  0  0  0  0
  141.5640   78.7110  223.5490 C   0  0  0  0  0  0  0  0  0  0  0  0
  142.5380   79.8230  223.8480 C   0  0  0  0  0  0  0  0  0  0  0  0
  142.9760   80.5250  222.5660 C   0  0  0  0  0  0  0  0  0  0  0  0
  141.7250   81.0940  221.9430 C   0  0  0  0  0  0  0  0  0  0  0  0
  140.9140   79.9370  221.4090 C   0  0  1  0  0  0  0  0  0  0  0  0
  141.5990   79.2490  220.3010 C   0  0  0  0  0  0  0  0  0  0  0  0
  141.9300   79.8990  219.1120 C   0  0  0  0  0  0  0  0  0  0  0  0
  142.5800   79.2370  218.0800 C   0  0  0  0  0  0  0  0  0  0  0  0
  142.9140   77.9130  218.2040 C   0  0  0  0  0  0  0  0  0  0  0  0
  142.5790   77.2840  219.3850 C   0  0  0  0  0  0  0  0  0  0  0  0
  141.9500   77.9530  220.3700 N   0  0  0  0  0  0  0  0  0  0  0  0
  140.9620   74.2380  221.4040 C   0  0  0  0  0  0  0  0  0  0  0  0
  140.8010   72.8700  221.4100 C   0  0  0  0  0  0  0  0  0  0  0  0
  141.8530   72.0440  221.0750 C   0  0  0  0  0  0  0  0  0  0  0  0
  143.0730   72.6010  220.7340 C   0  0  0  0  0  0  0  0  0  0  0  0
  144.1420   71.8270  220.3960 C   0  0  0  0  0  0  0  0  0  0  0  0
  145.3270   72.4260  220.0670 C   0  0  0  0  0  0  0  0  0  0  0  0
  146.3920   71.6290  219.7290 F   0  0  0  0  0  0  0  0  0  0  0  0
  145.4540   73.8050  220.0720 C   0  0  0  0  0  0  0  0  0  0  0  0
  144.3830   74.6050  220.4110 C   0  0  0  0  0  0  0  0  0  0  0  0
  143.2030   73.9720  220.7380 C   0  0  0  0  0  0  0  0  0  0  0  0
  142.1610   74.7730  221.0690 N   0  0  0  0  0  0  0  0  0  0  0  0
  140.7490   76.8890  221.0230 H   0  0  0  0  0  0  0  0  0  0  0  0
  138.3767   77.7564  220.8760 H   0  0  0  0  0  0  0  0  0  0  0  0
  138.0921   76.8273  222.4080 H   0  0  0  0  0  0  0  0  0  0  0  0
  141.0145   78.4662  224.4699 H   0  0  0  0  0  0  0  0  0  0  0  0
  142.1420   77.8500  223.1820 H   0  0  0  0  0  0  0  0  0  0  0  0
  142.0554   80.5551  224.5123 H   0  0  0  0  0  0  0  0  0  0  0  0
  143.4261   79.3906  224.3320 H   0  0  0  0  0  0  0  0  0  0  0  0
  143.6865   81.3321  222.7979 H   0  0  0  0  0  0  0  0  0  0  0  0
  143.4803   79.8270  221.8815 H   0  0  0  0  0  0  0  0  0  0  0  0
  141.1444   81.6412  222.7002 H   0  0  0  0  0  0  0  0  0  0  0  0
  141.9803   81.7932  221.1331 H   0  0  0  0  0  0  0  0  0  0  0  0
  139.9728   80.2945  220.9659 H   0  0  0  0  0  0  0  0  0  0  0  0
  141.6698   80.9607  218.9896 H   0  0  0  0  0  0  0  0  0  0  0  0
  142.8292   79.7785  217.1555 H   0  0  0  0  0  0  0  0  0  0  0  0
  143.4283   77.3743  217.3945 H   0  0  0  0  0  0  0  0  0  0  0  0
  142.8289   76.2218  219.5241 H   0  0  0  0  0  0  0  0  0  0  0  0
  139.8286   72.4345  221.6833 H   0  0  0  0  0  0  0  0  0  0  0  0
  141.7236   70.9516  221.0788 H   0  0  0  0  0  0  0  0  0  0  0  0
  144.0531   70.7306  220.3877 H   0  0  0  0  0  0  0  0  0  0  0  0
  146.4162   74.2656  219.8036 H   0  0  0  0  0  0  0  0  0  0  0  0
  144.4669   75.7018  220.4200 H   0  0  0  0  0  0  0  0  0  0  0  0
  1  2  2  0
  2  3  1  0
  3  4  1  0
  4  5  1  0
  5  6  2  0
  5  7  1  0
  7  8  1  0
  8  9  1  0
  9 10  1  0
 10 11  1  0
 11 12  1  0
 12 13  1  0
 13 14  2  0
 14 15  1  0
 15 16  2  0
 16 17  1  0
 17 18  2  0
  2 19  1  0
 19 20  2  0
 20 21  1  0
 21 22  2  0
 22 23  1  0
 23 24  2  0
 24 25  1  0
 24 26  1  0
 26 27  2  0
 27 28  1  0
 28 29  2  0
 12  7  1  0
 18 13  1  0
 29 19  1  0
 28 22  1  0
  3 30  1  0
  4 31  1  0
  4 32  1  0
  8 33  1  0
  8 34  1  0
  9 35  1  0
  9 36  1  0
 10 37  1  0
 10 38  1  0
 11 39  1  0
 11 40  1  0
 12 41  1  6
 14 42  1  0
 15 43  1  0
 16 44  1  0
 17 45  1  0
 20 46  1  0
 21 47  1  0
 23 48  1  0
 26 49  1  0
 27 50  1  0
M  END
>  <smiles>  (80) 
O=C(NCC(=O)N1CCCCC1c1ccccn1)c1ccc2cc(F)ccc2n1

>  <score_type>  (80) 
oracle

>  <origin>  (80) 
autodockgpu

>  <m_score__min__energy>  (80) 
-8.8900000000000006

>  <m_primary>  (80) 
energy

>  <rmsd>  (80) 
6.0635849823680505

>  <m_score__min__rmsd>  (80) 
6.0635849823680505

>  <meeko>  (80) 
{"free_energy": -7.03, "intermolecular_energy": -8.53, "internal_energy": -3.01, "cluster_size": 12, "cluster_id": 4, "rank_in_cluster": 6}

>  <energy>  (80) 
-8.67

>  <cluster_rmsd>  (80) 
0.11

>  <cluster>  (80) 
2

$$$$

     RDKit          3D

 50 53  0  0  0  0  0  0  0  0999 V2000
  138.5360   71.2180  221.5640 O   0  0  0  0  0  0  0  0  0  0  0  0
  139.1050   71.6270  222.6290 C   0  0  0  0  0  0  0  0  0  0  0  0
  139.5060   72.9960  222.7220 N   0  0  0  0  0  0  0  0  0  0  0  0
  139.2920   73.9320  221.6500 C   0  0  0  0  0  0  0  0  0  0  0  0
  140.0750   75.1810  221.8410 C   0  0  0  0  0  0  0  0  0  0  0  0
  141.3260   75.0780  221.9660 O   0  0  0  0  0  0  0  0  0  0  0  0
  139.4830   76.4720  221.8920 N   0  0  0  0  0  0  0  0  0  0  0  0
  138.2650   76.6380  222.6470 C   0  0  0  0  0  0  0  0  0  0  0  0
  137.3430   77.6670  222.0400 C   0  0  0  0  0  0  0  0  0  0  0  0
  138.1310   78.8680  221.5240 C   0  0  0  0  0  0  0  0  0  0  0  0
  139.0740   78.3390  220.4720 C   0  0  0  0  0  0  0  0  0  0  0  0
  140.1430   77.5390  221.1780 C   0  0  1  0  0  0  0  0  0  0  0  0
  140.9870   78.3860  222.0380 C   0  0  0  0  0  0  0  0  0  0  0  0
  141.7790   79.4140  221.5260 C   0  0  0  0  0  0  0  0  0  0  0  0
  142.5650   80.2050  222.3520 C   0  0  0  0  0  0  0  0  0  0  0  0
  142.5830   79.9930  223.7060 C   0  0  0  0  0  0  0  0  0  0  0  0
  141.7950   78.9730  224.1980 C   0  0  0  0  0  0  0  0  0  0  0  0
  141.0420   78.2220  223.3720 N   0  0  0  0  0  0  0  0  0  0  0  0
  139.3480   70.7320  223.7410 C   0  0  0  0  0  0  0  0  0  0  0  0
  138.9690   69.4110  223.6440 C   0  0  0  0  0  0  0  0  0  0  0  0
  139.1930   68.5430  224.6920 C   0  0  0  0  0  0  0  0  0  0  0  0
  139.8000   69.0120  225.8450 C   0  0  0  0  0  0  0  0  0  0  0  0
  140.0410   68.1940  226.9070 C   0  0  0  0  0  0  0  0  0  0  0  0
  140.6440   68.7050  228.0230 C   0  0  0  0  0  0  0  0  0  0  0  0
  140.8790   67.8650  229.0830 F   0  0  0  0  0  0  0  0  0  0  0  0
  141.0110   70.0380  228.0890 C   0  0  0  0  0  0  0  0  0  0  0  0
  140.7740   70.8820  227.0230 C   0  0  0  0  0  0  0  0  0  0  0  0
  140.1660   70.3370  225.9120 C   0  0  0  0  0  0  0  0  0  0  0  0
  139.9400   71.1800  224.8750 N   0  0  0  0  0  0  0  0  0  0  0  0
  139.9700   73.3410  223.5850 H   0  0  0  0  0  0  0  0  0  0  0  0
  139.5957   73.4631  220.7024 H   0  0  0  0  0  0  0  0  0  0  0  0
  138.2245   74.1972  221.6366 H   0  0  0  0  0  0  0  0  0  0  0  0
  137.7394   75.6724  222.6849 H   0  0  0  0  0  0  0  0  0  0  0  0
  138.5408   76.9889  223.6524 H   0  0  0  0  0  0  0  0  0  0  0  0
  136.7943   77.2099  221.2033 H   0  0  0  0  0  0  0  0  0  0  0  0
  136.6434   78.0127  222.8153 H   0  0  0  0  0  0  0  0  0  0  0  0
  137.4485   79.6103  221.0844 H   0  0  0  0  0  0  0  0  0  0  0  0
  138.6797   79.3643  222.3380 H   0  0  0  0  0  0  0  0  0  0  0  0
  138.5271   77.6949  219.7677 H   0  0  0  0  0  0  0  0  0  0  0  0
  139.5229   79.1671  219.9039 H   0  0  0  0  0  0  0  0  0  0  0  0
  140.8462   77.1047  220.4521 H   0  0  0  0  0  0  0  0  0  0  0  0
  141.7805   79.6020  220.4422 H   0  0  0  0  0  0  0  0  0  0  0  0
  143.1781   81.0080  221.9169 H   0  0  0  0  0  0  0  0  0  0  0  0
  143.2010   80.6113  224.3736 H   0  0  0  0  0  0  0  0  0  0  0  0
  141.7817   78.7706  225.2791 H   0  0  0  0  0  0  0  0  0  0  0  0
  138.4851   69.0467  222.7258 H   0  0  0  0  0  0  0  0  0  0  0  0
  138.8923   67.4879  224.6128 H   0  0  0  0  0  0  0  0  0  0  0  0
  139.7535   67.1330  226.8674 H   0  0  0  0  0  0  0  0  0  0  0  0
  141.4947   70.4272  228.9970 H   0  0  0  0  0  0  0  0  0  0  0  0
  141.0581   71.9441  227.0582 H   0  0  0  0  0  0  0  0  0  0  0  0
  1  2  2  0
  2  3  1  0
  3  4  1  0
  4  5  1  0
  5  6  2  0
  5  7  1  0
  7  8  1  0
  8  9  1  0
  9 10  1  0
 10 11  1  0
 11 12  1  0
 12 13  1  0
 13 14  2  0
 14 15  1  0
 15 16  2  0
 16 17  1  0
 17 18  2  0
  2 19  1  0
 19 20  2  0
 20 21  1  0
 21 22  2  0
 22 23  1  0
 23 24  2  0
 24 25  1  0
 24 26  1  0
 26 27  2  0
 27 28  1  0
 28 29  2  0
 12  7  1  0
 18 13  1  0
 29 19  1  0
 28 22  1  0
  3 30  1  0
  4 31  1  0
  4 32  1  0
  8 33  1  0
  8 34  1  0
  9 35  1  0
  9 36  1  0
 10 37  1  0
 10 38  1  0
 11 39  1  0
 11 40  1  0
 12 41  1  6
 14 42  1  0
 15 43  1  0
 16 44  1  0
 17 45  1  0
 20 46  1  0
 21 47  1  0
 23 48  1  0
 26 49  1  0
 27 50  1  0
M  END
>  <smiles>  (81) 
O=C(NCC(=O)N1CCCCC1c1ccccn1)c1ccc2cc(F)ccc2n1

>  <score_type>  (81) 
oracle

>  <origin>  (81) 
autodockgpu

>  <m_score__min__energy>  (81) 
-8.8900000000000006

>  <m_primary>  (81) 
energy

>  <rmsd>  (81) 
2.546712295998461

>  <m_score__min__rmsd>  (81) 
2.546712295998461

>  <meeko>  (81) 
{"free_energy": -8.37, "intermolecular_energy": -9.86, "internal_energy": -1.72, "cluster_size": 27, "cluster_id": 1, "rank_in_cluster": 23}

>  <energy>  (81) 
-8.67

>  <cluster_rmsd>  (81) 
0.1

>  <cluster>  (81) 
2

$$$$

     RDKit          3D

 50 53  0  0  0  0  0  0  0  0999 V2000
  140.9560   71.9210  221.2590 O   0  0  0  0  0  0  0  0  0  0  0  0
  140.2680   72.2930  222.2660 C   0  0  0  0  0  0  0  0  0  0  0  0
  139.6050   73.5580  222.2270 N   0  0  0  0  0  0  0  0  0  0  0  0
  139.6870   74.4330  221.0870 C   0  0  0  0  0  0  0  0  0  0  0  0
  140.7330   75.4730  221.2620 C   0  0  0  0  0  0  0  0  0  0  0  0
  140.7370   76.1290  222.3390 O   0  0  0  0  0  0  0  0  0  0  0  0
  141.7190   75.7600  220.2780 N   0  0  0  0  0  0  0  0  0  0  0  0
  142.1980   77.1170  220.1640 C   0  0  0  0  0  0  0  0  0  0  0  0
  142.5430   77.4900  218.7440 C   0  0  0  0  0  0  0  0  0  0  0  0
  143.2410   76.3360  218.0310 C   0  0  0  0  0  0  0  0  0  0  0  0
  142.2700   75.1810  218.0360 C   0  0  0  0  0  0  0  0  0  0  0  0
  142.1790   74.6680  219.4530 C   0  0  1  0  0  0  0  0  0  0  0  0
  143.4510   74.0830  219.9110 C   0  0  0  0  0  0  0  0  0  0  0  0
  143.7070   72.7130  219.8460 C   0  0  0  0  0  0  0  0  0  0  0  0
  144.9130   72.1790  220.2760 C   0  0  0  0  0  0  0  0  0  0  0  0
  145.8930   72.9930  220.7830 C   0  0  0  0  0  0  0  0  0  0  0  0
  145.6250   74.3450  220.8420 C   0  0  0  0  0  0  0  0  0  0  0  0
  144.4450   74.8350  220.4160 N   0  0  0  0  0  0  0  0  0  0  0  0
  140.1480   71.4570  223.4420 C   0  0  0  0  0  0  0  0  0  0  0  0
  139.5620   70.2140  223.3350 C   0  0  0  0  0  0  0  0  0  0  0  0
  139.4400   69.4040  224.4430 C   0  0  0  0  0  0  0  0  0  0  0  0
  139.9100   69.8500  225.6670 C   0  0  0  0  0  0  0  0  0  0  0  0
  139.8120   69.0860  226.7900 C   0  0  0  0  0  0  0  0  0  0  0  0
  140.2920   69.5720  227.9750 C   0  0  0  0  0  0  0  0  0  0  0  0
  140.1840   68.7870  229.0960 F   0  0  0  0  0  0  0  0  0  0  0  0
  140.8750   70.8250  228.0490 C   0  0  0  0  0  0  0  0  0  0  0  0
  140.9830   71.6130  226.9210 C   0  0  0  0  0  0  0  0  0  0  0  0
  140.4910   71.0960  225.7430 C   0  0  0  0  0  0  0  0  0  0  0  0
  140.6050   71.8830  224.6450 N   0  0  0  0  0  0  0  0  0  0  0  0
  139.0410   73.8710  223.0420 H   0  0  0  0  0  0  0  0  0  0  0  0
  139.9260   73.8345  220.1956 H   0  0  0  0  0  0  0  0  0  0  0  0
  138.7171   74.9399  220.9755 H   0  0  0  0  0  0  0  0  0  0  0  0
  141.4154   77.7991  220.5278 H   0  0  0  0  0  0  0  0  0  0  0  0
  143.1165   77.1989  220.7638 H   0  0  0  0  0  0  0  0  0  0  0  0
  141.6186   77.7409  218.2031 H   0  0  0  0  0  0  0  0  0  0  0  0
  143.2239   78.3537  218.7636 H   0  0  0  0  0  0  0  0  0  0  0  0
  143.4876   76.6210  216.9976 H   0  0  0  0  0  0  0  0  0  0  0  0
  144.1818   76.0677  218.5340 H   0  0  0  0  0  0  0  0  0  0  0  0
  141.2807   75.5210  217.6958 H   0  0  0  0  0  0  0  0  0  0  0  0
  142.6123   74.3853  217.3581 H   0  0  0  0  0  0  0  0  0  0  0  0
  141.4603   73.8379  219.5198 H   0  0  0  0  0  0  0  0  0  0  0  0
  142.9346   72.0406  219.4444 H   0  0  0  0  0  0  0  0  0  0  0  0
  145.0843   71.0945  220.2097 H   0  0  0  0  0  0  0  0  0  0  0  0
  146.8541   72.5845  221.1287 H   0  0  0  0  0  0  0  0  0  0  0  0
  146.3852   75.0320  221.2423 H   0  0  0  0  0  0  0  0  0  0  0  0
  139.1897   69.8668  222.3599 H   0  0  0  0  0  0  0  0  0  0  0  0
  138.9733   68.4117  224.3561 H   0  0  0  0  0  0  0  0  0  0  0  0
  139.3514   68.0881  226.7446 H   0  0  0  0  0  0  0  0  0  0  0  0
  141.2546   71.1952  229.0128 H   0  0  0  0  0  0  0  0  0  0  0  0
  141.4425   72.6116  226.9611 H   0  0  0  0  0  0  0  0  0  0  0  0
  1  2  2  0
  2  3  1  0
  3  4  1  0
  4  5  1  0
  5  6  2  0
  5  7  1  0
  7  8  1  0
  8  9  1  0
  9 10  1  0
 10 11  1  0
 11 12  1  0
 12 13  1  0
 13 14  2  0
 14 15  1  0
 15 16  2  0
 16 17  1  0
 17 18  2  0
  2 19  1  0
 19 20  2  0
 20 21  1  0
 21 22  2  0
 22 23  1  0
 23 24  2  0
 24 25  1  0
 24 26  1  0
 26 27  2  0
 27 28  1  0
 28 29  2  0
 12  7  1  0
 18 13  1  0
 29 19  1  0
 28 22  1  0
  3 30  1  0
  4 31  1  0
  4 32  1  0
  8 33  1  0
  8 34  1  0
  9 35  1  0
  9 36  1  0
 10 37  1  0
 10 38  1  0
 11 39  1  0
 11 40  1  0
 12 41  1  6
 14 42  1  0
 15 43  1  0
 16 44  1  0
 17 45  1  0
 20 46  1  0
 21 47  1  0
 23 48  1  0
 26 49  1  0
 27 50  1  0
M  END
>  <smiles>  (82) 
O=C(NCC(=O)N1CCCCC1c1ccccn1)c1ccc2cc(F)ccc2n1

>  <score_type>  (82) 
oracle

>  <origin>  (82) 
autodockgpu

>  <m_score__min__energy>  (82) 
-8.8900000000000006

>  <m_primary>  (82) 
energy

>  <rmsd>  (82) 
4.251372706549129

>  <m_score__min__rmsd>  (82) 
4.251372706549129

>  <meeko>  (82) 
{"free_energy": -8.6, "intermolecular_energy": -10.09, "internal_energy": -1.79, "cluster_size": 10, "cluster_id": 2, "rank_in_cluster": 6}

>  <energy>  (82) 
-8.66

>  <cluster_rmsd>  (82) 
0.16

>  <cluster>  (82) 
2

$$$$

     RDKit          3D

 50 53  0  0  0  0  0  0  0  0999 V2000
  141.0040   71.9610  221.2820 O   0  0  0  0  0  0  0  0  0  0  0  0
  140.3630   72.3500  222.3140 C   0  0  0  0  0  0  0  0  0  0  0  0
  139.7910   73.6590  222.3250 N   0  0  0  0  0  0  0  0  0  0  0  0
  139.9140   74.5600  221.2090 C   0  0  0  0  0  0  0  0  0  0  0  0
  139.6470   75.9680  221.6030 C   0  0  0  0  0  0  0  0  0  0  0  0
  138.9550   76.1700  222.6380 O   0  0  0  0  0  0  0  0  0  0  0  0
  140.1330   77.0870  220.8720 N   0  0  0  0  0  0  0  0  0  0  0  0
  139.2830   77.6640  219.8600 C   0  0  0  0  0  0  0  0  0  0  0  0
  140.0650   78.2090  218.6900 C   0  0  0  0  0  0  0  0  0  0  0  0
  141.3330   78.9150  219.1630 C   0  0  0  0  0  0  0  0  0  0  0  0
  142.1520   77.8770  219.8890 C   0  0  0  0  0  0  0  0  0  0  0  0
  141.4540   77.5740  221.1930 C   0  0  1  0  0  0  0  0  0  0  0  0
  141.4460   78.7370  222.0980 C   0  0  0  0  0  0  0  0  0  0  0  0
  142.6150   79.4080  222.4580 C   0  0  0  0  0  0  0  0  0  0  0  0
  142.5880   80.5060  223.3070 C   0  0  0  0  0  0  0  0  0  0  0  0
  141.4010   80.9610  223.8190 C   0  0  0  0  0  0  0  0  0  0  0  0
  140.2540   80.2870  223.4530 C   0  0  0  0  0  0  0  0  0  0  0  0
  140.3100   79.2250  222.6270 N   0  0  0  0  0  0  0  0  0  0  0  0
  140.2050   71.4880  223.4670 C   0  0  0  0  0  0  0  0  0  0  0  0
  139.5890   70.2650  223.3210 C   0  0  0  0  0  0  0  0  0  0  0  0
  139.4300   69.4310  224.4080 C   0  0  0  0  0  0  0  0  0  0  0  0
  139.8950   69.8340  225.6480 C   0  0  0  0  0  0  0  0  0  0  0  0
  139.7610   69.0460  226.7510 C   0  0  0  0  0  0  0  0  0  0  0  0
  140.2370   69.4900  227.9540 C   0  0  0  0  0  0  0  0  0  0  0  0
  140.0930   68.6810  229.0530 F   0  0  0  0  0  0  0  0  0  0  0  0
  140.8510   70.7260  228.0660 C   0  0  0  0  0  0  0  0  0  0  0  0
  140.9960   71.5380  226.9600 C   0  0  0  0  0  0  0  0  0  0  0  0
  140.5060   71.0620  225.7630 C   0  0  0  0  0  0  0  0  0  0  0  0
  140.6560   71.8730  224.6860 N   0  0  0  0  0  0  0  0  0  0  0  0
  139.2650   73.9860  223.1600 H   0  0  0  0  0  0  0  0  0  0  0  0
  140.9354   74.4907  220.8066 H   0  0  0  0  0  0  0  0  0  0  0  0
  139.1699   74.2701  220.4525 H   0  0  0  0  0  0  0  0  0  0  0  0
  138.5945   76.8884  219.4935 H   0  0  0  0  0  0  0  0  0  0  0  0
  138.7397   78.5033  220.3188 H   0  0  0  0  0  0  0  0  0  0  0  0
  140.3424   77.3785  218.0242 H   0  0  0  0  0  0  0  0  0  0  0  0
  139.4364   78.9366  218.1558 H   0  0  0  0  0  0  0  0  0  0  0  0
  141.8935   79.3080  218.3019 H   0  0  0  0  0  0  0  0  0  0  0  0
  141.0952   79.7657  219.8185 H   0  0  0  0  0  0  0  0  0  0  0  0
  142.2236   76.9632  219.2808 H   0  0  0  0  0  0  0  0  0  0  0  0
  143.1706   78.2489  220.0737 H   0  0  0  0  0  0  0  0  0  0  0  0
  141.9977   76.7991  221.7533 H   0  0  0  0  0  0  0  0  0  0  0  0
  143.5795   79.0593  222.0603 H   0  0  0  0  0  0  0  0  0  0  0  0
  143.5268   81.0149  223.5709 H   0  0  0  0  0  0  0  0  0  0  0  0
  141.3642   81.8284  224.4944 H   0  0  0  0  0  0  0  0  0  0  0  0
  139.2807   80.6217  223.8412 H   0  0  0  0  0  0  0  0  0  0  0  0
  139.2219   69.9517  222.3325 H   0  0  0  0  0  0  0  0  0  0  0  0
  138.9380   68.4542  224.2906 H   0  0  0  0  0  0  0  0  0  0  0  0
  139.2748   68.0622  226.6750 H   0  0  0  0  0  0  0  0  0  0  0  0
  141.2258   71.0629  229.0437 H   0  0  0  0  0  0  0  0  0  0  0  0
  141.4816   72.5225  227.0305 H   0  0  0  0  0  0  0  0  0  0  0  0
  1  2  2  0
  2  3  1  0
  3  4  1  0
  4  5  1  0
  5  6  2  0
  5  7  1  0
  7  8  1  0
  8  9  1  0
  9 10  1  0
 10 11  1  0
 11 12  1  0
 12 13  1  0
 13 14  2  0
 14 15  1  0
 15 16  2  0
 16 17  1  0
 17 18  2  0
  2 19  1  0
 19 20  2  0
 20 21  1  0
 21 22  2  0
 22 23  1  0
 23 24  2  0
 24 25  1  0
 24 26  1  0
 26 27  2  0
 27 28  1  0
 28 29  2  0
 12  7  1  0
 18 13  1  0
 29 19  1  0
 28 22  1  0
  3 30  1  0
  4 31  1  0
  4 32  1  0
  8 33  1  0
  8 34  1  0
  9 35  1  0
  9 36  1  0
 10 37  1  0
 10 38  1  0
 11 39  1  0
 11 40  1  0
 12 41  1  1
 14 42  1  0
 15 43  1  0
 16 44  1  0
 17 45  1  0
 20 46  1  0
 21 47  1  0
 23 48  1  0
 26 49  1  0
 27 50  1  0
M  END
>  <smiles>  (83) 
O=C(NCC(=O)N1CCCCC1c1ccccn1)c1ccc2cc(F)ccc2n1

>  <score_type>  (83) 
oracle

>  <origin>  (83) 
autodockgpu

>  <m_score__min__energy>  (83) 
-8.8900000000000006

>  <m_primary>  (83) 
energy

>  <rmsd>  (83) 
2.270729213916761

>  <m_score__min__rmsd>  (83) 
2.270729213916761

>  <meeko>  (83) 
{"free_energy": -8.59, "intermolecular_energy": -10.08, "internal_energy": -1.9, "cluster_size": 27, "cluster_id": 1, "rank_in_cluster": 11}

>  <energy>  (83) 
-8.6

>  <cluster_rmsd>  (83) 
0.53

>  <cluster>  (83) 
2

$$$$

     RDKit          3D

 50 53  0  0  0  0  0  0  0  0999 V2000
  138.7710   74.5380  222.3290 O   0  0  0  0  0  0  0  0  0  0  0  0
  139.8280   75.0220  221.8060 C   0  0  0  0  0  0  0  0  0  0  0  0
  139.9040   76.4290  221.5660 N   0  0  0  0  0  0  0  0  0  0  0  0
  138.8240   77.3230  221.8940 C   0  0  0  0  0  0  0  0  0  0  0  0
  139.2950   78.4930  222.6800 C   0  0  0  0  0  0  0  0  0  0  0  0
  138.4830   79.0280  223.4830 O   0  0  0  0  0  0  0  0  0  0  0  0
  140.6060   79.0310  222.5670 N   0  0  0  0  0  0  0  0  0  0  0  0
  141.5730   78.6970  223.5840 C   0  0  0  0  0  0  0  0  0  0  0  0
  142.5400   79.8220  223.8540 C   0  0  0  0  0  0  0  0  0  0  0  0
  142.9550   80.5090  222.5560 C   0  0  0  0  0  0  0  0  0  0  0  0
  141.6900   81.0570  221.9410 C   0  0  0  0  0  0  0  0  0  0  0  0
  140.8840   79.8840  221.4360 C   0  0  1  0  0  0  0  0  0  0  0  0
  141.5610   79.1860  220.3290 C   0  0  0  0  0  0  0  0  0  0  0  0
  141.8820   79.8250  219.1310 C   0  0  0  0  0  0  0  0  0  0  0  0
  142.5240   79.1530  218.1000 C   0  0  0  0  0  0  0  0  0  0  0  0
  142.8620   77.8310  218.2350 C   0  0  0  0  0  0  0  0  0  0  0  0
  142.5380   77.2140  219.4250 C   0  0  0  0  0  0  0  0  0  0  0  0
  141.9150   77.8910  220.4080 N   0  0  0  0  0  0  0  0  0  0  0  0
  140.9470   74.1730  221.4540 C   0  0  0  0  0  0  0  0  0  0  0  0
  140.7980   72.8040  221.4890 C   0  0  0  0  0  0  0  0  0  0  0  0
  141.8520   71.9800  221.1580 C   0  0  0  0  0  0  0  0  0  0  0  0
  143.0640   72.5400  220.7890 C   0  0  0  0  0  0  0  0  0  0  0  0
  144.1340   71.7670  220.4540 C   0  0  0  0  0  0  0  0  0  0  0  0
  145.3100   72.3690  220.0970 C   0  0  0  0  0  0  0  0  0  0  0  0
  146.3770   71.5740  219.7620 F   0  0  0  0  0  0  0  0  0  0  0  0
  145.4260   73.7490  220.0730 C   0  0  0  0  0  0  0  0  0  0  0  0
  144.3530   74.5470  220.4100 C   0  0  0  0  0  0  0  0  0  0  0  0
  143.1830   73.9110  220.7640 C   0  0  0  0  0  0  0  0  0  0  0  0
  142.1380   74.7110  221.0930 N   0  0  0  0  0  0  0  0  0  0  0  0
  140.7610   76.8350  221.1410 H   0  0  0  0  0  0  0  0  0  0  0  0
  138.3637   77.6824  220.9618 H   0  0  0  0  0  0  0  0  0  0  0  0
  138.0967   76.7701  222.5067 H   0  0  0  0  0  0  0  0  0  0  0  0
  141.0378   78.4608  224.5155 H   0  0  0  0  0  0  0  0  0  0  0  0
  142.1546   77.8364  223.2220 H   0  0  0  0  0  0  0  0  0  0  0  0
  142.0591   80.5594  224.5136 H   0  0  0  0  0  0  0  0  0  0  0  0
  143.4382   79.4050  224.3329 H   0  0  0  0  0  0  0  0  0  0  0  0
  143.6606   81.3261  222.7667 H   0  0  0  0  0  0  0  0  0  0  0  0
  143.4574   79.8059  221.8754 H   0  0  0  0  0  0  0  0  0  0  0  0
  141.1141   81.6103  222.6974 H   0  0  0  0  0  0  0  0  0  0  0  0
  141.9274   81.7464  221.1174 H   0  0  0  0  0  0  0  0  0  0  0  0
  139.9333   80.2258  221.0008 H   0  0  0  0  0  0  0  0  0  0  0  0
  141.6204   80.8854  219.0005 H   0  0  0  0  0  0  0  0  0  0  0  0
  142.7635   79.6851  217.1675 H   0  0  0  0  0  0  0  0  0  0  0  0
  143.3708   77.2849  217.4270 H   0  0  0  0  0  0  0  0  0  0  0  0
  142.7921   76.1540  219.5731 H   0  0  0  0  0  0  0  0  0  0  0  0
  139.8326   72.3661  221.7827 H   0  0  0  0  0  0  0  0  0  0  0  0
  141.7318   70.8870  221.1866 H   0  0  0  0  0  0  0  0  0  0  0  0
  144.0538   70.6700  220.4702 H   0  0  0  0  0  0  0  0  0  0  0  0
  146.3809   74.2118  219.7830 H   0  0  0  0  0  0  0  0  0  0  0  0
  144.4279   75.6444  220.3968 H   0  0  0  0  0  0  0  0  0  0  0  0
  1  2  2  0
  2  3  1  0
  3  4  1  0
  4  5  1  0
  5  6  2  0
  5  7  1  0
  7  8  1  0
  8  9  1  0
  9 10  1  0
 10 11  1  0
 11 12  1  0
 12 13  1  0
 13 14  2  0
 14 15  1  0
 15 16  2  0
 16 17  1  0
 17 18  2  0
  2 19  1  0
 19 20  2  0
 20 21  1  0
 21 22  2  0
 22 23  1  0
 23 24  2  0
 24 25  1  0
 24 26  1  0
 26 27  2  0
 27 28  1  0
 28 29  2  0
 12  7  1  0
 18 13  1  0
 29 19  1  0
 28 22  1  0
  3 30  1  0
  4 31  1  0
  4 32  1  0
  8 33  1  0
  8 34  1  0
  9 35  1  0
  9 36  1  0
 10 37  1  0
 10 38  1  0
 11 39  1  0
 11 40  1  0
 12 41  1  6
 14 42  1  0
 15 43  1  0
 16 44  1  0
 17 45  1  0
 20 46  1  0
 21 47  1  0
 23 48  1  0
 26 49  1  0
 27 50  1  0
M  END
>  <smiles>  (84) 
O=C(NCC(=O)N1CCCCC1c1ccccn1)c1ccc2cc(F)ccc2n1

>  <score_type>  (84) 
oracle

>  <origin>  (84) 
autodockgpu

>  <m_score__min__energy>  (84) 
-8.8900000000000006

>  <m_primary>  (84) 
energy

>  <rmsd>  (84) 
6.030933057298728

>  <m_score__min__rmsd>  (84) 
6.030933057298728

>  <meeko>  (84) 
{"free_energy": -7.07, "intermolecular_energy": -8.56, "internal_energy": -3.0, "cluster_size": 12, "cluster_id": 4, "rank_in_cluster": 2}

>  <energy>  (84) 
-8.56

>  <cluster_rmsd>  (84) 
0.21

>  <cluster>  (84) 
2

$$$$

     RDKit          3D

 50 53  0  0  0  0  0  0  0  0999 V2000
  138.8710   74.5670  222.3390 O   0  0  0  0  0  0  0  0  0  0  0  0
  139.8980   75.0410  221.7500 C   0  0  0  0  0  0  0  0  0  0  0  0
  139.9420   76.4360  221.4430 N   0  0  0  0  0  0  0  0  0  0  0  0
  138.8620   77.3290  221.7750 C   0  0  0  0  0  0  0  0  0  0  0  0
  139.3210   78.4600  222.6240 C   0  0  0  0  0  0  0  0  0  0  0  0
  138.5090   78.9310  223.4670 O   0  0  0  0  0  0  0  0  0  0  0  0
  140.6200   79.0290  222.5280 N   0  0  0  0  0  0  0  0  0  0  0  0
  141.5860   78.7050  223.5500 C   0  0  0  0  0  0  0  0  0  0  0  0
  142.5250   79.8490  223.8410 C   0  0  0  0  0  0  0  0  0  0  0  0
  142.9350   80.5590  222.5540 C   0  0  0  0  0  0  0  0  0  0  0  0
  141.6630   81.0850  221.9340 C   0  0  0  0  0  0  0  0  0  0  0  0
  140.8890   79.9000  221.4080 C   0  0  1  0  0  0  0  0  0  0  0  0
  141.5910   79.2290  220.3000 C   0  0  0  0  0  0  0  0  0  0  0  0
  141.9160   79.8920  219.1160 C   0  0  0  0  0  0  0  0  0  0  0  0
  142.5830   79.2460  218.0840 C   0  0  0  0  0  0  0  0  0  0  0  0
  142.9390   77.9280  218.2030 C   0  0  0  0  0  0  0  0  0  0  0  0
  142.6100   77.2870  219.3790 C   0  0  0  0  0  0  0  0  0  0  0  0
  141.9640   77.9390  220.3640 N   0  0  0  0  0  0  0  0  0  0  0  0
  141.0150   74.1930  221.3920 C   0  0  0  0  0  0  0  0  0  0  0  0
  140.8530   72.8240  221.3840 C   0  0  0  0  0  0  0  0  0  0  0  0
  141.9050   72.0010  221.0450 C   0  0  0  0  0  0  0  0  0  0  0  0
  143.1270   72.5600  220.7130 C   0  0  0  0  0  0  0  0  0  0  0  0
  144.1960   71.7870  220.3710 C   0  0  0  0  0  0  0  0  0  0  0  0
  145.3820   72.3880  220.0520 C   0  0  0  0  0  0  0  0  0  0  0  0
  146.4470   71.5930  219.7100 F   0  0  0  0  0  0  0  0  0  0  0  0
  145.5120   73.7670  220.0700 C   0  0  0  0  0  0  0  0  0  0  0  0
  144.4400   74.5650  220.4130 C   0  0  0  0  0  0  0  0  0  0  0  0
  143.2590   73.9300  220.7300 C   0  0  0  0  0  0  0  0  0  0  0  0
  142.2160   74.7290  221.0650 N   0  0  0  0  0  0  0  0  0  0  0  0
  140.7740   76.8340  220.9650 H   0  0  0  0  0  0  0  0  0  0  0  0
  138.4351   77.7325  220.8450 H   0  0  0  0  0  0  0  0  0  0  0  0
  138.1100   76.7600  222.3413 H   0  0  0  0  0  0  0  0  0  0  0  0
  141.0484   78.4461  224.4741 H   0  0  0  0  0  0  0  0  0  0  0  0
  142.1900   77.8618  223.1836 H   0  0  0  0  0  0  0  0  0  0  0  0
  142.0217   80.5680  224.5042 H   0  0  0  0  0  0  0  0  0  0  0  0
  143.4283   79.4476  224.3236 H   0  0  0  0  0  0  0  0  0  0  0  0
  143.6202   81.3895  222.7793 H   0  0  0  0  0  0  0  0  0  0  0  0
  143.4587   79.8747  221.8703 H   0  0  0  0  0  0  0  0  0  0  0  0
  141.0677   81.6157  222.6916 H   0  0  0  0  0  0  0  0  0  0  0  0
  141.8916   81.7896  221.1208 H   0  0  0  0  0  0  0  0  0  0  0  0
  139.9355   80.2252  220.9663 H   0  0  0  0  0  0  0  0  0  0  0  0
  141.6376   80.9496  218.9978 H   0  0  0  0  0  0  0  0  0  0  0  0
  142.8277   79.7964  217.1635 H   0  0  0  0  0  0  0  0  0  0  0  0
  143.4660   77.4024  217.3931 H   0  0  0  0  0  0  0  0  0  0  0  0
  142.8790   76.2290  219.5140 H   0  0  0  0  0  0  0  0  0  0  0  0
  139.8793   72.3865  221.6495 H   0  0  0  0  0  0  0  0  0  0  0  0
  141.7747   70.9088  221.0383 H   0  0  0  0  0  0  0  0  0  0  0  0
  144.1057   70.6909  220.3518 H   0  0  0  0  0  0  0  0  0  0  0  0
  146.4758   74.2287  219.8093 H   0  0  0  0  0  0  0  0  0  0  0  0
  144.5246   75.6616  220.4325 H   0  0  0  0  0  0  0  0  0  0  0  0
  1  2  2  0
  2  3  1  0
  3  4  1  0
  4  5  1  0
  5  6  2  0
  5  7  1  0
  7  8  1  0
  8  9  1  0
  9 10  1  0
 10 11  1  0
 11 12  1  0
 12 13  1  0
 13 14  2  0
 14 15  1  0
 15 16  2  0
 16 17  1  0
 17 18  2  0
  2 19  1  0
 19 20  2  0
 20 21  1  0
 21 22  2  0
 22 23  1  0
 23 24  2  0
 24 25  1  0
 24 26  1  0
 26 27  2  0
 27 28  1  0
 28 29  2  0
 12  7  1  0
 18 13  1  0
 29 19  1  0
 28 22  1  0
  3 30  1  0
  4 31  1  0
  4 32  1  0
  8 33  1  0
  8 34  1  0
  9 35  1  0
  9 36  1  0
 10 37  1  0
 10 38  1  0
 11 39  1  0
 11 40  1  0
 12 41  1  6
 14 42  1  0
 15 43  1  0
 16 44  1  0
 17 45  1  0
 20 46  1  0
 21 47  1  0
 23 48  1  0
 26 49  1  0
 27 50  1  0
M  END
>  <smiles>  (85) 
O=C(NCC(=O)N1CCCCC1c1ccccn1)c1ccc2cc(F)ccc2n1

>  <score_type>  (85) 
oracle

>  <origin>  (85) 
autodockgpu

>  <m_score__min__energy>  (85) 
-8.8900000000000006

>  <m_primary>  (85) 
energy

>  <rmsd>  (85) 
6.061326363619979

>  <m_score__min__rmsd>  (85) 
6.061326363619979

>  <meeko>  (85) 
{"free_energy": -7.06, "intermolecular_energy": -8.55, "internal_energy": -2.99, "cluster_size": 12, "cluster_id": 4, "rank_in_cluster": 3}

>  <energy>  (85) 
-8.5

>  <cluster_rmsd>  (85) 
0.49

>  <cluster>  (85) 
2

$$$$

     RDKit          3D

 50 53  0  0  0  0  0  0  0  0999 V2000
  141.4940   72.2060  221.6140 O   0  0  0  0  0  0  0  0  0  0  0  0
  140.5000   72.3890  222.3930 C   0  0  0  0  0  0  0  0  0  0  0  0
  139.5940   73.4600  222.1250 N   0  0  0  0  0  0  0  0  0  0  0  0
  139.7630   74.3460  221.0020 C   0  0  0  0  0  0  0  0  0  0  0  0
  140.9260   75.2530  221.1840 C   0  0  0  0  0  0  0  0  0  0  0  0
  141.0750   75.8020  222.3110 O   0  0  0  0  0  0  0  0  0  0  0  0
  141.8680   75.5290  220.1560 N   0  0  0  0  0  0  0  0  0  0  0  0
  142.3420   76.8840  220.0060 C   0  0  0  0  0  0  0  0  0  0  0  0
  142.6240   77.2420  218.5690 C   0  0  0  0  0  0  0  0  0  0  0  0
  143.2900   76.0790  217.8370 C   0  0  0  0  0  0  0  0  0  0  0  0
  142.3200   74.9260  217.8970 C   0  0  0  0  0  0  0  0  0  0  0  0
  142.2900   74.4280  219.3230 C   0  0  1  0  0  0  0  0  0  0  0  0
  143.5810   73.8460  219.7300 C   0  0  0  0  0  0  0  0  0  0  0  0
  144.5210   74.5640  220.4690 C   0  0  0  0  0  0  0  0  0  0  0  0
  145.7310   73.9980  220.8500 C   0  0  0  0  0  0  0  0  0  0  0  0
  146.0330   72.7070  220.5030 C   0  0  0  0  0  0  0  0  0  0  0  0
  145.0940   72.0100  219.7730 C   0  0  0  0  0  0  0  0  0  0  0  0
  143.9290   72.5850  219.4190 N   0  0  0  0  0  0  0  0  0  0  0  0
  140.2780   71.5310  223.5380 C   0  0  0  0  0  0  0  0  0  0  0  0
  139.5850   70.3510  223.3780 C   0  0  0  0  0  0  0  0  0  0  0  0
  139.3640   69.5210  224.4560 C   0  0  0  0  0  0  0  0  0  0  0  0
  139.8420   69.8850  225.7040 C   0  0  0  0  0  0  0  0  0  0  0  0
  139.6480   69.0990  226.7990 C   0  0  0  0  0  0  0  0  0  0  0  0
  140.1410   69.5030  228.0100 C   0  0  0  0  0  0  0  0  0  0  0  0
  139.9360   68.6970  229.1020 F   0  0  0  0  0  0  0  0  0  0  0  0
  140.8320   70.6960  228.1370 C   0  0  0  0  0  0  0  0  0  0  0  0
  141.0380   71.5050  227.0380 C   0  0  0  0  0  0  0  0  0  0  0  0
  140.5300   71.0700  225.8330 C   0  0  0  0  0  0  0  0  0  0  0  0
  140.7410   71.8780  224.7640 N   0  0  0  0  0  0  0  0  0  0  0  0
  138.7810   73.6190  222.7520 H   0  0  0  0  0  0  0  0  0  0  0  0
  139.9193   73.7445  220.0944 H   0  0  0  0  0  0  0  0  0  0  0  0
  138.8575   74.9646  220.9156 H   0  0  0  0  0  0  0  0  0  0  0  0
  141.5766   77.5706  220.3968 H   0  0  0  0  0  0  0  0  0  0  0  0
  143.2864   76.9710  220.5633 H   0  0  0  0  0  0  0  0  0  0  0  0
  141.6768   77.4882  218.0669 H   0  0  0  0  0  0  0  0  0  0  0  0
  143.3055   78.1052  218.5496 H   0  0  0  0  0  0  0  0  0  0  0  0
  143.4908   76.3531  216.7908 H   0  0  0  0  0  0  0  0  0  0  0  0
  144.2521   75.8150  218.3004 H   0  0  0  0  0  0  0  0  0  0  0  0
  141.3171   75.2635  217.5964 H   0  0  0  0  0  0  0  0  0  0  0  0
  142.6323   74.1225  217.2137 H   0  0  0  0  0  0  0  0  0  0  0  0
  141.5734   73.6004  219.4306 H   0  0  0  0  0  0  0  0  0  0  0  0
  144.2991   75.6023  220.7567 H   0  0  0  0  0  0  0  0  0  0  0  0
  146.4513   74.5897  221.4339 H   0  0  0  0  0  0  0  0  0  0  0  0
  146.9874   72.2450  220.7956 H   0  0  0  0  0  0  0  0  0  0  0  0
  145.2990   70.9709  219.4759 H   0  0  0  0  0  0  0  0  0  0  0  0
  139.2060   70.0697  222.3844 H   0  0  0  0  0  0  0  0  0  0  0  0
  138.8129   68.5779  224.3263 H   0  0  0  0  0  0  0  0  0  0  0  0
  139.1005   68.1490  226.7110 H   0  0  0  0  0  0  0  0  0  0  0  0
  141.2194   71.0011  229.1203 H   0  0  0  0  0  0  0  0  0  0  0  0
  141.5842   72.4562  227.1203 H   0  0  0  0  0  0  0  0  0  0  0  0
  1  2  2  0
  2  3  1  0
  3  4  1  0
  4  5  1  0
  5  6  2  0
  5  7  1  0
  7  8  1  0
  8  9  1  0
  9 10  1  0
 10 11  1  0
 11 12  1  0
 12 13  1  0
 13 14  2  0
 14 15  1  0
 15 16  2  0
 16 17  1  0
 17 18  2  0
  2 19  1  0
 19 20  2  0
 20 21  1  0
 21 22  2  0
 22 23  1  0
 23 24  2  0
 24 25  1  0
 24 26  1  0
 26 27  2  0
 27 28  1  0
 28 29  2  0
 12  7  1  0
 18 13  1  0
 29 19  1  0
 28 22  1  0
  3 30  1  0
  4 31  1  0
  4 32  1  0
  8 33  1  0
  8 34  1  0
  9 35  1  0
  9 36  1  0
 10 37  1  0
 10 38  1  0
 11 39  1  0
 11 40  1  0
 12 41  1  6
 14 42  1  0
 15 43  1  0
 16 44  1  0
 17 45  1  0
 20 46  1  0
 21 47  1  0
 23 48  1  0
 26 49  1  0
 27 50  1  0
M  END
>  <smiles>  (86) 
O=C(NCC(=O)N1CCCCC1c1ccccn1)c1ccc2cc(F)ccc2n1

>  <score_type>  (86) 
oracle

>  <origin>  (86) 
autodockgpu

>  <m_score__min__energy>  (86) 
-8.8900000000000006

>  <m_primary>  (86) 
energy

>  <rmsd>  (86) 
4.182853519876272

>  <m_score__min__rmsd>  (86) 
4.182853519876272

>  <meeko>  (86) 
{"free_energy": -8.66, "intermolecular_energy": -10.15, "internal_energy": -1.66, "cluster_size": 10, "cluster_id": 2, "rank_in_cluster": 5}

>  <energy>  (86) 
-8.43

>  <cluster_rmsd>  (86) 
0.64

>  <cluster>  (86) 
2

$$$$

     RDKit          3D

 50 53  0  0  0  0  0  0  0  0999 V2000
  138.5820   71.2110  221.5540 O   0  0  0  0  0  0  0  0  0  0  0  0
  139.1310   71.6390  222.6230 C   0  0  0  0  0  0  0  0  0  0  0  0
  139.5110   73.0130  222.7090 N   0  0  0  0  0  0  0  0  0  0  0  0
  139.2980   73.9370  221.6260 C   0  0  0  0  0  0  0  0  0  0  0  0
  140.0920   75.1820  221.7970 C   0  0  0  0  0  0  0  0  0  0  0  0
  141.3380   75.0680  221.9610 O   0  0  0  0  0  0  0  0  0  0  0  0
  139.5160   76.4820  221.7840 N   0  0  0  0  0  0  0  0  0  0  0  0
  138.2660   76.6830  222.4750 C   0  0  0  0  0  0  0  0  0  0  0  0
  137.3890   77.7060  221.7980 C   0  0  0  0  0  0  0  0  0  0  0  0
  138.2170   78.8830  221.2890 C   0  0  0  0  0  0  0  0  0  0  0  0
  139.2010   78.3150  220.2970 C   0  0  0  0  0  0  0  0  0  0  0  0
  140.2240   77.5210  221.0750 C   0  0  1  0  0  0  0  0  0  0  0  0
  141.0380   78.3800  221.9520 C   0  0  0  0  0  0  0  0  0  0  0  0
  141.7980   79.4410  221.4590 C   0  0  0  0  0  0  0  0  0  0  0  0
  142.5550   80.2440  222.3020 C   0  0  0  0  0  0  0  0  0  0  0  0
  142.5760   80.0090  223.6520 C   0  0  0  0  0  0  0  0  0  0  0  0
  141.8200   78.9560  224.1240 C   0  0  0  0  0  0  0  0  0  0  0  0
  141.0950   78.1950  223.2830 N   0  0  0  0  0  0  0  0  0  0  0  0
  139.3720   70.7560  223.7460 C   0  0  0  0  0  0  0  0  0  0  0  0
  138.9880   69.4350  223.6660 C   0  0  0  0  0  0  0  0  0  0  0  0
  139.2090   68.5810  224.7250 C   0  0  0  0  0  0  0  0  0  0  0  0
  139.8200   69.0610  225.8710 C   0  0  0  0  0  0  0  0  0  0  0  0
  140.0590   68.2560  226.9430 C   0  0  0  0  0  0  0  0  0  0  0  0
  140.6660   68.7790  228.0520 C   0  0  0  0  0  0  0  0  0  0  0  0
  140.8990   67.9510  229.1220 F   0  0  0  0  0  0  0  0  0  0  0  0
  141.0390   70.1110  228.1000 C   0  0  0  0  0  0  0  0  0  0  0  0
  140.8040   70.9420  227.0240 C   0  0  0  0  0  0  0  0  0  0  0  0
  140.1920   70.3860  225.9210 C   0  0  0  0  0  0  0  0  0  0  0  0
  139.9680   71.2160  224.8730 N   0  0  0  0  0  0  0  0  0  0  0  0
  139.9590   73.3720  223.5750 H   0  0  0  0  0  0  0  0  0  0  0  0
  139.5926   73.4538  220.6828 H   0  0  0  0  0  0  0  0  0  0  0  0
  138.2326   74.2103  221.6149 H   0  0  0  0  0  0  0  0  0  0  0  0
  137.7261   75.7254  222.5128 H   0  0  0  0  0  0  0  0  0  0  0  0
  138.4982   77.0570  223.4831 H   0  0  0  0  0  0  0  0  0  0  0  0
  136.8747   77.2334  220.9482 H   0  0  0  0  0  0  0  0  0  0  0  0
  136.6581   78.0811  222.5295 H   0  0  0  0  0  0  0  0  0  0  0  0
  137.5662   79.6219  220.7986 H   0  0  0  0  0  0  0  0  0  0  0  0
  138.7337   79.3935  222.1151 H   0  0  0  0  0  0  0  0  0  0  0  0
  138.6795   77.6591  219.5843 H   0  0  0  0  0  0  0  0  0  0  0  0
  139.6874   79.1217  219.7289 H   0  0  0  0  0  0  0  0  0  0  0  0
  140.9551   77.0587  220.3955 H   0  0  0  0  0  0  0  0  0  0  0  0
  141.7976   79.6461  220.3783 H   0  0  0  0  0  0  0  0  0  0  0  0
  143.1420   81.0747  221.8832 H   0  0  0  0  0  0  0  0  0  0  0  0
  143.1720   80.6352  224.3322 H   0  0  0  0  0  0  0  0  0  0  0  0
  141.8095   78.7354  225.2016 H   0  0  0  0  0  0  0  0  0  0  0  0
  138.5028   69.0603  222.7526 H   0  0  0  0  0  0  0  0  0  0  0  0
  138.9024   67.5266  224.6603 H   0  0  0  0  0  0  0  0  0  0  0  0
  139.7670   67.1958  226.9176 H   0  0  0  0  0  0  0  0  0  0  0  0
  141.5261   70.5098  229.0021 H   0  0  0  0  0  0  0  0  0  0  0  0
  141.0928   72.0032  227.0454 H   0  0  0  0  0  0  0  0  0  0  0  0
  1  2  2  0
  2  3  1  0
  3  4  1  0
  4  5  1  0
  5  6  2  0
  5  7  1  0
  7  8  1  0
  8  9  1  0
  9 10  1  0
 10 11  1  0
 11 12  1  0
 12 13  1  0
 13 14  2  0
 14 15  1  0
 15 16  2  0
 16 17  1  0
 17 18  2  0
  2 19  1  0
 19 20  2  0
 20 21  1  0
 21 22  2  0
 22 23  1  0
 23 24  2  0
 24 25  1  0
 24 26  1  0
 26 27  2  0
 27 28  1  0
 28 29  2  0
 12  7  1  0
 18 13  1  0
 29 19  1  0
 28 22  1  0
  3 30  1  0
  4 31  1  0
  4 32  1  0
  8 33  1  0
  8 34  1  0
  9 35  1  0
  9 36  1  0
 10 37  1  0
 10 38  1  0
 11 39  1  0
 11 40  1  0
 12 41  1  6
 14 42  1  0
 15 43  1  0
 16 44  1  0
 17 45  1  0
 20 46  1  0
 21 47  1  0
 23 48  1  0
 26 49  1  0
 27 50  1  0
M  END
>  <smiles>  (87) 
O=C(NCC(=O)N1CCCCC1c1ccccn1)c1ccc2cc(F)ccc2n1

>  <score_type>  (87) 
oracle

>  <origin>  (87) 
autodockgpu

>  <m_score__min__energy>  (87) 
-8.8900000000000006

>  <m_primary>  (87) 
energy

>  <rmsd>  (87) 
2.46549256330904

>  <m_score__min__rmsd>  (87) 
2.46549256330904

>  <meeko>  (87) 
{"free_energy": -8.36, "intermolecular_energy": -9.86, "internal_energy": -1.72, "cluster_size": 27, "cluster_id": 1, "rank_in_cluster": 24}

>  <energy>  (87) 
-8.34

>  <cluster_rmsd>  (87) 
0.78

>  <cluster>  (87) 
2

$$$$

     RDKit          3D

 50 53  0  0  0  0  0  0  0  0999 V2000
  138.7930   74.5320  222.3290 O   0  0  0  0  0  0  0  0  0  0  0  0
  139.8530   75.0210  221.8140 C   0  0  0  0  0  0  0  0  0  0  0  0
  139.9290   76.4290  221.5850 N   0  0  0  0  0  0  0  0  0  0  0  0
  138.8470   77.3200  221.9140 C   0  0  0  0  0  0  0  0  0  0  0  0
  139.3180   78.5030  222.6810 C   0  0  0  0  0  0  0  0  0  0  0  0
  138.5050   79.0540  223.4720 O   0  0  0  0  0  0  0  0  0  0  0  0
  140.6310   79.0360  222.5620 N   0  0  0  0  0  0  0  0  0  0  0  0
  141.6020   78.6960  223.5730 C   0  0  0  0  0  0  0  0  0  0  0  0
  142.5760   79.8170  223.8390 C   0  0  0  0  0  0  0  0  0  0  0  0
  142.9850   80.5050  222.5400 C   0  0  0  0  0  0  0  0  0  0  0  0
  141.7200   81.0580  221.9330 C   0  0  0  0  0  0  0  0  0  0  0  0
  140.9060   79.8890  221.4300 C   0  0  1  0  0  0  0  0  0  0  0  0
  141.5740   79.1910  220.3180 C   0  0  0  0  0  0  0  0  0  0  0  0
  141.8770   79.8260  219.1140 C   0  0  0  0  0  0  0  0  0  0  0  0
  142.5120   79.1540  218.0780 C   0  0  0  0  0  0  0  0  0  0  0  0
  142.8590   77.8350  218.2150 C   0  0  0  0  0  0  0  0  0  0  0  0
  142.5520   77.2200  219.4110 C   0  0  0  0  0  0  0  0  0  0  0  0
  141.9360   77.8980  220.3990 N   0  0  0  0  0  0  0  0  0  0  0  0
  140.9740   74.1750  221.4620 C   0  0  0  0  0  0  0  0  0  0  0  0
  140.8290   72.8060  221.4960 C   0  0  0  0  0  0  0  0  0  0  0  0
  141.8850   71.9850  221.1640 C   0  0  0  0  0  0  0  0  0  0  0  0
  143.0950   72.5480  220.7970 C   0  0  0  0  0  0  0  0  0  0  0  0
  144.1680   71.7790  220.4610 C   0  0  0  0  0  0  0  0  0  0  0  0
  145.3420   72.3840  220.1050 C   0  0  0  0  0  0  0  0  0  0  0  0
  146.4110   71.5920  219.7690 F   0  0  0  0  0  0  0  0  0  0  0  0
  145.4550   73.7640  220.0830 C   0  0  0  0  0  0  0  0  0  0  0  0
  144.3790   74.5590  220.4200 C   0  0  0  0  0  0  0  0  0  0  0  0
  143.2110   73.9200  220.7730 C   0  0  0  0  0  0  0  0  0  0  0  0
  142.1640   74.7160  221.1020 N   0  0  0  0  0  0  0  0  0  0  0  0
  140.7880   76.8390  221.1670 H   0  0  0  0  0  0  0  0  0  0  0  0
  138.3745   77.6650  220.9825 H   0  0  0  0  0  0  0  0  0  0  0  0
  138.1304   76.7696  222.5414 H   0  0  0  0  0  0  0  0  0  0  0  0
  141.0710   78.4610  224.5072 H   0  0  0  0  0  0  0  0  0  0  0  0
  142.1776   77.8331  223.2068 H   0  0  0  0  0  0  0  0  0  0  0  0
  142.1026   80.5549  224.5034 H   0  0  0  0  0  0  0  0  0  0  0  0
  143.4757   79.3953  224.3108 H   0  0  0  0  0  0  0  0  0  0  0  0
  143.6945   81.3195  222.7481 H   0  0  0  0  0  0  0  0  0  0  0  0
  143.4806   79.8010  221.8553 H   0  0  0  0  0  0  0  0  0  0  0  0
  141.1503   81.6123  222.6933 H   0  0  0  0  0  0  0  0  0  0  0  0
  141.9561   81.7475  221.1091 H   0  0  0  0  0  0  0  0  0  0  0  0
  139.9541   80.2342  221.0001 H   0  0  0  0  0  0  0  0  0  0  0  0
  141.6066   80.8840  218.9819 H   0  0  0  0  0  0  0  0  0  0  0  0
  142.7381   79.6838  217.1409 H   0  0  0  0  0  0  0  0  0  0  0  0
  143.3622   77.2887  217.4036 H   0  0  0  0  0  0  0  0  0  0  0  0
  142.8136   76.1620  219.5600 H   0  0  0  0  0  0  0  0  0  0  0  0
  139.8649   72.3653  221.7898 H   0  0  0  0  0  0  0  0  0  0  0  0
  141.7672   70.8916  221.1905 H   0  0  0  0  0  0  0  0  0  0  0  0
  144.0911   70.6818  220.4758 H   0  0  0  0  0  0  0  0  0  0  0  0
  146.4091   74.2295  219.7949 H   0  0  0  0  0  0  0  0  0  0  0  0
  144.4508   75.6566  220.4073 H   0  0  0  0  0  0  0  0  0  0  0  0
  1  2  2  0
  2  3  1  0
  3  4  1  0
  4  5  1  0
  5  6  2  0
  5  7  1  0
  7  8  1  0
  8  9  1  0
  9 10  1  0
 10 11  1  0
 11 12  1  0
 12 13  1  0
 13 14  2  0
 14 15  1  0
 15 16  2  0
 16 17  1  0
 17 18  2  0
  2 19  1  0
 19 20  2  0
 20 21  1  0
 21 22  2  0
 22 23  1  0
 23 24  2  0
 24 25  1  0
 24 26  1  0
 26 27  2  0
 27 28  1  0
 28 29  2  0
 12  7  1  0
 18 13  1  0
 29 19  1  0
 28 22  1  0
  3 30  1  0
  4 31  1  0
  4 32  1  0
  8 33  1  0
  8 34  1  0
  9 35  1  0
  9 36  1  0
 10 37  1  0
 10 38  1  0
 11 39  1  0
 11 40  1  0
 12 41  1  6
 14 42  1  0
 15 43  1  0
 16 44  1  0
 17 45  1  0
 20 46  1  0
 21 47  1  0
 23 48  1  0
 26 49  1  0
 27 50  1  0
M  END
>  <smiles>  (88) 
O=C(NCC(=O)N1CCCCC1c1ccccn1)c1ccc2cc(F)ccc2n1

>  <score_type>  (88) 
oracle

>  <origin>  (88) 
autodockgpu

>  <m_score__min__energy>  (88) 
-8.8900000000000006

>  <m_primary>  (88) 
energy

>  <rmsd>  (88) 
6.0378102890716905

>  <m_score__min__rmsd>  (88) 
6.0378102890716905

>  <meeko>  (88) 
{"free_energy": -7.06, "intermolecular_energy": -8.55, "internal_energy": -3.01, "cluster_size": 12, "cluster_id": 4, "rank_in_cluster": 4}

>  <energy>  (88) 
-7.65

>  <cluster_rmsd>  (88) 
0.0

>  <cluster>  (88) 
3

$$$$

     RDKit          3D

 50 53  0  0  0  0  0  0  0  0999 V2000
  141.3640   72.0600  221.4820 O   0  0  0  0  0  0  0  0  0  0  0  0
  140.5730   72.4140  222.4170 C   0  0  0  0  0  0  0  0  0  0  0  0
  139.9170   73.6810  222.3320 N   0  0  0  0  0  0  0  0  0  0  0  0
  140.1190   74.5760  221.2230 C   0  0  0  0  0  0  0  0  0  0  0  0
  139.6860   75.9610  221.5440 C   0  0  0  0  0  0  0  0  0  0  0  0
  138.8790   76.1190  222.5000 O   0  0  0  0  0  0  0  0  0  0  0  0
  140.1370   77.1040  220.8280 N   0  0  0  0  0  0  0  0  0  0  0  0
  139.2490   77.6980  219.8580 C   0  0  0  0  0  0  0  0  0  0  0  0
  139.9870   78.2820  218.6790 C   0  0  0  0  0  0  0  0  0  0  0  0
  141.2620   78.9890  219.1300 C   0  0  0  0  0  0  0  0  0  0  0  0
  142.1150   77.9410  219.8020 C   0  0  0  0  0  0  0  0  0  0  0  0
  141.4620   77.5970  221.1200 C   0  0  1  0  0  0  0  0  0  0  0  0
  141.4710   78.7360  222.0540 C   0  0  0  0  0  0  0  0  0  0  0  0
  142.6470   79.3900  222.4190 C   0  0  0  0  0  0  0  0  0  0  0  0
  142.6370   80.4660  223.2970 C   0  0  0  0  0  0  0  0  0  0  0  0
  141.4570   80.9140  223.8330 C   0  0  0  0  0  0  0  0  0  0  0  0
  140.3030   80.2560  223.4630 C   0  0  0  0  0  0  0  0  0  0  0  0
  140.3440   79.2160  222.6080 N   0  0  0  0  0  0  0  0  0  0  0  0
  140.3290   71.5560  223.5590 C   0  0  0  0  0  0  0  0  0  0  0  0
  139.6230   70.3850  223.3890 C   0  0  0  0  0  0  0  0  0  0  0  0
  139.3810   69.5560  224.4630 C   0  0  0  0  0  0  0  0  0  0  0  0
  139.8540   69.9100  225.7160 C   0  0  0  0  0  0  0  0  0  0  0  0
  139.6400   69.1240  226.8070 C   0  0  0  0  0  0  0  0  0  0  0  0
  140.1270   69.5190  228.0230 C   0  0  0  0  0  0  0  0  0  0  0  0
  139.9020   68.7130  229.1110 F   0  0  0  0  0  0  0  0  0  0  0  0
  140.8330   70.7020  228.1590 C   0  0  0  0  0  0  0  0  0  0  0  0
  141.0590   71.5110  227.0650 C   0  0  0  0  0  0  0  0  0  0  0  0
  140.5560   71.0860  225.8540 C   0  0  0  0  0  0  0  0  0  0  0  0
  140.7860   71.8930  224.7890 N   0  0  0  0  0  0  0  0  0  0  0  0
  139.2690   73.9790  223.0870 H   0  0  0  0  0  0  0  0  0  0  0  0
  141.1884   74.5881  220.9658 H   0  0  0  0  0  0  0  0  0  0  0  0
  139.5127   74.2158  220.3788 H   0  0  0  0  0  0  0  0  0  0  0  0
  138.5573   76.9244  219.4930 H   0  0  0  0  0  0  0  0  0  0  0  0
  138.7122   78.5190  220.3557 H   0  0  0  0  0  0  0  0  0  0  0  0
  140.2512   77.4725  217.9827 H   0  0  0  0  0  0  0  0  0  0  0  0
  139.3341   79.0165  218.1847 H   0  0  0  0  0  0  0  0  0  0  0  0
  141.7905   79.4107  218.2623 H   0  0  0  0  0  0  0  0  0  0  0  0
  141.0366   79.8194  219.8153 H   0  0  0  0  0  0  0  0  0  0  0  0
  142.1760   77.0440  219.1682 H   0  0  0  0  0  0  0  0  0  0  0  0
  143.1354   78.3187  219.9634 H   0  0  0  0  0  0  0  0  0  0  0  0
  142.0311   76.8143  221.6430 H   0  0  0  0  0  0  0  0  0  0  0  0
  143.6049   79.0458  222.0019 H   0  0  0  0  0  0  0  0  0  0  0  0
  143.5817   80.9621  223.5642 H   0  0  0  0  0  0  0  0  0  0  0  0
  141.4320   81.7644  224.5303 H   0  0  0  0  0  0  0  0  0  0  0  0
  139.3361   80.5848  223.8716 H   0  0  0  0  0  0  0  0  0  0  0  0
  139.2507   70.1105  222.3910 H   0  0  0  0  0  0  0  0  0  0  0  0
  138.8172   68.6214  224.3265 H   0  0  0  0  0  0  0  0  0  0  0  0
  139.0814   68.1812  226.7117 H   0  0  0  0  0  0  0  0  0  0  0  0
  141.2164   70.9989  229.1464 H   0  0  0  0  0  0  0  0  0  0  0  0
  141.6167   72.4548  227.1550 H   0  0  0  0  0  0  0  0  0  0  0  0
  1  2  2  0
  2  3  1  0
  3  4  1  0
  4  5  1  0
  5  6  2  0
  5  7  1  0
  7  8  1  0
  8  9  1  0
  9 10  1  0
 10 11  1  0
 11 12  1  0
 12 13  1  0
 13 14  2  0
 14 15  1  0
 15 16  2  0
 16 17  1  0
 17 18  2  0
  2 19  1  0
 19 20  2  0
 20 21  1  0
 21 22  2  0
 22 23  1  0
 23 24  2  0
 24 25  1  0
 24 26  1  0
 26 27  2  0
 27 28  1  0
 28 29  2  0
 12  7  1  0
 18 13  1  0
 29 19  1  0
 28 22  1  0
  3 30  1  0
  4 31  1  0
  4 32  1  0
  8 33  1  0
  8 34  1  0
  9 35  1  0
  9 36  1  0
 10 37  1  0
 10 38  1  0
 11 39  1  0
 11 40  1  0
 12 41  1  1
 14 42  1  0
 15 43  1  0
 16 44  1  0
 17 45  1  0
 20 46  1  0
 21 47  1  0
 23 48  1  0
 26 49  1  0
 27 50  1  0
M  END
>  <smiles>  (89) 
O=C(NCC(=O)N1CCCCC1c1ccccn1)c1ccc2cc(F)ccc2n1

>  <score_type>  (89) 
oracle

>  <origin>  (89) 
autodockgpu

>  <m_score__min__energy>  (89) 
-8.8900000000000006

>  <m_primary>  (89) 
energy

>  <rmsd>  (89) 
2.3218478672581493

>  <m_score__min__rmsd>  (89) 
2.3218478672581493

>  <meeko>  (89) 
{"free_energy": -8.53, "intermolecular_energy": -10.02, "internal_energy": -1.89, "cluster_size": 27, "cluster_id": 1, "rank_in_cluster": 13}

>  <energy>  (89) 
-7.07

>  <cluster_rmsd>  (89) 
0.0

>  <cluster>  (89) 
4

$$$$

     RDKit          3D

 50 53  0  0  0  0  0  0  0  0999 V2000
  141.0790   71.9420  221.3150 O   0  0  0  0  0  0  0  0  0  0  0  0
  140.4430   72.3540  222.3410 C   0  0  0  0  0  0  0  0  0  0  0  0
  139.9170   73.6830  222.3470 N   0  0  0  0  0  0  0  0  0  0  0  0
  140.0820   74.5780  221.2320 C   0  0  0  0  0  0  0  0  0  0  0  0
  139.6630   75.9640  221.5690 C   0  0  0  0  0  0  0  0  0  0  0  0
  138.8710   76.1210  222.5380 O   0  0  0  0  0  0  0  0  0  0  0  0
  140.1100   77.1090  220.8540 N   0  0  0  0  0  0  0  0  0  0  0  0
  139.2270   77.6920  219.8730 C   0  0  0  0  0  0  0  0  0  0  0  0
  139.9720   78.2790  218.7010 C   0  0  0  0  0  0  0  0  0  0  0  0
  141.2360   78.9980  219.1620 C   0  0  0  0  0  0  0  0  0  0  0  0
  142.0920   77.9610  219.8460 C   0  0  0  0  0  0  0  0  0  0  0  0
  141.4280   77.6140  221.1580 C   0  0  1  0  0  0  0  0  0  0  0  0
  141.4170   78.7560  222.0890 C   0  0  0  0  0  0  0  0  0  0  0  0
  142.5860   79.4120  222.4760 C   0  0  0  0  0  0  0  0  0  0  0  0
  142.5570   80.4900  223.3510 C   0  0  0  0  0  0  0  0  0  0  0  0
  141.3660   80.9390  223.8610 C   0  0  0  0  0  0  0  0  0  0  0  0
  140.2200   80.2800  223.4690 C   0  0  0  0  0  0  0  0  0  0  0  0
  140.2790   79.2380  222.6180 N   0  0  0  0  0  0  0  0  0  0  0  0
  140.2440   71.4990  223.4930 C   0  0  0  0  0  0  0  0  0  0  0  0
  139.5890   70.2960  223.3410 C   0  0  0  0  0  0  0  0  0  0  0  0
  139.3910   69.4700  224.4260 C   0  0  0  0  0  0  0  0  0  0  0  0
  139.8560   69.8580  225.6710 C   0  0  0  0  0  0  0  0  0  0  0  0
  139.6840   69.0760  226.7730 C   0  0  0  0  0  0  0  0  0  0  0  0
  140.1620   69.5050  227.9810 C   0  0  0  0  0  0  0  0  0  0  0  0
  139.9790   68.7020  229.0790 F   0  0  0  0  0  0  0  0  0  0  0  0
  140.8150   70.7200  228.0990 C   0  0  0  0  0  0  0  0  0  0  0  0
  140.9980   71.5250  226.9940 C   0  0  0  0  0  0  0  0  0  0  0  0
  140.5060   71.0650  225.7920 C   0  0  0  0  0  0  0  0  0  0  0  0
  140.6940   71.8700  224.7160 N   0  0  0  0  0  0  0  0  0  0  0  0
  139.3960   74.0280  223.1770 H   0  0  0  0  0  0  0  0  0  0  0  0
  141.1418   74.5882  220.9376 H   0  0  0  0  0  0  0  0  0  0  0  0
  139.4461   74.2194  220.4091 H   0  0  0  0  0  0  0  0  0  0  0  0
  138.5464   76.9111  219.5029 H   0  0  0  0  0  0  0  0  0  0  0  0
  138.6772   78.5094  220.3625 H   0  0  0  0  0  0  0  0  0  0  0  0
  140.2501   77.4699  218.0097 H   0  0  0  0  0  0  0  0  0  0  0  0
  139.3179   79.0069  218.1987 H   0  0  0  0  0  0  0  0  0  0  0  0
  141.7692   79.4214  218.2980 H   0  0  0  0  0  0  0  0  0  0  0  0
  140.9962   79.8283  219.8425 H   0  0  0  0  0  0  0  0  0  0  0  0
  142.1690   77.0629  219.2155 H   0  0  0  0  0  0  0  0  0  0  0  0
  143.1067   78.3495  220.0173 H   0  0  0  0  0  0  0  0  0  0  0  0
  141.9983   76.8371  221.6883 H   0  0  0  0  0  0  0  0  0  0  0  0
  143.5523   79.0676  222.0791 H   0  0  0  0  0  0  0  0  0  0  0  0
  143.4958   80.9870  223.6369 H   0  0  0  0  0  0  0  0  0  0  0  0
  141.3264   81.7912  224.5554 H   0  0  0  0  0  0  0  0  0  0  0  0
  139.2448   80.6098  223.8565 H   0  0  0  0  0  0  0  0  0  0  0  0
  139.2225   69.9938  222.3489 H   0  0  0  0  0  0  0  0  0  0  0  0
  138.8678   68.5101  224.3040 H   0  0  0  0  0  0  0  0  0  0  0  0
  139.1659   68.1090  226.6924 H   0  0  0  0  0  0  0  0  0  0  0  0
  141.1904   71.0455  229.0804 H   0  0  0  0  0  0  0  0  0  0  0  0
  141.5148   72.4931  227.0692 H   0  0  0  0  0  0  0  0  0  0  0  0
  1  2  2  0
  2  3  1  0
  3  4  1  0
  4  5  1  0
  5  6  2  0
  5  7  1  0
  7  8  1  0
  8  9  1  0
  9 10  1  0
 10 11  1  0
 11 12  1  0
 12 13  1  0
 13 14  2  0
 14 15  1  0
 15 16  2  0
 16 17  1  0
 17 18  2  0
  2 19  1  0
 19 20  2  0
 20 21  1  0
 21 22  2  0
 22 23  1  0
 23 24  2  0
 24 25  1  0
 24 26  1  0
 26 27  2  0
 27 28  1  0
 28 29  2  0
 12  7  1  0
 18 13  1  0
 29 19  1  0
 28 22  1  0
  3 30  1  0
  4 31  1  0
  4 32  1  0
  8 33  1  0
  8 34  1  0
  9 35  1  0
  9 36  1  0
 10 37  1  0
 10 38  1  0
 11 39  1  0
 11 40  1  0
 12 41  1  1
 14 42  1  0
 15 43  1  0
 16 44  1  0
 17 45  1  0
 20 46  1  0
 21 47  1  0
 23 48  1  0
 26 49  1  0
 27 50  1  0
M  END
>  <smiles>  (90) 
O=C(NCC(=O)N1CCCCC1c1ccccn1)c1ccc2cc(F)ccc2n1

>  <score_type>  (90) 
oracle

>  <origin>  (90) 
autodockgpu

>  <m_score__min__energy>  (90) 
-8.8900000000000006

>  <m_primary>  (90) 
energy

>  <rmsd>  (90) 
2.3039020115747704

>  <m_score__min__rmsd>  (90) 
2.3039020115747704

>  <meeko>  (90) 
{"free_energy": -8.52, "intermolecular_energy": -10.01, "internal_energy": -1.92, "cluster_size": 27, "cluster_id": 1, "rank_in_cluster": 14}

>  <energy>  (90) 
-7.07

>  <cluster_rmsd>  (90) 
0.13

>  <cluster>  (90) 
4

$$$$

     RDKit          3D

 50 53  0  0  0  0  0  0  0  0999 V2000
  140.1480   71.7120  221.0480 O   0  0  0  0  0  0  0  0  0  0  0  0
  139.9540   72.2190  222.2020 C   0  0  0  0  0  0  0  0  0  0  0  0
  139.7310   73.6260  222.3170 N   0  0  0  0  0  0  0  0  0  0  0  0
  139.7180   74.4960  221.1700 C   0  0  0  0  0  0  0  0  0  0  0  0
  140.0720   75.8930  221.5320 C   0  0  0  0  0  0  0  0  0  0  0  0
  139.9550   76.2370  222.7400 O   0  0  0  0  0  0  0  0  0  0  0  0
  140.5310   76.8510  220.5870 N   0  0  0  0  0  0  0  0  0  0  0  0
  139.6890   77.1550  219.4550 C   0  0  0  0  0  0  0  0  0  0  0  0
  140.4820   77.4730  218.2130 C   0  0  0  0  0  0  0  0  0  0  0  0
  141.7030   78.3250  218.5480 C   0  0  0  0  0  0  0  0  0  0  0  0
  142.5440   77.5090  219.4990 C   0  0  0  0  0  0  0  0  0  0  0  0
  141.8190   77.4600  220.8220 C   0  0  1  0  0  0  0  0  0  0  0  0
  141.7320   78.7890  221.4530 C   0  0  0  0  0  0  0  0  0  0  0  0
  142.5760   79.1750  222.4950 C   0  0  0  0  0  0  0  0  0  0  0  0
  142.4840   80.4330  223.0750 C   0  0  0  0  0  0  0  0  0  0  0  0
  141.5510   81.3350  222.6330 C   0  0  0  0  0  0  0  0  0  0  0  0
  140.7250   80.9390  221.6020 C   0  0  0  0  0  0  0  0  0  0  0  0
  140.8380   79.7120  221.0590 N   0  0  0  0  0  0  0  0  0  0  0  0
  139.9560   71.3950  223.3930 C   0  0  0  0  0  0  0  0  0  0  0  0
  139.4860   70.1010  223.3230 C   0  0  0  0  0  0  0  0  0  0  0  0
  139.4800   69.3010  224.4460 C   0  0  0  0  0  0  0  0  0  0  0  0
  139.9490   69.8090  225.6450 C   0  0  0  0  0  0  0  0  0  0  0  0
  139.9630   69.0580  226.7820 C   0  0  0  0  0  0  0  0  0  0  0  0
  140.4360   69.6060  227.9420 C   0  0  0  0  0  0  0  0  0  0  0  0
  140.4420   68.8330  229.0760 F   0  0  0  0  0  0  0  0  0  0  0  0
  140.9000   70.9100  227.9780 C   0  0  0  0  0  0  0  0  0  0  0  0
  140.8940   71.6860  226.8370 C   0  0  0  0  0  0  0  0  0  0  0  0
  140.4110   71.1050  225.6840 C   0  0  0  0  0  0  0  0  0  0  0  0
  140.4120   71.8820  224.5730 N   0  0  0  0  0  0  0  0  0  0  0  0
  139.5710   74.0500  223.2520 H   0  0  0  0  0  0  0  0  0  0  0  0
  140.4450   74.1242  220.4330 H   0  0  0  0  0  0  0  0  0  0  0  0
  138.6994   74.4984  220.7547 H   0  0  0  0  0  0  0  0  0  0  0  0
  139.0464   76.2860  219.2501 H   0  0  0  0  0  0  0  0  0  0  0  0
  139.0963   78.0460  219.7097 H   0  0  0  0  0  0  0  0  0  0  0  0
  140.8154   76.5333  217.7484 H   0  0  0  0  0  0  0  0  0  0  0  0
  139.8393   78.0375  217.5214 H   0  0  0  0  0  0  0  0  0  0  0  0
  142.2722   78.5501  217.6340 H   0  0  0  0  0  0  0  0  0  0  0  0
  141.4084   79.2842  218.9987 H   0  0  0  0  0  0  0  0  0  0  0  0
  142.6746   76.4904  219.1048 H   0  0  0  0  0  0  0  0  0  0  0  0
  143.5393   77.9615  219.6203 H   0  0  0  0  0  0  0  0  0  0  0  0
  142.3781   76.8513  221.5479 H   0  0  0  0  0  0  0  0  0  0  0  0
  143.3315   78.4664  222.8653 H   0  0  0  0  0  0  0  0  0  0  0  0
  143.1642   80.7078  223.8946 H   0  0  0  0  0  0  0  0  0  0  0  0
  141.4646   82.3351  223.0829 H   0  0  0  0  0  0  0  0  0  0  0  0
  139.9641   81.6345  221.2183 H   0  0  0  0  0  0  0  0  0  0  0  0
  139.1140   69.7048  222.3667 H   0  0  0  0  0  0  0  0  0  0  0  0
  139.1058   68.2682  224.3895 H   0  0  0  0  0  0  0  0  0  0  0  0
  139.5972   68.0207  226.7668 H   0  0  0  0  0  0  0  0  0  0  0  0
  141.2759   71.3302  228.9225 H   0  0  0  0  0  0  0  0  0  0  0  0
  141.2590   72.7236  226.8471 H   0  0  0  0  0  0  0  0  0  0  0  0
  1  2  2  0
  2  3  1  0
  3  4  1  0
  4  5  1  0
  5  6  2  0
  5  7  1  0
  7  8  1  0
  8  9  1  0
  9 10  1  0
 10 11  1  0
 11 12  1  0
 12 13  1  0
 13 14  2  0
 14 15  1  0
 15 16  2  0
 16 17  1  0
 17 18  2  0
  2 19  1  0
 19 20  2  0
 20 21  1  0
 21 22  2  0
 22 23  1  0
 23 24  2  0
 24 25  1  0
 24 26  1  0
 26 27  2  0
 27 28  1  0
 28 29  2  0
 12  7  1  0
 18 13  1  0
 29 19  1  0
 28 22  1  0
  3 30  1  0
  4 31  1  0
  4 32  1  0
  8 33  1  0
  8 34  1  0
  9 35  1  0
  9 36  1  0
 10 37  1  0
 10 38  1  0
 11 39  1  0
 11 40  1  0
 12 41  1  1
 14 42  1  0
 15 43  1  0
 16 44  1  0
 17 45  1  0
 20 46  1  0
 21 47  1  0
 23 48  1  0
 26 49  1  0
 27 50  1  0
M  END
>  <smiles>  (91) 
O=C(NCC(=O)N1CCCCC1c1ccccn1)c1ccc2cc(F)ccc2n1

>  <score_type>  (91) 
oracle

>  <origin>  (91) 
autodockgpu

>  <m_score__min__energy>  (91) 
-8.8900000000000006

>  <m_primary>  (91) 
energy

>  <rmsd>  (91) 
2.1435056154044476

>  <m_score__min__rmsd>  (91) 
2.1435056154044476

>  <meeko>  (91) 
{"free_energy": -8.14, "intermolecular_energy": -9.63, "internal_energy": -1.95, "cluster_size": 27, "cluster_id": 1, "rank_in_cluster": 27}

>  <energy>  (91) 
-7.06

>  <cluster_rmsd>  (91) 
0.08

>  <cluster>  (91) 
4

$$$$

     RDKit          3D

 50 53  0  0  0  0  0  0  0  0999 V2000
  141.3740   72.4580  221.8710 O   0  0  0  0  0  0  0  0  0  0  0  0
  140.3380   72.4470  222.6140 C   0  0  0  0  0  0  0  0  0  0  0  0
  139.2850   73.3770  222.3540 N   0  0  0  0  0  0  0  0  0  0  0  0
  139.3520   74.3310  221.2780 C   0  0  0  0  0  0  0  0  0  0  0  0
  140.1120   75.5480  221.6650 C   0  0  0  0  0  0  0  0  0  0  0  0
  141.3580   75.4390  221.8260 O   0  0  0  0  0  0  0  0  0  0  0  0
  139.5020   76.8180  221.8620 N   0  0  0  0  0  0  0  0  0  0  0  0
  138.3380   76.8940  222.7110 C   0  0  0  0  0  0  0  0  0  0  0  0
  137.3580   77.9460  222.2550 C   0  0  0  0  0  0  0  0  0  0  0  0
  138.0850   79.2030  221.7860 C   0  0  0  0  0  0  0  0  0  0  0  0
  138.9600   78.7830  220.6310 C   0  0  0  0  0  0  0  0  0  0  0  0
  140.0910   77.9540  221.1930 C   0  0  1  0  0  0  0  0  0  0  0  0
  140.9790   78.7480  222.0600 C   0  0  0  0  0  0  0  0  0  0  0  0
  141.7680   79.7870  221.5650 C   0  0  0  0  0  0  0  0  0  0  0  0
  142.5950   80.5290  222.3970 C   0  0  0  0  0  0  0  0  0  0  0  0
  142.6590   80.2540  223.7390 C   0  0  0  0  0  0  0  0  0  0  0  0
  141.8740   79.2240  224.2120 C   0  0  0  0  0  0  0  0  0  0  0  0
  141.0800   78.5220  223.3810 N   0  0  0  0  0  0  0  0  0  0  0  0
  140.2120   71.5110  223.7120 C   0  0  0  0  0  0  0  0  0  0  0  0
  139.6120   70.2890  223.4970 C   0  0  0  0  0  0  0  0  0  0  0  0
  139.4840   69.3850  224.5300 C   0  0  0  0  0  0  0  0  0  0  0  0
  139.9630   69.7160  225.7860 C   0  0  0  0  0  0  0  0  0  0  0  0
  139.8590   68.8560  226.8380 C   0  0  0  0  0  0  0  0  0  0  0  0
  140.3480   69.2300  228.0600 C   0  0  0  0  0  0  0  0  0  0  0  0
  140.2340   68.3500  229.1070 F   0  0  0  0  0  0  0  0  0  0  0  0
  140.9450   70.4660  228.2420 C   0  0  0  0  0  0  0  0  0  0  0  0
  141.0590   71.3490  227.1880 C   0  0  0  0  0  0  0  0  0  0  0  0
  140.5570   70.9430  225.9700 C   0  0  0  0  0  0  0  0  0  0  0  0
  140.6770   71.8240  224.9460 N   0  0  0  0  0  0  0  0  0  0  0  0
  138.4350   73.3770  222.9520 H   0  0  0  0  0  0  0  0  0  0  0  0
  139.8478   73.8609  220.4159 H   0  0  0  0  0  0  0  0  0  0  0  0
  138.3252   74.6351  221.0266 H   0  0  0  0  0  0  0  0  0  0  0  0
  137.8336   75.9164  222.7064 H   0  0  0  0  0  0  0  0  0  0  0  0
  138.6780   77.1691  223.7203 H   0  0  0  0  0  0  0  0  0  0  0  0
  136.7602   77.5446  221.4234 H   0  0  0  0  0  0  0  0  0  0  0  0
  136.7091   78.2117  223.1025 H   0  0  0  0  0  0  0  0  0  0  0  0
  137.3596   79.9618  221.4574 H   0  0  0  0  0  0  0  0  0  0  0  0
  138.6812   79.6452  222.5978 H   0  0  0  0  0  0  0  0  0  0  0  0
  138.3759   78.1850  219.9160 H   0  0  0  0  0  0  0  0  0  0  0  0
  139.3524   79.6646  220.1029 H   0  0  0  0  0  0  0  0  0  0  0  0
  140.7482   77.5969  220.3864 H   0  0  0  0  0  0  0  0  0  0  0  0
  141.7338   80.0234  220.4912 H   0  0  0  0  0  0  0  0  0  0  0  0
  143.2034   81.3435  221.9769 H   0  0  0  0  0  0  0  0  0  0  0  0
  143.3104   80.8319  224.4110 H   0  0  0  0  0  0  0  0  0  0  0  0
  141.8965   78.9722  225.2826 H   0  0  0  0  0  0  0  0  0  0  0  0
  139.2334   70.0337  222.4963 H   0  0  0  0  0  0  0  0  0  0  0  0
  139.0056   68.4096  224.3578 H   0  0  0  0  0  0  0  0  0  0  0  0
  139.3868   67.8713  226.7061 H   0  0  0  0  0  0  0  0  0  0  0  0
  141.3309   70.7458  229.2334 H   0  0  0  0  0  0  0  0  0  0  0  0
  141.5303   72.3349  227.3142 H   0  0  0  0  0  0  0  0  0  0  0  0
  1  2  2  0
  2  3  1  0
  3  4  1  0
  4  5  1  0
  5  6  2  0
  5  7  1  0
  7  8  1  0
  8  9  1  0
  9 10  1  0
 10 11  1  0
 11 12  1  0
 12 13  1  0
 13 14  2  0
 14 15  1  0
 15 16  2  0
 16 17  1  0
 17 18  2  0
  2 19  1  0
 19 20  2  0
 20 21  1  0
 21 22  2  0
 22 23  1  0
 23 24  2  0
 24 25  1  0
 24 26  1  0
 26 27  2  0
 27 28  1  0
 28 29  2  0
 12  7  1  0
 18 13  1  0
 29 19  1  0
 28 22  1  0
  3 30  1  0
  4 31  1  0
  4 32  1  0
  8 33  1  0
  8 34  1  0
  9 35  1  0
  9 36  1  0
 10 37  1  0
 10 38  1  0
 11 39  1  0
 11 40  1  0
 12 41  1  6
 14 42  1  0
 15 43  1  0
 16 44  1  0
 17 45  1  0
 20 46  1  0
 21 47  1  0
 23 48  1  0
 26 49  1  0
 27 50  1  0
M  END
>  <smiles>  (92) 
O=C(NCC(=O)N1CCCCC1c1ccccn1)c1ccc2cc(F)ccc2n1

>  <score_type>  (92) 
oracle

>  <origin>  (92) 
autodockgpu

>  <m_score__min__energy>  (92) 
-8.8900000000000006

>  <m_primary>  (92) 
energy

>  <rmsd>  (92) 
2.7192176132279555

>  <m_score__min__rmsd>  (92) 
2.7192176132279555

>  <meeko>  (92) 
{"free_energy": -8.89, "intermolecular_energy": -10.38, "internal_energy": -1.38, "cluster_size": 27, "cluster_id": 1, "rank_in_cluster": 1}

>  <energy>  (92) 
-7.06

>  <cluster_rmsd>  (92) 
0.11

>  <cluster>  (92) 
4

$$$$

     RDKit          3D

 50 53  0  0  0  0  0  0  0  0999 V2000
  141.2290   72.1460  221.5120 O   0  0  0  0  0  0  0  0  0  0  0  0
  140.3910   72.4130  222.4360 C   0  0  0  0  0  0  0  0  0  0  0  0
  139.6060   73.6030  222.3420 N   0  0  0  0  0  0  0  0  0  0  0  0
  139.7280   74.5170  221.2370 C   0  0  0  0  0  0  0  0  0  0  0  0
  139.6020   75.9320  221.6730 C   0  0  0  0  0  0  0  0  0  0  0  0
  139.0000   76.1630  222.7570 O   0  0  0  0  0  0  0  0  0  0  0  0
  140.1230   77.0260  220.9290 N   0  0  0  0  0  0  0  0  0  0  0  0
  139.3040   77.5970  219.8860 C   0  0  0  0  0  0  0  0  0  0  0  0
  140.1210   78.1020  218.7230 C   0  0  0  0  0  0  0  0  0  0  0  0
  141.3910   78.7950  219.2070 C   0  0  0  0  0  0  0  0  0  0  0  0
  142.1760   77.7590  219.9720 C   0  0  0  0  0  0  0  0  0  0  0  0
  141.4450   77.4960  221.2680 C   0  0  1  0  0  0  0  0  0  0  0  0
  141.4390   78.6790  222.1470 C   0  0  0  0  0  0  0  0  0  0  0  0
  142.6020   79.3890  222.4460 C   0  0  0  0  0  0  0  0  0  0  0  0
  142.5770   80.5050  223.2720 C   0  0  0  0  0  0  0  0  0  0  0  0
  141.3980   80.9380  223.8210 C   0  0  0  0  0  0  0  0  0  0  0  0
  140.2580   80.2250  223.5160 C   0  0  0  0  0  0  0  0  0  0  0  0
  140.3120   79.1470  222.7100 N   0  0  0  0  0  0  0  0  0  0  0  0
  140.2240   71.5310  223.5730 C   0  0  0  0  0  0  0  0  0  0  0  0
  139.5680   70.3310  223.4100 C   0  0  0  0  0  0  0  0  0  0  0  0
  139.3990   69.4790  224.4810 C   0  0  0  0  0  0  0  0  0  0  0  0
  139.8940   69.8400  225.7220 C   0  0  0  0  0  0  0  0  0  0  0  0
  139.7520   69.0330  226.8100 C   0  0  0  0  0  0  0  0  0  0  0  0
  140.2580   69.4360  228.0150 C   0  0  0  0  0  0  0  0  0  0  0  0
  140.1050   68.6070  229.0990 F   0  0  0  0  0  0  0  0  0  0  0  0
  140.9120   70.6490  228.1440 C   0  0  0  0  0  0  0  0  0  0  0  0
  141.0650   71.4810  227.0540 C   0  0  0  0  0  0  0  0  0  0  0  0
  140.5440   71.0460  225.8540 C   0  0  0  0  0  0  0  0  0  0  0  0
  140.7030   71.8760  224.7930 N   0  0  0  0  0  0  0  0  0  0  0  0
  138.9200   73.8300  223.0880 H   0  0  0  0  0  0  0  0  0  0  0  0
  140.7119   74.3762  220.7657 H   0  0  0  0  0  0  0  0  0  0  0  0
  138.9149   74.3049  220.5272 H   0  0  0  0  0  0  0  0  0  0  0  0
  138.6092   76.8263  219.5210 H   0  0  0  0  0  0  0  0  0  0  0  0
  138.7660   78.4553  220.3149 H   0  0  0  0  0  0  0  0  0  0  0  0
  140.3971   77.2522  218.0814 H   0  0  0  0  0  0  0  0  0  0  0  0
  139.5175   78.8295  218.1604 H   0  0  0  0  0  0  0  0  0  0  0  0
  141.9761   79.1591  218.3496 H   0  0  0  0  0  0  0  0  0  0  0  0
  141.1552   79.6638  219.8391 H   0  0  0  0  0  0  0  0  0  0  0  0
  142.2441   76.8312  219.3850 H   0  0  0  0  0  0  0  0  0  0  0  0
  143.1969   78.1172  220.1705 H   0  0  0  0  0  0  0  0  0  0  0  0
  141.9623   76.7238  221.8564 H   0  0  0  0  0  0  0  0  0  0  0  0
  143.5597   79.0576  222.0182 H   0  0  0  0  0  0  0  0  0  0  0  0
  143.5104   81.0457  223.4874 H   0  0  0  0  0  0  0  0  0  0  0  0
  141.3628   81.8191  224.4786 H   0  0  0  0  0  0  0  0  0  0  0  0
  139.2917   80.5406  223.9364 H   0  0  0  0  0  0  0  0  0  0  0  0
  139.1770   70.0509  222.4207 H   0  0  0  0  0  0  0  0  0  0  0  0
  138.8752   68.5206  224.3501 H   0  0  0  0  0  0  0  0  0  0  0  0
  139.2352   68.0661  226.7203 H   0  0  0  0  0  0  0  0  0  0  0  0
  141.3127   70.9519  229.1226 H   0  0  0  0  0  0  0  0  0  0  0  0
  141.5802   72.4492  227.1388 H   0  0  0  0  0  0  0  0  0  0  0  0
  1  2  2  0
  2  3  1  0
  3  4  1  0
  4  5  1  0
  5  6  2  0
  5  7  1  0
  7  8  1  0
  8  9  1  0
  9 10  1  0
 10 11  1  0
 11 12  1  0
 12 13  1  0
 13 14  2  0
 14 15  1  0
 15 16  2  0
 16 17  1  0
 17 18  2  0
  2 19  1  0
 19 20  2  0
 20 21  1  0
 21 22  2  0
 22 23  1  0
 23 24  2  0
 24 25  1  0
 24 26  1  0
 26 27  2  0
 27 28  1  0
 28 29  2  0
 12  7  1  0
 18 13  1  0
 29 19  1  0
 28 22  1  0
  3 30  1  0
  4 31  1  0
  4 32  1  0
  8 33  1  0
  8 34  1  0
  9 35  1  0
  9 36  1  0
 10 37  1  0
 10 38  1  0
 11 39  1  0
 11 40  1  0
 12 41  1  1
 14 42  1  0
 15 43  1  0
 16 44  1  0
 17 45  1  0
 20 46  1  0
 21 47  1  0
 23 48  1  0
 26 49  1  0
 27 50  1  0
M  END
>  <smiles>  (93) 
O=C(NCC(=O)N1CCCCC1c1ccccn1)c1ccc2cc(F)ccc2n1

>  <score_type>  (93) 
oracle

>  <origin>  (93) 
autodockgpu

>  <m_score__min__energy>  (93) 
-8.8900000000000006

>  <m_primary>  (93) 
energy

>  <rmsd>  (93) 
2.2560962000351292

>  <m_score__min__rmsd>  (93) 
2.2560962000351292

>  <meeko>  (93) 
{"free_energy": -8.74, "intermolecular_energy": -10.23, "internal_energy": -1.77, "cluster_size": 27, "cluster_id": 1, "rank_in_cluster": 3}

>  <energy>  (93) 
-7.06

>  <cluster_rmsd>  (93) 
0.14

>  <cluster>  (93) 
4

$$$$

     RDKit          3D

 50 53  0  0  0  0  0  0  0  0999 V2000
  140.2250   70.9630  221.1740 O   0  0  0  0  0  0  0  0  0  0  0  0
  139.9460   71.5430  222.2750 C   0  0  0  0  0  0  0  0  0  0  0  0
  139.7240   72.9540  222.2830 N   0  0  0  0  0  0  0  0  0  0  0  0
  139.8040   73.7500  221.0850 C   0  0  0  0  0  0  0  0  0  0  0  0
  140.5490   75.0160  221.3120 C   0  0  0  0  0  0  0  0  0  0  0  0
  140.2950   75.6700  222.3600 O   0  0  0  0  0  0  0  0  0  0  0  0
  141.5260   75.5180  220.4080 N   0  0  0  0  0  0  0  0  0  0  0  0
  141.8730   76.9160  220.4820 C   0  0  0  0  0  0  0  0  0  0  0  0
  142.2120   77.5000  219.1330 C   0  0  0  0  0  0  0  0  0  0  0  0
  143.0360   76.5170  218.3060 C   0  0  0  0  0  0  0  0  0  0  0  0
  142.1820   75.2860  218.1310 C   0  0  0  0  0  0  0  0  0  0  0  0
  142.1080   74.5890  219.4690 C   0  0  1  0  0  0  0  0  0  0  0  0
  143.4200   74.0710  219.8940 C   0  0  0  0  0  0  0  0  0  0  0  0
  143.7760   72.7300  219.7420 C   0  0  0  0  0  0  0  0  0  0  0  0
  145.0190   72.2600  220.1430 C   0  0  0  0  0  0  0  0  0  0  0  0
  145.9360   73.1100  220.7060 C   0  0  0  0  0  0  0  0  0  0  0  0
  145.5680   74.4320  220.8500 C   0  0  0  0  0  0  0  0  0  0  0  0
  144.3560   74.8600  220.4500 N   0  0  0  0  0  0  0  0  0  0  0  0
  139.8520   70.7960  223.5120 C   0  0  0  0  0  0  0  0  0  0  0  0
  139.2700   69.5470  223.5080 C   0  0  0  0  0  0  0  0  0  0  0  0
  139.1720   68.8210  224.6760 C   0  0  0  0  0  0  0  0  0  0  0  0
  139.6610   69.3580  225.8550 C   0  0  0  0  0  0  0  0  0  0  0  0
  139.5860   68.6800  227.0330 C   0  0  0  0  0  0  0  0  0  0  0  0
  140.0850   69.2540  228.1700 C   0  0  0  0  0  0  0  0  0  0  0  0
  140.0010   68.5550  229.3480 F   0  0  0  0  0  0  0  0  0  0  0  0
  140.6630   70.5120  228.1400 C   0  0  0  0  0  0  0  0  0  0  0  0
  140.7470   71.2140  226.9550 C   0  0  0  0  0  0  0  0  0  0  0  0
  140.2370   70.6080  225.8270 C   0  0  0  0  0  0  0  0  0  0  0  0
  140.3270   71.3120  224.6720 N   0  0  0  0  0  0  0  0  0  0  0  0
  139.4960   73.4370  223.1740 H   0  0  0  0  0  0  0  0  0  0  0  0
  140.3184   73.1691  220.3053 H   0  0  0  0  0  0  0  0  0  0  0  0
  138.7799   74.0067  220.7761 H   0  0  0  0  0  0  0  0  0  0  0  0
  141.0199   77.4694  220.9015 H   0  0  0  0  0  0  0  0  0  0  0  0
  142.7658   77.0052  221.1184 H   0  0  0  0  0  0  0  0  0  0  0  0
  141.2802   77.7302  218.5957 H   0  0  0  0  0  0  0  0  0  0  0  0
  142.8040   78.4147  219.2845 H   0  0  0  0  0  0  0  0  0  0  0  0
  143.2784   76.9541  217.3261 H   0  0  0  0  0  0  0  0  0  0  0  0
  143.9861   76.2752  218.8048 H   0  0  0  0  0  0  0  0  0  0  0  0
  141.1727   75.5732  217.8011 H   0  0  0  0  0  0  0  0  0  0  0  0
  142.6155   74.6193  217.3710 H   0  0  0  0  0  0  0  0  0  0  0  0
  141.4711   73.6944  219.4058 H   0  0  0  0  0  0  0  0  0  0  0  0
  143.0553   72.0298  219.2944 H   0  0  0  0  0  0  0  0  0  0  0  0
  145.2703   71.1976  220.0081 H   0  0  0  0  0  0  0  0  0  0  0  0
  146.9247   72.7525  221.0296 H   0  0  0  0  0  0  0  0  0  0  0  0
  146.2748   75.1461  221.2979 H   0  0  0  0  0  0  0  0  0  0  0  0
  138.8817   69.1271  222.5684 H   0  0  0  0  0  0  0  0  0  0  0  0
  138.7091   67.8232  224.6713 H   0  0  0  0  0  0  0  0  0  0  0  0
  139.1286   67.6803  227.0703 H   0  0  0  0  0  0  0  0  0  0  0  0
  141.0576   70.9544  229.0666 H   0  0  0  0  0  0  0  0  0  0  0  0
  141.2017   72.2147  226.9124 H   0  0  0  0  0  0  0  0  0  0  0  0
  1  2  2  0
  2  3  1  0
  3  4  1  0
  4  5  1  0
  5  6  2  0
  5  7  1  0
  7  8  1  0
  8  9  1  0
  9 10  1  0
 10 11  1  0
 11 12  1  0
 12 13  1  0
 13 14  2  0
 14 15  1  0
 15 16  2  0
 16 17  1  0
 17 18  2  0
  2 19  1  0
 19 20  2  0
 20 21  1  0
 21 22  2  0
 22 23  1  0
 23 24  2  0
 24 25  1  0
 24 26  1  0
 26 27  2  0
 27 28  1  0
 28 29  2  0
 12  7  1  0
 18 13  1  0
 29 19  1  0
 28 22  1  0
  3 30  1  0
  4 31  1  0
  4 32  1  0
  8 33  1  0
  8 34  1  0
  9 35  1  0
  9 36  1  0
 10 37  1  0
 10 38  1  0
 11 39  1  0
 11 40  1  0
 12 41  1  6
 14 42  1  0
 15 43  1  0
 16 44  1  0
 17 45  1  0
 20 46  1  0
 21 47  1  0
 23 48  1  0
 26 49  1  0
 27 50  1  0
M  END
>  <smiles>  (94) 
O=C(NCC(=O)N1CCCCC1c1ccccn1)c1ccc2cc(F)ccc2n1

>  <score_type>  (94) 
oracle

>  <origin>  (94) 
autodockgpu

>  <m_score__min__energy>  (94) 
-8.8900000000000006

>  <m_primary>  (94) 
energy

>  <rmsd>  (94) 
4.1808221660457985

>  <m_score__min__rmsd>  (94) 
4.1808221660457985

>  <meeko>  (94) 
{"free_energy": -8.34, "intermolecular_energy": -9.83, "internal_energy": -1.85, "cluster_size": 10, "cluster_id": 2, "rank_in_cluster": 10}

>  <energy>  (94) 
-7.03

>  <cluster_rmsd>  (94) 
0.13

>  <cluster>  (94) 
4

$$$$

     RDKit          3D

 50 53  0  0  0  0  0  0  0  0999 V2000
  141.1500   71.9660  221.3540 O   0  0  0  0  0  0  0  0  0  0  0  0
  140.4500   72.3600  222.3440 C   0  0  0  0  0  0  0  0  0  0  0  0
  139.8660   73.6630  222.3090 N   0  0  0  0  0  0  0  0  0  0  0  0
  140.0410   74.5520  221.1910 C   0  0  0  0  0  0  0  0  0  0  0  0
  139.6250   75.9410  221.5180 C   0  0  0  0  0  0  0  0  0  0  0  0
  138.8150   76.1050  222.4710 O   0  0  0  0  0  0  0  0  0  0  0  0
  140.0950   77.0820  220.8110 N   0  0  0  0  0  0  0  0  0  0  0  0
  139.2040   77.7190  219.8710 C   0  0  0  0  0  0  0  0  0  0  0  0
  139.9340   78.3010  218.6860 C   0  0  0  0  0  0  0  0  0  0  0  0
  141.2400   78.9610  219.1200 C   0  0  0  0  0  0  0  0  0  0  0  0
  142.0750   77.8770  219.7550 C   0  0  0  0  0  0  0  0  0  0  0  0
  141.4400   77.5300  221.0810 C   0  0  1  0  0  0  0  0  0  0  0  0
  141.5050   78.6520  222.0330 C   0  0  0  0  0  0  0  0  0  0  0  0
  140.4640   78.9390  222.9170 C   0  0  0  0  0  0  0  0  0  0  0  0
  140.5440   79.9970  223.8120 C   0  0  0  0  0  0  0  0  0  0  0  0
  141.6580   80.7940  223.8490 C   0  0  0  0  0  0  0  0  0  0  0  0
  142.6780   80.4980  222.9690 C   0  0  0  0  0  0  0  0  0  0  0  0
  142.5730   79.4640  222.1120 N   0  0  0  0  0  0  0  0  0  0  0  0
  140.2390   71.5100  223.4980 C   0  0  0  0  0  0  0  0  0  0  0  0
  139.5690   70.3150  223.3470 C   0  0  0  0  0  0  0  0  0  0  0  0
  139.3580   69.4940  224.4340 C   0  0  0  0  0  0  0  0  0  0  0  0
  139.8250   69.8790  225.6790 C   0  0  0  0  0  0  0  0  0  0  0  0
  139.6400   69.1020  226.7820 C   0  0  0  0  0  0  0  0  0  0  0  0
  140.1200   69.5280  227.9900 C   0  0  0  0  0  0  0  0  0  0  0  0
  139.9250   68.7300  229.0900 F   0  0  0  0  0  0  0  0  0  0  0  0
  140.7880   70.7350  228.1070 C   0  0  0  0  0  0  0  0  0  0  0  0
  140.9840   71.5360  227.0010 C   0  0  0  0  0  0  0  0  0  0  0  0
  140.4890   71.0790  225.7980 C   0  0  0  0  0  0  0  0  0  0  0  0
  140.6900   71.8780  224.7220 N   0  0  0  0  0  0  0  0  0  0  0  0
  139.2930   73.9950  223.1100 H   0  0  0  0  0  0  0  0  0  0  0  0
  141.1027   74.5570  220.9032 H   0  0  0  0  0  0  0  0  0  0  0  0
  139.4087   74.1916  220.3662 H   0  0  0  0  0  0  0  0  0  0  0  0
  138.4816   76.9728  219.5085 H   0  0  0  0  0  0  0  0  0  0  0  0
  138.7027   78.5467  220.3941 H   0  0  0  0  0  0  0  0  0  0  0  0
  140.1579   77.4962  217.9704 H   0  0  0  0  0  0  0  0  0  0  0  0
  139.2935   79.0638  218.2192 H   0  0  0  0  0  0  0  0  0  0  0  0
  141.7619   79.3814  218.2477 H   0  0  0  0  0  0  0  0  0  0  0  0
  141.0551   79.7857  219.8240 H   0  0  0  0  0  0  0  0  0  0  0  0
  142.0953   76.9898  219.1051 H   0  0  0  0  0  0  0  0  0  0  0  0
  143.1097   78.2210  219.9001 H   0  0  0  0  0  0  0  0  0  0  0  0
  141.9953   76.7210  221.5781 H   0  0  0  0  0  0  0  0  0  0  0  0
  139.5598   78.3127  222.9043 H   0  0  0  0  0  0  0  0  0  0  0  0
  139.7067   80.1971  224.4968 H   0  0  0  0  0  0  0  0  0  0  0  0
  141.7357   81.6362  224.5524 H   0  0  0  0  0  0  0  0  0  0  0  0
  143.5891   81.1143  222.9670 H   0  0  0  0  0  0  0  0  0  0  0  0
  139.2010   70.0151  222.3547 H   0  0  0  0  0  0  0  0  0  0  0  0
  138.8228   68.5406  224.3131 H   0  0  0  0  0  0  0  0  0  0  0  0
  139.1099   68.1415  226.7023 H   0  0  0  0  0  0  0  0  0  0  0  0
  141.1651   71.0576  229.0887 H   0  0  0  0  0  0  0  0  0  0  0  0
  141.5124   72.4979  227.0757 H   0  0  0  0  0  0  0  0  0  0  0  0
  1  2  2  0
  2  3  1  0
  3  4  1  0
  4  5  1  0
  5  6  2  0
  5  7  1  0
  7  8  1  0
  8  9  1  0
  9 10  1  0
 10 11  1  0
 11 12  1  0
 12 13  1  0
 13 14  2  0
 14 15  1  0
 15 16  2  0
 16 17  1  0
 17 18  2  0
  2 19  1  0
 19 20  2  0
 20 21  1  0
 21 22  2  0
 22 23  1  0
 23 24  2  0
 24 25  1  0
 24 26  1  0
 26 27  2  0
 27 28  1  0
 28 29  2  0
 12  7  1  0
 18 13  1  0
 29 19  1  0
 28 22  1  0
  3 30  1  0
  4 31  1  0
  4 32  1  0
  8 33  1  0
  8 34  1  0
  9 35  1  0
  9 36  1  0
 10 37  1  0
 10 38  1  0
 11 39  1  0
 11 40  1  0
 12 41  1  1
 14 42  1  0
 15 43  1  0
 16 44  1  0
 17 45  1  0
 20 46  1  0
 21 47  1  0
 23 48  1  0
 26 49  1  0
 27 50  1  0
M  END
>  <smiles>  (95) 
O=C(NCC(=O)N1CCCCC1c1ccccn1)c1ccc2cc(F)ccc2n1

>  <score_type>  (95) 
oracle

>  <origin>  (95) 
autodockgpu

>  <m_score__min__energy>  (95) 
-8.8900000000000006

>  <m_primary>  (95) 
energy

>  <rmsd>  (95) 
2.4016606540694876

>  <m_score__min__rmsd>  (95) 
2.4016606540694876

>  <meeko>  (95) 
{"free_energy": -8.49, "intermolecular_energy": -9.98, "internal_energy": -1.86, "cluster_size": 27, "cluster_id": 1, "rank_in_cluster": 16}

>  <energy>  (95) 
-7.03

>  <cluster_rmsd>  (95) 
0.19

>  <cluster>  (95) 
4

$$$$

     RDKit          3D

 50 53  0  0  0  0  0  0  0  0999 V2000
  138.9220   74.4890  222.3390 O   0  0  0  0  0  0  0  0  0  0  0  0
  139.9550   74.9720  221.7680 C   0  0  0  0  0  0  0  0  0  0  0  0
  139.9980   76.3690  221.4720 N   0  0  0  0  0  0  0  0  0  0  0  0
  138.9120   77.2560  221.7970 C   0  0  0  0  0  0  0  0  0  0  0  0
  139.3620   78.4010  222.6310 C   0  0  0  0  0  0  0  0  0  0  0  0
  138.5450   78.8810  223.4630 O   0  0  0  0  0  0  0  0  0  0  0  0
  140.6600   78.9730  222.5320 N   0  0  0  0  0  0  0  0  0  0  0  0
  141.6300   78.6520  223.5510 C   0  0  0  0  0  0  0  0  0  0  0  0
  142.5670   79.7980  223.8390 C   0  0  0  0  0  0  0  0  0  0  0  0
  142.9710   80.5100  222.5510 C   0  0  0  0  0  0  0  0  0  0  0  0
  141.6960   81.0320  221.9350 C   0  0  0  0  0  0  0  0  0  0  0  0
  140.9230   79.8450  221.4110 C   0  0  1  0  0  0  0  0  0  0  0  0
  141.6240   79.1770  220.3010 C   0  0  0  0  0  0  0  0  0  0  0  0
  141.9550   79.8440  219.1210 C   0  0  0  0  0  0  0  0  0  0  0  0
  142.6200   79.2000  218.0860 C   0  0  0  0  0  0  0  0  0  0  0  0
  142.9700   77.8790  218.2000 C   0  0  0  0  0  0  0  0  0  0  0  0
  142.6350   77.2340  219.3720 C   0  0  0  0  0  0  0  0  0  0  0  0
  141.9900   77.8850  220.3590 N   0  0  0  0  0  0  0  0  0  0  0  0
  141.0790   74.1290  221.4170 C   0  0  0  0  0  0  0  0  0  0  0  0
  140.9290   72.7600  221.4220 C   0  0  0  0  0  0  0  0  0  0  0  0
  141.9880   71.9420  221.0910 C   0  0  0  0  0  0  0  0  0  0  0  0
  143.2060   72.5090  220.7530 C   0  0  0  0  0  0  0  0  0  0  0  0
  144.2810   71.7430  220.4190 C   0  0  0  0  0  0  0  0  0  0  0  0
  145.4630   72.3510  220.0940 C   0  0  0  0  0  0  0  0  0  0  0  0
  146.5350   71.5620  219.7590 F   0  0  0  0  0  0  0  0  0  0  0  0
  145.5800   73.7300  220.0990 C   0  0  0  0  0  0  0  0  0  0  0  0
  144.5010   74.5230  220.4350 C   0  0  0  0  0  0  0  0  0  0  0  0
  143.3250   73.8800  220.7580 C   0  0  0  0  0  0  0  0  0  0  0  0
  142.2760   74.6730  221.0860 N   0  0  0  0  0  0  0  0  0  0  0  0
  140.8350   76.7730  221.0080 H   0  0  0  0  0  0  0  0  0  0  0  0
  138.4787   77.6446  220.8636 H   0  0  0  0  0  0  0  0  0  0  0  0
  138.1676   76.6866  222.3729 H   0  0  0  0  0  0  0  0  0  0  0  0
  141.0959   78.3920  224.4768 H   0  0  0  0  0  0  0  0  0  0  0  0
  142.2351   77.8105  223.1827 H   0  0  0  0  0  0  0  0  0  0  0  0
  142.0643   80.5154  224.5043 H   0  0  0  0  0  0  0  0  0  0  0  0
  143.4731   79.3984  224.3180 H   0  0  0  0  0  0  0  0  0  0  0  0
  143.6541   81.3426  222.7747 H   0  0  0  0  0  0  0  0  0  0  0  0
  143.4949   79.8276  221.8655 H   0  0  0  0  0  0  0  0  0  0  0  0
  141.1017   81.5611  222.6945 H   0  0  0  0  0  0  0  0  0  0  0  0
  141.9205   81.7369  221.1209 H   0  0  0  0  0  0  0  0  0  0  0  0
  139.9669   80.1670  220.9725 H   0  0  0  0  0  0  0  0  0  0  0  0
  141.6830   80.9039  219.0081 H   0  0  0  0  0  0  0  0  0  0  0  0
  142.8678   79.7534  217.1682 H   0  0  0  0  0  0  0  0  0  0  0  0
  143.4969   77.3548  217.3891 H   0  0  0  0  0  0  0  0  0  0  0  0
  142.8980   76.1739  219.5024 H   0  0  0  0  0  0  0  0  0  0  0  0
  139.9589   72.3169  221.6916 H   0  0  0  0  0  0  0  0  0  0  0  0
  141.8670   70.8487  221.0952 H   0  0  0  0  0  0  0  0  0  0  0  0
  144.2001   70.6460  220.4105 H   0  0  0  0  0  0  0  0  0  0  0  0
  146.5396   74.1976  219.8334 H   0  0  0  0  0  0  0  0  0  0  0  0
  144.5763   75.6204  220.4446 H   0  0  0  0  0  0  0  0  0  0  0  0
  1  2  2  0
  2  3  1  0
  3  4  1  0
  4  5  1  0
  5  6  2  0
  5  7  1  0
  7  8  1  0
  8  9  1  0
  9 10  1  0
 10 11  1  0
 11 12  1  0
 12 13  1  0
 13 14  2  0
 14 15  1  0
 15 16  2  0
 16 17  1  0
 17 18  2  0
  2 19  1  0
 19 20  2  0
 20 21  1  0
 21 22  2  0
 22 23  1  0
 23 24  2  0
 24 25  1  0
 24 26  1  0
 26 27  2  0
 27 28  1  0
 28 29  2  0
 12  7  1  0
 18 13  1  0
 29 19  1  0
 28 22  1  0
  3 30  1  0
  4 31  1  0
  4 32  1  0
  8 33  1  0
  8 34  1  0
  9 35  1  0
  9 36  1  0
 10 37  1  0
 10 38  1  0
 11 39  1  0
 11 40  1  0
 12 41  1  6
 14 42  1  0
 15 43  1  0
 16 44  1  0
 17 45  1  0
 20 46  1  0
 21 47  1  0
 23 48  1  0
 26 49  1  0
 27 50  1  0
M  END
>  <smiles>  (96) 
O=C(NCC(=O)N1CCCCC1c1ccccn1)c1ccc2cc(F)ccc2n1

>  <score_type>  (96) 
oracle

>  <origin>  (96) 
autodockgpu

>  <m_score__min__energy>  (96) 
-8.8900000000000006

>  <m_primary>  (96) 
energy

>  <rmsd>  (96) 
6.0464667791276945

>  <m_score__min__rmsd>  (96) 
6.0464667791276945

>  <meeko>  (96) 
{"free_energy": -7.07, "intermolecular_energy": -8.57, "internal_energy": -2.99, "cluster_size": 12, "cluster_id": 4, "rank_in_cluster": 1}

>  <energy>  (96) 
-7.01

>  <cluster_rmsd>  (96) 
0.19

>  <cluster>  (96) 
4

$$$$

     RDKit          3D

 50 53  0  0  0  0  0  0  0  0999 V2000
  138.8770   71.1670  221.4590 O   0  0  0  0  0  0  0  0  0  0  0  0
  139.3040   71.6190  222.5720 C   0  0  0  0  0  0  0  0  0  0  0  0
  139.5990   73.0120  222.6900 N   0  0  0  0  0  0  0  0  0  0  0  0
  139.4300   73.9280  221.5920 C   0  0  0  0  0  0  0  0  0  0  0  0
  140.1840   75.1910  221.8050 C   0  0  0  0  0  0  0  0  0  0  0  0
  141.4380   75.1160  221.9250 O   0  0  0  0  0  0  0  0  0  0  0  0
  139.5620   76.4670  221.8790 N   0  0  0  0  0  0  0  0  0  0  0  0
  138.3510   76.5940  222.6540 C   0  0  0  0  0  0  0  0  0  0  0  0
  137.3970   77.6070  222.0720 C   0  0  0  0  0  0  0  0  0  0  0  0
  138.1470   78.8330  221.5600 C   0  0  0  0  0  0  0  0  0  0  0  0
  139.0870   78.3400  220.4870 C   0  0  0  0  0  0  0  0  0  0  0  0
  140.1850   77.5580  221.1680 C   0  0  1  0  0  0  0  0  0  0  0  0
  141.0220   78.4150  222.0270 C   0  0  0  0  0  0  0  0  0  0  0  0
  141.8000   79.4520  221.5120 C   0  0  0  0  0  0  0  0  0  0  0  0
  142.5780   80.2530  222.3360 C   0  0  0  0  0  0  0  0  0  0  0  0
  142.6020   80.0420  223.6900 C   0  0  0  0  0  0  0  0  0  0  0  0
  141.8270   79.0120  224.1840 C   0  0  0  0  0  0  0  0  0  0  0  0
  141.0820   78.2520  223.3600 N   0  0  0  0  0  0  0  0  0  0  0  0
  139.4940   70.7470  223.7120 C   0  0  0  0  0  0  0  0  0  0  0  0
  139.0610   69.4400  223.6470 C   0  0  0  0  0  0  0  0  0  0  0  0
  139.2330   68.5950  224.7220 C   0  0  0  0  0  0  0  0  0  0  0  0
  139.8440   69.0710  225.8700 C   0  0  0  0  0  0  0  0  0  0  0  0
  140.0350   68.2740  226.9580 C   0  0  0  0  0  0  0  0  0  0  0  0
  140.6440   68.7920  228.0690 C   0  0  0  0  0  0  0  0  0  0  0  0
  140.8290   67.9740  229.1550 F   0  0  0  0  0  0  0  0  0  0  0  0
  141.0660   70.1100  228.1020 C   0  0  0  0  0  0  0  0  0  0  0  0
  140.8800   70.9320  227.0090 C   0  0  0  0  0  0  0  0  0  0  0  0
  140.2650   70.3810  225.9060 C   0  0  0  0  0  0  0  0  0  0  0  0
  140.0890   71.2020  224.8410 N   0  0  0  0  0  0  0  0  0  0  0  0
  139.9470   73.3920  223.5920 H   0  0  0  0  0  0  0  0  0  0  0  0
  139.7912   73.4490  220.6700 H   0  0  0  0  0  0  0  0  0  0  0  0
  138.3612   74.1768  221.5161 H   0  0  0  0  0  0  0  0  0  0  0  0
  137.8494   75.6156  222.6877 H   0  0  0  0  0  0  0  0  0  0  0  0
  138.6323   76.9388  223.6600 H   0  0  0  0  0  0  0  0  0  0  0  0
  136.8483   77.1464  221.2373 H   0  0  0  0  0  0  0  0  0  0  0  0
  136.7005   77.9265  222.8612 H   0  0  0  0  0  0  0  0  0  0  0  0
  137.4400   79.5636  221.1401 H   0  0  0  0  0  0  0  0  0  0  0  0
  138.6956   79.3328  222.3719 H   0  0  0  0  0  0  0  0  0  0  0  0
  138.5455   77.6913  219.7827 H   0  0  0  0  0  0  0  0  0  0  0  0
  139.5071   79.1854  219.9223 H   0  0  0  0  0  0  0  0  0  0  0  0
  140.8871   77.1499  220.4260 H   0  0  0  0  0  0  0  0  0  0  0  0
  141.7967   79.6391  220.4280 H   0  0  0  0  0  0  0  0  0  0  0  0
  143.1800   81.0634  221.8991 H   0  0  0  0  0  0  0  0  0  0  0  0
  143.2140   80.6680  224.3560 H   0  0  0  0  0  0  0  0  0  0  0  0
  141.8182   78.8097  225.2652 H   0  0  0  0  0  0  0  0  0  0  0  0
  138.5755   69.0694  222.7321 H   0  0  0  0  0  0  0  0  0  0  0  0
  138.8881   67.5518  224.6687 H   0  0  0  0  0  0  0  0  0  0  0  0
  139.7034   67.2253  226.9439 H   0  0  0  0  0  0  0  0  0  0  0  0
  141.5530   70.5050  229.0058 H   0  0  0  0  0  0  0  0  0  0  0  0
  141.2086   71.9817  227.0181 H   0  0  0  0  0  0  0  0  0  0  0  0
  1  2  2  0
  2  3  1  0
  3  4  1  0
  4  5  1  0
  5  6  2  0
  5  7  1  0
  7  8  1  0
  8  9  1  0
  9 10  1  0
 10 11  1  0
 11 12  1  0
 12 13  1  0
 13 14  2  0
 14 15  1  0
 15 16  2  0
 16 17  1  0
 17 18  2  0
  2 19  1  0
 19 20  2  0
 20 21  1  0
 21 22  2  0
 22 23  1  0
 23 24  2  0
 24 25  1  0
 24 26  1  0
 26 27  2  0
 27 28  1  0
 28 29  2  0
 12  7  1  0
 18 13  1  0
 29 19  1  0
 28 22  1  0
  3 30  1  0
  4 31  1  0
  4 32  1  0
  8 33  1  0
  8 34  1  0
  9 35  1  0
  9 36  1  0
 10 37  1  0
 10 38  1  0
 11 39  1  0
 11 40  1  0
 12 41  1  6
 14 42  1  0
 15 43  1  0
 16 44  1  0
 17 45  1  0
 20 46  1  0
 21 47  1  0
 23 48  1  0
 26 49  1  0
 27 50  1  0
M  END
>  <smiles>  (97) 
O=C(NCC(=O)N1CCCCC1c1ccccn1)c1ccc2cc(F)ccc2n1

>  <score_type>  (97) 
oracle

>  <origin>  (97) 
autodockgpu

>  <m_score__min__energy>  (97) 
-8.8900000000000006

>  <m_primary>  (97) 
energy

>  <rmsd>  (97) 
2.541638901644938

>  <m_score__min__rmsd>  (97) 
2.541638901644938

>  <meeko>  (97) 
{"free_energy": -8.44, "intermolecular_energy": -9.93, "internal_energy": -1.68, "cluster_size": 27, "cluster_id": 1, "rank_in_cluster": 21}

>  <energy>  (97) 
-7.0

>  <cluster_rmsd>  (97) 
0.25

>  <cluster>  (97) 
4

$$$$

     RDKit          3D

 50 53  0  0  0  0  0  0  0  0999 V2000
  141.3630   72.6490  221.9970 O   0  0  0  0  0  0  0  0  0  0  0  0
  140.2940   72.5570  222.6860 C   0  0  0  0  0  0  0  0  0  0  0  0
  139.1940   73.4170  222.3850 N   0  0  0  0  0  0  0  0  0  0  0  0
  139.2500   74.3910  221.3260 C   0  0  0  0  0  0  0  0  0  0  0  0
  140.0090   75.6030  221.7290 C   0  0  0  0  0  0  0  0  0  0  0  0
  141.2430   75.4760  221.9610 O   0  0  0  0  0  0  0  0  0  0  0  0
  139.4130   76.8870  221.8630 N   0  0  0  0  0  0  0  0  0  0  0  0
  138.2590   77.0200  222.7200 C   0  0  0  0  0  0  0  0  0  0  0  0
  137.2830   78.0550  222.2190 C   0  0  0  0  0  0  0  0  0  0  0  0
  138.0170   79.2780  221.6750 C   0  0  0  0  0  0  0  0  0  0  0  0
  138.8740   78.7880  220.5340 C   0  0  0  0  0  0  0  0  0  0  0  0
  140.0040   77.9800  221.1280 C   0  0  1  0  0  0  0  0  0  0  0  0
  140.9090   78.8110  221.9400 C   0  0  0  0  0  0  0  0  0  0  0  0
  141.3450   78.4190  223.2060 C   0  0  0  0  0  0  0  0  0  0  0  0
  142.2030   79.2120  223.9560 C   0  0  0  0  0  0  0  0  0  0  0  0
  142.6450   80.4130  223.4660 C   0  0  0  0  0  0  0  0  0  0  0  0
  142.2050   80.7870  222.2140 C   0  0  0  0  0  0  0  0  0  0  0  0
  141.3740   79.9960  221.5090 N   0  0  0  0  0  0  0  0  0  0  0  0
  140.1790   71.5970  223.7650 C   0  0  0  0  0  0  0  0  0  0  0  0
  139.5690   70.3830  223.5310 C   0  0  0  0  0  0  0  0  0  0  0  0
  139.4500   69.4570  224.5450 C   0  0  0  0  0  0  0  0  0  0  0  0
  139.9480   69.7560  225.8010 C   0  0  0  0  0  0  0  0  0  0  0  0
  139.8540   68.8740  226.8350 C   0  0  0  0  0  0  0  0  0  0  0  0
  140.3610   69.2180  228.0580 C   0  0  0  0  0  0  0  0  0  0  0  0
  140.2570   68.3150  229.0860 F   0  0  0  0  0  0  0  0  0  0  0  0
  140.9680   70.4460  228.2590 C   0  0  0  0  0  0  0  0  0  0  0  0
  141.0720   71.3520  227.2240 C   0  0  0  0  0  0  0  0  0  0  0  0
  140.5520   70.9770  226.0050 C   0  0  0  0  0  0  0  0  0  0  0  0
  140.6620   71.8790  224.9990 N   0  0  0  0  0  0  0  0  0  0  0  0
  138.3180   73.3500  222.9390 H   0  0  0  0  0  0  0  0  0  0  0  0
  139.7406   73.9383  220.4517 H   0  0  0  0  0  0  0  0  0  0  0  0
  138.2203   74.6964  221.0883 H   0  0  0  0  0  0  0  0  0  0  0  0
  137.7460   76.0485  222.7740 H   0  0  0  0  0  0  0  0  0  0  0  0
  138.6133   77.3461  223.7090 H   0  0  0  0  0  0  0  0  0  0  0  0
  136.6721   77.6154  221.4168 H   0  0  0  0  0  0  0  0  0  0  0  0
  136.6457   78.3720  223.0577 H   0  0  0  0  0  0  0  0  0  0  0  0
  137.2952   80.0258  221.3148 H   0  0  0  0  0  0  0  0  0  0  0  0
  138.6273   79.7564  222.4552 H   0  0  0  0  0  0  0  0  0  0  0  0
  138.2761   78.1577  219.8592 H   0  0  0  0  0  0  0  0  0  0  0  0
  139.2676   79.6356  219.9538 H   0  0  0  0  0  0  0  0  0  0  0  0
  140.6490   77.5736  220.3350 H   0  0  0  0  0  0  0  0  0  0  0  0
  141.0010   77.4595  223.6195 H   0  0  0  0  0  0  0  0  0  0  0  0
  142.5302   78.8739  224.9503 H   0  0  0  0  0  0  0  0  0  0  0  0
  143.3239   81.0533  224.0484 H   0  0  0  0  0  0  0  0  0  0  0  0
  142.5371   81.7441  221.7854 H   0  0  0  0  0  0  0  0  0  0  0  0
  139.1753   70.1522  222.5301 H   0  0  0  0  0  0  0  0  0  0  0  0
  138.9633   68.4885  224.3574 H   0  0  0  0  0  0  0  0  0  0  0  0
  139.3751   67.8947  226.6879 H   0  0  0  0  0  0  0  0  0  0  0  0
  141.3700   70.7009  229.2507 H   0  0  0  0  0  0  0  0  0  0  0  0
  141.5500   72.3324  227.3662 H   0  0  0  0  0  0  0  0  0  0  0  0
  1  2  2  0
  2  3  1  0
  3  4  1  0
  4  5  1  0
  5  6  2  0
  5  7  1  0
  7  8  1  0
  8  9  1  0
  9 10  1  0
 10 11  1  0
 11 12  1  0
 12 13  1  0
 13 14  2  0
 14 15  1  0
 15 16  2  0
 16 17  1  0
 17 18  2  0
  2 19  1  0
 19 20  2  0
 20 21  1  0
 21 22  2  0
 22 23  1  0
 23 24  2  0
 24 25  1  0
 24 26  1  0
 26 27  2  0
 27 28  1  0
 28 29  2  0
 12  7  1  0
 18 13  1  0
 29 19  1  0
 28 22  1  0
  3 30  1  0
  4 31  1  0
  4 32  1  0
  8 33  1  0
  8 34  1  0
  9 35  1  0
  9 36  1  0
 10 37  1  0
 10 38  1  0
 11 39  1  0
 11 40  1  0
 12 41  1  6
 14 42  1  0
 15 43  1  0
 16 44  1  0
 17 45  1  0
 20 46  1  0
 21 47  1  0
 23 48  1  0
 26 49  1  0
 27 50  1  0
M  END
>  <smiles>  (98) 
O=C(NCC(=O)N1CCCCC1c1ccccn1)c1ccc2cc(F)ccc2n1

>  <score_type>  (98) 
oracle

>  <origin>  (98) 
autodockgpu

>  <m_score__min__energy>  (98) 
-8.8900000000000006

>  <m_primary>  (98) 
energy

>  <rmsd>  (98) 
3.0774168718387274

>  <m_score__min__rmsd>  (98) 
3.0774168718387274

>  <meeko>  (98) 
{"free_energy": -8.77, "intermolecular_energy": -10.27, "internal_energy": -1.33, "cluster_size": 27, "cluster_id": 1, "rank_in_cluster": 2}

>  <energy>  (98) 
-6.99

>  <cluster_rmsd>  (98) 
0.36

>  <cluster>  (98) 
4

$$$$

     RDKit          3D

 50 53  0  0  0  0  0  0  0  0999 V2000
  141.4350   72.2850  221.6400 O   0  0  0  0  0  0  0  0  0  0  0  0
  140.4490   72.4540  222.4300 C   0  0  0  0  0  0  0  0  0  0  0  0
  139.5440   73.5350  222.1940 N   0  0  0  0  0  0  0  0  0  0  0  0
  139.7070   74.4440  221.0900 C   0  0  0  0  0  0  0  0  0  0  0  0
  140.9170   75.2930  221.2480 C   0  0  0  0  0  0  0  0  0  0  0  0
  141.1150   75.8340  222.3700 O   0  0  0  0  0  0  0  0  0  0  0  0
  141.8510   75.5220  220.2000 N   0  0  0  0  0  0  0  0  0  0  0  0
  142.2940   76.8740  219.9600 C   0  0  0  0  0  0  0  0  0  0  0  0
  142.5650   77.1430  218.5010 C   0  0  0  0  0  0  0  0  0  0  0  0
  143.2560   75.9510  217.8460 C   0  0  0  0  0  0  0  0  0  0  0  0
  142.3110   74.7820  217.9840 C   0  0  0  0  0  0  0  0  0  0  0  0
  142.2960   74.3780  219.4400 C   0  0  1  0  0  0  0  0  0  0  0  0
  143.6000   73.8530  219.8800 C   0  0  0  0  0  0  0  0  0  0  0  0
  143.9910   72.5350  219.6440 C   0  0  0  0  0  0  0  0  0  0  0  0
  145.2260   72.0580  220.0620 C   0  0  0  0  0  0  0  0  0  0  0  0
  146.1010   72.8800  220.7240 C   0  0  0  0  0  0  0  0  0  0  0  0
  145.7000   74.1810  220.9500 C   0  0  0  0  0  0  0  0  0  0  0  0
  144.4960   74.6150  220.5320 N   0  0  0  0  0  0  0  0  0  0  0  0
  140.2320   71.5720  223.5580 C   0  0  0  0  0  0  0  0  0  0  0  0
  139.5340   70.3980  223.3770 C   0  0  0  0  0  0  0  0  0  0  0  0
  139.3180   69.5460  224.4390 C   0  0  0  0  0  0  0  0  0  0  0  0
  139.8090   69.8790  225.6900 C   0  0  0  0  0  0  0  0  0  0  0  0
  139.6210   69.0700  226.7690 C   0  0  0  0  0  0  0  0  0  0  0  0
  140.1250   69.4450  227.9840 C   0  0  0  0  0  0  0  0  0  0  0  0
  139.9260   68.6160  229.0600 F   0  0  0  0  0  0  0  0  0  0  0  0
  140.8220   70.6320  228.1320 C   0  0  0  0  0  0  0  0  0  0  0  0
  141.0220   71.4640  227.0500 C   0  0  0  0  0  0  0  0  0  0  0  0
  140.5020   71.0590  225.8400 C   0  0  0  0  0  0  0  0  0  0  0  0
  140.7070   71.8890  224.7870 N   0  0  0  0  0  0  0  0  0  0  0  0
  138.7360   73.6810  222.8310 H   0  0  0  0  0  0  0  0  0  0  0  0
  139.7988   73.8627  220.1607 H   0  0  0  0  0  0  0  0  0  0  0  0
  138.8278   75.1043  221.0581 H   0  0  0  0  0  0  0  0  0  0  0  0
  141.5142   77.5676  220.3076 H   0  0  0  0  0  0  0  0  0  0  0  0
  143.2373   77.0185  220.5072 H   0  0  0  0  0  0  0  0  0  0  0  0
  141.6114   77.3334  217.9869 H   0  0  0  0  0  0  0  0  0  0  0  0
  143.2260   78.0187  218.4223 H   0  0  0  0  0  0  0  0  0  0  0  0
  143.4498   76.1602  216.7836 H   0  0  0  0  0  0  0  0  0  0  0  0
  144.2242   75.7396  218.3233 H   0  0  0  0  0  0  0  0  0  0  0  0
  141.3002   75.0769  217.6658 H   0  0  0  0  0  0  0  0  0  0  0  0
  142.6389   73.9428  217.3529 H   0  0  0  0  0  0  0  0  0  0  0  0
  141.5991   73.5430  219.6043 H   0  0  0  0  0  0  0  0  0  0  0  0
  143.3048   71.8578  219.1143 H   0  0  0  0  0  0  0  0  0  0  0  0
  145.5044   71.0131  219.8606 H   0  0  0  0  0  0  0  0  0  0  0  0
  147.0831   72.5172  221.0614 H   0  0  0  0  0  0  0  0  0  0  0  0
  146.3728   74.8724  221.4785 H   0  0  0  0  0  0  0  0  0  0  0  0
  139.1472   70.1393  222.3803 H   0  0  0  0  0  0  0  0  0  0  0  0
  138.7601   68.6092  224.2937 H   0  0  0  0  0  0  0  0  0  0  0  0
  139.0692   68.1242  226.6646 H   0  0  0  0  0  0  0  0  0  0  0  0
  141.2188   70.9135  229.1186 H   0  0  0  0  0  0  0  0  0  0  0  0
  141.5733   72.4107  227.1490 H   0  0  0  0  0  0  0  0  0  0  0  0
  1  2  2  0
  2  3  1  0
  3  4  1  0
  4  5  1  0
  5  6  2  0
  5  7  1  0
  7  8  1  0
  8  9  1  0
  9 10  1  0
 10 11  1  0
 11 12  1  0
 12 13  1  0
 13 14  2  0
 14 15  1  0
 15 16  2  0
 16 17  1  0
 17 18  2  0
  2 19  1  0
 19 20  2  0
 20 21  1  0
 21 22  2  0
 22 23  1  0
 23 24  2  0
 24 25  1  0
 24 26  1  0
 26 27  2  0
 27 28  1  0
 28 29  2  0
 12  7  1  0
 18 13  1  0
 29 19  1  0
 28 22  1  0
  3 30  1  0
  4 31  1  0
  4 32  1  0
  8 33  1  0
  8 34  1  0
  9 35  1  0
  9 36  1  0
 10 37  1  0
 10 38  1  0
 11 39  1  0
 11 40  1  0
 12 41  1  6
 14 42  1  0
 15 43  1  0
 16 44  1  0
 17 45  1  0
 20 46  1  0
 21 47  1  0
 23 48  1  0
 26 49  1  0
 27 50  1  0
M  END
>  <smiles>  (99) 
O=C(NCC(=O)N1CCCCC1c1ccccn1)c1ccc2cc(F)ccc2n1

>  <score_type>  (99) 
oracle

>  <origin>  (99) 
autodockgpu

>  <m_score__min__energy>  (99) 
-8.8900000000000006

>  <m_primary>  (99) 
energy

>  <rmsd>  (99) 
4.355794649551946

>  <m_score__min__rmsd>  (99) 
4.355794649551946

>  <meeko>  (99) 
{"free_energy": -8.5, "intermolecular_energy": -9.99, "internal_energy": -1.76, "cluster_size": 10, "cluster_id": 2, "rank_in_cluster": 8}

>  <energy>  (99) 
-6.94

>  <cluster_rmsd>  (99) 
0.46

>  <cluster>  (99) 
4

$$$$

     RDKit          3D

 50 53  0  0  0  0  0  0  0  0999 V2000
  141.0950   72.1000  221.3770 O   0  0  0  0  0  0  0  0  0  0  0  0
  140.3150   72.3790  222.3460 C   0  0  0  0  0  0  0  0  0  0  0  0
  139.5380   73.5770  222.2910 N   0  0  0  0  0  0  0  0  0  0  0  0
  139.6050   74.4840  221.1750 C   0  0  0  0  0  0  0  0  0  0  0  0
  139.5320   75.9030  221.6110 C   0  0  0  0  0  0  0  0  0  0  0  0
  138.9180   76.1600  222.6830 O   0  0  0  0  0  0  0  0  0  0  0  0
  140.1180   76.9740  220.8810 N   0  0  0  0  0  0  0  0  0  0  0  0
  139.3630   77.5580  219.7990 C   0  0  0  0  0  0  0  0  0  0  0  0
  140.2430   78.0270  218.6670 C   0  0  0  0  0  0  0  0  0  0  0  0
  141.5120   78.6860  219.2000 C   0  0  0  0  0  0  0  0  0  0  0  0
  142.2320   77.6330  220.0070 C   0  0  0  0  0  0  0  0  0  0  0  0
  141.4390   77.4060  221.2710 C   0  0  1  0  0  0  0  0  0  0  0  0
  141.4330   78.5970  222.1400 C   0  0  0  0  0  0  0  0  0  0  0  0
  142.5780   79.3610  222.3640 C   0  0  0  0  0  0  0  0  0  0  0  0
  142.5530   80.4830  223.1800 C   0  0  0  0  0  0  0  0  0  0  0  0
  141.3900   80.8710  223.7940 C   0  0  0  0  0  0  0  0  0  0  0  0
  140.2660   80.1050  223.5630 C   0  0  0  0  0  0  0  0  0  0  0  0
  140.3210   79.0220  222.7650 N   0  0  0  0  0  0  0  0  0  0  0  0
  140.2060   71.5060  223.4960 C   0  0  0  0  0  0  0  0  0  0  0  0
  139.6130   70.2700  223.3550 C   0  0  0  0  0  0  0  0  0  0  0  0
  139.4990   69.4250  224.4380 C   0  0  0  0  0  0  0  0  0  0  0  0
  139.9860   69.8290  225.6700 C   0  0  0  0  0  0  0  0  0  0  0  0
  139.8970   69.0290  226.7690 C   0  0  0  0  0  0  0  0  0  0  0  0
  140.3920   69.4740  227.9640 C   0  0  0  0  0  0  0  0  0  0  0  0
  140.2940   68.6540  229.0600 F   0  0  0  0  0  0  0  0  0  0  0  0
  140.9820   70.7220  228.0710 C   0  0  0  0  0  0  0  0  0  0  0  0
  141.0810   71.5460  226.9690 C   0  0  0  0  0  0  0  0  0  0  0  0
  140.5720   71.0690  225.7800 C   0  0  0  0  0  0  0  0  0  0  0  0
  140.6770   71.8910  224.7070 N   0  0  0  0  0  0  0  0  0  0  0  0
  138.8990   73.8150  223.0750 H   0  0  0  0  0  0  0  0  0  0  0  0
  140.5541   74.3236  220.6425 H   0  0  0  0  0  0  0  0  0  0  0  0
  138.7447   74.2833  220.5196 H   0  0  0  0  0  0  0  0  0  0  0  0
  138.6616   76.8045  219.4115 H   0  0  0  0  0  0  0  0  0  0  0  0
  138.8341   78.4366  220.1969 H   0  0  0  0  0  0  0  0  0  0  0  0
  140.5200   77.1633  218.0447 H   0  0  0  0  0  0  0  0  0  0  0  0
  139.6863   78.7665  218.0726 H   0  0  0  0  0  0  0  0  0  0  0  0
  142.1442   79.0244  218.3658 H   0  0  0  0  0  0  0  0  0  0  0  0
  141.2759   79.5673  219.8145 H   0  0  0  0  0  0  0  0  0  0  0  0
  142.2962   76.6979  219.4313 H   0  0  0  0  0  0  0  0  0  0  0  0
  143.2544   77.9611  220.2458 H   0  0  0  0  0  0  0  0  0  0  0  0
  141.9067   76.6234  221.8865 H   0  0  0  0  0  0  0  0  0  0  0  0
  143.5226   79.0674  221.8828 H   0  0  0  0  0  0  0  0  0  0  0  0
  143.4730   81.0656  223.3355 H   0  0  0  0  0  0  0  0  0  0  0  0
  141.3546   81.7573  224.4446 H   0  0  0  0  0  0  0  0  0  0  0  0
  139.3129   80.3826  224.0368 H   0  0  0  0  0  0  0  0  0  0  0  0
  139.2287   69.9562  222.3732 H   0  0  0  0  0  0  0  0  0  0  0  0
  139.0255   68.4386  224.3248 H   0  0  0  0  0  0  0  0  0  0  0  0
  139.4317   68.0349  226.6962 H   0  0  0  0  0  0  0  0  0  0  0  0
  141.3746   71.0589  229.0417 H   0  0  0  0  0  0  0  0  0  0  0  0
  141.5460   72.5406  227.0362 H   0  0  0  0  0  0  0  0  0  0  0  0
  1  2  2  0
  2  3  1  0
  3  4  1  0
  4  5  1  0
  5  6  2  0
  5  7  1  0
  7  8  1  0
  8  9  1  0
  9 10  1  0
 10 11  1  0
 11 12  1  0
 12 13  1  0
 13 14  2  0
 14 15  1  0
 15 16  2  0
 16 17  1  0
 17 18  2  0
  2 19  1  0
 19 20  2  0
 20 21  1  0
 21 22  2  0
 22 23  1  0
 23 24  2  0
 24 25  1  0
 24 26  1  0
 26 27  2  0
 27 28  1  0
 28 29  2  0
 12  7  1  0
 18 13  1  0
 29 19  1  0
 28 22  1  0
  3 30  1  0
  4 31  1  0
  4 32  1  0
  8 33  1  0
  8 34  1  0
  9 35  1  0
  9 36  1  0
 10 37  1  0
 10 38  1  0
 11 39  1  0
 11 40  1  0
 12 41  1  1
 14 42  1  0
 15 43  1  0
 16 44  1  0
 17 45  1  0
 20 46  1  0
 21 47  1  0
 23 48  1  0
 26 49  1  0
 27 50  1  0
M  END
>  <smiles>  (100) 
O=C(NCC(=O)N1CCCCC1c1ccccn1)c1ccc2cc(F)ccc2n1

>  <score_type>  (100) 
oracle

>  <origin>  (100) 
autodockgpu

>  <m_score__min__energy>  (100) 
-8.8900000000000006

>  <m_primary>  (100) 
energy

>  <rmsd>  (100) 
2.203056819819775

>  <m_score__min__rmsd>  (100) 
2.203056819819775

>  <meeko>  (100) 
{"free_energy": -8.68, "intermolecular_energy": -10.17, "internal_energy": -1.75, "cluster_size": 27, "cluster_id": 1, "rank_in_cluster": 5}

>  <energy>  (100) 
-6.92

>  <cluster_rmsd>  (100) 
1.01

>  <cluster>  (100) 
4

$$$$
