
     RDKit          3D

 56 59  0  0  0  0  0  0  0  0999 V2000
  141.3820   67.8460  226.7180 C   0  0  0  0  0  0  0  0  0  0  0  0
  139.7570   68.5090  226.4550 S   0  0  0  0  0  0  0  0  0  0  0  0
  139.2400   68.9780  227.7890 O   0  0  0  0  0  0  0  0  0  0  0  0
  138.8420   67.3910  225.9980 O   0  0  0  0  0  0  0  0  0  0  0  0
  139.7710   69.7850  225.2610 C   0  0  0  0  0  0  0  0  0  0  0  0
  138.7160   69.8930  224.3870 C   0  0  0  0  0  0  0  0  0  0  0  0
  138.6850   70.8810  223.4320 C   0  0  0  0  0  0  0  0  0  0  0  0
  139.7120   71.8210  223.2980 C   0  0  0  0  0  0  0  0  0  0  0  0
  139.6560   72.8580  222.2770 C   0  0  0  0  0  0  0  0  0  0  0  0
  140.6310   73.1460  221.4490 C   0  0  0  0  0  0  0  0  0  0  0  0
  140.9760   74.5390  221.1890 C   0  0  0  0  0  0  0  0  0  0  0  0
  140.4320   75.4950  221.9830 N   0  0  0  0  0  0  0  0  0  0  0  0
  140.6610   76.7940  221.8620 C   0  0  0  0  0  0  0  0  0  0  0  0
  140.0600   77.6910  222.7220 C   0  0  0  0  0  0  0  0  0  0  0  0
  140.3050   79.0590  222.5860 C   0  0  0  0  0  0  0  0  0  0  0  0
  141.1650   79.4680  221.5680 C   0  0  0  0  0  0  0  0  0  0  0  0
  141.3770   80.8070  221.4700 F   0  0  0  0  0  0  0  0  0  0  0  0
  141.7640   78.5570  220.7100 C   0  0  0  0  0  0  0  0  0  0  0  0
  141.5110   77.2100  220.8570 C   0  0  0  0  0  0  0  0  0  0  0  0
  142.0640   76.2390  220.0480 C   0  0  0  0  0  0  0  0  0  0  0  0
  142.8420   76.6700  219.1330 O   0  0  0  0  0  0  0  0  0  0  0  0
  141.8090   74.9200  220.2020 N   0  0  0  0  0  0  0  0  0  0  0  0
  142.4110   73.9310  219.3490 C   0  0  0  0  0  0  0  0  0  0  0  0
  143.8890   74.1030  219.1280 C   0  0  0  0  0  0  0  0  0  0  0  0
  144.5100   74.2610  220.5030 C   0  0  0  0  0  0  0  0  0  0  0  0
  145.9180   73.7060  220.5380 C   0  0  0  0  0  0  0  0  0  0  0  0
  146.0020   72.2740  220.1180 C   0  0  0  0  0  0  0  0  0  0  0  0
  144.8160   71.8430  219.2670 C   0  0  0  0  0  0  0  0  0  0  0  0
  144.5390   73.0180  218.3390 C   0  0  0  0  0  0  0  0  0  0  0  0
  140.7560   71.6860  224.1880 C   0  0  0  0  0  0  0  0  0  0  0  0
  140.7950   70.6970  225.1530 C   0  0  0  0  0  0  0  0  0  0  0  0
  141.5754   67.7671  227.7980 H   0  0  0  0  0  0  0  0  0  0  0  0
  141.4496   66.8484  226.2595 H   0  0  0  0  0  0  0  0  0  0  0  0
  142.1282   68.5116  226.2595 H   0  0  0  0  0  0  0  0  0  0  0  0
  137.8832   69.1774  224.4527 H   0  0  0  0  0  0  0  0  0  0  0  0
  137.8235   70.9342  222.7501 H   0  0  0  0  0  0  0  0  0  0  0  0
  138.7278   73.4424  222.1944 H   0  0  0  0  0  0  0  0  0  0  0  0
  141.1878   72.3384  220.9513 H   0  0  0  0  0  0  0  0  0  0  0  0
  139.3884   77.3284  223.5141 H   0  0  0  0  0  0  0  0  0  0  0  0
  139.8347   79.7900  223.2602 H   0  0  0  0  0  0  0  0  0  0  0  0
  142.4385   78.9084  219.9153 H   0  0  0  0  0  0  0  0  0  0  0  0
  142.2456   72.9423  219.8019 H   0  0  0  0  0  0  0  0  0  0  0  0
  141.9358   74.0422  218.3632 H   0  0  0  0  0  0  0  0  0  0  0  0
  144.0538   74.9898  218.4983 H   0  0  0  0  0  0  0  0  0  0  0  0
  144.5396   75.3296  220.7621 H   0  0  0  0  0  0  0  0  0  0  0  0
  143.8984   73.7018  221.2264 H   0  0  0  0  0  0  0  0  0  0  0  0
  146.5459   74.3051  219.8620 H   0  0  0  0  0  0  0  0  0  0  0  0
  146.2623   73.7592  221.5814 H   0  0  0  0  0  0  0  0  0  0  0  0
  146.9240   72.1313  219.5353 H   0  0  0  0  0  0  0  0  0  0  0  0
  145.9989   71.6587  221.0298 H   0  0  0  0  0  0  0  0  0  0  0  0
  145.0658   70.9433  218.6855 H   0  0  0  0  0  0  0  0  0  0  0  0
  143.9397   71.5911  219.8824 H   0  0  0  0  0  0  0  0  0  0  0  0
  145.4845   73.3848  217.9129 H   0  0  0  0  0  0  0  0  0  0  0  0
  143.8780   72.7017  217.5186 H   0  0  0  0  0  0  0  0  0  0  0  0
  141.5941   72.3958  224.1277 H   0  0  0  0  0  0  0  0  0  0  0  0
  141.6520   70.6389  225.8402 H   0  0  0  0  0  0  0  0  0  0  0  0
  1  2  1  0
  2  3  2  0
  2  4  2  0
  2  5  1  0
  5  6  2  0
  6  7  1  0
  7  8  2  0
  8  9  1  0
  9 10  2  0
 10 11  1  0
 11 12  2  0
 12 13  1  0
 13 14  2  0
 14 15  1  0
 15 16  2  0
 16 17  1  0
 16 18  1  0
 18 19  2  0
 19 20  1  0
 20 21  2  0
 20 22  1  0
 22 23  1  0
 23 24  1  0
 24 25  1  0
 25 26  1  0
 26 27  1  0
 27 28  1  0
 28 29  1  0
  8 30  1  0
 30 31  2  0
 31  5  1  0
 22 11  1  0
 29 24  1  0
 19 13  1  0
  1 32  1  0
  1 33  1  0
  1 34  1  0
  6 35  1  0
  7 36  1  0
  9 37  1  0
 10 38  1  0
 14 39  1  0
 15 40  1  0
 18 41  1  0
 23 42  1  0
 23 43  1  0
 24 44  1  0
 25 45  1  0
 25 46  1  0
 26 47  1  0
 26 48  1  0
 27 49  1  0
 27 50  1  0
 28 51  1  0
 28 52  1  0
 29 53  1  0
 29 54  1  0
 30 55  1  0
 31 56  1  0
M  END
>  <smiles>  (1) 
CS(=O)(=O)c1ccc(/C=C/c2nc3ccc(F)cc3c(=O)n2CC2CCCCC2)cc1

>  <score_type>  (1) 
oracle

>  <origin>  (1) 
autodockgpu

>  <m_score__min__energy>  (1) 
-9.1400000000000006

>  <m_primary>  (1) 
energy

>  <rmsd>  (1) 
5.303236822007514

>  <m_score__min__rmsd>  (1) 
5.303236822007514

>  <meeko>  (1) 
{"free_energy": -8.93, "intermolecular_energy": -10.72, "internal_energy": -1.22, "cluster_size": 16, "cluster_id": 1, "rank_in_cluster": 2}

>  <energy>  (1) 
-9.14

>  <cluster_rmsd>  (1) 
0.0

>  <cluster>  (1) 
1

$$$$

     RDKit          3D

 56 59  0  0  0  0  0  0  0  0999 V2000
  131.6020   73.4030  225.7450 C   0  0  0  0  0  0  0  0  0  0  0  0
  133.1810   73.7630  226.4700 S   0  0  0  0  0  0  0  0  0  0  0  0
  133.6290   72.5310  227.2100 O   0  0  0  0  0  0  0  0  0  0  0  0
  133.0040   74.8570  227.5040 O   0  0  0  0  0  0  0  0  0  0  0  0
  134.3380   74.2730  225.2650 C   0  0  0  0  0  0  0  0  0  0  0  0
  134.6660   75.6050  225.1760 C   0  0  0  0  0  0  0  0  0  0  0  0
  135.5730   76.0500  224.2430 C   0  0  0  0  0  0  0  0  0  0  0  0
  136.2040   75.1840  223.3430 C   0  0  0  0  0  0  0  0  0  0  0  0
  137.1600   75.6830  222.3630 C   0  0  0  0  0  0  0  0  0  0  0  0
  138.2360   76.3730  222.6530 C   0  0  0  0  0  0  0  0  0  0  0  0
  139.5010   76.0540  222.0010 C   0  0  0  0  0  0  0  0  0  0  0  0
  139.9230   74.7650  222.0130 N   0  0  0  0  0  0  0  0  0  0  0  0
  141.0480   74.3350  221.4590 C   0  0  0  0  0  0  0  0  0  0  0  0
  141.3900   73.0000  221.5230 C   0  0  0  0  0  0  0  0  0  0  0  0
  142.5780   72.5560  220.9380 C   0  0  0  0  0  0  0  0  0  0  0  0
  143.3810   73.4990  220.3000 C   0  0  0  0  0  0  0  0  0  0  0  0
  144.5280   73.0260  219.7430 F   0  0  0  0  0  0  0  0  0  0  0  0
  143.0260   74.8390  220.2420 C   0  0  0  0  0  0  0  0  0  0  0  0
  141.8500   75.2610  220.8250 C   0  0  0  0  0  0  0  0  0  0  0  0
  141.4230   76.5730  220.8130 C   0  0  0  0  0  0  0  0  0  0  0  0
  142.1970   77.3930  220.2160 O   0  0  0  0  0  0  0  0  0  0  0  0
  140.2670   76.9760  221.3880 N   0  0  0  0  0  0  0  0  0  0  0  0
  139.8440   78.3500  221.3480 C   0  0  0  0  0  0  0  0  0  0  0  0
  140.1590   79.1440  222.5860 C   0  0  0  0  0  0  0  0  0  0  0  0
  141.3620   78.4780  223.2250 C   0  0  0  0  0  0  0  0  0  0  0  0
  142.2240   79.4840  223.9580 C   0  0  0  0  0  0  0  0  0  0  0  0
  142.6840   80.6130  223.0940 C   0  0  0  0  0  0  0  0  0  0  0  0
  141.8020   80.8080  221.8680 C   0  0  0  0  0  0  0  0  0  0  0  0
  140.3770   80.6020  222.3620 C   0  0  0  0  0  0  0  0  0  0  0  0
  135.8530   73.8570  223.4570 C   0  0  0  0  0  0  0  0  0  0  0  0
  134.9440   73.3990  224.3920 C   0  0  0  0  0  0  0  0  0  0  0  0
  130.8626   73.2344  226.5417 H   0  0  0  0  0  0  0  0  0  0  0  0
  131.2826   74.2514  225.1219 H   0  0  0  0  0  0  0  0  0  0  0  0
  131.6819   72.5000  225.1219 H   0  0  0  0  0  0  0  0  0  0  0  0
  134.1959   76.3257  225.8613 H   0  0  0  0  0  0  0  0  0  0  0  0
  135.8106   77.1233  224.2028 H   0  0  0  0  0  0  0  0  0  0  0  0
  136.9645   75.4647  221.3028 H   0  0  0  0  0  0  0  0  0  0  0  0
  138.1850   77.1910  223.3866 H   0  0  0  0  0  0  0  0  0  0  0  0
  140.7277   72.2859  222.0343 H   0  0  0  0  0  0  0  0  0  0  0  0
  142.8701   71.4963  220.9796 H   0  0  0  0  0  0  0  0  0  0  0  0
  143.6803   75.5619  219.7328 H   0  0  0  0  0  0  0  0  0  0  0  0
  140.3398   78.8358  220.4947 H   0  0  0  0  0  0  0  0  0  0  0  0
  138.7475   78.3337  221.2617 H   0  0  0  0  0  0  0  0  0  0  0  0
  139.2815   79.1312  223.2492 H   0  0  0  0  0  0  0  0  0  0  0  0
  141.0131   77.7176  223.9392 H   0  0  0  0  0  0  0  0  0  0  0  0
  141.9666   78.0174  222.4298 H   0  0  0  0  0  0  0  0  0  0  0  0
  141.6412   79.8994  224.7934 H   0  0  0  0  0  0  0  0  0  0  0  0
  143.1229   78.9515  224.3021 H   0  0  0  0  0  0  0  0  0  0  0  0
  142.6719   81.5389  223.6878 H   0  0  0  0  0  0  0  0  0  0  0  0
  143.6974   80.3713  222.7408 H   0  0  0  0  0  0  0  0  0  0  0  0
  141.9261   81.8226  221.4614 H   0  0  0  0  0  0  0  0  0  0  0  0
  142.0615   80.1077  221.0603 H   0  0  0  0  0  0  0  0  0  0  0  0
  140.2288   81.1484  223.3051 H   0  0  0  0  0  0  0  0  0  0  0  0
  139.6618   80.9794  221.6163 H   0  0  0  0  0  0  0  0  0  0  0  0
  136.3164   73.1299  222.7740 H   0  0  0  0  0  0  0  0  0  0  0  0
  134.7030   72.3267  224.4386 H   0  0  0  0  0  0  0  0  0  0  0  0
  1  2  1  0
  2  3  2  0
  2  4  2  0
  2  5  1  0
  5  6  2  0
  6  7  1  0
  7  8  2  0
  8  9  1  0
  9 10  2  0
 10 11  1  0
 11 12  2  0
 12 13  1  0
 13 14  2  0
 14 15  1  0
 15 16  2  0
 16 17  1  0
 16 18  1  0
 18 19  2  0
 19 20  1  0
 20 21  2  0
 20 22  1  0
 22 23  1  0
 23 24  1  0
 24 25  1  0
 25 26  1  0
 26 27  1  0
 27 28  1  0
 28 29  1  0
  8 30  1  0
 30 31  2  0
 31  5  1  0
 22 11  1  0
 29 24  1  0
 19 13  1  0
  1 32  1  0
  1 33  1  0
  1 34  1  0
  6 35  1  0
  7 36  1  0
  9 37  1  0
 10 38  1  0
 14 39  1  0
 15 40  1  0
 18 41  1  0
 23 42  1  0
 23 43  1  0
 24 44  1  0
 25 45  1  0
 25 46  1  0
 26 47  1  0
 26 48  1  0
 27 49  1  0
 27 50  1  0
 28 51  1  0
 28 52  1  0
 29 53  1  0
 29 54  1  0
 30 55  1  0
 31 56  1  0
M  END
>  <smiles>  (2) 
CS(=O)(=O)c1ccc(/C=C/c2nc3ccc(F)cc3c(=O)n2CC2CCCCC2)cc1

>  <score_type>  (2) 
oracle

>  <origin>  (2) 
autodockgpu

>  <m_score__min__energy>  (2) 
-9.1400000000000006

>  <m_primary>  (2) 
energy

>  <rmsd>  (2) 
7.1751109479982675

>  <m_score__min__rmsd>  (2) 
7.1751109479982675

>  <meeko>  (2) 
{"free_energy": -8.41, "intermolecular_energy": -10.2, "internal_energy": -1.34, "cluster_size": 8, "cluster_id": 3, "rank_in_cluster": 3}

>  <energy>  (2) 
-8.93

>  <cluster_rmsd>  (2) 
0.65

>  <cluster>  (2) 
1

$$$$

     RDKit          3D

 56 59  0  0  0  0  0  0  0  0999 V2000
  141.0440   68.2020  227.5630 C   0  0  0  0  0  0  0  0  0  0  0  0
  140.4280   69.8660  227.6320 S   0  0  0  0  0  0  0  0  0  0  0  0
  141.4420   70.6930  228.3750 O   0  0  0  0  0  0  0  0  0  0  0  0
  139.1580   69.8810  228.4580 O   0  0  0  0  0  0  0  0  0  0  0  0
  140.0990   70.4930  226.0340 C   0  0  0  0  0  0  0  0  0  0  0  0
  138.9910   70.0460  225.3570 C   0  0  0  0  0  0  0  0  0  0  0  0
  138.6940   70.5130  224.0980 C   0  0  0  0  0  0  0  0  0  0  0  0
  139.4920   71.4580  223.4450 C   0  0  0  0  0  0  0  0  0  0  0  0
  139.1560   71.9360  222.1110 C   0  0  0  0  0  0  0  0  0  0  0  0
  139.3350   73.1650  221.6890 C   0  0  0  0  0  0  0  0  0  0  0  0
  140.6600   73.5990  221.2600 C   0  0  0  0  0  0  0  0  0  0  0  0
  141.6430   72.6690  221.1690 N   0  0  0  0  0  0  0  0  0  0  0  0
  142.8870   72.9230  220.7910 C   0  0  0  0  0  0  0  0  0  0  0  0
  143.8180   71.9060  220.7280 C   0  0  0  0  0  0  0  0  0  0  0  0
  145.1280   72.1830  220.3300 C   0  0  0  0  0  0  0  0  0  0  0  0
  145.4440   73.5010  220.0050 C   0  0  0  0  0  0  0  0  0  0  0  0
  146.7290   73.7280  219.6220 F   0  0  0  0  0  0  0  0  0  0  0  0
  144.5000   74.5150  220.0720 C   0  0  0  0  0  0  0  0  0  0  0  0
  143.2120   74.2250  220.4670 C   0  0  0  0  0  0  0  0  0  0  0  0
  142.2130   75.1720  220.5610 C   0  0  0  0  0  0  0  0  0  0  0  0
  142.5590   76.3610  220.2530 O   0  0  0  0  0  0  0  0  0  0  0  0
  140.9520   74.8770  220.9500 N   0  0  0  0  0  0  0  0  0  0  0  0
  139.9300   75.8850  221.0260 C   0  0  0  0  0  0  0  0  0  0  0  0
  139.8410   76.5950  222.3490 C   0  0  0  0  0  0  0  0  0  0  0  0
  141.0380   77.5220  222.4180 C   0  0  0  0  0  0  0  0  0  0  0  0
  140.7270   78.7640  223.2270 C   0  0  0  0  0  0  0  0  0  0  0  0
  139.5430   79.5210  222.7190 C   0  0  0  0  0  0  0  0  0  0  0  0
  138.6120   78.6570  221.8800 C   0  0  0  0  0  0  0  0  0  0  0  0
  138.5580   77.3140  222.5950 C   0  0  0  0  0  0  0  0  0  0  0  0
  140.5960   71.8870  224.1510 C   0  0  0  0  0  0  0  0  0  0  0  0
  140.9030   71.4240  225.4170 C   0  0  0  0  0  0  0  0  0  0  0  0
  141.1852   67.8206  228.5851 H   0  0  0  0  0  0  0  0  0  0  0  0
  140.3219   67.5655  227.0306 H   0  0  0  0  0  0  0  0  0  0  0  0
  142.0065   68.1891  227.0306 H   0  0  0  0  0  0  0  0  0  0  0  0
  138.3310   69.3032  225.8288 H   0  0  0  0  0  0  0  0  0  0  0  0
  137.7982   70.1302  223.5871 H   0  0  0  0  0  0  0  0  0  0  0  0
  138.7201   71.2133  221.4055 H   0  0  0  0  0  0  0  0  0  0  0  0
  138.4883   73.8665  221.6587 H   0  0  0  0  0  0  0  0  0  0  0  0
  143.5285   70.8779  220.9911 H   0  0  0  0  0  0  0  0  0  0  0  0
  145.8853   71.3871  220.2749 H   0  0  0  0  0  0  0  0  0  0  0  0
  144.7784   75.5467  219.8109 H   0  0  0  0  0  0  0  0  0  0  0  0
  140.1314   76.6358  220.2477 H   0  0  0  0  0  0  0  0  0  0  0  0
  138.9708   75.3642  220.8891 H   0  0  0  0  0  0  0  0  0  0  0  0
  139.8548   75.8462  223.1547 H   0  0  0  0  0  0  0  0  0  0  0  0
  141.8773   76.9889  222.8885 H   0  0  0  0  0  0  0  0  0  0  0  0
  141.2973   77.8306  221.3945 H   0  0  0  0  0  0  0  0  0  0  0  0
  140.5288   78.4628  224.2663 H   0  0  0  0  0  0  0  0  0  0  0  0
  141.5981   79.4309  223.1468 H   0  0  0  0  0  0  0  0  0  0  0  0
  138.9802   79.9133  223.5789 H   0  0  0  0  0  0  0  0  0  0  0  0
  139.9165   80.3309  222.0751 H   0  0  0  0  0  0  0  0  0  0  0  0
  137.6096   79.1072  221.8294 H   0  0  0  0  0  0  0  0  0  0  0  0
  138.9681   78.5563  220.8441 H   0  0  0  0  0  0  0  0  0  0  0  0
  138.4234   77.4738  223.6750 H   0  0  0  0  0  0  0  0  0  0  0  0
  137.7139   76.7190  222.2161 H   0  0  0  0  0  0  0  0  0  0  0  0
  141.2613   72.6299  223.6868 H   0  0  0  0  0  0  0  0  0  0  0  0
  141.7965   71.8026  225.9350 H   0  0  0  0  0  0  0  0  0  0  0  0
  1  2  1  0
  2  3  2  0
  2  4  2  0
  2  5  1  0
  5  6  2  0
  6  7  1  0
  7  8  2  0
  8  9  1  0
  9 10  2  0
 10 11  1  0
 11 12  2  0
 12 13  1  0
 13 14  2  0
 14 15  1  0
 15 16  2  0
 16 17  1  0
 16 18  1  0
 18 19  2  0
 19 20  1  0
 20 21  2  0
 20 22  1  0
 22 23  1  0
 23 24  1  0
 24 25  1  0
 25 26  1  0
 26 27  1  0
 27 28  1  0
 28 29  1  0
  8 30  1  0
 30 31  2  0
 31  5  1  0
 22 11  1  0
 29 24  1  0
 19 13  1  0
  1 32  1  0
  1 33  1  0
  1 34  1  0
  6 35  1  0
  7 36  1  0
  9 37  1  0
 10 38  1  0
 14 39  1  0
 15 40  1  0
 18 41  1  0
 23 42  1  0
 23 43  1  0
 24 44  1  0
 25 45  1  0
 25 46  1  0
 26 47  1  0
 26 48  1  0
 27 49  1  0
 27 50  1  0
 28 51  1  0
 28 52  1  0
 29 53  1  0
 29 54  1  0
 30 55  1  0
 31 56  1  0
M  END
>  <smiles>  (3) 
CS(=O)(=O)c1ccc(/C=C/c2nc3ccc(F)cc3c(=O)n2CC2CCCCC2)cc1

>  <score_type>  (3) 
oracle

>  <origin>  (3) 
autodockgpu

>  <m_score__min__energy>  (3) 
-9.1400000000000006

>  <m_primary>  (3) 
energy

>  <rmsd>  (3) 
7.41506449990714

>  <m_score__min__rmsd>  (3) 
7.41506449990714

>  <meeko>  (3) 
{"free_energy": -8.56, "intermolecular_energy": -10.35, "internal_energy": -1.45, "cluster_size": 9, "cluster_id": 2, "rank_in_cluster": 3}

>  <energy>  (3) 
-8.9

>  <cluster_rmsd>  (3) 
0.46

>  <cluster>  (3) 
1

$$$$

     RDKit          3D

 56 59  0  0  0  0  0  0  0  0999 V2000
  132.3700   76.3420  227.3310 C   0  0  0  0  0  0  0  0  0  0  0  0
  132.7200   74.9040  226.3530 S   0  0  0  0  0  0  0  0  0  0  0  0
  131.4450   74.5090  225.6570 O   0  0  0  0  0  0  0  0  0  0  0  0
  133.0870   73.7620  227.2790 O   0  0  0  0  0  0  0  0  0  0  0  0
  134.0280   75.1950  225.2300 C   0  0  0  0  0  0  0  0  0  0  0  0
  134.7690   74.1290  224.7790 C   0  0  0  0  0  0  0  0  0  0  0  0
  135.8060   74.3130  223.8950 C   0  0  0  0  0  0  0  0  0  0  0  0
  136.1600   75.5770  223.4120 C   0  0  0  0  0  0  0  0  0  0  0  0
  137.2650   75.7430  222.4770 C   0  0  0  0  0  0  0  0  0  0  0  0
  138.3620   76.4150  222.7280 C   0  0  0  0  0  0  0  0  0  0  0  0
  139.5940   76.0840  222.0210 C   0  0  0  0  0  0  0  0  0  0  0  0
  140.0130   74.7930  222.0280 N   0  0  0  0  0  0  0  0  0  0  0  0
  141.1080   74.3540  221.4270 C   0  0  0  0  0  0  0  0  0  0  0  0
  141.4500   73.0180  221.4900 C   0  0  0  0  0  0  0  0  0  0  0  0
  142.6070   72.5630  220.8540 C   0  0  0  0  0  0  0  0  0  0  0  0
  143.3820   73.4960  220.1680 C   0  0  0  0  0  0  0  0  0  0  0  0
  144.5000   73.0130  219.5640 F   0  0  0  0  0  0  0  0  0  0  0  0
  143.0290   74.8370  220.1120 C   0  0  0  0  0  0  0  0  0  0  0  0
  141.8840   75.2690  220.7450 C   0  0  0  0  0  0  0  0  0  0  0  0
  141.4600   76.5830  220.7380 C   0  0  0  0  0  0  0  0  0  0  0  0
  142.2080   77.3930  220.0970 O   0  0  0  0  0  0  0  0  0  0  0  0
  140.3340   76.9960  221.3630 N   0  0  0  0  0  0  0  0  0  0  0  0
  139.9130   78.3710  221.3270 C   0  0  0  0  0  0  0  0  0  0  0  0
  140.1750   79.1440  222.5910 C   0  0  0  0  0  0  0  0  0  0  0  0
  141.4470   78.5710  223.1850 C   0  0  0  0  0  0  0  0  0  0  0  0
  142.2230   79.6270  223.9450 C   0  0  0  0  0  0  0  0  0  0  0  0
  142.5590   80.8270  223.1190 C   0  0  0  0  0  0  0  0  0  0  0  0
  141.6400   80.9830  221.9150 C   0  0  0  0  0  0  0  0  0  0  0  0
  140.2500   80.6230  222.4210 C   0  0  0  0  0  0  0  0  0  0  0  0
  135.3990   76.6240  223.8840 C   0  0  0  0  0  0  0  0  0  0  0  0
  134.3530   76.4500  224.7720 C   0  0  0  0  0  0  0  0  0  0  0  0
  132.4329   76.0837  228.3984 H   0  0  0  0  0  0  0  0  0  0  0  0
  133.1027   77.1294  227.1005 H   0  0  0  0  0  0  0  0  0  0  0  0
  131.3574   76.7046  227.1005 H   0  0  0  0  0  0  0  0  0  0  0  0
  134.5292   73.1145  225.1301 H   0  0  0  0  0  0  0  0  0  0  0  0
  136.3768   73.4359  223.5560 H   0  0  0  0  0  0  0  0  0  0  0  0
  137.1718   75.2698  221.4883 H   0  0  0  0  0  0  0  0  0  0  0  0
  138.3535   77.2268  223.4702 H   0  0  0  0  0  0  0  0  0  0  0  0
  140.8113   72.3120  222.0411 H   0  0  0  0  0  0  0  0  0  0  0  0
  142.8971   71.5027  220.8933 H   0  0  0  0  0  0  0  0  0  0  0  0
  143.6607   75.5520  219.5645 H   0  0  0  0  0  0  0  0  0  0  0  0
  140.4450   78.8704  220.5039 H   0  0  0  0  0  0  0  0  0  0  0  0
  138.8213   78.3574  221.1928 H   0  0  0  0  0  0  0  0  0  0  0  0
  139.3156   79.0231  223.2669 H   0  0  0  0  0  0  0  0  0  0  0  0
  141.1849   77.7540  223.8733 H   0  0  0  0  0  0  0  0  0  0  0  0
  142.0777   78.2001  222.3637 H   0  0  0  0  0  0  0  0  0  0  0  0
  141.6183   79.9533  224.8040 H   0  0  0  0  0  0  0  0  0  0  0  0
  143.1742   79.1701  224.2555 H   0  0  0  0  0  0  0  0  0  0  0  0
  142.4706   81.7246  223.7487 H   0  0  0  0  0  0  0  0  0  0  0  0
  143.5841   80.6964  222.7419 H   0  0  0  0  0  0  0  0  0  0  0  0
  141.6596   82.0195  221.5471 H   0  0  0  0  0  0  0  0  0  0  0  0
  141.9500   80.3417  221.0767 H   0  0  0  0  0  0  0  0  0  0  0  0
  140.0676   81.1169  223.3868 H   0  0  0  0  0  0  0  0  0  0  0  0
  139.4891   80.9579  221.7007 H   0  0  0  0  0  0  0  0  0  0  0  0
  135.6334   77.6421  223.5398 H   0  0  0  0  0  0  0  0  0  0  0  0
  133.7768   77.3222  225.1144 H   0  0  0  0  0  0  0  0  0  0  0  0
  1  2  1  0
  2  3  2  0
  2  4  2  0
  2  5  1  0
  5  6  2  0
  6  7  1  0
  7  8  2  0
  8  9  1  0
  9 10  2  0
 10 11  1  0
 11 12  2  0
 12 13  1  0
 13 14  2  0
 14 15  1  0
 15 16  2  0
 16 17  1  0
 16 18  1  0
 18 19  2  0
 19 20  1  0
 20 21  2  0
 20 22  1  0
 22 23  1  0
 23 24  1  0
 24 25  1  0
 25 26  1  0
 26 27  1  0
 27 28  1  0
 28 29  1  0
  8 30  1  0
 30 31  2  0
 31  5  1  0
 22 11  1  0
 29 24  1  0
 19 13  1  0
  1 32  1  0
  1 33  1  0
  1 34  1  0
  6 35  1  0
  7 36  1  0
  9 37  1  0
 10 38  1  0
 14 39  1  0
 15 40  1  0
 18 41  1  0
 23 42  1  0
 23 43  1  0
 24 44  1  0
 25 45  1  0
 25 46  1  0
 26 47  1  0
 26 48  1  0
 27 49  1  0
 27 50  1  0
 28 51  1  0
 28 52  1  0
 29 53  1  0
 29 54  1  0
 30 55  1  0
 31 56  1  0
M  END
>  <smiles>  (4) 
CS(=O)(=O)c1ccc(/C=C/c2nc3ccc(F)cc3c(=O)n2CC2CCCCC2)cc1

>  <score_type>  (4) 
oracle

>  <origin>  (4) 
autodockgpu

>  <m_score__min__energy>  (4) 
-9.1400000000000006

>  <m_primary>  (4) 
energy

>  <rmsd>  (4) 
7.198443691974096

>  <m_score__min__rmsd>  (4) 
7.198443691974096

>  <meeko>  (4) 
{"free_energy": -8.07, "intermolecular_energy": -9.86, "internal_energy": -1.32, "cluster_size": 8, "cluster_id": 3, "rank_in_cluster": 8}

>  <energy>  (4) 
-8.84

>  <cluster_rmsd>  (4) 
0.51

>  <cluster>  (4) 
1

$$$$

     RDKit          3D

 56 59  0  0  0  0  0  0  0  0999 V2000
  139.7400   69.3610  227.8280 C   0  0  0  0  0  0  0  0  0  0  0  0
  140.0460   68.6830  226.2170 S   0  0  0  0  0  0  0  0  0  0  0  0
  139.2620   67.4030  226.1090 O   0  0  0  0  0  0  0  0  0  0  0  0
  141.5120   68.3110  226.1150 O   0  0  0  0  0  0  0  0  0  0  0  0
  139.6390   69.8210  224.9540 C   0  0  0  0  0  0  0  0  0  0  0  0
  140.3940   70.9600  224.8140 C   0  0  0  0  0  0  0  0  0  0  0  0
  140.1080   71.8820  223.8340 C   0  0  0  0  0  0  0  0  0  0  0  0
  139.0490   71.7140  222.9370 C   0  0  0  0  0  0  0  0  0  0  0  0
  138.7680   72.7060  221.9080 C   0  0  0  0  0  0  0  0  0  0  0  0
  139.2300   73.9330  221.9080 C   0  0  0  0  0  0  0  0  0  0  0  0
  140.5470   74.2130  221.3490 C   0  0  0  0  0  0  0  0  0  0  0  0
  141.4870   73.2360  221.3980 N   0  0  0  0  0  0  0  0  0  0  0  0
  142.7210   73.3530  220.9280 C   0  0  0  0  0  0  0  0  0  0  0  0
  143.6060   72.2990  221.0250 C   0  0  0  0  0  0  0  0  0  0  0  0
  144.9040   72.4310  220.5280 C   0  0  0  0  0  0  0  0  0  0  0  0
  145.2570   73.6460  219.9420 C   0  0  0  0  0  0  0  0  0  0  0  0
  146.5290   73.7340  219.4710 F   0  0  0  0  0  0  0  0  0  0  0  0
  144.3570   74.6990  219.8510 C   0  0  0  0  0  0  0  0  0  0  0  0
  143.0800   74.5520  220.3470 C   0  0  0  0  0  0  0  0  0  0  0  0
  142.1250   75.5470  220.2970 C   0  0  0  0  0  0  0  0  0  0  0  0
  142.5020   76.6380  219.7520 O   0  0  0  0  0  0  0  0  0  0  0  0
  140.8740   75.3930  220.7870 N   0  0  0  0  0  0  0  0  0  0  0  0
  139.8980   76.4460  220.7090 C   0  0  0  0  0  0  0  0  0  0  0  0
  139.8590   77.3600  221.9030 C   0  0  0  0  0  0  0  0  0  0  0  0
  141.0880   77.0340  222.7300 C   0  0  0  0  0  0  0  0  0  0  0  0
  141.5930   78.2560  223.4680 C   0  0  0  0  0  0  0  0  0  0  0  0
  141.8930   79.4110  222.5690 C   0  0  0  0  0  0  0  0  0  0  0  0
  141.1580   79.3230  221.2380 C   0  0  0  0  0  0  0  0  0  0  0  0
  139.7660   78.8130  221.5810 C   0  0  0  0  0  0  0  0  0  0  0  0
  138.3110   70.5620  223.1040 C   0  0  0  0  0  0  0  0  0  0  0  0
  138.5900   69.6290  224.0850 C   0  0  0  0  0  0  0  0  0  0  0  0
  140.0641   68.6429  228.5956 H   0  0  0  0  0  0  0  0  0  0  0  0
  140.3017   70.2997  227.9435 H   0  0  0  0  0  0  0  0  0  0  0  0
  138.6645   69.5607  227.9435 H   0  0  0  0  0  0  0  0  0  0  0  0
  141.2393   71.1373  225.4952 H   0  0  0  0  0  0  0  0  0  0  0  0
  140.7343   72.7827  223.7534 H   0  0  0  0  0  0  0  0  0  0  0  0
  138.1217   72.4039  221.0707 H   0  0  0  0  0  0  0  0  0  0  0  0
  138.6251   74.7496  222.3290 H   0  0  0  0  0  0  0  0  0  0  0  0
  143.2892   71.3555  221.4935 H   0  0  0  0  0  0  0  0  0  0  0  0
  145.6250   71.6031  220.5965 H   0  0  0  0  0  0  0  0  0  0  0  0
  144.6622   75.6473  219.3846 H   0  0  0  0  0  0  0  0  0  0  0  0
  140.1210   77.0540  219.8198 H   0  0  0  0  0  0  0  0  0  0  0  0
  138.9151   75.9543  220.6634 H   0  0  0  0  0  0  0  0  0  0  0  0
  138.9289   77.1775  222.4613 H   0  0  0  0  0  0  0  0  0  0  0  0
  140.8312   76.2539  223.4618 H   0  0  0  0  0  0  0  0  0  0  0  0
  141.8808   76.6849  222.0520 H   0  0  0  0  0  0  0  0  0  0  0  0
  140.8257   78.5678  224.1919 H   0  0  0  0  0  0  0  0  0  0  0  0
  142.5363   77.9725  223.9577 H   0  0  0  0  0  0  0  0  0  0  0  0
  141.5930   80.3397  223.0765 H   0  0  0  0  0  0  0  0  0  0  0  0
  142.9720   79.3958  222.3556 H   0  0  0  0  0  0  0  0  0  0  0  0
  141.0994   80.3139  220.7640 H   0  0  0  0  0  0  0  0  0  0  0  0
  141.6740   78.6604  220.5276 H   0  0  0  0  0  0  0  0  0  0  0  0
  139.3741   79.3611  222.4504 H   0  0  0  0  0  0  0  0  0  0  0  0
  139.0882   78.9669  220.7284 H   0  0  0  0  0  0  0  0  0  0  0  0
  137.4635   70.3771  222.4275 H   0  0  0  0  0  0  0  0  0  0  0  0
  137.9682   68.7257  224.1715 H   0  0  0  0  0  0  0  0  0  0  0  0
  1  2  1  0
  2  3  2  0
  2  4  2  0
  2  5  1  0
  5  6  2  0
  6  7  1  0
  7  8  2  0
  8  9  1  0
  9 10  2  0
 10 11  1  0
 11 12  2  0
 12 13  1  0
 13 14  2  0
 14 15  1  0
 15 16  2  0
 16 17  1  0
 16 18  1  0
 18 19  2  0
 19 20  1  0
 20 21  2  0
 20 22  1  0
 22 23  1  0
 23 24  1  0
 24 25  1  0
 25 26  1  0
 26 27  1  0
 27 28  1  0
 28 29  1  0
  8 30  1  0
 30 31  2  0
 31  5  1  0
 22 11  1  0
 29 24  1  0
 19 13  1  0
  1 32  1  0
  1 33  1  0
  1 34  1  0
  6 35  1  0
  7 36  1  0
  9 37  1  0
 10 38  1  0
 14 39  1  0
 15 40  1  0
 18 41  1  0
 23 42  1  0
 23 43  1  0
 24 44  1  0
 25 45  1  0
 25 46  1  0
 26 47  1  0
 26 48  1  0
 27 49  1  0
 27 50  1  0
 28 51  1  0
 28 52  1  0
 29 53  1  0
 29 54  1  0
 30 55  1  0
 31 56  1  0
M  END
>  <smiles>  (5) 
CS(=O)(=O)c1ccc(/C=C/c2nc3ccc(F)cc3c(=O)n2CC2CCCCC2)cc1

>  <score_type>  (5) 
oracle

>  <origin>  (5) 
autodockgpu

>  <m_score__min__energy>  (5) 
-9.1400000000000006

>  <m_primary>  (5) 
energy

>  <rmsd>  (5) 
7.322073218874647

>  <m_score__min__rmsd>  (5) 
7.322073218874647

>  <meeko>  (5) 
{"free_energy": -8.4, "intermolecular_energy": -10.19, "internal_energy": -1.58, "cluster_size": 9, "cluster_id": 2, "rank_in_cluster": 5}

>  <energy>  (5) 
-8.83

>  <cluster_rmsd>  (5) 
0.74

>  <cluster>  (5) 
1

$$$$

     RDKit          3D

 56 59  0  0  0  0  0  0  0  0999 V2000
  139.5940   69.2350  227.5920 C   0  0  0  0  0  0  0  0  0  0  0  0
  140.0760   68.6960  225.9710 S   0  0  0  0  0  0  0  0  0  0  0  0
  139.4610   67.3420  225.7440 O   0  0  0  0  0  0  0  0  0  0  0  0
  141.5800   68.5060  225.9480 O   0  0  0  0  0  0  0  0  0  0  0  0
  139.6110   69.8530  224.7470 C   0  0  0  0  0  0  0  0  0  0  0  0
  140.3660   70.9880  224.5790 C   0  0  0  0  0  0  0  0  0  0  0  0
  140.0360   71.9240  223.6280 C   0  0  0  0  0  0  0  0  0  0  0  0
  138.9280   71.7750  222.7870 C   0  0  0  0  0  0  0  0  0  0  0  0
  138.6000   72.7830  221.7870 C   0  0  0  0  0  0  0  0  0  0  0  0
  139.0940   73.9970  221.7590 C   0  0  0  0  0  0  0  0  0  0  0  0
  140.4410   74.2210  221.2470 C   0  0  0  0  0  0  0  0  0  0  0  0
  141.3320   73.2000  221.3130 N   0  0  0  0  0  0  0  0  0  0  0  0
  142.5840   73.2650  220.8840 C   0  0  0  0  0  0  0  0  0  0  0  0
  143.4150   72.1690  220.9940 C   0  0  0  0  0  0  0  0  0  0  0  0
  144.7340   72.2450  220.5400 C   0  0  0  0  0  0  0  0  0  0  0  0
  145.1620   73.4490  219.9830 C   0  0  0  0  0  0  0  0  0  0  0  0
  146.4510   73.4830  219.5540 F   0  0  0  0  0  0  0  0  0  0  0  0
  144.3160   74.5450  219.8790 C   0  0  0  0  0  0  0  0  0  0  0  0
  143.0180   74.4520  220.3310 C   0  0  0  0  0  0  0  0  0  0  0  0
  142.1130   75.4920  220.2650 C   0  0  0  0  0  0  0  0  0  0  0  0
  142.5580   76.5700  219.7480 O   0  0  0  0  0  0  0  0  0  0  0  0
  140.8410   75.3910  220.7120 N   0  0  0  0  0  0  0  0  0  0  0  0
  139.9180   76.4890  220.6180 C   0  0  0  0  0  0  0  0  0  0  0  0
  139.8690   77.3780  221.8300 C   0  0  0  0  0  0  0  0  0  0  0  0
  141.0430   76.9770  222.7020 C   0  0  0  0  0  0  0  0  0  0  0  0
  141.5720   78.1560  223.4900 C   0  0  0  0  0  0  0  0  0  0  0  0
  141.9660   79.3150  222.6320 C   0  0  0  0  0  0  0  0  0  0  0  0
  141.2870   79.2910  221.2700 C   0  0  0  0  0  0  0  0  0  0  0  0
  139.8580   78.8410  221.5400 C   0  0  0  0  0  0  0  0  0  0  0  0
  138.1910   70.6270  222.9800 C   0  0  0  0  0  0  0  0  0  0  0  0
  138.5140   69.6800  223.9330 C   0  0  0  0  0  0  0  0  0  0  0  0
  140.1258   68.6403  228.3493 H   0  0  0  0  0  0  0  0  0  0  0  0
  139.8482   70.2981  227.7156 H   0  0  0  0  0  0  0  0  0  0  0  0
  138.5093   69.1006  227.7156 H   0  0  0  0  0  0  0  0  0  0  0  0
  141.2484   71.1505  225.2153 H   0  0  0  0  0  0  0  0  0  0  0  0
  140.6646   72.8208  223.5247 H   0  0  0  0  0  0  0  0  0  0  0  0
  137.8857   72.5049  220.9980 H   0  0  0  0  0  0  0  0  0  0  0  0
  138.4938   74.8448  222.1209 H   0  0  0  0  0  0  0  0  0  0  0  0
  143.0391   71.2359  221.4390 H   0  0  0  0  0  0  0  0  0  0  0  0
  145.4126   71.3829  220.6195 H   0  0  0  0  0  0  0  0  0  0  0  0
  144.6808   75.4841  219.4373 H   0  0  0  0  0  0  0  0  0  0  0  0
  140.2061   77.1050  219.7534 H   0  0  0  0  0  0  0  0  0  0  0  0
  138.9168   76.0440  220.5200 H   0  0  0  0  0  0  0  0  0  0  0  0
  138.9071   77.2272  222.3418 H   0  0  0  0  0  0  0  0  0  0  0  0
  140.7174   76.1946  223.4033 H   0  0  0  0  0  0  0  0  0  0  0  0
  141.8480   76.6060  222.0506 H   0  0  0  0  0  0  0  0  0  0  0  0
  140.7891   78.4887  224.1874 H   0  0  0  0  0  0  0  0  0  0  0  0
  142.4781   77.8165  224.0132 H   0  0  0  0  0  0  0  0  0  0  0  0
  141.6884   80.2460  223.1479 H   0  0  0  0  0  0  0  0  0  0  0  0
  143.0514   79.2526  222.4649 H   0  0  0  0  0  0  0  0  0  0  0  0
  141.2960   80.2936  220.8175 H   0  0  0  0  0  0  0  0  0  0  0  0
  141.8021   78.6194  220.5674 H   0  0  0  0  0  0  0  0  0  0  0  0
  139.4541   79.3876  222.4049 H   0  0  0  0  0  0  0  0  0  0  0  0
  139.2263   79.0466  220.6633 H   0  0  0  0  0  0  0  0  0  0  0  0
  137.3070   70.4569  222.3479 H   0  0  0  0  0  0  0  0  0  0  0  0
  137.8899   68.7808  224.0422 H   0  0  0  0  0  0  0  0  0  0  0  0
  1  2  1  0
  2  3  2  0
  2  4  2  0
  2  5  1  0
  5  6  2  0
  6  7  1  0
  7  8  2  0
  8  9  1  0
  9 10  2  0
 10 11  1  0
 11 12  2  0
 12 13  1  0
 13 14  2  0
 14 15  1  0
 15 16  2  0
 16 17  1  0
 16 18  1  0
 18 19  2  0
 19 20  1  0
 20 21  2  0
 20 22  1  0
 22 23  1  0
 23 24  1  0
 24 25  1  0
 25 26  1  0
 26 27  1  0
 27 28  1  0
 28 29  1  0
  8 30  1  0
 30 31  2  0
 31  5  1  0
 22 11  1  0
 29 24  1  0
 19 13  1  0
  1 32  1  0
  1 33  1  0
  1 34  1  0
  6 35  1  0
  7 36  1  0
  9 37  1  0
 10 38  1  0
 14 39  1  0
 15 40  1  0
 18 41  1  0
 23 42  1  0
 23 43  1  0
 24 44  1  0
 25 45  1  0
 25 46  1  0
 26 47  1  0
 26 48  1  0
 27 49  1  0
 27 50  1  0
 28 51  1  0
 28 52  1  0
 29 53  1  0
 29 54  1  0
 30 55  1  0
 31 56  1  0
M  END
>  <smiles>  (6) 
CS(=O)(=O)c1ccc(/C=C/c2nc3ccc(F)cc3c(=O)n2CC2CCCCC2)cc1

>  <score_type>  (6) 
oracle

>  <origin>  (6) 
autodockgpu

>  <m_score__min__energy>  (6) 
-9.1400000000000006

>  <m_primary>  (6) 
energy

>  <rmsd>  (6) 
7.350932871717543

>  <m_score__min__rmsd>  (6) 
7.350932871717543

>  <meeko>  (6) 
{"free_energy": -8.17, "intermolecular_energy": -9.96, "internal_energy": -1.58, "cluster_size": 9, "cluster_id": 2, "rank_in_cluster": 8}

>  <energy>  (6) 
-8.82

>  <cluster_rmsd>  (6) 
0.57

>  <cluster>  (6) 
1

$$$$

     RDKit          3D

 56 59  0  0  0  0  0  0  0  0999 V2000
  144.2940   71.5940  220.0880 C   0  0  0  0  0  0  0  0  0  0  0  0
  145.0180   73.2120  219.9980 S   0  0  0  0  0  0  0  0  0  0  0  0
  145.9650   73.2180  218.8290 O   0  0  0  0  0  0  0  0  0  0  0  0
  145.8530   73.4430  221.2420 O   0  0  0  0  0  0  0  0  0  0  0  0
  143.7950   74.4540  219.8710 C   0  0  0  0  0  0  0  0  0  0  0  0
  142.4880   74.0850  219.6620 C   0  0  0  0  0  0  0  0  0  0  0  0
  141.4940   75.0300  219.5560 C   0  0  0  0  0  0  0  0  0  0  0  0
  141.7540   76.4010  219.6540 C   0  0  0  0  0  0  0  0  0  0  0  0
  140.6820   77.3810  219.5370 C   0  0  0  0  0  0  0  0  0  0  0  0
  140.4950   78.3850  220.3590 C   0  0  0  0  0  0  0  0  0  0  0  0
  140.7830   79.7450  219.9210 C   0  0  0  0  0  0  0  0  0  0  0  0
  141.5970   79.9170  218.8480 N   0  0  0  0  0  0  0  0  0  0  0  0
  141.9400   81.0930  218.3440 C   0  0  0  0  0  0  0  0  0  0  0  0
  142.7740   81.1640  217.2470 C   0  0  0  0  0  0  0  0  0  0  0  0
  143.1320   82.4070  216.7220 C   0  0  0  0  0  0  0  0  0  0  0  0
  142.6180   83.5460  217.3390 C   0  0  0  0  0  0  0  0  0  0  0  0
  142.9900   84.7370  216.7980 F   0  0  0  0  0  0  0  0  0  0  0  0
  141.7800   83.4630  218.4420 C   0  0  0  0  0  0  0  0  0  0  0  0
  141.4370   82.2270  218.9480 C   0  0  0  0  0  0  0  0  0  0  0  0
  140.6110   82.0550  220.0400 C   0  0  0  0  0  0  0  0  0  0  0  0
  140.1710   83.1300  220.5660 O   0  0  0  0  0  0  0  0  0  0  0  0
  140.2810   80.8370  220.5280 N   0  0  0  0  0  0  0  0  0  0  0  0
  139.4070   80.6910  221.6600 C   0  0  0  0  0  0  0  0  0  0  0  0
  140.1010   80.6710  222.9950 C   0  0  0  0  0  0  0  0  0  0  0  0
  140.4450   79.2220  223.2760 C   0  0  0  0  0  0  0  0  0  0  0  0
  141.7110   79.1070  224.0990 C   0  0  0  0  0  0  0  0  0  0  0  0
  142.8890   79.7840  223.4740 C   0  0  0  0  0  0  0  0  0  0  0  0
  142.4830   80.8550  222.4710 C   0  0  0  0  0  0  0  0  0  0  0  0
  141.2910   81.5630  223.0990 C   0  0  0  0  0  0  0  0  0  0  0  0
  143.0740   76.7380  219.8630 C   0  0  0  0  0  0  0  0  0  0  0  0
  144.0800   75.7970  219.9720 C   0  0  0  0  0  0  0  0  0  0  0  0
  144.1659   71.3077  221.1423 H   0  0  0  0  0  0  0  0  0  0  0  0
  143.3139   71.6026  219.5887 H   0  0  0  0  0  0  0  0  0  0  0  0
  144.9535   70.8689  219.5887 H   0  0  0  0  0  0  0  0  0  0  0  0
  142.2328   73.0183  219.5782 H   0  0  0  0  0  0  0  0  0  0  0  0
  140.4594   74.6962  219.3884 H   0  0  0  0  0  0  0  0  0  0  0  0
  139.9788   77.2704  218.6984 H   0  0  0  0  0  0  0  0  0  0  0  0
  140.1215   78.2014  221.3772 H   0  0  0  0  0  0  0  0  0  0  0  0
  143.1567   80.2414  216.7863 H   0  0  0  0  0  0  0  0  0  0  0  0
  143.7979   82.4849  215.8500 H   0  0  0  0  0  0  0  0  0  0  0  0
  141.3911   84.3791  218.9106 H   0  0  0  0  0  0  0  0  0  0  0  0
  138.6980   81.5320  221.6555 H   0  0  0  0  0  0  0  0  0  0  0  0
  138.9192   79.7112  221.5501 H   0  0  0  0  0  0  0  0  0  0  0  0
  139.4226   81.0854  223.7553 H   0  0  0  0  0  0  0  0  0  0  0  0
  139.6150   78.7572  223.8284 H   0  0  0  0  0  0  0  0  0  0  0  0
  140.6075   78.7110  222.3155 H   0  0  0  0  0  0  0  0  0  0  0  0
  141.5293   79.5621  225.0838 H   0  0  0  0  0  0  0  0  0  0  0  0
  141.9535   78.0367  224.1741 H   0  0  0  0  0  0  0  0  0  0  0  0
  143.4880   80.2536  224.2681 H   0  0  0  0  0  0  0  0  0  0  0  0
  143.4642   79.0194  222.9313 H   0  0  0  0  0  0  0  0  0  0  0  0
  143.3091   81.5627  222.3076 H   0  0  0  0  0  0  0  0  0  0  0  0
  142.2337   80.4244  221.4900 H   0  0  0  0  0  0  0  0  0  0  0  0
  141.5023   81.7776  224.1570 H   0  0  0  0  0  0  0  0  0  0  0  0
  141.0977   82.5110  222.5757 H   0  0  0  0  0  0  0  0  0  0  0  0
  143.3382   77.8025  219.9467 H   0  0  0  0  0  0  0  0  0  0  0  0
  145.1167   76.1236  220.1408 H   0  0  0  0  0  0  0  0  0  0  0  0
  1  2  1  0
  2  3  2  0
  2  4  2  0
  2  5  1  0
  5  6  2  0
  6  7  1  0
  7  8  2  0
  8  9  1  0
  9 10  2  0
 10 11  1  0
 11 12  2  0
 12 13  1  0
 13 14  2  0
 14 15  1  0
 15 16  2  0
 16 17  1  0
 16 18  1  0
 18 19  2  0
 19 20  1  0
 20 21  2  0
 20 22  1  0
 22 23  1  0
 23 24  1  0
 24 25  1  0
 25 26  1  0
 26 27  1  0
 27 28  1  0
 28 29  1  0
  8 30  1  0
 30 31  2  0
 31  5  1  0
 22 11  1  0
 29 24  1  0
 19 13  1  0
  1 32  1  0
  1 33  1  0
  1 34  1  0
  6 35  1  0
  7 36  1  0
  9 37  1  0
 10 38  1  0
 14 39  1  0
 15 40  1  0
 18 41  1  0
 23 42  1  0
 23 43  1  0
 24 44  1  0
 25 45  1  0
 25 46  1  0
 26 47  1  0
 26 48  1  0
 27 49  1  0
 27 50  1  0
 28 51  1  0
 28 52  1  0
 29 53  1  0
 29 54  1  0
 30 55  1  0
 31 56  1  0
M  END
>  <smiles>  (7) 
CS(=O)(=O)c1ccc(/C=C/c2nc3ccc(F)cc3c(=O)n2CC2CCCCC2)cc1

>  <score_type>  (7) 
oracle

>  <origin>  (7) 
autodockgpu

>  <m_score__min__energy>  (7) 
-9.1400000000000006

>  <m_primary>  (7) 
energy

>  <rmsd>  (7) 
5.942586183884813

>  <m_score__min__rmsd>  (7) 
5.942586183884813

>  <meeko>  (7) 
{"free_energy": -7.44, "intermolecular_energy": -9.23, "internal_energy": -1.72, "cluster_size": 1, "cluster_id": 8, "rank_in_cluster": 1}

>  <energy>  (7) 
-8.8

>  <cluster_rmsd>  (7) 
0.63

>  <cluster>  (7) 
1

$$$$

     RDKit          3D

 56 59  0  0  0  0  0  0  0  0999 V2000
  143.6990   75.9730  219.6790 C   0  0  0  0  0  0  0  0  0  0  0  0
  144.0430   74.2580  219.9810 S   0  0  0  0  0  0  0  0  0  0  0  0
  145.1700   74.1920  220.9760 O   0  0  0  0  0  0  0  0  0  0  0  0
  144.5500   73.6290  218.6990 O   0  0  0  0  0  0  0  0  0  0  0  0
  142.6190   73.4060  220.5320 C   0  0  0  0  0  0  0  0  0  0  0  0
  141.5940   74.1190  221.1040 C   0  0  0  0  0  0  0  0  0  0  0  0
  140.4570   73.4900  221.5510 C   0  0  0  0  0  0  0  0  0  0  0  0
  140.2800   72.1060  221.4480 C   0  0  0  0  0  0  0  0  0  0  0  0
  139.0650   71.4640  221.9300 C   0  0  0  0  0  0  0  0  0  0  0  0
  138.5900   71.5790  223.1470 C   0  0  0  0  0  0  0  0  0  0  0  0
  139.0570   70.6830  224.1970 C   0  0  0  0  0  0  0  0  0  0  0  0
  139.7260   71.2180  225.2500 N   0  0  0  0  0  0  0  0  0  0  0  0
  140.2020   70.5220  226.2720 C   0  0  0  0  0  0  0  0  0  0  0  0
  140.8690   71.1600  227.2980 C   0  0  0  0  0  0  0  0  0  0  0  0
  141.3690   70.4200  228.3710 C   0  0  0  0  0  0  0  0  0  0  0  0
  141.1680   69.0410  228.3600 C   0  0  0  0  0  0  0  0  0  0  0  0
  141.6700   68.3560  229.4220 F   0  0  0  0  0  0  0  0  0  0  0  0
  140.4960   68.4100  227.3220 C   0  0  0  0  0  0  0  0  0  0  0  0
  140.0090   69.1560  226.2700 C   0  0  0  0  0  0  0  0  0  0  0  0
  139.3310   68.6100  225.2000 C   0  0  0  0  0  0  0  0  0  0  0  0
  139.1760   67.3440  225.2410 O   0  0  0  0  0  0  0  0  0  0  0  0
  138.8560   69.3510  224.1730 N   0  0  0  0  0  0  0  0  0  0  0  0
  138.1420   68.7530  223.0780 C   0  0  0  0  0  0  0  0  0  0  0  0
  138.9200   67.7220  222.3060 C   0  0  0  0  0  0  0  0  0  0  0  0
  137.9380   66.6200  221.9570 C   0  0  0  0  0  0  0  0  0  0  0  0
  138.3000   65.9560  220.6450 C   0  0  0  0  0  0  0  0  0  0  0  0
  138.3970   66.9130  219.5010 C   0  0  0  0  0  0  0  0  0  0  0  0
  138.6380   68.3460  219.9570 C   0  0  0  0  0  0  0  0  0  0  0  0
  139.6340   68.2400  221.1040 C   0  0  0  0  0  0  0  0  0  0  0  0
  141.3260   71.4190  220.8700 C   0  0  0  0  0  0  0  0  0  0  0  0
  142.4730   72.0430  220.4170 C   0  0  0  0  0  0  0  0  0  0  0  0
  143.5932   76.5003  220.6386 H   0  0  0  0  0  0  0  0  0  0  0  0
  144.5259   76.4174  219.1056 H   0  0  0  0  0  0  0  0  0  0  0  0
  142.7647   76.0641  219.1056 H   0  0  0  0  0  0  0  0  0  0  0  0
  141.6846   75.2105  221.2059 H   0  0  0  0  0  0  0  0  0  0  0  0
  139.6587   74.0953  222.0053 H   0  0  0  0  0  0  0  0  0  0  0  0
  138.5045   70.8366  221.2213 H   0  0  0  0  0  0  0  0  0  0  0  0
  137.8401   72.3508  223.3748 H   0  0  0  0  0  0  0  0  0  0  0  0
  141.0066   72.2510  227.2703 H   0  0  0  0  0  0  0  0  0  0  0  0
  141.9041   70.9094  229.1981 H   0  0  0  0  0  0  0  0  0  0  0  0
  140.3527   67.3195  227.3389 H   0  0  0  0  0  0  0  0  0  0  0  0
  137.2396   68.2699  223.4809 H   0  0  0  0  0  0  0  0  0  0  0  0
  137.9199   69.5665  222.3717 H   0  0  0  0  0  0  0  0  0  0  0  0
  139.7441   67.3541  222.9349 H   0  0  0  0  0  0  0  0  0  0  0  0
  137.9487   65.8642  222.7561 H   0  0  0  0  0  0  0  0  0  0  0  0
  136.9373   67.0656  221.8563 H   0  0  0  0  0  0  0  0  0  0  0  0
  139.2724   65.4558  220.7643 H   0  0  0  0  0  0  0  0  0  0  0  0
  137.4934   65.2469  220.4071 H   0  0  0  0  0  0  0  0  0  0  0  0
  139.2304   66.6044  218.8528 H   0  0  0  0  0  0  0  0  0  0  0  0
  137.4370   66.8904  218.9645 H   0  0  0  0  0  0  0  0  0  0  0  0
  139.0578   68.9462  219.1363 H   0  0  0  0  0  0  0  0  0  0  0  0
  137.7056   68.8401  220.2676 H   0  0  0  0  0  0  0  0  0  0  0  0
  140.4449   67.5498  220.8283 H   0  0  0  0  0  0  0  0  0  0  0  0
  140.0661   69.2283  221.3198 H   0  0  0  0  0  0  0  0  0  0  0  0
  141.2443   70.3271  220.7648 H   0  0  0  0  0  0  0  0  0  0  0  0
  143.2756   71.4449  219.9608 H   0  0  0  0  0  0  0  0  0  0  0  0
  1  2  1  0
  2  3  2  0
  2  4  2  0
  2  5  1  0
  5  6  2  0
  6  7  1  0
  7  8  2  0
  8  9  1  0
  9 10  2  0
 10 11  1  0
 11 12  2  0
 12 13  1  0
 13 14  2  0
 14 15  1  0
 15 16  2  0
 16 17  1  0
 16 18  1  0
 18 19  2  0
 19 20  1  0
 20 21  2  0
 20 22  1  0
 22 23  1  0
 23 24  1  0
 24 25  1  0
 25 26  1  0
 26 27  1  0
 27 28  1  0
 28 29  1  0
  8 30  1  0
 30 31  2  0
 31  5  1  0
 22 11  1  0
 29 24  1  0
 19 13  1  0
  1 32  1  0
  1 33  1  0
  1 34  1  0
  6 35  1  0
  7 36  1  0
  9 37  1  0
 10 38  1  0
 14 39  1  0
 15 40  1  0
 18 41  1  0
 23 42  1  0
 23 43  1  0
 24 44  1  0
 25 45  1  0
 25 46  1  0
 26 47  1  0
 26 48  1  0
 27 49  1  0
 27 50  1  0
 28 51  1  0
 28 52  1  0
 29 53  1  0
 29 54  1  0
 30 55  1  0
 31 56  1  0
M  END
>  <smiles>  (8) 
CS(=O)(=O)c1ccc(/C=C/c2nc3ccc(F)cc3c(=O)n2CC2CCCCC2)cc1

>  <score_type>  (8) 
oracle

>  <origin>  (8) 
autodockgpu

>  <m_score__min__energy>  (8) 
-9.1400000000000006

>  <m_primary>  (8) 
energy

>  <rmsd>  (8) 
11.682110281166636

>  <m_score__min__rmsd>  (8) 
11.682110281166636

>  <meeko>  (8) 
{"free_energy": -7.62, "intermolecular_energy": -9.41, "internal_energy": -1.6, "cluster_size": 10, "cluster_id": 4, "rank_in_cluster": 10}

>  <energy>  (8) 
-8.76

>  <cluster_rmsd>  (8) 
0.65

>  <cluster>  (8) 
1

$$$$

     RDKit          3D

 56 59  0  0  0  0  0  0  0  0999 V2000
  141.3120   68.7910  226.6010 C   0  0  0  0  0  0  0  0  0  0  0  0
  139.5970   68.9940  226.1950 S   0  0  0  0  0  0  0  0  0  0  0  0
  138.8840   69.4270  227.4470 O   0  0  0  0  0  0  0  0  0  0  0  0
  139.0250   67.6450  225.8070 O   0  0  0  0  0  0  0  0  0  0  0  0
  139.3790   70.1250  224.8800 C   0  0  0  0  0  0  0  0  0  0  0  0
  138.1040   70.4370  224.4730 C   0  0  0  0  0  0  0  0  0  0  0  0
  137.8870   71.3230  223.4430 C   0  0  0  0  0  0  0  0  0  0  0  0
  138.9370   71.9480  222.7620 C   0  0  0  0  0  0  0  0  0  0  0  0
  138.6790   72.8810  221.6740 C   0  0  0  0  0  0  0  0  0  0  0  0
  139.1260   74.1130  221.6240 C   0  0  0  0  0  0  0  0  0  0  0  0
  140.4970   74.3720  221.2010 C   0  0  0  0  0  0  0  0  0  0  0  0
  141.3940   73.3570  221.2710 N   0  0  0  0  0  0  0  0  0  0  0  0
  142.6680   73.4520  220.9180 C   0  0  0  0  0  0  0  0  0  0  0  0
  143.5040   72.3600  221.0260 C   0  0  0  0  0  0  0  0  0  0  0  0
  144.8450   72.4690  220.6530 C   0  0  0  0  0  0  0  0  0  0  0  0
  145.2900   73.7000  220.1760 C   0  0  0  0  0  0  0  0  0  0  0  0
  146.6010   73.7650  219.8230 F   0  0  0  0  0  0  0  0  0  0  0  0
  144.4390   74.7920  220.0720 C   0  0  0  0  0  0  0  0  0  0  0  0
  143.1190   74.6680  220.4450 C   0  0  0  0  0  0  0  0  0  0  0  0
  142.2070   75.7010  220.3730 C   0  0  0  0  0  0  0  0  0  0  0  0
  142.6680   76.8050  219.9310 O   0  0  0  0  0  0  0  0  0  0  0  0
  140.9130   75.5680  220.7420 N   0  0  0  0  0  0  0  0  0  0  0  0
  139.9840   76.6620  220.6440 C   0  0  0  0  0  0  0  0  0  0  0  0
  139.9520   77.5710  221.8410 C   0  0  0  0  0  0  0  0  0  0  0  0
  141.0700   77.1120  222.7570 C   0  0  0  0  0  0  0  0  0  0  0  0
  141.6460   78.2690  223.5460 C   0  0  0  0  0  0  0  0  0  0  0  0
  142.1380   79.3870  222.6850 C   0  0  0  0  0  0  0  0  0  0  0  0
  141.5040   79.3830  221.3010 C   0  0  0  0  0  0  0  0  0  0  0  0
  140.0410   79.0260  221.5300 C   0  0  0  0  0  0  0  0  0  0  0  0
  140.2020   71.6140  223.1950 C   0  0  0  0  0  0  0  0  0  0  0  0
  140.4320   70.7260  224.2290 C   0  0  0  0  0  0  0  0  0  0  0  0
  141.4308   68.7769  227.6945 H   0  0  0  0  0  0  0  0  0  0  0  0
  141.6787   67.8432  226.1801 H   0  0  0  0  0  0  0  0  0  0  0  0
  141.8899   69.6270  226.1801 H   0  0  0  0  0  0  0  0  0  0  0  0
  137.2446   69.9717  224.9780 H   0  0  0  0  0  0  0  0  0  0  0  0
  136.8523   71.5476  223.1448 H   0  0  0  0  0  0  0  0  0  0  0  0
  138.0646   72.5267  220.8331 H   0  0  0  0  0  0  0  0  0  0  0  0
  138.4676   74.9496  221.9008 H   0  0  0  0  0  0  0  0  0  0  0  0
  143.1143   71.4040  221.4057 H   0  0  0  0  0  0  0  0  0  0  0  0
  145.5282   71.6106  220.7332 H   0  0  0  0  0  0  0  0  0  0  0  0
  144.8176   75.7528  219.6931 H   0  0  0  0  0  0  0  0  0  0  0  0
  140.2558   77.2640  219.7643 H   0  0  0  0  0  0  0  0  0  0  0  0
  138.9828   76.2124  220.5697 H   0  0  0  0  0  0  0  0  0  0  0  0
  138.9670   77.4881  222.3235 H   0  0  0  0  0  0  0  0  0  0  0  0
  140.6738   76.3625  223.4579 H   0  0  0  0  0  0  0  0  0  0  0  0
  141.8709   76.6815  222.1379 H   0  0  0  0  0  0  0  0  0  0  0  0
  140.8635   78.6605  224.2126 H   0  0  0  0  0  0  0  0  0  0  0  0
  142.5119   77.8830  224.1038 H   0  0  0  0  0  0  0  0  0  0  0  0
  141.9016   80.3415  223.1780 H   0  0  0  0  0  0  0  0  0  0  0  0
  143.2223   79.2549  222.5550 H   0  0  0  0  0  0  0  0  0  0  0  0
  141.5900   80.3757  220.8350 H   0  0  0  0  0  0  0  0  0  0  0  0
  141.9991   78.6701  220.6252 H   0  0  0  0  0  0  0  0  0  0  0  0
  139.6441   79.6105  222.3731 H   0  0  0  0  0  0  0  0  0  0  0  0
  139.4518   79.2556  220.6299 H   0  0  0  0  0  0  0  0  0  0  0  0
  141.0671   72.0746  222.6956 H   0  0  0  0  0  0  0  0  0  0  0  0
  141.4641   70.4981  224.5337 H   0  0  0  0  0  0  0  0  0  0  0  0
  1  2  1  0
  2  3  2  0
  2  4  2  0
  2  5  1  0
  5  6  2  0
  6  7  1  0
  7  8  2  0
  8  9  1  0
  9 10  2  0
 10 11  1  0
 11 12  2  0
 12 13  1  0
 13 14  2  0
 14 15  1  0
 15 16  2  0
 16 17  1  0
 16 18  1  0
 18 19  2  0
 19 20  1  0
 20 21  2  0
 20 22  1  0
 22 23  1  0
 23 24  1  0
 24 25  1  0
 25 26  1  0
 26 27  1  0
 27 28  1  0
 28 29  1  0
  8 30  1  0
 30 31  2  0
 31  5  1  0
 22 11  1  0
 29 24  1  0
 19 13  1  0
  1 32  1  0
  1 33  1  0
  1 34  1  0
  6 35  1  0
  7 36  1  0
  9 37  1  0
 10 38  1  0
 14 39  1  0
 15 40  1  0
 18 41  1  0
 23 42  1  0
 23 43  1  0
 24 44  1  0
 25 45  1  0
 25 46  1  0
 26 47  1  0
 26 48  1  0
 27 49  1  0
 27 50  1  0
 28 51  1  0
 28 52  1  0
 29 53  1  0
 29 54  1  0
 30 55  1  0
 31 56  1  0
M  END
>  <smiles>  (9) 
CS(=O)(=O)c1ccc(/C=C/c2nc3ccc(F)cc3c(=O)n2CC2CCCCC2)cc1

>  <score_type>  (9) 
oracle

>  <origin>  (9) 
autodockgpu

>  <m_score__min__energy>  (9) 
-9.1400000000000006

>  <m_primary>  (9) 
energy

>  <rmsd>  (9) 
7.304135290758581

>  <m_score__min__rmsd>  (9) 
7.304135290758581

>  <meeko>  (9) 
{"free_energy": -8.13, "intermolecular_energy": -9.92, "internal_energy": -1.5, "cluster_size": 9, "cluster_id": 2, "rank_in_cluster": 9}

>  <energy>  (9) 
-8.72

>  <cluster_rmsd>  (9) 
0.77

>  <cluster>  (9) 
1

$$$$

     RDKit          3D

 56 59  0  0  0  0  0  0  0  0999 V2000
  139.9000   69.0380  228.0040 C   0  0  0  0  0  0  0  0  0  0  0  0
  140.0900   68.4460  226.3410 S   0  0  0  0  0  0  0  0  0  0  0  0
  139.2130   67.2320  226.1910 O   0  0  0  0  0  0  0  0  0  0  0  0
  141.5200   67.9820  226.1490 O   0  0  0  0  0  0  0  0  0  0  0  0
  139.7120   69.6880  225.1710 C   0  0  0  0  0  0  0  0  0  0  0  0
  140.6560   70.6440  224.8840 C   0  0  0  0  0  0  0  0  0  0  0  0
  140.4010   71.6390  223.9700 C   0  0  0  0  0  0  0  0  0  0  0  0
  139.1820   71.7330  223.2900 C   0  0  0  0  0  0  0  0  0  0  0  0
  138.9380   72.7990  222.3270 C   0  0  0  0  0  0  0  0  0  0  0  0
  139.4410   72.8430  221.1170 C   0  0  0  0  0  0  0  0  0  0  0  0
  140.7810   73.3790  220.9080 C   0  0  0  0  0  0  0  0  0  0  0  0
  141.8210   72.5090  220.8530 N   0  0  0  0  0  0  0  0  0  0  0  0
  143.0850   72.8570  220.6660 C   0  0  0  0  0  0  0  0  0  0  0  0
  144.0740   71.8940  220.6250 C   0  0  0  0  0  0  0  0  0  0  0  0
  145.4040   72.2700  220.4280 C   0  0  0  0  0  0  0  0  0  0  0  0
  145.6820   73.6270  220.2780 C   0  0  0  0  0  0  0  0  0  0  0  0
  146.9890   73.9500  220.0880 F   0  0  0  0  0  0  0  0  0  0  0  0
  144.6800   74.5850  220.3210 C   0  0  0  0  0  0  0  0  0  0  0  0
  143.3710   74.1980  220.5160 C   0  0  0  0  0  0  0  0  0  0  0  0
  142.3160   75.0850  220.5720 C   0  0  0  0  0  0  0  0  0  0  0  0
  142.6280   76.3140  220.4290 O   0  0  0  0  0  0  0  0  0  0  0  0
  141.0350   74.6940  220.7640 N   0  0  0  0  0  0  0  0  0  0  0  0
  139.9550   75.6420  220.8060 C   0  0  0  0  0  0  0  0  0  0  0  0
  139.7340   76.2880  222.1460 C   0  0  0  0  0  0  0  0  0  0  0  0
  140.6980   77.4560  222.2210 C   0  0  0  0  0  0  0  0  0  0  0  0
  140.1340   78.5830  223.0610 C   0  0  0  0  0  0  0  0  0  0  0  0
  138.8030   79.0690  222.5860 C   0  0  0  0  0  0  0  0  0  0  0  0
  138.0720   78.0360  221.7390 C   0  0  0  0  0  0  0  0  0  0  0  0
  138.3290   76.7010  222.4230 C   0  0  0  0  0  0  0  0  0  0  0  0
  138.2570   70.7610  223.6000 C   0  0  0  0  0  0  0  0  0  0  0  0
  138.5030   69.7560  224.5170 C   0  0  0  0  0  0  0  0  0  0  0  0
  140.1576   68.2353  228.7106 H   0  0  0  0  0  0  0  0  0  0  0  0
  140.5675   69.8972  228.1659 H   0  0  0  0  0  0  0  0  0  0  0  0
  138.8571   69.3483  228.1659 H   0  0  0  0  0  0  0  0  0  0  0  0
  141.6306   70.6129  225.3931 H   0  0  0  0  0  0  0  0  0  0  0  0
  141.1819   72.3865  223.7665 H   0  0  0  0  0  0  0  0  0  0  0  0
  138.2842   73.6272  222.6378 H   0  0  0  0  0  0  0  0  0  0  0  0
  138.8539   72.4767  220.2620 H   0  0  0  0  0  0  0  0  0  0  0  0
  143.8142   70.8321  220.7474 H   0  0  0  0  0  0  0  0  0  0  0  0
  146.2068   71.5189  220.3923 H   0  0  0  0  0  0  0  0  0  0  0  0
  144.9287   75.6497  220.2000 H   0  0  0  0  0  0  0  0  0  0  0  0
  140.1677   76.4356  220.0746 H   0  0  0  0  0  0  0  0  0  0  0  0
  139.0386   75.0772  220.5798 H   0  0  0  0  0  0  0  0  0  0  0  0
  139.9263   75.5452  222.9342 H   0  0  0  0  0  0  0  0  0  0  0  0
  141.6421   77.1130  222.6693 H   0  0  0  0  0  0  0  0  0  0  0  0
  140.8654   77.8336  221.2015 H   0  0  0  0  0  0  0  0  0  0  0  0
  140.0258   78.2260  224.0958 H   0  0  0  0  0  0  0  0  0  0  0  0
  140.8345   79.4276  222.9834 H   0  0  0  0  0  0  0  0  0  0  0  0
  138.1825   79.3097  223.4618 H   0  0  0  0  0  0  0  0  0  0  0  0
  138.9762   79.9544  221.9567 H   0  0  0  0  0  0  0  0  0  0  0  0
  136.9941   78.2535  221.7114 H   0  0  0  0  0  0  0  0  0  0  0  0
  138.4239   78.0372  220.6968 H   0  0  0  0  0  0  0  0  0  0  0  0
  138.1805   76.8057  223.5079 H   0  0  0  0  0  0  0  0  0  0  0  0
  137.6314   75.9417  222.0398 H   0  0  0  0  0  0  0  0  0  0  0  0
  137.2796   70.7853  223.0959 H   0  0  0  0  0  0  0  0  0  0  0  0
  137.7266   69.0051  224.7254 H   0  0  0  0  0  0  0  0  0  0  0  0
  1  2  1  0
  2  3  2  0
  2  4  2  0
  2  5  1  0
  5  6  2  0
  6  7  1  0
  7  8  2  0
  8  9  1  0
  9 10  2  0
 10 11  1  0
 11 12  2  0
 12 13  1  0
 13 14  2  0
 14 15  1  0
 15 16  2  0
 16 17  1  0
 16 18  1  0
 18 19  2  0
 19 20  1  0
 20 21  2  0
 20 22  1  0
 22 23  1  0
 23 24  1  0
 24 25  1  0
 25 26  1  0
 26 27  1  0
 27 28  1  0
 28 29  1  0
  8 30  1  0
 30 31  2  0
 31  5  1  0
 22 11  1  0
 29 24  1  0
 19 13  1  0
  1 32  1  0
  1 33  1  0
  1 34  1  0
  6 35  1  0
  7 36  1  0
  9 37  1  0
 10 38  1  0
 14 39  1  0
 15 40  1  0
 18 41  1  0
 23 42  1  0
 23 43  1  0
 24 44  1  0
 25 45  1  0
 25 46  1  0
 26 47  1  0
 26 48  1  0
 27 49  1  0
 27 50  1  0
 28 51  1  0
 28 52  1  0
 29 53  1  0
 29 54  1  0
 30 55  1  0
 31 56  1  0
M  END
>  <smiles>  (10) 
CS(=O)(=O)c1ccc(/C=C/c2nc3ccc(F)cc3c(=O)n2CC2CCCCC2)cc1

>  <score_type>  (10) 
oracle

>  <origin>  (10) 
autodockgpu

>  <m_score__min__energy>  (10) 
-9.1400000000000006

>  <m_primary>  (10) 
energy

>  <rmsd>  (10) 
7.368974934554515

>  <m_score__min__rmsd>  (10) 
7.368974934554515

>  <meeko>  (10) 
{"free_energy": -8.23, "intermolecular_energy": -10.02, "internal_energy": -1.5, "cluster_size": 9, "cluster_id": 2, "rank_in_cluster": 7}

>  <energy>  (10) 
-8.7

>  <cluster_rmsd>  (10) 
0.82

>  <cluster>  (10) 
1

$$$$

     RDKit          3D

 56 59  0  0  0  0  0  0  0  0999 V2000
  142.1370   79.2260  222.8700 C   0  0  0  0  0  0  0  0  0  0  0  0
  140.4490   78.9370  222.4050 S   0  0  0  0  0  0  0  0  0  0  0  0
  140.1950   79.6960  221.1300 O   0  0  0  0  0  0  0  0  0  0  0  0
  139.5430   79.5360  223.4610 O   0  0  0  0  0  0  0  0  0  0  0  0
  140.1130   77.2290  222.2400 C   0  0  0  0  0  0  0  0  0  0  0  0
  138.8340   76.7770  222.4570 C   0  0  0  0  0  0  0  0  0  0  0  0
  138.5250   75.4430  222.3390 C   0  0  0  0  0  0  0  0  0  0  0  0
  139.4830   74.4830  221.9940 C   0  0  0  0  0  0  0  0  0  0  0  0
  139.1290   73.0750  221.8760 C   0  0  0  0  0  0  0  0  0  0  0  0
  139.9690   72.0790  222.0170 C   0  0  0  0  0  0  0  0  0  0  0  0
  139.9100   71.2420  223.2100 C   0  0  0  0  0  0  0  0  0  0  0  0
  140.4420   71.7240  224.3610 N   0  0  0  0  0  0  0  0  0  0  0  0
  140.4550   71.0740  225.5150 C   0  0  0  0  0  0  0  0  0  0  0  0
  141.0200   71.6520  226.6340 C   0  0  0  0  0  0  0  0  0  0  0  0
  141.0310   70.9590  227.8470 C   0  0  0  0  0  0  0  0  0  0  0  0
  140.4570   69.6900  227.8760 C   0  0  0  0  0  0  0  0  0  0  0  0
  140.4870   69.0490  229.0750 F   0  0  0  0  0  0  0  0  0  0  0  0
  139.8910   69.1190  226.7440 C   0  0  0  0  0  0  0  0  0  0  0  0
  139.8890   69.8160  225.5550 C   0  0  0  0  0  0  0  0  0  0  0  0
  139.3490   69.3230  224.3850 C   0  0  0  0  0  0  0  0  0  0  0  0
  138.8390   68.1570  224.4690 O   0  0  0  0  0  0  0  0  0  0  0  0
  139.3530   70.0160  223.2240 N   0  0  0  0  0  0  0  0  0  0  0  0
  138.7700   69.4790  222.0230 C   0  0  0  0  0  0  0  0  0  0  0  0
  137.2830   69.6670  221.9050 C   0  0  0  0  0  0  0  0  0  0  0  0
  136.6450   68.5080  222.6450 C   0  0  0  0  0  0  0  0  0  0  0  0
  135.3170   68.9070  223.2540 C   0  0  0  0  0  0  0  0  0  0  0  0
  135.4130   70.0860  224.1670 C   0  0  0  0  0  0  0  0  0  0  0  0
  136.6450   70.9380  223.8950 C   0  0  0  0  0  0  0  0  0  0  0  0
  136.7750   70.9860  222.3790 C   0  0  0  0  0  0  0  0  0  0  0  0
  140.7550   74.9680  221.7840 C   0  0  0  0  0  0  0  0  0  0  0  0
  141.0760   76.3080  221.9000 C   0  0  0  0  0  0  0  0  0  0  0  0
  142.2179   79.2399  223.9669 H   0  0  0  0  0  0  0  0  0  0  0  0
  142.7713   78.4234  222.4656 H   0  0  0  0  0  0  0  0  0  0  0  0
  142.4681   80.1939  222.4656 H   0  0  0  0  0  0  0  0  0  0  0  0
  138.0452   77.4937  222.7293 H   0  0  0  0  0  0  0  0  0  0  0  0
  137.4898   75.1190  222.5219 H   0  0  0  0  0  0  0  0  0  0  0  0
  138.0803   72.8299  221.6523 H   0  0  0  0  0  0  0  0  0  0  0  0
  140.7172   71.8746  221.2370 H   0  0  0  0  0  0  0  0  0  0  0  0
  141.4613   72.6576  226.5707 H   0  0  0  0  0  0  0  0  0  0  0  0
  141.4783   71.4009  228.7496 H   0  0  0  0  0  0  0  0  0  0  0  0
  139.4460   68.1144  226.7959 H   0  0  0  0  0  0  0  0  0  0  0  0
  139.2464   69.9706  221.1620 H   0  0  0  0  0  0  0  0  0  0  0  0
  138.9432   68.3932  222.0536 H   0  0  0  0  0  0  0  0  0  0  0  0
  137.0091   69.6728  220.8397 H   0  0  0  0  0  0  0  0  0  0  0  0
  136.4813   67.6796  221.9401 H   0  0  0  0  0  0  0  0  0  0  0  0
  137.3206   68.2009  223.4570 H   0  0  0  0  0  0  0  0  0  0  0  0
  134.6197   69.1526  222.4395 H   0  0  0  0  0  0  0  0  0  0  0  0
  134.9681   68.0563  223.8578 H   0  0  0  0  0  0  0  0  0  0  0  0
  134.5168   70.7095  224.0328 H   0  0  0  0  0  0  0  0  0  0  0  0
  135.4917   69.7052  225.1960 H   0  0  0  0  0  0  0  0  0  0  0  0
  136.5103   71.9509  224.3022 H   0  0  0  0  0  0  0  0  0  0  0  0
  137.5449   70.5204  224.3703 H   0  0  0  0  0  0  0  0  0  0  0  0
  135.7920   71.1885  221.9287 H   0  0  0  0  0  0  0  0  0  0  0  0
  137.4716   71.7852  222.0859 H   0  0  0  0  0  0  0  0  0  0  0  0
  141.5502   74.2583  221.5121 H   0  0  0  0  0  0  0  0  0  0  0  0
  142.1091   76.6397  221.7190 H   0  0  0  0  0  0  0  0  0  0  0  0
  1  2  1  0
  2  3  2  0
  2  4  2  0
  2  5  1  0
  5  6  2  0
  6  7  1  0
  7  8  2  0
  8  9  1  0
  9 10  2  0
 10 11  1  0
 11 12  2  0
 12 13  1  0
 13 14  2  0
 14 15  1  0
 15 16  2  0
 16 17  1  0
 16 18  1  0
 18 19  2  0
 19 20  1  0
 20 21  2  0
 20 22  1  0
 22 23  1  0
 23 24  1  0
 24 25  1  0
 25 26  1  0
 26 27  1  0
 27 28  1  0
 28 29  1  0
  8 30  1  0
 30 31  2  0
 31  5  1  0
 22 11  1  0
 29 24  1  0
 19 13  1  0
  1 32  1  0
  1 33  1  0
  1 34  1  0
  6 35  1  0
  7 36  1  0
  9 37  1  0
 10 38  1  0
 14 39  1  0
 15 40  1  0
 18 41  1  0
 23 42  1  0
 23 43  1  0
 24 44  1  0
 25 45  1  0
 25 46  1  0
 26 47  1  0
 26 48  1  0
 27 49  1  0
 27 50  1  0
 28 51  1  0
 28 52  1  0
 29 53  1  0
 29 54  1  0
 30 55  1  0
 31 56  1  0
M  END
>  <smiles>  (11) 
CS(=O)(=O)c1ccc(/C=C/c2nc3ccc(F)cc3c(=O)n2CC2CCCCC2)cc1

>  <score_type>  (11) 
oracle

>  <origin>  (11) 
autodockgpu

>  <m_score__min__energy>  (11) 
-9.1400000000000006

>  <m_primary>  (11) 
energy

>  <rmsd>  (11) 
10.97826943764273

>  <m_score__min__rmsd>  (11) 
10.97826943764273

>  <meeko>  (11) 
{"free_energy": -7.69, "intermolecular_energy": -9.48, "internal_energy": -1.68, "cluster_size": 3, "cluster_id": 6, "rank_in_cluster": 3}

>  <energy>  (11) 
-8.64

>  <cluster_rmsd>  (11) 
0.78

>  <cluster>  (11) 
1

$$$$

     RDKit          3D

 56 59  0  0  0  0  0  0  0  0999 V2000
  131.8270   72.7790  225.7110 C   0  0  0  0  0  0  0  0  0  0  0  0
  133.3080   73.4120  226.4570 S   0  0  0  0  0  0  0  0  0  0  0  0
  133.9040   72.3060  227.2860 O   0  0  0  0  0  0  0  0  0  0  0  0
  132.9330   74.5260  227.4150 O   0  0  0  0  0  0  0  0  0  0  0  0
  134.4220   74.0180  225.2550 C   0  0  0  0  0  0  0  0  0  0  0  0
  134.7450   75.3540  225.2590 C   0  0  0  0  0  0  0  0  0  0  0  0
  135.6180   75.8730  224.3320 C   0  0  0  0  0  0  0  0  0  0  0  0
  136.2190   75.0820  223.3470 C   0  0  0  0  0  0  0  0  0  0  0  0
  137.1390   75.6580  222.3760 C   0  0  0  0  0  0  0  0  0  0  0  0
  138.2100   76.3510  222.6800 C   0  0  0  0  0  0  0  0  0  0  0  0
  139.4790   76.0500  222.0300 C   0  0  0  0  0  0  0  0  0  0  0  0
  139.9040   74.7620  222.0130 N   0  0  0  0  0  0  0  0  0  0  0  0
  141.0330   74.3480  221.4570 C   0  0  0  0  0  0  0  0  0  0  0  0
  141.3780   73.0130  221.4920 C   0  0  0  0  0  0  0  0  0  0  0  0
  142.5710   72.5850  220.9040 C   0  0  0  0  0  0  0  0  0  0  0  0
  143.3760   73.5450  220.2940 C   0  0  0  0  0  0  0  0  0  0  0  0
  144.5280   73.0880  219.7330 F   0  0  0  0  0  0  0  0  0  0  0  0
  143.0190   74.8850  220.2650 C   0  0  0  0  0  0  0  0  0  0  0  0
  141.8390   75.2910  220.8500 C   0  0  0  0  0  0  0  0  0  0  0  0
  141.4080   76.6020  220.8670 C   0  0  0  0  0  0  0  0  0  0  0  0
  142.1850   77.4370  220.2950 O   0  0  0  0  0  0  0  0  0  0  0  0
  140.2480   76.9890  221.4440 N   0  0  0  0  0  0  0  0  0  0  0  0
  139.8220   78.3620  221.4340 C   0  0  0  0  0  0  0  0  0  0  0  0
  140.1310   79.1280  222.6910 C   0  0  0  0  0  0  0  0  0  0  0  0
  141.4440   78.5780  223.2140 C   0  0  0  0  0  0  0  0  0  0  0  0
  142.2350   79.6430  223.9440 C   0  0  0  0  0  0  0  0  0  0  0  0
  142.5020   80.8570  223.1150 C   0  0  0  0  0  0  0  0  0  0  0  0
  141.5190   81.0060  221.9620 C   0  0  0  0  0  0  0  0  0  0  0  0
  140.1650   80.6100  222.5340 C   0  0  0  0  0  0  0  0  0  0  0  0
  135.8740   73.7480  223.3700 C   0  0  0  0  0  0  0  0  0  0  0  0
  134.9990   73.2160  224.2980 C   0  0  0  0  0  0  0  0  0  0  0  0
  131.1203   72.4769  226.4979 H   0  0  0  0  0  0  0  0  0  0  0  0
  131.3685   73.5598  225.0864 H   0  0  0  0  0  0  0  0  0  0  0  0
  132.0744   71.9080  225.0864 H   0  0  0  0  0  0  0  0  0  0  0  0
  134.2988   76.0174  226.0145 H   0  0  0  0  0  0  0  0  0  0  0  0
  135.8519   76.9473  224.3661 H   0  0  0  0  0  0  0  0  0  0  0  0
  136.9195   75.5002  221.3097 H   0  0  0  0  0  0  0  0  0  0  0  0
  138.1505   77.1584  223.4246 H   0  0  0  0  0  0  0  0  0  0  0  0
  140.7143   72.2857  221.9825 H   0  0  0  0  0  0  0  0  0  0  0  0
  142.8651   71.5252  220.9220 H   0  0  0  0  0  0  0  0  0  0  0  0
  143.6751   75.6208  219.7770 H   0  0  0  0  0  0  0  0  0  0  0  0
  140.3195   78.8684  220.5938 H   0  0  0  0  0  0  0  0  0  0  0  0
  138.7259   78.3452  221.3435 H   0  0  0  0  0  0  0  0  0  0  0  0
  139.3097   78.9810  223.4078 H   0  0  0  0  0  0  0  0  0  0  0  0
  141.2349   77.7493  223.9065 H   0  0  0  0  0  0  0  0  0  0  0  0
  142.0398   78.2289  222.3577 H   0  0  0  0  0  0  0  0  0  0  0  0
  141.6685   79.9478  224.8363 H   0  0  0  0  0  0  0  0  0  0  0  0
  143.2105   79.2041  224.2005 H   0  0  0  0  0  0  0  0  0  0  0  0
  142.4280   81.7462  223.7583 H   0  0  0  0  0  0  0  0  0  0  0  0
  143.5083   80.7512  222.6835 H   0  0  0  0  0  0  0  0  0  0  0  0
  141.4974   82.0467  221.6063 H   0  0  0  0  0  0  0  0  0  0  0  0
  141.7990   80.3809  221.1013 H   0  0  0  0  0  0  0  0  0  0  0  0
  140.0215   81.0899  223.5133 H   0  0  0  0  0  0  0  0  0  0  0  0
  139.3611   80.9351  221.8572 H   0  0  0  0  0  0  0  0  0  0  0  0
  136.3141   73.0776  222.6171 H   0  0  0  0  0  0  0  0  0  0  0  0
  134.7620   72.1422  224.2711 H   0  0  0  0  0  0  0  0  0  0  0  0
  1  2  1  0
  2  3  2  0
  2  4  2  0
  2  5  1  0
  5  6  2  0
  6  7  1  0
  7  8  2  0
  8  9  1  0
  9 10  2  0
 10 11  1  0
 11 12  2  0
 12 13  1  0
 13 14  2  0
 14 15  1  0
 15 16  2  0
 16 17  1  0
 16 18  1  0
 18 19  2  0
 19 20  1  0
 20 21  2  0
 20 22  1  0
 22 23  1  0
 23 24  1  0
 24 25  1  0
 25 26  1  0
 26 27  1  0
 27 28  1  0
 28 29  1  0
  8 30  1  0
 30 31  2  0
 31  5  1  0
 22 11  1  0
 29 24  1  0
 19 13  1  0
  1 32  1  0
  1 33  1  0
  1 34  1  0
  6 35  1  0
  7 36  1  0
  9 37  1  0
 10 38  1  0
 14 39  1  0
 15 40  1  0
 18 41  1  0
 23 42  1  0
 23 43  1  0
 24 44  1  0
 25 45  1  0
 25 46  1  0
 26 47  1  0
 26 48  1  0
 27 49  1  0
 27 50  1  0
 28 51  1  0
 28 52  1  0
 29 53  1  0
 29 54  1  0
 30 55  1  0
 31 56  1  0
M  END
>  <smiles>  (12) 
CS(=O)(=O)c1ccc(/C=C/c2nc3ccc(F)cc3c(=O)n2CC2CCCCC2)cc1

>  <score_type>  (12) 
oracle

>  <origin>  (12) 
autodockgpu

>  <m_score__min__energy>  (12) 
-9.1400000000000006

>  <m_primary>  (12) 
energy

>  <rmsd>  (12) 
7.191390809846217

>  <m_score__min__rmsd>  (12) 
7.191390809846217

>  <meeko>  (12) 
{"free_energy": -8.44, "intermolecular_energy": -10.23, "internal_energy": -1.32, "cluster_size": 8, "cluster_id": 3, "rank_in_cluster": 1}

>  <energy>  (12) 
-8.47

>  <cluster_rmsd>  (12) 
1.01

>  <cluster>  (12) 
1

$$$$

     RDKit          3D

 56 59  0  0  0  0  0  0  0  0999 V2000
  141.0440   68.5830  228.4010 C   0  0  0  0  0  0  0  0  0  0  0  0
  140.4370   70.2130  228.0450 S   0  0  0  0  0  0  0  0  0  0  0  0
  141.3830   71.1960  228.6820 O   0  0  0  0  0  0  0  0  0  0  0  0
  139.0940   70.3920  228.7240 O   0  0  0  0  0  0  0  0  0  0  0  0
  140.2670   70.4720  226.3250 C   0  0  0  0  0  0  0  0  0  0  0  0
  140.9970   71.4700  225.7250 C   0  0  0  0  0  0  0  0  0  0  0  0
  140.8940   71.7080  224.3750 C   0  0  0  0  0  0  0  0  0  0  0  0
  140.0530   70.9570  223.5470 C   0  0  0  0  0  0  0  0  0  0  0  0
  139.9620   71.2310  222.1190 C   0  0  0  0  0  0  0  0  0  0  0  0
  139.3200   72.2450  221.5910 C   0  0  0  0  0  0  0  0  0  0  0  0
  140.0220   73.4980  221.3400 C   0  0  0  0  0  0  0  0  0  0  0  0
  139.6380   74.6000  222.0300 N   0  0  0  0  0  0  0  0  0  0  0  0
  140.1890   75.7990  221.9030 C   0  0  0  0  0  0  0  0  0  0  0  0
  139.7260   76.8610  222.6530 C   0  0  0  0  0  0  0  0  0  0  0  0
  140.3120   78.1210  222.5120 C   0  0  0  0  0  0  0  0  0  0  0  0
  141.3600   78.2540  221.6030 C   0  0  0  0  0  0  0  0  0  0  0  0
  141.9020   79.4960  221.4960 F   0  0  0  0  0  0  0  0  0  0  0  0
  141.8160   77.1780  220.8540 C   0  0  0  0  0  0  0  0  0  0  0  0
  141.2270   75.9410  221.0050 C   0  0  0  0  0  0  0  0  0  0  0  0
  141.6190   74.8210  220.3010 C   0  0  0  0  0  0  0  0  0  0  0  0
  142.5810   75.0000  219.4830 O   0  0  0  0  0  0  0  0  0  0  0  0
  141.0340   73.6120  220.4570 N   0  0  0  0  0  0  0  0  0  0  0  0
  141.4730   72.4600  219.7170 C   0  0  0  0  0  0  0  0  0  0  0  0
  142.5840   71.6800  220.3640 C   0  0  0  0  0  0  0  0  0  0  0  0
  142.9830   70.6030  219.3740 C   0  0  0  0  0  0  0  0  0  0  0  0
  144.4530   70.2610  219.4950 C   0  0  0  0  0  0  0  0  0  0  0  0
  145.3530   71.4430  219.3290 C   0  0  0  0  0  0  0  0  0  0  0  0
  144.6420   72.7620  219.6030 C   0  0  0  0  0  0  0  0  0  0  0  0
  143.7510   72.4950  220.8080 C   0  0  0  0  0  0  0  0  0  0  0  0
  139.3350   69.9640  224.1780 C   0  0  0  0  0  0  0  0  0  0  0  0
  139.4320   69.7160  225.5350 C   0  0  0  0  0  0  0  0  0  0  0  0
  141.0968   68.4413  229.4906 H   0  0  0  0  0  0  0  0  0  0  0  0
  140.3640   67.8355  227.9665 H   0  0  0  0  0  0  0  0  0  0  0  0
  142.0473   68.4624  227.9665 H   0  0  0  0  0  0  0  0  0  0  0  0
  141.6737   72.0874  226.3340 H   0  0  0  0  0  0  0  0  0  0  0  0
  141.4932   72.5164  223.9308 H   0  0  0  0  0  0  0  0  0  0  0  0
  140.4692   70.5362  221.4334 H   0  0  0  0  0  0  0  0  0  0  0  0
  138.2537   72.1505  221.3379 H   0  0  0  0  0  0  0  0  0  0  0  0
  138.8967   76.7153  223.3608 H   0  0  0  0  0  0  0  0  0  0  0  0
  139.9577   78.9808  223.0996 H   0  0  0  0  0  0  0  0  0  0  0  0
  142.6443   77.3120  220.1426 H   0  0  0  0  0  0  0  0  0  0  0  0
  140.6122   71.7872  219.5890 H   0  0  0  0  0  0  0  0  0  0  0  0
  141.8741   72.8381  218.7651 H   0  0  0  0  0  0  0  0  0  0  0  0
  142.2149   71.2532  221.3082 H   0  0  0  0  0  0  0  0  0  0  0  0
  142.3876   69.6988  219.5690 H   0  0  0  0  0  0  0  0  0  0  0  0
  142.7970   70.9800  218.3575 H   0  0  0  0  0  0  0  0  0  0  0  0
  144.6290   69.8257  220.4897 H   0  0  0  0  0  0  0  0  0  0  0  0
  144.6902   69.5558  218.6847 H   0  0  0  0  0  0  0  0  0  0  0  0
  146.1962   71.3451  220.0285 H   0  0  0  0  0  0  0  0  0  0  0  0
  145.6940   71.4586  218.2833 H   0  0  0  0  0  0  0  0  0  0  0  0
  145.3717   73.5530  219.8310 H   0  0  0  0  0  0  0  0  0  0  0  0
  144.0631   73.1045  218.7326 H   0  0  0  0  0  0  0  0  0  0  0  0
  144.3178   71.9448  221.5735 H   0  0  0  0  0  0  0  0  0  0  0  0
  143.4040   73.4464  221.2375 H   0  0  0  0  0  0  0  0  0  0  0  0
  138.6558   69.3421  223.5764 H   0  0  0  0  0  0  0  0  0  0  0  0
  138.8371   68.9082  225.9862 H   0  0  0  0  0  0  0  0  0  0  0  0
  1  2  1  0
  2  3  2  0
  2  4  2  0
  2  5  1  0
  5  6  2  0
  6  7  1  0
  7  8  2  0
  8  9  1  0
  9 10  2  0
 10 11  1  0
 11 12  2  0
 12 13  1  0
 13 14  2  0
 14 15  1  0
 15 16  2  0
 16 17  1  0
 16 18  1  0
 18 19  2  0
 19 20  1  0
 20 21  2  0
 20 22  1  0
 22 23  1  0
 23 24  1  0
 24 25  1  0
 25 26  1  0
 26 27  1  0
 27 28  1  0
 28 29  1  0
  8 30  1  0
 30 31  2  0
 31  5  1  0
 22 11  1  0
 29 24  1  0
 19 13  1  0
  1 32  1  0
  1 33  1  0
  1 34  1  0
  6 35  1  0
  7 36  1  0
  9 37  1  0
 10 38  1  0
 14 39  1  0
 15 40  1  0
 18 41  1  0
 23 42  1  0
 23 43  1  0
 24 44  1  0
 25 45  1  0
 25 46  1  0
 26 47  1  0
 26 48  1  0
 27 49  1  0
 27 50  1  0
 28 51  1  0
 28 52  1  0
 29 53  1  0
 29 54  1  0
 30 55  1  0
 31 56  1  0
M  END
>  <smiles>  (13) 
CS(=O)(=O)c1ccc(/C=C/c2nc3ccc(F)cc3c(=O)n2CC2CCCCC2)cc1

>  <score_type>  (13) 
oracle

>  <origin>  (13) 
autodockgpu

>  <m_score__min__energy>  (13) 
-9.1400000000000006

>  <m_primary>  (13) 
energy

>  <rmsd>  (13) 
6.148678082297959

>  <m_score__min__rmsd>  (13) 
6.148678082297959

>  <meeko>  (13) 
{"free_energy": -7.88, "intermolecular_energy": -9.67, "internal_energy": -1.56, "cluster_size": 16, "cluster_id": 1, "rank_in_cluster": 15}

>  <energy>  (13) 
-8.4

>  <cluster_rmsd>  (13) 
1.44

>  <cluster>  (13) 
1

$$$$

     RDKit          3D

 56 59  0  0  0  0  0  0  0  0999 V2000
  145.7930   70.4070  218.9760 C   0  0  0  0  0  0  0  0  0  0  0  0
  145.4870   72.1270  219.2920 S   0  0  0  0  0  0  0  0  0  0  0  0
  145.5800   72.8510  217.9760 O   0  0  0  0  0  0  0  0  0  0  0  0
  146.5980   72.6660  220.1700 O   0  0  0  0  0  0  0  0  0  0  0  0
  143.9450   72.3700  220.0780 C   0  0  0  0  0  0  0  0  0  0  0  0
  143.4710   73.6500  220.2360 C   0  0  0  0  0  0  0  0  0  0  0  0
  142.2630   73.8860  220.8480 C   0  0  0  0  0  0  0  0  0  0  0  0
  141.4590   72.8520  221.3380 C   0  0  0  0  0  0  0  0  0  0  0  0
  140.1830   73.1300  221.9830 C   0  0  0  0  0  0  0  0  0  0  0  0
  139.2650   72.2310  222.2440 C   0  0  0  0  0  0  0  0  0  0  0  0
  139.4300   71.3330  223.3810 C   0  0  0  0  0  0  0  0  0  0  0  0
  140.0270   71.8150  224.5000 N   0  0  0  0  0  0  0  0  0  0  0  0
  140.2390   71.1130  225.6030 C   0  0  0  0  0  0  0  0  0  0  0  0
  140.8550   71.6950  226.6920 C   0  0  0  0  0  0  0  0  0  0  0  0
  141.0750   70.9470  227.8510 C   0  0  0  0  0  0  0  0  0  0  0  0
  140.6520   69.6190  227.8590 C   0  0  0  0  0  0  0  0  0  0  0  0
  140.8840   68.9260  229.0050 F   0  0  0  0  0  0  0  0  0  0  0  0
  140.0330   69.0450  226.7570 C   0  0  0  0  0  0  0  0  0  0  0  0
  139.8240   69.7970  225.6210 C   0  0  0  0  0  0  0  0  0  0  0  0
  139.2170   69.3040  224.4840 C   0  0  0  0  0  0  0  0  0  0  0  0
  138.8510   68.0840  224.5460 O   0  0  0  0  0  0  0  0  0  0  0  0
  139.0170   70.0510  223.3740 N   0  0  0  0  0  0  0  0  0  0  0  0
  138.3700   69.5120  222.2080 C   0  0  0  0  0  0  0  0  0  0  0  0
  136.8790   69.7070  222.1670 C   0  0  0  0  0  0  0  0  0  0  0  0
  136.2630   68.3520  222.4560 C   0  0  0  0  0  0  0  0  0  0  0  0
  134.9340   68.4920  223.1690 C   0  0  0  0  0  0  0  0  0  0  0  0
  135.0210   69.2770  224.4380 C   0  0  0  0  0  0  0  0  0  0  0  0
  136.2400   70.1890  224.4790 C   0  0  0  0  0  0  0  0  0  0  0  0
  136.3560   70.7680  223.0750 C   0  0  0  0  0  0  0  0  0  0  0  0
  141.9620   71.5800  221.1640 C   0  0  0  0  0  0  0  0  0  0  0  0
  143.1750   71.3320  220.5490 C   0  0  0  0  0  0  0  0  0  0  0  0
  145.8885   69.8700  219.9313 H   0  0  0  0  0  0  0  0  0  0  0  0
  144.9558   69.9853  218.4005 H   0  0  0  0  0  0  0  0  0  0  0  0
  146.7243   70.3000  218.4005 H   0  0  0  0  0  0  0  0  0  0  0  0
  144.0668   74.4980  219.8674 H   0  0  0  0  0  0  0  0  0  0  0  0
  141.9166   74.9244  220.9561 H   0  0  0  0  0  0  0  0  0  0  0  0
  139.9742   74.1705  222.2724 H   0  0  0  0  0  0  0  0  0  0  0  0
  138.3719   72.1543  221.6064 H   0  0  0  0  0  0  0  0  0  0  0  0
  141.1726   72.7472  226.6475 H   0  0  0  0  0  0  0  0  0  0  0  0
  141.5662   71.3917  228.7290 H   0  0  0  0  0  0  0  0  0  0  0  0
  139.7105   67.9939  226.7903 H   0  0  0  0  0  0  0  0  0  0  0  0
  138.8031   69.9976  221.3211 H   0  0  0  0  0  0  0  0  0  0  0  0
  138.5396   68.4255  222.2342 H   0  0  0  0  0  0  0  0  0  0  0  0
  136.5972   70.0822  221.1721 H   0  0  0  0  0  0  0  0  0  0  0  0
  136.1056   67.8201  221.5061 H   0  0  0  0  0  0  0  0  0  0  0  0
  136.9490   67.7908  223.1075 H   0  0  0  0  0  0  0  0  0  0  0  0
  134.2277   68.9975  222.4940 H   0  0  0  0  0  0  0  0  0  0  0  0
  134.6006   67.4784  223.4364 H   0  0  0  0  0  0  0  0  0  0  0  0
  134.1156   69.8943  224.5334 H   0  0  0  0  0  0  0  0  0  0  0  0
  135.1123   68.5607  225.2678 H   0  0  0  0  0  0  0  0  0  0  0  0
  136.0956   70.9924  225.2164 H   0  0  0  0  0  0  0  0  0  0  0  0
  137.1493   69.6452  224.7748 H   0  0  0  0  0  0  0  0  0  0  0  0
  135.3663   71.0991  222.7273 H   0  0  0  0  0  0  0  0  0  0  0  0
  137.0383   71.6308  223.0785 H   0  0  0  0  0  0  0  0  0  0  0  0
  141.3730   70.7262  221.5302 H   0  0  0  0  0  0  0  0  0  0  0  0
  143.5273   70.2962  220.4353 H   0  0  0  0  0  0  0  0  0  0  0  0
  1  2  1  0
  2  3  2  0
  2  4  2  0
  2  5  1  0
  5  6  2  0
  6  7  1  0
  7  8  2  0
  8  9  1  0
  9 10  2  0
 10 11  1  0
 11 12  2  0
 12 13  1  0
 13 14  2  0
 14 15  1  0
 15 16  2  0
 16 17  1  0
 16 18  1  0
 18 19  2  0
 19 20  1  0
 20 21  2  0
 20 22  1  0
 22 23  1  0
 23 24  1  0
 24 25  1  0
 25 26  1  0
 26 27  1  0
 27 28  1  0
 28 29  1  0
  8 30  1  0
 30 31  2  0
 31  5  1  0
 22 11  1  0
 29 24  1  0
 19 13  1  0
  1 32  1  0
  1 33  1  0
  1 34  1  0
  6 35  1  0
  7 36  1  0
  9 37  1  0
 10 38  1  0
 14 39  1  0
 15 40  1  0
 18 41  1  0
 23 42  1  0
 23 43  1  0
 24 44  1  0
 25 45  1  0
 25 46  1  0
 26 47  1  0
 26 48  1  0
 27 49  1  0
 27 50  1  0
 28 51  1  0
 28 52  1  0
 29 53  1  0
 29 54  1  0
 30 55  1  0
 31 56  1  0
M  END
>  <smiles>  (14) 
CS(=O)(=O)c1ccc(/C=C/c2nc3ccc(F)cc3c(=O)n2CC2CCCCC2)cc1

>  <score_type>  (14) 
oracle

>  <origin>  (14) 
autodockgpu

>  <m_score__min__energy>  (14) 
-9.1400000000000006

>  <m_primary>  (14) 
energy

>  <rmsd>  (14) 
11.154688668872526

>  <m_score__min__rmsd>  (14) 
11.154688668872526

>  <meeko>  (14) 
{"free_energy": -7.97, "intermolecular_energy": -9.76, "internal_energy": -1.67, "cluster_size": 10, "cluster_id": 4, "rank_in_cluster": 6}

>  <energy>  (14) 
-7.93

>  <cluster_rmsd>  (14) 
1.06

>  <cluster>  (14) 
1

$$$$

     RDKit          3D

 56 59  0  0  0  0  0  0  0  0999 V2000
  141.4270   68.2650  226.5360 C   0  0  0  0  0  0  0  0  0  0  0  0
  139.7140   68.6890  226.3450 S   0  0  0  0  0  0  0  0  0  0  0  0
  139.2120   69.1520  227.6860 O   0  0  0  0  0  0  0  0  0  0  0  0
  138.9380   67.4350  225.9940 O   0  0  0  0  0  0  0  0  0  0  0  0
  139.4870   69.8910  225.0980 C   0  0  0  0  0  0  0  0  0  0  0  0
  138.3370   69.8640  224.3460 C   0  0  0  0  0  0  0  0  0  0  0  0
  138.1180   70.7910  223.3550 C   0  0  0  0  0  0  0  0  0  0  0  0
  139.0390   71.8010  223.0600 C   0  0  0  0  0  0  0  0  0  0  0  0
  138.7820   72.7710  222.0030 C   0  0  0  0  0  0  0  0  0  0  0  0
  139.2780   73.9830  221.9640 C   0  0  0  0  0  0  0  0  0  0  0  0
  140.6150   74.2040  221.4260 C   0  0  0  0  0  0  0  0  0  0  0  0
  141.4610   73.1460  221.3500 N   0  0  0  0  0  0  0  0  0  0  0  0
  142.6990   73.2040  220.8820 C   0  0  0  0  0  0  0  0  0  0  0  0
  143.4830   72.0690  220.8440 C   0  0  0  0  0  0  0  0  0  0  0  0
  144.7870   72.1380  220.3500 C   0  0  0  0  0  0  0  0  0  0  0  0
  145.2500   73.3750  219.9060 C   0  0  0  0  0  0  0  0  0  0  0  0
  146.5240   73.4010  219.4320 F   0  0  0  0  0  0  0  0  0  0  0  0
  144.4520   74.5100  219.9490 C   0  0  0  0  0  0  0  0  0  0  0  0
  143.1670   74.4240  220.4390 C   0  0  0  0  0  0  0  0  0  0  0  0
  142.3080   75.5020  220.5170 C   0  0  0  0  0  0  0  0  0  0  0  0
  142.7840   76.6090  220.0980 O   0  0  0  0  0  0  0  0  0  0  0  0
  141.0490   75.4060  221.0010 N   0  0  0  0  0  0  0  0  0  0  0  0
  140.1740   76.5460  221.0580 C   0  0  0  0  0  0  0  0  0  0  0  0
  140.0580   77.1850  222.4140 C   0  0  0  0  0  0  0  0  0  0  0  0
  141.4210   77.7690  222.7300 C   0  0  0  0  0  0  0  0  0  0  0  0
  141.3030   79.0060  223.5960 C   0  0  0  0  0  0  0  0  0  0  0  0
  140.4360   80.0670  223.0000 C   0  0  0  0  0  0  0  0  0  0  0  0
  139.4630   79.5150  221.9670 C   0  0  0  0  0  0  0  0  0  0  0  0
  138.9690   78.1960  222.5440 C   0  0  0  0  0  0  0  0  0  0  0  0
  140.1820   71.8010  223.8310 C   0  0  0  0  0  0  0  0  0  0  0  0
  140.4120   70.8740  224.8300 C   0  0  0  0  0  0  0  0  0  0  0  0
  141.6725   68.2042  227.6065 H   0  0  0  0  0  0  0  0  0  0  0  0
  141.6192   67.2922  226.0599 H   0  0  0  0  0  0  0  0  0  0  0  0
  142.0508   69.0358  226.0599 H   0  0  0  0  0  0  0  0  0  0  0  0
  137.5807   69.0892  224.5400 H   0  0  0  0  0  0  0  0  0  0  0  0
  137.1857   70.7364  222.7737 H   0  0  0  0  0  0  0  0  0  0  0  0
  138.1234   72.4630  221.1776 H   0  0  0  0  0  0  0  0  0  0  0  0
  138.6867   74.8325  222.3365 H   0  0  0  0  0  0  0  0  0  0  0  0
  143.0806   71.1102  221.2028 H   0  0  0  0  0  0  0  0  0  0  0  0
  145.4281   71.2449  220.3125 H   0  0  0  0  0  0  0  0  0  0  0  0
  144.8439   75.4743  219.5933 H   0  0  0  0  0  0  0  0  0  0  0  0
  140.5515   77.3026  220.3544 H   0  0  0  0  0  0  0  0  0  0  0  0
  139.1694   76.1782  220.8022 H   0  0  0  0  0  0  0  0  0  0  0  0
  139.7618   76.4171  223.1438 H   0  0  0  0  0  0  0  0  0  0  0  0
  142.0192   77.0148  223.2623 H   0  0  0  0  0  0  0  0  0  0  0  0
  141.9047   78.0528  221.7837 H   0  0  0  0  0  0  0  0  0  0  0  0
  140.8774   78.7126  224.5670 H   0  0  0  0  0  0  0  0  0  0  0  0
  142.3130   79.4301  223.6959 H   0  0  0  0  0  0  0  0  0  0  0  0
  139.8604   80.5457  223.8059 H   0  0  0  0  0  0  0  0  0  0  0  0
  141.0928   80.7862  222.4887 H   0  0  0  0  0  0  0  0  0  0  0  0
  138.6229   80.2096  221.8194 H   0  0  0  0  0  0  0  0  0  0  0  0
  139.9406   79.3796  220.9854 H   0  0  0  0  0  0  0  0  0  0  0  0
  138.7107   78.3287  223.6050 H   0  0  0  0  0  0  0  0  0  0  0  0
  138.0744   77.8583  222.0003 H   0  0  0  0  0  0  0  0  0  0  0  0
  140.9437   72.5720  223.6429 H   0  0  0  0  0  0  0  0  0  0  0  0
  141.3419   70.9224  225.4156 H   0  0  0  0  0  0  0  0  0  0  0  0
  1  2  1  0
  2  3  2  0
  2  4  2  0
  2  5  1  0
  5  6  2  0
  6  7  1  0
  7  8  2  0
  8  9  1  0
  9 10  2  0
 10 11  1  0
 11 12  2  0
 12 13  1  0
 13 14  2  0
 14 15  1  0
 15 16  2  0
 16 17  1  0
 16 18  1  0
 18 19  2  0
 19 20  1  0
 20 21  2  0
 20 22  1  0
 22 23  1  0
 23 24  1  0
 24 25  1  0
 25 26  1  0
 26 27  1  0
 27 28  1  0
 28 29  1  0
  8 30  1  0
 30 31  2  0
 31  5  1  0
 22 11  1  0
 29 24  1  0
 19 13  1  0
  1 32  1  0
  1 33  1  0
  1 34  1  0
  6 35  1  0
  7 36  1  0
  9 37  1  0
 10 38  1  0
 14 39  1  0
 15 40  1  0
 18 41  1  0
 23 42  1  0
 23 43  1  0
 24 44  1  0
 25 45  1  0
 25 46  1  0
 26 47  1  0
 26 48  1  0
 27 49  1  0
 27 50  1  0
 28 51  1  0
 28 52  1  0
 29 53  1  0
 29 54  1  0
 30 55  1  0
 31 56  1  0
M  END
>  <smiles>  (15) 
CS(=O)(=O)c1ccc(/C=C/c2nc3ccc(F)cc3c(=O)n2CC2CCCCC2)cc1

>  <score_type>  (15) 
oracle

>  <origin>  (15) 
autodockgpu

>  <m_score__min__energy>  (15) 
-9.1400000000000006

>  <m_primary>  (15) 
energy

>  <rmsd>  (15) 
7.476750197659638

>  <m_score__min__rmsd>  (15) 
7.476750197659638

>  <meeko>  (15) 
{"free_energy": -8.63, "intermolecular_energy": -10.42, "internal_energy": -1.46, "cluster_size": 9, "cluster_id": 2, "rank_in_cluster": 2}

>  <energy>  (15) 
-7.88

>  <cluster_rmsd>  (15) 
1.71

>  <cluster>  (15) 
1

$$$$

     RDKit          3D

 56 59  0  0  0  0  0  0  0  0999 V2000
  140.1580   68.4440  226.8790 C   0  0  0  0  0  0  0  0  0  0  0  0
  139.2550   68.4220  225.3510 S   0  0  0  0  0  0  0  0  0  0  0  0
  137.7890   68.4310  225.6920 O   0  0  0  0  0  0  0  0  0  0  0  0
  139.5320   67.1120  224.6400 O   0  0  0  0  0  0  0  0  0  0  0  0
  139.7070   69.7590  224.3200 C   0  0  0  0  0  0  0  0  0  0  0  0
  140.3250   70.8520  224.8770 C   0  0  0  0  0  0  0  0  0  0  0  0
  140.6980   71.9250  224.1030 C   0  0  0  0  0  0  0  0  0  0  0  0
  140.4720   71.9640  222.7230 C   0  0  0  0  0  0  0  0  0  0  0  0
  140.8770   73.1150  221.9260 C   0  0  0  0  0  0  0  0  0  0  0  0
  140.0910   74.1130  221.6020 C   0  0  0  0  0  0  0  0  0  0  0  0
  140.6490   75.4490  221.4250 C   0  0  0  0  0  0  0  0  0  0  0  0
  140.4170   76.3760  222.3880 N   0  0  0  0  0  0  0  0  0  0  0  0
  140.8650   77.6220  222.3560 C   0  0  0  0  0  0  0  0  0  0  0  0
  140.5750   78.4920  223.3880 C   0  0  0  0  0  0  0  0  0  0  0  0
  141.0500   79.8050  223.3470 C   0  0  0  0  0  0  0  0  0  0  0  0
  141.8120   80.1870  222.2440 C   0  0  0  0  0  0  0  0  0  0  0  0
  142.2540   81.4730  222.2420 F   0  0  0  0  0  0  0  0  0  0  0  0
  142.0960   79.3030  221.2130 C   0  0  0  0  0  0  0  0  0  0  0  0
  141.6200   78.0110  221.2690 C   0  0  0  0  0  0  0  0  0  0  0  0
  141.8550   77.0700  220.2880 C   0  0  0  0  0  0  0  0  0  0  0  0
  142.5570   77.4740  219.3020 O   0  0  0  0  0  0  0  0  0  0  0  0
  141.3830   75.8040  220.3530 N   0  0  0  0  0  0  0  0  0  0  0  0
  141.6570   74.8430  219.3190 C   0  0  0  0  0  0  0  0  0  0  0  0
  143.1140   74.5330  219.1150 C   0  0  0  0  0  0  0  0  0  0  0  0
  143.7810   74.7080  220.4660 C   0  0  0  0  0  0  0  0  0  0  0  0
  144.9620   73.7730  220.6220 C   0  0  0  0  0  0  0  0  0  0  0  0
  144.6090   72.3340  220.4260 C   0  0  0  0  0  0  0  0  0  0  0  0
  143.3310   72.1490  219.6190 C   0  0  0  0  0  0  0  0  0  0  0  0
  143.3980   73.1970  218.5170 C   0  0  0  0  0  0  0  0  0  0  0  0
  139.8500   70.8540  222.1950 C   0  0  0  0  0  0  0  0  0  0  0  0
  139.4720   69.7690  222.9640 C   0  0  0  0  0  0  0  0  0  0  0  0
  139.4520   68.4268  227.7224 H   0  0  0  0  0  0  0  0  0  0  0  0
  140.8127   67.5615  226.9308 H   0  0  0  0  0  0  0  0  0  0  0  0
  140.7689   69.3573  226.9308 H   0  0  0  0  0  0  0  0  0  0  0  0
  140.5244   70.8689  225.9586 H   0  0  0  0  0  0  0  0  0  0  0  0
  141.1909   72.7821  224.5851 H   0  0  0  0  0  0  0  0  0  0  0  0
  141.9174   73.1488  221.5706 H   0  0  0  0  0  0  0  0  0  0  0  0
  139.0130   73.9432  221.4639 H   0  0  0  0  0  0  0  0  0  0  0  0
  139.9705   78.1516  224.2417 H   0  0  0  0  0  0  0  0  0  0  0  0
  140.8300   80.5143  224.1585 H   0  0  0  0  0  0  0  0  0  0  0  0
  142.6990   79.6323  220.3539 H   0  0  0  0  0  0  0  0  0  0  0  0
  141.1409   73.9065  219.5770 H   0  0  0  0  0  0  0  0  0  0  0  0
  141.3015   75.2903  218.3790 H   0  0  0  0  0  0  0  0  0  0  0  0
  143.5217   75.2242  218.3627 H   0  0  0  0  0  0  0  0  0  0  0  0
  144.1312   75.7464  220.5609 H   0  0  0  0  0  0  0  0  0  0  0  0
  143.0457   74.4721  221.2493 H   0  0  0  0  0  0  0  0  0  0  0  0
  145.7257   74.0490  219.8800 H   0  0  0  0  0  0  0  0  0  0  0  0
  145.3274   73.8803  221.6540 H   0  0  0  0  0  0  0  0  0  0  0  0
  145.4352   71.8376  219.8960 H   0  0  0  0  0  0  0  0  0  0  0  0
  144.4419   71.8937  221.4201 H   0  0  0  0  0  0  0  0  0  0  0  0
  143.2905   71.1380  219.1876 H   0  0  0  0  0  0  0  0  0  0  0  0
  142.4317   72.2650  220.2418 H   0  0  0  0  0  0  0  0  0  0  0  0
  144.4016   73.1980  218.0668 H   0  0  0  0  0  0  0  0  0  0  0  0
  142.6579   72.9694  217.7357 H   0  0  0  0  0  0  0  0  0  0  0  0
  139.6452   70.8299  221.1145 H   0  0  0  0  0  0  0  0  0  0  0  0
  138.9799   68.9076  222.4887 H   0  0  0  0  0  0  0  0  0  0  0  0
  1  2  1  0
  2  3  2  0
  2  4  2  0
  2  5  1  0
  5  6  2  0
  6  7  1  0
  7  8  2  0
  8  9  1  0
  9 10  2  0
 10 11  1  0
 11 12  2  0
 12 13  1  0
 13 14  2  0
 14 15  1  0
 15 16  2  0
 16 17  1  0
 16 18  1  0
 18 19  2  0
 19 20  1  0
 20 21  2  0
 20 22  1  0
 22 23  1  0
 23 24  1  0
 24 25  1  0
 25 26  1  0
 26 27  1  0
 27 28  1  0
 28 29  1  0
  8 30  1  0
 30 31  2  0
 31  5  1  0
 22 11  1  0
 29 24  1  0
 19 13  1  0
  1 32  1  0
  1 33  1  0
  1 34  1  0
  6 35  1  0
  7 36  1  0
  9 37  1  0
 10 38  1  0
 14 39  1  0
 15 40  1  0
 18 41  1  0
 23 42  1  0
 23 43  1  0
 24 44  1  0
 25 45  1  0
 25 46  1  0
 26 47  1  0
 26 48  1  0
 27 49  1  0
 27 50  1  0
 28 51  1  0
 28 52  1  0
 29 53  1  0
 29 54  1  0
 30 55  1  0
 31 56  1  0
M  END
>  <smiles>  (16) 
CS(=O)(=O)c1ccc(/C=C/c2nc3ccc(F)cc3c(=O)n2CC2CCCCC2)cc1

>  <score_type>  (16) 
oracle

>  <origin>  (16) 
autodockgpu

>  <m_score__min__energy>  (16) 
-9.1400000000000006

>  <m_primary>  (16) 
energy

>  <rmsd>  (16) 
4.618437989509757

>  <m_score__min__rmsd>  (16) 
4.618437989509757

>  <meeko>  (16) 
{"free_energy": -7.93, "intermolecular_energy": -9.72, "internal_energy": -1.6, "cluster_size": 16, "cluster_id": 1, "rank_in_cluster": 14}

>  <energy>  (16) 
-7.58

>  <cluster_rmsd>  (16) 
1.06

>  <cluster>  (16) 
1

$$$$

     RDKit          3D

 56 59  0  0  0  0  0  0  0  0999 V2000
  145.1000   71.2430  219.4040 C   0  0  0  0  0  0  0  0  0  0  0  0
  145.4610   72.9810  219.4150 S   0  0  0  0  0  0  0  0  0  0  0  0
  145.9650   73.3460  218.0440 O   0  0  0  0  0  0  0  0  0  0  0  0
  146.5990   73.2360  220.3830 O   0  0  0  0  0  0  0  0  0  0  0  0
  144.0660   73.9230  219.8840 C   0  0  0  0  0  0  0  0  0  0  0  0
  143.0170   73.2950  220.5110 C   0  0  0  0  0  0  0  0  0  0  0  0
  141.9000   73.9980  220.8980 C   0  0  0  0  0  0  0  0  0  0  0  0
  141.7710   75.3730  220.6770 C   0  0  0  0  0  0  0  0  0  0  0  0
  140.5760   76.0930  221.0960 C   0  0  0  0  0  0  0  0  0  0  0  0
  140.2190   76.2890  222.3420 C   0  0  0  0  0  0  0  0  0  0  0  0
  139.4570   77.4790  222.7020 C   0  0  0  0  0  0  0  0  0  0  0  0
  138.1230   77.4870  222.4550 N   0  0  0  0  0  0  0  0  0  0  0  0
  137.3120   78.4980  222.7320 C   0  0  0  0  0  0  0  0  0  0  0  0
  135.9650   78.4100  222.4430 C   0  0  0  0  0  0  0  0  0  0  0  0
  135.1180   79.4800  222.7370 C   0  0  0  0  0  0  0  0  0  0  0  0
  135.6790   80.6130  223.3230 C   0  0  0  0  0  0  0  0  0  0  0  0
  134.8200   81.6320  223.5940 F   0  0  0  0  0  0  0  0  0  0  0  0
  137.0350   80.6900  223.6090 C   0  0  0  0  0  0  0  0  0  0  0  0
  137.8580   79.6250  223.3120 C   0  0  0  0  0  0  0  0  0  0  0  0
  139.2150   79.6190  223.5630 C   0  0  0  0  0  0  0  0  0  0  0  0
  139.6750   80.6810  224.0980 O   0  0  0  0  0  0  0  0  0  0  0  0
  140.0130   78.5680  223.2670 N   0  0  0  0  0  0  0  0  0  0  0  0
  141.4220   78.5870  223.5520 C   0  0  0  0  0  0  0  0  0  0  0  0
  142.2730   79.2180  222.4840 C   0  0  0  0  0  0  0  0  0  0  0  0
  141.4010   79.3170  221.2470 C   0  0  0  0  0  0  0  0  0  0  0  0
  141.7790   80.5160  220.4030 C   0  0  0  0  0  0  0  0  0  0  0  0
  141.7270   81.8090  221.1510 C   0  0  0  0  0  0  0  0  0  0  0  0
  141.8330   81.6170  222.6580 C   0  0  0  0  0  0  0  0  0  0  0  0
  142.8790   80.5290  222.8520 C   0  0  0  0  0  0  0  0  0  0  0  0
  142.8390   75.9730  220.0460 C   0  0  0  0  0  0  0  0  0  0  0  0
  143.9660   75.2760  219.6540 C   0  0  0  0  0  0  0  0  0  0  0  0
  145.0241   70.8777  220.4388 H   0  0  0  0  0  0  0  0  0  0  0  0
  144.1467   71.0698  218.8832 H   0  0  0  0  0  0  0  0  0  0  0  0
  145.9055   70.7045  218.8832 H   0  0  0  0  0  0  0  0  0  0  0  0
  143.0714   72.2139  220.7064 H   0  0  0  0  0  0  0  0  0  0  0  0
  141.0806   73.4608  221.3981 H   0  0  0  0  0  0  0  0  0  0  0  0
  139.9254   76.5023  220.3091 H   0  0  0  0  0  0  0  0  0  0  0  0
  140.4940   75.5565  223.1152 H   0  0  0  0  0  0  0  0  0  0  0  0
  135.5594   77.4976  221.9815 H   0  0  0  0  0  0  0  0  0  0  0  0
  134.0421   79.4304  222.5132 H   0  0  0  0  0  0  0  0  0  0  0  0
  137.4512   81.5974  224.0709 H   0  0  0  0  0  0  0  0  0  0  0  0
  141.5746   79.1469  224.4865 H   0  0  0  0  0  0  0  0  0  0  0  0
  141.7386   77.5357  223.6194 H   0  0  0  0  0  0  0  0  0  0  0  0
  143.1567   78.5854  222.3139 H   0  0  0  0  0  0  0  0  0  0  0  0
  141.5245   78.4032  220.6473 H   0  0  0  0  0  0  0  0  0  0  0  0
  140.3551   79.4333  221.5674 H   0  0  0  0  0  0  0  0  0  0  0  0
  142.8033   80.3703  220.0294 H   0  0  0  0  0  0  0  0  0  0  0  0
  141.0443   80.5832  219.5871 H   0  0  0  0  0  0  0  0  0  0  0  0
  142.5613   82.4433  220.8169 H   0  0  0  0  0  0  0  0  0  0  0  0
  140.7536   82.2766  220.9418 H   0  0  0  0  0  0  0  0  0  0  0  0
  142.1535   82.5505  223.1437 H   0  0  0  0  0  0  0  0  0  0  0  0
  140.8666   81.3409  223.1050 H   0  0  0  0  0  0  0  0  0  0  0  0
  143.7473   80.7302  222.2074 H   0  0  0  0  0  0  0  0  0  0  0  0
  143.2115   80.5090  223.9004 H   0  0  0  0  0  0  0  0  0  0  0  0
  142.7924   77.0536  219.8457 H   0  0  0  0  0  0  0  0  0  0  0  0
  144.7896   75.8069  219.1542 H   0  0  0  0  0  0  0  0  0  0  0  0
  1  2  1  0
  2  3  2  0
  2  4  2  0
  2  5  1  0
  5  6  2  0
  6  7  1  0
  7  8  2  0
  8  9  1  0
  9 10  2  0
 10 11  1  0
 11 12  2  0
 12 13  1  0
 13 14  2  0
 14 15  1  0
 15 16  2  0
 16 17  1  0
 16 18  1  0
 18 19  2  0
 19 20  1  0
 20 21  2  0
 20 22  1  0
 22 23  1  0
 23 24  1  0
 24 25  1  0
 25 26  1  0
 26 27  1  0
 27 28  1  0
 28 29  1  0
  8 30  1  0
 30 31  2  0
 31  5  1  0
 22 11  1  0
 29 24  1  0
 19 13  1  0
  1 32  1  0
  1 33  1  0
  1 34  1  0
  6 35  1  0
  7 36  1  0
  9 37  1  0
 10 38  1  0
 14 39  1  0
 15 40  1  0
 18 41  1  0
 23 42  1  0
 23 43  1  0
 24 44  1  0
 25 45  1  0
 25 46  1  0
 26 47  1  0
 26 48  1  0
 27 49  1  0
 27 50  1  0
 28 51  1  0
 28 52  1  0
 29 53  1  0
 29 54  1  0
 30 55  1  0
 31 56  1  0
M  END
>  <smiles>  (17) 
CS(=O)(=O)c1ccc(/C=C/c2nc3ccc(F)cc3c(=O)n2CC2CCCCC2)cc1

>  <score_type>  (17) 
oracle

>  <origin>  (17) 
autodockgpu

>  <m_score__min__energy>  (17) 
-9.1400000000000006

>  <m_primary>  (17) 
energy

>  <rmsd>  (17) 
5.183427570876113

>  <m_score__min__rmsd>  (17) 
5.183427570876113

>  <meeko>  (17) 
{"free_energy": -7.86, "intermolecular_energy": -9.65, "internal_energy": -1.65, "cluster_size": 1, "cluster_id": 5, "rank_in_cluster": 1}

>  <energy>  (17) 
-8.7

>  <cluster_rmsd>  (17) 
0.0

>  <cluster>  (17) 
2

$$$$

     RDKit          3D

 56 59  0  0  0  0  0  0  0  0999 V2000
  144.9330   73.6610  217.3250 C   0  0  0  0  0  0  0  0  0  0  0  0
  145.1930   72.7800  218.8430 S   0  0  0  0  0  0  0  0  0  0  0  0
  146.3730   73.4100  219.5340 O   0  0  0  0  0  0  0  0  0  0  0  0
  145.5860   71.3530  218.5170 O   0  0  0  0  0  0  0  0  0  0  0  0
  143.7580   72.7830  219.8400 C   0  0  0  0  0  0  0  0  0  0  0  0
  143.1220   73.9750  220.0900 C   0  0  0  0  0  0  0  0  0  0  0  0
  141.9900   74.0240  220.8690 C   0  0  0  0  0  0  0  0  0  0  0  0
  141.4290   72.8780  221.4430 C   0  0  0  0  0  0  0  0  0  0  0  0
  140.2290   72.9570  222.2650 C   0  0  0  0  0  0  0  0  0  0  0  0
  139.3720   71.9800  222.4330 C   0  0  0  0  0  0  0  0  0  0  0  0
  139.5420   71.0470  223.5410 C   0  0  0  0  0  0  0  0  0  0  0  0
  140.0690   71.5150  224.7000 N   0  0  0  0  0  0  0  0  0  0  0  0
  140.2770   70.7810  225.7840 C   0  0  0  0  0  0  0  0  0  0  0  0
  140.8180   71.3500  226.9180 C   0  0  0  0  0  0  0  0  0  0  0  0
  141.0340   70.5690  228.0550 C   0  0  0  0  0  0  0  0  0  0  0  0
  140.6850   69.2210  227.9950 C   0  0  0  0  0  0  0  0  0  0  0  0
  140.9110   68.4960  229.1230 F   0  0  0  0  0  0  0  0  0  0  0  0
  140.1410   68.6600  226.8480 C   0  0  0  0  0  0  0  0  0  0  0  0
  139.9350   69.4450  225.7350 C   0  0  0  0  0  0  0  0  0  0  0  0
  139.4000   68.9670  224.5560 C   0  0  0  0  0  0  0  0  0  0  0  0
  139.1000   67.7270  224.5560 O   0  0  0  0  0  0  0  0  0  0  0  0
  139.2010   69.7460  223.4680 N   0  0  0  0  0  0  0  0  0  0  0  0
  138.6300   69.2200  222.2580 C   0  0  0  0  0  0  0  0  0  0  0  0
  139.6110   68.5500  221.3360 C   0  0  0  0  0  0  0  0  0  0  0  0
  139.1760   67.1020  221.2290 C   0  0  0  0  0  0  0  0  0  0  0  0
  139.5230   66.5210  219.8740 C   0  0  0  0  0  0  0  0  0  0  0  0
  138.9510   67.2970  218.7320 C   0  0  0  0  0  0  0  0  0  0  0  0
  138.6160   68.7330  219.1100 C   0  0  0  0  0  0  0  0  0  0  0  0
  139.7620   69.1930  220.0000 C   0  0  0  0  0  0  0  0  0  0  0  0
  142.0900   71.6990  221.1740 C   0  0  0  0  0  0  0  0  0  0  0  0
  143.2280   71.6390  220.3920 C   0  0  0  0  0  0  0  0  0  0  0  0
  144.6281   74.6941  217.5482 H   0  0  0  0  0  0  0  0  0  0  0  0
  145.8663   73.6718  216.7428 H   0  0  0  0  0  0  0  0  0  0  0  0
  144.1434   73.1634  216.7428 H   0  0  0  0  0  0  0  0  0  0  0  0
  143.5245   74.9042  219.6604 H   0  0  0  0  0  0  0  0  0  0  0  0
  141.5092   74.9972  221.0470 H   0  0  0  0  0  0  0  0  0  0  0  0
  140.0274   73.9064  222.7827 H   0  0  0  0  0  0  0  0  0  0  0  0
  138.5260   71.8638  221.7396 H   0  0  0  0  0  0  0  0  0  0  0  0
  141.0791   72.4185  226.9266 H   0  0  0  0  0  0  0  0  0  0  0  0
  141.4657   71.0036  228.9687 H   0  0  0  0  0  0  0  0  0  0  0  0
  139.8754   67.5927  226.8278 H   0  0  0  0  0  0  0  0  0  0  0  0
  137.8620   68.4826  222.5346 H   0  0  0  0  0  0  0  0  0  0  0  0
  138.2262   70.0818  221.7065 H   0  0  0  0  0  0  0  0  0  0  0  0
  140.6206   68.6444  221.7624 H   0  0  0  0  0  0  0  0  0  0  0  0
  139.6834   66.5169  222.0102 H   0  0  0  0  0  0  0  0  0  0  0  0
  138.0843   67.0575  221.3562 H   0  0  0  0  0  0  0  0  0  0  0  0
  140.6181   66.5053  219.7713 H   0  0  0  0  0  0  0  0  0  0  0  0
  139.0872   65.5119  219.8318 H   0  0  0  0  0  0  0  0  0  0  0  0
  139.6846   67.3103  217.9125 H   0  0  0  0  0  0  0  0  0  0  0  0
  138.0148   66.8047  218.4302 H   0  0  0  0  0  0  0  0  0  0  0  0
  138.5503   69.3627  218.2105 H   0  0  0  0  0  0  0  0  0  0  0  0
  137.6451   68.8060  219.6218 H   0  0  0  0  0  0  0  0  0  0  0  0
  140.7218   68.8965  219.5519 H   0  0  0  0  0  0  0  0  0  0  0  0
  139.7419   70.2879  220.1044 H   0  0  0  0  0  0  0  0  0  0  0  0
  141.6947   70.7651  221.6002 H   0  0  0  0  0  0  0  0  0  0  0  0
  143.7140   70.6692  220.2093 H   0  0  0  0  0  0  0  0  0  0  0  0
  1  2  1  0
  2  3  2  0
  2  4  2  0
  2  5  1  0
  5  6  2  0
  6  7  1  0
  7  8  2  0
  8  9  1  0
  9 10  2  0
 10 11  1  0
 11 12  2  0
 12 13  1  0
 13 14  2  0
 14 15  1  0
 15 16  2  0
 16 17  1  0
 16 18  1  0
 18 19  2  0
 19 20  1  0
 20 21  2  0
 20 22  1  0
 22 23  1  0
 23 24  1  0
 24 25  1  0
 25 26  1  0
 26 27  1  0
 27 28  1  0
 28 29  1  0
  8 30  1  0
 30 31  2  0
 31  5  1  0
 22 11  1  0
 29 24  1  0
 19 13  1  0
  1 32  1  0
  1 33  1  0
  1 34  1  0
  6 35  1  0
  7 36  1  0
  9 37  1  0
 10 38  1  0
 14 39  1  0
 15 40  1  0
 18 41  1  0
 23 42  1  0
 23 43  1  0
 24 44  1  0
 25 45  1  0
 25 46  1  0
 26 47  1  0
 26 48  1  0
 27 49  1  0
 27 50  1  0
 28 51  1  0
 28 52  1  0
 29 53  1  0
 29 54  1  0
 30 55  1  0
 31 56  1  0
M  END
>  <smiles>  (18) 
CS(=O)(=O)c1ccc(/C=C/c2nc3ccc(F)cc3c(=O)n2CC2CCCCC2)cc1

>  <score_type>  (18) 
oracle

>  <origin>  (18) 
autodockgpu

>  <m_score__min__energy>  (18) 
-9.1400000000000006

>  <m_primary>  (18) 
energy

>  <rmsd>  (18) 
11.079502023006883

>  <m_score__min__rmsd>  (18) 
11.079502023006883

>  <meeko>  (18) 
{"free_energy": -8.01, "intermolecular_energy": -9.8, "internal_energy": -1.68, "cluster_size": 10, "cluster_id": 4, "rank_in_cluster": 5}

>  <energy>  (18) 
-8.63

>  <cluster_rmsd>  (18) 
0.24

>  <cluster>  (18) 
2

$$$$

     RDKit          3D

 56 59  0  0  0  0  0  0  0  0999 V2000
  141.4390   68.1070  226.5860 C   0  0  0  0  0  0  0  0  0  0  0  0
  139.7480   68.6240  226.4430 S   0  0  0  0  0  0  0  0  0  0  0  0
  139.3220   69.1530  227.7860 O   0  0  0  0  0  0  0  0  0  0  0  0
  138.8890   67.4080  226.1580 O   0  0  0  0  0  0  0  0  0  0  0  0
  139.5430   69.8020  225.1690 C   0  0  0  0  0  0  0  0  0  0  0  0
  138.4540   69.7020  224.3370 C   0  0  0  0  0  0  0  0  0  0  0  0
  138.2540   70.6080  223.3210 C   0  0  0  0  0  0  0  0  0  0  0  0
  139.1350   71.6670  223.0820 C   0  0  0  0  0  0  0  0  0  0  0  0
  138.9000   72.6120  221.9980 C   0  0  0  0  0  0  0  0  0  0  0  0
  139.3630   73.8380  221.9620 C   0  0  0  0  0  0  0  0  0  0  0  0
  140.6860   74.0990  221.4070 C   0  0  0  0  0  0  0  0  0  0  0  0
  141.5600   73.0650  221.3150 N   0  0  0  0  0  0  0  0  0  0  0  0
  142.7900   73.1600  220.8300 C   0  0  0  0  0  0  0  0  0  0  0  0
  143.6040   72.0470  220.7770 C   0  0  0  0  0  0  0  0  0  0  0  0
  144.8990   72.1550  220.2660 C   0  0  0  0  0  0  0  0  0  0  0  0
  145.3210   73.4070  219.8210 C   0  0  0  0  0  0  0  0  0  0  0  0
  146.5880   73.4700  219.3310 F   0  0  0  0  0  0  0  0  0  0  0  0
  144.4930   74.5190  219.8800 C   0  0  0  0  0  0  0  0  0  0  0  0
  143.2170   74.3950  220.3880 C   0  0  0  0  0  0  0  0  0  0  0  0
  142.3300   75.4470  220.4820 C   0  0  0  0  0  0  0  0  0  0  0  0
  142.7690   76.5690  220.0620 O   0  0  0  0  0  0  0  0  0  0  0  0
  141.0800   75.3140  220.9820 N   0  0  0  0  0  0  0  0  0  0  0  0
  140.1750   76.4290  221.0560 C   0  0  0  0  0  0  0  0  0  0  0  0
  140.0660   77.0640  222.4150 C   0  0  0  0  0  0  0  0  0  0  0  0
  141.2860   77.9500  222.5710 C   0  0  0  0  0  0  0  0  0  0  0  0
  140.9860   79.1530  223.4410 C   0  0  0  0  0  0  0  0  0  0  0  0
  139.8380   79.9730  222.9450 C   0  0  0  0  0  0  0  0  0  0  0  0
  138.9090   79.1850  222.0310 C   0  0  0  0  0  0  0  0  0  0  0  0
  138.7970   77.8060  222.6640 C   0  0  0  0  0  0  0  0  0  0  0  0
  140.2170   71.7390  223.9320 C   0  0  0  0  0  0  0  0  0  0  0  0
  140.4270   70.8340  224.9560 C   0  0  0  0  0  0  0  0  0  0  0  0
  141.7085   68.0246  227.6493 H   0  0  0  0  0  0  0  0  0  0  0  0
  141.5659   67.1290  226.0987 H   0  0  0  0  0  0  0  0  0  0  0  0
  142.0911   68.8468  226.0987 H   0  0  0  0  0  0  0  0  0  0  0  0
  137.7316   68.8858  224.4854 H   0  0  0  0  0  0  0  0  0  0  0  0
  137.3710   70.4953  222.6748 H   0  0  0  0  0  0  0  0  0  0  0  0
  138.2898   72.2720  221.1482 H   0  0  0  0  0  0  0  0  0  0  0  0
  138.7546   74.6683  222.3498 H   0  0  0  0  0  0  0  0  0  0  0  0
  143.2332   71.0759  221.1368 H   0  0  0  0  0  0  0  0  0  0  0  0
  145.5646   71.2806  220.2162 H   0  0  0  0  0  0  0  0  0  0  0  0
  144.8530   75.4952  219.5231 H   0  0  0  0  0  0  0  0  0  0  0  0
  140.5185   77.1962  220.3464 H   0  0  0  0  0  0  0  0  0  0  0  0
  139.1765   76.0335  220.8181 H   0  0  0  0  0  0  0  0  0  0  0  0
  140.0345   76.2709  223.1765 H   0  0  0  0  0  0  0  0  0  0  0  0
  142.0956   77.3665  223.0336 H   0  0  0  0  0  0  0  0  0  0  0  0
  141.5841   78.3083  221.5746 H   0  0  0  0  0  0  0  0  0  0  0  0
  140.7494   78.7994  224.4554 H   0  0  0  0  0  0  0  0  0  0  0  0
  141.8773   79.7974  223.4227 H   0  0  0  0  0  0  0  0  0  0  0  0
  139.2609   80.3313  223.8102 H   0  0  0  0  0  0  0  0  0  0  0  0
  140.2520   80.8079  222.3606 H   0  0  0  0  0  0  0  0  0  0  0  0
  137.9212   79.6661  221.9784 H   0  0  0  0  0  0  0  0  0  0  0  0
  139.2934   79.1335  221.0016 H   0  0  0  0  0  0  0  0  0  0  0  0
  138.6334   77.9075  223.7470 H   0  0  0  0  0  0  0  0  0  0  0  0
  137.9494   77.2589  222.2255 H   0  0  0  0  0  0  0  0  0  0  0  0
  140.9450   72.5513  223.7899 H   0  0  0  0  0  0  0  0  0  0  0  0
  141.3083   70.9402  225.6056 H   0  0  0  0  0  0  0  0  0  0  0  0
  1  2  1  0
  2  3  2  0
  2  4  2  0
  2  5  1  0
  5  6  2  0
  6  7  1  0
  7  8  2  0
  8  9  1  0
  9 10  2  0
 10 11  1  0
 11 12  2  0
 12 13  1  0
 13 14  2  0
 14 15  1  0
 15 16  2  0
 16 17  1  0
 16 18  1  0
 18 19  2  0
 19 20  1  0
 20 21  2  0
 20 22  1  0
 22 23  1  0
 23 24  1  0
 24 25  1  0
 25 26  1  0
 26 27  1  0
 27 28  1  0
 28 29  1  0
  8 30  1  0
 30 31  2  0
 31  5  1  0
 22 11  1  0
 29 24  1  0
 19 13  1  0
  1 32  1  0
  1 33  1  0
  1 34  1  0
  6 35  1  0
  7 36  1  0
  9 37  1  0
 10 38  1  0
 14 39  1  0
 15 40  1  0
 18 41  1  0
 23 42  1  0
 23 43  1  0
 24 44  1  0
 25 45  1  0
 25 46  1  0
 26 47  1  0
 26 48  1  0
 27 49  1  0
 27 50  1  0
 28 51  1  0
 28 52  1  0
 29 53  1  0
 29 54  1  0
 30 55  1  0
 31 56  1  0
M  END
>  <smiles>  (19) 
CS(=O)(=O)c1ccc(/C=C/c2nc3ccc(F)cc3c(=O)n2CC2CCCCC2)cc1

>  <score_type>  (19) 
oracle

>  <origin>  (19) 
autodockgpu

>  <m_score__min__energy>  (19) 
-9.1400000000000006

>  <m_primary>  (19) 
energy

>  <rmsd>  (19) 
7.448490875297973

>  <m_score__min__rmsd>  (19) 
7.448490875297973

>  <meeko>  (19) 
{"free_energy": -8.7, "intermolecular_energy": -10.49, "internal_energy": -1.43, "cluster_size": 9, "cluster_id": 2, "rank_in_cluster": 1}

>  <energy>  (19) 
-8.56

>  <cluster_rmsd>  (19) 
0.83

>  <cluster>  (19) 
2

$$$$

     RDKit          3D

 56 59  0  0  0  0  0  0  0  0999 V2000
  145.3600   73.3700  217.3970 C   0  0  0  0  0  0  0  0  0  0  0  0
  145.5350   72.7060  219.0330 S   0  0  0  0  0  0  0  0  0  0  0  0
  146.6740   73.4330  219.6960 O   0  0  0  0  0  0  0  0  0  0  0  0
  145.9450   71.2500  218.9270 O   0  0  0  0  0  0  0  0  0  0  0  0
  144.0460   72.8340  219.9400 C   0  0  0  0  0  0  0  0  0  0  0  0
  143.4940   71.6980  220.4800 C   0  0  0  0  0  0  0  0  0  0  0  0
  142.3240   71.7530  221.2000 C   0  0  0  0  0  0  0  0  0  0  0  0
  141.6400   72.9530  221.4220 C   0  0  0  0  0  0  0  0  0  0  0  0
  140.4020   72.9840  222.1890 C   0  0  0  0  0  0  0  0  0  0  0  0
  139.5620   71.9820  222.2930 C   0  0  0  0  0  0  0  0  0  0  0  0
  139.6470   71.0790  223.4340 C   0  0  0  0  0  0  0  0  0  0  0  0
  140.2040   71.5420  224.5810 N   0  0  0  0  0  0  0  0  0  0  0  0
  140.3420   70.8320  225.6910 C   0  0  0  0  0  0  0  0  0  0  0  0
  140.9220   71.3950  226.8100 C   0  0  0  0  0  0  0  0  0  0  0  0
  141.0650   70.6390  227.9760 C   0  0  0  0  0  0  0  0  0  0  0  0
  140.6050   69.3240  227.9600 C   0  0  0  0  0  0  0  0  0  0  0  0
  140.7620   68.6230  229.1140 F   0  0  0  0  0  0  0  0  0  0  0  0
  140.0230   68.7690  226.8280 C   0  0  0  0  0  0  0  0  0  0  0  0
  139.8900   69.5280  225.6860 C   0  0  0  0  0  0  0  0  0  0  0  0
  139.3250   69.0550  224.5190 C   0  0  0  0  0  0  0  0  0  0  0  0
  138.9220   67.8450  224.5600 O   0  0  0  0  0  0  0  0  0  0  0  0
  139.1990   69.8090  223.4040 N   0  0  0  0  0  0  0  0  0  0  0  0
  138.5940   69.2900  222.2070 C   0  0  0  0  0  0  0  0  0  0  0  0
  137.1080   69.5030  222.1070 C   0  0  0  0  0  0  0  0  0  0  0  0
  136.4590   68.2200  222.5880 C   0  0  0  0  0  0  0  0  0  0  0  0
  135.1220   68.4920  223.2450 C   0  0  0  0  0  0  0  0  0  0  0  0
  135.2050   69.4600  224.3800 C   0  0  0  0  0  0  0  0  0  0  0  0
  136.4410   70.3450  224.3050 C   0  0  0  0  0  0  0  0  0  0  0  0
  136.5930   70.7000  222.8320 C   0  0  0  0  0  0  0  0  0  0  0  0
  142.2200   74.0740  220.8680 C   0  0  0  0  0  0  0  0  0  0  0  0
  143.3950   74.0290  220.1420 C   0  0  0  0  0  0  0  0  0  0  0  0
  145.0801   74.4319  217.4603 H   0  0  0  0  0  0  0  0  0  0  0  0
  146.3142   73.2738  216.8582 H   0  0  0  0  0  0  0  0  0  0  0  0
  144.5772   72.8160  216.8582 H   0  0  0  0  0  0  0  0  0  0  0  0
  143.9955   70.7299  220.3342 H   0  0  0  0  0  0  0  0  0  0  0  0
  141.9117   70.8217  221.6156 H   0  0  0  0  0  0  0  0  0  0  0  0
  140.1536   73.9151  222.7194 H   0  0  0  0  0  0  0  0  0  0  0  0
  138.7949   71.8235  221.5207 H   0  0  0  0  0  0  0  0  0  0  0  0
  141.2712   72.4378  226.7836 H   0  0  0  0  0  0  0  0  0  0  0  0
  141.5260   71.0682  228.8778 H   0  0  0  0  0  0  0  0  0  0  0  0
  139.6695   67.7274  226.8430 H   0  0  0  0  0  0  0  0  0  0  0  0
  139.0686   69.7796  221.3438 H   0  0  0  0  0  0  0  0  0  0  0  0
  138.7497   68.2013  222.2286 H   0  0  0  0  0  0  0  0  0  0  0  0
  136.8504   69.7256  221.0610 H   0  0  0  0  0  0  0  0  0  0  0  0
  136.3061   67.5515  221.7279 H   0  0  0  0  0  0  0  0  0  0  0  0
  137.1222   67.7530  223.3310 H   0  0  0  0  0  0  0  0  0  0  0  0
  134.4378   68.9011  222.4871 H   0  0  0  0  0  0  0  0  0  0  0  0
  134.7626   67.5377  223.6575 H   0  0  0  0  0  0  0  0  0  0  0  0
  134.3112   70.1009  224.3626 H   0  0  0  0  0  0  0  0  0  0  0  0
  135.2683   68.8774  225.3109 H   0  0  0  0  0  0  0  0  0  0  0  0
  136.3008   71.2543  224.9079 H   0  0  0  0  0  0  0  0  0  0  0  0
  137.3336   69.8365  224.6983 H   0  0  0  0  0  0  0  0  0  0  0  0
  135.6167   70.9927  222.4183 H   0  0  0  0  0  0  0  0  0  0  0  0
  137.2937   71.5402  222.7174 H   0  0  0  0  0  0  0  0  0  0  0  0
  141.7261   75.0466  221.0099 H   0  0  0  0  0  0  0  0  0  0  0  0
  143.8130   74.9559  219.7224 H   0  0  0  0  0  0  0  0  0  0  0  0
  1  2  1  0
  2  3  2  0
  2  4  2  0
  2  5  1  0
  5  6  2  0
  6  7  1  0
  7  8  2  0
  8  9  1  0
  9 10  2  0
 10 11  1  0
 11 12  2  0
 12 13  1  0
 13 14  2  0
 14 15  1  0
 15 16  2  0
 16 17  1  0
 16 18  1  0
 18 19  2  0
 19 20  1  0
 20 21  2  0
 20 22  1  0
 22 23  1  0
 23 24  1  0
 24 25  1  0
 25 26  1  0
 26 27  1  0
 27 28  1  0
 28 29  1  0
  8 30  1  0
 30 31  2  0
 31  5  1  0
 22 11  1  0
 29 24  1  0
 19 13  1  0
  1 32  1  0
  1 33  1  0
  1 34  1  0
  6 35  1  0
  7 36  1  0
  9 37  1  0
 10 38  1  0
 14 39  1  0
 15 40  1  0
 18 41  1  0
 23 42  1  0
 23 43  1  0
 24 44  1  0
 25 45  1  0
 25 46  1  0
 26 47  1  0
 26 48  1  0
 27 49  1  0
 27 50  1  0
 28 51  1  0
 28 52  1  0
 29 53  1  0
 29 54  1  0
 30 55  1  0
 31 56  1  0
M  END
>  <smiles>  (20) 
CS(=O)(=O)c1ccc(/C=C/c2nc3ccc(F)cc3c(=O)n2CC2CCCCC2)cc1

>  <score_type>  (20) 
oracle

>  <origin>  (20) 
autodockgpu

>  <m_score__min__energy>  (20) 
-9.1400000000000006

>  <m_primary>  (20) 
energy

>  <rmsd>  (20) 
11.29904715517899

>  <m_score__min__rmsd>  (20) 
11.29904715517899

>  <meeko>  (20) 
{"free_energy": -8.27, "intermolecular_energy": -10.06, "internal_energy": -1.62, "cluster_size": 10, "cluster_id": 4, "rank_in_cluster": 2}

>  <energy>  (20) 
-8.46

>  <cluster_rmsd>  (20) 
0.86

>  <cluster>  (20) 
2

$$$$

     RDKit          3D

 56 59  0  0  0  0  0  0  0  0999 V2000
  141.4480   67.7890  226.8580 C   0  0  0  0  0  0  0  0  0  0  0  0
  139.7930   68.4090  226.6900 S   0  0  0  0  0  0  0  0  0  0  0  0
  139.3650   68.9240  228.0380 O   0  0  0  0  0  0  0  0  0  0  0  0
  138.8720   67.2540  226.3490 O   0  0  0  0  0  0  0  0  0  0  0  0
  139.6900   69.6320  225.4460 C   0  0  0  0  0  0  0  0  0  0  0  0
  138.5790   69.6700  224.6390 C   0  0  0  0  0  0  0  0  0  0  0  0
  138.4570   70.6160  223.6480 C   0  0  0  0  0  0  0  0  0  0  0  0
  139.4430   71.5790  223.4100 C   0  0  0  0  0  0  0  0  0  0  0  0
  139.2880   72.5690  222.3520 C   0  0  0  0  0  0  0  0  0  0  0  0
  140.1310   72.7450  221.3640 C   0  0  0  0  0  0  0  0  0  0  0  0
  140.7000   74.0660  221.1200 C   0  0  0  0  0  0  0  0  0  0  0  0
  140.3230   75.0880  221.9290 N   0  0  0  0  0  0  0  0  0  0  0  0
  140.7610   76.3330  221.8230 C   0  0  0  0  0  0  0  0  0  0  0  0
  140.3180   77.3050  222.6970 C   0  0  0  0  0  0  0  0  0  0  0  0
  140.7840   78.6160  222.5770 C   0  0  0  0  0  0  0  0  0  0  0  0
  141.6970   78.8920  221.5610 C   0  0  0  0  0  0  0  0  0  0  0  0
  142.1260   80.1790  221.4780 F   0  0  0  0  0  0  0  0  0  0  0  0
  142.1350   77.9060  220.6880 C   0  0  0  0  0  0  0  0  0  0  0  0
  141.6650   76.6170  220.8200 C   0  0  0  0  0  0  0  0  0  0  0  0
  142.0490   75.5800  219.9950 C   0  0  0  0  0  0  0  0  0  0  0  0
  142.8850   75.8890  219.0820 O   0  0  0  0  0  0  0  0  0  0  0  0
  141.5810   74.3180  220.1340 N   0  0  0  0  0  0  0  0  0  0  0  0
  142.0100   73.2550  219.2650 C   0  0  0  0  0  0  0  0  0  0  0  0
  143.0800   72.3650  219.8380 C   0  0  0  0  0  0  0  0  0  0  0  0
  143.9320   71.9150  218.6680 C   0  0  0  0  0  0  0  0  0  0  0  0
  145.3690   71.6890  219.0880 C   0  0  0  0  0  0  0  0  0  0  0  0
  145.9960   72.8860  219.7260 C   0  0  0  0  0  0  0  0  0  0  0  0
  144.9660   73.8550  220.2900 C   0  0  0  0  0  0  0  0  0  0  0  0
  143.8950   72.9790  220.9250 C   0  0  0  0  0  0  0  0  0  0  0  0
  140.5440   71.5140  224.2360 C   0  0  0  0  0  0  0  0  0  0  0  0
  140.6760   70.5680  225.2350 C   0  0  0  0  0  0  0  0  0  0  0  0
  141.6979   67.6954  227.9251 H   0  0  0  0  0  0  0  0  0  0  0  0
  141.5207   66.8027  226.3765 H   0  0  0  0  0  0  0  0  0  0  0  0
  142.1509   68.4848  226.3765 H   0  0  0  0  0  0  0  0  0  0  0  0
  137.7756   68.9335  224.7874 H   0  0  0  0  0  0  0  0  0  0  0  0
  137.5531   70.6151  223.0212 H   0  0  0  0  0  0  0  0  0  0  0  0
  138.3988   73.2157  222.3850 H   0  0  0  0  0  0  0  0  0  0  0  0
  140.4091   71.8979  220.7197 H   0  0  0  0  0  0  0  0  0  0  0  0
  139.5982   77.0471  223.4878 H   0  0  0  0  0  0  0  0  0  0  0  0
  140.4414   79.4053  223.2623 H   0  0  0  0  0  0  0  0  0  0  0  0
  142.8547   78.1524  219.8935 H   0  0  0  0  0  0  0  0  0  0  0  0
  141.1352   72.6309  219.0300 H   0  0  0  0  0  0  0  0  0  0  0  0
  142.4494   73.7371  218.3793 H   0  0  0  0  0  0  0  0  0  0  0  0
  142.6015   71.5156  220.3474 H   0  0  0  0  0  0  0  0  0  0  0  0
  143.5237   70.9752  218.2680 H   0  0  0  0  0  0  0  0  0  0  0  0
  143.9144   72.7044  217.9021 H   0  0  0  0  0  0  0  0  0  0  0  0
  145.3954   70.8567  219.8068 H   0  0  0  0  0  0  0  0  0  0  0  0
  145.9432   71.4690  218.1759 H   0  0  0  0  0  0  0  0  0  0  0  0
  146.6476   72.5480  220.5453 H   0  0  0  0  0  0  0  0  0  0  0  0
  146.5645   73.4185  218.9493 H   0  0  0  0  0  0  0  0  0  0  0  0
  145.4259   74.5096  221.0450 H   0  0  0  0  0  0  0  0  0  0  0  0
  144.5503   74.5107  219.5107 H   0  0  0  0  0  0  0  0  0  0  0  0
  144.3698   72.1883  221.5245 H   0  0  0  0  0  0  0  0  0  0  0  0
  143.2528   73.5849  221.5811 H   0  0  0  0  0  0  0  0  0  0  0  0
  141.3525   72.2463  224.0942 H   0  0  0  0  0  0  0  0  0  0  0  0
  141.5767   70.5635  225.8665 H   0  0  0  0  0  0  0  0  0  0  0  0
  1  2  1  0
  2  3  2  0
  2  4  2  0
  2  5  1  0
  5  6  2  0
  6  7  1  0
  7  8  2  0
  8  9  1  0
  9 10  2  0
 10 11  1  0
 11 12  2  0
 12 13  1  0
 13 14  2  0
 14 15  1  0
 15 16  2  0
 16 17  1  0
 16 18  1  0
 18 19  2  0
 19 20  1  0
 20 21  2  0
 20 22  1  0
 22 23  1  0
 23 24  1  0
 24 25  1  0
 25 26  1  0
 26 27  1  0
 27 28  1  0
 28 29  1  0
  8 30  1  0
 30 31  2  0
 31  5  1  0
 22 11  1  0
 29 24  1  0
 19 13  1  0
  1 32  1  0
  1 33  1  0
  1 34  1  0
  6 35  1  0
  7 36  1  0
  9 37  1  0
 10 38  1  0
 14 39  1  0
 15 40  1  0
 18 41  1  0
 23 42  1  0
 23 43  1  0
 24 44  1  0
 25 45  1  0
 25 46  1  0
 26 47  1  0
 26 48  1  0
 27 49  1  0
 27 50  1  0
 28 51  1  0
 28 52  1  0
 29 53  1  0
 29 54  1  0
 30 55  1  0
 31 56  1  0
M  END
>  <smiles>  (21) 
CS(=O)(=O)c1ccc(/C=C/c2nc3ccc(F)cc3c(=O)n2CC2CCCCC2)cc1

>  <score_type>  (21) 
oracle

>  <origin>  (21) 
autodockgpu

>  <m_score__min__energy>  (21) 
-9.1400000000000006

>  <m_primary>  (21) 
energy

>  <rmsd>  (21) 
5.7466573622766735

>  <m_score__min__rmsd>  (21) 
5.7466573622766735

>  <meeko>  (21) 
{"free_energy": -8.47, "intermolecular_energy": -10.26, "internal_energy": -1.53, "cluster_size": 16, "cluster_id": 1, "rank_in_cluster": 12}

>  <energy>  (21) 
-8.4

>  <cluster_rmsd>  (21) 
0.88

>  <cluster>  (21) 
2

$$$$

     RDKit          3D

 56 59  0  0  0  0  0  0  0  0999 V2000
  146.6900   73.4340  221.1630 C   0  0  0  0  0  0  0  0  0  0  0  0
  145.6440   72.6900  219.9370 S   0  0  0  0  0  0  0  0  0  0  0  0
  146.1390   71.2860  219.7130 O   0  0  0  0  0  0  0  0  0  0  0  0
  145.8220   73.4330  218.6280 O   0  0  0  0  0  0  0  0  0  0  0  0
  143.9640   72.7350  220.4160 C   0  0  0  0  0  0  0  0  0  0  0  0
  143.3340   71.5610  220.7530 C   0  0  0  0  0  0  0  0  0  0  0  0
  142.0140   71.5500  221.1360 C   0  0  0  0  0  0  0  0  0  0  0  0
  141.2470   72.7180  221.2030 C   0  0  0  0  0  0  0  0  0  0  0  0
  139.8490   72.6790  221.6110 C   0  0  0  0  0  0  0  0  0  0  0  0
  139.1810   71.5850  221.8880 C   0  0  0  0  0  0  0  0  0  0  0  0
  139.4250   70.8840  223.1430 C   0  0  0  0  0  0  0  0  0  0  0  0
  140.1120   71.5300  224.1180 N   0  0  0  0  0  0  0  0  0  0  0  0
  140.4020   71.0150  225.3030 C   0  0  0  0  0  0  0  0  0  0  0  0
  141.1070   71.7540  226.2310 C   0  0  0  0  0  0  0  0  0  0  0  0
  141.4080   71.2030  227.4780 C   0  0  0  0  0  0  0  0  0  0  0  0
  140.9740   69.9050  227.7380 C   0  0  0  0  0  0  0  0  0  0  0  0
  141.2870   69.4050  228.9630 F   0  0  0  0  0  0  0  0  0  0  0  0
  140.2650   69.1710  226.7970 C   0  0  0  0  0  0  0  0  0  0  0  0
  139.9760   69.7290  225.5710 C   0  0  0  0  0  0  0  0  0  0  0  0
  139.2780   69.0700  224.5800 C   0  0  0  0  0  0  0  0  0  0  0  0
  138.9060   67.8850  224.8710 O   0  0  0  0  0  0  0  0  0  0  0  0
  139.0000   69.6280  223.3800 N   0  0  0  0  0  0  0  0  0  0  0  0
  138.2590   68.9190  222.3720 C   0  0  0  0  0  0  0  0  0  0  0  0
  136.8080   69.3010  222.2700 C   0  0  0  0  0  0  0  0  0  0  0  0
  136.0180   68.0120  222.3880 C   0  0  0  0  0  0  0  0  0  0  0  0
  134.6710   68.2490  223.0380 C   0  0  0  0  0  0  0  0  0  0  0  0
  134.7670   68.8960  224.3820 C   0  0  0  0  0  0  0  0  0  0  0  0
  136.0790   69.6420  224.5800 C   0  0  0  0  0  0  0  0  0  0  0  0
  136.3560   70.3290  223.2500 C   0  0  0  0  0  0  0  0  0  0  0  0
  141.9060   73.8780  220.8580 C   0  0  0  0  0  0  0  0  0  0  0  0
  143.2340   73.9000  220.4730 C   0  0  0  0  0  0  0  0  0  0  0  0
  146.3224   73.1725  222.1662 H   0  0  0  0  0  0  0  0  0  0  0  0
  147.7185   73.0634  221.0413 H   0  0  0  0  0  0  0  0  0  0  0  0
  146.6774   74.5272  221.0413 H   0  0  0  0  0  0  0  0  0  0  0  0
  143.8948   70.6155  220.7157 H   0  0  0  0  0  0  0  0  0  0  0  0
  141.5449   70.5904  221.3987 H   0  0  0  0  0  0  0  0  0  0  0  0
  139.3148   73.6371  221.6927 H   0  0  0  0  0  0  0  0  0  0  0  0
  138.4384   71.1971  221.1752 H   0  0  0  0  0  0  0  0  0  0  0  0
  141.4316   72.7766  225.9884 H   0  0  0  0  0  0  0  0  0  0  0  0
  141.9697   71.7753  228.2309 H   0  0  0  0  0  0  0  0  0  0  0  0
  139.9352   68.1477  227.0293 H   0  0  0  0  0  0  0  0  0  0  0  0
  138.7332   69.1133  221.3987 H   0  0  0  0  0  0  0  0  0  0  0  0
  138.2802   67.8579  222.6611 H   0  0  0  0  0  0  0  0  0  0  0  0
  136.6389   69.7993  221.3040 H   0  0  0  0  0  0  0  0  0  0  0  0
  135.8620   67.5942  221.3825 H   0  0  0  0  0  0  0  0  0  0  0  0
  136.5881   67.3120  223.0165 H   0  0  0  0  0  0  0  0  0  0  0  0
  134.0755   68.8987  222.3798 H   0  0  0  0  0  0  0  0  0  0  0  0
  134.2027   67.2644  223.1839 H   0  0  0  0  0  0  0  0  0  0  0  0
  133.9365   69.6091  224.4899 H   0  0  0  0  0  0  0  0  0  0  0  0
  134.7189   68.0997  225.1394 H   0  0  0  0  0  0  0  0  0  0  0  0
  135.9816   70.3856  225.3847 H   0  0  0  0  0  0  0  0  0  0  0  0
  136.8960   68.9646  224.8693 H   0  0  0  0  0  0  0  0  0  0  0  0
  135.4380   70.8120  222.8839 H   0  0  0  0  0  0  0  0  0  0  0  0
  137.1347   71.0954  223.3774 H   0  0  0  0  0  0  0  0  0  0  0  0
  141.3517   74.8276  220.8902 H   0  0  0  0  0  0  0  0  0  0  0  0
  143.7104   74.8561  220.2103 H   0  0  0  0  0  0  0  0  0  0  0  0
  1  2  1  0
  2  3  2  0
  2  4  2  0
  2  5  1  0
  5  6  2  0
  6  7  1  0
  7  8  2  0
  8  9  1  0
  9 10  2  0
 10 11  1  0
 11 12  2  0
 12 13  1  0
 13 14  2  0
 14 15  1  0
 15 16  2  0
 16 17  1  0
 16 18  1  0
 18 19  2  0
 19 20  1  0
 20 21  2  0
 20 22  1  0
 22 23  1  0
 23 24  1  0
 24 25  1  0
 25 26  1  0
 26 27  1  0
 27 28  1  0
 28 29  1  0
  8 30  1  0
 30 31  2  0
 31  5  1  0
 22 11  1  0
 29 24  1  0
 19 13  1  0
  1 32  1  0
  1 33  1  0
  1 34  1  0
  6 35  1  0
  7 36  1  0
  9 37  1  0
 10 38  1  0
 14 39  1  0
 15 40  1  0
 18 41  1  0
 23 42  1  0
 23 43  1  0
 24 44  1  0
 25 45  1  0
 25 46  1  0
 26 47  1  0
 26 48  1  0
 27 49  1  0
 27 50  1  0
 28 51  1  0
 28 52  1  0
 29 53  1  0
 29 54  1  0
 30 55  1  0
 31 56  1  0
M  END
>  <smiles>  (22) 
CS(=O)(=O)c1ccc(/C=C/c2nc3ccc(F)cc3c(=O)n2CC2CCCCC2)cc1

>  <score_type>  (22) 
oracle

>  <origin>  (22) 
autodockgpu

>  <m_score__min__energy>  (22) 
-9.1400000000000006

>  <m_primary>  (22) 
energy

>  <rmsd>  (22) 
11.267518312270727

>  <m_score__min__rmsd>  (22) 
11.267518312270727

>  <meeko>  (22) 
{"free_energy": -8.17, "intermolecular_energy": -9.96, "internal_energy": -1.66, "cluster_size": 10, "cluster_id": 4, "rank_in_cluster": 3}

>  <energy>  (22) 
-8.28

>  <cluster_rmsd>  (22) 
0.62

>  <cluster>  (22) 
2

$$$$

     RDKit          3D

 56 59  0  0  0  0  0  0  0  0999 V2000
  140.0280   68.8570  228.2410 C   0  0  0  0  0  0  0  0  0  0  0  0
  140.2490   68.1960  226.6090 S   0  0  0  0  0  0  0  0  0  0  0  0
  139.2980   67.0380  226.4590 O   0  0  0  0  0  0  0  0  0  0  0  0
  141.6510   67.6300  226.4970 O   0  0  0  0  0  0  0  0  0  0  0  0
  140.0070   69.4180  225.3840 C   0  0  0  0  0  0  0  0  0  0  0  0
  138.9560   69.2870  224.5090 C   0  0  0  0  0  0  0  0  0  0  0  0
  138.7290   70.2260  223.5300 C   0  0  0  0  0  0  0  0  0  0  0  0
  139.5430   71.3520  223.3720 C   0  0  0  0  0  0  0  0  0  0  0  0
  139.2810   72.3310  222.3250 C   0  0  0  0  0  0  0  0  0  0  0  0
  140.1090   72.6250  221.3530 C   0  0  0  0  0  0  0  0  0  0  0  0
  140.6220   73.9830  221.2210 C   0  0  0  0  0  0  0  0  0  0  0  0
  140.0400   74.9650  221.9550 N   0  0  0  0  0  0  0  0  0  0  0  0
  140.4060   76.2380  221.9360 C   0  0  0  0  0  0  0  0  0  0  0  0
  139.7510   77.1630  222.7220 C   0  0  0  0  0  0  0  0  0  0  0  0
  140.1420   78.5040  222.6940 C   0  0  0  0  0  0  0  0  0  0  0  0
  141.2010   78.8560  221.8590 C   0  0  0  0  0  0  0  0  0  0  0  0
  141.5510   80.1690  221.8610 F   0  0  0  0  0  0  0  0  0  0  0  0
  141.8520   77.9160  221.0720 C   0  0  0  0  0  0  0  0  0  0  0  0
  141.4530   76.5970  221.1110 C   0  0  0  0  0  0  0  0  0  0  0  0
  142.0450   75.6000  220.3630 C   0  0  0  0  0  0  0  0  0  0  0  0
  143.0080   75.9790  219.6150 O   0  0  0  0  0  0  0  0  0  0  0  0
  141.6460   74.3090  220.4090 N   0  0  0  0  0  0  0  0  0  0  0  0
  142.2920   73.2910  219.6250 C   0  0  0  0  0  0  0  0  0  0  0  0
  143.3880   72.5480  220.3380 C   0  0  0  0  0  0  0  0  0  0  0  0
  144.1830   71.8280  219.2650 C   0  0  0  0  0  0  0  0  0  0  0  0
  145.6390   71.6900  219.6580 C   0  0  0  0  0  0  0  0  0  0  0  0
  146.2960   72.9960  219.9690 C   0  0  0  0  0  0  0  0  0  0  0  0
  145.2950   74.0810  220.3400 C   0  0  0  0  0  0  0  0  0  0  0  0
  144.2560   73.3880  221.2120 C   0  0  0  0  0  0  0  0  0  0  0  0
  140.5890   71.4540  224.2640 C   0  0  0  0  0  0  0  0  0  0  0  0
  140.8250   70.5160  225.2520 C   0  0  0  0  0  0  0  0  0  0  0  0
  140.2848   68.0890  228.9855 H   0  0  0  0  0  0  0  0  0  0  0  0
  140.6829   69.7306  228.3745 H   0  0  0  0  0  0  0  0  0  0  0  0
  138.9793   69.1611  228.3745 H   0  0  0  0  0  0  0  0  0  0  0  0
  138.2862   68.4184  224.5926 H   0  0  0  0  0  0  0  0  0  0  0  0
  137.8776   70.0864  222.8476 H   0  0  0  0  0  0  0  0  0  0  0  0
  138.3180   72.8619  222.3527 H   0  0  0  0  0  0  0  0  0  0  0  0
  140.4166   71.8481  220.6376 H   0  0  0  0  0  0  0  0  0  0  0  0
  138.9213   76.8451  223.3705 H   0  0  0  0  0  0  0  0  0  0  0  0
  139.6306   79.2576  223.3110 H   0  0  0  0  0  0  0  0  0  0  0  0
  142.6831   78.2224  220.4197 H   0  0  0  0  0  0  0  0  0  0  0  0
  141.5291   72.5616  219.3154 H   0  0  0  0  0  0  0  0  0  0  0  0
  142.7674   73.8070  218.7778 H   0  0  0  0  0  0  0  0  0  0  0  0
  142.9341   71.8469  221.0538 H   0  0  0  0  0  0  0  0  0  0  0  0
  143.7559   70.8255  219.1147 H   0  0  0  0  0  0  0  0  0  0  0  0
  144.1281   72.4176  218.3380 H   0  0  0  0  0  0  0  0  0  0  0  0
  145.7004   71.0479  220.5490 H   0  0  0  0  0  0  0  0  0  0  0  0
  146.1684   71.2571  218.7964 H   0  0  0  0  0  0  0  0  0  0  0  0
  146.9870   72.8508  220.8125 H   0  0  0  0  0  0  0  0  0  0  0  0
  146.8254   73.3267  219.0633 H   0  0  0  0  0  0  0  0  0  0  0  0
  145.7910   74.8880  220.8993 H   0  0  0  0  0  0  0  0  0  0  0  0
  144.8418   74.5425  219.4503 H   0  0  0  0  0  0  0  0  0  0  0  0
  144.7598   72.7525  221.9551 H   0  0  0  0  0  0  0  0  0  0  0  0
  143.6470   74.1370  221.7393 H   0  0  0  0  0  0  0  0  0  0  0  0
  141.2647   72.3185  224.1865 H   0  0  0  0  0  0  0  0  0  0  0  0
  141.6742   70.6489  225.9384 H   0  0  0  0  0  0  0  0  0  0  0  0
  1  2  1  0
  2  3  2  0
  2  4  2  0
  2  5  1  0
  5  6  2  0
  6  7  1  0
  7  8  2  0
  8  9  1  0
  9 10  2  0
 10 11  1  0
 11 12  2  0
 12 13  1  0
 13 14  2  0
 14 15  1  0
 15 16  2  0
 16 17  1  0
 16 18  1  0
 18 19  2  0
 19 20  1  0
 20 21  2  0
 20 22  1  0
 22 23  1  0
 23 24  1  0
 24 25  1  0
 25 26  1  0
 26 27  1  0
 27 28  1  0
 28 29  1  0
  8 30  1  0
 30 31  2  0
 31  5  1  0
 22 11  1  0
 29 24  1  0
 19 13  1  0
  1 32  1  0
  1 33  1  0
  1 34  1  0
  6 35  1  0
  7 36  1  0
  9 37  1  0
 10 38  1  0
 14 39  1  0
 15 40  1  0
 18 41  1  0
 23 42  1  0
 23 43  1  0
 24 44  1  0
 25 45  1  0
 25 46  1  0
 26 47  1  0
 26 48  1  0
 27 49  1  0
 27 50  1  0
 28 51  1  0
 28 52  1  0
 29 53  1  0
 29 54  1  0
 30 55  1  0
 31 56  1  0
M  END
>  <smiles>  (23) 
CS(=O)(=O)c1ccc(/C=C/c2nc3ccc(F)cc3c(=O)n2CC2CCCCC2)cc1

>  <score_type>  (23) 
oracle

>  <origin>  (23) 
autodockgpu

>  <m_score__min__energy>  (23) 
-9.1400000000000006

>  <m_primary>  (23) 
energy

>  <rmsd>  (23) 
5.871608250443972

>  <m_score__min__rmsd>  (23) 
5.871608250443972

>  <meeko>  (23) 
{"free_energy": -8.64, "intermolecular_energy": -10.43, "internal_energy": -1.48, "cluster_size": 16, "cluster_id": 1, "rank_in_cluster": 11}

>  <energy>  (23) 
-8.23

>  <cluster_rmsd>  (23) 
0.91

>  <cluster>  (23) 
2

$$$$

     RDKit          3D

 56 59  0  0  0  0  0  0  0  0999 V2000
  145.0650   71.1270  217.6830 C   0  0  0  0  0  0  0  0  0  0  0  0
  145.0370   72.6370  218.6150 S   0  0  0  0  0  0  0  0  0  0  0  0
  145.0340   73.7760  217.6300 O   0  0  0  0  0  0  0  0  0  0  0  0
  146.3240   72.7450  219.4070 O   0  0  0  0  0  0  0  0  0  0  0  0
  143.6700   72.6940  219.7020 C   0  0  0  0  0  0  0  0  0  0  0  0
  143.0430   73.8970  219.9240 C   0  0  0  0  0  0  0  0  0  0  0  0
  141.9640   73.9870  220.7710 C   0  0  0  0  0  0  0  0  0  0  0  0
  141.4490   72.8740  221.4450 C   0  0  0  0  0  0  0  0  0  0  0  0
  140.3050   72.9970  222.3380 C   0  0  0  0  0  0  0  0  0  0  0  0
  139.4060   72.0630  222.5350 C   0  0  0  0  0  0  0  0  0  0  0  0
  139.5740   71.1130  223.6280 C   0  0  0  0  0  0  0  0  0  0  0  0
  140.1510   71.5480  224.7760 N   0  0  0  0  0  0  0  0  0  0  0  0
  140.3610   70.7950  225.8460 C   0  0  0  0  0  0  0  0  0  0  0  0
  140.9560   71.3320  226.9690 C   0  0  0  0  0  0  0  0  0  0  0  0
  141.1750   70.5310  228.0920 C   0  0  0  0  0  0  0  0  0  0  0  0
  140.7740   69.1970  228.0290 C   0  0  0  0  0  0  0  0  0  0  0  0
  141.0050   68.4520  229.1420 F   0  0  0  0  0  0  0  0  0  0  0  0
  140.1770   68.6690  226.8930 C   0  0  0  0  0  0  0  0  0  0  0  0
  139.9680   69.4730  225.7930 C   0  0  0  0  0  0  0  0  0  0  0  0
  139.3820   69.0280  224.6260 C   0  0  0  0  0  0  0  0  0  0  0  0
  139.0360   67.8000  224.6230 O   0  0  0  0  0  0  0  0  0  0  0  0
  139.1820   69.8260  223.5520 N   0  0  0  0  0  0  0  0  0  0  0  0
  138.5570   69.3360  222.3540 C   0  0  0  0  0  0  0  0  0  0  0  0
  137.0760   69.5820  222.2680 C   0  0  0  0  0  0  0  0  0  0  0  0
  136.4100   68.2250  222.3860 C   0  0  0  0  0  0  0  0  0  0  0  0
  135.0530   68.3330  223.0510 C   0  0  0  0  0  0  0  0  0  0  0  0
  135.1030   68.9800  224.3980 C   0  0  0  0  0  0  0  0  0  0  0  0
  136.3430   69.8430  224.5870 C   0  0  0  0  0  0  0  0  0  0  0  0
  136.5410   70.5590  223.2590 C   0  0  0  0  0  0  0  0  0  0  0  0
  142.1000   71.6840  221.2020 C   0  0  0  0  0  0  0  0  0  0  0  0
  143.1850   71.5820  220.3520 C   0  0  0  0  0  0  0  0  0  0  0  0
  145.0809   70.2705  218.3730 H   0  0  0  0  0  0  0  0  0  0  0  0
  144.1677   71.0706  217.0492 H   0  0  0  0  0  0  0  0  0  0  0  0
  145.9637   71.1039  217.0492 H   0  0  0  0  0  0  0  0  0  0  0  0
  143.4101   74.8011  219.4163 H   0  0  0  0  0  0  0  0  0  0  0  0
  141.4892   74.9674  220.9242 H   0  0  0  0  0  0  0  0  0  0  0  0
  140.1865   73.9426  222.8873 H   0  0  0  0  0  0  0  0  0  0  0  0
  138.5270   71.9964  221.8770 H   0  0  0  0  0  0  0  0  0  0  0  0
  141.2575   72.3898  226.9799 H   0  0  0  0  0  0  0  0  0  0  0  0
  141.6486   70.9393  228.9970 H   0  0  0  0  0  0  0  0  0  0  0  0
  139.8716   67.6125  226.8704 H   0  0  0  0  0  0  0  0  0  0  0  0
  139.0356   69.8263  221.4935 H   0  0  0  0  0  0  0  0  0  0  0  0
  138.6891   68.2440  222.3609 H   0  0  0  0  0  0  0  0  0  0  0  0
  136.8514   70.0669  221.3065 H   0  0  0  0  0  0  0  0  0  0  0  0
  136.2829   67.7997  221.3796 H   0  0  0  0  0  0  0  0  0  0  0  0
  137.0489   67.5776  223.0046 H   0  0  0  0  0  0  0  0  0  0  0  0
  134.3930   68.9278  222.4025 H   0  0  0  0  0  0  0  0  0  0  0  0
  134.6793   67.3086  223.1959 H   0  0  0  0  0  0  0  0  0  0  0  0
  134.2115   69.6130  224.5181 H   0  0  0  0  0  0  0  0  0  0  0  0
  135.1363   68.1792  225.1514 H   0  0  0  0  0  0  0  0  0  0  0  0
  136.1862   70.5704  225.3971 H   0  0  0  0  0  0  0  0  0  0  0  0
  137.2220   69.2424  224.8638 H   0  0  0  0  0  0  0  0  0  0  0  0
  135.5784   70.9566  222.9051 H   0  0  0  0  0  0  0  0  0  0  0  0
  137.2468   71.3936  223.3832 H   0  0  0  0  0  0  0  0  0  0  0  0
  141.7403   70.7753  221.7068 H   0  0  0  0  0  0  0  0  0  0  0  0
  143.6645   70.6047  220.1938 H   0  0  0  0  0  0  0  0  0  0  0  0
  1  2  1  0
  2  3  2  0
  2  4  2  0
  2  5  1  0
  5  6  2  0
  6  7  1  0
  7  8  2  0
  8  9  1  0
  9 10  2  0
 10 11  1  0
 11 12  2  0
 12 13  1  0
 13 14  2  0
 14 15  1  0
 15 16  2  0
 16 17  1  0
 16 18  1  0
 18 19  2  0
 19 20  1  0
 20 21  2  0
 20 22  1  0
 22 23  1  0
 23 24  1  0
 24 25  1  0
 25 26  1  0
 26 27  1  0
 27 28  1  0
 28 29  1  0
  8 30  1  0
 30 31  2  0
 31  5  1  0
 22 11  1  0
 29 24  1  0
 19 13  1  0
  1 32  1  0
  1 33  1  0
  1 34  1  0
  6 35  1  0
  7 36  1  0
  9 37  1  0
 10 38  1  0
 14 39  1  0
 15 40  1  0
 18 41  1  0
 23 42  1  0
 23 43  1  0
 24 44  1  0
 25 45  1  0
 25 46  1  0
 26 47  1  0
 26 48  1  0
 27 49  1  0
 27 50  1  0
 28 51  1  0
 28 52  1  0
 29 53  1  0
 29 54  1  0
 30 55  1  0
 31 56  1  0
M  END
>  <smiles>  (24) 
CS(=O)(=O)c1ccc(/C=C/c2nc3ccc(F)cc3c(=O)n2CC2CCCCC2)cc1

>  <score_type>  (24) 
oracle

>  <origin>  (24) 
autodockgpu

>  <m_score__min__energy>  (24) 
-9.1400000000000006

>  <m_primary>  (24) 
energy

>  <rmsd>  (24) 
11.37467046498142

>  <m_score__min__rmsd>  (24) 
11.37467046498142

>  <meeko>  (24) 
{"free_energy": -7.76, "intermolecular_energy": -9.55, "internal_energy": -1.6, "cluster_size": 10, "cluster_id": 4, "rank_in_cluster": 9}

>  <energy>  (24) 
-8.17

>  <cluster_rmsd>  (24) 
0.92

>  <cluster>  (24) 
2

$$$$

     RDKit          3D

 56 59  0  0  0  0  0  0  0  0999 V2000
  131.5710   73.3910  225.7210 C   0  0  0  0  0  0  0  0  0  0  0  0
  133.1260   73.7980  226.4740 S   0  0  0  0  0  0  0  0  0  0  0  0
  133.5890   72.5860  227.2370 O   0  0  0  0  0  0  0  0  0  0  0  0
  132.9010   74.8990  227.4910 O   0  0  0  0  0  0  0  0  0  0  0  0
  134.2950   74.3230  225.2860 C   0  0  0  0  0  0  0  0  0  0  0  0
  134.8720   73.3900  224.4590 C   0  0  0  0  0  0  0  0  0  0  0  0
  135.7960   73.7590  223.5110 C   0  0  0  0  0  0  0  0  0  0  0  0
  136.1960   75.0880  223.3360 C   0  0  0  0  0  0  0  0  0  0  0  0
  137.1790   75.4520  222.3240 C   0  0  0  0  0  0  0  0  0  0  0  0
  138.1770   76.2790  222.5150 C   0  0  0  0  0  0  0  0  0  0  0  0
  139.4770   76.0010  221.9140 C   0  0  0  0  0  0  0  0  0  0  0  0
  139.9270   74.7210  221.9200 N   0  0  0  0  0  0  0  0  0  0  0  0
  141.0840   74.3280  221.4090 C   0  0  0  0  0  0  0  0  0  0  0  0
  141.4540   72.9990  221.4630 C   0  0  0  0  0  0  0  0  0  0  0  0
  142.6760   72.5930  220.9230 C   0  0  0  0  0  0  0  0  0  0  0  0
  143.4850   73.5660  220.3390 C   0  0  0  0  0  0  0  0  0  0  0  0
  144.6650   73.1290  219.8250 F   0  0  0  0  0  0  0  0  0  0  0  0
  143.1020   74.8990  220.2910 C   0  0  0  0  0  0  0  0  0  0  0  0
  141.8930   75.2830  220.8290 C   0  0  0  0  0  0  0  0  0  0  0  0
  141.4370   76.5860  220.8230 C   0  0  0  0  0  0  0  0  0  0  0  0
  142.2180   77.4340  220.2770 O   0  0  0  0  0  0  0  0  0  0  0  0
  140.2490   76.9520  221.3540 N   0  0  0  0  0  0  0  0  0  0  0  0
  139.7960   78.3170  221.3210 C   0  0  0  0  0  0  0  0  0  0  0  0
  140.1210   79.1190  222.5520 C   0  0  0  0  0  0  0  0  0  0  0  0
  141.3010   78.4310  223.2100 C   0  0  0  0  0  0  0  0  0  0  0  0
  142.1820   79.4250  223.9380 C   0  0  0  0  0  0  0  0  0  0  0  0
  142.6780   80.5310  223.0630 C   0  0  0  0  0  0  0  0  0  0  0  0
  141.8110   80.7320  221.8270 C   0  0  0  0  0  0  0  0  0  0  0  0
  140.3770   80.5670  222.3100 C   0  0  0  0  0  0  0  0  0  0  0  0
  135.6010   75.9990  224.1810 C   0  0  0  0  0  0  0  0  0  0  0  0
  134.6700   75.6390  225.1370 C   0  0  0  0  0  0  0  0  0  0  0  0
  130.8242   73.1955  226.5046 H   0  0  0  0  0  0  0  0  0  0  0  0
  131.2352   74.2315  225.0959 H   0  0  0  0  0  0  0  0  0  0  0  0
  131.6900   72.4937  225.0959 H   0  0  0  0  0  0  0  0  0  0  0  0
  134.5901   72.3313  224.5571 H   0  0  0  0  0  0  0  0  0  0  0  0
  136.2361   72.9827  222.8678 H   0  0  0  0  0  0  0  0  0  0  0  0
  137.0756   74.9994  221.3268 H   0  0  0  0  0  0  0  0  0  0  0  0
  138.0350   77.1816  223.1275 H   0  0  0  0  0  0  0  0  0  0  0  0
  140.7866   72.2605  221.9311 H   0  0  0  0  0  0  0  0  0  0  0  0
  142.9900   71.5393  220.9574 H   0  0  0  0  0  0  0  0  0  0  0  0
  143.7612   75.6463  219.8252 H   0  0  0  0  0  0  0  0  0  0  0  0
  140.2632   78.8119  220.4568 H   0  0  0  0  0  0  0  0  0  0  0  0
  138.6985   78.2779  221.2574 H   0  0  0  0  0  0  0  0  0  0  0  0
  139.2388   79.1372  223.2088 H   0  0  0  0  0  0  0  0  0  0  0  0
  140.9268   77.6889  223.9306 H   0  0  0  0  0  0  0  0  0  0  0  0
  141.9005   77.9447  222.4263 H   0  0  0  0  0  0  0  0  0  0  0  0
  141.6026   79.8659  224.7626 H   0  0  0  0  0  0  0  0  0  0  0  0
  143.0641   78.8748  224.2973 H   0  0  0  0  0  0  0  0  0  0  0  0
  142.6846   81.4647  223.6446 H   0  0  0  0  0  0  0  0  0  0  0  0
  143.6878   80.2592  222.7217 H   0  0  0  0  0  0  0  0  0  0  0  0
  141.9633   81.7381  221.4092 H   0  0  0  0  0  0  0  0  0  0  0  0
  142.0602   80.0152  221.0307 H   0  0  0  0  0  0  0  0  0  0  0  0
  140.2334   81.1300  223.2440 H   0  0  0  0  0  0  0  0  0  0  0  0
  139.6784   80.9508  221.5519 H   0  0  0  0  0  0  0  0  0  0  0  0
  135.8791   77.0594  224.0909 H   0  0  0  0  0  0  0  0  0  0  0  0
  134.2254   76.4099  225.7836 H   0  0  0  0  0  0  0  0  0  0  0  0
  1  2  1  0
  2  3  2  0
  2  4  2  0
  2  5  1  0
  5  6  2  0
  6  7  1  0
  7  8  2  0
  8  9  1  0
  9 10  2  0
 10 11  1  0
 11 12  2  0
 12 13  1  0
 13 14  2  0
 14 15  1  0
 15 16  2  0
 16 17  1  0
 16 18  1  0
 18 19  2  0
 19 20  1  0
 20 21  2  0
 20 22  1  0
 22 23  1  0
 23 24  1  0
 24 25  1  0
 25 26  1  0
 26 27  1  0
 27 28  1  0
 28 29  1  0
  8 30  1  0
 30 31  2  0
 31  5  1  0
 22 11  1  0
 29 24  1  0
 19 13  1  0
  1 32  1  0
  1 33  1  0
  1 34  1  0
  6 35  1  0
  7 36  1  0
  9 37  1  0
 10 38  1  0
 14 39  1  0
 15 40  1  0
 18 41  1  0
 23 42  1  0
 23 43  1  0
 24 44  1  0
 25 45  1  0
 25 46  1  0
 26 47  1  0
 26 48  1  0
 27 49  1  0
 27 50  1  0
 28 51  1  0
 28 52  1  0
 29 53  1  0
 29 54  1  0
 30 55  1  0
 31 56  1  0
M  END
>  <smiles>  (25) 
CS(=O)(=O)c1ccc(/C=C/c2nc3ccc(F)cc3c(=O)n2CC2CCCCC2)cc1

>  <score_type>  (25) 
oracle

>  <origin>  (25) 
autodockgpu

>  <m_score__min__energy>  (25) 
-9.1400000000000006

>  <m_primary>  (25) 
energy

>  <rmsd>  (25) 
7.15197104826024

>  <m_score__min__rmsd>  (25) 
7.15197104826024

>  <meeko>  (25) 
{"free_energy": -8.41, "intermolecular_energy": -10.2, "internal_energy": -1.32, "cluster_size": 8, "cluster_id": 3, "rank_in_cluster": 4}

>  <energy>  (25) 
-8.13

>  <cluster_rmsd>  (25) 
0.73

>  <cluster>  (25) 
2

$$$$

     RDKit          3D

 56 59  0  0  0  0  0  0  0  0999 V2000
  131.8200   72.6640  225.7340 C   0  0  0  0  0  0  0  0  0  0  0  0
  133.2890   73.3420  226.4640 S   0  0  0  0  0  0  0  0  0  0  0  0
  133.8930   72.2750  227.3370 O   0  0  0  0  0  0  0  0  0  0  0  0
  132.8960   74.4860  227.3770 O   0  0  0  0  0  0  0  0  0  0  0  0
  134.4040   73.9160  225.2470 C   0  0  0  0  0  0  0  0  0  0  0  0
  134.9050   75.1910  225.3490 C   0  0  0  0  0  0  0  0  0  0  0  0
  135.7840   75.6830  224.4130 C   0  0  0  0  0  0  0  0  0  0  0  0
  136.2140   74.9220  223.3210 C   0  0  0  0  0  0  0  0  0  0  0  0
  137.1470   75.4680  222.3430 C   0  0  0  0  0  0  0  0  0  0  0  0
  138.1740   76.2290  222.6340 C   0  0  0  0  0  0  0  0  0  0  0  0
  139.4710   75.9610  222.0250 C   0  0  0  0  0  0  0  0  0  0  0  0
  139.9160   74.6790  221.9970 N   0  0  0  0  0  0  0  0  0  0  0  0
  141.0720   74.2940  221.4750 C   0  0  0  0  0  0  0  0  0  0  0  0
  141.4350   72.9630  221.4940 C   0  0  0  0  0  0  0  0  0  0  0  0
  142.6550   72.5660  220.9420 C   0  0  0  0  0  0  0  0  0  0  0  0
  143.4680   73.5500  220.3830 C   0  0  0  0  0  0  0  0  0  0  0  0
  144.6460   73.1230  219.8570 F   0  0  0  0  0  0  0  0  0  0  0  0
  143.0910   74.8860  220.3700 C   0  0  0  0  0  0  0  0  0  0  0  0
  141.8840   75.2610  220.9190 C   0  0  0  0  0  0  0  0  0  0  0  0
  141.4340   76.5650  220.9480 C   0  0  0  0  0  0  0  0  0  0  0  0
  142.2180   77.4240  220.4240 O   0  0  0  0  0  0  0  0  0  0  0  0
  140.2470   76.9230  221.4900 N   0  0  0  0  0  0  0  0  0  0  0  0
  139.8010   78.2900  221.4930 C   0  0  0  0  0  0  0  0  0  0  0  0
  140.0860   79.0430  222.7630 C   0  0  0  0  0  0  0  0  0  0  0  0
  141.4490   78.5790  223.2380 C   0  0  0  0  0  0  0  0  0  0  0  0
  142.1780   79.6800  223.9790 C   0  0  0  0  0  0  0  0  0  0  0  0
  142.3330   80.9330  223.1790 C   0  0  0  0  0  0  0  0  0  0  0  0
  141.3120   81.0380  222.0540 C   0  0  0  0  0  0  0  0  0  0  0  0
  140.0060   80.5270  222.6480 C   0  0  0  0  0  0  0  0  0  0  0  0
  135.6940   73.6490  223.2470 C   0  0  0  0  0  0  0  0  0  0  0  0
  134.8090   73.1440  224.1820 C   0  0  0  0  0  0  0  0  0  0  0  0
  131.1293   72.3452  226.5285 H   0  0  0  0  0  0  0  0  0  0  0  0
  131.3338   73.4288  225.1105 H   0  0  0  0  0  0  0  0  0  0  0  0
  132.0866   71.7978  225.1105 H   0  0  0  0  0  0  0  0  0  0  0  0
  134.5985   75.8278  226.1919 H   0  0  0  0  0  0  0  0  0  0  0  0
  136.1618   76.7098  224.5268 H   0  0  0  0  0  0  0  0  0  0  0  0
  136.9769   75.2237  221.2840 H   0  0  0  0  0  0  0  0  0  0  0  0
  138.0573   77.0678  223.3360 H   0  0  0  0  0  0  0  0  0  0  0  0
  140.7645   72.2156  221.9433 H   0  0  0  0  0  0  0  0  0  0  0  0
  142.9642   71.5104  220.9483 H   0  0  0  0  0  0  0  0  0  0  0  0
  143.7532   75.6423  219.9232 H   0  0  0  0  0  0  0  0  0  0  0  0
  140.2998   78.8146  220.6647 H   0  0  0  0  0  0  0  0  0  0  0  0
  138.7063   78.2590  221.3902 H   0  0  0  0  0  0  0  0  0  0  0  0
  139.2970   78.8159  223.4950 H   0  0  0  0  0  0  0  0  0  0  0  0
  141.3200   77.7187  223.9112 H   0  0  0  0  0  0  0  0  0  0  0  0
  142.0463   78.2986  222.3579 H   0  0  0  0  0  0  0  0  0  0  0  0
  141.6140   79.9176  224.8931 H   0  0  0  0  0  0  0  0  0  0  0  0
  143.1896   79.3083  224.1990 H   0  0  0  0  0  0  0  0  0  0  0  0
  142.2094   81.7966  223.8490 H   0  0  0  0  0  0  0  0  0  0  0  0
  143.3331   80.9152  222.7214 H   0  0  0  0  0  0  0  0  0  0  0  0
  141.2041   82.0830  221.7278 H   0  0  0  0  0  0  0  0  0  0  0  0
  141.6150   80.4583  221.1696 H   0  0  0  0  0  0  0  0  0  0  0  0
  139.8538   80.9685  223.6440 H   0  0  0  0  0  0  0  0  0  0  0  0
  139.1623   80.8094  222.0011 H   0  0  0  0  0  0  0  0  0  0  0  0
  135.9958   73.0056  222.4073 H   0  0  0  0  0  0  0  0  0  0  0  0
  134.4262   72.1184  224.0738 H   0  0  0  0  0  0  0  0  0  0  0  0
  1  2  1  0
  2  3  2  0
  2  4  2  0
  2  5  1  0
  5  6  2  0
  6  7  1  0
  7  8  2  0
  8  9  1  0
  9 10  2  0
 10 11  1  0
 11 12  2  0
 12 13  1  0
 13 14  2  0
 14 15  1  0
 15 16  2  0
 16 17  1  0
 16 18  1  0
 18 19  2  0
 19 20  1  0
 20 21  2  0
 20 22  1  0
 22 23  1  0
 23 24  1  0
 24 25  1  0
 25 26  1  0
 26 27  1  0
 27 28  1  0
 28 29  1  0
  8 30  1  0
 30 31  2  0
 31  5  1  0
 22 11  1  0
 29 24  1  0
 19 13  1  0
  1 32  1  0
  1 33  1  0
  1 34  1  0
  6 35  1  0
  7 36  1  0
  9 37  1  0
 10 38  1  0
 14 39  1  0
 15 40  1  0
 18 41  1  0
 23 42  1  0
 23 43  1  0
 24 44  1  0
 25 45  1  0
 25 46  1  0
 26 47  1  0
 26 48  1  0
 27 49  1  0
 27 50  1  0
 28 51  1  0
 28 52  1  0
 29 53  1  0
 29 54  1  0
 30 55  1  0
 31 56  1  0
M  END
>  <smiles>  (26) 
CS(=O)(=O)c1ccc(/C=C/c2nc3ccc(F)cc3c(=O)n2CC2CCCCC2)cc1

>  <score_type>  (26) 
oracle

>  <origin>  (26) 
autodockgpu

>  <m_score__min__energy>  (26) 
-9.1400000000000006

>  <m_primary>  (26) 
energy

>  <rmsd>  (26) 
7.221671726659608

>  <m_score__min__rmsd>  (26) 
7.221671726659608

>  <meeko>  (26) 
{"free_energy": -8.44, "intermolecular_energy": -10.23, "internal_energy": -1.29, "cluster_size": 8, "cluster_id": 3, "rank_in_cluster": 2}

>  <energy>  (26) 
-8.44

>  <cluster_rmsd>  (26) 
0.0

>  <cluster>  (26) 
3

$$$$

     RDKit          3D

 56 59  0  0  0  0  0  0  0  0999 V2000
  139.8190   68.2350  226.5510 C   0  0  0  0  0  0  0  0  0  0  0  0
  138.9860   68.4090  224.9930 S   0  0  0  0  0  0  0  0  0  0  0  0
  137.5160   68.5600  225.2810 O   0  0  0  0  0  0  0  0  0  0  0  0
  139.1490   67.1230  224.2070 O   0  0  0  0  0  0  0  0  0  0  0  0
  139.6250   69.7490  224.0710 C   0  0  0  0  0  0  0  0  0  0  0  0
  140.1900   70.8090  224.7380 C   0  0  0  0  0  0  0  0  0  0  0  0
  140.7050   71.8830  224.0520 C   0  0  0  0  0  0  0  0  0  0  0  0
  140.6830   71.9580  222.6560 C   0  0  0  0  0  0  0  0  0  0  0  0
  141.2350   73.1090  221.9540 C   0  0  0  0  0  0  0  0  0  0  0  0
  140.5530   73.8960  221.1580 C   0  0  0  0  0  0  0  0  0  0  0  0
  140.9340   75.2980  221.0230 C   0  0  0  0  0  0  0  0  0  0  0  0
  140.5960   76.1550  222.0180 N   0  0  0  0  0  0  0  0  0  0  0  0
  140.8790   77.4490  222.0260 C   0  0  0  0  0  0  0  0  0  0  0  0
  140.4920   78.2410  223.0890 C   0  0  0  0  0  0  0  0  0  0  0  0
  140.7940   79.6040  223.0890 C   0  0  0  0  0  0  0  0  0  0  0  0
  141.4890   80.1170  221.9950 C   0  0  0  0  0  0  0  0  0  0  0  0
  141.7630   81.4480  222.0330 F   0  0  0  0  0  0  0  0  0  0  0  0
  141.8730   79.3110  220.9320 C   0  0  0  0  0  0  0  0  0  0  0  0
  141.5670   77.9670  220.9480 C   0  0  0  0  0  0  0  0  0  0  0  0
  141.9100   77.0970  219.9340 C   0  0  0  0  0  0  0  0  0  0  0  0
  142.5440   77.6200  218.9570 O   0  0  0  0  0  0  0  0  0  0  0  0
  141.6050   75.7800  219.9590 N   0  0  0  0  0  0  0  0  0  0  0  0
  141.9880   74.8960  218.8920 C   0  0  0  0  0  0  0  0  0  0  0  0
  143.4540   74.5640  218.8430 C   0  0  0  0  0  0  0  0  0  0  0  0
  144.0240   74.9460  220.1950 C   0  0  0  0  0  0  0  0  0  0  0  0
  145.1830   74.0500  220.5770 C   0  0  0  0  0  0  0  0  0  0  0  0
  144.8340   72.5960  220.5800 C   0  0  0  0  0  0  0  0  0  0  0  0
  143.6170   72.2860  219.7200 C   0  0  0  0  0  0  0  0  0  0  0  0
  143.7700   73.1530  218.4780 C   0  0  0  0  0  0  0  0  0  0  0  0
  140.1100   70.8800  222.0160 C   0  0  0  0  0  0  0  0  0  0  0  0
  139.5900   69.7940  222.6960 C   0  0  0  0  0  0  0  0  0  0  0  0
  139.1001   68.3852  227.3699 H   0  0  0  0  0  0  0  0  0  0  0  0
  140.2529   67.2268  226.6242 H   0  0  0  0  0  0  0  0  0  0  0  0
  140.6202   68.9852  226.6242 H   0  0  0  0  0  0  0  0  0  0  0  0
  140.2308   70.7980  225.8372 H   0  0  0  0  0  0  0  0  0  0  0  0
  141.1500   72.7125  224.6212 H   0  0  0  0  0  0  0  0  0  0  0  0
  142.3014   73.3339  222.1027 H   0  0  0  0  0  0  0  0  0  0  0  0
  139.6958   73.5006  220.5933 H   0  0  0  0  0  0  0  0  0  0  0  0
  139.9462   77.7982  223.9352 H   0  0  0  0  0  0  0  0  0  0  0  0
  140.4932   80.2522  223.9253 H   0  0  0  0  0  0  0  0  0  0  0  0
  142.4192   79.7430  220.0805 H   0  0  0  0  0  0  0  0  0  0  0  0
  141.4281   73.9563  219.0086 H   0  0  0  0  0  0  0  0  0  0  0  0
  141.7589   75.4246  217.9549 H   0  0  0  0  0  0  0  0  0  0  0  0
  143.9196   75.1337  218.0253 H   0  0  0  0  0  0  0  0  0  0  0  0
  144.3748   75.9878  220.1545 H   0  0  0  0  0  0  0  0  0  0  0  0
  143.2327   74.8306  220.9503 H   0  0  0  0  0  0  0  0  0  0  0  0
  145.9998   74.2110  219.8580 H   0  0  0  0  0  0  0  0  0  0  0  0
  145.4743   74.3160  221.6038 H   0  0  0  0  0  0  0  0  0  0  0  0
  145.6925   72.0265  220.1944 H   0  0  0  0  0  0  0  0  0  0  0  0
  144.5922   72.3128  221.6151 H   0  0  0  0  0  0  0  0  0  0  0  0
  143.6001   71.2207  219.4463 H   0  0  0  0  0  0  0  0  0  0  0  0
  142.6764   72.4936  220.2512 H   0  0  0  0  0  0  0  0  0  0  0  0
  144.8031   73.0887  218.1057 H   0  0  0  0  0  0  0  0  0  0  0  0
  143.0859   72.8057  217.6897 H   0  0  0  0  0  0  0  0  0  0  0  0
  140.0644   70.8838  220.9170 H   0  0  0  0  0  0  0  0  0  0  0  0
  139.1450   68.9599  222.1337 H   0  0  0  0  0  0  0  0  0  0  0  0
  1  2  1  0
  2  3  2  0
  2  4  2  0
  2  5  1  0
  5  6  2  0
  6  7  1  0
  7  8  2  0
  8  9  1  0
  9 10  2  0
 10 11  1  0
 11 12  2  0
 12 13  1  0
 13 14  2  0
 14 15  1  0
 15 16  2  0
 16 17  1  0
 16 18  1  0
 18 19  2  0
 19 20  1  0
 20 21  2  0
 20 22  1  0
 22 23  1  0
 23 24  1  0
 24 25  1  0
 25 26  1  0
 26 27  1  0
 27 28  1  0
 28 29  1  0
  8 30  1  0
 30 31  2  0
 31  5  1  0
 22 11  1  0
 29 24  1  0
 19 13  1  0
  1 32  1  0
  1 33  1  0
  1 34  1  0
  6 35  1  0
  7 36  1  0
  9 37  1  0
 10 38  1  0
 14 39  1  0
 15 40  1  0
 18 41  1  0
 23 42  1  0
 23 43  1  0
 24 44  1  0
 25 45  1  0
 25 46  1  0
 26 47  1  0
 26 48  1  0
 27 49  1  0
 27 50  1  0
 28 51  1  0
 28 52  1  0
 29 53  1  0
 29 54  1  0
 30 55  1  0
 31 56  1  0
M  END
>  <smiles>  (27) 
CS(=O)(=O)c1ccc(/C=C/c2nc3ccc(F)cc3c(=O)n2CC2CCCCC2)cc1

>  <score_type>  (27) 
oracle

>  <origin>  (27) 
autodockgpu

>  <m_score__min__energy>  (27) 
-9.1400000000000006

>  <m_primary>  (27) 
energy

>  <rmsd>  (27) 
4.691934798783825

>  <m_score__min__rmsd>  (27) 
4.691934798783825

>  <meeko>  (27) 
{"free_energy": -7.58, "intermolecular_energy": -9.37, "internal_energy": -1.64, "cluster_size": 16, "cluster_id": 1, "rank_in_cluster": 16}

>  <energy>  (27) 
-8.44

>  <cluster_rmsd>  (27) 
0.15

>  <cluster>  (27) 
3

$$$$

     RDKit          3D

 56 59  0  0  0  0  0  0  0  0999 V2000
  139.7080   68.8720  228.3220 C   0  0  0  0  0  0  0  0  0  0  0  0
  140.0700   68.2060  226.7170 S   0  0  0  0  0  0  0  0  0  0  0  0
  139.1110   67.0730  226.4710 O   0  0  0  0  0  0  0  0  0  0  0  0
  141.4620   67.6060  226.7410 O   0  0  0  0  0  0  0  0  0  0  0  0
  139.9800   69.4350  225.4780 C   0  0  0  0  0  0  0  0  0  0  0  0
  139.0920   69.2750  224.4420 C   0  0  0  0  0  0  0  0  0  0  0  0
  138.9880   70.2170  223.4470 C   0  0  0  0  0  0  0  0  0  0  0  0
  139.7690   71.3770  223.4320 C   0  0  0  0  0  0  0  0  0  0  0  0
  139.6400   72.3600  222.3640 C   0  0  0  0  0  0  0  0  0  0  0  0
  140.5160   72.5430  221.4070 C   0  0  0  0  0  0  0  0  0  0  0  0
  140.9410   73.8940  221.0600 C   0  0  0  0  0  0  0  0  0  0  0  0
  140.6930   74.8930  221.9420 N   0  0  0  0  0  0  0  0  0  0  0  0
  141.0250   76.1620  221.7570 C   0  0  0  0  0  0  0  0  0  0  0  0
  140.7290   77.1070  222.7180 C   0  0  0  0  0  0  0  0  0  0  0  0
  141.0830   78.4430  222.5140 C   0  0  0  0  0  0  0  0  0  0  0  0
  141.7340   78.7700  221.3260 C   0  0  0  0  0  0  0  0  0  0  0  0
  142.0610   80.0800  221.1670 F   0  0  0  0  0  0  0  0  0  0  0  0
  142.0270   77.8100  220.3680 C   0  0  0  0  0  0  0  0  0  0  0  0
  141.6710   76.4970  220.5840 C   0  0  0  0  0  0  0  0  0  0  0  0
  141.9240   75.4810  219.6840 C   0  0  0  0  0  0  0  0  0  0  0  0
  142.5210   75.8370  218.6150 O   0  0  0  0  0  0  0  0  0  0  0  0
  141.5700   74.1950  219.9070 N   0  0  0  0  0  0  0  0  0  0  0  0
  141.8590   73.1580  218.9540 C   0  0  0  0  0  0  0  0  0  0  0  0
  143.1790   72.4650  219.1560 C   0  0  0  0  0  0  0  0  0  0  0  0
  144.1600   73.1330  218.2120 C   0  0  0  0  0  0  0  0  0  0  0  0
  145.5650   73.1180  218.7770 C   0  0  0  0  0  0  0  0  0  0  0  0
  145.6680   73.7510  220.1270 C   0  0  0  0  0  0  0  0  0  0  0  0
  144.3330   73.7890  220.8590 C   0  0  0  0  0  0  0  0  0  0  0  0
  143.6740   72.4490  220.5620 C   0  0  0  0  0  0  0  0  0  0  0  0
  140.6500   71.5080  224.4840 C   0  0  0  0  0  0  0  0  0  0  0  0
  140.7620   70.5670  225.4900 C   0  0  0  0  0  0  0  0  0  0  0  0
  140.0811   68.1857  229.0964 H   0  0  0  0  0  0  0  0  0  0  0  0
  140.1984   69.8505  228.4321 H   0  0  0  0  0  0  0  0  0  0  0  0
  138.6202   68.9926  228.4321 H   0  0  0  0  0  0  0  0  0  0  0  0
  138.4545   68.3792  224.4085 H   0  0  0  0  0  0  0  0  0  0  0  0
  138.2654   70.0530  222.6341 H   0  0  0  0  0  0  0  0  0  0  0  0
  138.7416   72.9947  222.3610 H   0  0  0  0  0  0  0  0  0  0  0  0
  140.9301   71.6791  220.8664 H   0  0  0  0  0  0  0  0  0  0  0  0
  140.2149   76.8087  223.6436 H   0  0  0  0  0  0  0  0  0  0  0  0
  140.8552   79.2120  223.2668 H   0  0  0  0  0  0  0  0  0  0  0  0
  142.5418   78.0965  219.4391 H   0  0  0  0  0  0  0  0  0  0  0  0
  141.0624   72.4022  219.0187 H   0  0  0  0  0  0  0  0  0  0  0  0
  141.9139   73.6479  217.9706 H   0  0  0  0  0  0  0  0  0  0  0  0
  143.0569   71.3950  218.9320 H   0  0  0  0  0  0  0  0  0  0  0  0
  144.1544   72.5971  217.2514 H   0  0  0  0  0  0  0  0  0  0  0  0
  143.8520   74.1801  218.0754 H   0  0  0  0  0  0  0  0  0  0  0  0
  145.8982   72.0726  218.8556 H   0  0  0  0  0  0  0  0  0  0  0  0
  146.1963   73.7050  218.0938 H   0  0  0  0  0  0  0  0  0  0  0  0
  146.3852   73.1766  220.7317 H   0  0  0  0  0  0  0  0  0  0  0  0
  145.9992   74.7901  219.9835 H   0  0  0  0  0  0  0  0  0  0  0  0
  144.4901   73.9098  221.9410 H   0  0  0  0  0  0  0  0  0  0  0  0
  143.7096   74.6342  220.5317 H   0  0  0  0  0  0  0  0  0  0  0  0
  144.4076   71.6391  220.6876 H   0  0  0  0  0  0  0  0  0  0  0  0
  142.8358   72.2803  221.2541 H   0  0  0  0  0  0  0  0  0  0  0  0
  141.2919   72.4004  224.5246 H   0  0  0  0  0  0  0  0  0  0  0  0
  141.4819   70.7243  226.3067 H   0  0  0  0  0  0  0  0  0  0  0  0
  1  2  1  0
  2  3  2  0
  2  4  2  0
  2  5  1  0
  5  6  2  0
  6  7  1  0
  7  8  2  0
  8  9  1  0
  9 10  2  0
 10 11  1  0
 11 12  2  0
 12 13  1  0
 13 14  2  0
 14 15  1  0
 15 16  2  0
 16 17  1  0
 16 18  1  0
 18 19  2  0
 19 20  1  0
 20 21  2  0
 20 22  1  0
 22 23  1  0
 23 24  1  0
 24 25  1  0
 25 26  1  0
 26 27  1  0
 27 28  1  0
 28 29  1  0
  8 30  1  0
 30 31  2  0
 31  5  1  0
 22 11  1  0
 29 24  1  0
 19 13  1  0
  1 32  1  0
  1 33  1  0
  1 34  1  0
  6 35  1  0
  7 36  1  0
  9 37  1  0
 10 38  1  0
 14 39  1  0
 15 40  1  0
 18 41  1  0
 23 42  1  0
 23 43  1  0
 24 44  1  0
 25 45  1  0
 25 46  1  0
 26 47  1  0
 26 48  1  0
 27 49  1  0
 27 50  1  0
 28 51  1  0
 28 52  1  0
 29 53  1  0
 29 54  1  0
 30 55  1  0
 31 56  1  0
M  END
>  <smiles>  (28) 
CS(=O)(=O)c1ccc(/C=C/c2nc3ccc(F)cc3c(=O)n2CC2CCCCC2)cc1

>  <score_type>  (28) 
oracle

>  <origin>  (28) 
autodockgpu

>  <m_score__min__energy>  (28) 
-9.1400000000000006

>  <m_primary>  (28) 
energy

>  <rmsd>  (28) 
5.542653766191982

>  <m_score__min__rmsd>  (28) 
5.542653766191982

>  <meeko>  (28) 
{"free_energy": -8.7, "intermolecular_energy": -10.48, "internal_energy": -1.56, "cluster_size": 16, "cluster_id": 1, "rank_in_cluster": 10}

>  <energy>  (28) 
-8.41

>  <cluster_rmsd>  (28) 
0.22

>  <cluster>  (28) 
3

$$$$

     RDKit          3D

 56 59  0  0  0  0  0  0  0  0999 V2000
  139.9930   68.9360  227.9000 C   0  0  0  0  0  0  0  0  0  0  0  0
  140.1960   68.3410  226.2400 S   0  0  0  0  0  0  0  0  0  0  0  0
  139.1320   67.3040  225.9990 O   0  0  0  0  0  0  0  0  0  0  0  0
  141.5320   67.6330  226.1360 O   0  0  0  0  0  0  0  0  0  0  0  0
  140.1290   69.6450  225.0790 C   0  0  0  0  0  0  0  0  0  0  0  0
  140.7260   70.8440  225.3870 C   0  0  0  0  0  0  0  0  0  0  0  0
  140.6980   71.8970  224.5030 C   0  0  0  0  0  0  0  0  0  0  0  0
  140.0690   71.8080  223.2570 C   0  0  0  0  0  0  0  0  0  0  0  0
  140.0530   72.9390  222.3390 C   0  0  0  0  0  0  0  0  0  0  0  0
  141.0410   73.2700  221.5440 C   0  0  0  0  0  0  0  0  0  0  0  0
  141.2770   74.6730  221.2240 C   0  0  0  0  0  0  0  0  0  0  0  0
  140.9160   75.6110  222.1360 N   0  0  0  0  0  0  0  0  0  0  0  0
  141.0740   76.9160  221.9780 C   0  0  0  0  0  0  0  0  0  0  0  0
  140.6750   77.7920  222.9670 C   0  0  0  0  0  0  0  0  0  0  0  0
  140.8440   79.1670  222.7920 C   0  0  0  0  0  0  0  0  0  0  0  0
  141.4230   79.6040  221.6020 C   0  0  0  0  0  0  0  0  0  0  0  0
  141.5710   80.9490  221.4700 F   0  0  0  0  0  0  0  0  0  0  0  0
  141.8210   78.7140  220.6140 C   0  0  0  0  0  0  0  0  0  0  0  0
  141.6460   77.3600  220.8030 C   0  0  0  0  0  0  0  0  0  0  0  0
  142.0130   76.4090  219.8740 C   0  0  0  0  0  0  0  0  0  0  0  0
  142.5370   76.8650  218.8040 O   0  0  0  0  0  0  0  0  0  0  0  0
  141.8370   75.0820  220.0690 N   0  0  0  0  0  0  0  0  0  0  0  0
  142.2410   74.1140  219.0860 C   0  0  0  0  0  0  0  0  0  0  0  0
  143.7240   73.8760  219.0070 C   0  0  0  0  0  0  0  0  0  0  0  0
  144.3480   74.6980  220.1190 C   0  0  0  0  0  0  0  0  0  0  0  0
  145.6050   74.0410  220.6500 C   0  0  0  0  0  0  0  0  0  0  0  0
  145.3860   72.6420  221.1300 C   0  0  0  0  0  0  0  0  0  0  0  0
  144.1450   72.0030  220.5230 C   0  0  0  0  0  0  0  0  0  0  0  0
  144.1370   72.4450  219.0660 C   0  0  0  0  0  0  0  0  0  0  0  0
  139.4800   70.5940  222.9780 C   0  0  0  0  0  0  0  0  0  0  0  0
  139.5030   69.5290  223.8590 C   0  0  0  0  0  0  0  0  0  0  0  0
  140.2642   68.1410  228.6102 H   0  0  0  0  0  0  0  0  0  0  0  0
  140.6445   69.8079  228.0592 H   0  0  0  0  0  0  0  0  0  0  0  0
  138.9444   69.2278  228.0592 H   0  0  0  0  0  0  0  0  0  0  0  0
  141.2340   70.9632  226.3554 H   0  0  0  0  0  0  0  0  0  0  0  0
  141.1868   72.8411  224.7854 H   0  0  0  0  0  0  0  0  0  0  0  0
  139.1457   73.5604  222.3110 H   0  0  0  0  0  0  0  0  0  0  0  0
  141.6910   72.4910  221.1190 H   0  0  0  0  0  0  0  0  0  0  0  0
  140.2238   77.4069  223.8933 H   0  0  0  0  0  0  0  0  0  0  0  0
  140.5306   79.8814  223.5675 H   0  0  0  0  0  0  0  0  0  0  0  0
  142.2742   79.0878  219.6840 H   0  0  0  0  0  0  0  0  0  0  0  0
  141.7534   73.1578  219.3268 H   0  0  0  0  0  0  0  0  0  0  0  0
  141.9404   74.5208  218.1092 H   0  0  0  0  0  0  0  0  0  0  0  0
  144.0819   74.1886  218.0149 H   0  0  0  0  0  0  0  0  0  0  0  0
  144.6020   75.6945  219.7287 H   0  0  0  0  0  0  0  0  0  0  0  0
  143.6226   74.7758  220.9422 H   0  0  0  0  0  0  0  0  0  0  0  0
  146.3544   74.0202  219.8450 H   0  0  0  0  0  0  0  0  0  0  0  0
  145.9403   74.6324  221.5147 H   0  0  0  0  0  0  0  0  0  0  0  0
  146.2629   72.0353  220.8596 H   0  0  0  0  0  0  0  0  0  0  0  0
  145.2412   72.6822  222.2197 H   0  0  0  0  0  0  0  0  0  0  0  0
  144.2029   70.9067  220.5927 H   0  0  0  0  0  0  0  0  0  0  0  0
  143.2281   72.3075  221.0489 H   0  0  0  0  0  0  0  0  0  0  0  0
  145.1442   72.3318  218.6386 H   0  0  0  0  0  0  0  0  0  0  0  0
  143.4342   71.8263  218.4888 H   0  0  0  0  0  0  0  0  0  0  0  0
  138.9692   70.4668  222.0121 H   0  0  0  0  0  0  0  0  0  0  0  0
  139.0172   68.5815  223.5827 H   0  0  0  0  0  0  0  0  0  0  0  0
  1  2  1  0
  2  3  2  0
  2  4  2  0
  2  5  1  0
  5  6  2  0
  6  7  1  0
  7  8  2  0
  8  9  1  0
  9 10  2  0
 10 11  1  0
 11 12  2  0
 12 13  1  0
 13 14  2  0
 14 15  1  0
 15 16  2  0
 16 17  1  0
 16 18  1  0
 18 19  2  0
 19 20  1  0
 20 21  2  0
 20 22  1  0
 22 23  1  0
 23 24  1  0
 24 25  1  0
 25 26  1  0
 26 27  1  0
 27 28  1  0
 28 29  1  0
  8 30  1  0
 30 31  2  0
 31  5  1  0
 22 11  1  0
 29 24  1  0
 19 13  1  0
  1 32  1  0
  1 33  1  0
  1 34  1  0
  6 35  1  0
  7 36  1  0
  9 37  1  0
 10 38  1  0
 14 39  1  0
 15 40  1  0
 18 41  1  0
 23 42  1  0
 23 43  1  0
 24 44  1  0
 25 45  1  0
 25 46  1  0
 26 47  1  0
 26 48  1  0
 27 49  1  0
 27 50  1  0
 28 51  1  0
 28 52  1  0
 29 53  1  0
 29 54  1  0
 30 55  1  0
 31 56  1  0
M  END
>  <smiles>  (29) 
CS(=O)(=O)c1ccc(/C=C/c2nc3ccc(F)cc3c(=O)n2CC2CCCCC2)cc1

>  <score_type>  (29) 
oracle

>  <origin>  (29) 
autodockgpu

>  <m_score__min__energy>  (29) 
-9.1400000000000006

>  <m_primary>  (29) 
energy

>  <rmsd>  (29) 
5.138802110775766

>  <m_score__min__rmsd>  (29) 
5.138802110775766

>  <meeko>  (29) 
{"free_energy": -8.9, "intermolecular_energy": -10.68, "internal_energy": -1.4, "cluster_size": 16, "cluster_id": 1, "rank_in_cluster": 3}

>  <energy>  (29) 
-8.41

>  <cluster_rmsd>  (29) 
0.26

>  <cluster>  (29) 
3

$$$$

     RDKit          3D

 56 59  0  0  0  0  0  0  0  0999 V2000
  141.4380   79.3100  220.7800 C   0  0  0  0  0  0  0  0  0  0  0  0
  140.5790   78.7820  222.2410 S   0  0  0  0  0  0  0  0  0  0  0  0
  139.3870   79.6850  222.4150 O   0  0  0  0  0  0  0  0  0  0  0  0
  141.4770   79.0020  223.4410 O   0  0  0  0  0  0  0  0  0  0  0  0
  140.1280   77.0960  222.1440 C   0  0  0  0  0  0  0  0  0  0  0  0
  141.0760   76.1720  221.7790 C   0  0  0  0  0  0  0  0  0  0  0  0
  140.7650   74.8350  221.6900 C   0  0  0  0  0  0  0  0  0  0  0  0
  139.4830   74.3480  221.9650 C   0  0  0  0  0  0  0  0  0  0  0  0
  139.1790   72.9270  221.8630 C   0  0  0  0  0  0  0  0  0  0  0  0
  140.0480   71.9620  222.0420 C   0  0  0  0  0  0  0  0  0  0  0  0
  139.9600   71.1150  223.2260 C   0  0  0  0  0  0  0  0  0  0  0  0
  140.4780   71.5810  224.3900 N   0  0  0  0  0  0  0  0  0  0  0  0
  140.4640   70.9200  225.5380 C   0  0  0  0  0  0  0  0  0  0  0  0
  141.0170   71.4810  226.6720 C   0  0  0  0  0  0  0  0  0  0  0  0
  141.0000   70.7770  227.8780 C   0  0  0  0  0  0  0  0  0  0  0  0
  140.4110   69.5140  227.8860 C   0  0  0  0  0  0  0  0  0  0  0  0
  140.4140   68.8630  229.0790 F   0  0  0  0  0  0  0  0  0  0  0  0
  139.8580   68.9600  226.7390 C   0  0  0  0  0  0  0  0  0  0  0  0
  139.8840   69.6680  225.5570 C   0  0  0  0  0  0  0  0  0  0  0  0
  139.3580   69.1920  224.3740 C   0  0  0  0  0  0  0  0  0  0  0  0
  138.8330   68.0310  224.4390 O   0  0  0  0  0  0  0  0  0  0  0  0
  139.3880   69.8960  223.2190 N   0  0  0  0  0  0  0  0  0  0  0  0
  138.8200   69.3760  222.0040 C   0  0  0  0  0  0  0  0  0  0  0  0
  137.3350   69.5710  221.8690 C   0  0  0  0  0  0  0  0  0  0  0  0
  136.6880   68.3040  222.3930 C   0  0  0  0  0  0  0  0  0  0  0  0
  135.3370   68.5910  223.0130 C   0  0  0  0  0  0  0  0  0  0  0  0
  135.3910   69.6080  224.1070 C   0  0  0  0  0  0  0  0  0  0  0  0
  136.6210   70.5010  224.0160 C   0  0  0  0  0  0  0  0  0  0  0  0
  136.7960   70.7930  222.5320 C   0  0  0  0  0  0  0  0  0  0  0  0
  138.5550   75.3000  222.3280 C   0  0  0  0  0  0  0  0  0  0  0  0
  138.8570   76.6450  222.4210 C   0  0  0  0  0  0  0  0  0  0  0  0
  142.3426   79.8660  221.0673 H   0  0  0  0  0  0  0  0  0  0  0  0
  141.7222   78.4304  220.1837 H   0  0  0  0  0  0  0  0  0  0  0  0
  140.7815   79.9607  220.1837 H   0  0  0  0  0  0  0  0  0  0  0  0
  142.0997   76.5061  221.5544 H   0  0  0  0  0  0  0  0  0  0  0  0
  141.5509   74.1251  221.3926 H   0  0  0  0  0  0  0  0  0  0  0  0
  138.1449   72.6431  221.6179 H   0  0  0  0  0  0  0  0  0  0  0  0
  140.8423   71.7914  221.3004 H   0  0  0  0  0  0  0  0  0  0  0  0
  141.4707   72.4820  226.6255 H   0  0  0  0  0  0  0  0  0  0  0  0
  141.4373   71.2055  228.7919 H   0  0  0  0  0  0  0  0  0  0  0  0
  139.4010   67.9600  226.7738 H   0  0  0  0  0  0  0  0  0  0  0  0
  139.3095   69.8766  221.1556 H   0  0  0  0  0  0  0  0  0  0  0  0
  138.9895   68.2893  222.0228 H   0  0  0  0  0  0  0  0  0  0  0  0
  137.0952   69.7465  220.8099 H   0  0  0  0  0  0  0  0  0  0  0  0
  136.5570   67.5978  221.5599 H   0  0  0  0  0  0  0  0  0  0  0  0
  137.3412   67.8759  223.1677 H   0  0  0  0  0  0  0  0  0  0  0  0
  134.6634   68.9608  222.2259 H   0  0  0  0  0  0  0  0  0  0  0  0
  134.9780   67.6519  223.4594 H   0  0  0  0  0  0  0  0  0  0  0  0
  134.4921   70.2391  224.0460 H   0  0  0  0  0  0  0  0  0  0  0  0
  135.4424   69.0665  225.0631 H   0  0  0  0  0  0  0  0  0  0  0  0
  136.4620   71.4342  224.5763 H   0  0  0  0  0  0  0  0  0  0  0  0
  137.5108   70.0189  224.4470 H   0  0  0  0  0  0  0  0  0  0  0  0
  135.8246   71.0575  222.0889 H   0  0  0  0  0  0  0  0  0  0  0  0
  137.4908   71.6344  222.3931 H   0  0  0  0  0  0  0  0  0  0  0  0
  137.5287   74.9747  222.5536 H   0  0  0  0  0  0  0  0  0  0  0  0
  138.0764   77.3606  222.7185 H   0  0  0  0  0  0  0  0  0  0  0  0
  1  2  1  0
  2  3  2  0
  2  4  2  0
  2  5  1  0
  5  6  2  0
  6  7  1  0
  7  8  2  0
  8  9  1  0
  9 10  2  0
 10 11  1  0
 11 12  2  0
 12 13  1  0
 13 14  2  0
 14 15  1  0
 15 16  2  0
 16 17  1  0
 16 18  1  0
 18 19  2  0
 19 20  1  0
 20 21  2  0
 20 22  1  0
 22 23  1  0
 23 24  1  0
 24 25  1  0
 25 26  1  0
 26 27  1  0
 27 28  1  0
 28 29  1  0
  8 30  1  0
 30 31  2  0
 31  5  1  0
 22 11  1  0
 29 24  1  0
 19 13  1  0
  1 32  1  0
  1 33  1  0
  1 34  1  0
  6 35  1  0
  7 36  1  0
  9 37  1  0
 10 38  1  0
 14 39  1  0
 15 40  1  0
 18 41  1  0
 23 42  1  0
 23 43  1  0
 24 44  1  0
 25 45  1  0
 25 46  1  0
 26 47  1  0
 26 48  1  0
 27 49  1  0
 27 50  1  0
 28 51  1  0
 28 52  1  0
 29 53  1  0
 29 54  1  0
 30 55  1  0
 31 56  1  0
M  END
>  <smiles>  (30) 
CS(=O)(=O)c1ccc(/C=C/c2nc3ccc(F)cc3c(=O)n2CC2CCCCC2)cc1

>  <score_type>  (30) 
oracle

>  <origin>  (30) 
autodockgpu

>  <m_score__min__energy>  (30) 
-9.1400000000000006

>  <m_primary>  (30) 
energy

>  <rmsd>  (30) 
11.096106047437134

>  <m_score__min__rmsd>  (30) 
11.096106047437134

>  <meeko>  (30) 
{"free_energy": -7.71, "intermolecular_energy": -9.5, "internal_energy": -1.66, "cluster_size": 3, "cluster_id": 6, "rank_in_cluster": 1}

>  <energy>  (30) 
-8.34

>  <cluster_rmsd>  (30) 
0.26

>  <cluster>  (30) 
3

$$$$

     RDKit          3D

 56 59  0  0  0  0  0  0  0  0999 V2000
  144.4130   68.4580  217.6780 C   0  0  0  0  0  0  0  0  0  0  0  0
  144.9580   69.3980  219.0810 S   0  0  0  0  0  0  0  0  0  0  0  0
  146.0470   70.3240  218.6080 O   0  0  0  0  0  0  0  0  0  0  0  0
  145.5880   68.4540  220.0850 O   0  0  0  0  0  0  0  0  0  0  0  0
  143.6340   70.2570  219.8300 C   0  0  0  0  0  0  0  0  0  0  0  0
  143.8970   71.4100  220.5300 C   0  0  0  0  0  0  0  0  0  0  0  0
  142.8850   72.1180  221.1350 C   0  0  0  0  0  0  0  0  0  0  0  0
  141.5490   71.7100  221.0730 C   0  0  0  0  0  0  0  0  0  0  0  0
  140.4950   72.4780  221.7240 C   0  0  0  0  0  0  0  0  0  0  0  0
  139.4400   71.9580  222.3010 C   0  0  0  0  0  0  0  0  0  0  0  0
  139.6010   71.0610  223.4400 C   0  0  0  0  0  0  0  0  0  0  0  0
  140.1120   71.5680  224.5900 N   0  0  0  0  0  0  0  0  0  0  0  0
  140.3100   70.8690  225.6980 C   0  0  0  0  0  0  0  0  0  0  0  0
  140.8360   71.4770  226.8200 C   0  0  0  0  0  0  0  0  0  0  0  0
  141.0420   70.7330  227.9840 C   0  0  0  0  0  0  0  0  0  0  0  0
  140.7000   69.3820  227.9620 C   0  0  0  0  0  0  0  0  0  0  0  0
  140.9160   68.6940  229.1140 F   0  0  0  0  0  0  0  0  0  0  0  0
  140.1720   68.7820  226.8270 C   0  0  0  0  0  0  0  0  0  0  0  0
  139.9750   69.5300  225.6870 C   0  0  0  0  0  0  0  0  0  0  0  0
  139.4560   69.0130  224.5180 C   0  0  0  0  0  0  0  0  0  0  0  0
  139.1620   67.7730  224.5540 O   0  0  0  0  0  0  0  0  0  0  0  0
  139.2670   69.7570  223.4040 N   0  0  0  0  0  0  0  0  0  0  0  0
  138.7130   69.1910  222.2040 C   0  0  0  0  0  0  0  0  0  0  0  0
  137.2340   69.4050  222.0300 C   0  0  0  0  0  0  0  0  0  0  0  0
  136.5840   68.0440  222.1840 C   0  0  0  0  0  0  0  0  0  0  0  0
  135.1940   68.1620  222.7730 C   0  0  0  0  0  0  0  0  0  0  0  0
  135.1620   68.8770  224.0840 C   0  0  0  0  0  0  0  0  0  0  0  0
  136.3770   69.7720  224.2920 C   0  0  0  0  0  0  0  0  0  0  0  0
  136.6330   70.4220  222.9390 C   0  0  0  0  0  0  0  0  0  0  0  0
  141.3180   70.5500  220.3650 C   0  0  0  0  0  0  0  0  0  0  0  0
  142.3270   69.8320  219.7520 C   0  0  0  0  0  0  0  0  0  0  0  0
  143.8891   67.5544  218.0231 H   0  0  0  0  0  0  0  0  0  0  0  0
  143.7290   69.0689  217.0706 H   0  0  0  0  0  0  0  0  0  0  0  0
  145.2830   68.1680  217.0706 H   0  0  0  0  0  0  0  0  0  0  0  0
  144.9328   71.7722  220.6076 H   0  0  0  0  0  0  0  0  0  0  0  0
  143.1350   73.0364  221.6864 H   0  0  0  0  0  0  0  0  0  0  0  0
  140.5924   73.5736  221.7314 H   0  0  0  0  0  0  0  0  0  0  0  0
  138.4337   72.1976  221.9269 H   0  0  0  0  0  0  0  0  0  0  0  0
  141.0927   72.5464  226.7975 H   0  0  0  0  0  0  0  0  0  0  0  0
  141.4606   71.1982  228.8887 H   0  0  0  0  0  0  0  0  0  0  0  0
  139.9119   67.7133  226.8378 H   0  0  0  0  0  0  0  0  0  0  0  0
  139.2277   69.6428  221.3432 H   0  0  0  0  0  0  0  0  0  0  0  0
  138.8621   68.1036  222.2770 H   0  0  0  0  0  0  0  0  0  0  0  0
  137.0521   69.8356  221.0343 H   0  0  0  0  0  0  0  0  0  0  0  0
  136.5151   67.5659  221.1958 H   0  0  0  0  0  0  0  0  0  0  0  0
  137.2002   67.4400  222.8662 H   0  0  0  0  0  0  0  0  0  0  0  0
  134.5596   68.7108  222.0614 H   0  0  0  0  0  0  0  0  0  0  0  0
  134.8305   67.1395  222.9528 H   0  0  0  0  0  0  0  0  0  0  0  0
  134.2553   69.4985  224.1245 H   0  0  0  0  0  0  0  0  0  0  0  0
  135.1679   68.1166  224.8788 H   0  0  0  0  0  0  0  0  0  0  0  0
  136.1661   70.5373  225.0535 H   0  0  0  0  0  0  0  0  0  0  0  0
  137.2497   69.2034  224.6457 H   0  0  0  0  0  0  0  0  0  0  0  0
  135.6841   70.7830  222.5156 H   0  0  0  0  0  0  0  0  0  0  0  0
  137.3182   71.2747  223.0549 H   0  0  0  0  0  0  0  0  0  0  0  0
  140.2853   70.1797  220.2845 H   0  0  0  0  0  0  0  0  0  0  0  0
  142.0839   68.9137  219.1974 H   0  0  0  0  0  0  0  0  0  0  0  0
  1  2  1  0
  2  3  2  0
  2  4  2  0
  2  5  1  0
  5  6  2  0
  6  7  1  0
  7  8  2  0
  8  9  1  0
  9 10  2  0
 10 11  1  0
 11 12  2  0
 12 13  1  0
 13 14  2  0
 14 15  1  0
 15 16  2  0
 16 17  1  0
 16 18  1  0
 18 19  2  0
 19 20  1  0
 20 21  2  0
 20 22  1  0
 22 23  1  0
 23 24  1  0
 24 25  1  0
 25 26  1  0
 26 27  1  0
 27 28  1  0
 28 29  1  0
  8 30  1  0
 30 31  2  0
 31  5  1  0
 22 11  1  0
 29 24  1  0
 19 13  1  0
  1 32  1  0
  1 33  1  0
  1 34  1  0
  6 35  1  0
  7 36  1  0
  9 37  1  0
 10 38  1  0
 14 39  1  0
 15 40  1  0
 18 41  1  0
 23 42  1  0
 23 43  1  0
 24 44  1  0
 25 45  1  0
 25 46  1  0
 26 47  1  0
 26 48  1  0
 27 49  1  0
 27 50  1  0
 28 51  1  0
 28 52  1  0
 29 53  1  0
 29 54  1  0
 30 55  1  0
 31 56  1  0
M  END
>  <smiles>  (31) 
CS(=O)(=O)c1ccc(/C=C/c2nc3ccc(F)cc3c(=O)n2CC2CCCCC2)cc1

>  <score_type>  (31) 
oracle

>  <origin>  (31) 
autodockgpu

>  <m_score__min__energy>  (31) 
-9.1400000000000006

>  <m_primary>  (31) 
energy

>  <rmsd>  (31) 
11.277653135008151

>  <m_score__min__rmsd>  (31) 
11.277653135008151

>  <meeko>  (31) 
{"free_energy": -7.8, "intermolecular_energy": -9.59, "internal_energy": -1.79, "cluster_size": 10, "cluster_id": 4, "rank_in_cluster": 8}

>  <energy>  (31) 
-8.29

>  <cluster_rmsd>  (31) 
0.2

>  <cluster>  (31) 
3

$$$$

     RDKit          3D

 56 59  0  0  0  0  0  0  0  0999 V2000
  141.5000   68.3890  226.4500 C   0  0  0  0  0  0  0  0  0  0  0  0
  139.7700   68.7200  226.2290 S   0  0  0  0  0  0  0  0  0  0  0  0
  139.2160   69.1340  227.5660 O   0  0  0  0  0  0  0  0  0  0  0  0
  139.0720   67.4310  225.8440 O   0  0  0  0  0  0  0  0  0  0  0  0
  139.5010   69.9270  224.9940 C   0  0  0  0  0  0  0  0  0  0  0  0
  138.3330   69.8930  224.2720 C   0  0  0  0  0  0  0  0  0  0  0  0
  138.0800   70.8230  223.2910 C   0  0  0  0  0  0  0  0  0  0  0  0
  138.9850   71.8430  222.9780 C   0  0  0  0  0  0  0  0  0  0  0  0
  138.6930   72.8150  221.9340 C   0  0  0  0  0  0  0  0  0  0  0  0
  139.1780   74.0320  221.8890 C   0  0  0  0  0  0  0  0  0  0  0  0
  140.5150   74.2620  221.3540 C   0  0  0  0  0  0  0  0  0  0  0  0
  141.4230   73.2580  221.4390 N   0  0  0  0  0  0  0  0  0  0  0  0
  142.6690   73.3290  220.9930 C   0  0  0  0  0  0  0  0  0  0  0  0
  143.5180   72.2500  221.1250 C   0  0  0  0  0  0  0  0  0  0  0  0
  144.8300   72.3340  220.6540 C   0  0  0  0  0  0  0  0  0  0  0  0
  145.2320   73.5270  220.0570 C   0  0  0  0  0  0  0  0  0  0  0  0
  146.5160   73.5680  219.6120 F   0  0  0  0  0  0  0  0  0  0  0  0
  144.3690   74.6060  219.9310 C   0  0  0  0  0  0  0  0  0  0  0  0
  143.0770   74.5070  220.4010 C   0  0  0  0  0  0  0  0  0  0  0  0
  142.1550   75.5300  220.3160 C   0  0  0  0  0  0  0  0  0  0  0  0
  142.5780   76.5990  219.7620 O   0  0  0  0  0  0  0  0  0  0  0  0
  140.8900   75.4220  220.7810 N   0  0  0  0  0  0  0  0  0  0  0  0
  139.9490   76.5030  220.6660 C   0  0  0  0  0  0  0  0  0  0  0  0
  139.9260   77.4470  221.8370 C   0  0  0  0  0  0  0  0  0  0  0  0
  141.0840   77.0470  222.7300 C   0  0  0  0  0  0  0  0  0  0  0  0
  141.6490   78.2430  223.4670 C   0  0  0  0  0  0  0  0  0  0  0  0
  142.0820   79.3490  222.5600 C   0  0  0  0  0  0  0  0  0  0  0  0
  141.4070   79.2860  221.1970 C   0  0  0  0  0  0  0  0  0  0  0  0
  139.9630   78.8940  221.4810 C   0  0  0  0  0  0  0  0  0  0  0  0
  140.1460   71.8490  223.7200 C   0  0  0  0  0  0  0  0  0  0  0  0
  140.4100   70.9190  224.7080 C   0  0  0  0  0  0  0  0  0  0  0  0
  141.7305   68.3449  227.5247 H   0  0  0  0  0  0  0  0  0  0  0  0
  141.7520   67.4264  225.9811 H   0  0  0  0  0  0  0  0  0  0  0  0
  142.0895   69.1906  225.9811 H   0  0  0  0  0  0  0  0  0  0  0  0
  137.5890   69.1103  224.4816 H   0  0  0  0  0  0  0  0  0  0  0  0
  137.1337   70.7629  222.7334 H   0  0  0  0  0  0  0  0  0  0  0  0
  138.0161   72.5056  221.1240 H   0  0  0  0  0  0  0  0  0  0  0  0
  138.5776   74.8783  222.2541 H   0  0  0  0  0  0  0  0  0  0  0  0
  143.1620   71.3243  221.6008 H   0  0  0  0  0  0  0  0  0  0  0  0
  145.5236   71.4858  220.7512 H   0  0  0  0  0  0  0  0  0  0  0  0
  144.7145   75.5370  219.4578 H   0  0  0  0  0  0  0  0  0  0  0  0
  140.2010   77.0816  219.7650 H   0  0  0  0  0  0  0  0  0  0  0  0
  138.9515   76.0415  220.6208 H   0  0  0  0  0  0  0  0  0  0  0  0
  138.9588   77.3515  222.3522 H   0  0  0  0  0  0  0  0  0  0  0  0
  140.7316   76.3075  223.4641 H   0  0  0  0  0  0  0  0  0  0  0  0
  141.8780   76.6211  222.0990 H   0  0  0  0  0  0  0  0  0  0  0  0
  140.8756   78.6314  224.1459 H   0  0  0  0  0  0  0  0  0  0  0  0
  142.5425   77.8984  224.0082 H   0  0  0  0  0  0  0  0  0  0  0  0
  141.8325   80.3104  223.0327 H   0  0  0  0  0  0  0  0  0  0  0  0
  143.1654   79.2445  222.4006 H   0  0  0  0  0  0  0  0  0  0  0  0
  141.4494   80.2666  220.7004 H   0  0  0  0  0  0  0  0  0  0  0  0
  141.9025   78.5680  220.5269 H   0  0  0  0  0  0  0  0  0  0  0  0
  139.5742   79.4920  222.3184 H   0  0  0  0  0  0  0  0  0  0  0  0
  139.3410   79.0792  220.5929 H   0  0  0  0  0  0  0  0  0  0  0  0
  140.8957   72.6280  223.5173 H   0  0  0  0  0  0  0  0  0  0  0  0
  141.3542   70.9726  225.2698 H   0  0  0  0  0  0  0  0  0  0  0  0
  1  2  1  0
  2  3  2  0
  2  4  2  0
  2  5  1  0
  5  6  2  0
  6  7  1  0
  7  8  2  0
  8  9  1  0
  9 10  2  0
 10 11  1  0
 11 12  2  0
 12 13  1  0
 13 14  2  0
 14 15  1  0
 15 16  2  0
 16 17  1  0
 16 18  1  0
 18 19  2  0
 19 20  1  0
 20 21  2  0
 20 22  1  0
 22 23  1  0
 23 24  1  0
 24 25  1  0
 25 26  1  0
 26 27  1  0
 27 28  1  0
 28 29  1  0
  8 30  1  0
 30 31  2  0
 31  5  1  0
 22 11  1  0
 29 24  1  0
 19 13  1  0
  1 32  1  0
  1 33  1  0
  1 34  1  0
  6 35  1  0
  7 36  1  0
  9 37  1  0
 10 38  1  0
 14 39  1  0
 15 40  1  0
 18 41  1  0
 23 42  1  0
 23 43  1  0
 24 44  1  0
 25 45  1  0
 25 46  1  0
 26 47  1  0
 26 48  1  0
 27 49  1  0
 27 50  1  0
 28 51  1  0
 28 52  1  0
 29 53  1  0
 29 54  1  0
 30 55  1  0
 31 56  1  0
M  END
>  <smiles>  (32) 
CS(=O)(=O)c1ccc(/C=C/c2nc3ccc(F)cc3c(=O)n2CC2CCCCC2)cc1

>  <score_type>  (32) 
oracle

>  <origin>  (32) 
autodockgpu

>  <m_score__min__energy>  (32) 
-9.1400000000000006

>  <m_primary>  (32) 
energy

>  <rmsd>  (32) 
7.340310249529645

>  <m_score__min__rmsd>  (32) 
7.340310249529645

>  <meeko>  (32) 
{"free_energy": -8.28, "intermolecular_energy": -10.07, "internal_energy": -1.57, "cluster_size": 9, "cluster_id": 2, "rank_in_cluster": 6}

>  <energy>  (32) 
-8.1

>  <cluster_rmsd>  (32) 
0.71

>  <cluster>  (32) 
3

$$$$

     RDKit          3D

 56 59  0  0  0  0  0  0  0  0999 V2000
  141.4140   68.0710  226.8340 C   0  0  0  0  0  0  0  0  0  0  0  0
  139.7820   68.6460  226.4370 S   0  0  0  0  0  0  0  0  0  0  0  0
  139.1920   69.2310  227.6920 O   0  0  0  0  0  0  0  0  0  0  0  0
  138.9240   67.4540  226.0620 O   0  0  0  0  0  0  0  0  0  0  0  0
  139.8090   69.7910  225.1170 C   0  0  0  0  0  0  0  0  0  0  0  0
  140.6390   70.8830  225.1980 C   0  0  0  0  0  0  0  0  0  0  0  0
  140.6920   71.8090  224.1830 C   0  0  0  0  0  0  0  0  0  0  0  0
  139.9150   71.6930  223.0260 C   0  0  0  0  0  0  0  0  0  0  0  0
  139.9900   72.6880  221.9650 C   0  0  0  0  0  0  0  0  0  0  0  0
  141.1020   73.1190  221.4210 C   0  0  0  0  0  0  0  0  0  0  0  0
  141.2680   74.5380  221.1320 C   0  0  0  0  0  0  0  0  0  0  0  0
  140.7010   75.4370  221.9760 N   0  0  0  0  0  0  0  0  0  0  0  0
  140.7740   76.7520  221.8350 C   0  0  0  0  0  0  0  0  0  0  0  0
  140.1630   77.5850  222.7500 C   0  0  0  0  0  0  0  0  0  0  0  0
  140.2440   78.9710  222.5940 C   0  0  0  0  0  0  0  0  0  0  0  0
  140.9550   79.4620  221.5010 C   0  0  0  0  0  0  0  0  0  0  0  0
  141.0100   80.8160  221.3850 F   0  0  0  0  0  0  0  0  0  0  0  0
  141.5650   78.6140  220.5870 C   0  0  0  0  0  0  0  0  0  0  0  0
  141.4750   77.2490  220.7550 C   0  0  0  0  0  0  0  0  0  0  0  0
  142.0510   76.3370  219.8950 C   0  0  0  0  0  0  0  0  0  0  0  0
  142.6880   76.8420  218.9120 O   0  0  0  0  0  0  0  0  0  0  0  0
  141.9570   74.9990  220.0700 N   0  0  0  0  0  0  0  0  0  0  0  0
  142.5790   74.0740  219.1620 C   0  0  0  0  0  0  0  0  0  0  0  0
  144.0730   74.2070  219.0510 C   0  0  0  0  0  0  0  0  0  0  0  0
  144.6020   74.2830  220.4690 C   0  0  0  0  0  0  0  0  0  0  0  0
  145.9880   73.6810  220.5730 C   0  0  0  0  0  0  0  0  0  0  0  0
  146.0590   72.2680  220.0920 C   0  0  0  0  0  0  0  0  0  0  0  0
  144.9220   71.9150  219.1430 C   0  0  0  0  0  0  0  0  0  0  0  0
  144.7440   73.1390  218.2560 C   0  0  0  0  0  0  0  0  0  0  0  0
  139.0930   70.5870  222.9750 C   0  0  0  0  0  0  0  0  0  0  0  0
  139.0330   69.6510  223.9900 C   0  0  0  0  0  0  0  0  0  0  0  0
  141.5323   68.0293  227.9268 H   0  0  0  0  0  0  0  0  0  0  0  0
  141.5620   67.0666  226.4106 H   0  0  0  0  0  0  0  0  0  0  0  0
  142.1589   68.7608  226.4106 H   0  0  0  0  0  0  0  0  0  0  0  0
  141.2706   71.0185  226.0883 H   0  0  0  0  0  0  0  0  0  0  0  0
  141.3686   72.6704  224.2845 H   0  0  0  0  0  0  0  0  0  0  0  0
  139.0442   73.1086  221.5929 H   0  0  0  0  0  0  0  0  0  0  0  0
  141.9091   72.4105  221.1828 H   0  0  0  0  0  0  0  0  0  0  0  0
  139.6127   77.1581  223.6014 H   0  0  0  0  0  0  0  0  0  0  0  0
  139.7622   79.6524  223.3107 H   0  0  0  0  0  0  0  0  0  0  0  0
  142.1181   79.0298  219.7319 H   0  0  0  0  0  0  0  0  0  0  0  0
  142.3508   73.0535  219.5034 H   0  0  0  0  0  0  0  0  0  0  0  0
  142.1732   74.2990  218.1647 H   0  0  0  0  0  0  0  0  0  0  0  0
  144.3069   75.1159  218.4773 H   0  0  0  0  0  0  0  0  0  0  0  0
  144.6453   75.3375  220.7791 H   0  0  0  0  0  0  0  0  0  0  0  0
  143.9259   73.7122  221.1225 H   0  0  0  0  0  0  0  0  0  0  0  0
  146.6785   74.2895  219.9706 H   0  0  0  0  0  0  0  0  0  0  0  0
  146.2604   73.6753  221.6387 H   0  0  0  0  0  0  0  0  0  0  0  0
  147.0145   72.1222  219.5668 H   0  0  0  0  0  0  0  0  0  0  0  0
  145.9752   71.6121  220.9711 H   0  0  0  0  0  0  0  0  0  0  0  0
  145.1849   71.0352  218.5373 H   0  0  0  0  0  0  0  0  0  0  0  0
  143.9985   71.6639  219.6852 H   0  0  0  0  0  0  0  0  0  0  0  0
  145.7268   73.4943  217.9127 H   0  0  0  0  0  0  0  0  0  0  0  0
  144.1323   72.8823  217.3785 H   0  0  0  0  0  0  0  0  0  0  0  0
  138.4578   70.4436  222.0884 H   0  0  0  0  0  0  0  0  0  0  0  0
  138.3590   68.7868  223.8958 H   0  0  0  0  0  0  0  0  0  0  0  0
  1  2  1  0
  2  3  2  0
  2  4  2  0
  2  5  1  0
  5  6  2  0
  6  7  1  0
  7  8  2  0
  8  9  1  0
  9 10  2  0
 10 11  1  0
 11 12  2  0
 12 13  1  0
 13 14  2  0
 14 15  1  0
 15 16  2  0
 16 17  1  0
 16 18  1  0
 18 19  2  0
 19 20  1  0
 20 21  2  0
 20 22  1  0
 22 23  1  0
 23 24  1  0
 24 25  1  0
 25 26  1  0
 26 27  1  0
 27 28  1  0
 28 29  1  0
  8 30  1  0
 30 31  2  0
 31  5  1  0
 22 11  1  0
 29 24  1  0
 19 13  1  0
  1 32  1  0
  1 33  1  0
  1 34  1  0
  6 35  1  0
  7 36  1  0
  9 37  1  0
 10 38  1  0
 14 39  1  0
 15 40  1  0
 18 41  1  0
 23 42  1  0
 23 43  1  0
 24 44  1  0
 25 45  1  0
 25 46  1  0
 26 47  1  0
 26 48  1  0
 27 49  1  0
 27 50  1  0
 28 51  1  0
 28 52  1  0
 29 53  1  0
 29 54  1  0
 30 55  1  0
 31 56  1  0
M  END
>  <smiles>  (33) 
CS(=O)(=O)c1ccc(/C=C/c2nc3ccc(F)cc3c(=O)n2CC2CCCCC2)cc1

>  <score_type>  (33) 
oracle

>  <origin>  (33) 
autodockgpu

>  <m_score__min__energy>  (33) 
-9.1400000000000006

>  <m_primary>  (33) 
energy

>  <rmsd>  (33) 
5.356547609324793

>  <m_score__min__rmsd>  (33) 
5.356547609324793

>  <meeko>  (33) 
{"free_energy": -8.8, "intermolecular_energy": -10.59, "internal_energy": -1.35, "cluster_size": 16, "cluster_id": 1, "rank_in_cluster": 7}

>  <energy>  (33) 
-8.07

>  <cluster_rmsd>  (33) 
0.96

>  <cluster>  (33) 
3

$$$$

     RDKit          3D

 56 59  0  0  0  0  0  0  0  0999 V2000
  142.1450   79.3010  222.6640 C   0  0  0  0  0  0  0  0  0  0  0  0
  140.4120   78.9780  222.4520 S   0  0  0  0  0  0  0  0  0  0  0  0
  139.9500   79.7610  221.2530 O   0  0  0  0  0  0  0  0  0  0  0  0
  139.6640   79.5270  223.6510 O   0  0  0  0  0  0  0  0  0  0  0  0
  140.0940   77.2670  222.2920 C   0  0  0  0  0  0  0  0  0  0  0  0
  138.8090   76.8090  222.4600 C   0  0  0  0  0  0  0  0  0  0  0  0
  138.5140   75.4710  222.3430 C   0  0  0  0  0  0  0  0  0  0  0  0
  139.4910   74.5140  222.0490 C   0  0  0  0  0  0  0  0  0  0  0  0
  139.1520   73.1020  221.9310 C   0  0  0  0  0  0  0  0  0  0  0  0
  140.0010   72.1140  222.0760 C   0  0  0  0  0  0  0  0  0  0  0  0
  139.9280   71.2610  223.2560 C   0  0  0  0  0  0  0  0  0  0  0  0
  140.4580   71.7210  224.4170 N   0  0  0  0  0  0  0  0  0  0  0  0
  140.4590   71.0540  225.5620 C   0  0  0  0  0  0  0  0  0  0  0  0
  141.0230   71.6100  226.6920 C   0  0  0  0  0  0  0  0  0  0  0  0
  141.0210   70.8990  227.8940 C   0  0  0  0  0  0  0  0  0  0  0  0
  140.4350   69.6350  227.9020 C   0  0  0  0  0  0  0  0  0  0  0  0
  140.4540   68.9760  229.0910 F   0  0  0  0  0  0  0  0  0  0  0  0
  139.8710   69.0860  226.7580 C   0  0  0  0  0  0  0  0  0  0  0  0
  139.8820   69.8000  225.5800 C   0  0  0  0  0  0  0  0  0  0  0  0
  139.3440   69.3300  224.4000 C   0  0  0  0  0  0  0  0  0  0  0  0
  138.8230   68.1670  224.4640 O   0  0  0  0  0  0  0  0  0  0  0  0
  139.3600   70.0400  223.2490 N   0  0  0  0  0  0  0  0  0  0  0  0
  138.7790   69.5260  222.0370 C   0  0  0  0  0  0  0  0  0  0  0  0
  137.2920   69.7170  221.9200 C   0  0  0  0  0  0  0  0  0  0  0  0
  136.6530   68.5060  222.5710 C   0  0  0  0  0  0  0  0  0  0  0  0
  135.3190   68.8560  223.1950 C   0  0  0  0  0  0  0  0  0  0  0  0
  135.4020   69.9670  224.1910 C   0  0  0  0  0  0  0  0  0  0  0  0
  136.6330   70.8410  223.9910 C   0  0  0  0  0  0  0  0  0  0  0  0
  136.7740   70.9970  222.4830 C   0  0  0  0  0  0  0  0  0  0  0  0
  140.7690   75.0050  221.8880 C   0  0  0  0  0  0  0  0  0  0  0  0
  141.0760   76.3480  222.0030 C   0  0  0  0  0  0  0  0  0  0  0  0
  142.3811   79.3450  223.7375 H   0  0  0  0  0  0  0  0  0  0  0  0
  142.7283   78.4961  222.1929 H   0  0  0  0  0  0  0  0  0  0  0  0
  142.3992   80.2620  222.1929 H   0  0  0  0  0  0  0  0  0  0  0  0
  138.0050   77.5231  222.6914 H   0  0  0  0  0  0  0  0  0  0  0  0
  137.4741   75.1420  222.4855 H   0  0  0  0  0  0  0  0  0  0  0  0
  138.1066   72.8463  221.7035 H   0  0  0  0  0  0  0  0  0  0  0  0
  140.7672   71.9288  221.3088 H   0  0  0  0  0  0  0  0  0  0  0  0
  141.4738   72.6123  226.6461 H   0  0  0  0  0  0  0  0  0  0  0  0
  141.4678   71.3233  228.8052 H   0  0  0  0  0  0  0  0  0  0  0  0
  139.4171   68.0846  226.7923 H   0  0  0  0  0  0  0  0  0  0  0  0
  139.2572   70.0335  221.1863 H   0  0  0  0  0  0  0  0  0  0  0  0
  138.9518   68.4397  222.0473 H   0  0  0  0  0  0  0  0  0  0  0  0
  137.0273   69.7981  220.8554 H   0  0  0  0  0  0  0  0  0  0  0  0
  136.4987   67.7288  221.8080 H   0  0  0  0  0  0  0  0  0  0  0  0
  137.3233   68.1448  223.3649 H   0  0  0  0  0  0  0  0  0  0  0  0
  134.6278   69.1570  222.3940 H   0  0  0  0  0  0  0  0  0  0  0  0
  134.9686   67.9631  223.7335 H   0  0  0  0  0  0  0  0  0  0  0  0
  134.5042   70.5952  224.0939 H   0  0  0  0  0  0  0  0  0  0  0  0
  135.4735   69.5139  225.1908 H   0  0  0  0  0  0  0  0  0  0  0  0
  136.4909   71.8218  224.4682 H   0  0  0  0  0  0  0  0  0  0  0  0
  137.5309   70.3944  224.4429 H   0  0  0  0  0  0  0  0  0  0  0  0
  135.7934   71.2267  222.0407 H   0  0  0  0  0  0  0  0  0  0  0  0
  137.4691   71.8179  222.2529 H   0  0  0  0  0  0  0  0  0  0  0  0
  141.5795   74.2977  221.6581 H   0  0  0  0  0  0  0  0  0  0  0  0
  142.1138   76.6845  221.8623 H   0  0  0  0  0  0  0  0  0  0  0  0
  1  2  1  0
  2  3  2  0
  2  4  2  0
  2  5  1  0
  5  6  2  0
  6  7  1  0
  7  8  2  0
  8  9  1  0
  9 10  2  0
 10 11  1  0
 11 12  2  0
 12 13  1  0
 13 14  2  0
 14 15  1  0
 15 16  2  0
 16 17  1  0
 16 18  1  0
 18 19  2  0
 19 20  1  0
 20 21  2  0
 20 22  1  0
 22 23  1  0
 23 24  1  0
 24 25  1  0
 25 26  1  0
 26 27  1  0
 27 28  1  0
 28 29  1  0
  8 30  1  0
 30 31  2  0
 31  5  1  0
 22 11  1  0
 29 24  1  0
 19 13  1  0
  1 32  1  0
  1 33  1  0
  1 34  1  0
  6 35  1  0
  7 36  1  0
  9 37  1  0
 10 38  1  0
 14 39  1  0
 15 40  1  0
 18 41  1  0
 23 42  1  0
 23 43  1  0
 24 44  1  0
 25 45  1  0
 25 46  1  0
 26 47  1  0
 26 48  1  0
 27 49  1  0
 27 50  1  0
 28 51  1  0
 28 52  1  0
 29 53  1  0
 29 54  1  0
 30 55  1  0
 31 56  1  0
M  END
>  <smiles>  (34) 
CS(=O)(=O)c1ccc(/C=C/c2nc3ccc(F)cc3c(=O)n2CC2CCCCC2)cc1

>  <score_type>  (34) 
oracle

>  <origin>  (34) 
autodockgpu

>  <m_score__min__energy>  (34) 
-9.1400000000000006

>  <m_primary>  (34) 
energy

>  <rmsd>  (34) 
10.996679218880601

>  <m_score__min__rmsd>  (34) 
10.996679218880601

>  <meeko>  (34) 
{"free_energy": -7.7, "intermolecular_energy": -9.49, "internal_energy": -1.68, "cluster_size": 3, "cluster_id": 6, "rank_in_cluster": 2}

>  <energy>  (34) 
-8.33

>  <cluster_rmsd>  (34) 
0.0

>  <cluster>  (34) 
4

$$$$

     RDKit          3D

 56 59  0  0  0  0  0  0  0  0999 V2000
  133.9040   71.7320  226.9330 C   0  0  0  0  0  0  0  0  0  0  0  0
  133.2430   73.2740  226.3520 S   0  0  0  0  0  0  0  0  0  0  0  0
  132.9510   74.1240  227.5590 O   0  0  0  0  0  0  0  0  0  0  0  0
  131.9160   73.0080  225.6690 O   0  0  0  0  0  0  0  0  0  0  0  0
  134.3340   74.0570  225.2340 C   0  0  0  0  0  0  0  0  0  0  0  0
  134.9760   73.2990  224.2850 C   0  0  0  0  0  0  0  0  0  0  0  0
  135.8420   73.8740  223.3860 C   0  0  0  0  0  0  0  0  0  0  0  0
  136.1150   75.2460  223.3850 C   0  0  0  0  0  0  0  0  0  0  0  0
  137.0380   75.8300  222.4220 C   0  0  0  0  0  0  0  0  0  0  0  0
  138.1610   76.4310  222.7320 C   0  0  0  0  0  0  0  0  0  0  0  0
  139.4080   76.0090  222.1050 C   0  0  0  0  0  0  0  0  0  0  0  0
  139.7300   74.6910  222.1360 N   0  0  0  0  0  0  0  0  0  0  0  0
  140.8270   74.1710  221.6060 C   0  0  0  0  0  0  0  0  0  0  0  0
  141.0640   72.8140  221.6890 C   0  0  0  0  0  0  0  0  0  0  0  0
  142.2230   72.2730  221.1290 C   0  0  0  0  0  0  0  0  0  0  0  0
  143.1070   73.1450  220.4950 C   0  0  0  0  0  0  0  0  0  0  0  0
  144.2230   72.5800  219.9620 F   0  0  0  0  0  0  0  0  0  0  0  0
  142.8570   74.5080  220.4180 C   0  0  0  0  0  0  0  0  0  0  0  0
  141.7090   75.0250  220.9770 C   0  0  0  0  0  0  0  0  0  0  0  0
  141.3840   76.3660  220.9450 C   0  0  0  0  0  0  0  0  0  0  0  0
  142.2280   77.1170  220.3540 O   0  0  0  0  0  0  0  0  0  0  0  0
  140.2530   76.8630  221.4960 N   0  0  0  0  0  0  0  0  0  0  0  0
  139.9380   78.2640  221.4360 C   0  0  0  0  0  0  0  0  0  0  0  0
  140.1620   79.0180  222.7180 C   0  0  0  0  0  0  0  0  0  0  0  0
  141.4210   78.4420  223.3370 C   0  0  0  0  0  0  0  0  0  0  0  0
  142.1710   79.4880  224.1340 C   0  0  0  0  0  0  0  0  0  0  0  0
  142.5220   80.7030  223.3360 C   0  0  0  0  0  0  0  0  0  0  0  0
  141.6340   80.8750  222.1110 C   0  0  0  0  0  0  0  0  0  0  0  0
  140.2330   80.5000  222.5750 C   0  0  0  0  0  0  0  0  0  0  0  0
  135.4560   75.9790  224.3490 C   0  0  0  0  0  0  0  0  0  0  0  0
  134.5830   75.4100  225.2570 C   0  0  0  0  0  0  0  0  0  0  0  0
  133.9068   71.7255  228.0330 H   0  0  0  0  0  0  0  0  0  0  0  0
  133.2819   70.9037  226.5630 H   0  0  0  0  0  0  0  0  0  0  0  0
  134.9329   71.6115  226.5630 H   0  0  0  0  0  0  0  0  0  0  0  0
  134.7941   72.2149  224.2441 H   0  0  0  0  0  0  0  0  0  0  0  0
  136.3375   73.2334  222.6417 H   0  0  0  0  0  0  0  0  0  0  0  0
  136.7736   75.7619  221.3564 H   0  0  0  0  0  0  0  0  0  0  0  0
  138.1626   77.2522  223.4638 H   0  0  0  0  0  0  0  0  0  0  0  0
  140.3402   72.1589  222.1960 H   0  0  0  0  0  0  0  0  0  0  0  0
  142.4317   71.1945  221.1862 H   0  0  0  0  0  0  0  0  0  0  0  0
  143.5728   75.1729  219.9125 H   0  0  0  0  0  0  0  0  0  0  0  0
  140.5641   78.7221  220.6561 H   0  0  0  0  0  0  0  0  0  0  0  0
  138.8608   78.3296  221.2232 H   0  0  0  0  0  0  0  0  0  0  0  0
  139.2850   78.8819  223.3679 H   0  0  0  0  0  0  0  0  0  0  0  0
  141.1448   77.6128  224.0049 H   0  0  0  0  0  0  0  0  0  0  0  0
  142.0754   78.0881  222.5267 H   0  0  0  0  0  0  0  0  0  0  0  0
  141.5425   79.7973  224.9821 H   0  0  0  0  0  0  0  0  0  0  0  0
  143.1160   79.0306  224.4623 H   0  0  0  0  0  0  0  0  0  0  0  0
  142.4128   81.5897  223.9777 H   0  0  0  0  0  0  0  0  0  0  0  0
  143.5570   80.5827  222.9833 H   0  0  0  0  0  0  0  0  0  0  0  0
  141.6579   81.9176  221.7610 H   0  0  0  0  0  0  0  0  0  0  0  0
  141.9689   80.2495  221.2704 H   0  0  0  0  0  0  0  0  0  0  0  0
  140.0232   80.9766  223.5440 H   0  0  0  0  0  0  0  0  0  0  0  0
  139.4888   80.8435  221.8414 H   0  0  0  0  0  0  0  0  0  0  0  0
  135.6326   77.0636  224.3976 H   0  0  0  0  0  0  0  0  0  0  0  0
  134.0832   76.0440  226.0041 H   0  0  0  0  0  0  0  0  0  0  0  0
  1  2  1  0
  2  3  2  0
  2  4  2  0
  2  5  1  0
  5  6  2  0
  6  7  1  0
  7  8  2  0
  8  9  1  0
  9 10  2  0
 10 11  1  0
 11 12  2  0
 12 13  1  0
 13 14  2  0
 14 15  1  0
 15 16  2  0
 16 17  1  0
 16 18  1  0
 18 19  2  0
 19 20  1  0
 20 21  2  0
 20 22  1  0
 22 23  1  0
 23 24  1  0
 24 25  1  0
 25 26  1  0
 26 27  1  0
 27 28  1  0
 28 29  1  0
  8 30  1  0
 30 31  2  0
 31  5  1  0
 22 11  1  0
 29 24  1  0
 19 13  1  0
  1 32  1  0
  1 33  1  0
  1 34  1  0
  6 35  1  0
  7 36  1  0
  9 37  1  0
 10 38  1  0
 14 39  1  0
 15 40  1  0
 18 41  1  0
 23 42  1  0
 23 43  1  0
 24 44  1  0
 25 45  1  0
 25 46  1  0
 26 47  1  0
 26 48  1  0
 27 49  1  0
 27 50  1  0
 28 51  1  0
 28 52  1  0
 29 53  1  0
 29 54  1  0
 30 55  1  0
 31 56  1  0
M  END
>  <smiles>  (35) 
CS(=O)(=O)c1ccc(/C=C/c2nc3ccc(F)cc3c(=O)n2CC2CCCCC2)cc1

>  <score_type>  (35) 
oracle

>  <origin>  (35) 
autodockgpu

>  <m_score__min__energy>  (35) 
-9.1400000000000006

>  <m_primary>  (35) 
energy

>  <rmsd>  (35) 
7.294515112744294

>  <m_score__min__rmsd>  (35) 
7.294515112744294

>  <meeko>  (35) 
{"free_energy": -8.1, "intermolecular_energy": -9.89, "internal_energy": -1.35, "cluster_size": 8, "cluster_id": 3, "rank_in_cluster": 7}

>  <energy>  (35) 
-8.27

>  <cluster_rmsd>  (35) 
0.3

>  <cluster>  (35) 
4

$$$$

     RDKit          3D

 56 59  0  0  0  0  0  0  0  0999 V2000
  141.3610   68.0010  226.5290 C   0  0  0  0  0  0  0  0  0  0  0  0
  139.7050   68.5680  226.2360 S   0  0  0  0  0  0  0  0  0  0  0  0
  139.1550   69.0540  227.5500 O   0  0  0  0  0  0  0  0  0  0  0  0
  138.8540   67.3870  225.8130 O   0  0  0  0  0  0  0  0  0  0  0  0
  139.6590   69.8010  224.9980 C   0  0  0  0  0  0  0  0  0  0  0  0
  140.6830   70.7140  224.9280 C   0  0  0  0  0  0  0  0  0  0  0  0
  140.6870   71.7000  223.9700 C   0  0  0  0  0  0  0  0  0  0  0  0
  139.6640   71.8280  223.0250 C   0  0  0  0  0  0  0  0  0  0  0  0
  139.6920   72.8830  222.0210 C   0  0  0  0  0  0  0  0  0  0  0  0
  140.7480   73.2210  221.3220 C   0  0  0  0  0  0  0  0  0  0  0  0
  141.0560   74.6290  221.1050 C   0  0  0  0  0  0  0  0  0  0  0  0
  140.5290   75.5420  221.9590 N   0  0  0  0  0  0  0  0  0  0  0  0
  140.7280   76.8500  221.8810 C   0  0  0  0  0  0  0  0  0  0  0  0
  140.1470   77.6990  222.8020 C   0  0  0  0  0  0  0  0  0  0  0  0
  140.3610   79.0760  222.7120 C   0  0  0  0  0  0  0  0  0  0  0  0
  141.1690   79.5430  221.6770 C   0  0  0  0  0  0  0  0  0  0  0  0
  141.3520   80.8890  221.6240 F   0  0  0  0  0  0  0  0  0  0  0  0
  141.7470   78.6790  220.7570 C   0  0  0  0  0  0  0  0  0  0  0  0
  141.5260   77.3230  220.8600 C   0  0  0  0  0  0  0  0  0  0  0  0
  142.0620   76.3960  219.9890 C   0  0  0  0  0  0  0  0  0  0  0  0
  142.7920   76.8790  219.0610 O   0  0  0  0  0  0  0  0  0  0  0  0
  141.8380   75.0670  220.0990 N   0  0  0  0  0  0  0  0  0  0  0  0
  142.4210   74.1250  219.1820 C   0  0  0  0  0  0  0  0  0  0  0  0
  143.9180   74.2100  219.0570 C   0  0  0  0  0  0  0  0  0  0  0  0
  144.4580   74.3350  220.4680 C   0  0  0  0  0  0  0  0  0  0  0  0
  145.8270   73.6990  220.5920 C   0  0  0  0  0  0  0  0  0  0  0  0
  145.8540   72.2640  220.1770 C   0  0  0  0  0  0  0  0  0  0  0  0
  144.7010   71.9010  219.2510 C   0  0  0  0  0  0  0  0  0  0  0  0
  144.5530   73.0870  218.3090 C   0  0  0  0  0  0  0  0  0  0  0  0
  138.6520   70.8970  223.1230 C   0  0  0  0  0  0  0  0  0  0  0  0
  138.6380   69.9020  224.0810 C   0  0  0  0  0  0  0  0  0  0  0  0
  141.5411   67.9393  227.6124 H   0  0  0  0  0  0  0  0  0  0  0  0
  141.4932   67.0064  226.0781 H   0  0  0  0  0  0  0  0  0  0  0  0
  142.0751   68.7058  226.0781 H   0  0  0  0  0  0  0  0  0  0  0  0
  141.5118   70.6553  225.6489 H   0  0  0  0  0  0  0  0  0  0  0  0
  141.5241   72.4132  223.9459 H   0  0  0  0  0  0  0  0  0  0  0  0
  138.7593   73.4361  221.8360 H   0  0  0  0  0  0  0  0  0  0  0  0
  141.4010   72.4430  220.8997 H   0  0  0  0  0  0  0  0  0  0  0  0
  139.5163   77.2911  223.6057 H   0  0  0  0  0  0  0  0  0  0  0  0
  139.9065   79.7697  223.4347 H   0  0  0  0  0  0  0  0  0  0  0  0
  142.3791   79.0755  219.9488 H   0  0  0  0  0  0  0  0  0  0  0  0
  142.1631   73.1114  219.5226 H   0  0  0  0  0  0  0  0  0  0  0  0
  142.0132   74.3662  218.1893 H   0  0  0  0  0  0  0  0  0  0  0  0
  144.1741   75.0845  218.4409 H   0  0  0  0  0  0  0  0  0  0  0  0
  144.5330   75.4008  220.7298 H   0  0  0  0  0  0  0  0  0  0  0  0
  143.7702   73.8140  221.1503 H   0  0  0  0  0  0  0  0  0  0  0  0
  146.5303   74.2587  219.9579 H   0  0  0  0  0  0  0  0  0  0  0  0
  146.1069   73.7350  221.6552 H   0  0  0  0  0  0  0  0  0  0  0  0
  146.8015   72.0661  219.6544 H   0  0  0  0  0  0  0  0  0  0  0  0
  145.7569   71.6522  221.0860 H   0  0  0  0  0  0  0  0  0  0  0  0
  144.9343   70.9867  218.6856 H   0  0  0  0  0  0  0  0  0  0  0  0
  143.7740   71.7026  219.8090 H   0  0  0  0  0  0  0  0  0  0  0  0
  145.5435   73.3972  217.9447 H   0  0  0  0  0  0  0  0  0  0  0  0
  143.9288   72.8079  217.4474 H   0  0  0  0  0  0  0  0  0  0  0  0
  137.8188   70.9488  222.4067 H   0  0  0  0  0  0  0  0  0  0  0  0
  137.8044   69.1849  224.1111 H   0  0  0  0  0  0  0  0  0  0  0  0
  1  2  1  0
  2  3  2  0
  2  4  2  0
  2  5  1  0
  5  6  2  0
  6  7  1  0
  7  8  2  0
  8  9  1  0
  9 10  2  0
 10 11  1  0
 11 12  2  0
 12 13  1  0
 13 14  2  0
 14 15  1  0
 15 16  2  0
 16 17  1  0
 16 18  1  0
 18 19  2  0
 19 20  1  0
 20 21  2  0
 20 22  1  0
 22 23  1  0
 23 24  1  0
 24 25  1  0
 25 26  1  0
 26 27  1  0
 27 28  1  0
 28 29  1  0
  8 30  1  0
 30 31  2  0
 31  5  1  0
 22 11  1  0
 29 24  1  0
 19 13  1  0
  1 32  1  0
  1 33  1  0
  1 34  1  0
  6 35  1  0
  7 36  1  0
  9 37  1  0
 10 38  1  0
 14 39  1  0
 15 40  1  0
 18 41  1  0
 23 42  1  0
 23 43  1  0
 24 44  1  0
 25 45  1  0
 25 46  1  0
 26 47  1  0
 26 48  1  0
 27 49  1  0
 27 50  1  0
 28 51  1  0
 28 52  1  0
 29 53  1  0
 29 54  1  0
 30 55  1  0
 31 56  1  0
M  END
>  <smiles>  (36) 
CS(=O)(=O)c1ccc(/C=C/c2nc3ccc(F)cc3c(=O)n2CC2CCCCC2)cc1

>  <score_type>  (36) 
oracle

>  <origin>  (36) 
autodockgpu

>  <m_score__min__energy>  (36) 
-9.1400000000000006

>  <m_primary>  (36) 
energy

>  <rmsd>  (36) 
5.248963544010933

>  <m_score__min__rmsd>  (36) 
5.248963544010933

>  <meeko>  (36) 
{"free_energy": -8.76, "intermolecular_energy": -10.55, "internal_energy": -1.32, "cluster_size": 16, "cluster_id": 1, "rank_in_cluster": 8}

>  <energy>  (36) 
-8.17

>  <cluster_rmsd>  (36) 
0.97

>  <cluster>  (36) 
4

$$$$

     RDKit          3D

 56 59  0  0  0  0  0  0  0  0999 V2000
  139.8760   69.0450  227.9660 C   0  0  0  0  0  0  0  0  0  0  0  0
  140.1540   68.4140  226.3310 S   0  0  0  0  0  0  0  0  0  0  0  0
  139.1600   67.3070  226.1000 O   0  0  0  0  0  0  0  0  0  0  0  0
  141.5320   67.7850  226.2790 O   0  0  0  0  0  0  0  0  0  0  0  0
  140.0360   69.6760  225.1280 C   0  0  0  0  0  0  0  0  0  0  0  0
  140.7280   70.8480  225.3210 C   0  0  0  0  0  0  0  0  0  0  0  0
  140.6640   71.8670  224.4000 C   0  0  0  0  0  0  0  0  0  0  0  0
  139.9030   71.7700  223.2310 C   0  0  0  0  0  0  0  0  0  0  0  0
  139.8520   72.8650  222.2720 C   0  0  0  0  0  0  0  0  0  0  0  0
  140.8170   73.1760  221.4400 C   0  0  0  0  0  0  0  0  0  0  0  0
  141.1170   74.5760  221.1670 C   0  0  0  0  0  0  0  0  0  0  0  0
  140.5760   75.5210  221.9770 N   0  0  0  0  0  0  0  0  0  0  0  0
  140.7660   76.8250  221.8460 C   0  0  0  0  0  0  0  0  0  0  0  0
  140.1720   77.7080  222.7240 C   0  0  0  0  0  0  0  0  0  0  0  0
  140.3770   79.0810  222.5780 C   0  0  0  0  0  0  0  0  0  0  0  0
  141.1910   79.5100  221.5310 C   0  0  0  0  0  0  0  0  0  0  0  0
  141.3650   80.8540  221.4230 F   0  0  0  0  0  0  0  0  0  0  0  0
  141.7830   78.6130  220.6540 C   0  0  0  0  0  0  0  0  0  0  0  0
  141.5710   77.2600  220.8120 C   0  0  0  0  0  0  0  0  0  0  0  0
  142.1210   76.3010  219.9860 C   0  0  0  0  0  0  0  0  0  0  0  0
  142.8560   76.7500  219.0450 O   0  0  0  0  0  0  0  0  0  0  0  0
  141.9050   74.9760  220.1500 N   0  0  0  0  0  0  0  0  0  0  0  0
  142.5030   74.0010  219.2790 C   0  0  0  0  0  0  0  0  0  0  0  0
  143.9910   74.1380  219.1050 C   0  0  0  0  0  0  0  0  0  0  0  0
  144.5640   74.3620  220.4910 C   0  0  0  0  0  0  0  0  0  0  0  0
  145.9610   73.7880  220.6080 C   0  0  0  0  0  0  0  0  0  0  0  0
  146.0350   72.3340  220.2700 C   0  0  0  0  0  0  0  0  0  0  0  0
  144.8730   71.8760  219.4000 C   0  0  0  0  0  0  0  0  0  0  0  0
  144.6510   73.0020  218.4000 C   0  0  0  0  0  0  0  0  0  0  0  0
  139.2210   70.5830  223.0670 C   0  0  0  0  0  0  0  0  0  0  0  0
  139.2790   69.5520  223.9860 C   0  0  0  0  0  0  0  0  0  0  0  0
  140.2038   68.3009  228.7068 H   0  0  0  0  0  0  0  0  0  0  0  0
  140.4478   69.9747  228.1024 H   0  0  0  0  0  0  0  0  0  0  0  0
  138.8040   69.2505  228.1024 H   0  0  0  0  0  0  0  0  0  0  0  0
  141.3418   70.9724  226.2253 H   0  0  0  0  0  0  0  0  0  0  0  0
  141.2311   72.7903  224.5894 H   0  0  0  0  0  0  0  0  0  0  0  0
  138.9375   73.4757  222.2434 H   0  0  0  0  0  0  0  0  0  0  0  0
  141.3988   72.3819  220.9492 H   0  0  0  0  0  0  0  0  0  0  0  0
  139.5370   77.3301  223.5389 H   0  0  0  0  0  0  0  0  0  0  0  0
  139.9113   79.8011  223.2669 H   0  0  0  0  0  0  0  0  0  0  0  0
  142.4194   78.9800  219.8353 H   0  0  0  0  0  0  0  0  0  0  0  0
  142.2973   73.0021  219.6913 H   0  0  0  0  0  0  0  0  0  0  0  0
  142.0593   74.1605  218.2852 H   0  0  0  0  0  0  0  0  0  0  0  0
  144.1938   74.9865  218.4350 H   0  0  0  0  0  0  0  0  0  0  0  0
  144.6025   75.4427  220.6925 H   0  0  0  0  0  0  0  0  0  0  0  0
  143.9171   73.8531  221.2207 H   0  0  0  0  0  0  0  0  0  0  0  0
  146.6230   74.3392  219.9239 H   0  0  0  0  0  0  0  0  0  0  0  0
  146.2687   73.8934  221.6588 H   0  0  0  0  0  0  0  0  0  0  0  0
  146.9749   72.1450  219.7307 H   0  0  0  0  0  0  0  0  0  0  0  0
  145.9881   71.7697  221.2130 H   0  0  0  0  0  0  0  0  0  0  0  0
  145.1275   70.9418  218.8780 H   0  0  0  0  0  0  0  0  0  0  0  0
  143.9706   71.6726  219.9952 H   0  0  0  0  0  0  0  0  0  0  0  0
  145.6177   73.3307  217.9908 H   0  0  0  0  0  0  0  0  0  0  0  0
  144.0158   72.6517  217.5730 H   0  0  0  0  0  0  0  0  0  0  0  0
  138.6041   70.4507  222.1659 H   0  0  0  0  0  0  0  0  0  0  0  0
  138.7155   68.6252  223.8027 H   0  0  0  0  0  0  0  0  0  0  0  0
  1  2  1  0
  2  3  2  0
  2  4  2  0
  2  5  1  0
  5  6  2  0
  6  7  1  0
  7  8  2  0
  8  9  1  0
  9 10  2  0
 10 11  1  0
 11 12  2  0
 12 13  1  0
 13 14  2  0
 14 15  1  0
 15 16  2  0
 16 17  1  0
 16 18  1  0
 18 19  2  0
 19 20  1  0
 20 21  2  0
 20 22  1  0
 22 23  1  0
 23 24  1  0
 24 25  1  0
 25 26  1  0
 26 27  1  0
 27 28  1  0
 28 29  1  0
  8 30  1  0
 30 31  2  0
 31  5  1  0
 22 11  1  0
 29 24  1  0
 19 13  1  0
  1 32  1  0
  1 33  1  0
  1 34  1  0
  6 35  1  0
  7 36  1  0
  9 37  1  0
 10 38  1  0
 14 39  1  0
 15 40  1  0
 18 41  1  0
 23 42  1  0
 23 43  1  0
 24 44  1  0
 25 45  1  0
 25 46  1  0
 26 47  1  0
 26 48  1  0
 27 49  1  0
 27 50  1  0
 28 51  1  0
 28 52  1  0
 29 53  1  0
 29 54  1  0
 30 55  1  0
 31 56  1  0
M  END
>  <smiles>  (37) 
CS(=O)(=O)c1ccc(/C=C/c2nc3ccc(F)cc3c(=O)n2CC2CCCCC2)cc1

>  <score_type>  (37) 
oracle

>  <origin>  (37) 
autodockgpu

>  <m_score__min__energy>  (37) 
-9.1400000000000006

>  <m_primary>  (37) 
energy

>  <rmsd>  (37) 
5.318153420666845

>  <m_score__min__rmsd>  (37) 
5.318153420666845

>  <meeko>  (37) 
{"free_energy": -9.14, "intermolecular_energy": -10.93, "internal_energy": -1.28, "cluster_size": 16, "cluster_id": 1, "rank_in_cluster": 1}

>  <energy>  (37) 
-8.14

>  <cluster_rmsd>  (37) 
0.35

>  <cluster>  (37) 
4

$$$$

     RDKit          3D

 56 59  0  0  0  0  0  0  0  0999 V2000
  132.2090   75.6840  225.2630 C   0  0  0  0  0  0  0  0  0  0  0  0
  133.5130   74.8760  226.1560 S   0  0  0  0  0  0  0  0  0  0  0  0
  132.8700   74.0050  227.2030 O   0  0  0  0  0  0  0  0  0  0  0  0
  134.3220   75.9240  226.8920 O   0  0  0  0  0  0  0  0  0  0  0  0
  134.5570   73.9700  225.0870 C   0  0  0  0  0  0  0  0  0  0  0  0
  135.2740   74.6420  224.1270 C   0  0  0  0  0  0  0  0  0  0  0  0
  136.1070   73.9690  223.2650 C   0  0  0  0  0  0  0  0  0  0  0  0
  136.2700   72.5810  223.3160 C   0  0  0  0  0  0  0  0  0  0  0  0
  137.1590   71.8920  222.3890 C   0  0  0  0  0  0  0  0  0  0  0  0
  138.4430   71.7110  222.5810 C   0  0  0  0  0  0  0  0  0  0  0  0
  138.9010   70.8330  223.6510 C   0  0  0  0  0  0  0  0  0  0  0  0
  139.4620   71.3970  224.7510 N   0  0  0  0  0  0  0  0  0  0  0  0
  139.9170   70.7200  225.7950 C   0  0  0  0  0  0  0  0  0  0  0  0
  140.4710   71.3870  226.8690 C   0  0  0  0  0  0  0  0  0  0  0  0
  140.9500   70.6660  227.9650 C   0  0  0  0  0  0  0  0  0  0  0  0
  140.8430   69.2770  227.9280 C   0  0  0  0  0  0  0  0  0  0  0  0
  141.3210   68.6130  229.0140 F   0  0  0  0  0  0  0  0  0  0  0  0
  140.2840   68.6180  226.8420 C   0  0  0  0  0  0  0  0  0  0  0  0
  139.8170   69.3440  225.7680 C   0  0  0  0  0  0  0  0  0  0  0  0
  139.2480   68.7690  224.6500 C   0  0  0  0  0  0  0  0  0  0  0  0
  139.1770   67.4950  224.6690 O   0  0  0  0  0  0  0  0  0  0  0  0
  138.7920   69.4910  223.6010 N   0  0  0  0  0  0  0  0  0  0  0  0
  138.1930   68.8620  222.4550 C   0  0  0  0  0  0  0  0  0  0  0  0
  136.8950   68.1540  222.7310 C   0  0  0  0  0  0  0  0  0  0  0  0
  136.2410   68.8940  223.8820 C   0  0  0  0  0  0  0  0  0  0  0  0
  134.7310   68.8310  223.7890 C   0  0  0  0  0  0  0  0  0  0  0  0
  134.1940   69.3530  222.4950 C   0  0  0  0  0  0  0  0  0  0  0  0
  135.2310   69.3340  221.3810 C   0  0  0  0  0  0  0  0  0  0  0  0
  135.9860   68.0230  221.5570 C   0  0  0  0  0  0  0  0  0  0  0  0
  135.5380   71.9360  224.2880 C   0  0  0  0  0  0  0  0  0  0  0  0
  134.6980   72.6030  225.1600 C   0  0  0  0  0  0  0  0  0  0  0  0
  131.4961   76.1257  225.9748 H   0  0  0  0  0  0  0  0  0  0  0  0
  132.6345   76.4770  224.6304 H   0  0  0  0  0  0  0  0  0  0  0  0
  131.6883   74.9500  224.6304 H   0  0  0  0  0  0  0  0  0  0  0  0
  135.1802   75.7351  224.0468 H   0  0  0  0  0  0  0  0  0  0  0  0
  136.6644   74.5419  222.5093 H   0  0  0  0  0  0  0  0  0  0  0  0
  136.7208   71.4952  221.4613 H   0  0  0  0  0  0  0  0  0  0  0  0
  139.1737   72.2207  221.9358 H   0  0  0  0  0  0  0  0  0  0  0  0
  140.5351   72.4851  226.8617 H   0  0  0  0  0  0  0  0  0  0  0  0
  141.3974   71.1780  228.8297 H   0  0  0  0  0  0  0  0  0  0  0  0
  140.2140   67.5202  226.8386 H   0  0  0  0  0  0  0  0  0  0  0  0
  138.0055   69.6376  221.6978 H   0  0  0  0  0  0  0  0  0  0  0  0
  138.9015   68.0904  222.1195 H   0  0  0  0  0  0  0  0  0  0  0  0
  137.1094   67.1058  222.9865 H   0  0  0  0  0  0  0  0  0  0  0  0
  136.5611   68.4369  224.8300 H   0  0  0  0  0  0  0  0  0  0  0  0
  136.5481   69.9492  223.8357 H   0  0  0  0  0  0  0  0  0  0  0  0
  134.4183   67.7821  223.8986 H   0  0  0  0  0  0  0  0  0  0  0  0
  134.3292   69.4702  224.5890 H   0  0  0  0  0  0  0  0  0  0  0  0
  133.3394   68.7305  222.1915 H   0  0  0  0  0  0  0  0  0  0  0  0
  133.8966   70.3998  222.6556 H   0  0  0  0  0  0  0  0  0  0  0  0
  134.7402   69.3669  220.3971 H   0  0  0  0  0  0  0  0  0  0  0  0
  135.9025   70.2038  221.4309 H   0  0  0  0  0  0  0  0  0  0  0  0
  135.2721   67.2042  221.7301 H   0  0  0  0  0  0  0  0  0  0  0  0
  136.5697   67.8000  220.6517 H   0  0  0  0  0  0  0  0  0  0  0  0
  135.6255   70.8429  224.3742 H   0  0  0  0  0  0  0  0  0  0  0  0
  134.1377   72.0365  225.9184 H   0  0  0  0  0  0  0  0  0  0  0  0
  1  2  1  0
  2  3  2  0
  2  4  2  0
  2  5  1  0
  5  6  2  0
  6  7  1  0
  7  8  2  0
  8  9  1  0
  9 10  2  0
 10 11  1  0
 11 12  2  0
 12 13  1  0
 13 14  2  0
 14 15  1  0
 15 16  2  0
 16 17  1  0
 16 18  1  0
 18 19  2  0
 19 20  1  0
 20 21  2  0
 20 22  1  0
 22 23  1  0
 23 24  1  0
 24 25  1  0
 25 26  1  0
 26 27  1  0
 27 28  1  0
 28 29  1  0
  8 30  1  0
 30 31  2  0
 31  5  1  0
 22 11  1  0
 29 24  1  0
 19 13  1  0
  1 32  1  0
  1 33  1  0
  1 34  1  0
  6 35  1  0
  7 36  1  0
  9 37  1  0
 10 38  1  0
 14 39  1  0
 15 40  1  0
 18 41  1  0
 23 42  1  0
 23 43  1  0
 24 44  1  0
 25 45  1  0
 25 46  1  0
 26 47  1  0
 26 48  1  0
 27 49  1  0
 27 50  1  0
 28 51  1  0
 28 52  1  0
 29 53  1  0
 29 54  1  0
 30 55  1  0
 31 56  1  0
M  END
>  <smiles>  (38) 
CS(=O)(=O)c1ccc(/C=C/c2nc3ccc(F)cc3c(=O)n2CC2CCCCC2)cc1

>  <score_type>  (38) 
oracle

>  <origin>  (38) 
autodockgpu

>  <m_score__min__energy>  (38) 
-9.1400000000000006

>  <m_primary>  (38) 
energy

>  <rmsd>  (38) 
11.492292323683618

>  <m_score__min__rmsd>  (38) 
11.492292323683618

>  <meeko>  (38) 
{"free_energy": -7.44, "intermolecular_energy": -9.23, "internal_energy": -2.11, "cluster_size": 2, "cluster_id": 7, "rank_in_cluster": 2}

>  <energy>  (38) 
-8.01

>  <cluster_rmsd>  (38) 
1.37

>  <cluster>  (38) 
4

$$$$

     RDKit          3D

 56 59  0  0  0  0  0  0  0  0999 V2000
  139.8930   68.9110  228.0350 C   0  0  0  0  0  0  0  0  0  0  0  0
  140.0380   68.3500  226.3580 S   0  0  0  0  0  0  0  0  0  0  0  0
  138.9000   67.3980  226.1000 O   0  0  0  0  0  0  0  0  0  0  0  0
  141.3190   67.5510  226.2200 O   0  0  0  0  0  0  0  0  0  0  0  0
  140.0530   69.6870  225.2330 C   0  0  0  0  0  0  0  0  0  0  0  0
  139.3820   69.5650  224.0410 C   0  0  0  0  0  0  0  0  0  0  0  0
  139.3680   70.5930  223.1280 C   0  0  0  0  0  0  0  0  0  0  0  0
  140.0270   71.8050  223.3580 C   0  0  0  0  0  0  0  0  0  0  0  0
  139.9970   72.8780  222.3720 C   0  0  0  0  0  0  0  0  0  0  0  0
  141.0100   73.2270  221.6170 C   0  0  0  0  0  0  0  0  0  0  0  0
  141.2230   74.6320  221.2920 C   0  0  0  0  0  0  0  0  0  0  0  0
  140.8860   75.5650  222.2180 N   0  0  0  0  0  0  0  0  0  0  0  0
  141.0280   76.8720  222.0570 C   0  0  0  0  0  0  0  0  0  0  0  0
  140.6560   77.7420  223.0620 C   0  0  0  0  0  0  0  0  0  0  0  0
  140.8080   79.1190  222.8830 C   0  0  0  0  0  0  0  0  0  0  0  0
  141.3420   79.5640  221.6750 C   0  0  0  0  0  0  0  0  0  0  0  0
  141.4730   80.9100  221.5410 F   0  0  0  0  0  0  0  0  0  0  0  0
  141.7120   78.6790  220.6720 C   0  0  0  0  0  0  0  0  0  0  0  0
  141.5550   77.3230  220.8640 C   0  0  0  0  0  0  0  0  0  0  0  0
  141.8970   76.3760  219.9210 C   0  0  0  0  0  0  0  0  0  0  0  0
  142.3790   76.8390  218.8340 O   0  0  0  0  0  0  0  0  0  0  0  0
  141.7390   75.0480  220.1200 N   0  0  0  0  0  0  0  0  0  0  0  0
  142.1170   74.0850  219.1200 C   0  0  0  0  0  0  0  0  0  0  0  0
  143.5920   73.8050  219.0400 C   0  0  0  0  0  0  0  0  0  0  0  0
  144.2510   74.6840  220.0850 C   0  0  0  0  0  0  0  0  0  0  0  0
  145.4990   74.0330  220.6450 C   0  0  0  0  0  0  0  0  0  0  0  0
  145.2530   72.6760  221.2220 C   0  0  0  0  0  0  0  0  0  0  0  0
  143.9880   72.0290  220.6750 C   0  0  0  0  0  0  0  0  0  0  0  0
  143.9710   72.3710  219.1920 C   0  0  0  0  0  0  0  0  0  0  0  0
  140.6910   71.8960  224.5620 C   0  0  0  0  0  0  0  0  0  0  0  0
  140.7110   70.8690  225.4870 C   0  0  0  0  0  0  0  0  0  0  0  0
  140.1083   68.0779  228.7203 H   0  0  0  0  0  0  0  0  0  0  0  0
  140.6100   69.7262  228.2122 H   0  0  0  0  0  0  0  0  0  0  0  0
  138.8708   69.2767  228.2122 H   0  0  0  0  0  0  0  0  0  0  0  0
  138.8477   68.6308  223.8132 H   0  0  0  0  0  0  0  0  0  0  0  0
  138.8196   70.4575  222.1841 H   0  0  0  0  0  0  0  0  0  0  0  0
  139.0561   73.4352  222.2528 H   0  0  0  0  0  0  0  0  0  0  0  0
  141.6980   72.4612  221.2294 H   0  0  0  0  0  0  0  0  0  0  0  0
  140.2404   77.3515  224.0026 H   0  0  0  0  0  0  0  0  0  0  0  0
  140.5156   79.8294  223.6703 H   0  0  0  0  0  0  0  0  0  0  0  0
  142.1290   79.0582  219.7274 H   0  0  0  0  0  0  0  0  0  0  0  0
  141.6008   73.1396  219.3430 H   0  0  0  0  0  0  0  0  0  0  0  0
  141.8309   74.5174  218.1499 H   0  0  0  0  0  0  0  0  0  0  0  0
  143.9434   74.0405  218.0246 H   0  0  0  0  0  0  0  0  0  0  0  0
  144.5241   75.6448  219.6243 H   0  0  0  0  0  0  0  0  0  0  0  0
  143.5390   74.8359  220.9097 H   0  0  0  0  0  0  0  0  0  0  0  0
  146.2367   73.9388  219.8345 H   0  0  0  0  0  0  0  0  0  0  0  0
  145.8599   74.6733  221.4634 H   0  0  0  0  0  0  0  0  0  0  0  0
  146.1109   72.0304  220.9828 H   0  0  0  0  0  0  0  0  0  0  0  0
  145.1248   72.7935  222.3082 H   0  0  0  0  0  0  0  0  0  0  0  0
  144.0197   70.9389  220.8187 H   0  0  0  0  0  0  0  0  0  0  0  0
  143.0862   72.3918  221.1899 H   0  0  0  0  0  0  0  0  0  0  0  0
  144.9693   72.2037  218.7614 H   0  0  0  0  0  0  0  0  0  0  0  0
  143.2455   71.7324  218.6669 H   0  0  0  0  0  0  0  0  0  0  0  0
  141.2285   72.8264  224.7973 H   0  0  0  0  0  0  0  0  0  0  0  0
  141.2569   70.9973  226.4333 H   0  0  0  0  0  0  0  0  0  0  0  0
  1  2  1  0
  2  3  2  0
  2  4  2  0
  2  5  1  0
  5  6  2  0
  6  7  1  0
  7  8  2  0
  8  9  1  0
  9 10  2  0
 10 11  1  0
 11 12  2  0
 12 13  1  0
 13 14  2  0
 14 15  1  0
 15 16  2  0
 16 17  1  0
 16 18  1  0
 18 19  2  0
 19 20  1  0
 20 21  2  0
 20 22  1  0
 22 23  1  0
 23 24  1  0
 24 25  1  0
 25 26  1  0
 26 27  1  0
 27 28  1  0
 28 29  1  0
  8 30  1  0
 30 31  2  0
 31  5  1  0
 22 11  1  0
 29 24  1  0
 19 13  1  0
  1 32  1  0
  1 33  1  0
  1 34  1  0
  6 35  1  0
  7 36  1  0
  9 37  1  0
 10 38  1  0
 14 39  1  0
 15 40  1  0
 18 41  1  0
 23 42  1  0
 23 43  1  0
 24 44  1  0
 25 45  1  0
 25 46  1  0
 26 47  1  0
 26 48  1  0
 27 49  1  0
 27 50  1  0
 28 51  1  0
 28 52  1  0
 29 53  1  0
 29 54  1  0
 30 55  1  0
 31 56  1  0
M  END
>  <smiles>  (39) 
CS(=O)(=O)c1ccc(/C=C/c2nc3ccc(F)cc3c(=O)n2CC2CCCCC2)cc1

>  <score_type>  (39) 
oracle

>  <origin>  (39) 
autodockgpu

>  <m_score__min__energy>  (39) 
-9.1400000000000006

>  <m_primary>  (39) 
energy

>  <rmsd>  (39) 
5.105235438520778

>  <m_score__min__rmsd>  (39) 
5.105235438520778

>  <meeko>  (39) 
{"free_energy": -8.84, "intermolecular_energy": -10.63, "internal_energy": -1.41, "cluster_size": 16, "cluster_id": 1, "rank_in_cluster": 4}

>  <energy>  (39) 
-7.97

>  <cluster_rmsd>  (39) 
0.85

>  <cluster>  (39) 
4

$$$$

     RDKit          3D

 56 59  0  0  0  0  0  0  0  0999 V2000
  146.2960   73.1240  221.8330 C   0  0  0  0  0  0  0  0  0  0  0  0
  145.2380   73.6240  220.4990 S   0  0  0  0  0  0  0  0  0  0  0  0
  145.8960   73.1940  219.2150 O   0  0  0  0  0  0  0  0  0  0  0  0
  145.1680   75.1380  220.4720 O   0  0  0  0  0  0  0  0  0  0  0  0
  143.6290   72.9640  220.6750 C   0  0  0  0  0  0  0  0  0  0  0  0
  142.5690   73.8230  220.8370 C   0  0  0  0  0  0  0  0  0  0  0  0
  141.2870   73.3470  220.9790 C   0  0  0  0  0  0  0  0  0  0  0  0
  140.9930   71.9790  220.9660 C   0  0  0  0  0  0  0  0  0  0  0  0
  139.6260   71.5010  221.1200 C   0  0  0  0  0  0  0  0  0  0  0  0
  138.9110   71.6200  222.2120 C   0  0  0  0  0  0  0  0  0  0  0  0
  139.2680   70.8550  223.4010 C   0  0  0  0  0  0  0  0  0  0  0  0
  139.8860   71.5020  224.4200 N   0  0  0  0  0  0  0  0  0  0  0  0
  140.2630   70.9320  225.5560 C   0  0  0  0  0  0  0  0  0  0  0  0
  140.8860   71.6780  226.5360 C   0  0  0  0  0  0  0  0  0  0  0  0
  141.2810   71.0700  227.7290 C   0  0  0  0  0  0  0  0  0  0  0  0
  141.0220   69.7090  227.8830 C   0  0  0  0  0  0  0  0  0  0  0  0
  141.4220   69.1550  229.0580 F   0  0  0  0  0  0  0  0  0  0  0  0
  140.3950   68.9700  226.8900 C   0  0  0  0  0  0  0  0  0  0  0  0
  140.0120   69.5850  225.7180 C   0  0  0  0  0  0  0  0  0  0  0  0
  139.3840   68.9250  224.6820 C   0  0  0  0  0  0  0  0  0  0  0  0
  139.1730   67.6820  224.8760 O   0  0  0  0  0  0  0  0  0  0  0  0
  139.0120   69.5390  223.5360 N   0  0  0  0  0  0  0  0  0  0  0  0
  138.3480   68.8260  222.4780 C   0  0  0  0  0  0  0  0  0  0  0  0
  136.8830   68.5760  222.7090 C   0  0  0  0  0  0  0  0  0  0  0  0
  136.5160   69.3240  223.9760 C   0  0  0  0  0  0  0  0  0  0  0  0
  135.0780   69.7980  223.9390 C   0  0  0  0  0  0  0  0  0  0  0  0
  134.7650   70.6510  222.7510 C   0  0  0  0  0  0  0  0  0  0  0  0
  135.7410   70.4350  221.6030 C   0  0  0  0  0  0  0  0  0  0  0  0
  135.9940   68.9340  221.5670 C   0  0  0  0  0  0  0  0  0  0  0  0
  142.0770   71.1440  220.8030 C   0  0  0  0  0  0  0  0  0  0  0  0
  143.3700   71.6130  220.6580 C   0  0  0  0  0  0  0  0  0  0  0  0
  145.8097   73.3538  222.7925 H   0  0  0  0  0  0  0  0  0  0  0  0
  146.4833   72.0421  221.7667 H   0  0  0  0  0  0  0  0  0  0  0  0
  147.2508   73.6662  221.7667 H   0  0  0  0  0  0  0  0  0  0  0  0
  142.7488   74.9081  220.8533 H   0  0  0  0  0  0  0  0  0  0  0  0
  140.4645   74.0660  221.1072 H   0  0  0  0  0  0  0  0  0  0  0  0
  139.1595   71.0038  220.2568 H   0  0  0  0  0  0  0  0  0  0  0  0
  138.0432   72.2957  222.2315 H   0  0  0  0  0  0  0  0  0  0  0  0
  141.0711   72.7506  226.3772 H   0  0  0  0  0  0  0  0  0  0  0  0
  141.7804   71.6462  228.5218 H   0  0  0  0  0  0  0  0  0  0  0  0
  140.2044   67.8968  227.0379 H   0  0  0  0  0  0  0  0  0  0  0  0
  138.4536   69.4108  221.5523 H   0  0  0  0  0  0  0  0  0  0  0  0
  138.8262   67.8369  222.4232 H   0  0  0  0  0  0  0  0  0  0  0  0
  136.7196   67.4929  222.8102 H   0  0  0  0  0  0  0  0  0  0  0  0
  136.6505   68.6549  224.8387 H   0  0  0  0  0  0  0  0  0  0  0  0
  137.1695   70.2048  224.0605 H   0  0  0  0  0  0  0  0  0  0  0  0
  134.4205   68.9164  223.9184 H   0  0  0  0  0  0  0  0  0  0  0  0
  134.9162   70.4159  224.8346 H   0  0  0  0  0  0  0  0  0  0  0  0
  133.7504   70.4096  222.4012 H   0  0  0  0  0  0  0  0  0  0  0  0
  134.8461   71.7023  223.0645 H   0  0  0  0  0  0  0  0  0  0  0  0
  135.3005   70.7742  220.6539 H   0  0  0  0  0  0  0  0  0  0  0  0
  136.6717   71.0043  221.7436 H   0  0  0  0  0  0  0  0  0  0  0  0
  135.0395   68.3947  221.6567 H   0  0  0  0  0  0  0  0  0  0  0  0
  136.4716   68.6553  220.6161 H   0  0  0  0  0  0  0  0  0  0  0  0
  141.9066   70.0574  220.7875 H   0  0  0  0  0  0  0  0  0  0  0  0
  144.1977   70.9002  220.5281 H   0  0  0  0  0  0  0  0  0  0  0  0
  1  2  1  0
  2  3  2  0
  2  4  2  0
  2  5  1  0
  5  6  2  0
  6  7  1  0
  7  8  2  0
  8  9  1  0
  9 10  2  0
 10 11  1  0
 11 12  2  0
 12 13  1  0
 13 14  2  0
 14 15  1  0
 15 16  2  0
 16 17  1  0
 16 18  1  0
 18 19  2  0
 19 20  1  0
 20 21  2  0
 20 22  1  0
 22 23  1  0
 23 24  1  0
 24 25  1  0
 25 26  1  0
 26 27  1  0
 27 28  1  0
 28 29  1  0
  8 30  1  0
 30 31  2  0
 31  5  1  0
 22 11  1  0
 29 24  1  0
 19 13  1  0
  1 32  1  0
  1 33  1  0
  1 34  1  0
  6 35  1  0
  7 36  1  0
  9 37  1  0
 10 38  1  0
 14 39  1  0
 15 40  1  0
 18 41  1  0
 23 42  1  0
 23 43  1  0
 24 44  1  0
 25 45  1  0
 25 46  1  0
 26 47  1  0
 26 48  1  0
 27 49  1  0
 27 50  1  0
 28 51  1  0
 28 52  1  0
 29 53  1  0
 29 54  1  0
 30 55  1  0
 31 56  1  0
M  END
>  <smiles>  (40) 
CS(=O)(=O)c1ccc(/C=C/c2nc3ccc(F)cc3c(=O)n2CC2CCCCC2)cc1

>  <score_type>  (40) 
oracle

>  <origin>  (40) 
autodockgpu

>  <m_score__min__energy>  (40) 
-9.1400000000000006

>  <m_primary>  (40) 
energy

>  <rmsd>  (40) 
11.109334681247036

>  <m_score__min__rmsd>  (40) 
11.109334681247036

>  <meeko>  (40) 
{"free_energy": -7.95, "intermolecular_energy": -9.74, "internal_energy": -1.64, "cluster_size": 10, "cluster_id": 4, "rank_in_cluster": 7}

>  <energy>  (40) 
-7.95

>  <cluster_rmsd>  (40) 
1.26

>  <cluster>  (40) 
4

$$$$

     RDKit          3D

 56 59  0  0  0  0  0  0  0  0999 V2000
  139.9170   68.9800  228.2320 C   0  0  0  0  0  0  0  0  0  0  0  0
  140.0250   68.3130  226.5910 S   0  0  0  0  0  0  0  0  0  0  0  0
  138.8980   67.3290  226.4300 O   0  0  0  0  0  0  0  0  0  0  0  0
  141.3150   67.5270  226.4680 O   0  0  0  0  0  0  0  0  0  0  0  0
  139.9850   69.5740  225.3820 C   0  0  0  0  0  0  0  0  0  0  0  0
  139.1530   69.4340  224.2990 C   0  0  0  0  0  0  0  0  0  0  0  0
  139.0900   70.4020  223.3240 C   0  0  0  0  0  0  0  0  0  0  0  0
  139.8600   71.5690  223.3810 C   0  0  0  0  0  0  0  0  0  0  0  0
  139.7750   72.5790  222.3340 C   0  0  0  0  0  0  0  0  0  0  0  0
  140.7320   72.8540  221.4820 C   0  0  0  0  0  0  0  0  0  0  0  0
  141.0490   74.2420  221.1690 C   0  0  0  0  0  0  0  0  0  0  0  0
  140.5660   75.2120  221.9850 N   0  0  0  0  0  0  0  0  0  0  0  0
  140.7780   76.5100  221.8210 C   0  0  0  0  0  0  0  0  0  0  0  0
  140.2440   77.4210  222.7090 C   0  0  0  0  0  0  0  0  0  0  0  0
  140.4710   78.7870  222.5280 C   0  0  0  0  0  0  0  0  0  0  0  0
  141.2460   79.1790  221.4380 C   0  0  0  0  0  0  0  0  0  0  0  0
  141.4440   80.5160  221.2980 F   0  0  0  0  0  0  0  0  0  0  0  0
  141.7780   78.2530  220.5520 C   0  0  0  0  0  0  0  0  0  0  0  0
  141.5440   76.9090  220.7440 C   0  0  0  0  0  0  0  0  0  0  0  0
  142.0350   75.9240  219.9120 C   0  0  0  0  0  0  0  0  0  0  0  0
  142.7350   76.3390  218.9300 O   0  0  0  0  0  0  0  0  0  0  0  0
  141.7990   74.6070  220.1110 N   0  0  0  0  0  0  0  0  0  0  0  0
  142.3350   73.6030  219.2310 C   0  0  0  0  0  0  0  0  0  0  0  0
  143.3260   72.6700  219.8700 C   0  0  0  0  0  0  0  0  0  0  0  0
  144.2310   72.1810  218.7560 C   0  0  0  0  0  0  0  0  0  0  0  0
  145.6280   71.8940  219.2670 C   0  0  0  0  0  0  0  0  0  0  0  0
  146.2640   73.0650  219.9440 C   0  0  0  0  0  0  0  0  0  0  0  0
  145.2430   74.0780  220.4430 C   0  0  0  0  0  0  0  0  0  0  0  0
  144.0970   73.2500  221.0070 C   0  0  0  0  0  0  0  0  0  0  0  0
  140.6840   71.6800  224.4790 C   0  0  0  0  0  0  0  0  0  0  0  0
  140.7540   70.7130  225.4650 C   0  0  0  0  0  0  0  0  0  0  0  0
  140.0480   68.1712  228.9659 H   0  0  0  0  0  0  0  0  0  0  0  0
  140.7047   69.7347  228.3736 H   0  0  0  0  0  0  0  0  0  0  0  0
  138.9315   69.4476  228.3736 H   0  0  0  0  0  0  0  0  0  0  0  0
  138.5271   68.5338  224.2097 H   0  0  0  0  0  0  0  0  0  0  0  0
  138.4116   70.2539  222.4709 H   0  0  0  0  0  0  0  0  0  0  0  0
  138.8396   73.1522  222.2529 H   0  0  0  0  0  0  0  0  0  0  0  0
  141.2951   72.0389  221.0039 H   0  0  0  0  0  0  0  0  0  0  0  0
  139.6398   77.0715  223.5591 H   0  0  0  0  0  0  0  0  0  0  0  0
  140.0518   79.5294  223.2231 H   0  0  0  0  0  0  0  0  0  0  0  0
  142.3847   78.5910  219.6990 H   0  0  0  0  0  0  0  0  0  0  0  0
  141.4976   73.0021  218.8467 H   0  0  0  0  0  0  0  0  0  0  0  0
  142.8802   74.1414  218.4418 H   0  0  0  0  0  0  0  0  0  0  0  0
  142.7790   71.8438  220.3477 H   0  0  0  0  0  0  0  0  0  0  0  0
  143.8088   71.2588  218.3302 H   0  0  0  0  0  0  0  0  0  0  0  0
  144.2964   72.9687  217.9910 H   0  0  0  0  0  0  0  0  0  0  0  0
  145.5726   71.0633  219.9859 H   0  0  0  0  0  0  0  0  0  0  0  0
  146.2492   71.6468  218.3935 H   0  0  0  0  0  0  0  0  0  0  0  0
  146.8480   72.7013  220.8023 H   0  0  0  0  0  0  0  0  0  0  0  0
  146.9020   73.5713  219.2047 H   0  0  0  0  0  0  0  0  0  0  0  0
  145.6817   74.7128  221.2269 H   0  0  0  0  0  0  0  0  0  0  0  0
  144.9064   74.7501  219.6399 H   0  0  0  0  0  0  0  0  0  0  0  0
  144.4982   72.4403  221.6342 H   0  0  0  0  0  0  0  0  0  0  0  0
  143.4413   73.8844  221.6215 H   0  0  0  0  0  0  0  0  0  0  0  0
  141.3137   72.5767  224.5758 H   0  0  0  0  0  0  0  0  0  0  0  0
  141.4290   70.8548  226.3219 H   0  0  0  0  0  0  0  0  0  0  0  0
  1  2  1  0
  2  3  2  0
  2  4  2  0
  2  5  1  0
  5  6  2  0
  6  7  1  0
  7  8  2  0
  8  9  1  0
  9 10  2  0
 10 11  1  0
 11 12  2  0
 12 13  1  0
 13 14  2  0
 14 15  1  0
 15 16  2  0
 16 17  1  0
 16 18  1  0
 18 19  2  0
 19 20  1  0
 20 21  2  0
 20 22  1  0
 22 23  1  0
 23 24  1  0
 24 25  1  0
 25 26  1  0
 26 27  1  0
 27 28  1  0
 28 29  1  0
  8 30  1  0
 30 31  2  0
 31  5  1  0
 22 11  1  0
 29 24  1  0
 19 13  1  0
  1 32  1  0
  1 33  1  0
  1 34  1  0
  6 35  1  0
  7 36  1  0
  9 37  1  0
 10 38  1  0
 14 39  1  0
 15 40  1  0
 18 41  1  0
 23 42  1  0
 23 43  1  0
 24 44  1  0
 25 45  1  0
 25 46  1  0
 26 47  1  0
 26 48  1  0
 27 49  1  0
 27 50  1  0
 28 51  1  0
 28 52  1  0
 29 53  1  0
 29 54  1  0
 30 55  1  0
 31 56  1  0
M  END
>  <smiles>  (41) 
CS(=O)(=O)c1ccc(/C=C/c2nc3ccc(F)cc3c(=O)n2CC2CCCCC2)cc1

>  <score_type>  (41) 
oracle

>  <origin>  (41) 
autodockgpu

>  <m_score__min__energy>  (41) 
-9.1400000000000006

>  <m_primary>  (41) 
energy

>  <rmsd>  (41) 
5.684673840925171

>  <m_score__min__rmsd>  (41) 
5.684673840925171

>  <meeko>  (41) 
{"free_energy": -8.82, "intermolecular_energy": -10.61, "internal_energy": -1.38, "cluster_size": 16, "cluster_id": 1, "rank_in_cluster": 6}

>  <energy>  (41) 
-7.8

>  <cluster_rmsd>  (41) 
1.45

>  <cluster>  (41) 
4

$$$$

     RDKit          3D

 56 59  0  0  0  0  0  0  0  0999 V2000
  140.1040   68.7520  228.2540 C   0  0  0  0  0  0  0  0  0  0  0  0
  140.2390   68.1200  226.6010 S   0  0  0  0  0  0  0  0  0  0  0  0
  139.1910   67.0520  226.4390 O   0  0  0  0  0  0  0  0  0  0  0  0
  141.5860   67.4410  226.4470 O   0  0  0  0  0  0  0  0  0  0  0  0
  140.0820   69.3930  225.4140 C   0  0  0  0  0  0  0  0  0  0  0  0
  139.1490   69.2610  224.4140 C   0  0  0  0  0  0  0  0  0  0  0  0
  138.9910   70.2380  223.4600 C   0  0  0  0  0  0  0  0  0  0  0  0
  139.7620   71.4060  223.4530 C   0  0  0  0  0  0  0  0  0  0  0  0
  139.5750   72.4260  222.4290 C   0  0  0  0  0  0  0  0  0  0  0  0
  140.3970   72.6420  221.4310 C   0  0  0  0  0  0  0  0  0  0  0  0
  140.8600   73.9960  221.1510 C   0  0  0  0  0  0  0  0  0  0  0  0
  140.4430   74.9990  221.9650 N   0  0  0  0  0  0  0  0  0  0  0  0
  140.7870   76.2710  221.8280 C   0  0  0  0  0  0  0  0  0  0  0  0
  140.3100   77.2200  222.7100 C   0  0  0  0  0  0  0  0  0  0  0  0
  140.6760   78.5590  222.5590 C   0  0  0  0  0  0  0  0  0  0  0  0
  141.5250   78.8860  221.5030 C   0  0  0  0  0  0  0  0  0  0  0  0
  141.8570   80.2000  221.3900 F   0  0  0  0  0  0  0  0  0  0  0  0
  141.9970   77.9230  220.6220 C   0  0  0  0  0  0  0  0  0  0  0  0
  141.6270   76.6060  220.7860 C   0  0  0  0  0  0  0  0  0  0  0  0
  142.0500   75.5880  219.9570 C   0  0  0  0  0  0  0  0  0  0  0  0
  142.8240   75.9440  219.0070 O   0  0  0  0  0  0  0  0  0  0  0  0
  141.6800   74.2980  220.1260 N   0  0  0  0  0  0  0  0  0  0  0  0
  142.1490   73.2570  219.2520 C   0  0  0  0  0  0  0  0  0  0  0  0
  143.2320   72.3880  219.8290 C   0  0  0  0  0  0  0  0  0  0  0  0
  144.1520   72.0310  218.6780 C   0  0  0  0  0  0  0  0  0  0  0  0
  145.5790   71.8470  219.1510 C   0  0  0  0  0  0  0  0  0  0  0  0
  146.1240   73.0380  219.8700 C   0  0  0  0  0  0  0  0  0  0  0  0
  145.0290   73.9340  220.4320 C   0  0  0  0  0  0  0  0  0  0  0  0
  143.9730   72.9830  220.9780 C   0  0  0  0  0  0  0  0  0  0  0  0
  140.6890   71.5070  224.4670 C   0  0  0  0  0  0  0  0  0  0  0  0
  140.8540   70.5310  225.4320 C   0  0  0  0  0  0  0  0  0  0  0  0
  140.2779   67.9380  228.9731 H   0  0  0  0  0  0  0  0  0  0  0  0
  140.8536   69.5425  228.4067 H   0  0  0  0  0  0  0  0  0  0  0  0
  139.0969   69.1672  228.4067 H   0  0  0  0  0  0  0  0  0  0  0  0
  138.5191   68.3600  224.3763 H   0  0  0  0  0  0  0  0  0  0  0  0
  138.2329   70.0970  222.6755 H   0  0  0  0  0  0  0  0  0  0  0  0
  138.6792   73.0606  222.4986 H   0  0  0  0  0  0  0  0  0  0  0  0
  140.7369   71.8032  220.8058 H   0  0  0  0  0  0  0  0  0  0  0  0
  139.6419   76.9214  223.5313 H   0  0  0  0  0  0  0  0  0  0  0  0
  140.3065   79.3304  223.2507 H   0  0  0  0  0  0  0  0  0  0  0  0
  142.6640   78.2102  219.7958 H   0  0  0  0  0  0  0  0  0  0  0  0
  141.2940   72.6137  218.9968 H   0  0  0  0  0  0  0  0  0  0  0  0
  142.5894   73.7612  218.3792 H   0  0  0  0  0  0  0  0  0  0  0  0
  142.7705   71.4957  220.2770 H   0  0  0  0  0  0  0  0  0  0  0  0
  143.8035   71.0946  218.2178 H   0  0  0  0  0  0  0  0  0  0  0  0
  144.1313   72.8542  217.9487 H   0  0  0  0  0  0  0  0  0  0  0  0
  145.6121   70.9835  219.8316 H   0  0  0  0  0  0  0  0  0  0  0  0
  146.2007   71.6952  218.2563 H   0  0  0  0  0  0  0  0  0  0  0  0
  146.7552   72.6896  220.7008 H   0  0  0  0  0  0  0  0  0  0  0  0
  146.6998   73.6308  219.1440 H   0  0  0  0  0  0  0  0  0  0  0  0
  145.4269   74.5707  221.2360 H   0  0  0  0  0  0  0  0  0  0  0  0
  144.6174   74.6082  219.6665 H   0  0  0  0  0  0  0  0  0  0  0  0
  144.4576   72.1852  221.5600 H   0  0  0  0  0  0  0  0  0  0  0  0
  143.2775   73.5283  221.6330 H   0  0  0  0  0  0  0  0  0  0  0  0
  141.3255   72.4031  224.5107 H   0  0  0  0  0  0  0  0  0  0  0  0
  141.6089   70.6657  226.2207 H   0  0  0  0  0  0  0  0  0  0  0  0
  1  2  1  0
  2  3  2  0
  2  4  2  0
  2  5  1  0
  5  6  2  0
  6  7  1  0
  7  8  2  0
  8  9  1  0
  9 10  2  0
 10 11  1  0
 11 12  2  0
 12 13  1  0
 13 14  2  0
 14 15  1  0
 15 16  2  0
 16 17  1  0
 16 18  1  0
 18 19  2  0
 19 20  1  0
 20 21  2  0
 20 22  1  0
 22 23  1  0
 23 24  1  0
 24 25  1  0
 25 26  1  0
 26 27  1  0
 27 28  1  0
 28 29  1  0
  8 30  1  0
 30 31  2  0
 31  5  1  0
 22 11  1  0
 29 24  1  0
 19 13  1  0
  1 32  1  0
  1 33  1  0
  1 34  1  0
  6 35  1  0
  7 36  1  0
  9 37  1  0
 10 38  1  0
 14 39  1  0
 15 40  1  0
 18 41  1  0
 23 42  1  0
 23 43  1  0
 24 44  1  0
 25 45  1  0
 25 46  1  0
 26 47  1  0
 26 48  1  0
 27 49  1  0
 27 50  1  0
 28 51  1  0
 28 52  1  0
 29 53  1  0
 29 54  1  0
 30 55  1  0
 31 56  1  0
M  END
>  <smiles>  (42) 
CS(=O)(=O)c1ccc(/C=C/c2nc3ccc(F)cc3c(=O)n2CC2CCCCC2)cc1

>  <score_type>  (42) 
oracle

>  <origin>  (42) 
autodockgpu

>  <m_score__min__energy>  (42) 
-9.1400000000000006

>  <m_primary>  (42) 
energy

>  <rmsd>  (42) 
5.792712288341696

>  <m_score__min__rmsd>  (42) 
5.792712288341696

>  <meeko>  (42) 
{"free_energy": -8.83, "intermolecular_energy": -10.62, "internal_energy": -1.52, "cluster_size": 16, "cluster_id": 1, "rank_in_cluster": 5}

>  <energy>  (42) 
-7.76

>  <cluster_rmsd>  (42) 
0.66

>  <cluster>  (42) 
4

$$$$

     RDKit          3D

 56 59  0  0  0  0  0  0  0  0999 V2000
  144.9880   72.3820  217.2510 C   0  0  0  0  0  0  0  0  0  0  0  0
  145.2940   72.3230  218.9990 S   0  0  0  0  0  0  0  0  0  0  0  0
  146.3320   73.3660  219.3110 O   0  0  0  0  0  0  0  0  0  0  0  0
  145.9040   70.9780  219.3410 O   0  0  0  0  0  0  0  0  0  0  0  0
  143.8230   72.5520  219.9140 C   0  0  0  0  0  0  0  0  0  0  0  0
  143.0890   71.4510  220.2850 C   0  0  0  0  0  0  0  0  0  0  0  0
  141.9260   71.5860  221.0060 C   0  0  0  0  0  0  0  0  0  0  0  0
  141.4320   72.8340  221.3990 C   0  0  0  0  0  0  0  0  0  0  0  0
  140.1960   72.9490  222.1620 C   0  0  0  0  0  0  0  0  0  0  0  0
  139.3440   71.9710  222.3560 C   0  0  0  0  0  0  0  0  0  0  0  0
  139.5140   71.0760  223.4950 C   0  0  0  0  0  0  0  0  0  0  0  0
  140.0870   71.5680  224.6210 N   0  0  0  0  0  0  0  0  0  0  0  0
  140.2990   70.8690  225.7260 C   0  0  0  0  0  0  0  0  0  0  0  0
  140.8900   71.4620  226.8230 C   0  0  0  0  0  0  0  0  0  0  0  0
  141.1110   70.7180  227.9840 C   0  0  0  0  0  0  0  0  0  0  0  0
  140.7160   69.3810  227.9850 C   0  0  0  0  0  0  0  0  0  0  0  0
  140.9490   68.6910  229.1330 F   0  0  0  0  0  0  0  0  0  0  0  0
  140.1230   68.7950  226.8750 C   0  0  0  0  0  0  0  0  0  0  0  0
  139.9130   69.5440  225.7370 C   0  0  0  0  0  0  0  0  0  0  0  0
  139.3310   69.0410  224.5920 C   0  0  0  0  0  0  0  0  0  0  0  0
  138.9900   67.8130  224.6480 O   0  0  0  0  0  0  0  0  0  0  0  0
  139.1280   69.7850  223.4810 N   0  0  0  0  0  0  0  0  0  0  0  0
  138.5080   69.2340  222.3060 C   0  0  0  0  0  0  0  0  0  0  0  0
  137.0300   69.4910  222.1940 C   0  0  0  0  0  0  0  0  0  0  0  0
  136.3500   68.1440  222.3420 C   0  0  0  0  0  0  0  0  0  0  0  0
  134.9860   68.2830  222.9850 C   0  0  0  0  0  0  0  0  0  0  0  0
  135.0240   68.9670  224.3140 C   0  0  0  0  0  0  0  0  0  0  0  0
  136.2690   69.8240  224.4950 C   0  0  0  0  0  0  0  0  0  0  0  0
  136.4910   70.5010  223.1500 C   0  0  0  0  0  0  0  0  0  0  0  0
  142.1900   73.9170  221.0120 C   0  0  0  0  0  0  0  0  0  0  0  0
  143.3610   73.7930  220.2880 C   0  0  0  0  0  0  0  0  0  0  0  0
  143.9223   72.5875  217.0721 H   0  0  0  0  0  0  0  0  0  0  0  0
  145.5961   73.1794  216.7990 H   0  0  0  0  0  0  0  0  0  0  0  0
  145.2560   71.4156  216.7990 H   0  0  0  0  0  0  0  0  0  0  0  0
  143.4370   70.4469  220.0010 H   0  0  0  0  0  0  0  0  0  0  0  0
  141.3649   70.6814  221.2832 H   0  0  0  0  0  0  0  0  0  0  0  0
  139.9605   73.9268  222.6075 H   0  0  0  0  0  0  0  0  0  0  0  0
  138.5034   71.8261  221.6615 H   0  0  0  0  0  0  0  0  0  0  0  0
  141.1869   72.5204  226.7830 H   0  0  0  0  0  0  0  0  0  0  0  0
  141.5813   71.1720  228.8687 H   0  0  0  0  0  0  0  0  0  0  0  0
  139.8220   67.7374  226.9035 H   0  0  0  0  0  0  0  0  0  0  0  0
  138.9991   69.6698  221.4235 H   0  0  0  0  0  0  0  0  0  0  0  0
  138.6285   68.1428  222.3747 H   0  0  0  0  0  0  0  0  0  0  0  0
  136.8225   69.9505  221.2163 H   0  0  0  0  0  0  0  0  0  0  0  0
  136.2322   67.6909  221.3466 H   0  0  0  0  0  0  0  0  0  0  0  0
  136.9747   67.5092  222.9875 H   0  0  0  0  0  0  0  0  0  0  0  0
  134.3404   68.8654  222.3112 H   0  0  0  0  0  0  0  0  0  0  0  0
  134.6008   67.2665  223.1534 H   0  0  0  0  0  0  0  0  0  0  0  0
  134.1367   69.6108  224.4045 H   0  0  0  0  0  0  0  0  0  0  0  0
  135.0400   68.1875  225.0899 H   0  0  0  0  0  0  0  0  0  0  0  0
  136.1083   70.5752  225.2824 H   0  0  0  0  0  0  0  0  0  0  0  0
  137.1388   69.2236  224.7999 H   0  0  0  0  0  0  0  0  0  0  0  0
  135.5369   70.8971  222.7722 H   0  0  0  0  0  0  0  0  0  0  0  0
  137.2025   71.3326  223.2600 H   0  0  0  0  0  0  0  0  0  0  0  0
  141.8486   74.9247  221.2913 H   0  0  0  0  0  0  0  0  0  0  0  0
  143.9279   74.6933  220.0087 H   0  0  0  0  0  0  0  0  0  0  0  0
  1  2  1  0
  2  3  2  0
  2  4  2  0
  2  5  1  0
  5  6  2  0
  6  7  1  0
  7  8  2  0
  8  9  1  0
  9 10  2  0
 10 11  1  0
 11 12  2  0
 12 13  1  0
 13 14  2  0
 14 15  1  0
 15 16  2  0
 16 17  1  0
 16 18  1  0
 18 19  2  0
 19 20  1  0
 20 21  2  0
 20 22  1  0
 22 23  1  0
 23 24  1  0
 24 25  1  0
 25 26  1  0
 26 27  1  0
 27 28  1  0
 28 29  1  0
  8 30  1  0
 30 31  2  0
 31  5  1  0
 22 11  1  0
 29 24  1  0
 19 13  1  0
  1 32  1  0
  1 33  1  0
  1 34  1  0
  6 35  1  0
  7 36  1  0
  9 37  1  0
 10 38  1  0
 14 39  1  0
 15 40  1  0
 18 41  1  0
 23 42  1  0
 23 43  1  0
 24 44  1  0
 25 45  1  0
 25 46  1  0
 26 47  1  0
 26 48  1  0
 27 49  1  0
 27 50  1  0
 28 51  1  0
 28 52  1  0
 29 53  1  0
 29 54  1  0
 30 55  1  0
 31 56  1  0
M  END
>  <smiles>  (43) 
CS(=O)(=O)c1ccc(/C=C/c2nc3ccc(F)cc3c(=O)n2CC2CCCCC2)cc1

>  <score_type>  (43) 
oracle

>  <origin>  (43) 
autodockgpu

>  <m_score__min__energy>  (43) 
-9.1400000000000006

>  <m_primary>  (43) 
energy

>  <rmsd>  (43) 
11.33032444551467

>  <m_score__min__rmsd>  (43) 
11.33032444551467

>  <meeko>  (43) 
{"free_energy": -8.14, "intermolecular_energy": -9.93, "internal_energy": -1.61, "cluster_size": 10, "cluster_id": 4, "rank_in_cluster": 4}

>  <energy>  (43) 
-7.62

>  <cluster_rmsd>  (43) 
1.63

>  <cluster>  (43) 
4

$$$$

     RDKit          3D

 56 59  0  0  0  0  0  0  0  0999 V2000
  141.0030   68.1480  227.9200 C   0  0  0  0  0  0  0  0  0  0  0  0
  140.4140   69.8220  227.9310 S   0  0  0  0  0  0  0  0  0  0  0  0
  141.4370   70.6560  228.6550 O   0  0  0  0  0  0  0  0  0  0  0  0
  139.1390   69.8840  228.7480 O   0  0  0  0  0  0  0  0  0  0  0  0
  140.1060   70.4040  226.3130 C   0  0  0  0  0  0  0  0  0  0  0  0
  140.9100   71.3900  225.7930 C   0  0  0  0  0  0  0  0  0  0  0  0
  140.7040   71.8770  224.5240 C   0  0  0  0  0  0  0  0  0  0  0  0
  139.6770   71.4020  223.7010 C   0  0  0  0  0  0  0  0  0  0  0  0
  139.4790   71.9360  222.3600 C   0  0  0  0  0  0  0  0  0  0  0  0
  140.4330   72.1160  221.4790 C   0  0  0  0  0  0  0  0  0  0  0  0
  140.8590   73.4680  221.1350 C   0  0  0  0  0  0  0  0  0  0  0  0
  140.5290   74.4800  221.9760 N   0  0  0  0  0  0  0  0  0  0  0  0
  140.8520   75.7510  221.7880 C   0  0  0  0  0  0  0  0  0  0  0  0
  140.4700   76.7090  222.7040 C   0  0  0  0  0  0  0  0  0  0  0  0
  140.8140   78.0470  222.4980 C   0  0  0  0  0  0  0  0  0  0  0  0
  141.5450   78.3630  221.3540 C   0  0  0  0  0  0  0  0  0  0  0  0
  141.8590   79.6750  221.1910 F   0  0  0  0  0  0  0  0  0  0  0  0
  141.9240   77.3900  220.4400 C   0  0  0  0  0  0  0  0  0  0  0  0
  141.5760   76.0740  220.6580 C   0  0  0  0  0  0  0  0  0  0  0  0
  141.9120   75.0460  219.8010 C   0  0  0  0  0  0  0  0  0  0  0  0
  142.5790   75.3920  218.7710 O   0  0  0  0  0  0  0  0  0  0  0  0
  141.5650   73.7580  220.0250 N   0  0  0  0  0  0  0  0  0  0  0  0
  141.9410   72.7070  219.1180 C   0  0  0  0  0  0  0  0  0  0  0  0
  143.3230   72.1530  219.3330 C   0  0  0  0  0  0  0  0  0  0  0  0
  144.2190   72.8370  218.3190 C   0  0  0  0  0  0  0  0  0  0  0  0
  145.6310   72.9900  218.8470 C   0  0  0  0  0  0  0  0  0  0  0  0
  145.7020   73.7240  220.1460 C   0  0  0  0  0  0  0  0  0  0  0  0
  144.3850   73.6930  220.9090 C   0  0  0  0  0  0  0  0  0  0  0  0
  143.8450   72.2820  220.7230 C   0  0  0  0  0  0  0  0  0  0  0  0
  138.8890   70.4150  224.2500 C   0  0  0  0  0  0  0  0  0  0  0  0
  139.0880   69.9180  225.5250 C   0  0  0  0  0  0  0  0  0  0  0  0
  141.1268   67.7961  228.9548 H   0  0  0  0  0  0  0  0  0  0  0  0
  140.2764   67.5071  227.3992 H   0  0  0  0  0  0  0  0  0  0  0  0
  141.9709   68.1033  227.3992 H   0  0  0  0  0  0  0  0  0  0  0  0
  141.7313   71.7959  226.4018 H   0  0  0  0  0  0  0  0  0  0  0  0
  141.3687   72.6663  224.1430 H   0  0  0  0  0  0  0  0  0  0  0  0
  138.4547   72.2079  222.0653 H   0  0  0  0  0  0  0  0  0  0  0  0
  140.9114   71.2490  221.0000 H   0  0  0  0  0  0  0  0  0  0  0  0
  139.8950   76.4195  223.5959 H   0  0  0  0  0  0  0  0  0  0  0  0
  140.5175   78.8263  223.2155 H   0  0  0  0  0  0  0  0  0  0  0  0
  142.4999   77.6678  219.5449 H   0  0  0  0  0  0  0  0  0  0  0  0
  141.2207   71.8834  219.2311 H   0  0  0  0  0  0  0  0  0  0  0  0
  141.9382   73.1507  218.1114 H   0  0  0  0  0  0  0  0  0  0  0  0
  143.2959   71.0630  219.1875 H   0  0  0  0  0  0  0  0  0  0  0  0
  144.2438   72.2348  217.3988 H   0  0  0  0  0  0  0  0  0  0  0  0
  143.8132   73.8393  218.1172 H   0  0  0  0  0  0  0  0  0  0  0  0
  146.0608   71.9874  218.9890 H   0  0  0  0  0  0  0  0  0  0  0  0
  146.1917   73.5817  218.1084 H   0  0  0  0  0  0  0  0  0  0  0  0
  146.4814   73.2618  220.7696 H   0  0  0  0  0  0  0  0  0  0  0  0
  145.9324   74.7760  219.9219 H   0  0  0  0  0  0  0  0  0  0  0  0
  144.5527   73.9037  221.9755 H   0  0  0  0  0  0  0  0  0  0  0  0
  143.6803   74.4532  220.5409 H   0  0  0  0  0  0  0  0  0  0  0  0
  144.6516   71.5519  220.8854 H   0  0  0  0  0  0  0  0  0  0  0  0
  143.0394   72.0891  221.4468 H   0  0  0  0  0  0  0  0  0  0  0  0
  138.0652   70.0040  223.6479 H   0  0  0  0  0  0  0  0  0  0  0  0
  138.4275   69.1282  225.9122 H   0  0  0  0  0  0  0  0  0  0  0  0
  1  2  1  0
  2  3  2  0
  2  4  2  0
  2  5  1  0
  5  6  2  0
  6  7  1  0
  7  8  2  0
  8  9  1  0
  9 10  2  0
 10 11  1  0
 11 12  2  0
 12 13  1  0
 13 14  2  0
 14 15  1  0
 15 16  2  0
 16 17  1  0
 16 18  1  0
 18 19  2  0
 19 20  1  0
 20 21  2  0
 20 22  1  0
 22 23  1  0
 23 24  1  0
 24 25  1  0
 25 26  1  0
 26 27  1  0
 27 28  1  0
 28 29  1  0
  8 30  1  0
 30 31  2  0
 31  5  1  0
 22 11  1  0
 29 24  1  0
 19 13  1  0
  1 32  1  0
  1 33  1  0
  1 34  1  0
  6 35  1  0
  7 36  1  0
  9 37  1  0
 10 38  1  0
 14 39  1  0
 15 40  1  0
 18 41  1  0
 23 42  1  0
 23 43  1  0
 24 44  1  0
 25 45  1  0
 25 46  1  0
 26 47  1  0
 26 48  1  0
 27 49  1  0
 27 50  1  0
 28 51  1  0
 28 52  1  0
 29 53  1  0
 29 54  1  0
 30 55  1  0
 31 56  1  0
M  END
>  <smiles>  (44) 
CS(=O)(=O)c1ccc(/C=C/c2nc3ccc(F)cc3c(=O)n2CC2CCCCC2)cc1

>  <score_type>  (44) 
oracle

>  <origin>  (44) 
autodockgpu

>  <m_score__min__energy>  (44) 
-9.1400000000000006

>  <m_primary>  (44) 
energy

>  <rmsd>  (44) 
5.774718678167424

>  <m_score__min__rmsd>  (44) 
5.774718678167424

>  <meeko>  (44) 
{"free_energy": -8.4, "intermolecular_energy": -10.19, "internal_energy": -1.62, "cluster_size": 16, "cluster_id": 1, "rank_in_cluster": 13}

>  <energy>  (44) 
-7.86

>  <cluster_rmsd>  (44) 
0.0

>  <cluster>  (44) 
5

$$$$

     RDKit          3D

 56 59  0  0  0  0  0  0  0  0999 V2000
  131.5650   73.4230  225.7940 C   0  0  0  0  0  0  0  0  0  0  0  0
  133.1300   73.8020  226.5390 S   0  0  0  0  0  0  0  0  0  0  0  0
  133.5690   72.5850  227.3100 O   0  0  0  0  0  0  0  0  0  0  0  0
  132.9330   74.9140  227.5490 O   0  0  0  0  0  0  0  0  0  0  0  0
  134.3070   74.2930  225.3440 C   0  0  0  0  0  0  0  0  0  0  0  0
  134.8590   73.3410  224.5210 C   0  0  0  0  0  0  0  0  0  0  0  0
  135.7880   73.6830  223.5670 C   0  0  0  0  0  0  0  0  0  0  0  0
  136.2180   75.0010  223.3820 C   0  0  0  0  0  0  0  0  0  0  0  0
  137.2040   75.3370  222.3640 C   0  0  0  0  0  0  0  0  0  0  0  0
  138.1720   76.2070  222.5190 C   0  0  0  0  0  0  0  0  0  0  0  0
  139.4820   75.9500  221.9320 C   0  0  0  0  0  0  0  0  0  0  0  0
  139.9470   74.6750  221.9310 N   0  0  0  0  0  0  0  0  0  0  0  0
  141.1150   74.3000  221.4300 C   0  0  0  0  0  0  0  0  0  0  0  0
  141.4990   72.9760  221.4760 C   0  0  0  0  0  0  0  0  0  0  0  0
  142.7320   72.5890  220.9470 C   0  0  0  0  0  0  0  0  0  0  0  0
  143.5370   73.5770  220.3830 C   0  0  0  0  0  0  0  0  0  0  0  0
  144.7290   73.1590  219.8790 F   0  0  0  0  0  0  0  0  0  0  0  0
  143.1400   74.9060  220.3430 C   0  0  0  0  0  0  0  0  0  0  0  0
  141.9200   75.2710  220.8700 C   0  0  0  0  0  0  0  0  0  0  0  0
  141.4490   76.5680  220.8710 C   0  0  0  0  0  0  0  0  0  0  0  0
  142.2260   77.4310  220.3430 O   0  0  0  0  0  0  0  0  0  0  0  0
  140.2490   76.9150  221.3900 N   0  0  0  0  0  0  0  0  0  0  0  0
  139.7810   78.2750  221.3660 C   0  0  0  0  0  0  0  0  0  0  0  0
  140.1090   79.0770  222.5950 C   0  0  0  0  0  0  0  0  0  0  0  0
  141.3210   78.4190  223.2240 C   0  0  0  0  0  0  0  0  0  0  0  0
  142.1880   79.4330  223.9410 C   0  0  0  0  0  0  0  0  0  0  0  0
  142.6340   80.5580  223.0640 C   0  0  0  0  0  0  0  0  0  0  0  0
  141.7370   80.7430  221.8480 C   0  0  0  0  0  0  0  0  0  0  0  0
  140.3180   80.5340  222.3590 C   0  0  0  0  0  0  0  0  0  0  0  0
  135.6460   75.9310  224.2230 C   0  0  0  0  0  0  0  0  0  0  0  0
  134.7110   75.5980  225.1850 C   0  0  0  0  0  0  0  0  0  0  0  0
  130.8183   73.2422  226.5813 H   0  0  0  0  0  0  0  0  0  0  0  0
  131.2418   74.2688  225.1694 H   0  0  0  0  0  0  0  0  0  0  0  0
  131.6646   72.5230  225.1694 H   0  0  0  0  0  0  0  0  0  0  0  0
  134.5530   72.2898  224.6271 H   0  0  0  0  0  0  0  0  0  0  0  0
  136.2076   72.8928  222.9271 H   0  0  0  0  0  0  0  0  0  0  0  0
  137.1309   74.8230  221.3942 H   0  0  0  0  0  0  0  0  0  0  0  0
  137.9965   77.1299  223.0912 H   0  0  0  0  0  0  0  0  0  0  0  0
  140.8345   72.2256  221.9290 H   0  0  0  0  0  0  0  0  0  0  0  0
  143.0573   71.5386  220.9746 H   0  0  0  0  0  0  0  0  0  0  0  0
  143.7964   75.6651  219.8925 H   0  0  0  0  0  0  0  0  0  0  0  0
  140.2340   78.7774  220.4986 H   0  0  0  0  0  0  0  0  0  0  0  0
  138.6834   78.2237  221.3138 H   0  0  0  0  0  0  0  0  0  0  0  0
  139.2404   79.0650  223.2698 H   0  0  0  0  0  0  0  0  0  0  0  0
  140.9829   77.6619  223.9468 H   0  0  0  0  0  0  0  0  0  0  0  0
  141.9180   77.9552  222.4249 H   0  0  0  0  0  0  0  0  0  0  0  0
  141.6133   79.8518  224.7803 H   0  0  0  0  0  0  0  0  0  0  0  0
  143.0926   78.9060  224.2786 H   0  0  0  0  0  0  0  0  0  0  0  0
  142.6265   81.4876  223.6521 H   0  0  0  0  0  0  0  0  0  0  0  0
  143.6435   80.3167  222.6998 H   0  0  0  0  0  0  0  0  0  0  0  0
  141.8523   81.7559  221.4349 H   0  0  0  0  0  0  0  0  0  0  0  0
  141.9899   80.0392  221.0414 H   0  0  0  0  0  0  0  0  0  0  0  0
  140.1776   81.0860  223.3000 H   0  0  0  0  0  0  0  0  0  0  0  0
  139.5930   80.9033  221.6187 H   0  0  0  0  0  0  0  0  0  0  0  0
  135.9467   76.9845  224.1244 H   0  0  0  0  0  0  0  0  0  0  0  0
  134.2867   76.3829  225.8284 H   0  0  0  0  0  0  0  0  0  0  0  0
  1  2  1  0
  2  3  2  0
  2  4  2  0
  2  5  1  0
  5  6  2  0
  6  7  1  0
  7  8  2  0
  8  9  1  0
  9 10  2  0
 10 11  1  0
 11 12  2  0
 12 13  1  0
 13 14  2  0
 14 15  1  0
 15 16  2  0
 16 17  1  0
 16 18  1  0
 18 19  2  0
 19 20  1  0
 20 21  2  0
 20 22  1  0
 22 23  1  0
 23 24  1  0
 24 25  1  0
 25 26  1  0
 26 27  1  0
 27 28  1  0
 28 29  1  0
  8 30  1  0
 30 31  2  0
 31  5  1  0
 22 11  1  0
 29 24  1  0
 19 13  1  0
  1 32  1  0
  1 33  1  0
  1 34  1  0
  6 35  1  0
  7 36  1  0
  9 37  1  0
 10 38  1  0
 14 39  1  0
 15 40  1  0
 18 41  1  0
 23 42  1  0
 23 43  1  0
 24 44  1  0
 25 45  1  0
 25 46  1  0
 26 47  1  0
 26 48  1  0
 27 49  1  0
 27 50  1  0
 28 51  1  0
 28 52  1  0
 29 53  1  0
 29 54  1  0
 30 55  1  0
 31 56  1  0
M  END
>  <smiles>  (45) 
CS(=O)(=O)c1ccc(/C=C/c2nc3ccc(F)cc3c(=O)n2CC2CCCCC2)cc1

>  <score_type>  (45) 
oracle

>  <origin>  (45) 
autodockgpu

>  <m_score__min__energy>  (45) 
-9.1400000000000006

>  <m_primary>  (45) 
energy

>  <rmsd>  (45) 
7.164798850689362

>  <m_score__min__rmsd>  (45) 
7.164798850689362

>  <meeko>  (45) 
{"free_energy": -8.34, "intermolecular_energy": -10.13, "internal_energy": -1.3, "cluster_size": 8, "cluster_id": 3, "rank_in_cluster": 5}

>  <energy>  (45) 
-7.71

>  <cluster_rmsd>  (45) 
0.0

>  <cluster>  (45) 
6

$$$$

     RDKit          3D

 56 59  0  0  0  0  0  0  0  0999 V2000
  144.9510   73.7190  217.3740 C   0  0  0  0  0  0  0  0  0  0  0  0
  145.2060   72.7990  218.8700 S   0  0  0  0  0  0  0  0  0  0  0  0
  146.3960   73.3970  219.5700 O   0  0  0  0  0  0  0  0  0  0  0  0
  145.5780   71.3750  218.5080 O   0  0  0  0  0  0  0  0  0  0  0  0
  143.7740   72.7970  219.8720 C   0  0  0  0  0  0  0  0  0  0  0  0
  143.1280   73.9850  220.1150 C   0  0  0  0  0  0  0  0  0  0  0  0
  141.9990   74.0290  220.8980 C   0  0  0  0  0  0  0  0  0  0  0  0
  141.4510   72.8830  221.4830 C   0  0  0  0  0  0  0  0  0  0  0  0
  140.2530   72.9580  222.3100 C   0  0  0  0  0  0  0  0  0  0  0  0
  139.3910   71.9820  222.4670 C   0  0  0  0  0  0  0  0  0  0  0  0
  139.5450   71.0490  223.5770 C   0  0  0  0  0  0  0  0  0  0  0  0
  140.1170   71.5000  224.7220 N   0  0  0  0  0  0  0  0  0  0  0  0
  140.3150   70.7630  225.8050 C   0  0  0  0  0  0  0  0  0  0  0  0
  140.9050   71.3150  226.9240 C   0  0  0  0  0  0  0  0  0  0  0  0
  141.1110   70.5320  228.0610 C   0  0  0  0  0  0  0  0  0  0  0  0
  140.7010   69.2000  228.0180 C   0  0  0  0  0  0  0  0  0  0  0  0
  140.9200   68.4720  229.1450 F   0  0  0  0  0  0  0  0  0  0  0  0
  140.1080   68.6570  226.8870 C   0  0  0  0  0  0  0  0  0  0  0  0
  139.9130   69.4440  225.7720 C   0  0  0  0  0  0  0  0  0  0  0  0
  139.3320   68.9830  224.6080 C   0  0  0  0  0  0  0  0  0  0  0  0
  138.9770   67.7580  224.6240 O   0  0  0  0  0  0  0  0  0  0  0  0
  139.1440   69.7640  223.5200 N   0  0  0  0  0  0  0  0  0  0  0  0
  138.5240   69.2580  222.3260 C   0  0  0  0  0  0  0  0  0  0  0  0
  137.0500   69.5340  222.2150 C   0  0  0  0  0  0  0  0  0  0  0  0
  136.3560   68.1880  222.3020 C   0  0  0  0  0  0  0  0  0  0  0  0
  134.9890   68.3140  222.9420 C   0  0  0  0  0  0  0  0  0  0  0  0
  135.0240   68.9430  224.2980 C   0  0  0  0  0  0  0  0  0  0  0  0
  136.2770   69.7800  224.5220 C   0  0  0  0  0  0  0  0  0  0  0  0
  136.5140   70.5090  223.2070 C   0  0  0  0  0  0  0  0  0  0  0  0
  142.1220   71.7080  221.2210 C   0  0  0  0  0  0  0  0  0  0  0  0
  143.2580   71.6530  220.4350 C   0  0  0  0  0  0  0  0  0  0  0  0
  144.6648   74.7516  217.6228 H   0  0  0  0  0  0  0  0  0  0  0  0
  145.8806   73.7277  216.7859 H   0  0  0  0  0  0  0  0  0  0  0  0
  144.1496   73.2480  216.7859 H   0  0  0  0  0  0  0  0  0  0  0  0
  143.5200   74.9146  219.6766 H   0  0  0  0  0  0  0  0  0  0  0  0
  141.5097   74.9990  221.0703 H   0  0  0  0  0  0  0  0  0  0  0  0
  140.0578   73.9014  222.8408 H   0  0  0  0  0  0  0  0  0  0  0  0
  138.5537   71.8675  221.7628 H   0  0  0  0  0  0  0  0  0  0  0  0
  141.2126   72.3711  226.9198 H   0  0  0  0  0  0  0  0  0  0  0  0
  141.5817   70.9523  228.9620 H   0  0  0  0  0  0  0  0  0  0  0  0
  139.7947   67.6026  226.8801 H   0  0  0  0  0  0  0  0  0  0  0  0
  139.0241   69.7165  221.4601 H   0  0  0  0  0  0  0  0  0  0  0  0
  138.6323   68.1639  222.3608 H   0  0  0  0  0  0  0  0  0  0  0  0
  136.8536   70.0357  221.2560 H   0  0  0  0  0  0  0  0  0  0  0  0
  136.2404   67.7782  221.2877 H   0  0  0  0  0  0  0  0  0  0  0  0
  136.9703   67.5202  222.9239 H   0  0  0  0  0  0  0  0  0  0  0  0
  134.3534   68.9295  222.2884 H   0  0  0  0  0  0  0  0  0  0  0  0
  134.5936   67.2951  223.0667 H   0  0  0  0  0  0  0  0  0  0  0  0
  134.1424   69.5915  224.4087 H   0  0  0  0  0  0  0  0  0  0  0  0
  135.0267   68.1326  225.0418 H   0  0  0  0  0  0  0  0  0  0  0  0
  136.1185   70.4999  225.3384 H   0  0  0  0  0  0  0  0  0  0  0  0
  137.1390   69.1592  224.8077 H   0  0  0  0  0  0  0  0  0  0  0  0
  135.5660   70.9289  222.8395 H   0  0  0  0  0  0  0  0  0  0  0  0
  137.2321   71.3290  223.3550 H   0  0  0  0  0  0  0  0  0  0  0  0
  141.7371   70.7738  221.6559 H   0  0  0  0  0  0  0  0  0  0  0  0
  143.7531   70.6867  220.2585 H   0  0  0  0  0  0  0  0  0  0  0  0
  1  2  1  0
  2  3  2  0
  2  4  2  0
  2  5  1  0
  5  6  2  0
  6  7  1  0
  7  8  2  0
  8  9  1  0
  9 10  2  0
 10 11  1  0
 11 12  2  0
 12 13  1  0
 13 14  2  0
 14 15  1  0
 15 16  2  0
 16 17  1  0
 16 18  1  0
 18 19  2  0
 19 20  1  0
 20 21  2  0
 20 22  1  0
 22 23  1  0
 23 24  1  0
 24 25  1  0
 25 26  1  0
 26 27  1  0
 27 28  1  0
 28 29  1  0
  8 30  1  0
 30 31  2  0
 31  5  1  0
 22 11  1  0
 29 24  1  0
 19 13  1  0
  1 32  1  0
  1 33  1  0
  1 34  1  0
  6 35  1  0
  7 36  1  0
  9 37  1  0
 10 38  1  0
 14 39  1  0
 15 40  1  0
 18 41  1  0
 23 42  1  0
 23 43  1  0
 24 44  1  0
 25 45  1  0
 25 46  1  0
 26 47  1  0
 26 48  1  0
 27 49  1  0
 27 50  1  0
 28 51  1  0
 28 52  1  0
 29 53  1  0
 29 54  1  0
 30 55  1  0
 31 56  1  0
M  END
>  <smiles>  (46) 
CS(=O)(=O)c1ccc(/C=C/c2nc3ccc(F)cc3c(=O)n2CC2CCCCC2)cc1

>  <score_type>  (46) 
oracle

>  <origin>  (46) 
autodockgpu

>  <m_score__min__energy>  (46) 
-9.1400000000000006

>  <m_primary>  (46) 
energy

>  <rmsd>  (46) 
11.383736532912277

>  <m_score__min__rmsd>  (46) 
11.383736532912277

>  <meeko>  (46) 
{"free_energy": -8.33, "intermolecular_energy": -10.12, "internal_energy": -1.59, "cluster_size": 10, "cluster_id": 4, "rank_in_cluster": 1}

>  <energy>  (46) 
-7.7

>  <cluster_rmsd>  (46) 
0.53

>  <cluster>  (46) 
6

$$$$

     RDKit          3D

 56 59  0  0  0  0  0  0  0  0999 V2000
  132.2260   74.1130  225.0940 C   0  0  0  0  0  0  0  0  0  0  0  0
  133.6340   73.5030  225.9860 S   0  0  0  0  0  0  0  0  0  0  0  0
  133.1740   73.1610  227.3770 O   0  0  0  0  0  0  0  0  0  0  0  0
  134.6480   74.6220  226.1210 O   0  0  0  0  0  0  0  0  0  0  0  0
  134.3670   72.1400  225.1730 C   0  0  0  0  0  0  0  0  0  0  0  0
  135.0150   72.3450  223.9790 C   0  0  0  0  0  0  0  0  0  0  0  0
  135.6050   71.3020  223.3060 C   0  0  0  0  0  0  0  0  0  0  0  0
  135.5800   69.9910  223.7920 C   0  0  0  0  0  0  0  0  0  0  0  0
  136.2130   68.9030  223.0580 C   0  0  0  0  0  0  0  0  0  0  0  0
  137.5060   68.7600  222.9020 C   0  0  0  0  0  0  0  0  0  0  0  0
  138.4190   69.2260  223.9390 C   0  0  0  0  0  0  0  0  0  0  0  0
  138.6810   68.4020  224.9840 N   0  0  0  0  0  0  0  0  0  0  0  0
  139.4890   68.6960  225.9910 C   0  0  0  0  0  0  0  0  0  0  0  0
  139.6920   67.7870  227.0100 C   0  0  0  0  0  0  0  0  0  0  0  0
  140.5450   68.1050  228.0690 C   0  0  0  0  0  0  0  0  0  0  0  0
  141.1690   69.3510  228.0500 C   0  0  0  0  0  0  0  0  0  0  0  0
  141.9920   69.6220  229.0980 F   0  0  0  0  0  0  0  0  0  0  0  0
  140.9580   70.2570  227.0190 C   0  0  0  0  0  0  0  0  0  0  0  0
  140.1120   69.9270  225.9820 C   0  0  0  0  0  0  0  0  0  0  0  0
  139.8470   70.7670  224.9210 C   0  0  0  0  0  0  0  0  0  0  0  0
  140.4440   71.8940  224.9550 O   0  0  0  0  0  0  0  0  0  0  0  0
  139.0150   70.4340  223.9070 N   0  0  0  0  0  0  0  0  0  0  0  0
  138.7680   71.3280  222.8080 C   0  0  0  0  0  0  0  0  0  0  0  0
  139.8170   71.3060  221.7300 C   0  0  0  0  0  0  0  0  0  0  0  0
  139.1100   71.6750  220.4400 C   0  0  0  0  0  0  0  0  0  0  0  0
  140.0390   72.4060  219.4930 C   0  0  0  0  0  0  0  0  0  0  0  0
  140.6500   73.6320  220.0910 C   0  0  0  0  0  0  0  0  0  0  0  0
  140.6510   73.6030  221.6130 C   0  0  0  0  0  0  0  0  0  0  0  0
  141.0040   72.1700  221.9880 C   0  0  0  0  0  0  0  0  0  0  0  0
  134.9220   69.8180  224.9900 C   0  0  0  0  0  0  0  0  0  0  0  0
  134.3260   70.8600  225.6750 C   0  0  0  0  0  0  0  0  0  0  0  0
  131.4569   74.4462  225.8063 H   0  0  0  0  0  0  0  0  0  0  0  0
  132.5313   74.9595  224.4614 H   0  0  0  0  0  0  0  0  0  0  0  0
  131.8172   73.3113  224.4614 H   0  0  0  0  0  0  0  0  0  0  0  0
  135.0623   73.3590  223.5554 H   0  0  0  0  0  0  0  0  0  0  0  0
  136.1143   71.5054  222.3525 H   0  0  0  0  0  0  0  0  0  0  0  0
  135.5576   68.1466  222.6016 H   0  0  0  0  0  0  0  0  0  0  0  0
  137.9021   68.2892  221.9902 H   0  0  0  0  0  0  0  0  0  0  0  0
  139.1821   66.8126  226.9878 H   0  0  0  0  0  0  0  0  0  0  0  0
  140.7187   67.3953  228.8912 H   0  0  0  0  0  0  0  0  0  0  0  0
  141.4638   71.2338  227.0298 H   0  0  0  0  0  0  0  0  0  0  0  0
  137.8044   71.0540  222.3537 H   0  0  0  0  0  0  0  0  0  0  0  0
  138.7760   72.3448  223.2276 H   0  0  0  0  0  0  0  0  0  0  0  0
  140.2583   70.2995  221.6830 H   0  0  0  0  0  0  0  0  0  0  0  0
  138.7515   70.7564  219.9524 H   0  0  0  0  0  0  0  0  0  0  0  0
  138.2684   72.3403  220.6833 H   0  0  0  0  0  0  0  0  0  0  0  0
  140.8479   71.7207  219.1995 H   0  0  0  0  0  0  0  0  0  0  0  0
  139.4363   72.7300  218.6317 H   0  0  0  0  0  0  0  0  0  0  0  0
  141.6890   73.7151  219.7396 H   0  0  0  0  0  0  0  0  0  0  0  0
  140.0445   74.4941  219.7747 H   0  0  0  0  0  0  0  0  0  0  0  0
  141.4018   74.3014  222.0111 H   0  0  0  0  0  0  0  0  0  0  0  0
  139.6797   73.9082  222.0294 H   0  0  0  0  0  0  0  0  0  0  0  0
  141.8527   71.8256  221.3788 H   0  0  0  0  0  0  0  0  0  0  0  0
  141.2841   72.1172  223.0504 H   0  0  0  0  0  0  0  0  0  0  0  0
  134.8687   68.8069  225.4199 H   0  0  0  0  0  0  0  0  0  0  0  0
  133.8148   70.6642  226.6291 H   0  0  0  0  0  0  0  0  0  0  0  0
  1  2  1  0
  2  3  2  0
  2  4  2  0
  2  5  1  0
  5  6  2  0
  6  7  1  0
  7  8  2  0
  8  9  1  0
  9 10  2  0
 10 11  1  0
 11 12  2  0
 12 13  1  0
 13 14  2  0
 14 15  1  0
 15 16  2  0
 16 17  1  0
 16 18  1  0
 18 19  2  0
 19 20  1  0
 20 21  2  0
 20 22  1  0
 22 23  1  0
 23 24  1  0
 24 25  1  0
 25 26  1  0
 26 27  1  0
 27 28  1  0
 28 29  1  0
  8 30  1  0
 30 31  2  0
 31  5  1  0
 22 11  1  0
 29 24  1  0
 19 13  1  0
  1 32  1  0
  1 33  1  0
  1 34  1  0
  6 35  1  0
  7 36  1  0
  9 37  1  0
 10 38  1  0
 14 39  1  0
 15 40  1  0
 18 41  1  0
 23 42  1  0
 23 43  1  0
 24 44  1  0
 25 45  1  0
 25 46  1  0
 26 47  1  0
 26 48  1  0
 27 49  1  0
 27 50  1  0
 28 51  1  0
 28 52  1  0
 29 53  1  0
 29 54  1  0
 30 55  1  0
 31 56  1  0
M  END
>  <smiles>  (47) 
CS(=O)(=O)c1ccc(/C=C/c2nc3ccc(F)cc3c(=O)n2CC2CCCCC2)cc1

>  <score_type>  (47) 
oracle

>  <origin>  (47) 
autodockgpu

>  <m_score__min__energy>  (47) 
-9.1400000000000006

>  <m_primary>  (47) 
energy

>  <rmsd>  (47) 
9.994905947407675

>  <m_score__min__rmsd>  (47) 
9.994905947407675

>  <meeko>  (47) 
{"free_energy": -7.47, "intermolecular_energy": -9.26, "internal_energy": -1.83, "cluster_size": 2, "cluster_id": 7, "rank_in_cluster": 1}

>  <energy>  (47) 
-7.69

>  <cluster_rmsd>  (47) 
0.56

>  <cluster>  (47) 
6

$$$$

     RDKit          3D

 56 59  0  0  0  0  0  0  0  0999 V2000
  131.8300   72.7950  225.5650 C   0  0  0  0  0  0  0  0  0  0  0  0
  133.2690   73.4180  226.3980 S   0  0  0  0  0  0  0  0  0  0  0  0
  133.8850   72.2710  227.1540 O   0  0  0  0  0  0  0  0  0  0  0  0
  132.8310   74.4390  227.4290 O   0  0  0  0  0  0  0  0  0  0  0  0
  134.3890   74.1550  225.2770 C   0  0  0  0  0  0  0  0  0  0  0  0
  135.0520   73.3580  224.3750 C   0  0  0  0  0  0  0  0  0  0  0  0
  135.9420   73.8960  223.4750 C   0  0  0  0  0  0  0  0  0  0  0  0
  136.2180   75.2670  223.4270 C   0  0  0  0  0  0  0  0  0  0  0  0
  137.1660   75.8110  222.4640 C   0  0  0  0  0  0  0  0  0  0  0  0
  138.2900   76.4080  222.7770 C   0  0  0  0  0  0  0  0  0  0  0  0
  139.5160   76.0670  222.0670 C   0  0  0  0  0  0  0  0  0  0  0  0
  139.9440   74.7800  222.1020 N   0  0  0  0  0  0  0  0  0  0  0  0
  141.0370   74.3330  221.5010 C   0  0  0  0  0  0  0  0  0  0  0  0
  141.3880   73.0020  221.5960 C   0  0  0  0  0  0  0  0  0  0  0  0
  142.5420   72.5380  220.9600 C   0  0  0  0  0  0  0  0  0  0  0  0
  143.3030   73.4580  220.2420 C   0  0  0  0  0  0  0  0  0  0  0  0
  144.4180   72.9670  219.6380 F   0  0  0  0  0  0  0  0  0  0  0  0
  142.9390   74.7950  220.1540 C   0  0  0  0  0  0  0  0  0  0  0  0
  141.7980   75.2360  220.7870 C   0  0  0  0  0  0  0  0  0  0  0  0
  141.3650   76.5450  220.7510 C   0  0  0  0  0  0  0  0  0  0  0  0
  142.1000   77.3440  220.0800 O   0  0  0  0  0  0  0  0  0  0  0  0
  140.2430   76.9680  221.3760 N   0  0  0  0  0  0  0  0  0  0  0  0
  139.8110   78.3380  221.3090 C   0  0  0  0  0  0  0  0  0  0  0  0
  140.1540   79.1670  222.5170 C   0  0  0  0  0  0  0  0  0  0  0  0
  141.3140   78.4690  223.1980 C   0  0  0  0  0  0  0  0  0  0  0  0
  142.2180   79.4620  223.9000 C   0  0  0  0  0  0  0  0  0  0  0  0
  142.7440   80.5280  222.9940 C   0  0  0  0  0  0  0  0  0  0  0  0
  141.8850   80.7150  221.7510 C   0  0  0  0  0  0  0  0  0  0  0  0
  140.4460   80.6010  222.2340 C   0  0  0  0  0  0  0  0  0  0  0  0
  135.5370   76.0380  224.3440 C   0  0  0  0  0  0  0  0  0  0  0  0
  134.6410   75.5070  225.2530 C   0  0  0  0  0  0  0  0  0  0  0  0
  131.0864   72.4730  226.3089 H   0  0  0  0  0  0  0  0  0  0  0  0
  131.3992   73.5872  224.9350 H   0  0  0  0  0  0  0  0  0  0  0  0
  132.1129   71.9388  224.9350 H   0  0  0  0  0  0  0  0  0  0  0  0
  134.8681   72.2735  224.3728 H   0  0  0  0  0  0  0  0  0  0  0  0
  136.4542   73.2258  222.7690 H   0  0  0  0  0  0  0  0  0  0  0  0
  136.9206   75.7136  221.3962 H   0  0  0  0  0  0  0  0  0  0  0  0
  138.3079   77.1654  223.5745 H   0  0  0  0  0  0  0  0  0  0  0  0
  140.7596   72.3068  222.1721 H   0  0  0  0  0  0  0  0  0  0  0  0
  142.8400   71.4811  221.0240 H   0  0  0  0  0  0  0  0  0  0  0  0
  143.5596   75.4995  219.5808 H   0  0  0  0  0  0  0  0  0  0  0  0
  140.2816   78.8027  220.4301 H   0  0  0  0  0  0  0  0  0  0  0  0
  138.7128   78.3142  221.2512 H   0  0  0  0  0  0  0  0  0  0  0  0
  139.2714   79.2265  223.1708 H   0  0  0  0  0  0  0  0  0  0  0  0
  140.9195   77.7577  223.9386 H   0  0  0  0  0  0  0  0  0  0  0  0
  141.9030   77.9450  222.4308 H   0  0  0  0  0  0  0  0  0  0  0  0
  141.6475   79.9418  224.7089 H   0  0  0  0  0  0  0  0  0  0  0  0
  143.0847   78.9009  224.2794 H   0  0  0  0  0  0  0  0  0  0  0  0
  142.7742   81.4780  223.5478 H   0  0  0  0  0  0  0  0  0  0  0  0
  143.7468   80.2197  222.6632 H   0  0  0  0  0  0  0  0  0  0  0  0
  142.0640   81.7043  221.3046 H   0  0  0  0  0  0  0  0  0  0  0  0
  142.1173   79.9688  220.9769 H   0  0  0  0  0  0  0  0  0  0  0  0
  140.3143   81.1944  223.1508 H   0  0  0  0  0  0  0  0  0  0  0  0
  139.7588   80.9805  221.4635 H   0  0  0  0  0  0  0  0  0  0  0  0
  135.7141   77.1236  224.3530 H   0  0  0  0  0  0  0  0  0  0  0  0
  134.1256   76.1709  225.9627 H   0  0  0  0  0  0  0  0  0  0  0  0
  1  2  1  0
  2  3  2  0
  2  4  2  0
  2  5  1  0
  5  6  2  0
  6  7  1  0
  7  8  2  0
  8  9  1  0
  9 10  2  0
 10 11  1  0
 11 12  2  0
 12 13  1  0
 13 14  2  0
 14 15  1  0
 15 16  2  0
 16 17  1  0
 16 18  1  0
 18 19  2  0
 19 20  1  0
 20 21  2  0
 20 22  1  0
 22 23  1  0
 23 24  1  0
 24 25  1  0
 25 26  1  0
 26 27  1  0
 27 28  1  0
 28 29  1  0
  8 30  1  0
 30 31  2  0
 31  5  1  0
 22 11  1  0
 29 24  1  0
 19 13  1  0
  1 32  1  0
  1 33  1  0
  1 34  1  0
  6 35  1  0
  7 36  1  0
  9 37  1  0
 10 38  1  0
 14 39  1  0
 15 40  1  0
 18 41  1  0
 23 42  1  0
 23 43  1  0
 24 44  1  0
 25 45  1  0
 25 46  1  0
 26 47  1  0
 26 48  1  0
 27 49  1  0
 27 50  1  0
 28 51  1  0
 28 52  1  0
 29 53  1  0
 29 54  1  0
 30 55  1  0
 31 56  1  0
M  END
>  <smiles>  (48) 
CS(=O)(=O)c1ccc(/C=C/c2nc3ccc(F)cc3c(=O)n2CC2CCCCC2)cc1

>  <score_type>  (48) 
oracle

>  <origin>  (48) 
autodockgpu

>  <m_score__min__energy>  (48) 
-9.1400000000000006

>  <m_primary>  (48) 
energy

>  <rmsd>  (48) 
7.153723818538265

>  <m_score__min__rmsd>  (48) 
7.153723818538265

>  <meeko>  (48) 
{"free_energy": -8.29, "intermolecular_energy": -10.08, "internal_energy": -1.36, "cluster_size": 8, "cluster_id": 3, "rank_in_cluster": 6}

>  <energy>  (48) 
-7.47

>  <cluster_rmsd>  (48) 
0.0

>  <cluster>  (48) 
7

$$$$

     RDKit          3D

 56 59  0  0  0  0  0  0  0  0999 V2000
  139.9400   69.0040  228.1960 C   0  0  0  0  0  0  0  0  0  0  0  0
  140.1860   68.3390  226.5690 S   0  0  0  0  0  0  0  0  0  0  0  0
  139.2100   67.2060  226.3910 O   0  0  0  0  0  0  0  0  0  0  0  0
  141.5750   67.7370  226.4930 O   0  0  0  0  0  0  0  0  0  0  0  0
  140.0090   69.5690  225.3400 C   0  0  0  0  0  0  0  0  0  0  0  0
  138.9540   69.4880  224.4630 C   0  0  0  0  0  0  0  0  0  0  0  0
  138.7760   70.4350  223.4810 C   0  0  0  0  0  0  0  0  0  0  0  0
  139.6470   71.5180  223.3220 C   0  0  0  0  0  0  0  0  0  0  0  0
  139.4360   72.5060  222.2730 C   0  0  0  0  0  0  0  0  0  0  0  0
  140.2460   72.7070  221.2620 C   0  0  0  0  0  0  0  0  0  0  0  0
  140.7920   74.0380  221.0220 C   0  0  0  0  0  0  0  0  0  0  0  0
  140.4610   75.0340  221.8830 N   0  0  0  0  0  0  0  0  0  0  0  0
  140.8860   76.2850  221.7860 C   0  0  0  0  0  0  0  0  0  0  0  0
  140.4930   77.2280  222.7140 C   0  0  0  0  0  0  0  0  0  0  0  0
  140.9450   78.5440  222.6040 C   0  0  0  0  0  0  0  0  0  0  0  0
  141.7910   78.8560  221.5410 C   0  0  0  0  0  0  0  0  0  0  0  0
  142.2080   80.1480  221.4700 F   0  0  0  0  0  0  0  0  0  0  0  0
  142.1790   77.8990  220.6140 C   0  0  0  0  0  0  0  0  0  0  0  0
  141.7240   76.6040  220.7370 C   0  0  0  0  0  0  0  0  0  0  0  0
  142.0610   75.5930  219.8600 C   0  0  0  0  0  0  0  0  0  0  0  0
  142.8360   75.9340  218.9060 O   0  0  0  0  0  0  0  0  0  0  0  0
  141.6090   74.3250  219.9900 N   0  0  0  0  0  0  0  0  0  0  0  0
  141.9880   73.2900  219.0660 C   0  0  0  0  0  0  0  0  0  0  0  0
  143.1320   72.4260  219.5210 C   0  0  0  0  0  0  0  0  0  0  0  0
  144.1860   72.5060  218.4340 C   0  0  0  0  0  0  0  0  0  0  0  0
  145.5800   72.3640  219.0070 C   0  0  0  0  0  0  0  0  0  0  0  0
  145.8890   73.3670  220.0710 C   0  0  0  0  0  0  0  0  0  0  0  0
  144.6350   73.9430  220.7140 C   0  0  0  0  0  0  0  0  0  0  0  0
  143.6830   72.7650  220.8640 C   0  0  0  0  0  0  0  0  0  0  0  0
  140.6940   71.5700  224.2170 C   0  0  0  0  0  0  0  0  0  0  0  0
  140.8810   70.6240  225.2080 C   0  0  0  0  0  0  0  0  0  0  0  0
  140.2190   68.2497  228.9465 H   0  0  0  0  0  0  0  0  0  0  0  0
  140.5666   69.8988  228.3250 H   0  0  0  0  0  0  0  0  0  0  0  0
  138.8819   69.2756  228.3250 H   0  0  0  0  0  0  0  0  0  0  0  0
  138.2417   68.6541  224.5474 H   0  0  0  0  0  0  0  0  0  0  0  0
  137.9196   70.3372  222.7976 H   0  0  0  0  0  0  0  0  0  0  0  0
  138.5313   73.1288  222.3334 H   0  0  0  0  0  0  0  0  0  0  0  0
  140.5134   71.8734  220.5959 H   0  0  0  0  0  0  0  0  0  0  0  0
  139.8242   76.9427  223.5395 H   0  0  0  0  0  0  0  0  0  0  0  0
  140.6432   79.3105  223.3330 H   0  0  0  0  0  0  0  0  0  0  0  0
  142.8471   78.1730  219.7842 H   0  0  0  0  0  0  0  0  0  0  0  0
  141.1145   72.6421  218.9008 H   0  0  0  0  0  0  0  0  0  0  0  0
  142.3292   73.7999  218.1530 H   0  0  0  0  0  0  0  0  0  0  0  0
  142.7663   71.3984  219.6635 H   0  0  0  0  0  0  0  0  0  0  0  0
  144.0134   71.6983  217.7075 H   0  0  0  0  0  0  0  0  0  0  0  0
  144.1092   73.4899  217.9481 H   0  0  0  0  0  0  0  0  0  0  0  0
  145.6790   71.3568  219.4379 H   0  0  0  0  0  0  0  0  0  0  0  0
  146.2888   72.5352  218.1834 H   0  0  0  0  0  0  0  0  0  0  0  0
  146.4925   72.8791  220.8506 H   0  0  0  0  0  0  0  0  0  0  0  0
  146.4328   74.1980  219.5979 H   0  0  0  0  0  0  0  0  0  0  0  0
  144.8704   74.3758  221.6975 H   0  0  0  0  0  0  0  0  0  0  0  0
  144.1969   74.7496  220.1078 H   0  0  0  0  0  0  0  0  0  0  0  0
  144.2257   71.8993  221.2714 H   0  0  0  0  0  0  0  0  0  0  0  0
  142.8649   73.0275  221.5509 H   0  0  0  0  0  0  0  0  0  0  0  0
  141.4118   72.3999  224.1395 H   0  0  0  0  0  0  0  0  0  0  0  0
  141.7341   70.7161  225.8962 H   0  0  0  0  0  0  0  0  0  0  0  0
  1  2  1  0
  2  3  2  0
  2  4  2  0
  2  5  1  0
  5  6  2  0
  6  7  1  0
  7  8  2  0
  8  9  1  0
  9 10  2  0
 10 11  1  0
 11 12  2  0
 12 13  1  0
 13 14  2  0
 14 15  1  0
 15 16  2  0
 16 17  1  0
 16 18  1  0
 18 19  2  0
 19 20  1  0
 20 21  2  0
 20 22  1  0
 22 23  1  0
 23 24  1  0
 24 25  1  0
 25 26  1  0
 26 27  1  0
 27 28  1  0
 28 29  1  0
  8 30  1  0
 30 31  2  0
 31  5  1  0
 22 11  1  0
 29 24  1  0
 19 13  1  0
  1 32  1  0
  1 33  1  0
  1 34  1  0
  6 35  1  0
  7 36  1  0
  9 37  1  0
 10 38  1  0
 14 39  1  0
 15 40  1  0
 18 41  1  0
 23 42  1  0
 23 43  1  0
 24 44  1  0
 25 45  1  0
 25 46  1  0
 26 47  1  0
 26 48  1  0
 27 49  1  0
 27 50  1  0
 28 51  1  0
 28 52  1  0
 29 53  1  0
 29 54  1  0
 30 55  1  0
 31 56  1  0
M  END
>  <smiles>  (49) 
CS(=O)(=O)c1ccc(/C=C/c2nc3ccc(F)cc3c(=O)n2CC2CCCCC2)cc1

>  <score_type>  (49) 
oracle

>  <origin>  (49) 
autodockgpu

>  <m_score__min__energy>  (49) 
-9.1400000000000006

>  <m_primary>  (49) 
energy

>  <rmsd>  (49) 
5.663434950755687

>  <m_score__min__rmsd>  (49) 
5.663434950755687

>  <meeko>  (49) 
{"free_energy": -8.72, "intermolecular_energy": -10.51, "internal_energy": -1.58, "cluster_size": 16, "cluster_id": 1, "rank_in_cluster": 9}

>  <energy>  (49) 
-7.44

>  <cluster_rmsd>  (49) 
1.66

>  <cluster>  (49) 
7

$$$$

     RDKit          3D

 56 59  0  0  0  0  0  0  0  0999 V2000
  139.7920   69.2210  227.8650 C   0  0  0  0  0  0  0  0  0  0  0  0
  140.0550   68.5810  226.2300 S   0  0  0  0  0  0  0  0  0  0  0  0
  139.1670   67.3770  226.0690 O   0  0  0  0  0  0  0  0  0  0  0  0
  141.4850   68.0910  226.1230 O   0  0  0  0  0  0  0  0  0  0  0  0
  139.7560   69.7970  225.0110 C   0  0  0  0  0  0  0  0  0  0  0  0
  138.7180   69.6160  224.1290 C   0  0  0  0  0  0  0  0  0  0  0  0
  138.4470   70.5460  223.1540 C   0  0  0  0  0  0  0  0  0  0  0  0
  139.2020   71.7150  223.0070 C   0  0  0  0  0  0  0  0  0  0  0  0
  138.8930   72.6850  221.9640 C   0  0  0  0  0  0  0  0  0  0  0  0
  139.3520   73.9120  221.9260 C   0  0  0  0  0  0  0  0  0  0  0  0
  140.6500   74.1840  221.3180 C   0  0  0  0  0  0  0  0  0  0  0  0
  141.6010   73.2180  221.3740 N   0  0  0  0  0  0  0  0  0  0  0  0
  142.8180   73.3300  220.8630 C   0  0  0  0  0  0  0  0  0  0  0  0
  143.7170   72.2880  220.9700 C   0  0  0  0  0  0  0  0  0  0  0  0
  144.9980   72.4140  220.4290 C   0  0  0  0  0  0  0  0  0  0  0  0
  145.3200   73.6100  219.7910 C   0  0  0  0  0  0  0  0  0  0  0  0
  146.5770   73.6920  219.2780 F   0  0  0  0  0  0  0  0  0  0  0  0
  144.4080   74.6510  219.6890 C   0  0  0  0  0  0  0  0  0  0  0  0
  143.1480   74.5100  220.2290 C   0  0  0  0  0  0  0  0  0  0  0  0
  142.1820   75.4940  220.1720 C   0  0  0  0  0  0  0  0  0  0  0  0
  142.5310   76.5670  219.5780 O   0  0  0  0  0  0  0  0  0  0  0  0
  140.9470   75.3450  220.7050 N   0  0  0  0  0  0  0  0  0  0  0  0
  139.9580   76.3860  220.6190 C   0  0  0  0  0  0  0  0  0  0  0  0
  139.8630   77.2670  221.8340 C   0  0  0  0  0  0  0  0  0  0  0  0
  141.0830   76.9610  222.6800 C   0  0  0  0  0  0  0  0  0  0  0  0
  141.5310   78.1800  223.4600 C   0  0  0  0  0  0  0  0  0  0  0  0
  141.8120   79.3670  222.5970 C   0  0  0  0  0  0  0  0  0  0  0  0
  141.1100   79.2890  221.2490 C   0  0  0  0  0  0  0  0  0  0  0  0
  139.7280   78.7240  221.5470 C   0  0  0  0  0  0  0  0  0  0  0  0
  140.2350   71.8670  223.9060 C   0  0  0  0  0  0  0  0  0  0  0  0
  140.5150   70.9370  224.8900 C   0  0  0  0  0  0  0  0  0  0  0  0
  140.1007   68.4698  228.6069 H   0  0  0  0  0  0  0  0  0  0  0  0
  140.3869   70.1362  228.0006 H   0  0  0  0  0  0  0  0  0  0  0  0
  138.7254   69.4535  228.0006 H   0  0  0  0  0  0  0  0  0  0  0  0
  138.0944   68.7130  224.2044 H   0  0  0  0  0  0  0  0  0  0  0  0
  137.6081   70.3653  222.4658 H   0  0  0  0  0  0  0  0  0  0  0  0
  138.2264   72.3641  221.1499 H   0  0  0  0  0  0  0  0  0  0  0  0
  138.7596   74.7353  222.3518 H   0  0  0  0  0  0  0  0  0  0  0  0
  143.4244   71.3590  221.4812 H   0  0  0  0  0  0  0  0  0  0  0  0
  145.7292   71.5956  220.5041 H   0  0  0  0  0  0  0  0  0  0  0  0
  144.6895   75.5843  219.1795 H   0  0  0  0  0  0  0  0  0  0  0  0
  140.2031   77.0205  219.7545 H   0  0  0  0  0  0  0  0  0  0  0  0
  138.9849   75.8818  220.5250 H   0  0  0  0  0  0  0  0  0  0  0  0
  138.9276   77.0391  222.3662 H   0  0  0  0  0  0  0  0  0  0  0  0
  140.8364   76.1544  223.3861 H   0  0  0  0  0  0  0  0  0  0  0  0
  141.9017   76.6560  222.0116 H   0  0  0  0  0  0  0  0  0  0  0  0
  140.7381   78.4479  224.1738 H   0  0  0  0  0  0  0  0  0  0  0  0
  142.4722   77.9150  223.9639 H   0  0  0  0  0  0  0  0  0  0  0  0
  141.4703   80.2721  223.1205 H   0  0  0  0  0  0  0  0  0  0  0  0
  142.8953   79.3927  222.4078 H   0  0  0  0  0  0  0  0  0  0  0  0
  141.0283   80.2893  220.7988 H   0  0  0  0  0  0  0  0  0  0  0  0
  141.6636   78.6623  220.5343 H   0  0  0  0  0  0  0  0  0  0  0  0
  139.2986   79.2359  222.4209 H   0  0  0  0  0  0  0  0  0  0  0  0
  139.0643   78.8776  220.6833 H   0  0  0  0  0  0  0  0  0  0  0  0
  140.8639   72.7669  223.8379 H   0  0  0  0  0  0  0  0  0  0  0  0
  141.3522   71.1106  225.5820 H   0  0  0  0  0  0  0  0  0  0  0  0
  1  2  1  0
  2  3  2  0
  2  4  2  0
  2  5  1  0
  5  6  2  0
  6  7  1  0
  7  8  2  0
  8  9  1  0
  9 10  2  0
 10 11  1  0
 11 12  2  0
 12 13  1  0
 13 14  2  0
 14 15  1  0
 15 16  2  0
 16 17  1  0
 16 18  1  0
 18 19  2  0
 19 20  1  0
 20 21  2  0
 20 22  1  0
 22 23  1  0
 23 24  1  0
 24 25  1  0
 25 26  1  0
 26 27  1  0
 27 28  1  0
 28 29  1  0
  8 30  1  0
 30 31  2  0
 31  5  1  0
 22 11  1  0
 29 24  1  0
 19 13  1  0
  1 32  1  0
  1 33  1  0
  1 34  1  0
  6 35  1  0
  7 36  1  0
  9 37  1  0
 10 38  1  0
 14 39  1  0
 15 40  1  0
 18 41  1  0
 23 42  1  0
 23 43  1  0
 24 44  1  0
 25 45  1  0
 25 46  1  0
 26 47  1  0
 26 48  1  0
 27 49  1  0
 27 50  1  0
 28 51  1  0
 28 52  1  0
 29 53  1  0
 29 54  1  0
 30 55  1  0
 31 56  1  0
M  END
>  <smiles>  (50) 
CS(=O)(=O)c1ccc(/C=C/c2nc3ccc(F)cc3c(=O)n2CC2CCCCC2)cc1

>  <score_type>  (50) 
oracle

>  <origin>  (50) 
autodockgpu

>  <m_score__min__energy>  (50) 
-9.1400000000000006

>  <m_primary>  (50) 
energy

>  <rmsd>  (50) 
7.342760587044959

>  <m_score__min__rmsd>  (50) 
7.342760587044959

>  <meeko>  (50) 
{"free_energy": -8.46, "intermolecular_energy": -10.25, "internal_energy": -1.58, "cluster_size": 9, "cluster_id": 2, "rank_in_cluster": 4}

>  <energy>  (50) 
-7.44

>  <cluster_rmsd>  (50) 
0.0

>  <cluster>  (50) 
8

$$$$
