
     RDKit          3D

 53 56  0  0  0  0  0  0  0  0999 V2000
  139.3210   72.6080  220.3180 O   0  0  0  0  0  0  0  0  0  0  0  0
  139.7480   72.9700  221.4620 C   0  0  0  0  0  0  0  0  0  0  0  0
  140.1700   74.3020  221.7290 N   0  0  0  0  0  0  0  0  0  0  0  0
  140.1420   75.3340  220.7140 C   0  0  0  0  0  0  0  0  0  0  0  0
  140.9070   76.5150  221.2170 C   0  0  0  0  0  0  0  0  0  0  0  0
  141.0220   76.6020  222.4710 O   0  0  0  0  0  0  0  0  0  0  0  0
  141.4670   77.4740  220.3210 N   0  0  0  0  0  0  0  0  0  0  0  0
  142.5650   77.0660  219.4850 C   0  0  0  0  0  0  0  0  0  0  0  0
  142.6820   77.8240  218.2050 C   0  0  0  0  0  0  0  0  0  0  0  0
  142.3690   79.2890  218.3400 C   0  0  0  0  0  0  0  0  0  0  0  0
  141.0990   79.5660  219.0680 C   0  0  0  0  0  0  0  0  0  0  0  0
  140.8830   78.7930  220.3220 C   0  0  2  0  0  0  0  0  0  0  0  0
  141.2920   79.4950  221.5460 C   0  0  0  0  0  0  0  0  0  0  0  0
  140.4320   80.2490  222.3310 C   0  0  0  0  0  0  0  0  0  0  0  0
  140.8440   80.8970  223.4760 C   0  0  0  0  0  0  0  0  0  0  0  0
  142.1600   80.8100  223.8800 C   0  0  0  0  0  0  0  0  0  0  0  0
  143.0100   80.0580  223.0930 C   0  0  0  0  0  0  0  0  0  0  0  0
  142.5810   79.4440  221.9940 N   0  0  0  0  0  0  0  0  0  0  0  0
  139.8060   71.9770  222.5400 C   0  0  0  0  0  0  0  0  0  0  0  0
  139.2820   70.7150  222.3560 C   0  0  0  0  0  0  0  0  0  0  0  0
  139.3610   69.8200  223.4000 C   0  0  0  0  0  0  0  0  0  0  0  0
  139.9400   70.1330  224.6110 C   0  0  0  0  0  0  0  0  0  0  0  0
  140.0270   69.2470  225.6640 C   0  0  0  0  0  0  0  0  0  0  0  0
  140.6170   69.6220  226.8510 C   0  0  0  0  0  0  0  0  0  0  0  0
  140.7070   68.6510  227.9900 C   0  0  0  0  0  0  0  0  0  0  0  0
  141.6790   69.1280  228.8630 F   0  0  0  0  0  0  0  0  0  0  0  0
  140.9980   67.3940  227.5550 F   0  0  0  0  0  0  0  0  0  0  0  0
  139.5130   68.7160  228.6800 F   0  0  0  0  0  0  0  0  0  0  0  0
  141.1140   70.9000  226.9500 C   0  0  0  0  0  0  0  0  0  0  0  0
  141.0540   71.8250  225.9290 C   0  0  0  0  0  0  0  0  0  0  0  0
  140.4540   71.4150  224.7500 C   0  0  0  0  0  0  0  0  0  0  0  0
  140.3620   72.2670  223.7140 N   0  0  0  0  0  0  0  0  0  0  0  0
  140.5120   74.5100  222.7130 H   0  0  0  0  0  0  0  0  0  0  0  0
  140.6053   74.9581  219.7898 H   0  0  0  0  0  0  0  0  0  0  0  0
  139.1026   75.6224  220.4984 H   0  0  0  0  0  0  0  0  0  0  0  0
  143.4978   77.2025  220.0518 H   0  0  0  0  0  0  0  0  0  0  0  0
  142.3778   76.0170  219.2119 H   0  0  0  0  0  0  0  0  0  0  0  0
  143.7123   77.7216  217.8335 H   0  0  0  0  0  0  0  0  0  0  0  0
  141.9419   77.3994  217.5108 H   0  0  0  0  0  0  0  0  0  0  0  0
  143.1938   79.7715  218.8849 H   0  0  0  0  0  0  0  0  0  0  0  0
  142.2489   79.6870  217.3216 H   0  0  0  0  0  0  0  0  0  0  0  0
  141.0851   80.6354  219.3253 H   0  0  0  0  0  0  0  0  0  0  0  0
  140.2931   79.2562  218.3864 H   0  0  0  0  0  0  0  0  0  0  0  0
  139.7885   78.6838  220.3350 H   0  0  0  0  0  0  0  0  0  0  0  0
  139.3781   80.3333  222.0274 H   0  0  0  0  0  0  0  0  0  0  0  0
  140.1242   81.4827  224.0666 H   0  0  0  0  0  0  0  0  0  0  0  0
  142.5166   81.3171  224.7887 H   0  0  0  0  0  0  0  0  0  0  0  0
  144.0672   79.9646  223.3821 H   0  0  0  0  0  0  0  0  0  0  0  0
  138.8139   70.4308  221.4020 H   0  0  0  0  0  0  0  0  0  0  0  0
  138.9439   68.8117  223.2612 H   0  0  0  0  0  0  0  0  0  0  0  0
  139.6211   68.2304  225.5551 H   0  0  0  0  0  0  0  0  0  0  0  0
  141.5860   71.2016  227.8967 H   0  0  0  0  0  0  0  0  0  0  0  0
  141.4629   72.8395  226.0454 H   0  0  0  0  0  0  0  0  0  0  0  0
  1  2  2  0
  2  3  1  0
  3  4  1  0
  4  5  1  0
  5  6  2  0
  5  7  1  0
  7  8  1  0
  8  9  1  0
  9 10  1  0
 10 11  1  0
 11 12  1  0
 12 13  1  0
 13 14  2  0
 14 15  1  0
 15 16  2  0
 16 17  1  0
 17 18  2  0
  2 19  1  0
 19 20  2  0
 20 21  1  0
 21 22  2  0
 22 23  1  0
 23 24  2  0
 24 25  1  0
 25 26  1  0
 25 27  1  0
 25 28  1  0
 24 29  1  0
 29 30  2  0
 30 31  1  0
 31 32  2  0
 12  7  1  0
 18 13  1  0
 32 19  1  0
 31 22  1  0
  3 33  1  0
  4 34  1  0
  4 35  1  0
  8 36  1  0
  8 37  1  0
  9 38  1  0
  9 39  1  0
 10 40  1  0
 10 41  1  0
 11 42  1  0
 11 43  1  0
 12 44  1  1
 14 45  1  0
 15 46  1  0
 16 47  1  0
 17 48  1  0
 20 49  1  0
 21 50  1  0
 23 51  1  0
 29 52  1  0
 30 53  1  0
M  END
>  <smiles>  (1) 
O=C(NCC(=O)N1CCCCC1c1ccccn1)c1ccc2cc(C(F)(F)F)ccc2n1

>  <score_type>  (1) 
oracle

>  <origin>  (1) 
autodockgpu

>  <m_score__min__energy>  (1) 
-8.6699999999999999

>  <m_primary>  (1) 
energy

>  <rmsd>  (1) 
2.659328889376424

>  <m_score__min__rmsd>  (1) 
2.659328889376424

>  <meeko>  (1) 
{"free_energy": -7.82, "intermolecular_energy": -9.61, "internal_energy": -2.4, "cluster_size": 42, "cluster_id": 1, "rank_in_cluster": 33}

>  <energy>  (1) 
-8.67

>  <cluster_rmsd>  (1) 
0.0

>  <cluster>  (1) 
1

$$$$

     RDKit          3D

 53 56  0  0  0  0  0  0  0  0999 V2000
  137.4550   72.1500  220.6480 O   0  0  0  0  0  0  0  0  0  0  0  0
  138.0240   72.5850  221.7020 C   0  0  0  0  0  0  0  0  0  0  0  0
  138.3440   73.9600  221.8780 N   0  0  0  0  0  0  0  0  0  0  0  0
  138.0440   74.9540  220.8700 C   0  0  0  0  0  0  0  0  0  0  0  0
  138.0080   76.2970  221.5250 C   0  0  0  0  0  0  0  0  0  0  0  0
  136.9580   76.5670  222.1690 O   0  0  0  0  0  0  0  0  0  0  0  0
  139.1050   77.2050  221.4170 N   0  0  0  0  0  0  0  0  0  0  0  0
  138.9580   78.3520  220.5600 C   0  0  0  0  0  0  0  0  0  0  0  0
  139.7940   79.5250  220.9490 C   0  0  0  0  0  0  0  0  0  0  0  0
  141.1650   79.1510  221.4460 C   0  0  0  0  0  0  0  0  0  0  0  0
  141.1550   78.0750  222.4750 C   0  0  0  0  0  0  0  0  0  0  0  0
  140.2870   76.9010  222.1850 C   0  0  2  0  0  0  0  0  0  0  0  0
  140.9850   75.7700  221.5570 C   0  0  0  0  0  0  0  0  0  0  0  0
  141.8350   75.8920  220.4690 C   0  0  0  0  0  0  0  0  0  0  0  0
  142.4790   74.8120  219.9000 C   0  0  0  0  0  0  0  0  0  0  0  0
  142.2850   73.5470  220.4160 C   0  0  0  0  0  0  0  0  0  0  0  0
  141.4360   73.4350  221.5000 C   0  0  0  0  0  0  0  0  0  0  0  0
  140.8320   74.4970  222.0250 N   0  0  0  0  0  0  0  0  0  0  0  0
  138.3590   71.6350  222.7660 C   0  0  0  0  0  0  0  0  0  0  0  0
  137.6420   70.4650  222.9100 C   0  0  0  0  0  0  0  0  0  0  0  0
  137.9970   69.6060  223.9270 C   0  0  0  0  0  0  0  0  0  0  0  0
  139.0330   69.8670  224.7990 C   0  0  0  0  0  0  0  0  0  0  0  0
  139.4000   69.0170  225.8200 C   0  0  0  0  0  0  0  0  0  0  0  0
  140.4440   69.3350  226.6590 C   0  0  0  0  0  0  0  0  0  0  0  0
  140.8350   68.4040  227.7670 C   0  0  0  0  0  0  0  0  0  0  0  0
  139.6600   67.9280  228.3400 F   0  0  0  0  0  0  0  0  0  0  0  0
  141.6250   69.0230  228.6870 F   0  0  0  0  0  0  0  0  0  0  0  0
  141.4440   67.3090  227.1880 F   0  0  0  0  0  0  0  0  0  0  0  0
  141.1060   70.5210  226.4460 C   0  0  0  0  0  0  0  0  0  0  0  0
  140.7810   71.4070  225.4410 C   0  0  0  0  0  0  0  0  0  0  0  0
  139.7250   71.0560  224.6150 C   0  0  0  0  0  0  0  0  0  0  0  0
  139.3570   71.8750  223.6150 N   0  0  0  0  0  0  0  0  0  0  0  0
  138.8190   74.2300  222.7900 H   0  0  0  0  0  0  0  0  0  0  0  0
  138.8222   74.9409  220.0927 H   0  0  0  0  0  0  0  0  0  0  0  0
  137.0723   74.7361  220.4029 H   0  0  0  0  0  0  0  0  0  0  0  0
  139.2362   78.0554  219.5379 H   0  0  0  0  0  0  0  0  0  0  0  0
  137.9093   78.6732  220.6436 H   0  0  0  0  0  0  0  0  0  0  0  0
  139.9087   80.1768  220.0703 H   0  0  0  0  0  0  0  0  0  0  0  0
  139.2766   80.0282  221.7791 H   0  0  0  0  0  0  0  0  0  0  0  0
  141.7631   78.8069  220.5894 H   0  0  0  0  0  0  0  0  0  0  0  0
  141.5903   80.0471  221.9216 H   0  0  0  0  0  0  0  0  0  0  0  0
  142.1864   77.7104  222.5903 H   0  0  0  0  0  0  0  0  0  0  0  0
  140.7359   78.5362  223.3814 H   0  0  0  0  0  0  0  0  0  0  0  0
  139.9726   76.5974  223.1944 H   0  0  0  0  0  0  0  0  0  0  0  0
  142.0034   76.8913  220.0412 H   0  0  0  0  0  0  0  0  0  0  0  0
  143.1453   74.9593  219.0372 H   0  0  0  0  0  0  0  0  0  0  0  0
  142.7840   72.6672  219.9836 H   0  0  0  0  0  0  0  0  0  0  0  0
  141.2552   72.4430  221.9396 H   0  0  0  0  0  0  0  0  0  0  0  0
  136.8101   70.2247  222.2317 H   0  0  0  0  0  0  0  0  0  0  0  0
  137.4295   68.6716  224.0487 H   0  0  0  0  0  0  0  0  0  0  0  0
  138.8526   68.0741  225.9661 H   0  0  0  0  0  0  0  0  0  0  0  0
  141.9412   70.7772  227.1145 H   0  0  0  0  0  0  0  0  0  0  0  0
  141.3336   72.3478  225.3014 H   0  0  0  0  0  0  0  0  0  0  0  0
  1  2  2  0
  2  3  1  0
  3  4  1  0
  4  5  1  0
  5  6  2  0
  5  7  1  0
  7  8  1  0
  8  9  1  0
  9 10  1  0
 10 11  1  0
 11 12  1  0
 12 13  1  0
 13 14  2  0
 14 15  1  0
 15 16  2  0
 16 17  1  0
 17 18  2  0
  2 19  1  0
 19 20  2  0
 20 21  1  0
 21 22  2  0
 22 23  1  0
 23 24  2  0
 24 25  1  0
 25 26  1  0
 25 27  1  0
 25 28  1  0
 24 29  1  0
 29 30  2  0
 30 31  1  0
 31 32  2  0
 12  7  1  0
 18 13  1  0
 32 19  1  0
 31 22  1  0
  3 33  1  0
  4 34  1  0
  4 35  1  0
  8 36  1  0
  8 37  1  0
  9 38  1  0
  9 39  1  0
 10 40  1  0
 10 41  1  0
 11 42  1  0
 11 43  1  0
 12 44  1  1
 14 45  1  0
 15 46  1  0
 16 47  1  0
 17 48  1  0
 20 49  1  0
 21 50  1  0
 23 51  1  0
 29 52  1  0
 30 53  1  0
M  END
>  <smiles>  (2) 
O=C(NCC(=O)N1CCCCC1c1ccccn1)c1ccc2cc(C(F)(F)F)ccc2n1

>  <score_type>  (2) 
oracle

>  <origin>  (2) 
autodockgpu

>  <m_score__min__energy>  (2) 
-8.6699999999999999

>  <m_primary>  (2) 
energy

>  <rmsd>  (2) 
3.7263794804932706

>  <m_score__min__rmsd>  (2) 
3.7263794804932706

>  <meeko>  (2) 
{"free_energy": -7.07, "intermolecular_energy": -8.86, "internal_energy": -2.62, "cluster_size": 2, "cluster_id": 2, "rank_in_cluster": 2}

>  <energy>  (2) 
-8.67

>  <cluster_rmsd>  (2) 
0.18

>  <cluster>  (2) 
1

$$$$

     RDKit          3D

 53 56  0  0  0  0  0  0  0  0999 V2000
  140.5390   72.8430  220.4970 O   0  0  0  0  0  0  0  0  0  0  0  0
  140.0470   73.0940  221.6450 C   0  0  0  0  0  0  0  0  0  0  0  0
  139.5640   74.3850  221.9980 N   0  0  0  0  0  0  0  0  0  0  0  0
  139.6030   75.4980  221.0740 C   0  0  0  0  0  0  0  0  0  0  0  0
  140.6850   76.4350  221.5050 C   0  0  0  0  0  0  0  0  0  0  0  0
  141.0220   76.3640  222.7190 O   0  0  0  0  0  0  0  0  0  0  0  0
  141.2890   77.3450  220.5860 N   0  0  0  0  0  0  0  0  0  0  0  0
  142.2740   76.8340  219.6700 C   0  0  0  0  0  0  0  0  0  0  0  0
  142.3900   77.6030  218.3960 C   0  0  0  0  0  0  0  0  0  0  0  0
  142.2570   79.0910  218.5740 C   0  0  0  0  0  0  0  0  0  0  0  0
  141.0800   79.4920  219.3930 C   0  0  0  0  0  0  0  0  0  0  0  0
  140.8610   78.7200  220.6470 C   0  0  2  0  0  0  0  0  0  0  0  0
  141.4300   79.3440  221.8500 C   0  0  0  0  0  0  0  0  0  0  0  0
  142.4580   80.2740  221.8280 C   0  0  0  0  0  0  0  0  0  0  0  0
  142.9720   80.8450  222.9740 C   0  0  0  0  0  0  0  0  0  0  0  0
  142.4610   80.4930  224.2060 C   0  0  0  0  0  0  0  0  0  0  0  0
  141.4370   79.5660  224.2190 C   0  0  0  0  0  0  0  0  0  0  0  0
  140.9630   79.0350  223.0950 N   0  0  0  0  0  0  0  0  0  0  0  0
  139.9760   72.0130  222.6330 C   0  0  0  0  0  0  0  0  0  0  0  0
  139.4800   70.7760  222.2820 C   0  0  0  0  0  0  0  0  0  0  0  0
  139.4350   69.7950  223.2480 C   0  0  0  0  0  0  0  0  0  0  0  0
  139.8640   70.0000  224.5420 C   0  0  0  0  0  0  0  0  0  0  0  0
  139.8260   69.0290  225.5200 C   0  0  0  0  0  0  0  0  0  0  0  0
  140.2690   69.2970  226.7960 C   0  0  0  0  0  0  0  0  0  0  0  0
  140.2220   68.2330  227.8510 C   0  0  0  0  0  0  0  0  0  0  0  0
  139.1690   67.3820  227.5340 F   0  0  0  0  0  0  0  0  0  0  0  0
  140.0760   68.7680  229.0950 F   0  0  0  0  0  0  0  0  0  0  0  0
  141.3710   67.4780  227.7250 F   0  0  0  0  0  0  0  0  0  0  0  0
  140.7480   70.5570  227.0620 C   0  0  0  0  0  0  0  0  0  0  0  0
  140.8090   71.5650  226.1230 C   0  0  0  0  0  0  0  0  0  0  0  0
  140.3560   71.2620  224.8500 C   0  0  0  0  0  0  0  0  0  0  0  0
  140.3870   72.1990  223.8860 N   0  0  0  0  0  0  0  0  0  0  0  0
  139.1720   74.5000  222.9790 H   0  0  0  0  0  0  0  0  0  0  0  0
  139.8133   75.1302  220.0589 H   0  0  0  0  0  0  0  0  0  0  0  0
  138.6338   76.0182  221.0696 H   0  0  0  0  0  0  0  0  0  0  0  0
  143.2524   76.8512  220.1724 H   0  0  0  0  0  0  0  0  0  0  0  0
  141.9503   75.8192  219.3954 H   0  0  0  0  0  0  0  0  0  0  0  0
  143.3742   77.3929  217.9518 H   0  0  0  0  0  0  0  0  0  0  0  0
  141.5605   77.2810  217.7493 H   0  0  0  0  0  0  0  0  0  0  0  0
  143.1667   79.4647  219.0667 H   0  0  0  0  0  0  0  0  0  0  0  0
  142.1148   79.5236  217.5727 H   0  0  0  0  0  0  0  0  0  0  0  0
  141.2061   80.5498  219.6672 H   0  0  0  0  0  0  0  0  0  0  0  0
  140.2001   79.2903  218.7644 H   0  0  0  0  0  0  0  0  0  0  0  0
  139.7646   78.7343  220.7343 H   0  0  0  0  0  0  0  0  0  0  0  0
  142.8814   80.5689  220.8565 H   0  0  0  0  0  0  0  0  0  0  0  0
  143.7878   81.5796  222.9054 H   0  0  0  0  0  0  0  0  0  0  0  0
  142.8515   80.9309  225.1364 H   0  0  0  0  0  0  0  0  0  0  0  0
  141.0029   79.2594  225.1821 H   0  0  0  0  0  0  0  0  0  0  0  0
  139.1296   70.5775  221.2584 H   0  0  0  0  0  0  0  0  0  0  0  0
  139.0397   68.8054  222.9751 H   0  0  0  0  0  0  0  0  0  0  0  0
  139.4374   68.0287  225.2783 H   0  0  0  0  0  0  0  0  0  0  0  0
  141.1025   70.7737  228.0805 H   0  0  0  0  0  0  0  0  0  0  0  0
  141.1991   72.5626  226.3733 H   0  0  0  0  0  0  0  0  0  0  0  0
  1  2  2  0
  2  3  1  0
  3  4  1  0
  4  5  1  0
  5  6  2  0
  5  7  1  0
  7  8  1  0
  8  9  1  0
  9 10  1  0
 10 11  1  0
 11 12  1  0
 12 13  1  0
 13 14  2  0
 14 15  1  0
 15 16  2  0
 16 17  1  0
 17 18  2  0
  2 19  1  0
 19 20  2  0
 20 21  1  0
 21 22  2  0
 22 23  1  0
 23 24  2  0
 24 25  1  0
 25 26  1  0
 25 27  1  0
 25 28  1  0
 24 29  1  0
 29 30  2  0
 30 31  1  0
 31 32  2  0
 12  7  1  0
 18 13  1  0
 32 19  1  0
 31 22  1  0
  3 33  1  0
  4 34  1  0
  4 35  1  0
  8 36  1  0
  8 37  1  0
  9 38  1  0
  9 39  1  0
 10 40  1  0
 10 41  1  0
 11 42  1  0
 11 43  1  0
 12 44  1  1
 14 45  1  0
 15 46  1  0
 16 47  1  0
 17 48  1  0
 20 49  1  0
 21 50  1  0
 23 51  1  0
 29 52  1  0
 30 53  1  0
M  END
>  <smiles>  (3) 
O=C(NCC(=O)N1CCCCC1c1ccccn1)c1ccc2cc(C(F)(F)F)ccc2n1

>  <score_type>  (3) 
oracle

>  <origin>  (3) 
autodockgpu

>  <m_score__min__energy>  (3) 
-8.6699999999999999

>  <m_primary>  (3) 
energy

>  <rmsd>  (3) 
2.5290465045505397

>  <m_score__min__rmsd>  (3) 
2.5290465045505397

>  <meeko>  (3) 
{"free_energy": -8.44, "intermolecular_energy": -10.23, "internal_energy": -1.71, "cluster_size": 42, "cluster_id": 1, "rank_in_cluster": 14}

>  <energy>  (3) 
-8.63

>  <cluster_rmsd>  (3) 
0.39

>  <cluster>  (3) 
1

$$$$

     RDKit          3D

 53 56  0  0  0  0  0  0  0  0999 V2000
  140.5050   73.0840  220.4920 O   0  0  0  0  0  0  0  0  0  0  0  0
  140.0120   73.2710  221.6520 C   0  0  0  0  0  0  0  0  0  0  0  0
  139.4930   74.5300  222.0630 N   0  0  0  0  0  0  0  0  0  0  0  0
  139.4930   75.6830  221.1870 C   0  0  0  0  0  0  0  0  0  0  0  0
  138.8650   76.8280  221.9130 C   0  0  0  0  0  0  0  0  0  0  0  0
  137.6140   76.7620  222.0660 O   0  0  0  0  0  0  0  0  0  0  0  0
  139.6470   77.9200  222.3960 N   0  0  0  0  0  0  0  0  0  0  0  0
  138.9630   79.1140  222.8190 C   0  0  0  0  0  0  0  0  0  0  0  0
  139.6930   79.9130  223.8460 C   0  0  0  0  0  0  0  0  0  0  0  0
  141.1820   79.9580  223.6310 C   0  0  0  0  0  0  0  0  0  0  0  0
  141.7920   78.6220  223.3890 C   0  0  0  0  0  0  0  0  0  0  0  0
  141.0770   77.7410  222.4250 C   0  0  2  0  0  0  0  0  0  0  0  0
  141.5930   77.8020  221.0490 C   0  0  0  0  0  0  0  0  0  0  0  0
  141.5180   78.9280  220.2440 C   0  0  0  0  0  0  0  0  0  0  0  0
  142.0120   78.9570  218.9560 C   0  0  0  0  0  0  0  0  0  0  0  0
  142.6100   77.8340  218.4230 C   0  0  0  0  0  0  0  0  0  0  0  0
  142.6800   76.7170  219.2330 C   0  0  0  0  0  0  0  0  0  0  0  0
  142.1950   76.7220  220.4710 N   0  0  0  0  0  0  0  0  0  0  0  0
  139.9800   72.1470  222.5930 C   0  0  0  0  0  0  0  0  0  0  0  0
  139.4900   70.9190  222.2000 C   0  0  0  0  0  0  0  0  0  0  0  0
  139.4810   69.8970  223.1230 C   0  0  0  0  0  0  0  0  0  0  0  0
  139.9400   70.0500  224.4140 C   0  0  0  0  0  0  0  0  0  0  0  0
  139.9390   69.0370  225.3480 C   0  0  0  0  0  0  0  0  0  0  0  0
  140.4110   69.2550  226.6230 C   0  0  0  0  0  0  0  0  0  0  0  0
  140.4050   68.1450  227.6310 C   0  0  0  0  0  0  0  0  0  0  0  0
  139.2530   67.3950  227.4130 F   0  0  0  0  0  0  0  0  0  0  0  0
  140.4550   68.6250  228.9050 F   0  0  0  0  0  0  0  0  0  0  0  0
  141.4630   67.3110  227.3320 F   0  0  0  0  0  0  0  0  0  0  0  0
  140.8820   70.5080  226.9320 C   0  0  0  0  0  0  0  0  0  0  0  0
  140.9070   71.5570  226.0380 C   0  0  0  0  0  0  0  0  0  0  0  0
  140.4250   71.3040  224.7640 C   0  0  0  0  0  0  0  0  0  0  0  0
  140.4200   72.2830  223.8430 N   0  0  0  0  0  0  0  0  0  0  0  0
  139.1030   74.5900  223.0490 H   0  0  0  0  0  0  0  0  0  0  0  0
  140.5264   75.9400  220.9114 H   0  0  0  0  0  0  0  0  0  0  0  0
  138.9267   75.4608  220.2705 H   0  0  0  0  0  0  0  0  0  0  0  0
  138.8053   79.7509  221.9361 H   0  0  0  0  0  0  0  0  0  0  0  0
  138.0224   78.7873  223.2865 H   0  0  0  0  0  0  0  0  0  0  0  0
  139.3075   80.9430  223.8233 H   0  0  0  0  0  0  0  0  0  0  0  0
  139.5227   79.4226  224.8158 H   0  0  0  0  0  0  0  0  0  0  0  0
  141.3880   80.5968  222.7595 H   0  0  0  0  0  0  0  0  0  0  0  0
  141.6286   80.3527  224.5555 H   0  0  0  0  0  0  0  0  0  0  0  0
  142.8108   78.7819  223.0064 H   0  0  0  0  0  0  0  0  0  0  0  0
  141.7500   78.0983  224.3554 H   0  0  0  0  0  0  0  0  0  0  0  0
  141.2895   76.7413  222.8318 H   0  0  0  0  0  0  0  0  0  0  0  0
  141.0455   79.8353  220.6485 H   0  0  0  0  0  0  0  0  0  0  0  0
  141.9290   79.8745  218.3549 H   0  0  0  0  0  0  0  0  0  0  0  0
  143.0129   77.8281  217.3995 H   0  0  0  0  0  0  0  0  0  0  0  0
  143.1485   75.8009  218.8441 H   0  0  0  0  0  0  0  0  0  0  0  0
  139.1167   70.7604  221.1775 H   0  0  0  0  0  0  0  0  0  0  0  0
  139.0904   68.9154  222.8167 H   0  0  0  0  0  0  0  0  0  0  0  0
  139.5569   68.0431  225.0720 H   0  0  0  0  0  0  0  0  0  0  0  0
  141.2604   70.6841  227.9498 H   0  0  0  0  0  0  0  0  0  0  0  0
  141.2913   72.5476  226.3225 H   0  0  0  0  0  0  0  0  0  0  0  0
  1  2  2  0
  2  3  1  0
  3  4  1  0
  4  5  1  0
  5  6  2  0
  5  7  1  0
  7  8  1  0
  8  9  1  0
  9 10  1  0
 10 11  1  0
 11 12  1  0
 12 13  1  0
 13 14  2  0
 14 15  1  0
 15 16  2  0
 16 17  1  0
 17 18  2  0
  2 19  1  0
 19 20  2  0
 20 21  1  0
 21 22  2  0
 22 23  1  0
 23 24  2  0
 24 25  1  0
 25 26  1  0
 25 27  1  0
 25 28  1  0
 24 29  1  0
 29 30  2  0
 30 31  1  0
 31 32  2  0
 12  7  1  0
 18 13  1  0
 32 19  1  0
 31 22  1  0
  3 33  1  0
  4 34  1  0
  4 35  1  0
  8 36  1  0
  8 37  1  0
  9 38  1  0
  9 39  1  0
 10 40  1  0
 10 41  1  0
 11 42  1  0
 11 43  1  0
 12 44  1  1
 14 45  1  0
 15 46  1  0
 16 47  1  0
 17 48  1  0
 20 49  1  0
 21 50  1  0
 23 51  1  0
 29 52  1  0
 30 53  1  0
M  END
>  <smiles>  (4) 
O=C(NCC(=O)N1CCCCC1c1ccccn1)c1ccc2cc(C(F)(F)F)ccc2n1

>  <score_type>  (4) 
oracle

>  <origin>  (4) 
autodockgpu

>  <m_score__min__energy>  (4) 
-8.6699999999999999

>  <m_primary>  (4) 
energy

>  <rmsd>  (4) 
3.8250788754485847

>  <m_score__min__rmsd>  (4) 
3.8250788754485847

>  <meeko>  (4) 
{"free_energy": -8.25, "intermolecular_energy": -10.04, "internal_energy": -1.63, "cluster_size": 2, "cluster_id": 2, "rank_in_cluster": 1}

>  <energy>  (4) 
-8.62

>  <cluster_rmsd>  (4) 
0.26

>  <cluster>  (4) 
1

$$$$

     RDKit          3D

 53 56  0  0  0  0  0  0  0  0999 V2000
  140.9290   73.5180  220.8790 O   0  0  0  0  0  0  0  0  0  0  0  0
  140.0310   73.5940  221.7800 C   0  0  0  0  0  0  0  0  0  0  0  0
  139.2200   74.7500  221.9480 N   0  0  0  0  0  0  0  0  0  0  0  0
  139.3650   75.9190  221.1060 C   0  0  0  0  0  0  0  0  0  0  0  0
  140.6250   76.6260  221.4890 C   0  0  0  0  0  0  0  0  0  0  0  0
  140.9900   76.4870  222.6890 O   0  0  0  0  0  0  0  0  0  0  0  0
  141.3560   77.4050  220.5430 N   0  0  0  0  0  0  0  0  0  0  0  0
  142.4230   76.7700  219.8160 C   0  0  0  0  0  0  0  0  0  0  0  0
  142.7060   77.3720  218.4810 C   0  0  0  0  0  0  0  0  0  0  0  0
  142.5980   78.8730  218.4600 C   0  0  0  0  0  0  0  0  0  0  0  0
  141.3480   79.3910  219.0820 C   0  0  0  0  0  0  0  0  0  0  0  0
  140.9650   78.7840  220.3860 C   0  0  2  0  0  0  0  0  0  0  0  0
  141.4120   79.5440  221.5630 C   0  0  0  0  0  0  0  0  0  0  0  0
  142.5530   79.2420  222.2920 C   0  0  0  0  0  0  0  0  0  0  0  0
  142.9490   79.9740  223.3920 C   0  0  0  0  0  0  0  0  0  0  0  0
  142.1980   81.0540  223.8070 C   0  0  0  0  0  0  0  0  0  0  0  0
  141.0640   81.3470  223.0750 C   0  0  0  0  0  0  0  0  0  0  0  0
  140.7090   80.6220  222.0170 N   0  0  0  0  0  0  0  0  0  0  0  0
  139.8280   72.4470  222.6700 C   0  0  0  0  0  0  0  0  0  0  0  0
  138.8310   71.5300  222.4140 C   0  0  0  0  0  0  0  0  0  0  0  0
  138.6820   70.4710  223.2820 C   0  0  0  0  0  0  0  0  0  0  0  0
  139.4850   70.2920  224.3880 C   0  0  0  0  0  0  0  0  0  0  0  0
  139.3490   69.2370  225.2650 C   0  0  0  0  0  0  0  0  0  0  0  0
  140.1840   69.1150  226.3540 C   0  0  0  0  0  0  0  0  0  0  0  0
  140.0270   67.9640  227.3010 C   0  0  0  0  0  0  0  0  0  0  0  0
  141.2940   67.4370  227.5240 F   0  0  0  0  0  0  0  0  0  0  0  0
  139.1730   67.0240  226.8090 F   0  0  0  0  0  0  0  0  0  0  0  0
  139.6130   68.4810  228.5120 F   0  0  0  0  0  0  0  0  0  0  0  0
  141.1520   70.0740  226.5350 C   0  0  0  0  0  0  0  0  0  0  0  0
  141.3320   71.1480  225.6900 C   0  0  0  0  0  0  0  0  0  0  0  0
  140.4760   71.2400  224.6050 C   0  0  0  0  0  0  0  0  0  0  0  0
  140.5970   72.2630  223.7420 N   0  0  0  0  0  0  0  0  0  0  0  0
  138.4970   74.7210  222.7260 H   0  0  0  0  0  0  0  0  0  0  0  0
  139.4177   75.6122  220.0510 H   0  0  0  0  0  0  0  0  0  0  0  0
  138.5021   76.5882  221.2384 H   0  0  0  0  0  0  0  0  0  0  0  0
  143.3382   76.8345  220.4229 H   0  0  0  0  0  0  0  0  0  0  0  0
  142.1020   75.7344  219.6304 H   0  0  0  0  0  0  0  0  0  0  0  0
  143.7276   77.0930  218.1835 H   0  0  0  0  0  0  0  0  0  0  0  0
  141.9464   76.9849  217.7858 H   0  0  0  0  0  0  0  0  0  0  0  0
  143.4567   79.2908  219.0059 H   0  0  0  0  0  0  0  0  0  0  0  0
  142.5832   79.1799  217.4038 H   0  0  0  0  0  0  0  0  0  0  0  0
  141.4738   80.4725  219.2388 H   0  0  0  0  0  0  0  0  0  0  0  0
  140.5395   79.1269  218.3844 H   0  0  0  0  0  0  0  0  0  0  0  0
  139.8667   78.8259  220.3423 H   0  0  0  0  0  0  0  0  0  0  0  0
  143.1668   78.3840  221.9802 H   0  0  0  0  0  0  0  0  0  0  0  0
  143.8629   79.6967  223.9378 H   0  0  0  0  0  0  0  0  0  0  0  0
  142.4891   81.6547  224.6813 H   0  0  0  0  0  0  0  0  0  0  0  0
  140.4386   82.2011  223.3740 H   0  0  0  0  0  0  0  0  0  0  0  0
  138.1722   71.6411  221.5401 H   0  0  0  0  0  0  0  0  0  0  0  0
  137.8877   69.7362  223.0840 H   0  0  0  0  0  0  0  0  0  0  0  0
  138.5653   68.4845  225.0934 H   0  0  0  0  0  0  0  0  0  0  0  0
  141.8207   69.9790  227.4032 H   0  0  0  0  0  0  0  0  0  0  0  0
  142.1181   71.8964  225.8688 H   0  0  0  0  0  0  0  0  0  0  0  0
  1  2  2  0
  2  3  1  0
  3  4  1  0
  4  5  1  0
  5  6  2  0
  5  7  1  0
  7  8  1  0
  8  9  1  0
  9 10  1  0
 10 11  1  0
 11 12  1  0
 12 13  1  0
 13 14  2  0
 14 15  1  0
 15 16  2  0
 16 17  1  0
 17 18  2  0
  2 19  1  0
 19 20  2  0
 20 21  1  0
 21 22  2  0
 22 23  1  0
 23 24  2  0
 24 25  1  0
 25 26  1  0
 25 27  1  0
 25 28  1  0
 24 29  1  0
 29 30  2  0
 30 31  1  0
 31 32  2  0
 12  7  1  0
 18 13  1  0
 32 19  1  0
 31 22  1  0
  3 33  1  0
  4 34  1  0
  4 35  1  0
  8 36  1  0
  8 37  1  0
  9 38  1  0
  9 39  1  0
 10 40  1  0
 10 41  1  0
 11 42  1  0
 11 43  1  0
 12 44  1  6
 14 45  1  0
 15 46  1  0
 16 47  1  0
 17 48  1  0
 20 49  1  0
 21 50  1  0
 23 51  1  0
 29 52  1  0
 30 53  1  0
M  END
>  <smiles>  (5) 
O=C(NCC(=O)N1CCCCC1c1ccccn1)c1ccc2cc(C(F)(F)F)ccc2n1

>  <score_type>  (5) 
oracle

>  <origin>  (5) 
autodockgpu

>  <m_score__min__energy>  (5) 
-8.6699999999999999

>  <m_primary>  (5) 
energy

>  <rmsd>  (5) 
2.892548799936723

>  <m_score__min__rmsd>  (5) 
2.892548799936723

>  <meeko>  (5) 
{"free_energy": -8.58, "intermolecular_energy": -10.37, "internal_energy": -1.6, "cluster_size": 42, "cluster_id": 1, "rank_in_cluster": 6}

>  <energy>  (5) 
-8.59

>  <cluster_rmsd>  (5) 
0.34

>  <cluster>  (5) 
1

$$$$

     RDKit          3D

 53 56  0  0  0  0  0  0  0  0999 V2000
  138.4170   73.0830  220.8400 O   0  0  0  0  0  0  0  0  0  0  0  0
  139.3730   73.1430  221.6810 C   0  0  0  0  0  0  0  0  0  0  0  0
  140.3950   74.1280  221.5980 N   0  0  0  0  0  0  0  0  0  0  0  0
  140.4150   75.1280  220.5510 C   0  0  0  0  0  0  0  0  0  0  0  0
  141.0580   76.3650  221.0900 C   0  0  0  0  0  0  0  0  0  0  0  0
  141.1680   76.4260  222.3460 O   0  0  0  0  0  0  0  0  0  0  0  0
  141.5150   77.4030  220.2230 N   0  0  0  0  0  0  0  0  0  0  0  0
  142.6150   77.1170  219.3400 C   0  0  0  0  0  0  0  0  0  0  0  0
  142.6350   77.9360  218.0920 C   0  0  0  0  0  0  0  0  0  0  0  0
  142.2140   79.3660  218.3020 C   0  0  0  0  0  0  0  0  0  0  0  0
  140.9500   79.5110  219.0750 C   0  0  0  0  0  0  0  0  0  0  0  0
  140.8320   78.6700  220.2990 C   0  0  2  0  0  0  0  0  0  0  0  0
  141.2230   79.3500  221.5420 C   0  0  0  0  0  0  0  0  0  0  0  0
  142.5090   79.3340  222.0610 C   0  0  0  0  0  0  0  0  0  0  0  0
  142.8480   79.9820  223.2310 C   0  0  0  0  0  0  0  0  0  0  0  0
  141.8880   80.6810  223.9330 C   0  0  0  0  0  0  0  0  0  0  0  0
  140.6110   80.6920  223.4080 C   0  0  0  0  0  0  0  0  0  0  0  0
  140.3160   80.0570  222.2770 N   0  0  0  0  0  0  0  0  0  0  0  0
  139.4170   72.1610  222.7690 C   0  0  0  0  0  0  0  0  0  0  0  0
  138.5300   71.1060  222.7960 C   0  0  0  0  0  0  0  0  0  0  0  0
  138.6140   70.2120  223.8400 C   0  0  0  0  0  0  0  0  0  0  0  0
  139.5430   70.3290  224.8510 C   0  0  0  0  0  0  0  0  0  0  0  0
  139.6400   69.4420  225.9030 C   0  0  0  0  0  0  0  0  0  0  0  0
  140.5910   69.6150  226.8840 C   0  0  0  0  0  0  0  0  0  0  0  0
  140.6870   68.6450  228.0220 C   0  0  0  0  0  0  0  0  0  0  0  0
  141.7100   69.0860  228.8560 F   0  0  0  0  0  0  0  0  0  0  0  0
  140.9120   67.3760  227.5810 F   0  0  0  0  0  0  0  0  0  0  0  0
  139.5250   68.7570  228.7570 F   0  0  0  0  0  0  0  0  0  0  0  0
  141.4360   70.6940  226.7810 C   0  0  0  0  0  0  0  0  0  0  0  0
  141.3840   71.6110  225.7520 C   0  0  0  0  0  0  0  0  0  0  0  0
  140.4160   71.4070  224.7820 C   0  0  0  0  0  0  0  0  0  0  0  0
  140.3100   72.2630  223.7510 N   0  0  0  0  0  0  0  0  0  0  0  0
  141.1510   74.1000  222.3440 H   0  0  0  0  0  0  0  0  0  0  0  0
  140.9912   74.7543  219.6917 H   0  0  0  0  0  0  0  0  0  0  0  0
  139.3893   75.3492  220.2209 H   0  0  0  0  0  0  0  0  0  0  0  0
  143.5516   77.3009  219.8869 H   0  0  0  0  0  0  0  0  0  0  0  0
  142.4998   76.0693  219.0253 H   0  0  0  0  0  0  0  0  0  0  0  0
  143.6585   77.9305  217.6890 H   0  0  0  0  0  0  0  0  0  0  0  0
  141.9096   77.4850  217.3989 H   0  0  0  0  0  0  0  0  0  0  0  0
  143.0154   79.8875  218.8460 H   0  0  0  0  0  0  0  0  0  0  0  0
  142.0328   79.7970  217.3063 H   0  0  0  0  0  0  0  0  0  0  0  0
  140.8614   80.5640  219.3805 H   0  0  0  0  0  0  0  0  0  0  0  0
  140.1502   79.1684  218.4020 H   0  0  0  0  0  0  0  0  0  0  0  0
  139.7502   78.4743  220.3368 H   0  0  0  0  0  0  0  0  0  0  0  0
  143.2904   78.7823  221.5178 H   0  0  0  0  0  0  0  0  0  0  0  0
  143.8822   79.9413  223.6035 H   0  0  0  0  0  0  0  0  0  0  0  0
  142.1290   81.2061  224.8691 H   0  0  0  0  0  0  0  0  0  0  0  0
  139.8178   81.2395  223.9382 H   0  0  0  0  0  0  0  0  0  0  0  0
  137.7757   70.9817  222.0051 H   0  0  0  0  0  0  0  0  0  0  0  0
  137.9091   69.3680  223.8681 H   0  0  0  0  0  0  0  0  0  0  0  0
  138.9501   68.5870  225.9590 H   0  0  0  0  0  0  0  0  0  0  0  0
  142.1966   70.8342  227.5632 H   0  0  0  0  0  0  0  0  0  0  0  0
  142.0777   72.4633  225.7038 H   0  0  0  0  0  0  0  0  0  0  0  0
  1  2  2  0
  2  3  1  0
  3  4  1  0
  4  5  1  0
  5  6  2  0
  5  7  1  0
  7  8  1  0
  8  9  1  0
  9 10  1  0
 10 11  1  0
 11 12  1  0
 12 13  1  0
 13 14  2  0
 14 15  1  0
 15 16  2  0
 16 17  1  0
 17 18  2  0
  2 19  1  0
 19 20  2  0
 20 21  1  0
 21 22  2  0
 22 23  1  0
 23 24  2  0
 24 25  1  0
 25 26  1  0
 25 27  1  0
 25 28  1  0
 24 29  1  0
 29 30  2  0
 30 31  1  0
 31 32  2  0
 12  7  1  0
 18 13  1  0
 32 19  1  0
 31 22  1  0
  3 33  1  0
  4 34  1  0
  4 35  1  0
  8 36  1  0
  8 37  1  0
  9 38  1  0
  9 39  1  0
 10 40  1  0
 10 41  1  0
 11 42  1  0
 11 43  1  0
 12 44  1  1
 14 45  1  0
 15 46  1  0
 16 47  1  0
 17 48  1  0
 20 49  1  0
 21 50  1  0
 23 51  1  0
 29 52  1  0
 30 53  1  0
M  END
>  <smiles>  (6) 
O=C(NCC(=O)N1CCCCC1c1ccccn1)c1ccc2cc(C(F)(F)F)ccc2n1

>  <score_type>  (6) 
oracle

>  <origin>  (6) 
autodockgpu

>  <m_score__min__energy>  (6) 
-8.6699999999999999

>  <m_primary>  (6) 
energy

>  <rmsd>  (6) 
2.7849153562540803

>  <m_score__min__rmsd>  (6) 
2.7849153562540803

>  <meeko>  (6) 
{"free_energy": -7.55, "intermolecular_energy": -9.34, "internal_energy": -2.19, "cluster_size": 42, "cluster_id": 1, "rank_in_cluster": 40}

>  <energy>  (6) 
-8.58

>  <cluster_rmsd>  (6) 
0.31

>  <cluster>  (6) 
1

$$$$

     RDKit          3D

 53 56  0  0  0  0  0  0  0  0999 V2000
  140.6580   73.4550  220.5540 O   0  0  0  0  0  0  0  0  0  0  0  0
  140.0800   73.5700  221.6830 C   0  0  0  0  0  0  0  0  0  0  0  0
  139.6090   74.8210  222.1700 N   0  0  0  0  0  0  0  0  0  0  0  0
  139.7580   76.0460  221.4130 C   0  0  0  0  0  0  0  0  0  0  0  0
  139.2640   77.1820  222.2480 C   0  0  0  0  0  0  0  0  0  0  0  0
  138.1310   77.0230  222.7800 O   0  0  0  0  0  0  0  0  0  0  0  0
  140.0410   78.3670  222.4230 N   0  0  0  0  0  0  0  0  0  0  0  0
  139.3670   79.5690  222.8380 C   0  0  0  0  0  0  0  0  0  0  0  0
  140.2270   80.5320  223.5860 C   0  0  0  0  0  0  0  0  0  0  0  0
  141.6310   80.6260  223.0550 C   0  0  0  0  0  0  0  0  0  0  0  0
  142.2820   79.3030  222.8470 C   0  0  0  0  0  0  0  0  0  0  0  0
  141.4570   78.2680  222.1670 C   0  0  2  0  0  0  0  0  0  0  0  0
  141.6740   78.1750  220.7160 C   0  0  0  0  0  0  0  0  0  0  0  0
  142.3860   77.1540  220.1040 C   0  0  0  0  0  0  0  0  0  0  0  0
  142.5740   77.0920  218.7380 C   0  0  0  0  0  0  0  0  0  0  0  0
  142.0440   78.0730  217.9260 C   0  0  0  0  0  0  0  0  0  0  0  0
  141.3360   79.0860  218.5450 C   0  0  0  0  0  0  0  0  0  0  0  0
  141.1720   79.1160  219.8640 N   0  0  0  0  0  0  0  0  0  0  0  0
  139.8940   72.3710  222.5060 C   0  0  0  0  0  0  0  0  0  0  0  0
  139.1230   71.3220  222.0500 C   0  0  0  0  0  0  0  0  0  0  0  0
  138.9800   70.2190  222.8630 C   0  0  0  0  0  0  0  0  0  0  0  0
  139.5740   70.1220  224.1030 C   0  0  0  0  0  0  0  0  0  0  0  0
  139.4410   69.0240  224.9260 C   0  0  0  0  0  0  0  0  0  0  0  0
  140.0600   68.9890  226.1570 C   0  0  0  0  0  0  0  0  0  0  0  0
  139.9090   67.7900  227.0440 C   0  0  0  0  0  0  0  0  0  0  0  0
  141.0750   67.0400  226.9280 F   0  0  0  0  0  0  0  0  0  0  0  0
  138.8080   67.0580  226.7140 F   0  0  0  0  0  0  0  0  0  0  0  0
  139.8780   68.2440  228.3470 F   0  0  0  0  0  0  0  0  0  0  0  0
  140.8110   70.0770  226.5340 C   0  0  0  0  0  0  0  0  0  0  0  0
  140.9770   71.1990  225.7500 C   0  0  0  0  0  0  0  0  0  0  0  0
  140.3420   71.2010  224.5190 C   0  0  0  0  0  0  0  0  0  0  0  0
  140.4620   72.2650  223.7060 N   0  0  0  0  0  0  0  0  0  0  0  0
  139.1380   74.8200  223.1230 H   0  0  0  0  0  0  0  0  0  0  0  0
  140.8181   76.2019  221.1642 H   0  0  0  0  0  0  0  0  0  0  0  0
  139.1795   75.9849  220.4794 H   0  0  0  0  0  0  0  0  0  0  0  0
  138.9838   80.0759  221.9401 H   0  0  0  0  0  0  0  0  0  0  0  0
  138.5695   79.2586  223.5291 H   0  0  0  0  0  0  0  0  0  0  0  0
  139.7655   81.5287  223.5264 H   0  0  0  0  0  0  0  0  0  0  0  0
  140.2980   80.1640  224.6202 H   0  0  0  0  0  0  0  0  0  0  0  0
  141.6030   81.1547  222.0908 H   0  0  0  0  0  0  0  0  0  0  0  0
  142.2252   81.1615  223.8101 H   0  0  0  0  0  0  0  0  0  0  0  0
  143.1856   79.4645  222.2408 H   0  0  0  0  0  0  0  0  0  0  0  0
  142.4795   78.9088  223.8548 H   0  0  0  0  0  0  0  0  0  0  0  0
  141.8264   77.3424  222.6326 H   0  0  0  0  0  0  0  0  0  0  0  0
  142.8183   76.3617  220.7327 H   0  0  0  0  0  0  0  0  0  0  0  0
  143.1455   76.2617  218.2977 H   0  0  0  0  0  0  0  0  0  0  0  0
  142.1788   78.0502  216.8345 H   0  0  0  0  0  0  0  0  0  0  0  0
  140.8976   79.8868  217.9314 H   0  0  0  0  0  0  0  0  0  0  0  0
  138.6359   71.3650  221.0647 H   0  0  0  0  0  0  0  0  0  0  0  0
  138.3650   69.3793  222.5071 H   0  0  0  0  0  0  0  0  0  0  0  0
  138.8347   68.1672  224.5969 H   0  0  0  0  0  0  0  0  0  0  0  0
  141.3070   70.0510  227.5155 H   0  0  0  0  0  0  0  0  0  0  0  0
  141.5848   72.0520  226.0861 H   0  0  0  0  0  0  0  0  0  0  0  0
  1  2  2  0
  2  3  1  0
  3  4  1  0
  4  5  1  0
  5  6  2  0
  5  7  1  0
  7  8  1  0
  8  9  1  0
  9 10  1  0
 10 11  1  0
 11 12  1  0
 12 13  1  0
 13 14  2  0
 14 15  1  0
 15 16  2  0
 16 17  1  0
 17 18  2  0
  2 19  1  0
 19 20  2  0
 20 21  1  0
 21 22  2  0
 22 23  1  0
 23 24  2  0
 24 25  1  0
 25 26  1  0
 25 27  1  0
 25 28  1  0
 24 29  1  0
 29 30  2  0
 30 31  1  0
 31 32  2  0
 12  7  1  0
 18 13  1  0
 32 19  1  0
 31 22  1  0
  3 33  1  0
  4 34  1  0
  4 35  1  0
  8 36  1  0
  8 37  1  0
  9 38  1  0
  9 39  1  0
 10 40  1  0
 10 41  1  0
 11 42  1  0
 11 43  1  0
 12 44  1  1
 14 45  1  0
 15 46  1  0
 16 47  1  0
 17 48  1  0
 20 49  1  0
 21 50  1  0
 23 51  1  0
 29 52  1  0
 30 53  1  0
M  END
>  <smiles>  (7) 
O=C(NCC(=O)N1CCCCC1c1ccccn1)c1ccc2cc(C(F)(F)F)ccc2n1

>  <score_type>  (7) 
oracle

>  <origin>  (7) 
autodockgpu

>  <m_score__min__energy>  (7) 
-8.6699999999999999

>  <m_primary>  (7) 
energy

>  <rmsd>  (7) 
4.172598949529457

>  <m_score__min__rmsd>  (7) 
4.172598949529457

>  <meeko>  (7) 
{"free_energy": -8.28, "intermolecular_energy": -10.07, "internal_energy": -1.75, "cluster_size": 42, "cluster_id": 1, "rank_in_cluster": 18}

>  <energy>  (7) 
-8.55

>  <cluster_rmsd>  (7) 
1.12

>  <cluster>  (7) 
1

$$$$

     RDKit          3D

 53 56  0  0  0  0  0  0  0  0999 V2000
  141.1860   73.6250  220.9090 O   0  0  0  0  0  0  0  0  0  0  0  0
  140.2810   73.6670  221.8050 C   0  0  0  0  0  0  0  0  0  0  0  0
  139.4980   74.8310  222.0380 N   0  0  0  0  0  0  0  0  0  0  0  0
  139.6810   76.0460  221.2720 C   0  0  0  0  0  0  0  0  0  0  0  0
  139.1880   77.1980  222.0860 C   0  0  0  0  0  0  0  0  0  0  0  0
  138.0080   77.0990  222.5220 O   0  0  0  0  0  0  0  0  0  0  0  0
  140.0160   78.3320  222.3450 N   0  0  0  0  0  0  0  0  0  0  0  0
  139.3860   79.5520  222.7770 C   0  0  0  0  0  0  0  0  0  0  0  0
  140.2560   80.4380  223.6030 C   0  0  0  0  0  0  0  0  0  0  0  0
  141.6890   80.4760  223.1430 C   0  0  0  0  0  0  0  0  0  0  0  0
  142.2790   79.1290  222.9130 C   0  0  0  0  0  0  0  0  0  0  0  0
  141.4360   78.1660  222.1530 C   0  0  2  0  0  0  0  0  0  0  0  0
  141.7200   78.1170  220.7110 C   0  0  0  0  0  0  0  0  0  0  0  0
  142.4170   77.0890  220.0940 C   0  0  0  0  0  0  0  0  0  0  0  0
  142.6680   77.0690  218.7380 C   0  0  0  0  0  0  0  0  0  0  0  0
  142.2200   78.1010  217.9400 C   0  0  0  0  0  0  0  0  0  0  0  0
  141.5260   79.1200  218.5640 C   0  0  0  0  0  0  0  0  0  0  0  0
  141.2990   79.1100  219.8740 N   0  0  0  0  0  0  0  0  0  0  0  0
  140.0410   72.4730  222.6210 C   0  0  0  0  0  0  0  0  0  0  0  0
  139.1290   71.5210  222.2150 C   0  0  0  0  0  0  0  0  0  0  0  0
  138.9400   70.4180  223.0180 C   0  0  0  0  0  0  0  0  0  0  0  0
  139.6220   70.2290  224.2010 C   0  0  0  0  0  0  0  0  0  0  0  0
  139.4440   69.1300  225.0150 C   0  0  0  0  0  0  0  0  0  0  0  0
  140.1560   69.0010  226.1870 C   0  0  0  0  0  0  0  0  0  0  0  0
  139.9540   67.8020  227.0650 C   0  0  0  0  0  0  0  0  0  0  0  0
  138.9040   67.0660  226.5240 F   0  0  0  0  0  0  0  0  0  0  0  0
  139.7020   68.1610  228.3530 F   0  0  0  0  0  0  0  0  0  0  0  0
  141.0760   67.0080  226.9410 F   0  0  0  0  0  0  0  0  0  0  0  0
  141.0440   69.9960  226.5170 C   0  0  0  0  0  0  0  0  0  0  0  0
  141.2610   71.1150  225.7410 C   0  0  0  0  0  0  0  0  0  0  0  0
  140.5290   71.2130  224.5690 C   0  0  0  0  0  0  0  0  0  0  0  0
  140.6920   72.2790  223.7650 N   0  0  0  0  0  0  0  0  0  0  0  0
  138.7670   74.7730  222.8070 H   0  0  0  0  0  0  0  0  0  0  0  0
  140.7481   76.1831  221.0430 H   0  0  0  0  0  0  0  0  0  0  0  0
  139.1204   75.9844  220.3276 H   0  0  0  0  0  0  0  0  0  0  0  0
  139.0741   80.1128  221.8835 H   0  0  0  0  0  0  0  0  0  0  0  0
  138.5409   79.2583  223.4170 H   0  0  0  0  0  0  0  0  0  0  0  0
  139.8505   81.4597  223.5617 H   0  0  0  0  0  0  0  0  0  0  0  0
  140.2562   80.0283  224.6239 H   0  0  0  0  0  0  0  0  0  0  0  0
  141.7365   81.0415  222.2007 H   0  0  0  0  0  0  0  0  0  0  0  0
  142.2723   80.9497  223.9464 H   0  0  0  0  0  0  0  0  0  0  0  0
  143.2188   79.2641  222.3576 H   0  0  0  0  0  0  0  0  0  0  0  0
  142.4048   78.6869  223.9124 H   0  0  0  0  0  0  0  0  0  0  0  0
  141.7328   77.2046  222.5975 H   0  0  0  0  0  0  0  0  0  0  0  0
  142.7845   76.2559  220.7111 H   0  0  0  0  0  0  0  0  0  0  0  0
  143.2248   76.2310  218.2934 H   0  0  0  0  0  0  0  0  0  0  0  0
  142.4067   78.1123  216.8560 H   0  0  0  0  0  0  0  0  0  0  0  0
  141.1518   79.9609  217.9616 H   0  0  0  0  0  0  0  0  0  0  0  0
  138.5683   71.6395  221.2761 H   0  0  0  0  0  0  0  0  0  0  0  0
  138.2135   69.6550  222.7017 H   0  0  0  0  0  0  0  0  0  0  0  0
  138.7261   68.3485  224.7253 H   0  0  0  0  0  0  0  0  0  0  0  0
  141.6137   69.8943  227.4525 H   0  0  0  0  0  0  0  0  0  0  0  0
  141.9805   71.8922  226.0382 H   0  0  0  0  0  0  0  0  0  0  0  0
  1  2  2  0
  2  3  1  0
  3  4  1  0
  4  5  1  0
  5  6  2  0
  5  7  1  0
  7  8  1  0
  8  9  1  0
  9 10  1  0
 10 11  1  0
 11 12  1  0
 12 13  1  0
 13 14  2  0
 14 15  1  0
 15 16  2  0
 16 17  1  0
 17 18  2  0
  2 19  1  0
 19 20  2  0
 20 21  1  0
 21 22  2  0
 22 23  1  0
 23 24  2  0
 24 25  1  0
 25 26  1  0
 25 27  1  0
 25 28  1  0
 24 29  1  0
 29 30  2  0
 30 31  1  0
 31 32  2  0
 12  7  1  0
 18 13  1  0
 32 19  1  0
 31 22  1  0
  3 33  1  0
  4 34  1  0
  4 35  1  0
  8 36  1  0
  8 37  1  0
  9 38  1  0
  9 39  1  0
 10 40  1  0
 10 41  1  0
 11 42  1  0
 11 43  1  0
 12 44  1  1
 14 45  1  0
 15 46  1  0
 16 47  1  0
 17 48  1  0
 20 49  1  0
 21 50  1  0
 23 51  1  0
 29 52  1  0
 30 53  1  0
M  END
>  <smiles>  (8) 
O=C(NCC(=O)N1CCCCC1c1ccccn1)c1ccc2cc(C(F)(F)F)ccc2n1

>  <score_type>  (8) 
oracle

>  <origin>  (8) 
autodockgpu

>  <m_score__min__energy>  (8) 
-8.6699999999999999

>  <m_primary>  (8) 
energy

>  <rmsd>  (8) 
4.188158395663308

>  <m_score__min__rmsd>  (8) 
4.188158395663308

>  <meeko>  (8) 
{"free_energy": -8.25, "intermolecular_energy": -10.04, "internal_energy": -1.74, "cluster_size": 42, "cluster_id": 1, "rank_in_cluster": 23}

>  <energy>  (8) 
-8.54

>  <cluster_rmsd>  (8) 
0.81

>  <cluster>  (8) 
1

$$$$

     RDKit          3D

 53 56  0  0  0  0  0  0  0  0999 V2000
  139.5380   72.7810  220.3640 O   0  0  0  0  0  0  0  0  0  0  0  0
  139.5560   73.1360  221.5870 C   0  0  0  0  0  0  0  0  0  0  0  0
  139.6040   74.5030  221.9800 N   0  0  0  0  0  0  0  0  0  0  0  0
  139.6370   75.5790  221.0120 C   0  0  0  0  0  0  0  0  0  0  0  0
  140.6200   76.6040  221.4770 C   0  0  0  0  0  0  0  0  0  0  0  0
  140.8130   76.6560  222.7230 O   0  0  0  0  0  0  0  0  0  0  0  0
  141.2910   77.4620  220.5540 N   0  0  0  0  0  0  0  0  0  0  0  0
  142.3760   76.9170  219.7820 C   0  0  0  0  0  0  0  0  0  0  0  0
  142.6000   77.5920  218.4700 C   0  0  0  0  0  0  0  0  0  0  0  0
  142.4130   79.0840  218.5190 C   0  0  0  0  0  0  0  0  0  0  0  0
  141.1490   79.5070  219.1840 C   0  0  0  0  0  0  0  0  0  0  0  0
  140.8250   78.8240  220.4670 C   0  0  2  0  0  0  0  0  0  0  0  0
  141.2540   79.5540  221.6680 C   0  0  0  0  0  0  0  0  0  0  0  0
  142.5790   79.8230  221.9790 C   0  0  0  0  0  0  0  0  0  0  0  0
  142.9530   80.5120  223.1140 C   0  0  0  0  0  0  0  0  0  0  0  0
  141.9900   80.9610  223.9940 C   0  0  0  0  0  0  0  0  0  0  0  0
  140.6740   80.6890  223.6760 C   0  0  0  0  0  0  0  0  0  0  0  0
  140.3460   80.0230  222.5730 N   0  0  0  0  0  0  0  0  0  0  0  0
  139.5240   72.1000  222.6230 C   0  0  0  0  0  0  0  0  0  0  0  0
  138.7880   70.9480  222.4380 C   0  0  0  0  0  0  0  0  0  0  0  0
  138.7920   70.0060  223.4430 C   0  0  0  0  0  0  0  0  0  0  0  0
  139.4980   70.1660  224.6160 C   0  0  0  0  0  0  0  0  0  0  0  0
  139.5130   69.2320  225.6290 C   0  0  0  0  0  0  0  0  0  0  0  0
  140.2380   69.4520  226.7790 C   0  0  0  0  0  0  0  0  0  0  0  0
  140.2460   68.4290  227.8750 C   0  0  0  0  0  0  0  0  0  0  0  0
  139.3040   67.4610  227.5440 F   0  0  0  0  0  0  0  0  0  0  0  0
  139.9810   68.9910  229.0870 F   0  0  0  0  0  0  0  0  0  0  0  0
  141.4710   67.7950  227.8370 F   0  0  0  0  0  0  0  0  0  0  0  0
  140.9440   70.6270  226.8820 C   0  0  0  0  0  0  0  0  0  0  0  0
  140.9650   71.5950  225.9000 C   0  0  0  0  0  0  0  0  0  0  0  0
  140.2250   71.3410  224.7570 C   0  0  0  0  0  0  0  0  0  0  0  0
  140.2020   72.2430  223.7610 N   0  0  0  0  0  0  0  0  0  0  0  0
  139.6160   74.7030  223.0230 H   0  0  0  0  0  0  0  0  0  0  0  0
  139.9453   75.1870  220.0315 H   0  0  0  0  0  0  0  0  0  0  0  0
  138.6385   76.0304  220.9154 H   0  0  0  0  0  0  0  0  0  0  0  0
  143.2981   77.0042  220.3754 H   0  0  0  0  0  0  0  0  0  0  0  0
  142.1077   75.8743  219.5565 H   0  0  0  0  0  0  0  0  0  0  0  0
  143.6286   77.3813  218.1420 H   0  0  0  0  0  0  0  0  0  0  0  0
  141.8480   77.1960  217.7717 H   0  0  0  0  0  0  0  0  0  0  0  0
  143.2586   79.5222  219.0694 H   0  0  0  0  0  0  0  0  0  0  0  0
  142.3624   79.4362  217.4781 H   0  0  0  0  0  0  0  0  0  0  0  0
  141.2199   80.5860  219.3859 H   0  0  0  0  0  0  0  0  0  0  0  0
  140.3421   79.2306  218.4894 H   0  0  0  0  0  0  0  0  0  0  0  0
  139.7253   78.8095  220.4458 H   0  0  0  0  0  0  0  0  0  0  0  0
  143.3636   79.4724  221.2923 H   0  0  0  0  0  0  0  0  0  0  0  0
  144.0171   80.7031  223.3171 H   0  0  0  0  0  0  0  0  0  0  0  0
  142.2584   81.5110  224.9080 H   0  0  0  0  0  0  0  0  0  0  0  0
  139.8771   81.0320  224.3522 H   0  0  0  0  0  0  0  0  0  0  0  0
  138.2139   70.7862  221.5137 H   0  0  0  0  0  0  0  0  0  0  0  0
  138.2060   69.0856  223.3033 H   0  0  0  0  0  0  0  0  0  0  0  0
  138.9393   68.3000  225.5178 H   0  0  0  0  0  0  0  0  0  0  0  0
  141.5247   70.8051  227.7991 H   0  0  0  0  0  0  0  0  0  0  0  0
  141.5417   72.5242  226.0187 H   0  0  0  0  0  0  0  0  0  0  0  0
  1  2  2  0
  2  3  1  0
  3  4  1  0
  4  5  1  0
  5  6  2  0
  5  7  1  0
  7  8  1  0
  8  9  1  0
  9 10  1  0
 10 11  1  0
 11 12  1  0
 12 13  1  0
 13 14  2  0
 14 15  1  0
 15 16  2  0
 16 17  1  0
 17 18  2  0
  2 19  1  0
 19 20  2  0
 20 21  1  0
 21 22  2  0
 22 23  1  0
 23 24  2  0
 24 25  1  0
 25 26  1  0
 25 27  1  0
 25 28  1  0
 24 29  1  0
 29 30  2  0
 30 31  1  0
 31 32  2  0
 12  7  1  0
 18 13  1  0
 32 19  1  0
 31 22  1  0
  3 33  1  0
  4 34  1  0
  4 35  1  0
  8 36  1  0
  8 37  1  0
  9 38  1  0
  9 39  1  0
 10 40  1  0
 10 41  1  0
 11 42  1  0
 11 43  1  0
 12 44  1  1
 14 45  1  0
 15 46  1  0
 16 47  1  0
 17 48  1  0
 20 49  1  0
 21 50  1  0
 23 51  1  0
 29 52  1  0
 30 53  1  0
M  END
>  <smiles>  (9) 
O=C(NCC(=O)N1CCCCC1c1ccccn1)c1ccc2cc(C(F)(F)F)ccc2n1

>  <score_type>  (9) 
oracle

>  <origin>  (9) 
autodockgpu

>  <m_score__min__energy>  (9) 
-8.6699999999999999

>  <m_primary>  (9) 
energy

>  <rmsd>  (9) 
2.6562690695128963

>  <m_score__min__rmsd>  (9) 
2.6562690695128963

>  <meeko>  (9) 
{"free_energy": -8.34, "intermolecular_energy": -10.13, "internal_energy": -2.12, "cluster_size": 42, "cluster_id": 1, "rank_in_cluster": 17}

>  <energy>  (9) 
-8.52

>  <cluster_rmsd>  (9) 
0.25

>  <cluster>  (9) 
1

$$$$

     RDKit          3D

 53 56  0  0  0  0  0  0  0  0999 V2000
  139.5780   73.2220  220.2720 O   0  0  0  0  0  0  0  0  0  0  0  0
  139.5340   73.4270  221.5290 C   0  0  0  0  0  0  0  0  0  0  0  0
  139.5270   74.7360  222.0840 N   0  0  0  0  0  0  0  0  0  0  0  0
  139.5710   75.9230  221.2550 C   0  0  0  0  0  0  0  0  0  0  0  0
  141.0010   76.2850  221.0210 C   0  0  0  0  0  0  0  0  0  0  0  0
  141.8540   75.5710  221.6180 O   0  0  0  0  0  0  0  0  0  0  0  0
  141.3620   77.3720  220.1690 N   0  0  0  0  0  0  0  0  0  0  0  0
  142.3980   77.1590  219.1940 C   0  0  0  0  0  0  0  0  0  0  0  0
  142.3000   78.0310  217.9870 C   0  0  0  0  0  0  0  0  0  0  0  0
  141.8590   79.4370  218.2920 C   0  0  0  0  0  0  0  0  0  0  0  0
  140.6550   79.5100  219.1650 C   0  0  0  0  0  0  0  0  0  0  0  0
  140.6530   78.6140  220.3540 C   0  0  2  0  0  0  0  0  0  0  0  0
  141.1210   79.2510  221.5940 C   0  0  0  0  0  0  0  0  0  0  0  0
  140.3000   79.9630  222.4560 C   0  0  0  0  0  0  0  0  0  0  0  0
  140.7660   80.5490  223.6140 C   0  0  0  0  0  0  0  0  0  0  0  0
  142.0990   80.4390  223.9520 C   0  0  0  0  0  0  0  0  0  0  0  0
  142.9090   79.7280  223.0880 C   0  0  0  0  0  0  0  0  0  0  0  0
  142.4280   79.1730  221.9790 N   0  0  0  0  0  0  0  0  0  0  0  0
  139.4880   72.2720  222.4300 C   0  0  0  0  0  0  0  0  0  0  0  0
  138.7230   71.1690  222.1150 C   0  0  0  0  0  0  0  0  0  0  0  0
  138.7140   70.1100  222.9960 C   0  0  0  0  0  0  0  0  0  0  0  0
  139.4360   70.1090  224.1710 C   0  0  0  0  0  0  0  0  0  0  0  0
  139.4380   69.0580  225.0620 C   0  0  0  0  0  0  0  0  0  0  0  0
  140.1810   69.1190  226.2210 C   0  0  0  0  0  0  0  0  0  0  0  0
  140.1750   67.9690  227.1830 C   0  0  0  0  0  0  0  0  0  0  0  0
  141.4670   67.4520  227.2160 F   0  0  0  0  0  0  0  0  0  0  0  0
  139.2660   67.0210  226.8250 F   0  0  0  0  0  0  0  0  0  0  0  0
  139.9420   68.4860  228.4410 F   0  0  0  0  0  0  0  0  0  0  0  0
  140.9160   70.2560  226.4580 C   0  0  0  0  0  0  0  0  0  0  0  0
  140.9500   71.3360  225.6020 C   0  0  0  0  0  0  0  0  0  0  0  0
  140.1920   71.2410  224.4460 C   0  0  0  0  0  0  0  0  0  0  0  0
  140.1810   72.2590  223.5670 N   0  0  0  0  0  0  0  0  0  0  0  0
  139.4890   74.8090  223.1430 H   0  0  0  0  0  0  0  0  0  0  0  0
  139.0769   75.7222  220.2930 H   0  0  0  0  0  0  0  0  0  0  0  0
  139.0495   76.7520  221.7558 H   0  0  0  0  0  0  0  0  0  0  0  0
  143.3682   77.3480  219.6766 H   0  0  0  0  0  0  0  0  0  0  0  0
  142.2878   76.1229  218.8414 H   0  0  0  0  0  0  0  0  0  0  0  0
  143.2892   78.0734  217.5077 H   0  0  0  0  0  0  0  0  0  0  0  0
  141.5353   77.5888  217.3316 H   0  0  0  0  0  0  0  0  0  0  0  0
  142.6858   79.9587  218.7962 H   0  0  0  0  0  0  0  0  0  0  0  0
  141.5902   79.9049  217.3335 H   0  0  0  0  0  0  0  0  0  0  0  0
  140.5627   80.5455  219.5243 H   0  0  0  0  0  0  0  0  0  0  0  0
  139.8154   79.1728  218.5394 H   0  0  0  0  0  0  0  0  0  0  0  0
  139.5828   78.3848  220.4644 H   0  0  0  0  0  0  0  0  0  0  0  0
  139.2337   80.0643  222.2056 H   0  0  0  0  0  0  0  0  0  0  0  0
  140.0760   81.1033  224.2672 H   0  0  0  0  0  0  0  0  0  0  0  0
  142.4990   80.8970  224.8686 H   0  0  0  0  0  0  0  0  0  0  0  0
  143.9780   79.6181  223.3229 H   0  0  0  0  0  0  0  0  0  0  0  0
  138.1358   71.1355  221.1854 H   0  0  0  0  0  0  0  0  0  0  0  0
  138.1048   69.2273  222.7518 H   0  0  0  0  0  0  0  0  0  0  0  0
  138.8400   68.1604  224.8458 H   0  0  0  0  0  0  0  0  0  0  0  0
  141.5102   70.3070  227.3823 H   0  0  0  0  0  0  0  0  0  0  0  0
  141.5501   72.2303  225.8259 H   0  0  0  0  0  0  0  0  0  0  0  0
  1  2  2  0
  2  3  1  0
  3  4  1  0
  4  5  1  0
  5  6  2  0
  5  7  1  0
  7  8  1  0
  8  9  1  0
  9 10  1  0
 10 11  1  0
 11 12  1  0
 12 13  1  0
 13 14  2  0
 14 15  1  0
 15 16  2  0
 16 17  1  0
 17 18  2  0
  2 19  1  0
 19 20  2  0
 20 21  1  0
 21 22  2  0
 22 23  1  0
 23 24  2  0
 24 25  1  0
 25 26  1  0
 25 27  1  0
 25 28  1  0
 24 29  1  0
 29 30  2  0
 30 31  1  0
 31 32  2  0
 12  7  1  0
 18 13  1  0
 32 19  1  0
 31 22  1  0
  3 33  1  0
  4 34  1  0
  4 35  1  0
  8 36  1  0
  8 37  1  0
  9 38  1  0
  9 39  1  0
 10 40  1  0
 10 41  1  0
 11 42  1  0
 11 43  1  0
 12 44  1  1
 14 45  1  0
 15 46  1  0
 16 47  1  0
 17 48  1  0
 20 49  1  0
 21 50  1  0
 23 51  1  0
 29 52  1  0
 30 53  1  0
M  END
>  <smiles>  (10) 
O=C(NCC(=O)N1CCCCC1c1ccccn1)c1ccc2cc(C(F)(F)F)ccc2n1

>  <score_type>  (10) 
oracle

>  <origin>  (10) 
autodockgpu

>  <m_score__min__energy>  (10) 
-8.6699999999999999

>  <m_primary>  (10) 
energy

>  <rmsd>  (10) 
2.7436879045442586

>  <m_score__min__rmsd>  (10) 
2.7436879045442586

>  <meeko>  (10) 
{"free_energy": -7.82, "intermolecular_energy": -9.61, "internal_energy": -1.78, "cluster_size": 42, "cluster_id": 1, "rank_in_cluster": 34}

>  <energy>  (10) 
-8.47

>  <cluster_rmsd>  (10) 
1.19

>  <cluster>  (10) 
1

$$$$

     RDKit          3D

 53 56  0  0  0  0  0  0  0  0999 V2000
  139.1900   72.5280  220.4950 O   0  0  0  0  0  0  0  0  0  0  0  0
  139.7780   72.8640  221.5740 C   0  0  0  0  0  0  0  0  0  0  0  0
  140.3660   74.1470  221.7500 N   0  0  0  0  0  0  0  0  0  0  0  0
  140.3350   75.1550  220.7110 C   0  0  0  0  0  0  0  0  0  0  0  0
  140.9690   76.4010  221.2400 C   0  0  0  0  0  0  0  0  0  0  0  0
  141.0150   76.5030  222.4970 O   0  0  0  0  0  0  0  0  0  0  0  0
  141.4850   77.4020  220.3630 N   0  0  0  0  0  0  0  0  0  0  0  0
  142.5800   77.0500  219.4970 C   0  0  0  0  0  0  0  0  0  0  0  0
  142.6530   77.8470  218.2380 C   0  0  0  0  0  0  0  0  0  0  0  0
  142.3010   79.2980  218.4210 C   0  0  0  0  0  0  0  0  0  0  0  0
  141.0370   79.5170  219.1770 C   0  0  0  0  0  0  0  0  0  0  0  0
  140.8640   78.7020  220.4110 C   0  0  2  0  0  0  0  0  0  0  0  0
  141.2740   79.3810  221.6490 C   0  0  0  0  0  0  0  0  0  0  0  0
  140.3850   79.9160  222.5700 C   0  0  0  0  0  0  0  0  0  0  0  0
  140.7990   80.5470  223.7240 C   0  0  0  0  0  0  0  0  0  0  0  0
  142.1460   80.6660  223.9980 C   0  0  0  0  0  0  0  0  0  0  0  0
  143.0240   80.1300  223.0760 C   0  0  0  0  0  0  0  0  0  0  0  0
  142.5920   79.5260  221.9720 N   0  0  0  0  0  0  0  0  0  0  0  0
  139.8480   71.8940  222.6710 C   0  0  0  0  0  0  0  0  0  0  0  0
  139.3150   70.6310  222.5230 C   0  0  0  0  0  0  0  0  0  0  0  0
  139.4070   69.7570  223.5840 C   0  0  0  0  0  0  0  0  0  0  0  0
  140.0070   70.0930  224.7790 C   0  0  0  0  0  0  0  0  0  0  0  0
  140.1070   69.2300  225.8490 C   0  0  0  0  0  0  0  0  0  0  0  0
  140.7180   69.6260  227.0180 C   0  0  0  0  0  0  0  0  0  0  0  0
  140.8210   68.6790  228.1760 C   0  0  0  0  0  0  0  0  0  0  0  0
  139.5620   68.6070  228.7630 F   0  0  0  0  0  0  0  0  0  0  0  0
  141.7680   69.0820  229.0680 F   0  0  0  0  0  0  0  0  0  0  0  0
  141.0720   67.4250  227.6590 F   0  0  0  0  0  0  0  0  0  0  0  0
  141.2230   70.9030  227.0820 C   0  0  0  0  0  0  0  0  0  0  0  0
  141.1500   71.8070  226.0430 C   0  0  0  0  0  0  0  0  0  0  0  0
  140.5290   71.3750  224.8820 C   0  0  0  0  0  0  0  0  0  0  0  0
  140.4250   72.2060  223.8300 N   0  0  0  0  0  0  0  0  0  0  0  0
  140.8340   74.3380  222.6840 H   0  0  0  0  0  0  0  0  0  0  0  0
  140.8927   74.7992  219.8321 H   0  0  0  0  0  0  0  0  0  0  0  0
  139.2956   75.3580  220.4136 H   0  0  0  0  0  0  0  0  0  0  0  0
  143.5182   77.1974  220.0520 H   0  0  0  0  0  0  0  0  0  0  0  0
  142.4181   76.0043  219.1967 H   0  0  0  0  0  0  0  0  0  0  0  0
  143.6791   77.7850  217.8465 H   0  0  0  0  0  0  0  0  0  0  0  0
  141.9133   77.4213  217.5441 H   0  0  0  0  0  0  0  0  0  0  0  0
  143.1210   79.7881  218.9663 H   0  0  0  0  0  0  0  0  0  0  0  0
  142.1522   79.7216  217.4168 H   0  0  0  0  0  0  0  0  0  0  0  0
  140.9974   80.5776  219.4661 H   0  0  0  0  0  0  0  0  0  0  0  0
  140.2288   79.2041  218.4996 H   0  0  0  0  0  0  0  0  0  0  0  0
  139.7735   78.5603  220.4375 H   0  0  0  0  0  0  0  0  0  0  0  0
  139.3062   79.8335  222.3716 H   0  0  0  0  0  0  0  0  0  0  0  0
  140.0563   80.9550  224.4253 H   0  0  0  0  0  0  0  0  0  0  0  0
  142.5048   81.1655  224.9100 H   0  0  0  0  0  0  0  0  0  0  0  0
  144.1061   80.2043  223.2589 H   0  0  0  0  0  0  0  0  0  0  0  0
  138.8295   70.3294  221.5832 H   0  0  0  0  0  0  0  0  0  0  0  0
  138.9836   68.7478  223.4730 H   0  0  0  0  0  0  0  0  0  0  0  0
  139.6942   68.2136  225.7684 H   0  0  0  0  0  0  0  0  0  0  0  0
  141.7127   71.2216  228.0140 H   0  0  0  0  0  0  0  0  0  0  0  0
  141.5647   72.8220  226.1317 H   0  0  0  0  0  0  0  0  0  0  0  0
  1  2  2  0
  2  3  1  0
  3  4  1  0
  4  5  1  0
  5  6  2  0
  5  7  1  0
  7  8  1  0
  8  9  1  0
  9 10  1  0
 10 11  1  0
 11 12  1  0
 12 13  1  0
 13 14  2  0
 14 15  1  0
 15 16  2  0
 16 17  1  0
 17 18  2  0
  2 19  1  0
 19 20  2  0
 20 21  1  0
 21 22  2  0
 22 23  1  0
 23 24  2  0
 24 25  1  0
 25 26  1  0
 25 27  1  0
 25 28  1  0
 24 29  1  0
 29 30  2  0
 30 31  1  0
 31 32  2  0
 12  7  1  0
 18 13  1  0
 32 19  1  0
 31 22  1  0
  3 33  1  0
  4 34  1  0
  4 35  1  0
  8 36  1  0
  8 37  1  0
  9 38  1  0
  9 39  1  0
 10 40  1  0
 10 41  1  0
 11 42  1  0
 11 43  1  0
 12 44  1  1
 14 45  1  0
 15 46  1  0
 16 47  1  0
 17 48  1  0
 20 49  1  0
 21 50  1  0
 23 51  1  0
 29 52  1  0
 30 53  1  0
M  END
>  <smiles>  (11) 
O=C(NCC(=O)N1CCCCC1c1ccccn1)c1ccc2cc(C(F)(F)F)ccc2n1

>  <score_type>  (11) 
oracle

>  <origin>  (11) 
autodockgpu

>  <m_score__min__energy>  (11) 
-8.6699999999999999

>  <m_primary>  (11) 
energy

>  <rmsd>  (11) 
2.697342797729392

>  <m_score__min__rmsd>  (11) 
2.697342797729392

>  <meeko>  (11) 
{"free_energy": -7.76, "intermolecular_energy": -9.55, "internal_energy": -2.4, "cluster_size": 42, "cluster_id": 1, "rank_in_cluster": 36}

>  <energy>  (11) 
-8.47

>  <cluster_rmsd>  (11) 
0.81

>  <cluster>  (11) 
1

$$$$

     RDKit          3D

 53 56  0  0  0  0  0  0  0  0999 V2000
  134.6940   68.1180  224.6630 O   0  0  0  0  0  0  0  0  0  0  0  0
  135.0770   69.2510  224.2220 C   0  0  0  0  0  0  0  0  0  0  0  0
  135.9790   69.3750  223.1290 N   0  0  0  0  0  0  0  0  0  0  0  0
  136.5220   68.2190  222.4470 C   0  0  0  0  0  0  0  0  0  0  0  0
  137.9900   68.1540  222.7220 C   0  0  0  0  0  0  0  0  0  0  0  0
  138.4780   66.9950  222.8270 O   0  0  0  0  0  0  0  0  0  0  0  0
  138.7740   69.3390  222.8520 N   0  0  0  0  0  0  0  0  0  0  0  0
  139.6240   69.7170  221.7540 C   0  0  0  0  0  0  0  0  0  0  0  0
  139.9010   71.1810  221.6630 C   0  0  0  0  0  0  0  0  0  0  0  0
  140.0930   71.8430  223.0000 C   0  0  0  0  0  0  0  0  0  0  0  0
  139.0320   71.5110  223.9900 C   0  0  0  0  0  0  0  0  0  0  0  0
  138.6540   70.0740  224.0860 C   0  0  2  0  0  0  0  0  0  0  0  0
  139.3460   69.3340  225.1520 C   0  0  0  0  0  0  0  0  0  0  0  0
  140.4530   69.8160  225.8350 C   0  0  0  0  0  0  0  0  0  0  0  0
  141.0820   69.1000  226.8320 C   0  0  0  0  0  0  0  0  0  0  0  0
  140.6140   67.8510  227.1820 C   0  0  0  0  0  0  0  0  0  0  0  0
  139.5110   67.3790  226.4960 C   0  0  0  0  0  0  0  0  0  0  0  0
  138.9260   68.0950  225.5400 N   0  0  0  0  0  0  0  0  0  0  0  0
  134.5670   70.4660  224.8650 C   0  0  0  0  0  0  0  0  0  0  0  0
  133.6210   70.3850  225.8650 C   0  0  0  0  0  0  0  0  0  0  0  0
  133.1750   71.5560  226.4360 C   0  0  0  0  0  0  0  0  0  0  0  0
  133.6350   72.7980  226.0510 C   0  0  0  0  0  0  0  0  0  0  0  0
  133.1990   73.9780  226.6130 C   0  0  0  0  0  0  0  0  0  0  0  0
  133.6970   75.1880  226.1820 C   0  0  0  0  0  0  0  0  0  0  0  0
  133.2160   76.4670  226.8010 C   0  0  0  0  0  0  0  0  0  0  0  0
  134.2050   76.8990  227.6790 F   0  0  0  0  0  0  0  0  0  0  0  0
  132.0230   76.2980  227.4350 F   0  0  0  0  0  0  0  0  0  0  0  0
  133.1590   77.4130  225.7980 F   0  0  0  0  0  0  0  0  0  0  0  0
  134.6380   75.1800  225.1810 C   0  0  0  0  0  0  0  0  0  0  0  0
  135.1090   74.0300  224.5840 C   0  0  0  0  0  0  0  0  0  0  0  0
  134.5870   72.8300  225.0410 C   0  0  0  0  0  0  0  0  0  0  0  0
  135.0030   71.6710  224.5020 N   0  0  0  0  0  0  0  0  0  0  0  0
  136.2410   70.3600  222.8310 H   0  0  0  0  0  0  0  0  0  0  0  0
  136.0339   67.3057  222.8181 H   0  0  0  0  0  0  0  0  0  0  0  0
  136.3440   68.3011  221.3646 H   0  0  0  0  0  0  0  0  0  0  0  0
  140.5840   69.1917  221.8656 H   0  0  0  0  0  0  0  0  0  0  0  0
  139.0883   69.4415  220.8336 H   0  0  0  0  0  0  0  0  0  0  0  0
  140.8156   71.3254  221.0692 H   0  0  0  0  0  0  0  0  0  0  0  0
  139.0206   71.6470  221.1964 H   0  0  0  0  0  0  0  0  0  0  0  0
  141.0625   71.5234  223.4097 H   0  0  0  0  0  0  0  0  0  0  0  0
  140.0463   72.9289  222.8307 H   0  0  0  0  0  0  0  0  0  0  0  0
  139.3841   71.8331  224.9811 H   0  0  0  0  0  0  0  0  0  0  0  0
  138.1282   72.0322  223.6414 H   0  0  0  0  0  0  0  0  0  0  0  0
  137.5868   70.1375  224.3447 H   0  0  0  0  0  0  0  0  0  0  0  0
  140.8450   70.8093  225.5708 H   0  0  0  0  0  0  0  0  0  0  0  0
  141.9560   69.5248  227.3474 H   0  0  0  0  0  0  0  0  0  0  0  0
  141.0970   67.2570  227.9719 H   0  0  0  0  0  0  0  0  0  0  0  0
  139.1071   66.3870  226.7468 H   0  0  0  0  0  0  0  0  0  0  0  0
  133.2330   69.4110  226.1977 H   0  0  0  0  0  0  0  0  0  0  0  0
  132.4195   71.4984  227.2334 H   0  0  0  0  0  0  0  0  0  0  0  0
  132.4455   73.9537  227.4141 H   0  0  0  0  0  0  0  0  0  0  0  0
  135.0380   76.1451  224.8366 H   0  0  0  0  0  0  0  0  0  0  0  0
  135.8627   74.0632  223.7835 H   0  0  0  0  0  0  0  0  0  0  0  0
  1  2  2  0
  2  3  1  0
  3  4  1  0
  4  5  1  0
  5  6  2  0
  5  7  1  0
  7  8  1  0
  8  9  1  0
  9 10  1  0
 10 11  1  0
 11 12  1  0
 12 13  1  0
 13 14  2  0
 14 15  1  0
 15 16  2  0
 16 17  1  0
 17 18  2  0
  2 19  1  0
 19 20  2  0
 20 21  1  0
 21 22  2  0
 22 23  1  0
 23 24  2  0
 24 25  1  0
 25 26  1  0
 25 27  1  0
 25 28  1  0
 24 29  1  0
 29 30  2  0
 30 31  1  0
 31 32  2  0
 12  7  1  0
 18 13  1  0
 32 19  1  0
 31 22  1  0
  3 33  1  0
  4 34  1  0
  4 35  1  0
  8 36  1  0
  8 37  1  0
  9 38  1  0
  9 39  1  0
 10 40  1  0
 10 41  1  0
 11 42  1  0
 11 43  1  0
 12 44  1  1
 14 45  1  0
 15 46  1  0
 16 47  1  0
 17 48  1  0
 20 49  1  0
 21 50  1  0
 23 51  1  0
 29 52  1  0
 30 53  1  0
M  END
>  <smiles>  (12) 
O=C(NCC(=O)N1CCCCC1c1ccccn1)c1ccc2cc(C(F)(F)F)ccc2n1

>  <score_type>  (12) 
oracle

>  <origin>  (12) 
autodockgpu

>  <m_score__min__energy>  (12) 
-8.6699999999999999

>  <m_primary>  (12) 
energy

>  <rmsd>  (12) 
8.53339977512211

>  <m_score__min__rmsd>  (12) 
8.53339977512211

>  <meeko>  (12) 
{"free_energy": -7.07, "intermolecular_energy": -8.86, "internal_energy": -2.31, "cluster_size": 1, "cluster_id": 7, "rank_in_cluster": 1}

>  <energy>  (12) 
-8.45

>  <cluster_rmsd>  (12) 
0.3

>  <cluster>  (12) 
1

$$$$

     RDKit          3D

 53 56  0  0  0  0  0  0  0  0999 V2000
  139.8940   73.0400  220.2520 O   0  0  0  0  0  0  0  0  0  0  0  0
  139.7800   73.2730  221.4990 C   0  0  0  0  0  0  0  0  0  0  0  0
  139.6340   74.5900  222.0160 N   0  0  0  0  0  0  0  0  0  0  0  0
  139.6060   75.7540  221.1550 C   0  0  0  0  0  0  0  0  0  0  0  0
  140.7280   76.6600  221.5470 C   0  0  0  0  0  0  0  0  0  0  0  0
  141.0580   76.6320  222.7650 O   0  0  0  0  0  0  0  0  0  0  0  0
  141.3760   77.4970  220.5900 N   0  0  0  0  0  0  0  0  0  0  0  0
  142.4490   76.9380  219.8110 C   0  0  0  0  0  0  0  0  0  0  0  0
  142.6440   77.5790  218.4780 C   0  0  0  0  0  0  0  0  0  0  0  0
  142.4480   79.0710  218.4910 C   0  0  0  0  0  0  0  0  0  0  0  0
  141.1950   79.5040  219.1690 C   0  0  0  0  0  0  0  0  0  0  0  0
  140.9000   78.8530  220.4750 C   0  0  2  0  0  0  0  0  0  0  0  0
  141.3480   79.6170  221.6490 C   0  0  0  0  0  0  0  0  0  0  0  0
  142.5700   79.4280  222.2750 C   0  0  0  0  0  0  0  0  0  0  0  0
  142.9650   80.1610  223.3750 C   0  0  0  0  0  0  0  0  0  0  0  0
  142.1280   81.1270  223.8950 C   0  0  0  0  0  0  0  0  0  0  0  0
  140.9120   81.3080  223.2640 C   0  0  0  0  0  0  0  0  0  0  0  0
  140.5620   80.5850  222.2040 N   0  0  0  0  0  0  0  0  0  0  0  0
  139.8000   72.1410  222.4320 C   0  0  0  0  0  0  0  0  0  0  0  0
  139.4050   70.8860  222.0170 C   0  0  0  0  0  0  0  0  0  0  0  0
  139.4420   69.8580  222.9320 C   0  0  0  0  0  0  0  0  0  0  0  0
  139.8560   70.0320  224.2360 C   0  0  0  0  0  0  0  0  0  0  0  0
  139.9000   69.0120  225.1630 C   0  0  0  0  0  0  0  0  0  0  0  0
  140.3230   69.2510  226.4520 C   0  0  0  0  0  0  0  0  0  0  0  0
  140.3660   68.1340  227.4520 C   0  0  0  0  0  0  0  0  0  0  0  0
  139.6940   67.0520  226.8920 F   0  0  0  0  0  0  0  0  0  0  0  0
  139.8140   68.5050  228.6400 F   0  0  0  0  0  0  0  0  0  0  0  0
  141.6830   67.7420  227.5730 F   0  0  0  0  0  0  0  0  0  0  0  0
  140.6990   70.5310  226.7810 C   0  0  0  0  0  0  0  0  0  0  0  0
  140.6750   71.5870  225.8950 C   0  0  0  0  0  0  0  0  0  0  0  0
  140.2450   71.3120  224.6070 C   0  0  0  0  0  0  0  0  0  0  0  0
  140.1980   72.2960  223.6930 N   0  0  0  0  0  0  0  0  0  0  0  0
  139.5460   74.6860  223.0700 H   0  0  0  0  0  0  0  0  0  0  0  0
  139.7286   75.4434  220.1069 H   0  0  0  0  0  0  0  0  0  0  0  0
  138.6443   76.2775  221.2597 H   0  0  0  0  0  0  0  0  0  0  0  0
  143.3819   77.0456  220.3839 H   0  0  0  0  0  0  0  0  0  0  0  0
  142.1819   75.8886  219.6178 H   0  0  0  0  0  0  0  0  0  0  0  0
  143.6677   77.3660  218.1364 H   0  0  0  0  0  0  0  0  0  0  0  0
  141.8817   77.1600  217.8047 H   0  0  0  0  0  0  0  0  0  0  0  0
  143.3013   79.5289  219.0128 H   0  0  0  0  0  0  0  0  0  0  0  0
  142.3746   79.3948  217.4423 H   0  0  0  0  0  0  0  0  0  0  0  0
  141.2633   80.5882  219.3415 H   0  0  0  0  0  0  0  0  0  0  0  0
  140.3765   79.2051  218.4976 H   0  0  0  0  0  0  0  0  0  0  0  0
  139.8002   78.8316  220.4739 H   0  0  0  0  0  0  0  0  0  0  0  0
  143.2529   78.6622  221.8785 H   0  0  0  0  0  0  0  0  0  0  0  0
  143.9459   79.9756  223.8370 H   0  0  0  0  0  0  0  0  0  0  0  0
  142.4156   81.7257  224.7718 H   0  0  0  0  0  0  0  0  0  0  0  0
  140.2164   82.0688  223.6479 H   0  0  0  0  0  0  0  0  0  0  0  0
  139.0699   70.7116  220.9839 H   0  0  0  0  0  0  0  0  0  0  0  0
  139.1278   68.8545  222.6091 H   0  0  0  0  0  0  0  0  0  0  0  0
  139.5941   67.9968  224.8700 H   0  0  0  0  0  0  0  0  0  0  0  0
  141.0383   70.7240  227.8094 H   0  0  0  0  0  0  0  0  0  0  0  0
  140.9825   72.5993  226.1962 H   0  0  0  0  0  0  0  0  0  0  0  0
  1  2  2  0
  2  3  1  0
  3  4  1  0
  4  5  1  0
  5  6  2  0
  5  7  1  0
  7  8  1  0
  8  9  1  0
  9 10  1  0
 10 11  1  0
 11 12  1  0
 12 13  1  0
 13 14  2  0
 14 15  1  0
 15 16  2  0
 16 17  1  0
 17 18  2  0
  2 19  1  0
 19 20  2  0
 20 21  1  0
 21 22  2  0
 22 23  1  0
 23 24  2  0
 24 25  1  0
 25 26  1  0
 25 27  1  0
 25 28  1  0
 24 29  1  0
 29 30  2  0
 30 31  1  0
 31 32  2  0
 12  7  1  0
 18 13  1  0
 32 19  1  0
 31 22  1  0
  3 33  1  0
  4 34  1  0
  4 35  1  0
  8 36  1  0
  8 37  1  0
  9 38  1  0
  9 39  1  0
 10 40  1  0
 10 41  1  0
 11 42  1  0
 11 43  1  0
 12 44  1  1
 14 45  1  0
 15 46  1  0
 16 47  1  0
 17 48  1  0
 20 49  1  0
 21 50  1  0
 23 51  1  0
 29 52  1  0
 30 53  1  0
M  END
>  <smiles>  (13) 
O=C(NCC(=O)N1CCCCC1c1ccccn1)c1ccc2cc(C(F)(F)F)ccc2n1

>  <score_type>  (13) 
oracle

>  <origin>  (13) 
autodockgpu

>  <m_score__min__energy>  (13) 
-8.6699999999999999

>  <m_primary>  (13) 
energy

>  <rmsd>  (13) 
2.8164193396501838

>  <m_score__min__rmsd>  (13) 
2.8164193396501838

>  <meeko>  (13) 
{"free_energy": -8.39, "intermolecular_energy": -10.18, "internal_energy": -2.01, "cluster_size": 42, "cluster_id": 1, "rank_in_cluster": 15}

>  <energy>  (13) 
-8.44

>  <cluster_rmsd>  (13) 
0.61

>  <cluster>  (13) 
1

$$$$

     RDKit          3D

 53 56  0  0  0  0  0  0  0  0999 V2000
  140.5440   72.5960  220.4030 O   0  0  0  0  0  0  0  0  0  0  0  0
  140.0890   72.9380  221.5430 C   0  0  0  0  0  0  0  0  0  0  0  0
  139.6710   74.2680  221.8250 N   0  0  0  0  0  0  0  0  0  0  0  0
  139.7370   75.3210  220.8340 C   0  0  0  0  0  0  0  0  0  0  0  0
  140.5780   76.4310  221.3760 C   0  0  0  0  0  0  0  0  0  0  0  0
  140.6070   76.5350  222.6340 O   0  0  0  0  0  0  0  0  0  0  0  0
  141.2980   77.3090  220.5110 N   0  0  0  0  0  0  0  0  0  0  0  0
  142.3360   76.7510  219.6860 C   0  0  0  0  0  0  0  0  0  0  0  0
  142.5960   77.5060  218.4250 C   0  0  0  0  0  0  0  0  0  0  0  0
  142.5100   78.9990  218.5860 C   0  0  0  0  0  0  0  0  0  0  0  0
  141.2840   79.4550  219.2980 C   0  0  0  0  0  0  0  0  0  0  0  0
  140.9240   78.7010  220.5300 C   0  0  2  0  0  0  0  0  0  0  0  0
  141.4120   79.3090  221.7770 C   0  0  0  0  0  0  0  0  0  0  0  0
  142.5740   80.0610  221.8690 C   0  0  0  0  0  0  0  0  0  0  0  0
  143.0070   80.6210  223.0530 C   0  0  0  0  0  0  0  0  0  0  0  0
  142.2740   80.4400  224.2080 C   0  0  0  0  0  0  0  0  0  0  0  0
  141.1190   79.6890  224.1060 C   0  0  0  0  0  0  0  0  0  0  0  0
  140.7280   79.1640  222.9490 N   0  0  0  0  0  0  0  0  0  0  0  0
  139.9930   71.9240  222.5970 C   0  0  0  0  0  0  0  0  0  0  0  0
  139.4780   70.6750  222.3210 C   0  0  0  0  0  0  0  0  0  0  0  0
  139.4090   69.7590  223.3470 C   0  0  0  0  0  0  0  0  0  0  0  0
  139.8340   70.0380  224.6290 C   0  0  0  0  0  0  0  0  0  0  0  0
  139.7720   69.1310  225.6650 C   0  0  0  0  0  0  0  0  0  0  0  0
  140.2120   69.4730  226.9250 C   0  0  0  0  0  0  0  0  0  0  0  0
  140.1400   68.4780  228.0460 C   0  0  0  0  0  0  0  0  0  0  0  0
  139.3900   67.3980  227.5920 F   0  0  0  0  0  0  0  0  0  0  0  0
  139.5990   69.0270  229.1680 F   0  0  0  0  0  0  0  0  0  0  0  0
  141.4170   67.9950  228.2490 F   0  0  0  0  0  0  0  0  0  0  0  0
  140.7110   70.7390  227.1140 C   0  0  0  0  0  0  0  0  0  0  0  0
  140.7960   71.6840  226.1140 C   0  0  0  0  0  0  0  0  0  0  0  0
  140.3450   71.3080  224.8590 C   0  0  0  0  0  0  0  0  0  0  0  0
  140.3990   72.1820  223.8390 N   0  0  0  0  0  0  0  0  0  0  0  0
  139.3050   74.4600  222.8040 H   0  0  0  0  0  0  0  0  0  0  0  0
  140.1874   74.9320  219.9089 H   0  0  0  0  0  0  0  0  0  0  0  0
  138.7256   75.6902  220.6088 H   0  0  0  0  0  0  0  0  0  0  0  0
  143.2667   76.7296  220.2720 H   0  0  0  0  0  0  0  0  0  0  0  0
  141.9938   75.7494  219.3866 H   0  0  0  0  0  0  0  0  0  0  0  0
  143.6059   77.2525  218.0703 H   0  0  0  0  0  0  0  0  0  0  0  0
  141.8141   77.2142  217.7084 H   0  0  0  0  0  0  0  0  0  0  0  0
  143.3883   79.3381  219.1549 H   0  0  0  0  0  0  0  0  0  0  0  0
  142.4731   79.4297  217.5745 H   0  0  0  0  0  0  0  0  0  0  0  0
  141.4308   80.5082  219.5793 H   0  0  0  0  0  0  0  0  0  0  0  0
  140.4544   79.2870  218.5955 H   0  0  0  0  0  0  0  0  0  0  0  0
  139.8257   78.7613  220.5206 H   0  0  0  0  0  0  0  0  0  0  0  0
  143.1747   80.2171  220.9608 H   0  0  0  0  0  0  0  0  0  0  0  0
  143.9351   81.2109  223.0764 H   0  0  0  0  0  0  0  0  0  0  0  0
  142.5948   80.8740  225.1665 H   0  0  0  0  0  0  0  0  0  0  0  0
  140.5075   79.5212  225.0048 H   0  0  0  0  0  0  0  0  0  0  0  0
  139.1318   70.4174  221.3092 H   0  0  0  0  0  0  0  0  0  0  0  0
  138.9970   68.7614  223.1348 H   0  0  0  0  0  0  0  0  0  0  0  0
  139.3673   68.1243  225.4840 H   0  0  0  0  0  0  0  0  0  0  0  0
  141.0623   71.0139  228.1195 H   0  0  0  0  0  0  0  0  0  0  0  0
  141.2024   72.6885  226.3033 H   0  0  0  0  0  0  0  0  0  0  0  0
  1  2  2  0
  2  3  1  0
  3  4  1  0
  4  5  1  0
  5  6  2  0
  5  7  1  0
  7  8  1  0
  8  9  1  0
  9 10  1  0
 10 11  1  0
 11 12  1  0
 12 13  1  0
 13 14  2  0
 14 15  1  0
 15 16  2  0
 16 17  1  0
 17 18  2  0
  2 19  1  0
 19 20  2  0
 20 21  1  0
 21 22  2  0
 22 23  1  0
 23 24  2  0
 24 25  1  0
 25 26  1  0
 25 27  1  0
 25 28  1  0
 24 29  1  0
 29 30  2  0
 30 31  1  0
 31 32  2  0
 12  7  1  0
 18 13  1  0
 32 19  1  0
 31 22  1  0
  3 33  1  0
  4 34  1  0
  4 35  1  0
  8 36  1  0
  8 37  1  0
  9 38  1  0
  9 39  1  0
 10 40  1  0
 10 41  1  0
 11 42  1  0
 11 43  1  0
 12 44  1  1
 14 45  1  0
 15 46  1  0
 16 47  1  0
 17 48  1  0
 20 49  1  0
 21 50  1  0
 23 51  1  0
 29 52  1  0
 30 53  1  0
M  END
>  <smiles>  (14) 
O=C(NCC(=O)N1CCCCC1c1ccccn1)c1ccc2cc(C(F)(F)F)ccc2n1

>  <score_type>  (14) 
oracle

>  <origin>  (14) 
autodockgpu

>  <m_score__min__energy>  (14) 
-8.6699999999999999

>  <m_primary>  (14) 
energy

>  <rmsd>  (14) 
2.532741075077604

>  <m_score__min__rmsd>  (14) 
2.532741075077604

>  <meeko>  (14) 
{"free_energy": -8.35, "intermolecular_energy": -10.14, "internal_energy": -1.82, "cluster_size": 42, "cluster_id": 1, "rank_in_cluster": 16}

>  <energy>  (14) 
-8.44

>  <cluster_rmsd>  (14) 
0.6

>  <cluster>  (14) 
1

$$$$

     RDKit          3D

 53 56  0  0  0  0  0  0  0  0999 V2000
  139.3780   72.5490  220.5540 O   0  0  0  0  0  0  0  0  0  0  0  0
  139.4900   72.9400  221.7620 C   0  0  0  0  0  0  0  0  0  0  0  0
  139.4730   74.3170  222.1190 N   0  0  0  0  0  0  0  0  0  0  0  0
  139.3280   75.3650  221.1300 C   0  0  0  0  0  0  0  0  0  0  0  0
  138.8870   76.6130  221.8230 C   0  0  0  0  0  0  0  0  0  0  0  0
  138.6740   76.5070  223.0630 O   0  0  0  0  0  0  0  0  0  0  0  0
  138.7220   77.8390  221.1120 N   0  0  0  0  0  0  0  0  0  0  0  0
  138.5870   77.7840  219.6800 C   0  0  0  0  0  0  0  0  0  0  0  0
  137.8200   78.9190  219.0870 C   0  0  0  0  0  0  0  0  0  0  0  0
  138.0960   80.2430  219.7470 C   0  0  0  0  0  0  0  0  0  0  0  0
  138.0180   80.1990  221.2330 C   0  0  0  0  0  0  0  0  0  0  0  0
  138.7030   79.0530  221.8910 C   0  0  2  0  0  0  0  0  0  0  0  0
  140.0680   79.3450  222.3520 C   0  0  0  0  0  0  0  0  0  0  0  0
  140.5530   78.9980  223.6040 C   0  0  0  0  0  0  0  0  0  0  0  0
  141.8400   79.2850  224.0100 C   0  0  0  0  0  0  0  0  0  0  0  0
  142.7000   79.9440  223.1550 C   0  0  0  0  0  0  0  0  0  0  0  0
  142.2080   80.2850  221.9110 C   0  0  0  0  0  0  0  0  0  0  0  0
  140.9620   79.9930  221.5490 N   0  0  0  0  0  0  0  0  0  0  0  0
  139.6400   71.9340  222.8170 C   0  0  0  0  0  0  0  0  0  0  0  0
  139.2290   70.6340  222.6090 C   0  0  0  0  0  0  0  0  0  0  0  0
  139.3920   69.7280  223.6330 C   0  0  0  0  0  0  0  0  0  0  0  0
  139.9480   70.0660  224.8480 C   0  0  0  0  0  0  0  0  0  0  0  0
  140.1190   69.1700  225.8820 C   0  0  0  0  0  0  0  0  0  0  0  0
  140.6810   69.5710  227.0750 C   0  0  0  0  0  0  0  0  0  0  0  0
  140.8610   68.5880  228.1920 C   0  0  0  0  0  0  0  0  0  0  0  0
  139.6240   68.4300  228.8080 F   0  0  0  0  0  0  0  0  0  0  0  0
  141.8110   69.0040  229.0760 F   0  0  0  0  0  0  0  0  0  0  0  0
  141.1590   67.3670  227.6220 F   0  0  0  0  0  0  0  0  0  0  0  0
  141.0640   70.8850  227.1990 C   0  0  0  0  0  0  0  0  0  0  0  0
  140.9160   71.8220  226.1980 C   0  0  0  0  0  0  0  0  0  0  0  0
  140.3480   71.3850  225.0130 C   0  0  0  0  0  0  0  0  0  0  0  0
  140.1760   72.2480  223.9960 N   0  0  0  0  0  0  0  0  0  0  0  0
  139.5730   74.5480  223.1510 H   0  0  0  0  0  0  0  0  0  0  0  0
  140.2921   75.5392  220.6299 H   0  0  0  0  0  0  0  0  0  0  0  0
  138.5844   75.0703  220.3748 H   0  0  0  0  0  0  0  0  0  0  0  0
  139.5950   77.7831  219.2396 H   0  0  0  0  0  0  0  0  0  0  0  0
  138.0183   76.8699  219.4540 H   0  0  0  0  0  0  0  0  0  0  0  0
  138.0851   78.9992  218.0224 H   0  0  0  0  0  0  0  0  0  0  0  0
  136.7525   78.7001  219.2372 H   0  0  0  0  0  0  0  0  0  0  0  0
  139.1071   80.5690  219.4619 H   0  0  0  0  0  0  0  0  0  0  0  0
  137.3177   80.9410  219.4049 H   0  0  0  0  0  0  0  0  0  0  0  0
  138.4660   81.1259  221.6206 H   0  0  0  0  0  0  0  0  0  0  0  0
  136.9503   80.0803  221.4695 H   0  0  0  0  0  0  0  0  0  0  0  0
  138.0676   78.8854  222.7731 H   0  0  0  0  0  0  0  0  0  0  0  0
  139.8844   78.4726  224.3018 H   0  0  0  0  0  0  0  0  0  0  0  0
  142.1801   78.9891  225.0134 H   0  0  0  0  0  0  0  0  0  0  0  0
  143.7311   80.1866  223.4515 H   0  0  0  0  0  0  0  0  0  0  0  0
  142.8630   80.8115  221.2013 H   0  0  0  0  0  0  0  0  0  0  0  0
  138.7830   70.3291  221.6508 H   0  0  0  0  0  0  0  0  0  0  0  0
  139.0644   68.6899  223.4745 H   0  0  0  0  0  0  0  0  0  0  0  0
  139.8036   68.1241  225.7535 H   0  0  0  0  0  0  0  0  0  0  0  0
  141.5137   71.2074  228.1497 H   0  0  0  0  0  0  0  0  0  0  0  0
  141.2338   72.8662  226.3343 H   0  0  0  0  0  0  0  0  0  0  0  0
  1  2  2  0
  2  3  1  0
  3  4  1  0
  4  5  1  0
  5  6  2  0
  5  7  1  0
  7  8  1  0
  8  9  1  0
  9 10  1  0
 10 11  1  0
 11 12  1  0
 12 13  1  0
 13 14  2  0
 14 15  1  0
 15 16  2  0
 16 17  1  0
 17 18  2  0
  2 19  1  0
 19 20  2  0
 20 21  1  0
 21 22  2  0
 22 23  1  0
 23 24  2  0
 24 25  1  0
 25 26  1  0
 25 27  1  0
 25 28  1  0
 24 29  1  0
 29 30  2  0
 30 31  1  0
 31 32  2  0
 12  7  1  0
 18 13  1  0
 32 19  1  0
 31 22  1  0
  3 33  1  0
  4 34  1  0
  4 35  1  0
  8 36  1  0
  8 37  1  0
  9 38  1  0
  9 39  1  0
 10 40  1  0
 10 41  1  0
 11 42  1  0
 11 43  1  0
 12 44  1  1
 14 45  1  0
 15 46  1  0
 16 47  1  0
 17 48  1  0
 20 49  1  0
 21 50  1  0
 23 51  1  0
 29 52  1  0
 30 53  1  0
M  END
>  <smiles>  (15) 
O=C(NCC(=O)N1CCCCC1c1ccccn1)c1ccc2cc(C(F)(F)F)ccc2n1

>  <score_type>  (15) 
oracle

>  <origin>  (15) 
autodockgpu

>  <m_score__min__energy>  (15) 
-8.6699999999999999

>  <m_primary>  (15) 
energy

>  <rmsd>  (15) 
3.179682518457364

>  <m_score__min__rmsd>  (15) 
3.179682518457364

>  <meeko>  (15) 
{"free_energy": -7.24, "intermolecular_energy": -9.03, "internal_energy": -2.34, "cluster_size": 42, "cluster_id": 1, "rank_in_cluster": 42}

>  <energy>  (15) 
-8.39

>  <cluster_rmsd>  (15) 
0.28

>  <cluster>  (15) 
1

$$$$

     RDKit          3D

 53 56  0  0  0  0  0  0  0  0999 V2000
  141.4000   74.4310  221.3810 O   0  0  0  0  0  0  0  0  0  0  0  0
  140.2880   74.6740  221.9530 C   0  0  0  0  0  0  0  0  0  0  0  0
  139.3420   73.6510  222.2390 N   0  0  0  0  0  0  0  0  0  0  0  0
  139.5830   72.2650  221.8960 C   0  0  0  0  0  0  0  0  0  0  0  0
  139.8540   71.5050  223.1550 C   0  0  0  0  0  0  0  0  0  0  0  0
  141.0500   71.5170  223.5570 O   0  0  0  0  0  0  0  0  0  0  0  0
  138.8120   70.8170  223.8460 N   0  0  0  0  0  0  0  0  0  0  0  0
  137.4620   71.2870  223.6860 C   0  0  0  0  0  0  0  0  0  0  0  0
  136.4160   70.2390  223.8720 C   0  0  0  0  0  0  0  0  0  0  0  0
  136.7270   69.2650  224.9760 C   0  0  0  0  0  0  0  0  0  0  0  0
  138.1070   68.7080  224.9120 C   0  0  0  0  0  0  0  0  0  0  0  0
  139.1970   69.6900  224.6590 C   0  0  2  0  0  0  0  0  0  0  0  0
  139.8630   70.1830  225.8730 C   0  0  0  0  0  0  0  0  0  0  0  0
  140.2700   69.3680  226.9190 C   0  0  0  0  0  0  0  0  0  0  0  0
  140.8940   69.8590  228.0470 C   0  0  0  0  0  0  0  0  0  0  0  0
  141.1340   71.2120  228.1660 C   0  0  0  0  0  0  0  0  0  0  0  0
  140.7260   72.0160  227.1200 C   0  0  0  0  0  0  0  0  0  0  0  0
  140.1270   71.5110  226.0450 N   0  0  0  0  0  0  0  0  0  0  0  0
  139.9760   76.0560  222.3300 C   0  0  0  0  0  0  0  0  0  0  0  0
  140.9880   76.9600  222.5730 C   0  0  0  0  0  0  0  0  0  0  0  0
  140.6400   78.2460  222.9240 C   0  0  0  0  0  0  0  0  0  0  0  0
  139.3310   78.6620  223.0380 C   0  0  0  0  0  0  0  0  0  0  0  0
  138.9680   79.9460  223.3870 C   0  0  0  0  0  0  0  0  0  0  0  0
  137.6400   80.2990  223.4860 C   0  0  0  0  0  0  0  0  0  0  0  0
  137.2570   81.6970  223.8670 C   0  0  0  0  0  0  0  0  0  0  0  0
  137.7090   81.9110  225.1650 F   0  0  0  0  0  0  0  0  0  0  0  0
  135.9130   81.8930  223.7660 F   0  0  0  0  0  0  0  0  0  0  0  0
  137.9830   82.5550  223.0660 F   0  0  0  0  0  0  0  0  0  0  0  0
  136.6950   79.3360  223.2260 C   0  0  0  0  0  0  0  0  0  0  0  0
  137.0020   78.0390  222.8740 C   0  0  0  0  0  0  0  0  0  0  0  0
  138.3460   77.7170  222.7830 C   0  0  0  0  0  0  0  0  0  0  0  0
  138.7150   76.4700  222.4440 N   0  0  0  0  0  0  0  0  0  0  0  0
  138.4420   73.9480  222.7190 H   0  0  0  0  0  0  0  0  0  0  0  0
  138.6977   71.8477  221.3939 H   0  0  0  0  0  0  0  0  0  0  0  0
  140.4450   72.1891  221.2169 H   0  0  0  0  0  0  0  0  0  0  0  0
  137.2857   72.0833  224.4241 H   0  0  0  0  0  0  0  0  0  0  0  0
  137.3734   71.6366  222.6468 H   0  0  0  0  0  0  0  0  0  0  0  0
  135.4632   70.7366  224.1057 H   0  0  0  0  0  0  0  0  0  0  0  0
  136.3688   69.6616  222.9369 H   0  0  0  0  0  0  0  0  0  0  0  0
  136.6054   69.7817  225.9394 H   0  0  0  0  0  0  0  0  0  0  0  0
  136.0333   68.4188  224.8630 H   0  0  0  0  0  0  0  0  0  0  0  0
  138.3153   68.2143  225.8726 H   0  0  0  0  0  0  0  0  0  0  0  0
  138.1127   68.0296  224.0461 H   0  0  0  0  0  0  0  0  0  0  0  0
  139.9180   69.0861  224.0885 H   0  0  0  0  0  0  0  0  0  0  0  0
  140.0877   68.2857  226.8460 H   0  0  0  0  0  0  0  0  0  0  0  0
  141.1997   69.1726  228.8503 H   0  0  0  0  0  0  0  0  0  0  0  0
  141.6283   71.6319  229.0544 H   0  0  0  0  0  0  0  0  0  0  0  0
  140.9006   73.1005  227.1772 H   0  0  0  0  0  0  0  0  0  0  0  0
  142.0438   76.6629  222.4890 H   0  0  0  0  0  0  0  0  0  0  0  0
  141.4419   78.9725  223.1219 H   0  0  0  0  0  0  0  0  0  0  0  0
  139.7470   80.6961  223.5884 H   0  0  0  0  0  0  0  0  0  0  0  0
  135.6340   79.6157  223.3031 H   0  0  0  0  0  0  0  0  0  0  0  0
  136.2167   77.2950  222.6748 H   0  0  0  0  0  0  0  0  0  0  0  0
  1  2  2  0
  2  3  1  0
  3  4  1  0
  4  5  1  0
  5  6  2  0
  5  7  1  0
  7  8  1  0
  8  9  1  0
  9 10  1  0
 10 11  1  0
 11 12  1  0
 12 13  1  0
 13 14  2  0
 14 15  1  0
 15 16  2  0
 16 17  1  0
 17 18  2  0
  2 19  1  0
 19 20  2  0
 20 21  1  0
 21 22  2  0
 22 23  1  0
 23 24  2  0
 24 25  1  0
 25 26  1  0
 25 27  1  0
 25 28  1  0
 24 29  1  0
 29 30  2  0
 30 31  1  0
 31 32  2  0
 12  7  1  0
 18 13  1  0
 32 19  1  0
 31 22  1  0
  3 33  1  0
  4 34  1  0
  4 35  1  0
  8 36  1  0
  8 37  1  0
  9 38  1  0
  9 39  1  0
 10 40  1  0
 10 41  1  0
 11 42  1  0
 11 43  1  0
 12 44  1  6
 14 45  1  0
 15 46  1  0
 16 47  1  0
 17 48  1  0
 20 49  1  0
 21 50  1  0
 23 51  1  0
 29 52  1  0
 30 53  1  0
M  END
>  <smiles>  (16) 
O=C(NCC(=O)N1CCCCC1c1ccccn1)c1ccc2cc(C(F)(F)F)ccc2n1

>  <score_type>  (16) 
oracle

>  <origin>  (16) 
autodockgpu

>  <m_score__min__energy>  (16) 
-8.6699999999999999

>  <m_primary>  (16) 
energy

>  <rmsd>  (16) 
9.255401293321102

>  <m_score__min__rmsd>  (16) 
9.255401293321102

>  <meeko>  (16) 
{"free_energy": -7.66, "intermolecular_energy": -9.45, "internal_energy": -1.63, "cluster_size": 1, "cluster_id": 3, "rank_in_cluster": 1}

>  <energy>  (16) 
-8.35

>  <cluster_rmsd>  (16) 
0.61

>  <cluster>  (16) 
1

$$$$

     RDKit          3D

 53 56  0  0  0  0  0  0  0  0999 V2000
  139.6420   73.0160  220.3040 O   0  0  0  0  0  0  0  0  0  0  0  0
  139.6110   73.2750  221.5510 C   0  0  0  0  0  0  0  0  0  0  0  0
  139.5820   74.6070  222.0490 N   0  0  0  0  0  0  0  0  0  0  0  0
  139.5870   75.7560  221.1690 C   0  0  0  0  0  0  0  0  0  0  0  0
  140.7110   76.6560  221.5710 C   0  0  0  0  0  0  0  0  0  0  0  0
  141.0610   76.5900  222.7820 O   0  0  0  0  0  0  0  0  0  0  0  0
  141.3370   77.5280  220.6310 N   0  0  0  0  0  0  0  0  0  0  0  0
  142.4040   77.0030  219.8210 C   0  0  0  0  0  0  0  0  0  0  0  0
  142.5750   77.6860  218.5050 C   0  0  0  0  0  0  0  0  0  0  0  0
  142.3650   79.1750  218.5660 C   0  0  0  0  0  0  0  0  0  0  0  0
  141.1180   79.5750  219.2740 C   0  0  0  0  0  0  0  0  0  0  0  0
  140.8470   78.8820  220.5640 C   0  0  2  0  0  0  0  0  0  0  0  0
  141.3030   79.6150  221.7540 C   0  0  0  0  0  0  0  0  0  0  0  0
  142.5600   79.4650  222.3200 C   0  0  0  0  0  0  0  0  0  0  0  0
  142.9620   80.1670  223.4370 C   0  0  0  0  0  0  0  0  0  0  0  0
  142.0980   81.0600  224.0360 C   0  0  0  0  0  0  0  0  0  0  0  0
  140.8480   81.2030  223.4650 C   0  0  0  0  0  0  0  0  0  0  0  0
  140.4910   80.5120  222.3860 N   0  0  0  0  0  0  0  0  0  0  0  0
  139.6030   72.1600  222.5030 C   0  0  0  0  0  0  0  0  0  0  0  0
  138.9670   70.9770  222.1890 C   0  0  0  0  0  0  0  0  0  0  0  0
  138.9900   69.9600  223.1190 C   0  0  0  0  0  0  0  0  0  0  0  0
  139.6190   70.0770  224.3400 C   0  0  0  0  0  0  0  0  0  0  0  0
  139.6500   69.0690  225.2790 C   0  0  0  0  0  0  0  0  0  0  0  0
  140.2960   69.2490  226.4830 C   0  0  0  0  0  0  0  0  0  0  0  0
  140.3240   68.1450  227.4970 C   0  0  0  0  0  0  0  0  0  0  0  0
  139.2940   67.2660  227.1790 F   0  0  0  0  0  0  0  0  0  0  0  0
  140.1970   68.6270  228.7640 F   0  0  0  0  0  0  0  0  0  0  0  0
  141.4960   67.4420  227.3080 F   0  0  0  0  0  0  0  0  0  0  0  0
  140.9050   70.4590  226.7140 C   0  0  0  0  0  0  0  0  0  0  0  0
  140.9040   71.5000  225.8110 C   0  0  0  0  0  0  0  0  0  0  0  0
  140.2460   71.2860  224.6110 C   0  0  0  0  0  0  0  0  0  0  0  0
  140.2080   72.2600  223.6850 N   0  0  0  0  0  0  0  0  0  0  0  0
  139.5560   74.7250  223.1050 H   0  0  0  0  0  0  0  0  0  0  0  0
  139.7291   75.4265  220.1292 H   0  0  0  0  0  0  0  0  0  0  0  0
  138.6295   76.2922  221.2436 H   0  0  0  0  0  0  0  0  0  0  0  0
  143.3437   77.1020  220.3842 H   0  0  0  0  0  0  0  0  0  0  0  0
  142.1436   75.9574  219.5996 H   0  0  0  0  0  0  0  0  0  0  0  0
  143.5959   77.4935  218.1436 H   0  0  0  0  0  0  0  0  0  0  0  0
  141.8078   77.2799  217.8293 H   0  0  0  0  0  0  0  0  0  0  0  0
  143.2213   79.6253  219.0895 H   0  0  0  0  0  0  0  0  0  0  0  0
  142.2736   79.5295  217.5287 H   0  0  0  0  0  0  0  0  0  0  0  0
  141.1787   80.6542  219.4783 H   0  0  0  0  0  0  0  0  0  0  0  0
  140.2931   79.2883  218.6052 H   0  0  0  0  0  0  0  0  0  0  0  0
  139.7476   78.8495  220.5776 H   0  0  0  0  0  0  0  0  0  0  0  0
  143.2651   78.7574  221.8594 H   0  0  0  0  0  0  0  0  0  0  0  0
  143.9703   80.0150  223.8497 H   0  0  0  0  0  0  0  0  0  0  0  0
  142.3911   81.6326  224.9283 H   0  0  0  0  0  0  0  0  0  0  0  0
  140.1304   81.9056  223.9138 H   0  0  0  0  0  0  0  0  0  0  0  0
  138.4558   70.8488  221.2235 H   0  0  0  0  0  0  0  0  0  0  0  0
  138.4844   69.0137  222.8763 H   0  0  0  0  0  0  0  0  0  0  0  0
  139.1540   68.1107  225.0654 H   0  0  0  0  0  0  0  0  0  0  0  0
  141.4224   70.6049  227.6737 H   0  0  0  0  0  0  0  0  0  0  0  0
  141.4020   72.4554  226.0326 H   0  0  0  0  0  0  0  0  0  0  0  0
  1  2  2  0
  2  3  1  0
  3  4  1  0
  4  5  1  0
  5  6  2  0
  5  7  1  0
  7  8  1  0
  8  9  1  0
  9 10  1  0
 10 11  1  0
 11 12  1  0
 12 13  1  0
 13 14  2  0
 14 15  1  0
 15 16  2  0
 16 17  1  0
 17 18  2  0
  2 19  1  0
 19 20  2  0
 20 21  1  0
 21 22  2  0
 22 23  1  0
 23 24  2  0
 24 25  1  0
 25 26  1  0
 25 27  1  0
 25 28  1  0
 24 29  1  0
 29 30  2  0
 30 31  1  0
 31 32  2  0
 12  7  1  0
 18 13  1  0
 32 19  1  0
 31 22  1  0
  3 33  1  0
  4 34  1  0
  4 35  1  0
  8 36  1  0
  8 37  1  0
  9 38  1  0
  9 39  1  0
 10 40  1  0
 10 41  1  0
 11 42  1  0
 11 43  1  0
 12 44  1  1
 14 45  1  0
 15 46  1  0
 16 47  1  0
 17 48  1  0
 20 49  1  0
 21 50  1  0
 23 51  1  0
 29 52  1  0
 30 53  1  0
M  END
>  <smiles>  (17) 
O=C(NCC(=O)N1CCCCC1c1ccccn1)c1ccc2cc(C(F)(F)F)ccc2n1

>  <score_type>  (17) 
oracle

>  <origin>  (17) 
autodockgpu

>  <m_score__min__energy>  (17) 
-8.6699999999999999

>  <m_primary>  (17) 
energy

>  <rmsd>  (17) 
2.8174223011279813

>  <m_score__min__rmsd>  (17) 
2.8174223011279813

>  <meeko>  (17) 
{"free_energy": -8.52, "intermolecular_energy": -10.31, "internal_energy": -2.01, "cluster_size": 42, "cluster_id": 1, "rank_in_cluster": 9}

>  <energy>  (17) 
-8.34

>  <cluster_rmsd>  (17) 
0.37

>  <cluster>  (17) 
1

$$$$

     RDKit          3D

 53 56  0  0  0  0  0  0  0  0999 V2000
  139.8740   72.9780  220.3850 O   0  0  0  0  0  0  0  0  0  0  0  0
  139.7500   73.2840  221.6160 C   0  0  0  0  0  0  0  0  0  0  0  0
  139.6920   74.6340  222.0600 N   0  0  0  0  0  0  0  0  0  0  0  0
  139.7720   75.7490  221.1400 C   0  0  0  0  0  0  0  0  0  0  0  0
  141.2120   76.0070  220.8320 C   0  0  0  0  0  0  0  0  0  0  0  0
  142.0340   75.1830  221.3170 O   0  0  0  0  0  0  0  0  0  0  0  0
  141.6130   77.1220  220.0360 N   0  0  0  0  0  0  0  0  0  0  0  0
  142.6350   76.9180  219.0430 C   0  0  0  0  0  0  0  0  0  0  0  0
  142.5660   77.8550  217.8840 C   0  0  0  0  0  0  0  0  0  0  0  0
  142.1840   79.2600  218.2650 C   0  0  0  0  0  0  0  0  0  0  0  0
  140.9880   79.3360  219.1490 C   0  0  0  0  0  0  0  0  0  0  0  0
  140.9560   78.3800  220.2900 C   0  0  2  0  0  0  0  0  0  0  0  0
  141.4550   78.9320  221.5580 C   0  0  0  0  0  0  0  0  0  0  0  0
  142.1860   80.1070  221.6560 C   0  0  0  0  0  0  0  0  0  0  0  0
  142.6410   80.6020  222.8610 C   0  0  0  0  0  0  0  0  0  0  0  0
  142.3730   79.9200  224.0300 C   0  0  0  0  0  0  0  0  0  0  0  0
  141.6430   78.7520  223.9220 C   0  0  0  0  0  0  0  0  0  0  0  0
  141.2180   78.3020  222.7450 N   0  0  0  0  0  0  0  0  0  0  0  0
  139.6630   72.2060  222.6050 C   0  0  0  0  0  0  0  0  0  0  0  0
  138.8630   71.1070  222.3740 C   0  0  0  0  0  0  0  0  0  0  0  0
  138.8160   70.1220  223.3360 C   0  0  0  0  0  0  0  0  0  0  0  0
  139.5330   70.1910  224.5110 C   0  0  0  0  0  0  0  0  0  0  0  0
  139.4970   69.2130  225.4820 C   0  0  0  0  0  0  0  0  0  0  0  0
  140.2380   69.3410  226.6370 C   0  0  0  0  0  0  0  0  0  0  0  0
  140.1910   68.2720  227.6870 C   0  0  0  0  0  0  0  0  0  0  0  0
  139.2990   67.2990  227.2470 F   0  0  0  0  0  0  0  0  0  0  0  0
  139.8250   68.7750  228.8980 F   0  0  0  0  0  0  0  0  0  0  0  0
  141.4310   67.6660  227.7120 F   0  0  0  0  0  0  0  0  0  0  0  0
  141.0090   70.4690  226.7880 C   0  0  0  0  0  0  0  0  0  0  0  0
  141.0820   71.4760  225.8500 C   0  0  0  0  0  0  0  0  0  0  0  0
  140.3250   71.3150  224.7000 C   0  0  0  0  0  0  0  0  0  0  0  0
  140.3510   72.2600  223.7440 N   0  0  0  0  0  0  0  0  0  0  0  0
  139.5880   74.7930  223.1050 H   0  0  0  0  0  0  0  0  0  0  0  0
  139.2322   75.5049  220.2132 H   0  0  0  0  0  0  0  0  0  0  0  0
  139.3168   76.6432  221.5908 H   0  0  0  0  0  0  0  0  0  0  0  0
  143.6147   77.0421  219.5275 H   0  0  0  0  0  0  0  0  0  0  0  0
  142.4810   75.9069  218.6380 H   0  0  0  0  0  0  0  0  0  0  0  0
  143.5535   77.8825  217.4002 H   0  0  0  0  0  0  0  0  0  0  0  0
  141.7804   77.4788  217.2123 H   0  0  0  0  0  0  0  0  0  0  0  0
  143.0338   79.7208  218.7900 H   0  0  0  0  0  0  0  0  0  0  0  0
  141.9299   79.7879  217.3340 H   0  0  0  0  0  0  0  0  0  0  0  0
  140.9394   80.3543  219.5621 H   0  0  0  0  0  0  0  0  0  0  0  0
  140.1322   79.0660  218.5128 H   0  0  0  0  0  0  0  0  0  0  0  0
  139.8779   78.1886  220.3957 H   0  0  0  0  0  0  0  0  0  0  0  0
  142.4120   80.6665  220.7363 H   0  0  0  0  0  0  0  0  0  0  0  0
  143.2166   81.5390  222.8895 H   0  0  0  0  0  0  0  0  0  0  0  0
  142.7248   80.2897  225.0045 H   0  0  0  0  0  0  0  0  0  0  0  0
  141.4076   78.1803  224.8318 H   0  0  0  0  0  0  0  0  0  0  0  0
  138.2781   71.0191  221.4466 H   0  0  0  0  0  0  0  0  0  0  0  0
  138.1790   69.2429  223.1588 H   0  0  0  0  0  0  0  0  0  0  0  0
  138.8703   68.3212  225.3334 H   0  0  0  0  0  0  0  0  0  0  0  0
  141.6009   70.5737  227.7092 H   0  0  0  0  0  0  0  0  0  0  0  0
  141.7108   72.3649  226.0064 H   0  0  0  0  0  0  0  0  0  0  0  0
  1  2  2  0
  2  3  1  0
  3  4  1  0
  4  5  1  0
  5  6  2  0
  5  7  1  0
  7  8  1  0
  8  9  1  0
  9 10  1  0
 10 11  1  0
 11 12  1  0
 12 13  1  0
 13 14  2  0
 14 15  1  0
 15 16  2  0
 16 17  1  0
 17 18  2  0
  2 19  1  0
 19 20  2  0
 20 21  1  0
 21 22  2  0
 22 23  1  0
 23 24  2  0
 24 25  1  0
 25 26  1  0
 25 27  1  0
 25 28  1  0
 24 29  1  0
 29 30  2  0
 30 31  1  0
 31 32  2  0
 12  7  1  0
 18 13  1  0
 32 19  1  0
 31 22  1  0
  3 33  1  0
  4 34  1  0
  4 35  1  0
  8 36  1  0
  8 37  1  0
  9 38  1  0
  9 39  1  0
 10 40  1  0
 10 41  1  0
 11 42  1  0
 11 43  1  0
 12 44  1  1
 14 45  1  0
 15 46  1  0
 16 47  1  0
 17 48  1  0
 20 49  1  0
 21 50  1  0
 23 51  1  0
 29 52  1  0
 30 53  1  0
M  END
>  <smiles>  (18) 
O=C(NCC(=O)N1CCCCC1c1ccccn1)c1ccc2cc(C(F)(F)F)ccc2n1

>  <score_type>  (18) 
oracle

>  <origin>  (18) 
autodockgpu

>  <m_score__min__energy>  (18) 
-8.6699999999999999

>  <m_primary>  (18) 
energy

>  <rmsd>  (18) 
2.5604045945315765

>  <m_score__min__rmsd>  (18) 
2.5604045945315765

>  <meeko>  (18) 
{"free_energy": -8.47, "intermolecular_energy": -10.26, "internal_energy": -1.7, "cluster_size": 42, "cluster_id": 1, "rank_in_cluster": 11}

>  <energy>  (18) 
-8.28

>  <cluster_rmsd>  (18) 
1.97

>  <cluster>  (18) 
1

$$$$

     RDKit          3D

 53 56  0  0  0  0  0  0  0  0999 V2000
  138.9970   72.6130  220.6000 O   0  0  0  0  0  0  0  0  0  0  0  0
  139.6660   72.9190  221.6400 C   0  0  0  0  0  0  0  0  0  0  0  0
  140.3520   74.1590  221.7640 N   0  0  0  0  0  0  0  0  0  0  0  0
  140.3330   75.1550  220.7140 C   0  0  0  0  0  0  0  0  0  0  0  0
  140.9750   76.4020  221.2320 C   0  0  0  0  0  0  0  0  0  0  0  0
  141.0300   76.5110  222.4880 O   0  0  0  0  0  0  0  0  0  0  0  0
  141.4890   77.3960  220.3450 N   0  0  0  0  0  0  0  0  0  0  0  0
  142.6010   77.0470  219.5020 C   0  0  0  0  0  0  0  0  0  0  0  0
  142.6800   77.8240  218.2310 C   0  0  0  0  0  0  0  0  0  0  0  0
  142.3040   79.2730  218.3850 C   0  0  0  0  0  0  0  0  0  0  0  0
  141.0260   79.4840  219.1190 C   0  0  0  0  0  0  0  0  0  0  0  0
  140.8470   78.6870  220.3640 C   0  0  2  0  0  0  0  0  0  0  0  0
  141.2290   79.3920  221.5960 C   0  0  0  0  0  0  0  0  0  0  0  0
  140.3380   80.0900  222.3970 C   0  0  0  0  0  0  0  0  0  0  0  0
  140.7250   80.7430  223.5490 C   0  0  0  0  0  0  0  0  0  0  0  0
  142.0460   80.7160  223.9440 C   0  0  0  0  0  0  0  0  0  0  0  0
  142.9270   80.0180  223.1400 C   0  0  0  0  0  0  0  0  0  0  0  0
  142.5220   79.3990  222.0350 N   0  0  0  0  0  0  0  0  0  0  0  0
  139.7300   71.9570  222.7450 C   0  0  0  0  0  0  0  0  0  0  0  0
  139.1740   70.7020  222.6130 C   0  0  0  0  0  0  0  0  0  0  0  0
  139.2610   69.8370  223.6810 C   0  0  0  0  0  0  0  0  0  0  0  0
  139.8780   70.1730  224.8670 C   0  0  0  0  0  0  0  0  0  0  0  0
  139.9730   69.3180  225.9440 C   0  0  0  0  0  0  0  0  0  0  0  0
  140.6020   69.7150  227.1040 C   0  0  0  0  0  0  0  0  0  0  0  0
  140.7000   68.7760  228.2690 C   0  0  0  0  0  0  0  0  0  0  0  0
  139.4900   68.8380  228.9520 F   0  0  0  0  0  0  0  0  0  0  0  0
  141.7480   69.0920  229.0790 F   0  0  0  0  0  0  0  0  0  0  0  0
  140.7840   67.4960  227.7610 F   0  0  0  0  0  0  0  0  0  0  0  0
  141.1290   70.9830  227.1510 C   0  0  0  0  0  0  0  0  0  0  0  0
  141.0620   71.8780  226.1050 C   0  0  0  0  0  0  0  0  0  0  0  0
  140.4230   71.4470  224.9540 C   0  0  0  0  0  0  0  0  0  0  0  0
  140.3230   72.2700  223.8960 N   0  0  0  0  0  0  0  0  0  0  0  0
  140.8840   74.3260  222.6680 H   0  0  0  0  0  0  0  0  0  0  0  0
  140.8913   74.7851  219.8414 H   0  0  0  0  0  0  0  0  0  0  0  0
  139.2964   75.3628  220.4100 H   0  0  0  0  0  0  0  0  0  0  0  0
  143.5285   77.2184  220.0679 H   0  0  0  0  0  0  0  0  0  0  0  0
  142.4600   75.9939  219.2173 H   0  0  0  0  0  0  0  0  0  0  0  0
  143.7123   77.7709  217.8548 H   0  0  0  0  0  0  0  0  0  0  0  0
  141.9565   77.3758  217.5341 H   0  0  0  0  0  0  0  0  0  0  0  0
  143.1085   79.7843  218.9340 H   0  0  0  0  0  0  0  0  0  0  0  0
  142.1642   79.6787  217.3721 H   0  0  0  0  0  0  0  0  0  0  0  0
  140.9655   80.5485  219.3897 H   0  0  0  0  0  0  0  0  0  0  0  0
  140.2331   79.1466  218.4353 H   0  0  0  0  0  0  0  0  0  0  0  0
  139.7585   78.5293  220.3787 H   0  0  0  0  0  0  0  0  0  0  0  0
  139.2789   80.1245  222.1017 H   0  0  0  0  0  0  0  0  0  0  0  0
  139.9809   81.2844  224.1516 H   0  0  0  0  0  0  0  0  0  0  0  0
  142.3832   81.2270  224.8578 H   0  0  0  0  0  0  0  0  0  0  0  0
  143.9895   79.9734  223.4211 H   0  0  0  0  0  0  0  0  0  0  0  0
  138.6748   70.4002  221.6804 H   0  0  0  0  0  0  0  0  0  0  0  0
  138.8190   68.8345  223.5834 H   0  0  0  0  0  0  0  0  0  0  0  0
  139.5422   68.3081  225.8768 H   0  0  0  0  0  0  0  0  0  0  0  0
  141.6327   71.3018  228.0755 H   0  0  0  0  0  0  0  0  0  0  0  0
  141.4952   72.8863  226.1806 H   0  0  0  0  0  0  0  0  0  0  0  0
  1  2  2  0
  2  3  1  0
  3  4  1  0
  4  5  1  0
  5  6  2  0
  5  7  1  0
  7  8  1  0
  8  9  1  0
  9 10  1  0
 10 11  1  0
 11 12  1  0
 12 13  1  0
 13 14  2  0
 14 15  1  0
 15 16  2  0
 16 17  1  0
 17 18  2  0
  2 19  1  0
 19 20  2  0
 20 21  1  0
 21 22  2  0
 22 23  1  0
 23 24  2  0
 24 25  1  0
 25 26  1  0
 25 27  1  0
 25 28  1  0
 24 29  1  0
 29 30  2  0
 30 31  1  0
 31 32  2  0
 12  7  1  0
 18 13  1  0
 32 19  1  0
 31 22  1  0
  3 33  1  0
  4 34  1  0
  4 35  1  0
  8 36  1  0
  8 37  1  0
  9 38  1  0
  9 39  1  0
 10 40  1  0
 10 41  1  0
 11 42  1  0
 11 43  1  0
 12 44  1  1
 14 45  1  0
 15 46  1  0
 16 47  1  0
 17 48  1  0
 20 49  1  0
 21 50  1  0
 23 51  1  0
 29 52  1  0
 30 53  1  0
M  END
>  <smiles>  (19) 
O=C(NCC(=O)N1CCCCC1c1ccccn1)c1ccc2cc(C(F)(F)F)ccc2n1

>  <score_type>  (19) 
oracle

>  <origin>  (19) 
autodockgpu

>  <m_score__min__energy>  (19) 
-8.6699999999999999

>  <m_primary>  (19) 
energy

>  <rmsd>  (19) 
2.650130207474831

>  <m_score__min__rmsd>  (19) 
2.650130207474831

>  <meeko>  (19) 
{"free_energy": -7.8, "intermolecular_energy": -9.59, "internal_energy": -2.37, "cluster_size": 42, "cluster_id": 1, "rank_in_cluster": 35}

>  <energy>  (19) 
-8.28

>  <cluster_rmsd>  (19) 
0.64

>  <cluster>  (19) 
1

$$$$

     RDKit          3D

 53 56  0  0  0  0  0  0  0  0999 V2000
  139.4440   72.9050  220.3290 O   0  0  0  0  0  0  0  0  0  0  0  0
  139.1040   73.1370  221.5350 C   0  0  0  0  0  0  0  0  0  0  0  0
  138.6470   74.4140  221.9620 N   0  0  0  0  0  0  0  0  0  0  0  0
  138.5390   75.5350  221.0520 C   0  0  0  0  0  0  0  0  0  0  0  0
  139.5420   76.5680  221.4500 C   0  0  0  0  0  0  0  0  0  0  0  0
  139.1290   77.4600  222.2420 O   0  0  0  0  0  0  0  0  0  0  0  0
  140.8810   76.5310  220.9580 N   0  0  0  0  0  0  0  0  0  0  0  0
  141.6060   75.2910  221.0450 C   0  0  0  0  0  0  0  0  0  0  0  0
  142.6700   75.1230  220.0130 C   0  0  0  0  0  0  0  0  0  0  0  0
  143.4210   76.3910  219.7080 C   0  0  0  0  0  0  0  0  0  0  0  0
  142.5390   77.5630  219.4510 C   0  0  0  0  0  0  0  0  0  0  0  0
  141.4110   77.7530  220.4040 C   0  0  2  0  0  0  0  0  0  0  0  0
  141.6940   78.6900  221.5000 C   0  0  0  0  0  0  0  0  0  0  0  0
  141.9690   80.0370  221.3160 C   0  0  0  0  0  0  0  0  0  0  0  0
  142.2310   80.8940  222.3650 C   0  0  0  0  0  0  0  0  0  0  0  0
  142.2270   80.4190  223.6590 C   0  0  0  0  0  0  0  0  0  0  0  0
  141.9520   79.0760  223.8330 C   0  0  0  0  0  0  0  0  0  0  0  0
  141.7030   78.2760  222.8010 N   0  0  0  0  0  0  0  0  0  0  0  0
  139.1890   72.0480  222.5130 C   0  0  0  0  0  0  0  0  0  0  0  0
  138.5010   70.8700  222.3090 C   0  0  0  0  0  0  0  0  0  0  0  0
  138.6140   69.8790  223.2590 C   0  0  0  0  0  0  0  0  0  0  0  0
  139.3820   70.0160  224.3960 C   0  0  0  0  0  0  0  0  0  0  0  0
  139.5050   69.0330  225.3540 C   0  0  0  0  0  0  0  0  0  0  0  0
  140.2880   69.2330  226.4700 C   0  0  0  0  0  0  0  0  0  0  0  0
  140.4140   68.1570  227.5060 C   0  0  0  0  0  0  0  0  0  0  0  0
  141.5130   67.3780  227.1610 F   0  0  0  0  0  0  0  0  0  0  0  0
  139.2790   67.4100  227.5940 F   0  0  0  0  0  0  0  0  0  0  0  0
  140.7440   68.7700  228.6980 F   0  0  0  0  0  0  0  0  0  0  0  0
  140.9390   70.4370  226.5950 C   0  0  0  0  0  0  0  0  0  0  0  0
  140.8510   71.4530  225.6680 C   0  0  0  0  0  0  0  0  0  0  0  0
  140.0560   71.2190  224.5580 C   0  0  0  0  0  0  0  0  0  0  0  0
  139.9270   72.1690  223.6150 N   0  0  0  0  0  0  0  0  0  0  0  0
  138.3860   74.5130  222.9870 H   0  0  0  0  0  0  0  0  0  0  0  0
  138.7405   75.1991  220.0241 H   0  0  0  0  0  0  0  0  0  0  0  0
  137.5248   75.9587  221.0951 H   0  0  0  0  0  0  0  0  0  0  0  0
  142.0781   75.2379  222.0371 H   0  0  0  0  0  0  0  0  0  0  0  0
  140.8741   74.4879  220.8735 H   0  0  0  0  0  0  0  0  0  0  0  0
  143.3882   74.3719  220.3735 H   0  0  0  0  0  0  0  0  0  0  0  0
  142.1706   74.8130  219.0832 H   0  0  0  0  0  0  0  0  0  0  0  0
  144.0689   76.6255  220.5655 H   0  0  0  0  0  0  0  0  0  0  0  0
  143.9932   76.2114  218.7858 H   0  0  0  0  0  0  0  0  0  0  0  0
  143.1636   78.4679  219.4843 H   0  0  0  0  0  0  0  0  0  0  0  0
  142.0721   77.3737  218.4732 H   0  0  0  0  0  0  0  0  0  0  0  0
  140.6410   78.1983  219.7569 H   0  0  0  0  0  0  0  0  0  0  0  0
  141.9786   80.4384  220.2919 H   0  0  0  0  0  0  0  0  0  0  0  0
  142.4429   81.9554  222.1689 H   0  0  0  0  0  0  0  0  0  0  0  0
  142.4334   81.0791  224.5144 H   0  0  0  0  0  0  0  0  0  0  0  0
  141.9388   78.6586  224.8506 H   0  0  0  0  0  0  0  0  0  0  0  0
  137.8796   70.7260  221.4129 H   0  0  0  0  0  0  0  0  0  0  0  0
  138.0676   68.9370  223.1038 H   0  0  0  0  0  0  0  0  0  0  0  0
  138.9726   68.0789  225.2264 H   0  0  0  0  0  0  0  0  0  0  0  0
  141.5653   70.5987  227.4847 H   0  0  0  0  0  0  0  0  0  0  0  0
  141.3865   72.4043  225.8031 H   0  0  0  0  0  0  0  0  0  0  0  0
  1  2  2  0
  2  3  1  0
  3  4  1  0
  4  5  1  0
  5  6  2  0
  5  7  1  0
  7  8  1  0
  8  9  1  0
  9 10  1  0
 10 11  1  0
 11 12  1  0
 12 13  1  0
 13 14  2  0
 14 15  1  0
 15 16  2  0
 16 17  1  0
 17 18  2  0
  2 19  1  0
 19 20  2  0
 20 21  1  0
 21 22  2  0
 22 23  1  0
 23 24  2  0
 24 25  1  0
 25 26  1  0
 25 27  1  0
 25 28  1  0
 24 29  1  0
 29 30  2  0
 30 31  1  0
 31 32  2  0
 12  7  1  0
 18 13  1  0
 32 19  1  0
 31 22  1  0
  3 33  1  0
  4 34  1  0
  4 35  1  0
  8 36  1  0
  8 37  1  0
  9 38  1  0
  9 39  1  0
 10 40  1  0
 10 41  1  0
 11 42  1  0
 11 43  1  0
 12 44  1  6
 14 45  1  0
 15 46  1  0
 16 47  1  0
 17 48  1  0
 20 49  1  0
 21 50  1  0
 23 51  1  0
 29 52  1  0
 30 53  1  0
M  END
>  <smiles>  (20) 
O=C(NCC(=O)N1CCCCC1c1ccccn1)c1ccc2cc(C(F)(F)F)ccc2n1

>  <score_type>  (20) 
oracle

>  <origin>  (20) 
autodockgpu

>  <m_score__min__energy>  (20) 
-8.6699999999999999

>  <m_primary>  (20) 
energy

>  <rmsd>  (20) 
2.3511305784065955

>  <m_score__min__rmsd>  (20) 
2.3511305784065955

>  <meeko>  (20) 
{"free_energy": -8.26, "intermolecular_energy": -10.05, "internal_energy": -1.73, "cluster_size": 42, "cluster_id": 1, "rank_in_cluster": 20}

>  <energy>  (20) 
-8.26

>  <cluster_rmsd>  (20) 
1.04

>  <cluster>  (20) 
1

$$$$

     RDKit          3D

 53 56  0  0  0  0  0  0  0  0999 V2000
  140.6180   73.1360  220.5110 O   0  0  0  0  0  0  0  0  0  0  0  0
  140.0090   73.3120  221.6160 C   0  0  0  0  0  0  0  0  0  0  0  0
  139.4090   74.5550  221.9630 N   0  0  0  0  0  0  0  0  0  0  0  0
  139.4530   75.7020  221.0800 C   0  0  0  0  0  0  0  0  0  0  0  0
  140.5670   76.5960  221.5190 C   0  0  0  0  0  0  0  0  0  0  0  0
  140.8030   76.6110  222.7590 O   0  0  0  0  0  0  0  0  0  0  0  0
  141.3070   77.3760  220.5810 N   0  0  0  0  0  0  0  0  0  0  0  0
  142.3800   76.7400  219.8630 C   0  0  0  0  0  0  0  0  0  0  0  0
  142.6760   77.3450  218.5310 C   0  0  0  0  0  0  0  0  0  0  0  0
  142.5690   78.8450  218.5120 C   0  0  0  0  0  0  0  0  0  0  0  0
  141.3130   79.3640  219.1230 C   0  0  0  0  0  0  0  0  0  0  0  0
  140.9190   78.7550  220.4230 C   0  0  2  0  0  0  0  0  0  0  0  0
  141.3560   79.5130  221.6050 C   0  0  0  0  0  0  0  0  0  0  0  0
  142.5650   79.3090  222.2520 C   0  0  0  0  0  0  0  0  0  0  0  0
  142.9500   80.0360  223.3590 C   0  0  0  0  0  0  0  0  0  0  0  0
  142.1160   81.0110  223.8650 C   0  0  0  0  0  0  0  0  0  0  0  0
  140.9140   81.2080  223.2140 C   0  0  0  0  0  0  0  0  0  0  0  0
  140.5730   80.4900  222.1470 N   0  0  0  0  0  0  0  0  0  0  0  0
  139.9250   72.1940  222.5610 C   0  0  0  0  0  0  0  0  0  0  0  0
  139.2840   71.0260  222.2060 C   0  0  0  0  0  0  0  0  0  0  0  0
  139.2330   70.0060  223.1310 C   0  0  0  0  0  0  0  0  0  0  0  0
  139.7940   70.1060  224.3860 C   0  0  0  0  0  0  0  0  0  0  0  0
  139.7520   69.0940  225.3210 C   0  0  0  0  0  0  0  0  0  0  0  0
  140.3320   69.2560  226.5600 C   0  0  0  0  0  0  0  0  0  0  0  0
  140.2800   68.1490  227.5690 C   0  0  0  0  0  0  0  0  0  0  0  0
  139.2460   67.2960  227.1940 F   0  0  0  0  0  0  0  0  0  0  0  0
  140.0990   68.6290  228.8310 F   0  0  0  0  0  0  0  0  0  0  0  0
  141.4420   67.4170  227.4370 F   0  0  0  0  0  0  0  0  0  0  0  0
  140.9510   70.4530  226.8310 C   0  0  0  0  0  0  0  0  0  0  0  0
  141.0230   71.4970  225.9340 C   0  0  0  0  0  0  0  0  0  0  0  0
  140.4300   71.3000  224.6980 C   0  0  0  0  0  0  0  0  0  0  0  0
  140.4630   72.2780  223.7760 N   0  0  0  0  0  0  0  0  0  0  0  0
  138.9230   74.6080  222.9060 H   0  0  0  0  0  0  0  0  0  0  0  0
  139.6302   75.3684  220.0469 H   0  0  0  0  0  0  0  0  0  0  0  0
  138.4968   76.2445  221.1189 H   0  0  0  0  0  0  0  0  0  0  0  0
  143.2896   76.8018  220.4785 H   0  0  0  0  0  0  0  0  0  0  0  0
  142.0596   75.7050  219.6729 H   0  0  0  0  0  0  0  0  0  0  0  0
  143.7002   77.0661  218.2426 H   0  0  0  0  0  0  0  0  0  0  0  0
  141.9228   76.9597  217.8280 H   0  0  0  0  0  0  0  0  0  0  0  0
  143.4228   79.2611  219.0669 H   0  0  0  0  0  0  0  0  0  0  0  0
  142.5640   79.1534  217.4561 H   0  0  0  0  0  0  0  0  0  0  0  0
  141.4381   80.4452  219.2821 H   0  0  0  0  0  0  0  0  0  0  0  0
  140.5103   79.1024  218.4178 H   0  0  0  0  0  0  0  0  0  0  0  0
  139.8211   78.7977  220.3700 H   0  0  0  0  0  0  0  0  0  0  0  0
  143.2453   78.5353  221.8665 H   0  0  0  0  0  0  0  0  0  0  0  0
  143.9206   79.8386  223.8375 H   0  0  0  0  0  0  0  0  0  0  0  0
  142.3957   81.6051  224.7475 H   0  0  0  0  0  0  0  0  0  0  0  0
  140.2217   81.9773  223.5867 H   0  0  0  0  0  0  0  0  0  0  0  0
  138.8262   70.9117  221.2123 H   0  0  0  0  0  0  0  0  0  0  0  0
  138.7224   69.0713  222.8559 H   0  0  0  0  0  0  0  0  0  0  0  0
  139.2498   68.1467  225.0751 H   0  0  0  0  0  0  0  0  0  0  0  0
  141.4151   70.5852  227.8195 H   0  0  0  0  0  0  0  0  0  0  0  0
  141.5272   72.4412  226.1876 H   0  0  0  0  0  0  0  0  0  0  0  0
  1  2  2  0
  2  3  1  0
  3  4  1  0
  4  5  1  0
  5  6  2  0
  5  7  1  0
  7  8  1  0
  8  9  1  0
  9 10  1  0
 10 11  1  0
 11 12  1  0
 12 13  1  0
 13 14  2  0
 14 15  1  0
 15 16  2  0
 16 17  1  0
 17 18  2  0
  2 19  1  0
 19 20  2  0
 20 21  1  0
 21 22  2  0
 22 23  1  0
 23 24  2  0
 24 25  1  0
 25 26  1  0
 25 27  1  0
 25 28  1  0
 24 29  1  0
 29 30  2  0
 30 31  1  0
 31 32  2  0
 12  7  1  0
 18 13  1  0
 32 19  1  0
 31 22  1  0
  3 33  1  0
  4 34  1  0
  4 35  1  0
  8 36  1  0
  8 37  1  0
  9 38  1  0
  9 39  1  0
 10 40  1  0
 10 41  1  0
 11 42  1  0
 11 43  1  0
 12 44  1  6
 14 45  1  0
 15 46  1  0
 16 47  1  0
 17 48  1  0
 20 49  1  0
 21 50  1  0
 23 51  1  0
 29 52  1  0
 30 53  1  0
M  END
>  <smiles>  (21) 
O=C(NCC(=O)N1CCCCC1c1ccccn1)c1ccc2cc(C(F)(F)F)ccc2n1

>  <score_type>  (21) 
oracle

>  <origin>  (21) 
autodockgpu

>  <m_score__min__energy>  (21) 
-8.6699999999999999

>  <m_primary>  (21) 
energy

>  <rmsd>  (21) 
2.7656842602965406

>  <m_score__min__rmsd>  (21) 
2.7656842602965406

>  <meeko>  (21) 
{"free_energy": -8.67, "intermolecular_energy": -10.46, "internal_energy": -1.71, "cluster_size": 42, "cluster_id": 1, "rank_in_cluster": 2}

>  <energy>  (21) 
-8.26

>  <cluster_rmsd>  (21) 
0.62

>  <cluster>  (21) 
1

$$$$

     RDKit          3D

 53 56  0  0  0  0  0  0  0  0999 V2000
  140.6590   73.4170  220.5070 O   0  0  0  0  0  0  0  0  0  0  0  0
  140.0360   73.5270  221.6130 C   0  0  0  0  0  0  0  0  0  0  0  0
  139.4200   74.7430  222.0200 N   0  0  0  0  0  0  0  0  0  0  0  0
  139.4630   75.9370  221.2010 C   0  0  0  0  0  0  0  0  0  0  0  0
  140.6840   76.7180  221.5660 C   0  0  0  0  0  0  0  0  0  0  0  0
  141.0490   76.6360  222.7720 O   0  0  0  0  0  0  0  0  0  0  0  0
  141.3810   77.5020  220.5990 N   0  0  0  0  0  0  0  0  0  0  0  0
  142.4490   76.8810  219.8600 C   0  0  0  0  0  0  0  0  0  0  0  0
  142.6950   77.4740  218.5130 C   0  0  0  0  0  0  0  0  0  0  0  0
  142.5530   78.9720  218.4770 C   0  0  0  0  0  0  0  0  0  0  0  0
  141.3020   79.4700  219.1150 C   0  0  0  0  0  0  0  0  0  0  0  0
  140.9570   78.8700  220.4330 C   0  0  2  0  0  0  0  0  0  0  0  0
  141.4070   79.6530  221.5930 C   0  0  0  0  0  0  0  0  0  0  0  0
  142.5310   79.3460  222.3450 C   0  0  0  0  0  0  0  0  0  0  0  0
  142.9310   80.1000  223.4290 C   0  0  0  0  0  0  0  0  0  0  0  0
  142.2010   81.2100  223.8020 C   0  0  0  0  0  0  0  0  0  0  0  0
  141.0840   81.5080  223.0460 C   0  0  0  0  0  0  0  0  0  0  0  0
  140.7250   80.7610  222.0060 N   0  0  0  0  0  0  0  0  0  0  0  0
  139.9520   72.3580  222.4940 C   0  0  0  0  0  0  0  0  0  0  0  0
  139.4110   71.1750  222.0370 C   0  0  0  0  0  0  0  0  0  0  0  0
  139.3550   70.1070  222.9050 C   0  0  0  0  0  0  0  0  0  0  0  0
  139.8160   70.1730  224.2030 C   0  0  0  0  0  0  0  0  0  0  0  0
  139.7670   69.1130  225.0820 C   0  0  0  0  0  0  0  0  0  0  0  0
  140.2440   69.2440  226.3680 C   0  0  0  0  0  0  0  0  0  0  0  0
  140.1860   68.0850  227.3170 C   0  0  0  0  0  0  0  0  0  0  0  0
  139.2080   67.2140  226.8460 F   0  0  0  0  0  0  0  0  0  0  0  0
  139.9220   68.4920  228.5900 F   0  0  0  0  0  0  0  0  0  0  0  0
  141.3820   67.4050  227.2100 F   0  0  0  0  0  0  0  0  0  0  0  0
  140.7670   70.4590  226.7430 C   0  0  0  0  0  0  0  0  0  0  0  0
  140.8400   71.5500  225.9050 C   0  0  0  0  0  0  0  0  0  0  0  0
  140.3520   71.3850  224.6190 C   0  0  0  0  0  0  0  0  0  0  0  0
  140.3930   72.4100  223.7500 N   0  0  0  0  0  0  0  0  0  0  0  0
  138.9230   74.7400  222.9580 H   0  0  0  0  0  0  0  0  0  0  0  0
  139.5056   75.6567  220.1382 H   0  0  0  0  0  0  0  0  0  0  0  0
  138.5618   76.5442  221.3719 H   0  0  0  0  0  0  0  0  0  0  0  0
  143.3732   76.9720  220.4496 H   0  0  0  0  0  0  0  0  0  0  0  0
  142.1475   75.8365  219.6920 H   0  0  0  0  0  0  0  0  0  0  0  0
  143.7172   77.2143  218.2005 H   0  0  0  0  0  0  0  0  0  0  0  0
  141.9322   77.0621  217.8359 H   0  0  0  0  0  0  0  0  0  0  0  0
  143.4114   79.4151  219.0031 H   0  0  0  0  0  0  0  0  0  0  0  0
  142.5130   79.2660  217.4178 H   0  0  0  0  0  0  0  0  0  0  0  0
  141.4059   80.5559  219.2566 H   0  0  0  0  0  0  0  0  0  0  0  0
  140.4872   79.1801  218.4353 H   0  0  0  0  0  0  0  0  0  0  0  0
  139.8574   78.8874  220.4081 H   0  0  0  0  0  0  0  0  0  0  0  0
  143.1281   78.4653  222.0658 H   0  0  0  0  0  0  0  0  0  0  0  0
  143.8306   79.8167  223.9951 H   0  0  0  0  0  0  0  0  0  0  0  0
  142.4952   81.8293  224.6622 H   0  0  0  0  0  0  0  0  0  0  0  0
  140.4760   82.3855  223.3110 H   0  0  0  0  0  0  0  0  0  0  0  0
  139.0344   71.0865  221.0073 H   0  0  0  0  0  0  0  0  0  0  0  0
  138.9238   69.1604  222.5473 H   0  0  0  0  0  0  0  0  0  0  0  0
  139.3428   68.1526  224.7538 H   0  0  0  0  0  0  0  0  0  0  0  0
  141.1484   70.5659  227.7692 H   0  0  0  0  0  0  0  0  0  0  0  0
  141.2657   72.5070  226.2411 H   0  0  0  0  0  0  0  0  0  0  0  0
  1  2  2  0
  2  3  1  0
  3  4  1  0
  4  5  1  0
  5  6  2  0
  5  7  1  0
  7  8  1  0
  8  9  1  0
  9 10  1  0
 10 11  1  0
 11 12  1  0
 12 13  1  0
 13 14  2  0
 14 15  1  0
 15 16  2  0
 16 17  1  0
 17 18  2  0
  2 19  1  0
 19 20  2  0
 20 21  1  0
 21 22  2  0
 22 23  1  0
 23 24  2  0
 24 25  1  0
 25 26  1  0
 25 27  1  0
 25 28  1  0
 24 29  1  0
 29 30  2  0
 30 31  1  0
 31 32  2  0
 12  7  1  0
 18 13  1  0
 32 19  1  0
 31 22  1  0
  3 33  1  0
  4 34  1  0
  4 35  1  0
  8 36  1  0
  8 37  1  0
  9 38  1  0
  9 39  1  0
 10 40  1  0
 10 41  1  0
 11 42  1  0
 11 43  1  0
 12 44  1  6
 14 45  1  0
 15 46  1  0
 16 47  1  0
 17 48  1  0
 20 49  1  0
 21 50  1  0
 23 51  1  0
 29 52  1  0
 30 53  1  0
M  END
>  <smiles>  (22) 
O=C(NCC(=O)N1CCCCC1c1ccccn1)c1ccc2cc(C(F)(F)F)ccc2n1

>  <score_type>  (22) 
oracle

>  <origin>  (22) 
autodockgpu

>  <m_score__min__energy>  (22) 
-8.6699999999999999

>  <m_primary>  (22) 
energy

>  <rmsd>  (22) 
2.8917095390419587

>  <m_score__min__rmsd>  (22) 
2.8917095390419587

>  <meeko>  (22) 
{"free_energy": -8.62, "intermolecular_energy": -10.41, "internal_energy": -1.69, "cluster_size": 42, "cluster_id": 1, "rank_in_cluster": 4}

>  <energy>  (22) 
-8.25

>  <cluster_rmsd>  (22) 
0.55

>  <cluster>  (22) 
1

$$$$

     RDKit          3D

 53 56  0  0  0  0  0  0  0  0999 V2000
  139.2640   73.1880  220.2060 O   0  0  0  0  0  0  0  0  0  0  0  0
  138.9930   73.3290  221.4430 C   0  0  0  0  0  0  0  0  0  0  0  0
  138.5670   74.5710  221.9890 N   0  0  0  0  0  0  0  0  0  0  0  0
  138.4160   75.7580  221.1740 C   0  0  0  0  0  0  0  0  0  0  0  0
  139.4710   76.7410  221.5670 C   0  0  0  0  0  0  0  0  0  0  0  0
  139.1150   77.6320  222.3860 O   0  0  0  0  0  0  0  0  0  0  0  0
  140.7950   76.6590  221.0390 N   0  0  0  0  0  0  0  0  0  0  0  0
  141.4920   75.4050  221.1380 C   0  0  0  0  0  0  0  0  0  0  0  0
  142.5230   75.1850  220.0820 C   0  0  0  0  0  0  0  0  0  0  0  0
  143.2950   76.4270  219.7240 C   0  0  0  0  0  0  0  0  0  0  0  0
  142.4330   77.6120  219.4610 C   0  0  0  0  0  0  0  0  0  0  0  0
  141.3370   77.8540  220.4400 C   0  0  2  0  0  0  0  0  0  0  0  0
  141.6730   78.8110  221.5040 C   0  0  0  0  0  0  0  0  0  0  0  0
  141.8950   80.1630  221.2870 C   0  0  0  0  0  0  0  0  0  0  0  0
  142.2080   81.0390  222.3060 C   0  0  0  0  0  0  0  0  0  0  0  0
  142.3130   80.5770  223.6020 C   0  0  0  0  0  0  0  0  0  0  0  0
  142.0910   79.2300  223.8080 C   0  0  0  0  0  0  0  0  0  0  0  0
  141.7890   78.4110  222.8040 N   0  0  0  0  0  0  0  0  0  0  0  0
  139.1230   72.1690  222.3300 C   0  0  0  0  0  0  0  0  0  0  0  0
  138.5340   70.9670  222.0000 C   0  0  0  0  0  0  0  0  0  0  0  0
  138.6870   69.9090  222.8680 C   0  0  0  0  0  0  0  0  0  0  0  0
  139.4010   70.0030  224.0440 C   0  0  0  0  0  0  0  0  0  0  0  0
  139.5640   68.9520  224.9220 C   0  0  0  0  0  0  0  0  0  0  0  0
  140.2890   69.1110  226.0820 C   0  0  0  0  0  0  0  0  0  0  0  0
  140.4590   67.9620  227.0300 C   0  0  0  0  0  0  0  0  0  0  0  0
  141.7320   67.4400  226.8220 F   0  0  0  0  0  0  0  0  0  0  0  0
  139.4960   67.0170  226.8480 F   0  0  0  0  0  0  0  0  0  0  0  0
  140.4660   68.4810  228.3080 F   0  0  0  0  0  0  0  0  0  0  0  0
  140.8430   70.3430  226.3340 C   0  0  0  0  0  0  0  0  0  0  0  0
  140.7130   71.4270  225.4910 C   0  0  0  0  0  0  0  0  0  0  0  0
  139.9770   71.2320  224.3330 C   0  0  0  0  0  0  0  0  0  0  0  0
  139.8110   72.2480  223.4680 N   0  0  0  0  0  0  0  0  0  0  0  0
  138.3630   74.5930  223.0320 H   0  0  0  0  0  0  0  0  0  0  0  0
  138.5305   75.4958  220.1119 H   0  0  0  0  0  0  0  0  0  0  0  0
  137.4182   76.1952  221.3264 H   0  0  0  0  0  0  0  0  0  0  0  0
  141.9900   75.3652  222.1180 H   0  0  0  0  0  0  0  0  0  0  0  0
  140.7367   74.6161  221.0070 H   0  0  0  0  0  0  0  0  0  0  0  0
  143.2331   74.4261  220.4423 H   0  0  0  0  0  0  0  0  0  0  0  0
  141.9911   74.8635  219.1744 H   0  0  0  0  0  0  0  0  0  0  0  0
  143.9716   76.6677  220.5573 H   0  0  0  0  0  0  0  0  0  0  0  0
  143.8377   76.2109  218.7920 H   0  0  0  0  0  0  0  0  0  0  0  0
  143.0789   78.5024  219.4524 H   0  0  0  0  0  0  0  0  0  0  0  0
  141.9337   77.4078  218.5023 H   0  0  0  0  0  0  0  0  0  0  0  0
  140.5598   78.3028  219.8040 H   0  0  0  0  0  0  0  0  0  0  0  0
  141.8184   80.5524  220.2611 H   0  0  0  0  0  0  0  0  0  0  0  0
  142.3735   82.1039  222.0856 H   0  0  0  0  0  0  0  0  0  0  0  0
  142.5625   81.2519  224.4340 H   0  0  0  0  0  0  0  0  0  0  0  0
  142.1657   78.8239  224.8275 H   0  0  0  0  0  0  0  0  0  0  0  0
  137.9580   70.8562  221.0694 H   0  0  0  0  0  0  0  0  0  0  0  0
  138.2192   68.9468  222.6121 H   0  0  0  0  0  0  0  0  0  0  0  0
  139.1101   67.9765  224.6933 H   0  0  0  0  0  0  0  0  0  0  0  0
  141.4227   70.4720  227.2599 H   0  0  0  0  0  0  0  0  0  0  0  0
  141.1712   72.3989  225.7264 H   0  0  0  0  0  0  0  0  0  0  0  0
  1  2  2  0
  2  3  1  0
  3  4  1  0
  4  5  1  0
  5  6  2  0
  5  7  1  0
  7  8  1  0
  8  9  1  0
  9 10  1  0
 10 11  1  0
 11 12  1  0
 12 13  1  0
 13 14  2  0
 14 15  1  0
 15 16  2  0
 16 17  1  0
 17 18  2  0
  2 19  1  0
 19 20  2  0
 20 21  1  0
 21 22  2  0
 22 23  1  0
 23 24  2  0
 24 25  1  0
 25 26  1  0
 25 27  1  0
 25 28  1  0
 24 29  1  0
 29 30  2  0
 30 31  1  0
 31 32  2  0
 12  7  1  0
 18 13  1  0
 32 19  1  0
 31 22  1  0
  3 33  1  0
  4 34  1  0
  4 35  1  0
  8 36  1  0
  8 37  1  0
  9 38  1  0
  9 39  1  0
 10 40  1  0
 10 41  1  0
 11 42  1  0
 11 43  1  0
 12 44  1  6
 14 45  1  0
 15 46  1  0
 16 47  1  0
 17 48  1  0
 20 49  1  0
 21 50  1  0
 23 51  1  0
 29 52  1  0
 30 53  1  0
M  END
>  <smiles>  (23) 
O=C(NCC(=O)N1CCCCC1c1ccccn1)c1ccc2cc(C(F)(F)F)ccc2n1

>  <score_type>  (23) 
oracle

>  <origin>  (23) 
autodockgpu

>  <m_score__min__energy>  (23) 
-8.6699999999999999

>  <m_primary>  (23) 
energy

>  <rmsd>  (23) 
2.433569747812988

>  <m_score__min__rmsd>  (23) 
2.433569747812988

>  <meeko>  (23) 
{"free_energy": -8.16, "intermolecular_energy": -9.95, "internal_energy": -1.78, "cluster_size": 42, "cluster_id": 1, "rank_in_cluster": 25}

>  <energy>  (23) 
-8.25

>  <cluster_rmsd>  (23) 
1.99

>  <cluster>  (23) 
1

$$$$

     RDKit          3D

 53 56  0  0  0  0  0  0  0  0999 V2000
  137.9540   73.6170  221.0600 O   0  0  0  0  0  0  0  0  0  0  0  0
  139.0470   73.4120  221.6810 C   0  0  0  0  0  0  0  0  0  0  0  0
  140.2080   74.2020  221.4540 N   0  0  0  0  0  0  0  0  0  0  0  0
  140.2210   75.2920  220.5010 C   0  0  0  0  0  0  0  0  0  0  0  0
  141.6080   75.8440  220.4320 C   0  0  0  0  0  0  0  0  0  0  0  0
  142.4960   75.1780  221.0320 O   0  0  0  0  0  0  0  0  0  0  0  0
  141.8930   77.0520  219.7250 N   0  0  0  0  0  0  0  0  0  0  0  0
  142.9600   77.0410  218.7600 C   0  0  0  0  0  0  0  0  0  0  0  0
  142.8110   78.0410  217.6630 C   0  0  0  0  0  0  0  0  0  0  0  0
  142.2490   79.3600  218.1200 C   0  0  0  0  0  0  0  0  0  0  0  0
  141.0280   79.2300  218.9620 C   0  0  0  0  0  0  0  0  0  0  0  0
  141.0800   78.2010  220.0360 C   0  0  2  0  0  0  0  0  0  0  0  0
  141.4700   78.7200  221.3550 C   0  0  0  0  0  0  0  0  0  0  0  0
  141.1600   78.0980  222.5550 C   0  0  0  0  0  0  0  0  0  0  0  0
  141.5410   78.6080  223.7790 C   0  0  0  0  0  0  0  0  0  0  0  0
  142.2600   79.7830  223.8400 C   0  0  0  0  0  0  0  0  0  0  0  0
  142.5650   80.3960  222.6400 C   0  0  0  0  0  0  0  0  0  0  0  0
  142.1830   79.8770  221.4760 N   0  0  0  0  0  0  0  0  0  0  0  0
  139.1080   72.3240  222.6620 C   0  0  0  0  0  0  0  0  0  0  0  0
  138.1250   71.3580  222.6960 C   0  0  0  0  0  0  0  0  0  0  0  0
  138.2290   70.3580  223.6380 C   0  0  0  0  0  0  0  0  0  0  0  0
  139.2690   70.2850  224.5390 C   0  0  0  0  0  0  0  0  0  0  0  0
  139.3870   69.2900  225.4860 C   0  0  0  0  0  0  0  0  0  0  0  0
  140.4520   69.2730  226.3600 C   0  0  0  0  0  0  0  0  0  0  0  0
  140.5700   68.1860  227.3860 C   0  0  0  0  0  0  0  0  0  0  0  0
  141.3750   68.6720  228.4110 F   0  0  0  0  0  0  0  0  0  0  0  0
  141.0800   67.0440  226.8490 F   0  0  0  0  0  0  0  0  0  0  0  0
  139.3190   68.0050  227.9390 F   0  0  0  0  0  0  0  0  0  0  0  0
  141.3880   70.2740  226.2570 C   0  0  0  0  0  0  0  0  0  0  0  0
  141.3190   71.2920  225.3290 C   0  0  0  0  0  0  0  0  0  0  0  0
  140.2360   71.2790  224.4660 C   0  0  0  0  0  0  0  0  0  0  0  0
  140.1080   72.2430  223.5370 N   0  0  0  0  0  0  0  0  0  0  0  0
  141.0740   73.9580  222.0190 H   0  0  0  0  0  0  0  0  0  0  0  0
  139.9189   74.9223  219.5100 H   0  0  0  0  0  0  0  0  0  0  0  0
  139.5178   76.0770  220.8162 H   0  0  0  0  0  0  0  0  0  0  0  0
  143.9029   77.2475  219.2876 H   0  0  0  0  0  0  0  0  0  0  0  0
  142.9421   76.0493  218.2844 H   0  0  0  0  0  0  0  0  0  0  0  0
  143.8015   78.2204  217.2195 H   0  0  0  0  0  0  0  0  0  0  0  0
  142.0973   77.6206  216.9391 H   0  0  0  0  0  0  0  0  0  0  0  0
  143.0204   79.8824  218.7049 H   0  0  0  0  0  0  0  0  0  0  0  0
  141.9591   79.9166  217.2166 H   0  0  0  0  0  0  0  0  0  0  0  0
  140.8430   80.2041  219.4385 H   0  0  0  0  0  0  0  0  0  0  0  0
  140.2308   78.9034  218.2781 H   0  0  0  0  0  0  0  0  0  0  0  0
  140.0310   77.8743  220.0890 H   0  0  0  0  0  0  0  0  0  0  0  0
  140.5868   77.1595  222.5300 H   0  0  0  0  0  0  0  0  0  0  0  0
  141.2717   78.0782  224.7046 H   0  0  0  0  0  0  0  0  0  0  0  0
  142.5767   80.2133  224.8015 H   0  0  0  0  0  0  0  0  0  0  0  0
  143.1372   81.3354  222.6471 H   0  0  0  0  0  0  0  0  0  0  0  0
  137.2812   71.3849  221.9908 H   0  0  0  0  0  0  0  0  0  0  0  0
  137.4479   69.5843  223.6723 H   0  0  0  0  0  0  0  0  0  0  0  0
  138.6226   68.5011  225.5444 H   0  0  0  0  0  0  0  0  0  0  0  0
  142.2395   70.2627  226.9533 H   0  0  0  0  0  0  0  0  0  0  0  0
  142.0878   72.0770  225.2768 H   0  0  0  0  0  0  0  0  0  0  0  0
  1  2  2  0
  2  3  1  0
  3  4  1  0
  4  5  1  0
  5  6  2  0
  5  7  1  0
  7  8  1  0
  8  9  1  0
  9 10  1  0
 10 11  1  0
 11 12  1  0
 12 13  1  0
 13 14  2  0
 14 15  1  0
 15 16  2  0
 16 17  1  0
 17 18  2  0
  2 19  1  0
 19 20  2  0
 20 21  1  0
 21 22  2  0
 22 23  1  0
 23 24  2  0
 24 25  1  0
 25 26  1  0
 25 27  1  0
 25 28  1  0
 24 29  1  0
 29 30  2  0
 30 31  1  0
 31 32  2  0
 12  7  1  0
 18 13  1  0
 32 19  1  0
 31 22  1  0
  3 33  1  0
  4 34  1  0
  4 35  1  0
  8 36  1  0
  8 37  1  0
  9 38  1  0
  9 39  1  0
 10 40  1  0
 10 41  1  0
 11 42  1  0
 11 43  1  0
 12 44  1  1
 14 45  1  0
 15 46  1  0
 16 47  1  0
 17 48  1  0
 20 49  1  0
 21 50  1  0
 23 51  1  0
 29 52  1  0
 30 53  1  0
M  END
>  <smiles>  (24) 
O=C(NCC(=O)N1CCCCC1c1ccccn1)c1ccc2cc(C(F)(F)F)ccc2n1

>  <score_type>  (24) 
oracle

>  <origin>  (24) 
autodockgpu

>  <m_score__min__energy>  (24) 
-8.6699999999999999

>  <m_primary>  (24) 
energy

>  <rmsd>  (24) 
3.028725132110732

>  <m_score__min__rmsd>  (24) 
3.028725132110732

>  <meeko>  (24) 
{"free_energy": -7.38, "intermolecular_energy": -9.17, "internal_energy": -2.34, "cluster_size": 42, "cluster_id": 1, "rank_in_cluster": 41}

>  <energy>  (24) 
-8.24

>  <cluster_rmsd>  (24) 
1.97

>  <cluster>  (24) 
1

$$$$

     RDKit          3D

 53 56  0  0  0  0  0  0  0  0999 V2000
  139.3640   72.7700  220.4360 O   0  0  0  0  0  0  0  0  0  0  0  0
  139.4280   73.1740  221.6430 C   0  0  0  0  0  0  0  0  0  0  0  0
  139.5620   74.5510  221.9760 N   0  0  0  0  0  0  0  0  0  0  0  0
  139.6340   75.5830  220.9630 C   0  0  0  0  0  0  0  0  0  0  0  0
  140.5130   76.6810  221.4680 C   0  0  0  0  0  0  0  0  0  0  0  0
  140.5960   76.7860  222.7220 O   0  0  0  0  0  0  0  0  0  0  0  0
  141.2090   77.5460  220.5710 N   0  0  0  0  0  0  0  0  0  0  0  0
  142.2630   76.9880  219.7650 C   0  0  0  0  0  0  0  0  0  0  0  0
  142.5020   77.7030  218.4780 C   0  0  0  0  0  0  0  0  0  0  0  0
  142.3760   79.1990  218.5860 C   0  0  0  0  0  0  0  0  0  0  0  0
  141.1380   79.6470  219.2810 C   0  0  0  0  0  0  0  0  0  0  0  0
  140.7980   78.9280  220.5400 C   0  0  2  0  0  0  0  0  0  0  0  0
  141.2690   79.5930  221.7640 C   0  0  0  0  0  0  0  0  0  0  0  0
  140.4410   80.2830  222.6370 C   0  0  0  0  0  0  0  0  0  0  0  0
  140.9110   80.8970  223.7800 C   0  0  0  0  0  0  0  0  0  0  0  0
  142.2540   80.8390  224.0900 C   0  0  0  0  0  0  0  0  0  0  0  0
  143.0700   80.1490  223.2140 C   0  0  0  0  0  0  0  0  0  0  0  0
  142.5860   79.5670  222.1210 N   0  0  0  0  0  0  0  0  0  0  0  0
  139.3610   72.1850  222.7230 C   0  0  0  0  0  0  0  0  0  0  0  0
  138.4200   71.1770  222.6910 C   0  0  0  0  0  0  0  0  0  0  0  0
  138.4000   70.2730  223.7300 C   0  0  0  0  0  0  0  0  0  0  0  0
  139.2760   70.3350  224.7920 C   0  0  0  0  0  0  0  0  0  0  0  0
  139.2680   69.4370  225.8380 C   0  0  0  0  0  0  0  0  0  0  0  0
  140.1720   69.5540  226.8720 C   0  0  0  0  0  0  0  0  0  0  0  0
  140.1540   68.5720  228.0050 C   0  0  0  0  0  0  0  0  0  0  0  0
  139.5260   67.4200  227.5430 F   0  0  0  0  0  0  0  0  0  0  0  0
  139.5220   69.0820  229.0980 F   0  0  0  0  0  0  0  0  0  0  0  0
  141.4620   68.2160  228.2610 F   0  0  0  0  0  0  0  0  0  0  0  0
  141.0760   70.5880  226.8250 C   0  0  0  0  0  0  0  0  0  0  0  0
  141.1280   71.5120  225.8040 C   0  0  0  0  0  0  0  0  0  0  0  0
  140.2060   71.3660  224.7810 C   0  0  0  0  0  0  0  0  0  0  0  0
  140.2030   72.2330  223.7540 N   0  0  0  0  0  0  0  0  0  0  0  0
  139.6070   74.7930  223.0090 H   0  0  0  0  0  0  0  0  0  0  0  0
  140.0563   75.1655  220.0370 H   0  0  0  0  0  0  0  0  0  0  0  0
  138.6279   75.9730  220.7494 H   0  0  0  0  0  0  0  0  0  0  0  0
  143.1938   77.0141  220.3506 H   0  0  0  0  0  0  0  0  0  0  0  0
  141.9488   75.9671  219.5021 H   0  0  0  0  0  0  0  0  0  0  0  0
  143.5181   77.4640  218.1311 H   0  0  0  0  0  0  0  0  0  0  0  0
  141.7282   77.3647  217.7731 H   0  0  0  0  0  0  0  0  0  0  0  0
  143.2444   79.5813  219.1426 H   0  0  0  0  0  0  0  0  0  0  0  0
  142.3287   79.5924  217.5598 H   0  0  0  0  0  0  0  0  0  0  0  0
  141.2559   80.7133  219.5241 H   0  0  0  0  0  0  0  0  0  0  0  0
  140.3136   79.4316  218.5853 H   0  0  0  0  0  0  0  0  0  0  0  0
  139.6985   78.9586  220.5288 H   0  0  0  0  0  0  0  0  0  0  0  0
  139.3665   80.3432  222.4091 H   0  0  0  0  0  0  0  0  0  0  0  0
  140.2155   81.4321  224.4432 H   0  0  0  0  0  0  0  0  0  0  0  0
  142.6569   81.3201  224.9934 H   0  0  0  0  0  0  0  0  0  0  0  0
  144.1471   80.0795  223.4263 H   0  0  0  0  0  0  0  0  0  0  0  0
  137.7053   71.0973  221.8587 H   0  0  0  0  0  0  0  0  0  0  0  0
  137.6522   69.4665  223.7112 H   0  0  0  0  0  0  0  0  0  0  0  0
  138.5328   68.6188  225.8475 H   0  0  0  0  0  0  0  0  0  0  0  0
  141.7987   70.6834  227.6487 H   0  0  0  0  0  0  0  0  0  0  0  0
  141.8668   72.3269  225.8016 H   0  0  0  0  0  0  0  0  0  0  0  0
  1  2  2  0
  2  3  1  0
  3  4  1  0
  4  5  1  0
  5  6  2  0
  5  7  1  0
  7  8  1  0
  8  9  1  0
  9 10  1  0
 10 11  1  0
 11 12  1  0
 12 13  1  0
 13 14  2  0
 14 15  1  0
 15 16  2  0
 16 17  1  0
 17 18  2  0
  2 19  1  0
 19 20  2  0
 20 21  1  0
 21 22  2  0
 22 23  1  0
 23 24  2  0
 24 25  1  0
 25 26  1  0
 25 27  1  0
 25 28  1  0
 24 29  1  0
 29 30  2  0
 30 31  1  0
 31 32  2  0
 12  7  1  0
 18 13  1  0
 32 19  1  0
 31 22  1  0
  3 33  1  0
  4 34  1  0
  4 35  1  0
  8 36  1  0
  8 37  1  0
  9 38  1  0
  9 39  1  0
 10 40  1  0
 10 41  1  0
 11 42  1  0
 11 43  1  0
 12 44  1  1
 14 45  1  0
 15 46  1  0
 16 47  1  0
 17 48  1  0
 20 49  1  0
 21 50  1  0
 23 51  1  0
 29 52  1  0
 30 53  1  0
M  END
>  <smiles>  (25) 
O=C(NCC(=O)N1CCCCC1c1ccccn1)c1ccc2cc(C(F)(F)F)ccc2n1

>  <score_type>  (25) 
oracle

>  <origin>  (25) 
autodockgpu

>  <m_score__min__energy>  (25) 
-8.6699999999999999

>  <m_primary>  (25) 
energy

>  <rmsd>  (25) 
2.721759877685583

>  <m_score__min__rmsd>  (25) 
2.721759877685583

>  <meeko>  (25) 
{"free_energy": -8.28, "intermolecular_energy": -10.07, "internal_energy": -2.16, "cluster_size": 42, "cluster_id": 1, "rank_in_cluster": 19}

>  <energy>  (25) 
-8.16

>  <cluster_rmsd>  (25) 
1.06

>  <cluster>  (25) 
1

$$$$

     RDKit          3D

 53 56  0  0  0  0  0  0  0  0999 V2000
  138.6490   73.3870  220.8680 O   0  0  0  0  0  0  0  0  0  0  0  0
  139.6600   73.1710  221.6120 C   0  0  0  0  0  0  0  0  0  0  0  0
  140.8960   73.8510  221.4290 N   0  0  0  0  0  0  0  0  0  0  0  0
  141.0850   74.8340  220.3830 C   0  0  0  0  0  0  0  0  0  0  0  0
  141.3060   76.1670  221.0210 C   0  0  0  0  0  0  0  0  0  0  0  0
  141.1590   76.2090  222.2730 O   0  0  0  0  0  0  0  0  0  0  0  0
  141.6640   77.3110  220.2450 N   0  0  0  0  0  0  0  0  0  0  0  0
  142.6900   77.1640  219.2470 C   0  0  0  0  0  0  0  0  0  0  0  0
  142.5840   78.1190  218.1060 C   0  0  0  0  0  0  0  0  0  0  0  0
  142.1510   79.5020  218.5140 C   0  0  0  0  0  0  0  0  0  0  0  0
  140.9550   79.5170  219.4010 C   0  0  0  0  0  0  0  0  0  0  0  0
  140.9610   78.5390  220.5240 C   0  0  2  0  0  0  0  0  0  0  0  0
  141.4420   79.0850  221.8010 C   0  0  0  0  0  0  0  0  0  0  0  0
  140.8210   78.8640  223.0210 C   0  0  0  0  0  0  0  0  0  0  0  0
  141.2950   79.3890  224.2050 C   0  0  0  0  0  0  0  0  0  0  0  0
  142.4320   80.1700  224.2040 C   0  0  0  0  0  0  0  0  0  0  0  0
  143.0450   80.3850  222.9840 C   0  0  0  0  0  0  0  0  0  0  0  0
  142.5620   79.8630  221.8600 N   0  0  0  0  0  0  0  0  0  0  0  0
  139.5430   72.1870  222.6930 C   0  0  0  0  0  0  0  0  0  0  0  0
  138.5980   71.1850  222.6260 C   0  0  0  0  0  0  0  0  0  0  0  0
  138.5290   70.2860  223.6680 C   0  0  0  0  0  0  0  0  0  0  0  0
  139.3620   70.3480  224.7650 C   0  0  0  0  0  0  0  0  0  0  0  0
  139.3050   69.4560  225.8150 C   0  0  0  0  0  0  0  0  0  0  0  0
  140.1650   69.5730  226.8840 C   0  0  0  0  0  0  0  0  0  0  0  0
  140.0950   68.5970  228.0210 C   0  0  0  0  0  0  0  0  0  0  0  0
  139.3700   69.2040  229.0420 F   0  0  0  0  0  0  0  0  0  0  0  0
  141.3360   68.2270  228.4400 F   0  0  0  0  0  0  0  0  0  0  0  0
  139.3320   67.5280  227.5980 F   0  0  0  0  0  0  0  0  0  0  0  0
  141.0770   70.6010  226.8710 C   0  0  0  0  0  0  0  0  0  0  0  0
  141.1770   71.5200  225.8480 C   0  0  0  0  0  0  0  0  0  0  0  0
  140.2970   71.3740  224.7880 C   0  0  0  0  0  0  0  0  0  0  0  0
  140.3410   72.2360  223.7580 N   0  0  0  0  0  0  0  0  0  0  0  0
  141.6840   73.6050  222.0980 H   0  0  0  0  0  0  0  0  0  0  0  0
  141.9603   74.5643  219.7738 H   0  0  0  0  0  0  0  0  0  0  0  0
  140.1981   74.8690  219.7333 H   0  0  0  0  0  0  0  0  0  0  0  0
  143.6655   77.3152  219.7322 H   0  0  0  0  0  0  0  0  0  0  0  0
  142.5723   76.1558  218.8232 H   0  0  0  0  0  0  0  0  0  0  0  0
  143.5688   78.1920  217.6213 H   0  0  0  0  0  0  0  0  0  0  0  0
  141.8115   77.7266  217.4284 H   0  0  0  0  0  0  0  0  0  0  0  0
  142.9843   79.9840  219.0463 H   0  0  0  0  0  0  0  0  0  0  0  0
  141.8755   80.0375  217.5935 H   0  0  0  0  0  0  0  0  0  0  0  0
  140.8696   80.5249  219.8333 H   0  0  0  0  0  0  0  0  0  0  0  0
  140.1084   79.2275  218.7611 H   0  0  0  0  0  0  0  0  0  0  0  0
  139.8911   78.3057  220.6279 H   0  0  0  0  0  0  0  0  0  0  0  0
  139.9126   78.2442  223.0455 H   0  0  0  0  0  0  0  0  0  0  0  0
  140.7673   79.1853  225.1484 H   0  0  0  0  0  0  0  0  0  0  0  0
  142.8329   80.6024  225.1326 H   0  0  0  0  0  0  0  0  0  0  0  0
  143.9542   81.0027  222.9416 H   0  0  0  0  0  0  0  0  0  0  0  0
  137.9183   71.1056  221.7648 H   0  0  0  0  0  0  0  0  0  0  0  0
  137.7771   69.4844  223.6227 H   0  0  0  0  0  0  0  0  0  0  0  0
  138.5648   68.6425  225.7985 H   0  0  0  0  0  0  0  0  0  0  0  0
  141.7652   70.6959  227.7239 H   0  0  0  0  0  0  0  0  0  0  0  0
  141.9202   72.3306  225.8723 H   0  0  0  0  0  0  0  0  0  0  0  0
  1  2  2  0
  2  3  1  0
  3  4  1  0
  4  5  1  0
  5  6  2  0
  5  7  1  0
  7  8  1  0
  8  9  1  0
  9 10  1  0
 10 11  1  0
 11 12  1  0
 12 13  1  0
 13 14  2  0
 14 15  1  0
 15 16  2  0
 16 17  1  0
 17 18  2  0
  2 19  1  0
 19 20  2  0
 20 21  1  0
 21 22  2  0
 22 23  1  0
 23 24  2  0
 24 25  1  0
 25 26  1  0
 25 27  1  0
 25 28  1  0
 24 29  1  0
 29 30  2  0
 30 31  1  0
 31 32  2  0
 12  7  1  0
 18 13  1  0
 32 19  1  0
 31 22  1  0
  3 33  1  0
  4 34  1  0
  4 35  1  0
  8 36  1  0
  8 37  1  0
  9 38  1  0
  9 39  1  0
 10 40  1  0
 10 41  1  0
 11 42  1  0
 11 43  1  0
 12 44  1  1
 14 45  1  0
 15 46  1  0
 16 47  1  0
 17 48  1  0
 20 49  1  0
 21 50  1  0
 23 51  1  0
 29 52  1  0
 30 53  1  0
M  END
>  <smiles>  (26) 
O=C(NCC(=O)N1CCCCC1c1ccccn1)c1ccc2cc(C(F)(F)F)ccc2n1

>  <score_type>  (26) 
oracle

>  <origin>  (26) 
autodockgpu

>  <m_score__min__energy>  (26) 
-8.6699999999999999

>  <m_primary>  (26) 
energy

>  <rmsd>  (26) 
3.0337361664665874

>  <m_score__min__rmsd>  (26) 
3.0337361664665874

>  <meeko>  (26) 
{"free_energy": -7.95, "intermolecular_energy": -9.74, "internal_energy": -1.78, "cluster_size": 42, "cluster_id": 1, "rank_in_cluster": 30}

>  <energy>  (26) 
-8.08

>  <cluster_rmsd>  (26) 
0.67

>  <cluster>  (26) 
1

$$$$

     RDKit          3D

 53 56  0  0  0  0  0  0  0  0999 V2000
  138.3770   73.1230  220.7150 O   0  0  0  0  0  0  0  0  0  0  0  0
  139.2890   73.1590  221.6050 C   0  0  0  0  0  0  0  0  0  0  0  0
  140.3350   74.1220  221.5800 N   0  0  0  0  0  0  0  0  0  0  0  0
  140.4330   75.1240  220.5400 C   0  0  0  0  0  0  0  0  0  0  0  0
  141.0530   76.3530  221.1230 C   0  0  0  0  0  0  0  0  0  0  0  0
  141.1340   76.3840  222.3820 O   0  0  0  0  0  0  0  0  0  0  0  0
  141.5190   77.4150  220.2910 N   0  0  0  0  0  0  0  0  0  0  0  0
  142.6090   77.1480  219.3900 C   0  0  0  0  0  0  0  0  0  0  0  0
  142.6320   78.0110  218.1740 C   0  0  0  0  0  0  0  0  0  0  0  0
  142.2330   79.4380  218.4390 C   0  0  0  0  0  0  0  0  0  0  0  0
  140.9760   79.5720  219.2260 C   0  0  0  0  0  0  0  0  0  0  0  0
  140.8540   78.6890  220.4180 C   0  0  2  0  0  0  0  0  0  0  0  0
  141.2630   79.3160  221.6830 C   0  0  0  0  0  0  0  0  0  0  0  0
  142.5690   79.6750  221.9830 C   0  0  0  0  0  0  0  0  0  0  0  0
  142.9240   80.2640  223.1780 C   0  0  0  0  0  0  0  0  0  0  0  0
  141.9610   80.5170  224.1330 C   0  0  0  0  0  0  0  0  0  0  0  0
  140.6630   80.1570  223.8260 C   0  0  0  0  0  0  0  0  0  0  0  0
  140.3540   79.5910  222.6630 N   0  0  0  0  0  0  0  0  0  0  0  0
  139.2540   72.1740  222.6900 C   0  0  0  0  0  0  0  0  0  0  0  0
  138.3120   71.1670  222.6900 C   0  0  0  0  0  0  0  0  0  0  0  0
  138.3220   70.2670  223.7330 C   0  0  0  0  0  0  0  0  0  0  0  0
  139.2310   70.3320  224.7670 C   0  0  0  0  0  0  0  0  0  0  0  0
  139.2550   69.4380  225.8170 C   0  0  0  0  0  0  0  0  0  0  0  0
  140.1890   69.5580  226.8220 C   0  0  0  0  0  0  0  0  0  0  0  0
  140.2050   68.5810  227.9590 C   0  0  0  0  0  0  0  0  0  0  0  0
  139.5400   69.1770  229.0260 F   0  0  0  0  0  0  0  0  0  0  0  0
  141.4760   68.2270  228.2970 F   0  0  0  0  0  0  0  0  0  0  0  0
  139.4310   67.5020  227.5850 F   0  0  0  0  0  0  0  0  0  0  0  0
  141.0930   70.5910  226.7440 C   0  0  0  0  0  0  0  0  0  0  0  0
  141.1140   71.5120  225.7180 C   0  0  0  0  0  0  0  0  0  0  0  0
  140.1610   71.3620  224.7240 C   0  0  0  0  0  0  0  0  0  0  0  0
  140.1270   72.2260  223.6940 N   0  0  0  0  0  0  0  0  0  0  0  0
  141.0500   74.0750  222.3650 H   0  0  0  0  0  0  0  0  0  0  0  0
  141.0594   74.7462  219.7185 H   0  0  0  0  0  0  0  0  0  0  0  0
  139.4330   75.3570  220.1454 H   0  0  0  0  0  0  0  0  0  0  0  0
  143.5515   77.2994  219.9366 H   0  0  0  0  0  0  0  0  0  0  0  0
  142.4774   76.1144  219.0375 H   0  0  0  0  0  0  0  0  0  0  0  0
  143.6525   78.0060  217.7635 H   0  0  0  0  0  0  0  0  0  0  0  0
  141.8954   77.5959  217.4704 H   0  0  0  0  0  0  0  0  0  0  0  0
  143.0453   79.9280  218.9959 H   0  0  0  0  0  0  0  0  0  0  0  0
  142.0515   79.9079  217.4611 H   0  0  0  0  0  0  0  0  0  0  0  0
  140.9045   80.6141  219.5707 H   0  0  0  0  0  0  0  0  0  0  0  0
  140.1671   79.2655  218.5465 H   0  0  0  0  0  0  0  0  0  0  0  0
  139.7696   78.5084  220.4553 H   0  0  0  0  0  0  0  0  0  0  0  0
  143.3537   79.4818  221.2367 H   0  0  0  0  0  0  0  0  0  0  0  0
  143.9735   80.5318  223.3697 H   0  0  0  0  0  0  0  0  0  0  0  0
  142.2153   80.9844  225.0957 H   0  0  0  0  0  0  0  0  0  0  0  0
  139.8661   80.3430  224.5611 H   0  0  0  0  0  0  0  0  0  0  0  0
  137.5729   71.0846  221.8795 H   0  0  0  0  0  0  0  0  0  0  0  0
  137.5724   69.4620  223.7409 H   0  0  0  0  0  0  0  0  0  0  0  0
  138.5201   68.6202  225.8521 H   0  0  0  0  0  0  0  0  0  0  0  0
  141.8411   70.6881  227.5446 H   0  0  0  0  0  0  0  0  0  0  0  0
  141.8523   72.3269  225.6902 H   0  0  0  0  0  0  0  0  0  0  0  0
  1  2  2  0
  2  3  1  0
  3  4  1  0
  4  5  1  0
  5  6  2  0
  5  7  1  0
  7  8  1  0
  8  9  1  0
  9 10  1  0
 10 11  1  0
 11 12  1  0
 12 13  1  0
 13 14  2  0
 14 15  1  0
 15 16  2  0
 16 17  1  0
 17 18  2  0
  2 19  1  0
 19 20  2  0
 20 21  1  0
 21 22  2  0
 22 23  1  0
 23 24  2  0
 24 25  1  0
 25 26  1  0
 25 27  1  0
 25 28  1  0
 24 29  1  0
 29 30  2  0
 30 31  1  0
 31 32  2  0
 12  7  1  0
 18 13  1  0
 32 19  1  0
 31 22  1  0
  3 33  1  0
  4 34  1  0
  4 35  1  0
  8 36  1  0
  8 37  1  0
  9 38  1  0
  9 39  1  0
 10 40  1  0
 10 41  1  0
 11 42  1  0
 11 43  1  0
 12 44  1  1
 14 45  1  0
 15 46  1  0
 16 47  1  0
 17 48  1  0
 20 49  1  0
 21 50  1  0
 23 51  1  0
 29 52  1  0
 30 53  1  0
M  END
>  <smiles>  (27) 
O=C(NCC(=O)N1CCCCC1c1ccccn1)c1ccc2cc(C(F)(F)F)ccc2n1

>  <score_type>  (27) 
oracle

>  <origin>  (27) 
autodockgpu

>  <m_score__min__energy>  (27) 
-8.6699999999999999

>  <m_primary>  (27) 
energy

>  <rmsd>  (27) 
2.770820835613958

>  <m_score__min__rmsd>  (27) 
2.770820835613958

>  <meeko>  (27) 
{"free_energy": -7.65, "intermolecular_energy": -9.44, "internal_energy": -2.22, "cluster_size": 42, "cluster_id": 1, "rank_in_cluster": 38}

>  <energy>  (27) 
-8.02

>  <cluster_rmsd>  (27) 
1.83

>  <cluster>  (27) 
1

$$$$

     RDKit          3D

 53 56  0  0  0  0  0  0  0  0999 V2000
  139.6400   72.3550  220.5210 O   0  0  0  0  0  0  0  0  0  0  0  0
  139.3960   72.7200  221.7170 C   0  0  0  0  0  0  0  0  0  0  0  0
  138.9290   74.0260  222.0310 N   0  0  0  0  0  0  0  0  0  0  0  0
  138.7010   75.0270  221.0090 C   0  0  0  0  0  0  0  0  0  0  0  0
  139.5540   76.2160  221.3120 C   0  0  0  0  0  0  0  0  0  0  0  0
  139.0100   77.1200  222.0050 O   0  0  0  0  0  0  0  0  0  0  0  0
  140.8980   76.3060  220.8390 N   0  0  0  0  0  0  0  0  0  0  0  0
  141.7180   75.1250  220.8900 C   0  0  0  0  0  0  0  0  0  0  0  0
  142.8050   75.0840  219.8690 C   0  0  0  0  0  0  0  0  0  0  0  0
  143.4560   76.4190  219.6250 C   0  0  0  0  0  0  0  0  0  0  0  0
  142.4860   77.5250  219.4000 C   0  0  0  0  0  0  0  0  0  0  0  0
  141.3340   77.5870  220.3420 C   0  0  2  0  0  0  0  0  0  0  0  0
  141.5280   78.4990  221.4780 C   0  0  0  0  0  0  0  0  0  0  0  0
  141.8000   79.8530  221.3470 C   0  0  0  0  0  0  0  0  0  0  0  0
  141.9760   80.6860  222.4320 C   0  0  0  0  0  0  0  0  0  0  0  0
  141.8860   80.1780  223.7110 C   0  0  0  0  0  0  0  0  0  0  0  0
  141.6150   78.8290  223.8330 C   0  0  0  0  0  0  0  0  0  0  0  0
  141.4490   78.0520  222.7660 N   0  0  0  0  0  0  0  0  0  0  0  0
  139.6050   71.7590  222.8040 C   0  0  0  0  0  0  0  0  0  0  0  0
  139.2850   70.4290  222.6330 C   0  0  0  0  0  0  0  0  0  0  0  0
  139.5000   69.5670  223.6860 C   0  0  0  0  0  0  0  0  0  0  0  0
  140.0190   69.9790  224.8950 C   0  0  0  0  0  0  0  0  0  0  0  0
  140.2400   69.1290  225.9570 C   0  0  0  0  0  0  0  0  0  0  0  0
  140.7600   69.6030  227.1410 C   0  0  0  0  0  0  0  0  0  0  0  0
  140.9970   68.6690  228.2900 C   0  0  0  0  0  0  0  0  0  0  0  0
  139.7890   68.5330  228.9660 F   0  0  0  0  0  0  0  0  0  0  0  0
  141.9810   69.1270  229.1120 F   0  0  0  0  0  0  0  0  0  0  0  0
  141.2770   67.4270  227.7590 F   0  0  0  0  0  0  0  0  0  0  0  0
  141.0510   70.9440  227.2280 C   0  0  0  0  0  0  0  0  0  0  0  0
  140.8500   71.8370  226.1970 C   0  0  0  0  0  0  0  0  0  0  0  0
  140.3260   71.3270  225.0210 C   0  0  0  0  0  0  0  0  0  0  0  0
  140.1050   72.1450  223.9770 N   0  0  0  0  0  0  0  0  0  0  0  0
  138.7530   74.2410  223.0560 H   0  0  0  0  0  0  0  0  0  0  0  0
  138.9696   74.6190  220.0234 H   0  0  0  0  0  0  0  0  0  0  0  0
  137.6401   75.3175  220.9956 H   0  0  0  0  0  0  0  0  0  0  0  0
  142.1801   75.0700  221.8867 H   0  0  0  0  0  0  0  0  0  0  0  0
  141.0551   74.2735  220.6766 H   0  0  0  0  0  0  0  0  0  0  0  0
  143.5766   74.3787  220.2112 H   0  0  0  0  0  0  0  0  0  0  0  0
  142.3435   74.7730  218.9202 H   0  0  0  0  0  0  0  0  0  0  0  0
  144.0722   76.6702  220.5009 H   0  0  0  0  0  0  0  0  0  0  0  0
  144.0527   76.3226  218.7060 H   0  0  0  0  0  0  0  0  0  0  0  0
  143.0352   78.4749  219.4776 H   0  0  0  0  0  0  0  0  0  0  0  0
  142.0477   77.3370  218.4087 H   0  0  0  0  0  0  0  0  0  0  0  0
  140.5384   77.9956  219.7017 H   0  0  0  0  0  0  0  0  0  0  0  0
  141.8785   80.2798  220.3362 H   0  0  0  0  0  0  0  0  0  0  0  0
  142.1879   81.7543  222.2774 H   0  0  0  0  0  0  0  0  0  0  0  0
  142.0239   80.8185  224.5946 H   0  0  0  0  0  0  0  0  0  0  0  0
  141.5345   78.3865  224.8368 H   0  0  0  0  0  0  0  0  0  0  0  0
  138.8693   70.0658  221.6815 H   0  0  0  0  0  0  0  0  0  0  0  0
  139.2467   68.5044  223.5566 H   0  0  0  0  0  0  0  0  0  0  0  0
  139.9985   68.0604  225.8580 H   0  0  0  0  0  0  0  0  0  0  0  0
  141.4671   71.3253  228.1722 H   0  0  0  0  0  0  0  0  0  0  0  0
  141.0943   72.9042  226.3035 H   0  0  0  0  0  0  0  0  0  0  0  0
  1  2  2  0
  2  3  1  0
  3  4  1  0
  4  5  1  0
  5  6  2  0
  5  7  1  0
  7  8  1  0
  8  9  1  0
  9 10  1  0
 10 11  1  0
 11 12  1  0
 12 13  1  0
 13 14  2  0
 14 15  1  0
 15 16  2  0
 16 17  1  0
 17 18  2  0
  2 19  1  0
 19 20  2  0
 20 21  1  0
 21 22  2  0
 22 23  1  0
 23 24  2  0
 24 25  1  0
 25 26  1  0
 25 27  1  0
 25 28  1  0
 24 29  1  0
 29 30  2  0
 30 31  1  0
 31 32  2  0
 12  7  1  0
 18 13  1  0
 32 19  1  0
 31 22  1  0
  3 33  1  0
  4 34  1  0
  4 35  1  0
  8 36  1  0
  8 37  1  0
  9 38  1  0
  9 39  1  0
 10 40  1  0
 10 41  1  0
 11 42  1  0
 11 43  1  0
 12 44  1  6
 14 45  1  0
 15 46  1  0
 16 47  1  0
 17 48  1  0
 20 49  1  0
 21 50  1  0
 23 51  1  0
 29 52  1  0
 30 53  1  0
M  END
>  <smiles>  (28) 
O=C(NCC(=O)N1CCCCC1c1ccccn1)c1ccc2cc(C(F)(F)F)ccc2n1

>  <score_type>  (28) 
oracle

>  <origin>  (28) 
autodockgpu

>  <m_score__min__energy>  (28) 
-8.6699999999999999

>  <m_primary>  (28) 
energy

>  <rmsd>  (28) 
2.1705649997779166

>  <m_score__min__rmsd>  (28) 
2.1705649997779166

>  <meeko>  (28) 
{"free_energy": -8.47, "intermolecular_energy": -10.26, "internal_energy": -1.77, "cluster_size": 42, "cluster_id": 1, "rank_in_cluster": 10}

>  <energy>  (28) 
-8.01

>  <cluster_rmsd>  (28) 
0.85

>  <cluster>  (28) 
1

$$$$

     RDKit          3D

 53 56  0  0  0  0  0  0  0  0999 V2000
  138.7730   73.2170  220.3200 O   0  0  0  0  0  0  0  0  0  0  0  0
  139.0890   73.4380  221.5350 C   0  0  0  0  0  0  0  0  0  0  0  0
  139.4350   74.7340  222.0050 N   0  0  0  0  0  0  0  0  0  0  0  0
  139.4530   75.8890  221.1310 C   0  0  0  0  0  0  0  0  0  0  0  0
  140.5800   76.7780  221.5440 C   0  0  0  0  0  0  0  0  0  0  0  0
  140.9350   76.6930  222.7520 O   0  0  0  0  0  0  0  0  0  0  0  0
  141.2070   77.6620  220.6140 N   0  0  0  0  0  0  0  0  0  0  0  0
  142.2270   77.1310  219.7500 C   0  0  0  0  0  0  0  0  0  0  0  0
  142.3790   77.8560  218.4550 C   0  0  0  0  0  0  0  0  0  0  0  0
  142.2260   79.3480  218.5770 C   0  0  0  0  0  0  0  0  0  0  0  0
  141.0190   79.7660  219.3410 C   0  0  0  0  0  0  0  0  0  0  0  0
  140.7650   79.0350  220.6140 C   0  0  2  0  0  0  0  0  0  0  0  0
  141.2870   79.7050  221.8130 C   0  0  0  0  0  0  0  0  0  0  0  0
  140.5210   80.5020  222.6500 C   0  0  0  0  0  0  0  0  0  0  0  0
  141.0380   81.1190  223.7700 C   0  0  0  0  0  0  0  0  0  0  0  0
  142.3690   80.9540  224.0940 C   0  0  0  0  0  0  0  0  0  0  0  0
  143.1240   80.1580  223.2540 C   0  0  0  0  0  0  0  0  0  0  0  0
  142.5950   79.5770  222.1820 N   0  0  0  0  0  0  0  0  0  0  0  0
  139.0930   72.3150  222.4780 C   0  0  0  0  0  0  0  0  0  0  0  0
  138.2060   71.2700  222.3250 C   0  0  0  0  0  0  0  0  0  0  0  0
  138.2520   70.2400  223.2390 C   0  0  0  0  0  0  0  0  0  0  0  0
  139.1430   70.2120  224.2900 C   0  0  0  0  0  0  0  0  0  0  0  0
  139.2010   69.1870  225.2110 C   0  0  0  0  0  0  0  0  0  0  0  0
  140.1150   69.2190  226.2410 C   0  0  0  0  0  0  0  0  0  0  0  0
  140.1700   68.1000  227.2370 C   0  0  0  0  0  0  0  0  0  0  0  0
  141.4950   67.6840  227.3190 F   0  0  0  0  0  0  0  0  0  0  0  0
  139.3450   67.0750  226.8840 F   0  0  0  0  0  0  0  0  0  0  0  0
  139.8620   68.6330  228.4720 F   0  0  0  0  0  0  0  0  0  0  0  0
  140.9640   70.2970  226.3190 C   0  0  0  0  0  0  0  0  0  0  0  0
  140.9490   71.3470  225.4260 C   0  0  0  0  0  0  0  0  0  0  0  0
  140.0170   71.2840  224.4020 C   0  0  0  0  0  0  0  0  0  0  0  0
  139.9490   72.2760  223.4970 N   0  0  0  0  0  0  0  0  0  0  0  0
  139.6850   74.8220  223.0340 H   0  0  0  0  0  0  0  0  0  0  0  0
  139.5986   75.5645  220.0901 H   0  0  0  0  0  0  0  0  0  0  0  0
  138.4988   76.4315  221.2034 H   0  0  0  0  0  0  0  0  0  0  0  0
  143.1876   77.1763  220.2840 H   0  0  0  0  0  0  0  0  0  0  0  0
  141.9222   76.1040  219.5000 H   0  0  0  0  0  0  0  0  0  0  0  0
  143.3796   77.6411  218.0517 H   0  0  0  0  0  0  0  0  0  0  0  0
  141.5754   77.5030  217.7920 H   0  0  0  0  0  0  0  0  0  0  0  0
  143.1151   79.7476  219.0868 H   0  0  0  0  0  0  0  0  0  0  0  0
  142.1132   79.7437  217.5568 H   0  0  0  0  0  0  0  0  0  0  0  0
  141.1267   80.8338  219.5821 H   0  0  0  0  0  0  0  0  0  0  0  0
  140.1623   79.5348  218.6909 H   0  0  0  0  0  0  0  0  0  0  0  0
  139.6662   79.0419  220.6648 H   0  0  0  0  0  0  0  0  0  0  0  0
  139.4573   80.6482  222.4110 H   0  0  0  0  0  0  0  0  0  0  0  0
  140.3900   81.7419  224.4042 H   0  0  0  0  0  0  0  0  0  0  0  0
  142.8090   81.4342  224.9805 H   0  0  0  0  0  0  0  0  0  0  0  0
  144.1895   80.0012  223.4781 H   0  0  0  0  0  0  0  0  0  0  0  0
  137.4823   71.2592  221.4967 H   0  0  0  0  0  0  0  0  0  0  0  0
  137.5468   69.4036  223.1248 H   0  0  0  0  0  0  0  0  0  0  0  0
  138.5104   68.3354  225.1221 H   0  0  0  0  0  0  0  0  0  0  0  0
  141.6961   70.3234  227.1396 H   0  0  0  0  0  0  0  0  0  0  0  0
  141.6436   72.1946  225.5215 H   0  0  0  0  0  0  0  0  0  0  0  0
  1  2  2  0
  2  3  1  0
  3  4  1  0
  4  5  1  0
  5  6  2  0
  5  7  1  0
  7  8  1  0
  8  9  1  0
  9 10  1  0
 10 11  1  0
 11 12  1  0
 12 13  1  0
 13 14  2  0
 14 15  1  0
 15 16  2  0
 16 17  1  0
 17 18  2  0
  2 19  1  0
 19 20  2  0
 20 21  1  0
 21 22  2  0
 22 23  1  0
 23 24  2  0
 24 25  1  0
 25 26  1  0
 25 27  1  0
 25 28  1  0
 24 29  1  0
 29 30  2  0
 30 31  1  0
 31 32  2  0
 12  7  1  0
 18 13  1  0
 32 19  1  0
 31 22  1  0
  3 33  1  0
  4 34  1  0
  4 35  1  0
  8 36  1  0
  8 37  1  0
  9 38  1  0
  9 39  1  0
 10 40  1  0
 10 41  1  0
 11 42  1  0
 11 43  1  0
 12 44  1  1
 14 45  1  0
 15 46  1  0
 16 47  1  0
 17 48  1  0
 20 49  1  0
 21 50  1  0
 23 51  1  0
 29 52  1  0
 30 53  1  0
M  END
>  <smiles>  (29) 
O=C(NCC(=O)N1CCCCC1c1ccccn1)c1ccc2cc(C(F)(F)F)ccc2n1

>  <score_type>  (29) 
oracle

>  <origin>  (29) 
autodockgpu

>  <m_score__min__energy>  (29) 
-8.6699999999999999

>  <m_primary>  (29) 
energy

>  <rmsd>  (29) 
2.824805581904536

>  <m_score__min__rmsd>  (29) 
2.824805581904536

>  <meeko>  (29) 
{"free_energy": -8.08, "intermolecular_energy": -9.87, "internal_energy": -2.21, "cluster_size": 42, "cluster_id": 1, "rank_in_cluster": 26}

>  <energy>  (29) 
-7.97

>  <cluster_rmsd>  (29) 
1.38

>  <cluster>  (29) 
1

$$$$

     RDKit          3D

 53 56  0  0  0  0  0  0  0  0999 V2000
  138.5770   73.1400  220.3580 O   0  0  0  0  0  0  0  0  0  0  0  0
  139.0330   73.3600  221.5270 C   0  0  0  0  0  0  0  0  0  0  0  0
  139.5090   74.6390  221.9280 N   0  0  0  0  0  0  0  0  0  0  0  0
  139.5050   75.7750  221.0300 C   0  0  0  0  0  0  0  0  0  0  0  0
  140.5720   76.7270  221.4660 C   0  0  0  0  0  0  0  0  0  0  0  0
  140.7860   76.7820  222.7080 O   0  0  0  0  0  0  0  0  0  0  0  0
  141.2950   77.5150  220.5210 N   0  0  0  0  0  0  0  0  0  0  0  0
  142.3430   76.8810  219.7640 C   0  0  0  0  0  0  0  0  0  0  0  0
  142.6090   77.5040  218.4350 C   0  0  0  0  0  0  0  0  0  0  0  0
  142.5160   79.0060  218.4430 C   0  0  0  0  0  0  0  0  0  0  0  0
  141.2820   79.5260  219.0950 C   0  0  0  0  0  0  0  0  0  0  0  0
  140.9160   78.9010  220.3950 C   0  0  2  0  0  0  0  0  0  0  0  0
  141.3920   79.6350  221.5770 C   0  0  0  0  0  0  0  0  0  0  0  0
  140.8610   80.8430  222.0030 C   0  0  0  0  0  0  0  0  0  0  0  0
  141.3270   81.5090  223.1170 C   0  0  0  0  0  0  0  0  0  0  0  0
  142.3630   80.9750  223.8550 C   0  0  0  0  0  0  0  0  0  0  0  0
  142.8860   79.7720  223.4230 C   0  0  0  0  0  0  0  0  0  0  0  0
  142.4130   79.1540  222.3440 N   0  0  0  0  0  0  0  0  0  0  0  0
  139.0680   72.2550  222.4900 C   0  0  0  0  0  0  0  0  0  0  0  0
  138.1930   71.1960  222.3720 C   0  0  0  0  0  0  0  0  0  0  0  0
  138.2670   70.1840  223.3030 C   0  0  0  0  0  0  0  0  0  0  0  0
  139.1750   70.1870  224.3400 C   0  0  0  0  0  0  0  0  0  0  0  0
  139.2610   69.1810  225.2790 C   0  0  0  0  0  0  0  0  0  0  0  0
  140.1910   69.2430  226.2930 C   0  0  0  0  0  0  0  0  0  0  0  0
  140.2760   68.1440  227.3090 C   0  0  0  0  0  0  0  0  0  0  0  0
  139.6700   68.6080  228.4710 F   0  0  0  0  0  0  0  0  0  0  0  0
  141.5660   67.7680  227.5330 F   0  0  0  0  0  0  0  0  0  0  0  0
  139.4880   67.1050  226.8580 F   0  0  0  0  0  0  0  0  0  0  0  0
  141.0260   70.3340  226.3380 C   0  0  0  0  0  0  0  0  0  0  0  0
  140.9830   71.3670  225.4260 C   0  0  0  0  0  0  0  0  0  0  0  0
  140.0360   71.2730  224.4190 C   0  0  0  0  0  0  0  0  0  0  0  0
  139.9410   72.2460  223.4960 N   0  0  0  0  0  0  0  0  0  0  0  0
  139.8710   74.7280  222.9220 H   0  0  0  0  0  0  0  0  0  0  0  0
  139.7063   75.4369  220.0028 H   0  0  0  0  0  0  0  0  0  0  0  0
  138.5237   76.2714  221.0540 H   0  0  0  0  0  0  0  0  0  0  0  0
  143.2692   76.9250  220.3558 H   0  0  0  0  0  0  0  0  0  0  0  0
  142.0078   75.8522  219.5661 H   0  0  0  0  0  0  0  0  0  0  0  0
  143.6224   77.2202  218.1147 H   0  0  0  0  0  0  0  0  0  0  0  0
  141.8338   77.1370  217.7463 H   0  0  0  0  0  0  0  0  0  0  0  0
  143.3880   79.4051  218.9818 H   0  0  0  0  0  0  0  0  0  0  0  0
  142.4864   79.3318  217.3928 H   0  0  0  0  0  0  0  0  0  0  0  0
  141.4213   80.6034  219.2674 H   0  0  0  0  0  0  0  0  0  0  0  0
  140.4589   79.2819  218.4074 H   0  0  0  0  0  0  0  0  0  0  0  0
  139.8176   78.9561  220.3718 H   0  0  0  0  0  0  0  0  0  0  0  0
  140.0347   81.2880  221.4292 H   0  0  0  0  0  0  0  0  0  0  0  0
  140.8731   82.4651  223.4168 H   0  0  0  0  0  0  0  0  0  0  0  0
  142.7550   81.4846  224.7476 H   0  0  0  0  0  0  0  0  0  0  0  0
  143.7135   79.3138  223.9845 H   0  0  0  0  0  0  0  0  0  0  0  0
  137.4558   71.1605  221.5563 H   0  0  0  0  0  0  0  0  0  0  0  0
  137.5713   69.3365  223.2153 H   0  0  0  0  0  0  0  0  0  0  0  0
  138.5795   68.3197  225.2176 H   0  0  0  0  0  0  0  0  0  0  0  0
  141.7699   70.3857  227.1467 H   0  0  0  0  0  0  0  0  0  0  0  0
  141.6679   72.2250  225.4945 H   0  0  0  0  0  0  0  0  0  0  0  0
  1  2  2  0
  2  3  1  0
  3  4  1  0
  4  5  1  0
  5  6  2  0
  5  7  1  0
  7  8  1  0
  8  9  1  0
  9 10  1  0
 10 11  1  0
 11 12  1  0
 12 13  1  0
 13 14  2  0
 14 15  1  0
 15 16  2  0
 16 17  1  0
 17 18  2  0
  2 19  1  0
 19 20  2  0
 20 21  1  0
 21 22  2  0
 22 23  1  0
 23 24  2  0
 24 25  1  0
 25 26  1  0
 25 27  1  0
 25 28  1  0
 24 29  1  0
 29 30  2  0
 30 31  1  0
 31 32  2  0
 12  7  1  0
 18 13  1  0
 32 19  1  0
 31 22  1  0
  3 33  1  0
  4 34  1  0
  4 35  1  0
  8 36  1  0
  8 37  1  0
  9 38  1  0
  9 39  1  0
 10 40  1  0
 10 41  1  0
 11 42  1  0
 11 43  1  0
 12 44  1  1
 14 45  1  0
 15 46  1  0
 16 47  1  0
 17 48  1  0
 20 49  1  0
 21 50  1  0
 23 51  1  0
 29 52  1  0
 30 53  1  0
M  END
>  <smiles>  (30) 
O=C(NCC(=O)N1CCCCC1c1ccccn1)c1ccc2cc(C(F)(F)F)ccc2n1

>  <score_type>  (30) 
oracle

>  <origin>  (30) 
autodockgpu

>  <m_score__min__energy>  (30) 
-8.6699999999999999

>  <m_primary>  (30) 
energy

>  <rmsd>  (30) 
2.6378519449925637

>  <m_score__min__rmsd>  (30) 
2.6378519449925637

>  <meeko>  (30) 
{"free_energy": -7.92, "intermolecular_energy": -9.71, "internal_energy": -2.22, "cluster_size": 42, "cluster_id": 1, "rank_in_cluster": 31}

>  <energy>  (30) 
-7.95

>  <cluster_rmsd>  (30) 
1.08

>  <cluster>  (30) 
1

$$$$

     RDKit          3D

 53 56  0  0  0  0  0  0  0  0999 V2000
  141.0040   73.0540  220.8740 O   0  0  0  0  0  0  0  0  0  0  0  0
  140.1520   73.2150  221.8080 C   0  0  0  0  0  0  0  0  0  0  0  0
  139.3510   74.3860  221.9100 N   0  0  0  0  0  0  0  0  0  0  0  0
  139.4520   75.4720  220.9580 C   0  0  0  0  0  0  0  0  0  0  0  0
  140.4690   76.4460  221.4580 C   0  0  0  0  0  0  0  0  0  0  0  0
  140.5930   76.5180  222.7110 O   0  0  0  0  0  0  0  0  0  0  0  0
  141.2450   77.2370  220.5570 N   0  0  0  0  0  0  0  0  0  0  0  0
  142.3330   76.6040  219.8590 C   0  0  0  0  0  0  0  0  0  0  0  0
  142.6740   77.2310  218.5480 C   0  0  0  0  0  0  0  0  0  0  0  0
  142.5820   78.7330  218.5560 C   0  0  0  0  0  0  0  0  0  0  0  0
  141.3140   79.2530  219.1390 C   0  0  0  0  0  0  0  0  0  0  0  0
  140.8750   78.6230  220.4150 C   0  0  2  0  0  0  0  0  0  0  0  0
  141.2840   79.3530  221.6240 C   0  0  0  0  0  0  0  0  0  0  0  0
  142.5790   79.3640  222.1210 C   0  0  0  0  0  0  0  0  0  0  0  0
  142.9350   80.0590  223.2580 C   0  0  0  0  0  0  0  0  0  0  0  0
  141.9830   80.7800  223.9490 C   0  0  0  0  0  0  0  0  0  0  0  0
  140.6960   80.7630  223.4470 C   0  0  0  0  0  0  0  0  0  0  0  0
  140.3860   80.0830  222.3460 N   0  0  0  0  0  0  0  0  0  0  0  0
  139.9950   72.1560  222.8090 C   0  0  0  0  0  0  0  0  0  0  0  0
  139.2050   71.0570  222.5460 C   0  0  0  0  0  0  0  0  0  0  0  0
  139.0910   70.0900  223.5200 C   0  0  0  0  0  0  0  0  0  0  0  0
  139.7310   70.1770  224.7380 C   0  0  0  0  0  0  0  0  0  0  0  0
  139.6260   69.2170  225.7230 C   0  0  0  0  0  0  0  0  0  0  0  0
  140.2910   69.3630  226.9210 C   0  0  0  0  0  0  0  0  0  0  0  0
  140.1700   68.3140  227.9840 C   0  0  0  0  0  0  0  0  0  0  0  0
  139.5930   68.9180  229.0970 F   0  0  0  0  0  0  0  0  0  0  0  0
  141.3790   67.7630  228.2840 F   0  0  0  0  0  0  0  0  0  0  0  0
  139.2540   67.3820  227.5410 F   0  0  0  0  0  0  0  0  0  0  0  0
  141.0570   70.4900  227.1010 C   0  0  0  0  0  0  0  0  0  0  0  0
  141.1970   71.4790  226.1510 C   0  0  0  0  0  0  0  0  0  0  0  0
  140.5150   71.3010  224.9580 C   0  0  0  0  0  0  0  0  0  0  0  0
  140.6080   72.2280  223.9890 N   0  0  0  0  0  0  0  0  0  0  0  0
  138.6680   74.4310  222.7230 H   0  0  0  0  0  0  0  0  0  0  0  0
  139.7637   75.0796  219.9788 H   0  0  0  0  0  0  0  0  0  0  0  0
  138.4767   75.9684  220.8467 H   0  0  0  0  0  0  0  0  0  0  0  0
  143.2245   76.6453  220.5021 H   0  0  0  0  0  0  0  0  0  0  0  0
  142.0088   75.5759  219.6398 H   0  0  0  0  0  0  0  0  0  0  0  0
  143.7035   76.9471  218.2842 H   0  0  0  0  0  0  0  0  0  0  0  0
  141.9386   76.8669  217.8155 H   0  0  0  0  0  0  0  0  0  0  0  0
  143.4227   79.1291  219.1445 H   0  0  0  0  0  0  0  0  0  0  0  0
  142.6116   79.0620  217.5068 H   0  0  0  0  0  0  0  0  0  0  0  0
  141.4449   80.3296  219.3229 H   0  0  0  0  0  0  0  0  0  0  0  0
  140.5303   79.0134  218.4052 H   0  0  0  0  0  0  0  0  0  0  0  0
  139.7796   78.6784  220.3305 H   0  0  0  0  0  0  0  0  0  0  0  0
  143.3539   78.7951  221.5864 H   0  0  0  0  0  0  0  0  0  0  0  0
  143.9759   80.0385  223.6131 H   0  0  0  0  0  0  0  0  0  0  0  0
  142.2374   81.3432  224.8590 H   0  0  0  0  0  0  0  0  0  0  0  0
  139.9084   81.3252  223.9701 H   0  0  0  0  0  0  0  0  0  0  0  0
  138.6802   70.9554  221.5846 H   0  0  0  0  0  0  0  0  0  0  0  0
  138.4623   69.2104  223.3174 H   0  0  0  0  0  0  0  0  0  0  0  0
  139.0050   68.3257  225.5503 H   0  0  0  0  0  0  0  0  0  0  0  0
  141.5882   70.6094  228.0568 H   0  0  0  0  0  0  0  0  0  0  0  0
  141.8204   72.3672  226.3314 H   0  0  0  0  0  0  0  0  0  0  0  0
  1  2  2  0
  2  3  1  0
  3  4  1  0
  4  5  1  0
  5  6  2  0
  5  7  1  0
  7  8  1  0
  8  9  1  0
  9 10  1  0
 10 11  1  0
 11 12  1  0
 12 13  1  0
 13 14  2  0
 14 15  1  0
 15 16  2  0
 16 17  1  0
 17 18  2  0
  2 19  1  0
 19 20  2  0
 20 21  1  0
 21 22  2  0
 22 23  1  0
 23 24  2  0
 24 25  1  0
 25 26  1  0
 25 27  1  0
 25 28  1  0
 24 29  1  0
 29 30  2  0
 30 31  1  0
 31 32  2  0
 12  7  1  0
 18 13  1  0
 32 19  1  0
 31 22  1  0
  3 33  1  0
  4 34  1  0
  4 35  1  0
  8 36  1  0
  8 37  1  0
  9 38  1  0
  9 39  1  0
 10 40  1  0
 10 41  1  0
 11 42  1  0
 11 43  1  0
 12 44  1  6
 14 45  1  0
 15 46  1  0
 16 47  1  0
 17 48  1  0
 20 49  1  0
 21 50  1  0
 23 51  1  0
 29 52  1  0
 30 53  1  0
M  END
>  <smiles>  (31) 
O=C(NCC(=O)N1CCCCC1c1ccccn1)c1ccc2cc(C(F)(F)F)ccc2n1

>  <score_type>  (31) 
oracle

>  <origin>  (31) 
autodockgpu

>  <m_score__min__energy>  (31) 
-8.6699999999999999

>  <m_primary>  (31) 
energy

>  <rmsd>  (31) 
2.6481829407632382

>  <m_score__min__rmsd>  (31) 
2.6481829407632382

>  <meeko>  (31) 
{"free_energy": -8.63, "intermolecular_energy": -10.42, "internal_energy": -1.65, "cluster_size": 42, "cluster_id": 1, "rank_in_cluster": 3}

>  <energy>  (31) 
-7.92

>  <cluster_rmsd>  (31) 
0.68

>  <cluster>  (31) 
1

$$$$

     RDKit          3D

 53 56  0  0  0  0  0  0  0  0999 V2000
  137.9550   73.7900  220.9390 O   0  0  0  0  0  0  0  0  0  0  0  0
  139.0120   73.5830  221.6210 C   0  0  0  0  0  0  0  0  0  0  0  0
  140.1420   74.4430  221.5490 N   0  0  0  0  0  0  0  0  0  0  0  0
  140.1660   75.6110  220.6940 C   0  0  0  0  0  0  0  0  0  0  0  0
  141.5900   75.9680  220.4180 C   0  0  0  0  0  0  0  0  0  0  0  0
  142.4540   75.1570  220.8530 O   0  0  0  0  0  0  0  0  0  0  0  0
  141.9340   77.1550  219.7040 N   0  0  0  0  0  0  0  0  0  0  0  0
  143.0100   77.0900  218.7510 C   0  0  0  0  0  0  0  0  0  0  0  0
  142.9150   78.0850  217.6430 C   0  0  0  0  0  0  0  0  0  0  0  0
  142.4050   79.4310  218.0820 C   0  0  0  0  0  0  0  0  0  0  0  0
  141.1700   79.3620  218.9110 C   0  0  0  0  0  0  0  0  0  0  0  0
  141.1670   78.3410  219.9950 C   0  0  2  0  0  0  0  0  0  0  0  0
  141.5650   78.8550  221.3140 C   0  0  0  0  0  0  0  0  0  0  0  0
  142.1910   80.0770  221.5120 C   0  0  0  0  0  0  0  0  0  0  0  0
  142.5530   80.5350  222.7620 C   0  0  0  0  0  0  0  0  0  0  0  0
  142.2940   79.7650  223.8770 C   0  0  0  0  0  0  0  0  0  0  0  0
  141.6710   78.5500  223.6710 C   0  0  0  0  0  0  0  0  0  0  0  0
  141.3340   78.1380  222.4520 N   0  0  0  0  0  0  0  0  0  0  0  0
  139.0600   72.4170  222.5090 C   0  0  0  0  0  0  0  0  0  0  0  0
  138.1680   71.3780  222.3480 C   0  0  0  0  0  0  0  0  0  0  0  0
  138.2560   70.3060  223.2090 C   0  0  0  0  0  0  0  0  0  0  0  0
  139.1940   70.2320  224.2170 C   0  0  0  0  0  0  0  0  0  0  0  0
  139.2940   69.1670  225.0860 C   0  0  0  0  0  0  0  0  0  0  0  0
  140.2530   69.1530  226.0750 C   0  0  0  0  0  0  0  0  0  0  0  0
  140.3540   67.9890  227.0140 C   0  0  0  0  0  0  0  0  0  0  0  0
  141.6190   67.4340  226.8500 F   0  0  0  0  0  0  0  0  0  0  0  0
  139.3720   67.0740  226.7840 F   0  0  0  0  0  0  0  0  0  0  0  0
  140.3240   68.4940  228.2980 F   0  0  0  0  0  0  0  0  0  0  0  0
  141.1030   70.2300  226.1650 C   0  0  0  0  0  0  0  0  0  0  0  0
  141.0460   71.3210  225.3240 C   0  0  0  0  0  0  0  0  0  0  0  0
  140.0700   71.3020  224.3410 C   0  0  0  0  0  0  0  0  0  0  0  0
  139.9610   72.3340  223.4860 N   0  0  0  0  0  0  0  0  0  0  0  0
  140.9780   74.1900  222.1540 H   0  0  0  0  0  0  0  0  0  0  0  0
  139.6492   75.3893  219.7486 H   0  0  0  0  0  0  0  0  0  0  0  0
  139.6564   76.4507  221.1891 H   0  0  0  0  0  0  0  0  0  0  0  0
  143.9550   77.2618  219.2872 H   0  0  0  0  0  0  0  0  0  0  0  0
  142.9555   76.0954  218.2844 H   0  0  0  0  0  0  0  0  0  0  0  0
  143.9168   78.2178  217.2085 H   0  0  0  0  0  0  0  0  0  0  0  0
  142.1916   77.6884  216.9154 H   0  0  0  0  0  0  0  0  0  0  0  0
  143.1916   79.9251  218.6712 H   0  0  0  0  0  0  0  0  0  0  0  0
  142.1493   79.9908  217.1703 H   0  0  0  0  0  0  0  0  0  0  0  0
  141.0218   80.3475  219.3766 H   0  0  0  0  0  0  0  0  0  0  0  0
  140.3664   79.0643  218.2213 H   0  0  0  0  0  0  0  0  0  0  0  0
  140.1044   78.0600  220.0383 H   0  0  0  0  0  0  0  0  0  0  0  0
  142.4076   80.7066  220.6364 H   0  0  0  0  0  0  0  0  0  0  0  0
  143.0470   81.5119  222.8694 H   0  0  0  0  0  0  0  0  0  0  0  0
  142.5716   80.1041  224.8859 H   0  0  0  0  0  0  0  0  0  0  0  0
  141.4481   77.9075  224.5356 H   0  0  0  0  0  0  0  0  0  0  0  0
  137.4071   71.4042  221.5541 H   0  0  0  0  0  0  0  0  0  0  0  0
  137.5475   69.4734  223.0871 H   0  0  0  0  0  0  0  0  0  0  0  0
  138.6004   68.3188  224.9889 H   0  0  0  0  0  0  0  0  0  0  0  0
  141.8715   70.2206  226.9520 H   0  0  0  0  0  0  0  0  0  0  0  0
  141.7422   72.1662  225.4285 H   0  0  0  0  0  0  0  0  0  0  0  0
  1  2  2  0
  2  3  1  0
  3  4  1  0
  4  5  1  0
  5  6  2  0
  5  7  1  0
  7  8  1  0
  8  9  1  0
  9 10  1  0
 10 11  1  0
 11 12  1  0
 12 13  1  0
 13 14  2  0
 14 15  1  0
 15 16  2  0
 16 17  1  0
 17 18  2  0
  2 19  1  0
 19 20  2  0
 20 21  1  0
 21 22  2  0
 22 23  1  0
 23 24  2  0
 24 25  1  0
 25 26  1  0
 25 27  1  0
 25 28  1  0
 24 29  1  0
 29 30  2  0
 30 31  1  0
 31 32  2  0
 12  7  1  0
 18 13  1  0
 32 19  1  0
 31 22  1  0
  3 33  1  0
  4 34  1  0
  4 35  1  0
  8 36  1  0
  8 37  1  0
  9 38  1  0
  9 39  1  0
 10 40  1  0
 10 41  1  0
 11 42  1  0
 11 43  1  0
 12 44  1  1
 14 45  1  0
 15 46  1  0
 16 47  1  0
 17 48  1  0
 20 49  1  0
 21 50  1  0
 23 51  1  0
 29 52  1  0
 30 53  1  0
M  END
>  <smiles>  (32) 
O=C(NCC(=O)N1CCCCC1c1ccccn1)c1ccc2cc(C(F)(F)F)ccc2n1

>  <score_type>  (32) 
oracle

>  <origin>  (32) 
autodockgpu

>  <m_score__min__energy>  (32) 
-8.6699999999999999

>  <m_primary>  (32) 
energy

>  <rmsd>  (32) 
2.7695466172715317

>  <m_score__min__rmsd>  (32) 
2.7695466172715317

>  <meeko>  (32) 
{"free_energy": -7.57, "intermolecular_energy": -9.36, "internal_energy": -2.35, "cluster_size": 42, "cluster_id": 1, "rank_in_cluster": 39}

>  <energy>  (32) 
-7.85

>  <cluster_rmsd>  (32) 
0.78

>  <cluster>  (32) 
1

$$$$

     RDKit          3D

 53 56  0  0  0  0  0  0  0  0999 V2000
  140.3280   73.1280  220.4820 O   0  0  0  0  0  0  0  0  0  0  0  0
  139.8610   73.3600  221.6450 C   0  0  0  0  0  0  0  0  0  0  0  0
  139.4390   74.6560  222.0490 N   0  0  0  0  0  0  0  0  0  0  0  0
  139.5140   75.7990  221.1630 C   0  0  0  0  0  0  0  0  0  0  0  0
  140.7060   76.6160  221.5450 C   0  0  0  0  0  0  0  0  0  0  0  0
  141.0640   76.5360  222.7520 O   0  0  0  0  0  0  0  0  0  0  0  0
  141.3850   77.4300  220.5890 N   0  0  0  0  0  0  0  0  0  0  0  0
  142.4670   76.8450  219.8410 C   0  0  0  0  0  0  0  0  0  0  0  0
  142.6990   77.4640  218.5030 C   0  0  0  0  0  0  0  0  0  0  0  0
  142.5230   78.9580  218.4900 C   0  0  0  0  0  0  0  0  0  0  0  0
  141.2620   79.4180  219.1350 C   0  0  0  0  0  0  0  0  0  0  0  0
  140.9310   78.7910  220.4440 C   0  0  2  0  0  0  0  0  0  0  0  0
  141.3640   79.5660  221.6160 C   0  0  0  0  0  0  0  0  0  0  0  0
  142.5650   79.3620  222.2780 C   0  0  0  0  0  0  0  0  0  0  0  0
  142.9460   80.1060  223.3750 C   0  0  0  0  0  0  0  0  0  0  0  0
  142.1180   81.0990  223.8550 C   0  0  0  0  0  0  0  0  0  0  0  0
  140.9240   81.2960  223.1880 C   0  0  0  0  0  0  0  0  0  0  0  0
  140.5860   80.5620  222.1320 N   0  0  0  0  0  0  0  0  0  0  0  0
  139.7550   72.2490  222.5960 C   0  0  0  0  0  0  0  0  0  0  0  0
  138.9970   71.1370  222.2920 C   0  0  0  0  0  0  0  0  0  0  0  0
  138.9310   70.1220  223.2200 C   0  0  0  0  0  0  0  0  0  0  0  0
  139.5870   70.1720  224.4310 C   0  0  0  0  0  0  0  0  0  0  0  0
  139.5310   69.1640  225.3690 C   0  0  0  0  0  0  0  0  0  0  0  0
  140.2090   69.2750  226.5630 C   0  0  0  0  0  0  0  0  0  0  0  0
  140.1410   68.1720  227.5760 C   0  0  0  0  0  0  0  0  0  0  0  0
  141.4310   67.6790  227.7380 F   0  0  0  0  0  0  0  0  0  0  0  0
  139.2750   67.1930  227.1930 F   0  0  0  0  0  0  0  0  0  0  0  0
  139.7990   68.7440  228.7850 F   0  0  0  0  0  0  0  0  0  0  0  0
  140.9410   70.4160  226.7860 C   0  0  0  0  0  0  0  0  0  0  0  0
  141.0330   71.4540  225.8830 C   0  0  0  0  0  0  0  0  0  0  0  0
  140.3380   71.3100  224.6930 C   0  0  0  0  0  0  0  0  0  0  0  0
  140.3840   72.2850  223.7690 N   0  0  0  0  0  0  0  0  0  0  0  0
  139.0620   74.7530  223.0370 H   0  0  0  0  0  0  0  0  0  0  0  0
  139.6166   75.4564  220.1228 H   0  0  0  0  0  0  0  0  0  0  0  0
  138.5990   76.4035  221.2484 H   0  0  0  0  0  0  0  0  0  0  0  0
  143.3889   76.9484  220.4321 H   0  0  0  0  0  0  0  0  0  0  0  0
  142.1898   75.7965  219.6572 H   0  0  0  0  0  0  0  0  0  0  0  0
  143.7268   77.2325  218.1866 H   0  0  0  0  0  0  0  0  0  0  0  0
  141.9455   77.0452  217.8197 H   0  0  0  0  0  0  0  0  0  0  0  0
  143.3713   79.4122  219.0229 H   0  0  0  0  0  0  0  0  0  0  0  0
  142.4758   79.2669  217.4353 H   0  0  0  0  0  0  0  0  0  0  0  0
  141.3415   80.5037  219.2926 H   0  0  0  0  0  0  0  0  0  0  0  0
  140.4537   79.1199  218.4510 H   0  0  0  0  0  0  0  0  0  0  0  0
  139.8313   78.7851  220.4197 H   0  0  0  0  0  0  0  0  0  0  0  0
  143.2414   78.5748  221.9135 H   0  0  0  0  0  0  0  0  0  0  0  0
  143.9097   79.9075  223.8668 H   0  0  0  0  0  0  0  0  0  0  0  0
  142.3955   81.7065  224.7290 H   0  0  0  0  0  0  0  0  0  0  0  0
  140.2362   82.0793  223.5392 H   0  0  0  0  0  0  0  0  0  0  0  0
  138.4602   71.0634  221.3347 H   0  0  0  0  0  0  0  0  0  0  0  0
  138.3284   69.2324  222.9846 H   0  0  0  0  0  0  0  0  0  0  0  0
  138.9383   68.2607  225.1620 H   0  0  0  0  0  0  0  0  0  0  0  0
  141.4841   70.5066  227.7383 H   0  0  0  0  0  0  0  0  0  0  0  0
  141.6295   72.3531  226.0971 H   0  0  0  0  0  0  0  0  0  0  0  0
  1  2  2  0
  2  3  1  0
  3  4  1  0
  4  5  1  0
  5  6  2  0
  5  7  1  0
  7  8  1  0
  8  9  1  0
  9 10  1  0
 10 11  1  0
 11 12  1  0
 12 13  1  0
 13 14  2  0
 14 15  1  0
 15 16  2  0
 16 17  1  0
 17 18  2  0
  2 19  1  0
 19 20  2  0
 20 21  1  0
 21 22  2  0
 22 23  1  0
 23 24  2  0
 24 25  1  0
 25 26  1  0
 25 27  1  0
 25 28  1  0
 24 29  1  0
 29 30  2  0
 30 31  1  0
 31 32  2  0
 12  7  1  0
 18 13  1  0
 32 19  1  0
 31 22  1  0
  3 33  1  0
  4 34  1  0
  4 35  1  0
  8 36  1  0
  8 37  1  0
  9 38  1  0
  9 39  1  0
 10 40  1  0
 10 41  1  0
 11 42  1  0
 11 43  1  0
 12 44  1  1
 14 45  1  0
 15 46  1  0
 16 47  1  0
 17 48  1  0
 20 49  1  0
 21 50  1  0
 23 51  1  0
 29 52  1  0
 30 53  1  0
M  END
>  <smiles>  (33) 
O=C(NCC(=O)N1CCCCC1c1ccccn1)c1ccc2cc(C(F)(F)F)ccc2n1

>  <score_type>  (33) 
oracle

>  <origin>  (33) 
autodockgpu

>  <m_score__min__energy>  (33) 
-8.6699999999999999

>  <m_primary>  (33) 
energy

>  <rmsd>  (33) 
2.8099946210000013

>  <m_score__min__rmsd>  (33) 
2.8099946210000013

>  <meeko>  (33) 
{"free_energy": -8.67, "intermolecular_energy": -10.46, "internal_energy": -1.71, "cluster_size": 42, "cluster_id": 1, "rank_in_cluster": 1}

>  <energy>  (33) 
-7.82

>  <cluster_rmsd>  (33) 
0.79

>  <cluster>  (33) 
1

$$$$

     RDKit          3D

 53 56  0  0  0  0  0  0  0  0999 V2000
  139.0200   73.1400  220.3370 O   0  0  0  0  0  0  0  0  0  0  0  0
  139.2110   73.3900  221.5710 C   0  0  0  0  0  0  0  0  0  0  0  0
  139.4220   74.7110  222.0540 N   0  0  0  0  0  0  0  0  0  0  0  0
  139.4340   75.8590  221.1710 C   0  0  0  0  0  0  0  0  0  0  0  0
  140.5400   76.7700  221.5940 C   0  0  0  0  0  0  0  0  0  0  0  0
  140.8630   76.7150  222.8120 O   0  0  0  0  0  0  0  0  0  0  0  0
  141.1820   77.6410  220.6620 N   0  0  0  0  0  0  0  0  0  0  0  0
  142.1930   77.0900  219.7990 C   0  0  0  0  0  0  0  0  0  0  0  0
  142.3580   77.8090  218.5020 C   0  0  0  0  0  0  0  0  0  0  0  0
  142.2300   79.3040  218.6210 C   0  0  0  0  0  0  0  0  0  0  0  0
  141.0290   79.7440  219.3840 C   0  0  0  0  0  0  0  0  0  0  0  0
  140.7630   79.0210  220.6580 C   0  0  2  0  0  0  0  0  0  0  0  0
  141.2960   79.6850  221.8550 C   0  0  0  0  0  0  0  0  0  0  0  0
  140.5350   80.4700  222.7090 C   0  0  0  0  0  0  0  0  0  0  0  0
  141.0620   81.0810  223.8280 C   0  0  0  0  0  0  0  0  0  0  0  0
  142.3990   80.9240  224.1320 C   0  0  0  0  0  0  0  0  0  0  0  0
  143.1490   80.1410  223.2760 C   0  0  0  0  0  0  0  0  0  0  0  0
  142.6100   79.5640  222.2060 N   0  0  0  0  0  0  0  0  0  0  0  0
  139.2120   72.2760  222.5250 C   0  0  0  0  0  0  0  0  0  0  0  0
  138.3550   71.2090  222.3540 C   0  0  0  0  0  0  0  0  0  0  0  0
  138.3950   70.1890  223.2790 C   0  0  0  0  0  0  0  0  0  0  0  0
  139.2530   70.1910  224.3580 C   0  0  0  0  0  0  0  0  0  0  0  0
  139.3060   69.1770  225.2900 C   0  0  0  0  0  0  0  0  0  0  0  0
  140.1860   69.2390  226.3480 C   0  0  0  0  0  0  0  0  0  0  0  0
  140.2350   68.1310  227.3570 C   0  0  0  0  0  0  0  0  0  0  0  0
  139.5830   68.5830  228.5000 F   0  0  0  0  0  0  0  0  0  0  0  0
  141.5160   67.7550  227.6260 F   0  0  0  0  0  0  0  0  0  0  0  0
  139.4660   67.0950  226.8670 F   0  0  0  0  0  0  0  0  0  0  0  0
  141.0060   70.3380  226.4430 C   0  0  0  0  0  0  0  0  0  0  0  0
  140.9950   71.3800  225.5390 C   0  0  0  0  0  0  0  0  0  0  0  0
  140.0980   71.2850  224.4880 C   0  0  0  0  0  0  0  0  0  0  0  0
  140.0360   72.2670  223.5710 N   0  0  0  0  0  0  0  0  0  0  0  0
  139.5720   74.8230  223.0990 H   0  0  0  0  0  0  0  0  0  0  0  0
  139.6008   75.5288  220.1351 H   0  0  0  0  0  0  0  0  0  0  0  0
  138.4700   76.3860  221.2244 H   0  0  0  0  0  0  0  0  0  0  0  0
  143.1542   77.1197  220.3331 H   0  0  0  0  0  0  0  0  0  0  0  0
  141.8701   76.0680  219.5514 H   0  0  0  0  0  0  0  0  0  0  0  0
  143.3551   77.5763  218.0998 H   0  0  0  0  0  0  0  0  0  0  0  0
  141.5493   77.4679  217.8390 H   0  0  0  0  0  0  0  0  0  0  0  0
  143.1254   79.6896  219.1305 H   0  0  0  0  0  0  0  0  0  0  0  0
  142.1245   79.6995  217.6000 H   0  0  0  0  0  0  0  0  0  0  0  0
  141.1541   80.8106  219.6223 H   0  0  0  0  0  0  0  0  0  0  0  0
  140.1688   79.5252  218.7342 H   0  0  0  0  0  0  0  0  0  0  0  0
  139.6644   79.0464  220.7083 H   0  0  0  0  0  0  0  0  0  0  0  0
  139.4674   80.6111  222.4846 H   0  0  0  0  0  0  0  0  0  0  0  0
  140.4176   81.6923  224.4769 H   0  0  0  0  0  0  0  0  0  0  0  0
  142.8473   81.4009  225.0161 H   0  0  0  0  0  0  0  0  0  0  0  0
  144.2186   79.9911  223.4847 H   0  0  0  0  0  0  0  0  0  0  0  0
  137.6591   71.1735  221.5029 H   0  0  0  0  0  0  0  0  0  0  0  0
  137.7126   69.3358  223.1511 H   0  0  0  0  0  0  0  0  0  0  0  0
  138.6383   68.3088  225.1879 H   0  0  0  0  0  0  0  0  0  0  0  0
  141.7100   70.3895  227.2866 H   0  0  0  0  0  0  0  0  0  0  0  0
  141.6663   72.2446  225.6477 H   0  0  0  0  0  0  0  0  0  0  0  0
  1  2  2  0
  2  3  1  0
  3  4  1  0
  4  5  1  0
  5  6  2  0
  5  7  1  0
  7  8  1  0
  8  9  1  0
  9 10  1  0
 10 11  1  0
 11 12  1  0
 12 13  1  0
 13 14  2  0
 14 15  1  0
 15 16  2  0
 16 17  1  0
 17 18  2  0
  2 19  1  0
 19 20  2  0
 20 21  1  0
 21 22  2  0
 22 23  1  0
 23 24  2  0
 24 25  1  0
 25 26  1  0
 25 27  1  0
 25 28  1  0
 24 29  1  0
 29 30  2  0
 30 31  1  0
 31 32  2  0
 12  7  1  0
 18 13  1  0
 32 19  1  0
 31 22  1  0
  3 33  1  0
  4 34  1  0
  4 35  1  0
  8 36  1  0
  8 37  1  0
  9 38  1  0
  9 39  1  0
 10 40  1  0
 10 41  1  0
 11 42  1  0
 11 43  1  0
 12 44  1  1
 14 45  1  0
 15 46  1  0
 16 47  1  0
 17 48  1  0
 20 49  1  0
 21 50  1  0
 23 51  1  0
 29 52  1  0
 30 53  1  0
M  END
>  <smiles>  (34) 
O=C(NCC(=O)N1CCCCC1c1ccccn1)c1ccc2cc(C(F)(F)F)ccc2n1

>  <score_type>  (34) 
oracle

>  <origin>  (34) 
autodockgpu

>  <m_score__min__energy>  (34) 
-8.6699999999999999

>  <m_primary>  (34) 
energy

>  <rmsd>  (34) 
2.799452176901916

>  <m_score__min__rmsd>  (34) 
2.799452176901916

>  <meeko>  (34) 
{"free_energy": -8.26, "intermolecular_energy": -10.05, "internal_energy": -2.15, "cluster_size": 42, "cluster_id": 1, "rank_in_cluster": 21}

>  <energy>  (34) 
-7.82

>  <cluster_rmsd>  (34) 
0.74

>  <cluster>  (34) 
1

$$$$

     RDKit          3D

 53 56  0  0  0  0  0  0  0  0999 V2000
  139.7310   72.9660  220.3180 O   0  0  0  0  0  0  0  0  0  0  0  0
  139.6640   73.2420  221.5600 C   0  0  0  0  0  0  0  0  0  0  0  0
  139.5670   74.5780  222.0360 N   0  0  0  0  0  0  0  0  0  0  0  0
  139.5380   75.7140  221.1390 C   0  0  0  0  0  0  0  0  0  0  0  0
  140.6300   76.6560  221.5310 C   0  0  0  0  0  0  0  0  0  0  0  0
  140.9390   76.6600  222.7550 O   0  0  0  0  0  0  0  0  0  0  0  0
  141.2730   77.4910  220.5680 N   0  0  0  0  0  0  0  0  0  0  0  0
  142.3290   76.9230  219.7720 C   0  0  0  0  0  0  0  0  0  0  0  0
  142.5120   77.5680  218.4390 C   0  0  0  0  0  0  0  0  0  0  0  0
  142.3320   79.0620  218.4610 C   0  0  0  0  0  0  0  0  0  0  0  0
  141.0930   79.5050  219.1580 C   0  0  0  0  0  0  0  0  0  0  0  0
  140.8090   78.8520  220.4650 C   0  0  2  0  0  0  0  0  0  0  0  0
  141.2810   79.6060  221.6360 C   0  0  0  0  0  0  0  0  0  0  0  0
  140.4930   80.4920  222.3550 C   0  0  0  0  0  0  0  0  0  0  0  0
  140.9630   81.1870  223.4510 C   0  0  0  0  0  0  0  0  0  0  0  0
  142.2650   81.0120  223.8690 C   0  0  0  0  0  0  0  0  0  0  0  0
  143.0430   80.1270  223.1460 C   0  0  0  0  0  0  0  0  0  0  0  0
  142.5590   79.4730  222.0950 N   0  0  0  0  0  0  0  0  0  0  0  0
  139.6880   72.1410  222.5280 C   0  0  0  0  0  0  0  0  0  0  0  0
  139.0670   70.9440  222.2420 C   0  0  0  0  0  0  0  0  0  0  0  0
  139.1180   69.9430  223.1860 C   0  0  0  0  0  0  0  0  0  0  0  0
  139.7620   70.0880  224.3960 C   0  0  0  0  0  0  0  0  0  0  0  0
  139.8230   69.0950  225.3500 C   0  0  0  0  0  0  0  0  0  0  0  0
  140.4820   69.3040  226.5420 C   0  0  0  0  0  0  0  0  0  0  0  0
  140.5420   68.2170  227.5720 C   0  0  0  0  0  0  0  0  0  0  0  0
  139.2310   67.8930  227.9080 F   0  0  0  0  0  0  0  0  0  0  0  0
  141.2570   68.6020  228.6650 F   0  0  0  0  0  0  0  0  0  0  0  0
  141.0650   67.0960  226.9590 F   0  0  0  0  0  0  0  0  0  0  0  0
  141.0750   70.5270  226.7460 C   0  0  0  0  0  0  0  0  0  0  0  0
  141.0450   71.5540  225.8270 C   0  0  0  0  0  0  0  0  0  0  0  0
  140.3740   71.3110  224.6400 C   0  0  0  0  0  0  0  0  0  0  0  0
  140.3070   72.2700  223.7000 N   0  0  0  0  0  0  0  0  0  0  0  0
  139.5160   74.7110  223.0890 H   0  0  0  0  0  0  0  0  0  0  0  0
  139.6948   75.3741  220.1047 H   0  0  0  0  0  0  0  0  0  0  0  0
  138.5632   76.2197  221.2028 H   0  0  0  0  0  0  0  0  0  0  0  0
  143.2709   77.0178  220.3322 H   0  0  0  0  0  0  0  0  0  0  0  0
  142.0481   75.8772  219.5785 H   0  0  0  0  0  0  0  0  0  0  0  0
  143.5285   77.3457  218.0821 H   0  0  0  0  0  0  0  0  0  0  0  0
  141.7359   77.1601  217.7748 H   0  0  0  0  0  0  0  0  0  0  0  0
  143.1971   79.5086  218.9730 H   0  0  0  0  0  0  0  0  0  0  0  0
  142.2478   79.3913  217.4148 H   0  0  0  0  0  0  0  0  0  0  0  0
  141.1749   80.5878  219.3338 H   0  0  0  0  0  0  0  0  0  0  0  0
  140.2624   79.2171  218.4967 H   0  0  0  0  0  0  0  0  0  0  0  0
  139.7091   78.8423  220.4787 H   0  0  0  0  0  0  0  0  0  0  0  0
  139.4509   80.6473  222.0390 H   0  0  0  0  0  0  0  0  0  0  0  0
  140.2997   81.8794  223.9901 H   0  0  0  0  0  0  0  0  0  0  0  0
  142.6668   81.5523  224.7388 H   0  0  0  0  0  0  0  0  0  0  0  0
  144.0876   79.9601  223.4478 H   0  0  0  0  0  0  0  0  0  0  0  0
  138.5449   70.7927  221.2857 H   0  0  0  0  0  0  0  0  0  0  0  0
  138.6232   68.9858  222.9649 H   0  0  0  0  0  0  0  0  0  0  0  0
  139.3405   68.1254  225.1578 H   0  0  0  0  0  0  0  0  0  0  0  0
  141.6032   70.6958  227.6960 H   0  0  0  0  0  0  0  0  0  0  0  0
  141.5308   72.5205  226.0269 H   0  0  0  0  0  0  0  0  0  0  0  0
  1  2  2  0
  2  3  1  0
  3  4  1  0
  4  5  1  0
  5  6  2  0
  5  7  1  0
  7  8  1  0
  8  9  1  0
  9 10  1  0
 10 11  1  0
 11 12  1  0
 12 13  1  0
 13 14  2  0
 14 15  1  0
 15 16  2  0
 16 17  1  0
 17 18  2  0
  2 19  1  0
 19 20  2  0
 20 21  1  0
 21 22  2  0
 22 23  1  0
 23 24  2  0
 24 25  1  0
 25 26  1  0
 25 27  1  0
 25 28  1  0
 24 29  1  0
 29 30  2  0
 30 31  1  0
 31 32  2  0
 12  7  1  0
 18 13  1  0
 32 19  1  0
 31 22  1  0
  3 33  1  0
  4 34  1  0
  4 35  1  0
  8 36  1  0
  8 37  1  0
  9 38  1  0
  9 39  1  0
 10 40  1  0
 10 41  1  0
 11 42  1  0
 11 43  1  0
 12 44  1  1
 14 45  1  0
 15 46  1  0
 16 47  1  0
 17 48  1  0
 20 49  1  0
 21 50  1  0
 23 51  1  0
 29 52  1  0
 30 53  1  0
M  END
>  <smiles>  (35) 
O=C(NCC(=O)N1CCCCC1c1ccccn1)c1ccc2cc(C(F)(F)F)ccc2n1

>  <score_type>  (35) 
oracle

>  <origin>  (35) 
autodockgpu

>  <m_score__min__energy>  (35) 
-8.6699999999999999

>  <m_primary>  (35) 
energy

>  <rmsd>  (35) 
2.636874817047297

>  <m_score__min__rmsd>  (35) 
2.636874817047297

>  <meeko>  (35) 
{"free_energy": -8.44, "intermolecular_energy": -10.23, "internal_energy": -2.02, "cluster_size": 42, "cluster_id": 1, "rank_in_cluster": 13}

>  <energy>  (35) 
-7.8

>  <cluster_rmsd>  (35) 
0.88

>  <cluster>  (35) 
1

$$$$

     RDKit          3D

 53 56  0  0  0  0  0  0  0  0999 V2000
  139.5560   73.1520  220.3970 O   0  0  0  0  0  0  0  0  0  0  0  0
  139.4920   73.3900  221.6480 C   0  0  0  0  0  0  0  0  0  0  0  0
  139.3740   74.7100  222.1640 N   0  0  0  0  0  0  0  0  0  0  0  0
  139.3220   75.8710  221.3010 C   0  0  0  0  0  0  0  0  0  0  0  0
  140.5740   76.6630  221.4950 C   0  0  0  0  0  0  0  0  0  0  0  0
  141.6410   76.1070  221.1160 O   0  0  0  0  0  0  0  0  0  0  0  0
  140.5450   77.9680  222.0740 N   0  0  0  0  0  0  0  0  0  0  0  0
  139.3340   78.3990  222.7220 C   0  0  0  0  0  0  0  0  0  0  0  0
  139.5360   79.4130  223.7980 C   0  0  0  0  0  0  0  0  0  0  0  0
  140.5980   80.4300  223.4770 C   0  0  0  0  0  0  0  0  0  0  0  0
  141.8730   79.8310  222.9920 C   0  0  0  0  0  0  0  0  0  0  0  0
  141.7440   78.7610  221.9650 C   0  0  2  0  0  0  0  0  0  0  0  0
  141.8810   79.2310  220.5790 C   0  0  0  0  0  0  0  0  0  0  0  0
  141.7500   80.5570  220.1940 C   0  0  0  0  0  0  0  0  0  0  0  0
  141.8850   80.9690  218.8850 C   0  0  0  0  0  0  0  0  0  0  0  0
  142.1600   80.0460  217.8980 C   0  0  0  0  0  0  0  0  0  0  0  0
  142.2890   78.7270  218.2900 C   0  0  0  0  0  0  0  0  0  0  0  0
  142.1540   78.3620  219.5620 N   0  0  0  0  0  0  0  0  0  0  0  0
  139.5390   72.2620  222.5830 C   0  0  0  0  0  0  0  0  0  0  0  0
  138.8810   71.0850  222.2940 C   0  0  0  0  0  0  0  0  0  0  0  0
  138.9570   70.0560  223.2060 C   0  0  0  0  0  0  0  0  0  0  0  0
  139.6610   70.1550  224.3870 C   0  0  0  0  0  0  0  0  0  0  0  0
  139.7480   69.1340  225.3090 C   0  0  0  0  0  0  0  0  0  0  0  0
  140.4670   69.2950  226.4730 C   0  0  0  0  0  0  0  0  0  0  0  0
  140.5540   68.1780  227.4690 C   0  0  0  0  0  0  0  0  0  0  0  0
  141.3280   68.6320  228.5320 F   0  0  0  0  0  0  0  0  0  0  0  0
  141.0790   67.0510  226.9130 F   0  0  0  0  0  0  0  0  0  0  0  0
  139.2870   67.9820  227.9790 F   0  0  0  0  0  0  0  0  0  0  0  0
  141.0940   70.5010  226.6820 C   0  0  0  0  0  0  0  0  0  0  0  0
  141.0410   71.5540  225.7950 C   0  0  0  0  0  0  0  0  0  0  0  0
  140.3090   71.3580  224.6350 C   0  0  0  0  0  0  0  0  0  0  0  0
  140.2160   72.3450  223.7270 N   0  0  0  0  0  0  0  0  0  0  0  0
  139.3270   74.8100  223.2210 H   0  0  0  0  0  0  0  0  0  0  0  0
  139.2449   75.5501  220.2517 H   0  0  0  0  0  0  0  0  0  0  0  0
  138.4447   76.4863  221.5497 H   0  0  0  0  0  0  0  0  0  0  0  0
  138.6722   78.8347  221.9590 H   0  0  0  0  0  0  0  0  0  0  0  0
  138.9044   77.5097  223.2063 H   0  0  0  0  0  0  0  0  0  0  0  0
  138.5854   79.9423  223.9597 H   0  0  0  0  0  0  0  0  0  0  0  0
  139.8705   78.8697  224.6941 H   0  0  0  0  0  0  0  0  0  0  0  0
  140.2110   81.1020  222.6968 H   0  0  0  0  0  0  0  0  0  0  0  0
  140.8276   80.9616  224.4123 H   0  0  0  0  0  0  0  0  0  0  0  0
  142.4816   80.6394  222.5607 H   0  0  0  0  0  0  0  0  0  0  0  0
  142.3246   79.3457  223.8698 H   0  0  0  0  0  0  0  0  0  0  0  0
  142.6041   78.1165  222.1991 H   0  0  0  0  0  0  0  0  0  0  0  0
  141.5294   81.3107  220.9643 H   0  0  0  0  0  0  0  0  0  0  0  0
  141.7734   82.0328  218.6283 H   0  0  0  0  0  0  0  0  0  0  0  0
  142.2717   80.3462  216.8457 H   0  0  0  0  0  0  0  0  0  0  0  0
  142.5086   77.9607  217.5320 H   0  0  0  0  0  0  0  0  0  0  0  0
  138.3108   70.9712  221.3602 H   0  0  0  0  0  0  0  0  0  0  0  0
  138.4335   69.1147  222.9825 H   0  0  0  0  0  0  0  0  0  0  0  0
  139.2374   68.1796  225.1130 H   0  0  0  0  0  0  0  0  0  0  0  0
  141.6703   70.6324  227.6097 H   0  0  0  0  0  0  0  0  0  0  0  0
  141.5553   72.5049  225.9981 H   0  0  0  0  0  0  0  0  0  0  0  0
  1  2  2  0
  2  3  1  0
  3  4  1  0
  4  5  1  0
  5  6  2  0
  5  7  1  0
  7  8  1  0
  8  9  1  0
  9 10  1  0
 10 11  1  0
 11 12  1  0
 12 13  1  0
 13 14  2  0
 14 15  1  0
 15 16  2  0
 16 17  1  0
 17 18  2  0
  2 19  1  0
 19 20  2  0
 20 21  1  0
 21 22  2  0
 22 23  1  0
 23 24  2  0
 24 25  1  0
 25 26  1  0
 25 27  1  0
 25 28  1  0
 24 29  1  0
 29 30  2  0
 30 31  1  0
 31 32  2  0
 12  7  1  0
 18 13  1  0
 32 19  1  0
 31 22  1  0
  3 33  1  0
  4 34  1  0
  4 35  1  0
  8 36  1  0
  8 37  1  0
  9 38  1  0
  9 39  1  0
 10 40  1  0
 10 41  1  0
 11 42  1  0
 11 43  1  0
 12 44  1  1
 14 45  1  0
 15 46  1  0
 16 47  1  0
 17 48  1  0
 20 49  1  0
 21 50  1  0
 23 51  1  0
 29 52  1  0
 30 53  1  0
M  END
>  <smiles>  (36) 
O=C(NCC(=O)N1CCCCC1c1ccccn1)c1ccc2cc(C(F)(F)F)ccc2n1

>  <score_type>  (36) 
oracle

>  <origin>  (36) 
autodockgpu

>  <m_score__min__energy>  (36) 
-8.6699999999999999

>  <m_primary>  (36) 
energy

>  <rmsd>  (36) 
3.658759384895178

>  <m_score__min__rmsd>  (36) 
3.658759384895178

>  <meeko>  (36) 
{"free_energy": -8.02, "intermolecular_energy": -9.81, "internal_energy": -1.57, "cluster_size": 42, "cluster_id": 1, "rank_in_cluster": 27}

>  <energy>  (36) 
-7.76

>  <cluster_rmsd>  (36) 
0.88

>  <cluster>  (36) 
1

$$$$

     RDKit          3D

 53 56  0  0  0  0  0  0  0  0999 V2000
  135.0490   68.2060  224.5880 O   0  0  0  0  0  0  0  0  0  0  0  0
  135.6180   69.3210  224.8240 C   0  0  0  0  0  0  0  0  0  0  0  0
  136.9880   69.5530  224.5210 N   0  0  0  0  0  0  0  0  0  0  0  0
  137.8260   68.5340  223.9240 C   0  0  0  0  0  0  0  0  0  0  0  0
  139.0390   68.3580  224.7780 C   0  0  0  0  0  0  0  0  0  0  0  0
  139.5600   67.2080  224.7630 O   0  0  0  0  0  0  0  0  0  0  0  0
  139.5640   69.4340  225.5550 N   0  0  0  0  0  0  0  0  0  0  0  0
  139.0360   69.6390  226.8780 C   0  0  0  0  0  0  0  0  0  0  0  0
  139.9830   70.2960  227.8260 C   0  0  0  0  0  0  0  0  0  0  0  0
  140.8180   71.3770  227.1940 C   0  0  0  0  0  0  0  0  0  0  0  0
  141.4620   70.9660  225.9160 C   0  0  0  0  0  0  0  0  0  0  0  0
  140.5920   70.2420  224.9480 C   0  0  2  0  0  0  0  0  0  0  0  0
  139.9820   71.1000  223.9220 C   0  0  0  0  0  0  0  0  0  0  0  0
  140.6910   71.6930  222.8880 C   0  0  0  0  0  0  0  0  0  0  0  0
  140.0910   72.4930  221.9370 C   0  0  0  0  0  0  0  0  0  0  0  0
  138.7340   72.7300  221.9950 C   0  0  0  0  0  0  0  0  0  0  0  0
  138.0360   72.1350  223.0280 C   0  0  0  0  0  0  0  0  0  0  0  0
  138.6440   71.3680  223.9290 N   0  0  0  0  0  0  0  0  0  0  0  0
  134.8310   70.4000  225.4290 C   0  0  0  0  0  0  0  0  0  0  0  0
  133.8560   70.1170  226.3620 C   0  0  0  0  0  0  0  0  0  0  0  0
  133.1450   71.1670  226.9000 C   0  0  0  0  0  0  0  0  0  0  0  0
  133.3690   72.4800  226.5460 C   0  0  0  0  0  0  0  0  0  0  0  0
  132.6660   73.5410  227.0750 C   0  0  0  0  0  0  0  0  0  0  0  0
  132.9370   74.8320  226.6780 C   0  0  0  0  0  0  0  0  0  0  0  0
  132.1670   75.9790  227.2610 C   0  0  0  0  0  0  0  0  0  0  0  0
  133.0360   77.0630  227.3400 F   0  0  0  0  0  0  0  0  0  0  0  0
  131.6470   75.6650  228.4800 F   0  0  0  0  0  0  0  0  0  0  0  0
  131.2000   76.3340  226.3420 F   0  0  0  0  0  0  0  0  0  0  0  0
  133.9250   75.0270  225.7430 C   0  0  0  0  0  0  0  0  0  0  0  0
  134.6580   74.0030  225.1820 C   0  0  0  0  0  0  0  0  0  0  0  0
  134.3610   72.7170  225.6030 C   0  0  0  0  0  0  0  0  0  0  0  0
  135.0380   71.6730  225.0950 N   0  0  0  0  0  0  0  0  0  0  0  0
  137.3760   70.5140  224.7540 H   0  0  0  0  0  0  0  0  0  0  0  0
  137.2723   67.5853  223.8658 H   0  0  0  0  0  0  0  0  0  0  0  0
  138.1207   68.8358  222.9081 H   0  0  0  0  0  0  0  0  0  0  0  0
  138.1386   70.2698  226.7961 H   0  0  0  0  0  0  0  0  0  0  0  0
  138.8234   68.6409  227.2887 H   0  0  0  0  0  0  0  0  0  0  0  0
  139.4006   70.7415  228.6459 H   0  0  0  0  0  0  0  0  0  0  0  0
  140.6766   69.5184  228.1786 H   0  0  0  0  0  0  0  0  0  0  0  0
  140.1705   72.2434  226.9937 H   0  0  0  0  0  0  0  0  0  0  0  0
  141.6275   71.6123  227.9007 H   0  0  0  0  0  0  0  0  0  0  0  0
  141.8340   71.8744  225.4196 H   0  0  0  0  0  0  0  0  0  0  0  0
  142.2494   70.2515  226.1979 H   0  0  0  0  0  0  0  0  0  0  0  0
  141.3100   69.5697  224.4555 H   0  0  0  0  0  0  0  0  0  0  0  0
  141.7752   71.5186  222.8233 H   0  0  0  0  0  0  0  0  0  0  0  0
  140.6945   72.9410  221.1338 H   0  0  0  0  0  0  0  0  0  0  0  0
  138.2295   73.3648  221.2516 H   0  0  0  0  0  0  0  0  0  0  0  0
  136.9513   72.2994  223.1075 H   0  0  0  0  0  0  0  0  0  0  0  0
  133.6514   69.0805  226.6685 H   0  0  0  0  0  0  0  0  0  0  0  0
  132.3650   70.9481  227.6441 H   0  0  0  0  0  0  0  0  0  0  0  0
  131.8803   73.3549  227.8220 H   0  0  0  0  0  0  0  0  0  0  0  0
  134.1431   76.0571  225.4246 H   0  0  0  0  0  0  0  0  0  0  0  0
  135.4418   74.1979  224.4353 H   0  0  0  0  0  0  0  0  0  0  0  0
  1  2  2  0
  2  3  1  0
  3  4  1  0
  4  5  1  0
  5  6  2  0
  5  7  1  0
  7  8  1  0
  8  9  1  0
  9 10  1  0
 10 11  1  0
 11 12  1  0
 12 13  1  0
 13 14  2  0
 14 15  1  0
 15 16  2  0
 16 17  1  0
 17 18  2  0
  2 19  1  0
 19 20  2  0
 20 21  1  0
 21 22  2  0
 22 23  1  0
 23 24  2  0
 24 25  1  0
 25 26  1  0
 25 27  1  0
 25 28  1  0
 24 29  1  0
 29 30  2  0
 30 31  1  0
 31 32  2  0
 12  7  1  0
 18 13  1  0
 32 19  1  0
 31 22  1  0
  3 33  1  0
  4 34  1  0
  4 35  1  0
  8 36  1  0
  8 37  1  0
  9 38  1  0
  9 39  1  0
 10 40  1  0
 10 41  1  0
 11 42  1  0
 11 43  1  0
 12 44  1  6
 14 45  1  0
 15 46  1  0
 16 47  1  0
 17 48  1  0
 20 49  1  0
 21 50  1  0
 23 51  1  0
 29 52  1  0
 30 53  1  0
M  END
>  <smiles>  (37) 
O=C(NCC(=O)N1CCCCC1c1ccccn1)c1ccc2cc(C(F)(F)F)ccc2n1

>  <score_type>  (37) 
oracle

>  <origin>  (37) 
autodockgpu

>  <m_score__min__energy>  (37) 
-8.6699999999999999

>  <m_primary>  (37) 
energy

>  <rmsd>  (37) 
8.294763235122758

>  <m_score__min__rmsd>  (37) 
8.294763235122758

>  <meeko>  (37) 
{"free_energy": -7.4, "intermolecular_energy": -9.19, "internal_energy": -2.66, "cluster_size": 1, "cluster_id": 5, "rank_in_cluster": 1}

>  <energy>  (37) 
-7.71

>  <cluster_rmsd>  (37) 
0.91

>  <cluster>  (37) 
1

$$$$

     RDKit          3D

 53 56  0  0  0  0  0  0  0  0999 V2000
  140.3130   72.3260  220.3070 O   0  0  0  0  0  0  0  0  0  0  0  0
  140.2180   72.8360  221.4710 C   0  0  0  0  0  0  0  0  0  0  0  0
  140.2540   74.2410  221.6890 N   0  0  0  0  0  0  0  0  0  0  0  0
  140.4020   75.1840  220.6010 C   0  0  0  0  0  0  0  0  0  0  0  0
  140.8490   76.4940  221.1660 C   0  0  0  0  0  0  0  0  0  0  0  0
  140.6940   76.6370  222.4100 O   0  0  0  0  0  0  0  0  0  0  0  0
  141.4150   77.5070  220.3340 N   0  0  0  0  0  0  0  0  0  0  0  0
  142.5060   77.1470  219.4690 C   0  0  0  0  0  0  0  0  0  0  0  0
  142.6260   77.9880  218.2430 C   0  0  0  0  0  0  0  0  0  0  0  0
  142.3270   79.4440  218.4780 C   0  0  0  0  0  0  0  0  0  0  0  0
  141.0620   79.6810  219.2270 C   0  0  0  0  0  0  0  0  0  0  0  0
  140.8420   78.8270  220.4270 C   0  0  2  0  0  0  0  0  0  0  0  0
  141.2610   79.4410  221.6940 C   0  0  0  0  0  0  0  0  0  0  0  0
  140.3790   79.9190  222.6520 C   0  0  0  0  0  0  0  0  0  0  0  0
  140.8020   80.4910  223.8340 C   0  0  0  0  0  0  0  0  0  0  0  0
  142.1500   80.6050  224.1000 C   0  0  0  0  0  0  0  0  0  0  0  0
  143.0210   80.1260  223.1410 C   0  0  0  0  0  0  0  0  0  0  0  0
  142.5820   79.5790  222.0110 N   0  0  0  0  0  0  0  0  0  0  0  0
  140.0660   71.9410  222.6230 C   0  0  0  0  0  0  0  0  0  0  0  0
  139.3490   70.7690  222.5070 C   0  0  0  0  0  0  0  0  0  0  0  0
  139.2350   69.9640  223.6190 C   0  0  0  0  0  0  0  0  0  0  0  0
  139.8070   70.2810  224.8330 C   0  0  0  0  0  0  0  0  0  0  0  0
  139.7030   69.4850  225.9540 C   0  0  0  0  0  0  0  0  0  0  0  0
  140.2970   69.8590  227.1390 C   0  0  0  0  0  0  0  0  0  0  0  0
  140.1780   68.9850  228.3520 C   0  0  0  0  0  0  0  0  0  0  0  0
  139.2020   69.5470  229.1700 F   0  0  0  0  0  0  0  0  0  0  0  0
  141.3680   68.8660  229.0030 F   0  0  0  0  0  0  0  0  0  0  0  0
  139.6710   67.7710  227.9370 F   0  0  0  0  0  0  0  0  0  0  0  0
  140.9940   71.0430  227.1670 C   0  0  0  0  0  0  0  0  0  0  0  0
  141.1290   71.8760  226.0770 C   0  0  0  0  0  0  0  0  0  0  0  0
  140.5200   71.4700  224.9010 C   0  0  0  0  0  0  0  0  0  0  0  0
  140.6130   72.2360  223.8000 N   0  0  0  0  0  0  0  0  0  0  0  0
  140.1670   74.5740  222.6950 H   0  0  0  0  0  0  0  0  0  0  0  0
  141.1521   74.8124  219.8874 H   0  0  0  0  0  0  0  0  0  0  0  0
  139.4431   75.3074  220.0762 H   0  0  0  0  0  0  0  0  0  0  0  0
  143.4417   77.2369  220.0403 H   0  0  0  0  0  0  0  0  0  0  0  0
  142.3084   76.1205  219.1265 H   0  0  0  0  0  0  0  0  0  0  0  0
  143.6541   77.9015  217.8615 H   0  0  0  0  0  0  0  0  0  0  0  0
  141.8799   77.6180  217.5244 H   0  0  0  0  0  0  0  0  0  0  0  0
  143.1576   79.8811  219.0517 H   0  0  0  0  0  0  0  0  0  0  0  0
  142.2083   79.9119  217.4896 H   0  0  0  0  0  0  0  0  0  0  0  0
  141.0577   80.7306  219.5560 H   0  0  0  0  0  0  0  0  0  0  0  0
  140.2521   79.4238  218.5285 H   0  0  0  0  0  0  0  0  0  0  0  0
  139.7466   78.7267  220.4373 H   0  0  0  0  0  0  0  0  0  0  0  0
  139.2986   79.8387  222.4615 H   0  0  0  0  0  0  0  0  0  0  0  0
  140.0642   80.8559  224.5638 H   0  0  0  0  0  0  0  0  0  0  0  0
  142.5154   81.0571  225.0339 H   0  0  0  0  0  0  0  0  0  0  0  0
  144.1045   80.1987  223.3162 H   0  0  0  0  0  0  0  0  0  0  0  0
  138.8810   70.4847  221.5530 H   0  0  0  0  0  0  0  0  0  0  0  0
  138.6631   69.0281  223.5349 H   0  0  0  0  0  0  0  0  0  0  0  0
  139.1398   68.5416  225.9014 H   0  0  0  0  0  0  0  0  0  0  0  0
  141.4708   71.3427  228.1119 H   0  0  0  0  0  0  0  0  0  0  0  0
  141.6934   72.8182  226.1382 H   0  0  0  0  0  0  0  0  0  0  0  0
  1  2  2  0
  2  3  1  0
  3  4  1  0
  4  5  1  0
  5  6  2  0
  5  7  1  0
  7  8  1  0
  8  9  1  0
  9 10  1  0
 10 11  1  0
 11 12  1  0
 12 13  1  0
 13 14  2  0
 14 15  1  0
 15 16  2  0
 16 17  1  0
 17 18  2  0
  2 19  1  0
 19 20  2  0
 20 21  1  0
 21 22  2  0
 22 23  1  0
 23 24  2  0
 24 25  1  0
 25 26  1  0
 25 27  1  0
 25 28  1  0
 24 29  1  0
 29 30  2  0
 30 31  1  0
 31 32  2  0
 12  7  1  0
 18 13  1  0
 32 19  1  0
 31 22  1  0
  3 33  1  0
  4 34  1  0
  4 35  1  0
  8 36  1  0
  8 37  1  0
  9 38  1  0
  9 39  1  0
 10 40  1  0
 10 41  1  0
 11 42  1  0
 11 43  1  0
 12 44  1  1
 14 45  1  0
 15 46  1  0
 16 47  1  0
 17 48  1  0
 20 49  1  0
 21 50  1  0
 23 51  1  0
 29 52  1  0
 30 53  1  0
M  END
>  <smiles>  (38) 
O=C(NCC(=O)N1CCCCC1c1ccccn1)c1ccc2cc(C(F)(F)F)ccc2n1

>  <score_type>  (38) 
oracle

>  <origin>  (38) 
autodockgpu

>  <m_score__min__energy>  (38) 
-8.6699999999999999

>  <m_primary>  (38) 
energy

>  <rmsd>  (38) 
2.766405286637306

>  <m_score__min__rmsd>  (38) 
2.766405286637306

>  <meeko>  (38) 
{"free_energy": -8.01, "intermolecular_energy": -9.8, "internal_energy": -2.26, "cluster_size": 42, "cluster_id": 1, "rank_in_cluster": 28}

>  <energy>  (38) 
-7.65

>  <cluster_rmsd>  (38) 
0.81

>  <cluster>  (38) 
1

$$$$

     RDKit          3D

 53 56  0  0  0  0  0  0  0  0999 V2000
  140.5660   73.5220  220.7100 O   0  0  0  0  0  0  0  0  0  0  0  0
  139.9000   73.6320  221.7910 C   0  0  0  0  0  0  0  0  0  0  0  0
  139.2910   74.8550  222.1860 N   0  0  0  0  0  0  0  0  0  0  0  0
  139.3890   76.0560  221.3840 C   0  0  0  0  0  0  0  0  0  0  0  0
  140.7310   76.6710  221.6140 C   0  0  0  0  0  0  0  0  0  0  0  0
  141.2970   76.3670  222.7000 O   0  0  0  0  0  0  0  0  0  0  0  0
  141.3220   77.5460  220.6530 N   0  0  0  0  0  0  0  0  0  0  0  0
  142.3740   77.0300  219.8180 C   0  0  0  0  0  0  0  0  0  0  0  0
  142.5020   77.7080  218.4950 C   0  0  0  0  0  0  0  0  0  0  0  0
  142.2750   79.1950  218.5540 C   0  0  0  0  0  0  0  0  0  0  0  0
  141.0420   79.5830  219.2930 C   0  0  0  0  0  0  0  0  0  0  0  0
  140.8130   78.8940  220.5930 C   0  0  2  0  0  0  0  0  0  0  0  0
  141.2920   79.6380  221.7660 C   0  0  0  0  0  0  0  0  0  0  0  0
  142.5590   79.4950  222.3100 C   0  0  0  0  0  0  0  0  0  0  0  0
  142.9820   80.2080  223.4130 C   0  0  0  0  0  0  0  0  0  0  0  0
  142.1290   81.1060  224.0190 C   0  0  0  0  0  0  0  0  0  0  0  0
  140.8680   81.2430  223.4710 C   0  0  0  0  0  0  0  0  0  0  0  0
  140.4920   80.5410  222.4060 N   0  0  0  0  0  0  0  0  0  0  0  0
  139.7590   72.4550  222.6550 C   0  0  0  0  0  0  0  0  0  0  0  0
  138.9110   71.4270  222.3020 C   0  0  0  0  0  0  0  0  0  0  0  0
  138.8150   70.3440  223.1490 C   0  0  0  0  0  0  0  0  0  0  0  0
  139.5270   70.2490  224.3250 C   0  0  0  0  0  0  0  0  0  0  0  0
  139.4420   69.1720  225.1820 C   0  0  0  0  0  0  0  0  0  0  0  0
  140.1800   69.1380  226.3440 C   0  0  0  0  0  0  0  0  0  0  0  0
  140.0790   67.9620  227.2680 C   0  0  0  0  0  0  0  0  0  0  0  0
  139.2270   67.0390  226.6710 F   0  0  0  0  0  0  0  0  0  0  0  0
  139.6320   68.3310  228.5010 F   0  0  0  0  0  0  0  0  0  0  0  0
  141.3210   67.3620  227.3080 F   0  0  0  0  0  0  0  0  0  0  0  0
  141.0010   70.2050  226.6200 C   0  0  0  0  0  0  0  0  0  0  0  0
  141.1250   71.3060  225.7990 C   0  0  0  0  0  0  0  0  0  0  0  0
  140.3680   71.3080  224.6380 C   0  0  0  0  0  0  0  0  0  0  0  0
  140.4420   72.3520  223.7940 N   0  0  0  0  0  0  0  0  0  0  0  0
  138.7560   74.8510  223.1040 H   0  0  0  0  0  0  0  0  0  0  0  0
  139.2746   75.8020  220.3199 H   0  0  0  0  0  0  0  0  0  0  0  0
  138.5962   76.7641  221.6670 H   0  0  0  0  0  0  0  0  0  0  0  0
  143.3267   77.1435  220.3560 H   0  0  0  0  0  0  0  0  0  0  0  0
  142.1210   75.9802  219.6086 H   0  0  0  0  0  0  0  0  0  0  0  0
  143.5155   77.5263  218.1080 H   0  0  0  0  0  0  0  0  0  0  0  0
  141.7226   77.2889  217.8416 H   0  0  0  0  0  0  0  0  0  0  0  0
  143.1391   79.6588  219.0523 H   0  0  0  0  0  0  0  0  0  0  0  0
  142.1518   79.5429  217.5178 H   0  0  0  0  0  0  0  0  0  0  0  0
  141.0946   80.6639  219.4903 H   0  0  0  0  0  0  0  0  0  0  0  0
  140.2037   79.2820  218.6475 H   0  0  0  0  0  0  0  0  0  0  0  0
  139.7148   78.8487  220.6367 H   0  0  0  0  0  0  0  0  0  0  0  0
  143.2561   78.7836  221.8430 H   0  0  0  0  0  0  0  0  0  0  0  0
  143.9979   80.0603  223.8082 H   0  0  0  0  0  0  0  0  0  0  0  0
  142.4387   81.6876  224.8998 H   0  0  0  0  0  0  0  0  0  0  0  0
  140.1584   81.9494  223.9264 H   0  0  0  0  0  0  0  0  0  0  0  0
  138.3274   71.4699  221.3706 H   0  0  0  0  0  0  0  0  0  0  0  0
  138.1406   69.5195  222.8743 H   0  0  0  0  0  0  0  0  0  0  0  0
  138.7775   68.3310  224.9347 H   0  0  0  0  0  0  0  0  0  0  0  0
  141.5921   70.1794  227.5473 H   0  0  0  0  0  0  0  0  0  0  0  0
  141.7926   72.1424  226.0533 H   0  0  0  0  0  0  0  0  0  0  0  0
  1  2  2  0
  2  3  1  0
  3  4  1  0
  4  5  1  0
  5  6  2  0
  5  7  1  0
  7  8  1  0
  8  9  1  0
  9 10  1  0
 10 11  1  0
 11 12  1  0
 12 13  1  0
 13 14  2  0
 14 15  1  0
 15 16  2  0
 16 17  1  0
 17 18  2  0
  2 19  1  0
 19 20  2  0
 20 21  1  0
 21 22  2  0
 22 23  1  0
 23 24  2  0
 24 25  1  0
 25 26  1  0
 25 27  1  0
 25 28  1  0
 24 29  1  0
 29 30  2  0
 30 31  1  0
 31 32  2  0
 12  7  1  0
 18 13  1  0
 32 19  1  0
 31 22  1  0
  3 33  1  0
  4 34  1  0
  4 35  1  0
  8 36  1  0
  8 37  1  0
  9 38  1  0
  9 39  1  0
 10 40  1  0
 10 41  1  0
 11 42  1  0
 11 43  1  0
 12 44  1  1
 14 45  1  0
 15 46  1  0
 16 47  1  0
 17 48  1  0
 20 49  1  0
 21 50  1  0
 23 51  1  0
 29 52  1  0
 30 53  1  0
M  END
>  <smiles>  (39) 
O=C(NCC(=O)N1CCCCC1c1ccccn1)c1ccc2cc(C(F)(F)F)ccc2n1

>  <score_type>  (39) 
oracle

>  <origin>  (39) 
autodockgpu

>  <m_score__min__energy>  (39) 
-8.6699999999999999

>  <m_primary>  (39) 
energy

>  <rmsd>  (39) 
2.9051055398427623

>  <m_score__min__rmsd>  (39) 
2.9051055398427623

>  <meeko>  (39) 
{"free_energy": -8.45, "intermolecular_energy": -10.24, "internal_energy": -1.64, "cluster_size": 42, "cluster_id": 1, "rank_in_cluster": 12}

>  <energy>  (39) 
-7.57

>  <cluster_rmsd>  (39) 
1.17

>  <cluster>  (39) 
1

$$$$

     RDKit          3D

 53 56  0  0  0  0  0  0  0  0999 V2000
  139.8090   72.8830  220.4410 O   0  0  0  0  0  0  0  0  0  0  0  0
  139.7080   73.2200  221.6650 C   0  0  0  0  0  0  0  0  0  0  0  0
  139.6520   74.5800  222.0760 N   0  0  0  0  0  0  0  0  0  0  0  0
  139.7070   75.6720  221.1270 C   0  0  0  0  0  0  0  0  0  0  0  0
  138.9880   76.8450  221.7110 C   0  0  0  0  0  0  0  0  0  0  0  0
  137.7280   76.7900  221.6770 O   0  0  0  0  0  0  0  0  0  0  0  0
  139.7000   77.9490  222.2700 N   0  0  0  0  0  0  0  0  0  0  0  0
  138.9410   79.0640  222.7730 C   0  0  0  0  0  0  0  0  0  0  0  0
  139.6210   79.8360  223.8540 C   0  0  0  0  0  0  0  0  0  0  0  0
  141.1030   79.9920  223.6450 C   0  0  0  0  0  0  0  0  0  0  0  0
  141.7980   78.7170  223.3130 C   0  0  0  0  0  0  0  0  0  0  0  0
  141.1390   77.8610  222.2890 C   0  0  2  0  0  0  0  0  0  0  0  0
  141.6460   78.0500  220.9220 C   0  0  0  0  0  0  0  0  0  0  0  0
  141.5710   79.2470  220.2270 C   0  0  0  0  0  0  0  0  0  0  0  0
  142.0570   79.3960  218.9450 C   0  0  0  0  0  0  0  0  0  0  0  0
  142.6460   78.3260  218.3040 C   0  0  0  0  0  0  0  0  0  0  0  0
  142.7170   77.1370  219.0040 C   0  0  0  0  0  0  0  0  0  0  0  0
  142.2400   77.0270  220.2410 N   0  0  0  0  0  0  0  0  0  0  0  0
  139.6470   72.1660  222.6830 C   0  0  0  0  0  0  0  0  0  0  0  0
  138.8750   71.0420  222.4810 C   0  0  0  0  0  0  0  0  0  0  0  0
  138.8520   70.0830  223.4690 C   0  0  0  0  0  0  0  0  0  0  0  0
  139.5670   70.2000  224.6420 C   0  0  0  0  0  0  0  0  0  0  0  0
  139.5550   69.2480  225.6390 C   0  0  0  0  0  0  0  0  0  0  0  0
  140.2910   69.4260  226.7900 C   0  0  0  0  0  0  0  0  0  0  0  0
  140.2700   68.3840  227.8680 C   0  0  0  0  0  0  0  0  0  0  0  0
  139.3700   67.3990  227.4740 F   0  0  0  0  0  0  0  0  0  0  0  0
  139.9310   68.9180  229.0740 F   0  0  0  0  0  0  0  0  0  0  0  0
  141.5110   67.7800  227.8800 F   0  0  0  0  0  0  0  0  0  0  0  0
  141.0340   70.5750  226.9110 C   0  0  0  0  0  0  0  0  0  0  0  0
  141.0820   71.5590  225.9460 C   0  0  0  0  0  0  0  0  0  0  0  0
  140.3310   71.3490  224.8010 C   0  0  0  0  0  0  0  0  0  0  0  0
  140.3330   72.2680  223.8200 N   0  0  0  0  0  0  0  0  0  0  0  0
  139.5680   74.7650  223.1190 H   0  0  0  0  0  0  0  0  0  0  0  0
  140.7555   75.9400  220.9302 H   0  0  0  0  0  0  0  0  0  0  0  0
  139.2332   75.3728  220.1805 H   0  0  0  0  0  0  0  0  0  0  0  0
  138.7398   79.7487  221.9359 H   0  0  0  0  0  0  0  0  0  0  0  0
  138.0247   78.6457  223.2151 H   0  0  0  0  0  0  0  0  0  0  0  0
  139.1696   80.8380  223.9019 H   0  0  0  0  0  0  0  0  0  0  0  0
  139.4857   79.2699  224.7874 H   0  0  0  0  0  0  0  0  0  0  0  0
  141.2647   80.7009  222.8196 H   0  0  0  0  0  0  0  0  0  0  0  0
  141.5258   80.3508  224.5950 H   0  0  0  0  0  0  0  0  0  0  0  0
  142.8037   78.9681  222.9448 H   0  0  0  0  0  0  0  0  0  0  0  0
  141.7923   78.1263  224.2409 H   0  0  0  0  0  0  0  0  0  0  0  0
  141.4169   76.8514  222.6257 H   0  0  0  0  0  0  0  0  0  0  0  0
  141.1046   80.1137  220.7183 H   0  0  0  0  0  0  0  0  0  0  0  0
  141.9751   80.3668  218.4343 H   0  0  0  0  0  0  0  0  0  0  0  0
  143.0414   78.4154  217.2814 H   0  0  0  0  0  0  0  0  0  0  0  0
  143.1791   76.2601  218.5270 H   0  0  0  0  0  0  0  0  0  0  0  0
  138.2933   70.9146  221.5561 H   0  0  0  0  0  0  0  0  0  0  0  0
  138.2363   69.1844  223.3156 H   0  0  0  0  0  0  0  0  0  0  0  0
  138.9515   68.3368  225.5143 H   0  0  0  0  0  0  0  0  0  0  0  0
  141.6235   70.7182  227.8286 H   0  0  0  0  0  0  0  0  0  0  0  0
  141.6878   72.4674  226.0791 H   0  0  0  0  0  0  0  0  0  0  0  0
  1  2  2  0
  2  3  1  0
  3  4  1  0
  4  5  1  0
  5  6  2  0
  5  7  1  0
  7  8  1  0
  8  9  1  0
  9 10  1  0
 10 11  1  0
 11 12  1  0
 12 13  1  0
 13 14  2  0
 14 15  1  0
 15 16  2  0
 16 17  1  0
 17 18  2  0
  2 19  1  0
 19 20  2  0
 20 21  1  0
 21 22  2  0
 22 23  1  0
 23 24  2  0
 24 25  1  0
 25 26  1  0
 25 27  1  0
 25 28  1  0
 24 29  1  0
 29 30  2  0
 30 31  1  0
 31 32  2  0
 12  7  1  0
 18 13  1  0
 32 19  1  0
 31 22  1  0
  3 33  1  0
  4 34  1  0
  4 35  1  0
  8 36  1  0
  8 37  1  0
  9 38  1  0
  9 39  1  0
 10 40  1  0
 10 41  1  0
 11 42  1  0
 11 43  1  0
 12 44  1  1
 14 45  1  0
 15 46  1  0
 16 47  1  0
 17 48  1  0
 20 49  1  0
 21 50  1  0
 23 51  1  0
 29 52  1  0
 30 53  1  0
M  END
>  <smiles>  (40) 
O=C(NCC(=O)N1CCCCC1c1ccccn1)c1ccc2cc(C(F)(F)F)ccc2n1

>  <score_type>  (40) 
oracle

>  <origin>  (40) 
autodockgpu

>  <m_score__min__energy>  (40) 
-8.6699999999999999

>  <m_primary>  (40) 
energy

>  <rmsd>  (40) 
3.7816081060983353

>  <m_score__min__rmsd>  (40) 
3.7816081060983353

>  <meeko>  (40) 
{"free_energy": -8.24, "intermolecular_energy": -10.03, "internal_energy": -1.59, "cluster_size": 42, "cluster_id": 1, "rank_in_cluster": 24}

>  <energy>  (40) 
-7.55

>  <cluster_rmsd>  (40) 
0.83

>  <cluster>  (40) 
1

$$$$

     RDKit          3D

 53 56  0  0  0  0  0  0  0  0999 V2000
  139.8390   72.5710  220.5860 O   0  0  0  0  0  0  0  0  0  0  0  0
  139.4080   72.8720  221.7470 C   0  0  0  0  0  0  0  0  0  0  0  0
  138.7890   74.1220  222.0260 N   0  0  0  0  0  0  0  0  0  0  0  0
  138.6090   75.1350  221.0080 C   0  0  0  0  0  0  0  0  0  0  0  0
  139.4930   76.2950  221.3330 C   0  0  0  0  0  0  0  0  0  0  0  0
  138.9680   77.2080  222.0280 O   0  0  0  0  0  0  0  0  0  0  0  0
  140.8450   76.3500  220.8770 N   0  0  0  0  0  0  0  0  0  0  0  0
  141.6420   75.1550  220.9640 C   0  0  0  0  0  0  0  0  0  0  0  0
  142.7420   75.0710  219.9600 C   0  0  0  0  0  0  0  0  0  0  0  0
  143.4210   76.3880  219.6970 C   0  0  0  0  0  0  0  0  0  0  0  0
  142.4750   77.5080  219.4340 C   0  0  0  0  0  0  0  0  0  0  0  0
  141.3120   77.6110  220.3580 C   0  0  2  0  0  0  0  0  0  0  0  0
  141.5080   78.5440  221.4770 C   0  0  0  0  0  0  0  0  0  0  0  0
  141.4830   78.1690  222.8120 C   0  0  0  0  0  0  0  0  0  0  0  0
  141.6710   79.0670  223.8420 C   0  0  0  0  0  0  0  0  0  0  0  0
  141.8930   80.3990  223.5620 C   0  0  0  0  0  0  0  0  0  0  0  0
  141.9160   80.7640  222.2290 C   0  0  0  0  0  0  0  0  0  0  0  0
  141.7320   79.8730  221.2590 N   0  0  0  0  0  0  0  0  0  0  0  0
  139.5560   71.8940  222.8290 C   0  0  0  0  0  0  0  0  0  0  0  0
  139.0640   70.6130  222.6870 C   0  0  0  0  0  0  0  0  0  0  0  0
  139.2290   69.7340  223.7330 C   0  0  0  0  0  0  0  0  0  0  0  0
  139.8620   70.0790  224.9080 C   0  0  0  0  0  0  0  0  0  0  0  0
  140.0350   69.2090  225.9630 C   0  0  0  0  0  0  0  0  0  0  0  0
  140.6770   69.6170  227.1130 C   0  0  0  0  0  0  0  0  0  0  0  0
  140.8590   68.6620  228.2540 C   0  0  0  0  0  0  0  0  0  0  0  0
  139.6310   68.5460  228.8960 F   0  0  0  0  0  0  0  0  0  0  0  0
  141.8320   69.0840  229.1090 F   0  0  0  0  0  0  0  0  0  0  0  0
  141.1240   67.4200  227.7140 F   0  0  0  0  0  0  0  0  0  0  0  0
  141.1370   70.9100  227.1720 C   0  0  0  0  0  0  0  0  0  0  0  0
  140.9910   71.8210  226.1470 C   0  0  0  0  0  0  0  0  0  0  0  0
  140.3410   71.3780  225.0060 C   0  0  0  0  0  0  0  0  0  0  0  0
  140.1650   72.2160  223.9680 N   0  0  0  0  0  0  0  0  0  0  0  0
  138.4600   74.2830  223.0240 H   0  0  0  0  0  0  0  0  0  0  0  0
  138.8812   74.7251  220.0242 H   0  0  0  0  0  0  0  0  0  0  0  0
  137.5579   75.4582  220.9791 H   0  0  0  0  0  0  0  0  0  0  0  0
  142.0892   75.1126  221.9681 H   0  0  0  0  0  0  0  0  0  0  0  0
  140.9657   74.3121  220.7586 H   0  0  0  0  0  0  0  0  0  0  0  0
  143.4953   74.3591  220.3285 H   0  0  0  0  0  0  0  0  0  0  0  0
  142.2884   74.7474  219.0116 H   0  0  0  0  0  0  0  0  0  0  0  0
  144.0294   76.6466  220.5762 H   0  0  0  0  0  0  0  0  0  0  0  0
  144.0283   76.2605  218.7888 H   0  0  0  0  0  0  0  0  0  0  0  0
  143.0410   78.4489  219.4993 H   0  0  0  0  0  0  0  0  0  0  0  0
  142.0474   77.3078  218.4405 H   0  0  0  0  0  0  0  0  0  0  0  0
  140.5329   78.0192  219.6974 H   0  0  0  0  0  0  0  0  0  0  0  0
  141.3060   77.1120  223.0596 H   0  0  0  0  0  0  0  0  0  0  0  0
  141.6439   78.7210  224.8858 H   0  0  0  0  0  0  0  0  0  0  0  0
  142.0449   81.1374  224.3631 H   0  0  0  0  0  0  0  0  0  0  0  0
  142.0908   81.8172  221.9640 H   0  0  0  0  0  0  0  0  0  0  0  0
  138.5539   70.3027  221.7632 H   0  0  0  0  0  0  0  0  0  0  0  0
  138.8386   68.7111  223.6268 H   0  0  0  0  0  0  0  0  0  0  0  0
  139.6571   68.1788  225.8867 H   0  0  0  0  0  0  0  0  0  0  0  0
  141.6506   71.2371  228.0881 H   0  0  0  0  0  0  0  0  0  0  0  0
  141.3720   72.8495  226.2310 H   0  0  0  0  0  0  0  0  0  0  0  0
  1  2  2  0
  2  3  1  0
  3  4  1  0
  4  5  1  0
  5  6  2  0
  5  7  1  0
  7  8  1  0
  8  9  1  0
  9 10  1  0
 10 11  1  0
 11 12  1  0
 12 13  1  0
 13 14  2  0
 14 15  1  0
 15 16  2  0
 16 17  1  0
 17 18  2  0
  2 19  1  0
 19 20  2  0
 20 21  1  0
 21 22  2  0
 22 23  1  0
 23 24  2  0
 24 25  1  0
 25 26  1  0
 25 27  1  0
 25 28  1  0
 24 29  1  0
 29 30  2  0
 30 31  1  0
 31 32  2  0
 12  7  1  0
 18 13  1  0
 32 19  1  0
 31 22  1  0
  3 33  1  0
  4 34  1  0
  4 35  1  0
  8 36  1  0
  8 37  1  0
  9 38  1  0
  9 39  1  0
 10 40  1  0
 10 41  1  0
 11 42  1  0
 11 43  1  0
 12 44  1  6
 14 45  1  0
 15 46  1  0
 16 47  1  0
 17 48  1  0
 20 49  1  0
 21 50  1  0
 23 51  1  0
 29 52  1  0
 30 53  1  0
M  END
>  <smiles>  (41) 
O=C(NCC(=O)N1CCCCC1c1ccccn1)c1ccc2cc(C(F)(F)F)ccc2n1

>  <score_type>  (41) 
oracle

>  <origin>  (41) 
autodockgpu

>  <m_score__min__energy>  (41) 
-8.6699999999999999

>  <m_primary>  (41) 
energy

>  <rmsd>  (41) 
2.6379152667919628

>  <m_score__min__rmsd>  (41) 
2.6379152667919628

>  <meeko>  (41) 
{"free_energy": -8.55, "intermolecular_energy": -10.34, "internal_energy": -1.6, "cluster_size": 42, "cluster_id": 1, "rank_in_cluster": 7}

>  <energy>  (41) 
-7.38

>  <cluster_rmsd>  (41) 
1.2

>  <cluster>  (41) 
1

$$$$

     RDKit          3D

 53 56  0  0  0  0  0  0  0  0999 V2000
  140.0250   72.9590  220.4290 O   0  0  0  0  0  0  0  0  0  0  0  0
  139.7860   73.2840  221.6370 C   0  0  0  0  0  0  0  0  0  0  0  0
  139.6330   74.6390  222.0430 N   0  0  0  0  0  0  0  0  0  0  0  0
  139.7390   75.7380  221.1060 C   0  0  0  0  0  0  0  0  0  0  0  0
  141.1850   75.9680  220.8070 C   0  0  0  0  0  0  0  0  0  0  0  0
  141.9900   75.1360  221.3120 O   0  0  0  0  0  0  0  0  0  0  0  0
  141.6120   77.0640  219.9990 N   0  0  0  0  0  0  0  0  0  0  0  0
  142.6450   76.8300  219.0240 C   0  0  0  0  0  0  0  0  0  0  0  0
  142.6040   77.7490  217.8490 C   0  0  0  0  0  0  0  0  0  0  0  0
  142.2350   79.1640  218.2010 C   0  0  0  0  0  0  0  0  0  0  0  0
  141.0280   79.2710  219.0660 C   0  0  0  0  0  0  0  0  0  0  0  0
  140.9680   78.3340  220.2220 C   0  0  2  0  0  0  0  0  0  0  0  0
  141.4560   78.9010  221.4880 C   0  0  0  0  0  0  0  0  0  0  0  0
  142.1990   80.0680  221.5780 C   0  0  0  0  0  0  0  0  0  0  0  0
  142.6440   80.5770  222.7800 C   0  0  0  0  0  0  0  0  0  0  0  0
  142.3520   79.9180  223.9560 C   0  0  0  0  0  0  0  0  0  0  0  0
  141.6110   78.7560  223.8570 C   0  0  0  0  0  0  0  0  0  0  0  0
  141.1970   78.2920  222.6820 N   0  0  0  0  0  0  0  0  0  0  0  0
  139.6650   72.2230  222.6420 C   0  0  0  0  0  0  0  0  0  0  0  0
  138.8320   71.1460  222.4250 C   0  0  0  0  0  0  0  0  0  0  0  0
  138.7540   70.1770  223.4000 C   0  0  0  0  0  0  0  0  0  0  0  0
  139.4720   70.2400  224.5760 C   0  0  0  0  0  0  0  0  0  0  0  0
  139.4050   69.2780  225.5610 C   0  0  0  0  0  0  0  0  0  0  0  0
  140.1480   69.4000  226.7140 C   0  0  0  0  0  0  0  0  0  0  0  0
  140.0680   68.3470  227.7790 C   0  0  0  0  0  0  0  0  0  0  0  0
  139.2230   67.3470  227.3090 F   0  0  0  0  0  0  0  0  0  0  0  0
  139.6250   68.8620  228.9590 F   0  0  0  0  0  0  0  0  0  0  0  0
  141.3170   67.7710  227.8830 F   0  0  0  0  0  0  0  0  0  0  0  0
  140.9530   70.5050  226.8500 C   0  0  0  0  0  0  0  0  0  0  0  0
  141.0580   71.4960  225.8980 C   0  0  0  0  0  0  0  0  0  0  0  0
  140.2980   71.3420  224.7500 C   0  0  0  0  0  0  0  0  0  0  0  0
  140.3530   72.2730  223.7810 N   0  0  0  0  0  0  0  0  0  0  0  0
  139.4350   74.8140  223.0720 H   0  0  0  0  0  0  0  0  0  0  0  0
  139.2035   75.4877  220.1783 H   0  0  0  0  0  0  0  0  0  0  0  0
  139.2943   76.6464  221.5385 H   0  0  0  0  0  0  0  0  0  0  0  0
  143.6195   76.9493  219.5201 H   0  0  0  0  0  0  0  0  0  0  0  0
  142.4836   75.8143  218.6336 H   0  0  0  0  0  0  0  0  0  0  0  0
  143.5984   77.7561  217.3788 H   0  0  0  0  0  0  0  0  0  0  0  0
  141.8228   77.3717  217.1728 H   0  0  0  0  0  0  0  0  0  0  0  0
  143.0832   79.6225  218.7304 H   0  0  0  0  0  0  0  0  0  0  0  0
  142.0007   79.6789  217.2576 H   0  0  0  0  0  0  0  0  0  0  0  0
  140.9874   80.2966  219.4616 H   0  0  0  0  0  0  0  0  0  0  0  0
  140.1772   79.0027  218.4224 H   0  0  0  0  0  0  0  0  0  0  0  0
  139.8862   78.1575  220.3145 H   0  0  0  0  0  0  0  0  0  0  0  0
  142.4436   80.6102  220.6527 H   0  0  0  0  0  0  0  0  0  0  0  0
  143.2309   81.5071  222.8009 H   0  0  0  0  0  0  0  0  0  0  0  0
  142.6938   80.3004  224.9291 H   0  0  0  0  0  0  0  0  0  0  0  0
  141.3575   78.2015  224.7725 H   0  0  0  0  0  0  0  0  0  0  0  0
  138.2456   71.0632  221.4980 H   0  0  0  0  0  0  0  0  0  0  0  0
  138.0905   69.3155  223.2339 H   0  0  0  0  0  0  0  0  0  0  0  0
  138.7513   68.4039  225.4246 H   0  0  0  0  0  0  0  0  0  0  0  0
  141.5471   70.6043  227.7704 H   0  0  0  0  0  0  0  0  0  0  0  0
  141.7137   72.3673  226.0427 H   0  0  0  0  0  0  0  0  0  0  0  0
  1  2  2  0
  2  3  1  0
  3  4  1  0
  4  5  1  0
  5  6  2  0
  5  7  1  0
  7  8  1  0
  8  9  1  0
  9 10  1  0
 10 11  1  0
 11 12  1  0
 12 13  1  0
 13 14  2  0
 14 15  1  0
 15 16  2  0
 16 17  1  0
 17 18  2  0
  2 19  1  0
 19 20  2  0
 20 21  1  0
 21 22  2  0
 22 23  1  0
 23 24  2  0
 24 25  1  0
 25 26  1  0
 25 27  1  0
 25 28  1  0
 24 29  1  0
 29 30  2  0
 30 31  1  0
 31 32  2  0
 12  7  1  0
 18 13  1  0
 32 19  1  0
 31 22  1  0
  3 33  1  0
  4 34  1  0
  4 35  1  0
  8 36  1  0
  8 37  1  0
  9 38  1  0
  9 39  1  0
 10 40  1  0
 10 41  1  0
 11 42  1  0
 11 43  1  0
 12 44  1  1
 14 45  1  0
 15 46  1  0
 16 47  1  0
 17 48  1  0
 20 49  1  0
 21 50  1  0
 23 51  1  0
 29 52  1  0
 30 53  1  0
M  END
>  <smiles>  (42) 
O=C(NCC(=O)N1CCCCC1c1ccccn1)c1ccc2cc(C(F)(F)F)ccc2n1

>  <score_type>  (42) 
oracle

>  <origin>  (42) 
autodockgpu

>  <m_score__min__energy>  (42) 
-8.6699999999999999

>  <m_primary>  (42) 
energy

>  <rmsd>  (42) 
2.530477173674305

>  <m_score__min__rmsd>  (42) 
2.530477173674305

>  <meeko>  (42) 
{"free_energy": -8.54, "intermolecular_energy": -10.33, "internal_energy": -1.64, "cluster_size": 42, "cluster_id": 1, "rank_in_cluster": 8}

>  <energy>  (42) 
-7.24

>  <cluster_rmsd>  (42) 
1.6

>  <cluster>  (42) 
1

$$$$

     RDKit          3D

 53 56  0  0  0  0  0  0  0  0999 V2000
  139.1460   72.4290  220.5150 O   0  0  0  0  0  0  0  0  0  0  0  0
  139.7260   72.7890  221.5910 C   0  0  0  0  0  0  0  0  0  0  0  0
  140.3190   74.0730  221.7400 N   0  0  0  0  0  0  0  0  0  0  0  0
  140.3030   75.0550  220.6750 C   0  0  0  0  0  0  0  0  0  0  0  0
  141.0160   76.2800  221.1500 C   0  0  0  0  0  0  0  0  0  0  0  0
  141.2000   76.3610  222.3960 O   0  0  0  0  0  0  0  0  0  0  0  0
  141.4540   77.2850  220.2360 N   0  0  0  0  0  0  0  0  0  0  0  0
  142.5620   76.9810  219.3690 C   0  0  0  0  0  0  0  0  0  0  0  0
  142.5680   77.7410  218.0850 C   0  0  0  0  0  0  0  0  0  0  0  0
  142.1190   79.1700  218.2270 C   0  0  0  0  0  0  0  0  0  0  0  0
  140.8510   79.3250  218.9910 C   0  0  0  0  0  0  0  0  0  0  0  0
  140.7460   78.5400  220.2520 C   0  0  2  0  0  0  0  0  0  0  0  0
  141.1210   79.2850  221.4630 C   0  0  0  0  0  0  0  0  0  0  0  0
  142.1320   80.2330  221.5070 C   0  0  0  0  0  0  0  0  0  0  0  0
  142.4620   80.9170  222.6580 C   0  0  0  0  0  0  0  0  0  0  0  0
  141.7740   80.6670  223.8280 C   0  0  0  0  0  0  0  0  0  0  0  0
  140.7680   79.7220  223.7740 C   0  0  0  0  0  0  0  0  0  0  0  0
  140.4740   79.0800  222.6470 N   0  0  0  0  0  0  0  0  0  0  0  0
  139.7810   71.8460  222.7120 C   0  0  0  0  0  0  0  0  0  0  0  0
  139.2630   70.5750  222.5820 C   0  0  0  0  0  0  0  0  0  0  0  0
  139.3400   69.7280  223.6660 C   0  0  0  0  0  0  0  0  0  0  0  0
  139.9110   70.0970  224.8650 C   0  0  0  0  0  0  0  0  0  0  0  0
  139.9950   69.2610  225.9570 C   0  0  0  0  0  0  0  0  0  0  0  0
  140.5780   69.6910  227.1290 C   0  0  0  0  0  0  0  0  0  0  0  0
  140.6640   68.7730  228.3110 C   0  0  0  0  0  0  0  0  0  0  0  0
  139.4770   68.9050  229.0240 F   0  0  0  0  0  0  0  0  0  0  0  0
  141.7480   69.0560  229.0870 F   0  0  0  0  0  0  0  0  0  0  0  0
  140.6760   67.4810  227.8280 F   0  0  0  0  0  0  0  0  0  0  0  0
  141.0690   70.9740  227.1730 C   0  0  0  0  0  0  0  0  0  0  0  0
  141.0110   71.8520  226.1110 C   0  0  0  0  0  0  0  0  0  0  0  0
  140.4190   71.3870  224.9480 C   0  0  0  0  0  0  0  0  0  0  0  0
  140.3300   72.1910  223.8750 N   0  0  0  0  0  0  0  0  0  0  0  0
  140.7800   74.2850  222.6730 H   0  0  0  0  0  0  0  0  0  0  0  0
  140.8122   74.6494  219.7883 H   0  0  0  0  0  0  0  0  0  0  0  0
  139.2656   75.3027  220.4058 H   0  0  0  0  0  0  0  0  0  0  0  0
  143.4932   77.2095  219.9081 H   0  0  0  0  0  0  0  0  0  0  0  0
  142.4695   75.9176  219.1033 H   0  0  0  0  0  0  0  0  0  0  0  0
  143.5921   77.7368  217.6836 H   0  0  0  0  0  0  0  0  0  0  0  0
  141.8525   77.2440  217.4134 H   0  0  0  0  0  0  0  0  0  0  0  0
  142.9087   79.7323  218.7468 H   0  0  0  0  0  0  0  0  0  0  0  0
  141.9318   79.5508  217.2121 H   0  0  0  0  0  0  0  0  0  0  0  0
  140.7410   80.3890  219.2473 H   0  0  0  0  0  0  0  0  0  0  0  0
  140.0602   78.9350  218.3334 H   0  0  0  0  0  0  0  0  0  0  0  0
  139.6682   78.3250  220.2974 H   0  0  0  0  0  0  0  0  0  0  0  0
  142.6938   80.4482  220.5861 H   0  0  0  0  0  0  0  0  0  0  0  0
  143.2724   81.6607  222.6437 H   0  0  0  0  0  0  0  0  0  0  0  0
  142.0159   81.1964  224.7614 H   0  0  0  0  0  0  0  0  0  0  0  0
  140.1959   79.4948  224.6857 H   0  0  0  0  0  0  0  0  0  0  0  0
  138.8012   70.2463  221.6393 H   0  0  0  0  0  0  0  0  0  0  0  0
  138.9277   68.7127  223.5703 H   0  0  0  0  0  0  0  0  0  0  0  0
  139.5923   68.2394  225.8924 H   0  0  0  0  0  0  0  0  0  0  0  0
  141.5343   71.3200  228.1078 H   0  0  0  0  0  0  0  0  0  0  0  0
  141.4153   72.8724  226.1839 H   0  0  0  0  0  0  0  0  0  0  0  0
  1  2  2  0
  2  3  1  0
  3  4  1  0
  4  5  1  0
  5  6  2  0
  5  7  1  0
  7  8  1  0
  8  9  1  0
  9 10  1  0
 10 11  1  0
 11 12  1  0
 12 13  1  0
 13 14  2  0
 14 15  1  0
 15 16  2  0
 16 17  1  0
 17 18  2  0
  2 19  1  0
 19 20  2  0
 20 21  1  0
 21 22  2  0
 22 23  1  0
 23 24  2  0
 24 25  1  0
 25 26  1  0
 25 27  1  0
 25 28  1  0
 24 29  1  0
 29 30  2  0
 30 31  1  0
 31 32  2  0
 12  7  1  0
 18 13  1  0
 32 19  1  0
 31 22  1  0
  3 33  1  0
  4 34  1  0
  4 35  1  0
  8 36  1  0
  8 37  1  0
  9 38  1  0
  9 39  1  0
 10 40  1  0
 10 41  1  0
 11 42  1  0
 11 43  1  0
 12 44  1  1
 14 45  1  0
 15 46  1  0
 16 47  1  0
 17 48  1  0
 20 49  1  0
 21 50  1  0
 23 51  1  0
 29 52  1  0
 30 53  1  0
M  END
>  <smiles>  (43) 
O=C(NCC(=O)N1CCCCC1c1ccccn1)c1ccc2cc(C(F)(F)F)ccc2n1

>  <score_type>  (43) 
oracle

>  <origin>  (43) 
autodockgpu

>  <m_score__min__energy>  (43) 
-8.6699999999999999

>  <m_primary>  (43) 
energy

>  <rmsd>  (43) 
2.4360846447886773

>  <m_score__min__rmsd>  (43) 
2.4360846447886773

>  <meeko>  (43) 
{"free_energy": -7.71, "intermolecular_energy": -9.5, "internal_energy": -2.33, "cluster_size": 42, "cluster_id": 1, "rank_in_cluster": 37}

>  <energy>  (43) 
-8.25

>  <cluster_rmsd>  (43) 
0.0

>  <cluster>  (43) 
2

$$$$

     RDKit          3D

 53 56  0  0  0  0  0  0  0  0999 V2000
  136.3590   77.7870  222.5540 O   0  0  0  0  0  0  0  0  0  0  0  0
  136.6760   76.6630  223.0620 C   0  0  0  0  0  0  0  0  0  0  0  0
  137.9660   76.0890  222.8930 N   0  0  0  0  0  0  0  0  0  0  0  0
  139.0050   76.7480  222.1290 C   0  0  0  0  0  0  0  0  0  0  0  0
  140.0810   75.7530  221.8370 C   0  0  0  0  0  0  0  0  0  0  0  0
  139.9160   74.6030  222.3310 O   0  0  0  0  0  0  0  0  0  0  0  0
  141.2180   76.0990  221.0470 N   0  0  0  0  0  0  0  0  0  0  0  0
  142.2120   75.0880  220.8030 C   0  0  0  0  0  0  0  0  0  0  0  0
  142.9840   75.2710  219.5390 C   0  0  0  0  0  0  0  0  0  0  0  0
  143.3100   76.7080  219.2340 C   0  0  0  0  0  0  0  0  0  0  0  0
  142.1410   77.6240  219.3420 C   0  0  0  0  0  0  0  0  0  0  0  0
  141.2840   77.4500  220.5480 C   0  0  2  0  0  0  0  0  0  0  0  0
  141.6110   78.3550  221.6600 C   0  0  0  0  0  0  0  0  0  0  0  0
  142.0310   79.6660  221.4930 C   0  0  0  0  0  0  0  0  0  0  0  0
  142.3300   80.4930  222.5560 C   0  0  0  0  0  0  0  0  0  0  0  0
  142.2170   80.0210  223.8480 C   0  0  0  0  0  0  0  0  0  0  0  0
  141.7970   78.7140  224.0040 C   0  0  0  0  0  0  0  0  0  0  0  0
  141.5150   77.9430  222.9570 N   0  0  0  0  0  0  0  0  0  0  0  0
  135.6730   75.9380  223.8490 C   0  0  0  0  0  0  0  0  0  0  0  0
  134.7070   76.6250  224.5540 C   0  0  0  0  0  0  0  0  0  0  0  0
  133.7890   75.8960  225.2770 C   0  0  0  0  0  0  0  0  0  0  0  0
  133.7960   74.5180  225.3230 C   0  0  0  0  0  0  0  0  0  0  0  0
  132.8840   73.7750  226.0410 C   0  0  0  0  0  0  0  0  0  0  0  0
  132.9460   72.3990  226.0480 C   0  0  0  0  0  0  0  0  0  0  0  0
  131.9480   71.6020  226.8330 C   0  0  0  0  0  0  0  0  0  0  0  0
  132.5630   70.4050  227.1860 F   0  0  0  0  0  0  0  0  0  0  0  0
  130.8080   71.3870  226.1210 F   0  0  0  0  0  0  0  0  0  0  0  0
  131.7220   72.2760  228.0150 F   0  0  0  0  0  0  0  0  0  0  0  0
  133.9410   71.7940  225.3170 C   0  0  0  0  0  0  0  0  0  0  0  0
  134.8780   72.4880  224.5820 C   0  0  0  0  0  0  0  0  0  0  0  0
  134.7870   73.8700  224.5970 C   0  0  0  0  0  0  0  0  0  0  0  0
  135.6700   74.6070  223.9010 N   0  0  0  0  0  0  0  0  0  0  0  0
  138.1380   75.1480  223.3540 H   0  0  0  0  0  0  0  0  0  0  0  0
  138.5868   77.1300  221.1860 H   0  0  0  0  0  0  0  0  0  0  0  0
  139.4169   77.5919  222.7018 H   0  0  0  0  0  0  0  0  0  0  0  0
  142.9220   75.0945  221.6431 H   0  0  0  0  0  0  0  0  0  0  0  0
  141.6712   74.1352  220.7040 H   0  0  0  0  0  0  0  0  0  0  0  0
  143.9270   74.7110  219.6235 H   0  0  0  0  0  0  0  0  0  0  0  0
  142.3505   74.9031  218.7184 H   0  0  0  0  0  0  0  0  0  0  0  0
  144.0824   77.0462  219.9405 H   0  0  0  0  0  0  0  0  0  0  0  0
  143.6512   76.7449  218.1889 H   0  0  0  0  0  0  0  0  0  0  0  0
  142.5214   78.6561  219.3456 H   0  0  0  0  0  0  0  0  0  0  0  0
  141.4965   77.3847  218.4833 H   0  0  0  0  0  0  0  0  0  0  0  0
  140.2905   77.7207  220.1612 H   0  0  0  0  0  0  0  0  0  0  0  0
  142.1298   80.0625  220.4717 H   0  0  0  0  0  0  0  0  0  0  0  0
  142.6580   81.5271  222.3741 H   0  0  0  0  0  0  0  0  0  0  0  0
  142.4508   80.6568  224.7146 H   0  0  0  0  0  0  0  0  0  0  0  0
  141.6933   78.3009  225.0182 H   0  0  0  0  0  0  0  0  0  0  0  0
  134.6707   77.7243  224.5393 H   0  0  0  0  0  0  0  0  0  0  0  0
  133.0161   76.4370  225.8427 H   0  0  0  0  0  0  0  0  0  0  0  0
  132.0975   74.2867  226.6151 H   0  0  0  0  0  0  0  0  0  0  0  0
  133.9921   70.6952  225.3188 H   0  0  0  0  0  0  0  0  0  0  0  0
  135.6613   71.9687  224.0104 H   0  0  0  0  0  0  0  0  0  0  0  0
  1  2  2  0
  2  3  1  0
  3  4  1  0
  4  5  1  0
  5  6  2  0
  5  7  1  0
  7  8  1  0
  8  9  1  0
  9 10  1  0
 10 11  1  0
 11 12  1  0
 12 13  1  0
 13 14  2  0
 14 15  1  0
 15 16  2  0
 16 17  1  0
 17 18  2  0
  2 19  1  0
 19 20  2  0
 20 21  1  0
 21 22  2  0
 22 23  1  0
 23 24  2  0
 24 25  1  0
 25 26  1  0
 25 27  1  0
 25 28  1  0
 24 29  1  0
 29 30  2  0
 30 31  1  0
 31 32  2  0
 12  7  1  0
 18 13  1  0
 32 19  1  0
 31 22  1  0
  3 33  1  0
  4 34  1  0
  4 35  1  0
  8 36  1  0
  8 37  1  0
  9 38  1  0
  9 39  1  0
 10 40  1  0
 10 41  1  0
 11 42  1  0
 11 43  1  0
 12 44  1  6
 14 45  1  0
 15 46  1  0
 16 47  1  0
 17 48  1  0
 20 49  1  0
 21 50  1  0
 23 51  1  0
 29 52  1  0
 30 53  1  0
M  END
>  <smiles>  (44) 
O=C(NCC(=O)N1CCCCC1c1ccccn1)c1ccc2cc(C(F)(F)F)ccc2n1

>  <score_type>  (44) 
oracle

>  <origin>  (44) 
autodockgpu

>  <m_score__min__energy>  (44) 
-8.6699999999999999

>  <m_primary>  (44) 
energy

>  <rmsd>  (44) 
5.446292064101945

>  <m_score__min__rmsd>  (44) 
5.446292064101945

>  <meeko>  (44) 
{"free_energy": -7.19, "intermolecular_energy": -8.98, "internal_energy": -2.13, "cluster_size": 1, "cluster_id": 6, "rank_in_cluster": 1}

>  <energy>  (44) 
-7.07

>  <cluster_rmsd>  (44) 
1.64

>  <cluster>  (44) 
2

$$$$

     RDKit          3D

 53 56  0  0  0  0  0  0  0  0999 V2000
  138.9300   72.6480  220.5980 O   0  0  0  0  0  0  0  0  0  0  0  0
  139.6460   72.9330  221.6120 C   0  0  0  0  0  0  0  0  0  0  0  0
  140.3640   74.1570  221.7140 N   0  0  0  0  0  0  0  0  0  0  0  0
  140.3280   75.1580  220.6690 C   0  0  0  0  0  0  0  0  0  0  0  0
  140.9710   76.4050  221.1840 C   0  0  0  0  0  0  0  0  0  0  0  0
  141.0350   76.5110  222.4400 O   0  0  0  0  0  0  0  0  0  0  0  0
  141.4750   77.4020  220.2960 N   0  0  0  0  0  0  0  0  0  0  0  0
  142.5850   77.0590  219.4470 C   0  0  0  0  0  0  0  0  0  0  0  0
  142.6550   77.8370  218.1760 C   0  0  0  0  0  0  0  0  0  0  0  0
  142.2710   79.2840  218.3320 C   0  0  0  0  0  0  0  0  0  0  0  0
  140.9950   79.4880  219.0730 C   0  0  0  0  0  0  0  0  0  0  0  0
  140.8270   78.6890  220.3180 C   0  0  2  0  0  0  0  0  0  0  0  0
  141.2110   79.3960  221.5490 C   0  0  0  0  0  0  0  0  0  0  0  0
  142.5090   79.4570  222.0340 C   0  0  0  0  0  0  0  0  0  0  0  0
  142.8400   80.1290  223.1920 C   0  0  0  0  0  0  0  0  0  0  0  0
  141.8610   80.7740  223.9170 C   0  0  0  0  0  0  0  0  0  0  0  0
  140.5710   80.7090  223.4260 C   0  0  0  0  0  0  0  0  0  0  0  0
  140.2840   80.0530  222.3050 N   0  0  0  0  0  0  0  0  0  0  0  0
  139.7300   71.9660  222.7110 C   0  0  0  0  0  0  0  0  0  0  0  0
  139.1900   70.7040  222.5750 C   0  0  0  0  0  0  0  0  0  0  0  0
  139.2960   69.8340  223.6370 C   0  0  0  0  0  0  0  0  0  0  0  0
  139.9160   70.1710  224.8210 C   0  0  0  0  0  0  0  0  0  0  0  0
  140.0300   69.3100  225.8920 C   0  0  0  0  0  0  0  0  0  0  0  0
  140.6610   69.7090  227.0500 C   0  0  0  0  0  0  0  0  0  0  0  0
  140.7790   68.7650  228.2090 C   0  0  0  0  0  0  0  0  0  0  0  0
  141.7840   69.2530  229.0380 F   0  0  0  0  0  0  0  0  0  0  0  0
  141.0450   67.4950  227.7950 F   0  0  0  0  0  0  0  0  0  0  0  0
  139.6090   68.8570  228.9350 F   0  0  0  0  0  0  0  0  0  0  0  0
  141.1710   70.9840  227.1020 C   0  0  0  0  0  0  0  0  0  0  0  0
  141.0850   71.8840  226.0620 C   0  0  0  0  0  0  0  0  0  0  0  0
  140.4440   71.4520  224.9120 C   0  0  0  0  0  0  0  0  0  0  0  0
  140.3260   72.2800  223.8600 N   0  0  0  0  0  0  0  0  0  0  0  0
  140.9350   74.3080  222.5980 H   0  0  0  0  0  0  0  0  0  0  0  0
  140.8768   74.7943  219.7878 H   0  0  0  0  0  0  0  0  0  0  0  0
  139.2868   75.3630  220.3793 H   0  0  0  0  0  0  0  0  0  0  0  0
  143.5143   77.2343  220.0088 H   0  0  0  0  0  0  0  0  0  0  0  0
  142.4471   76.0056  219.1619 H   0  0  0  0  0  0  0  0  0  0  0  0
  143.6863   77.7901  217.7962 H   0  0  0  0  0  0  0  0  0  0  0  0
  141.9317   77.3849  217.4814 H   0  0  0  0  0  0  0  0  0  0  0  0
  143.0753   79.8000  218.8768 H   0  0  0  0  0  0  0  0  0  0  0  0
  142.1233   79.6885  217.3198 H   0  0  0  0  0  0  0  0  0  0  0  0
  140.9304   80.5519  219.3449 H   0  0  0  0  0  0  0  0  0  0  0  0
  140.2002   79.1474  218.3931 H   0  0  0  0  0  0  0  0  0  0  0  0
  139.7395   78.5248  220.3370 H   0  0  0  0  0  0  0  0  0  0  0  0
  143.3067   78.9489  221.4723 H   0  0  0  0  0  0  0  0  0  0  0  0
  143.8844   80.1502  223.5368 H   0  0  0  0  0  0  0  0  0  0  0  0
  142.0961   81.3161  224.8448 H   0  0  0  0  0  0  0  0  0  0  0  0
  139.7617   81.2120  223.9755 H   0  0  0  0  0  0  0  0  0  0  0  0
  138.6886   70.4010  221.6440 H   0  0  0  0  0  0  0  0  0  0  0  0
  138.8672   68.8261  223.5361 H   0  0  0  0  0  0  0  0  0  0  0  0
  139.6130   68.2946  225.8212 H   0  0  0  0  0  0  0  0  0  0  0  0
  141.6761   71.3040  228.0253 H   0  0  0  0  0  0  0  0  0  0  0  0
  141.5054   72.8974  226.1410 H   0  0  0  0  0  0  0  0  0  0  0  0
  1  2  2  0
  2  3  1  0
  3  4  1  0
  4  5  1  0
  5  6  2  0
  5  7  1  0
  7  8  1  0
  8  9  1  0
  9 10  1  0
 10 11  1  0
 11 12  1  0
 12 13  1  0
 13 14  2  0
 14 15  1  0
 15 16  2  0
 16 17  1  0
 17 18  2  0
  2 19  1  0
 19 20  2  0
 20 21  1  0
 21 22  2  0
 22 23  1  0
 23 24  2  0
 24 25  1  0
 25 26  1  0
 25 27  1  0
 25 28  1  0
 24 29  1  0
 29 30  2  0
 30 31  1  0
 31 32  2  0
 12  7  1  0
 18 13  1  0
 32 19  1  0
 31 22  1  0
  3 33  1  0
  4 34  1  0
  4 35  1  0
  8 36  1  0
  8 37  1  0
  9 38  1  0
  9 39  1  0
 10 40  1  0
 10 41  1  0
 11 42  1  0
 11 43  1  0
 12 44  1  1
 14 45  1  0
 15 46  1  0
 16 47  1  0
 17 48  1  0
 20 49  1  0
 21 50  1  0
 23 51  1  0
 29 52  1  0
 30 53  1  0
M  END
>  <smiles>  (45) 
O=C(NCC(=O)N1CCCCC1c1ccccn1)c1ccc2cc(C(F)(F)F)ccc2n1

>  <score_type>  (45) 
oracle

>  <origin>  (45) 
autodockgpu

>  <m_score__min__energy>  (45) 
-8.6699999999999999

>  <m_primary>  (45) 
energy

>  <rmsd>  (45) 
2.693721981288381

>  <m_score__min__rmsd>  (45) 
2.693721981288381

>  <meeko>  (45) 
{"free_energy": -7.85, "intermolecular_energy": -9.64, "internal_energy": -2.32, "cluster_size": 42, "cluster_id": 1, "rank_in_cluster": 32}

>  <energy>  (45) 
-7.66

>  <cluster_rmsd>  (45) 
0.0

>  <cluster>  (45) 
3

$$$$

     RDKit          3D

 53 56  0  0  0  0  0  0  0  0999 V2000
  139.9460   72.6800  220.4730 O   0  0  0  0  0  0  0  0  0  0  0  0
  139.7280   73.0890  221.6600 C   0  0  0  0  0  0  0  0  0  0  0  0
  139.5910   74.4690  221.9740 N   0  0  0  0  0  0  0  0  0  0  0  0
  139.6910   75.5010  220.9630 C   0  0  0  0  0  0  0  0  0  0  0  0
  140.7250   76.4890  221.3950 C   0  0  0  0  0  0  0  0  0  0  0  0
  141.0700   76.4290  222.6080 O   0  0  0  0  0  0  0  0  0  0  0  0
  141.2780   77.4350  220.4800 N   0  0  0  0  0  0  0  0  0  0  0  0
  142.4000   77.0290  219.6750 C   0  0  0  0  0  0  0  0  0  0  0  0
  142.5210   77.7510  218.3750 C   0  0  0  0  0  0  0  0  0  0  0  0
  142.1710   79.2120  218.4610 C   0  0  0  0  0  0  0  0  0  0  0  0
  140.8830   79.4790  219.1580 C   0  0  0  0  0  0  0  0  0  0  0  0
  140.6630   78.7380  220.4310 C   0  0  2  0  0  0  0  0  0  0  0  0
  141.0340   79.4870  221.6410 C   0  0  0  0  0  0  0  0  0  0  0  0
  142.2490   80.1330  221.8090 C   0  0  0  0  0  0  0  0  0  0  0  0
  142.5710   80.8300  222.9550 C   0  0  0  0  0  0  0  0  0  0  0  0
  141.6640   80.9020  223.9930 C   0  0  0  0  0  0  0  0  0  0  0  0
  140.4560   80.2550  223.8160 C   0  0  0  0  0  0  0  0  0  0  0  0
  140.1770   79.5930  222.6980 N   0  0  0  0  0  0  0  0  0  0  0  0
  139.6150   72.1000  222.7360 C   0  0  0  0  0  0  0  0  0  0  0  0
  138.7690   71.0190  222.6060 C   0  0  0  0  0  0  0  0  0  0  0  0
  138.6990   70.1190  223.6470 C   0  0  0  0  0  0  0  0  0  0  0  0
  139.4360   70.2550  224.8030 C   0  0  0  0  0  0  0  0  0  0  0  0
  139.3780   69.3630  225.8530 C   0  0  0  0  0  0  0  0  0  0  0  0
  140.1400   69.5560  226.9840 C   0  0  0  0  0  0  0  0  0  0  0  0
  140.0680   68.5790  228.1190 C   0  0  0  0  0  0  0  0  0  0  0  0
  139.4770   67.4190  227.6290 F   0  0  0  0  0  0  0  0  0  0  0  0
  139.3740   69.0880  229.1740 F   0  0  0  0  0  0  0  0  0  0  0  0
  141.3630   68.2340  228.4470 F   0  0  0  0  0  0  0  0  0  0  0  0
  140.9570   70.6600  227.0310 C   0  0  0  0  0  0  0  0  0  0  0  0
  141.0540   71.5830  226.0120 C   0  0  0  0  0  0  0  0  0  0  0  0
  140.2740   71.3590  224.8890 C   0  0  0  0  0  0  0  0  0  0  0  0
  140.3220   72.2200  223.8580 N   0  0  0  0  0  0  0  0  0  0  0  0
  139.4110   74.7150  222.9910 H   0  0  0  0  0  0  0  0  0  0  0  0
  139.9848   75.0524  220.0026 H   0  0  0  0  0  0  0  0  0  0  0  0
  138.7197   76.0020  220.8384 H   0  0  0  0  0  0  0  0  0  0  0  0
  143.3193   77.2051  220.2529 H   0  0  0  0  0  0  0  0  0  0  0  0
  142.2427   75.9681  219.4307 H   0  0  0  0  0  0  0  0  0  0  0  0
  143.5596   77.6626  218.0237 H   0  0  0  0  0  0  0  0  0  0  0  0
  141.8033   77.2882  217.6816 H   0  0  0  0  0  0  0  0  0  0  0  0
  142.9743   79.7300  219.0054 H   0  0  0  0  0  0  0  0  0  0  0  0
  142.0598   79.5771  217.4293 H   0  0  0  0  0  0  0  0  0  0  0  0
  140.8390   80.5548  219.3830 H   0  0  0  0  0  0  0  0  0  0  0  0
  140.0971   79.1297  218.4722 H   0  0  0  0  0  0  0  0  0  0  0  0
  139.5714   78.6019  220.4284 H   0  0  0  0  0  0  0  0  0  0  0  0
  142.9870   80.0879  220.9946 H   0  0  0  0  0  0  0  0  0  0  0  0
  143.5484   81.3273  223.0415 H   0  0  0  0  0  0  0  0  0  0  0  0
  141.8925   81.4497  224.9192 H   0  0  0  0  0  0  0  0  0  0  0  0
  139.7066   80.2887  224.6205 H   0  0  0  0  0  0  0  0  0  0  0  0
  138.1666   70.8790  221.6963 H   0  0  0  0  0  0  0  0  0  0  0  0
  138.0256   69.2546  223.5509 H   0  0  0  0  0  0  0  0  0  0  0  0
  138.7156   68.4873  225.7866 H   0  0  0  0  0  0  0  0  0  0  0  0
  141.5678   70.8158  227.9325 H   0  0  0  0  0  0  0  0  0  0  0  0
  141.7191   72.4560  226.0868 H   0  0  0  0  0  0  0  0  0  0  0  0
  1  2  2  0
  2  3  1  0
  3  4  1  0
  4  5  1  0
  5  6  2  0
  5  7  1  0
  7  8  1  0
  8  9  1  0
  9 10  1  0
 10 11  1  0
 11 12  1  0
 12 13  1  0
 13 14  2  0
 14 15  1  0
 15 16  2  0
 16 17  1  0
 17 18  2  0
  2 19  1  0
 19 20  2  0
 20 21  1  0
 21 22  2  0
 22 23  1  0
 23 24  2  0
 24 25  1  0
 25 26  1  0
 25 27  1  0
 25 28  1  0
 24 29  1  0
 29 30  2  0
 30 31  1  0
 31 32  2  0
 12  7  1  0
 18 13  1  0
 32 19  1  0
 31 22  1  0
  3 33  1  0
  4 34  1  0
  4 35  1  0
  8 36  1  0
  8 37  1  0
  9 38  1  0
  9 39  1  0
 10 40  1  0
 10 41  1  0
 11 42  1  0
 11 43  1  0
 12 44  1  1
 14 45  1  0
 15 46  1  0
 16 47  1  0
 17 48  1  0
 20 49  1  0
 21 50  1  0
 23 51  1  0
 29 52  1  0
 30 53  1  0
M  END
>  <smiles>  (46) 
O=C(NCC(=O)N1CCCCC1c1ccccn1)c1ccc2cc(C(F)(F)F)ccc2n1

>  <score_type>  (46) 
oracle

>  <origin>  (46) 
autodockgpu

>  <m_score__min__energy>  (46) 
-8.6699999999999999

>  <m_primary>  (46) 
energy

>  <rmsd>  (46) 
2.5661068117131283

>  <m_score__min__rmsd>  (46) 
2.5661068117131283

>  <meeko>  (46) 
{"free_energy": -8.25, "intermolecular_energy": -10.04, "internal_energy": -1.92, "cluster_size": 42, "cluster_id": 1, "rank_in_cluster": 22}

>  <energy>  (46) 
-7.63

>  <cluster_rmsd>  (46) 
0.0

>  <cluster>  (46) 
4

$$$$

     RDKit          3D

 53 56  0  0  0  0  0  0  0  0999 V2000
  138.1930   70.9810  220.1700 O   0  0  0  0  0  0  0  0  0  0  0  0
  138.9420   71.5340  221.0400 C   0  0  0  0  0  0  0  0  0  0  0  0
  139.6110   72.7650  220.7950 N   0  0  0  0  0  0  0  0  0  0  0  0
  139.4850   73.4700  219.5360 C   0  0  0  0  0  0  0  0  0  0  0  0
  140.8170   73.4720  218.8590 C   0  0  0  0  0  0  0  0  0  0  0  0
  140.7940   73.3610  217.6020 O   0  0  0  0  0  0  0  0  0  0  0  0
  142.0280   73.5940  219.6030 N   0  0  0  0  0  0  0  0  0  0  0  0
  142.5700   72.4130  220.2220 C   0  0  0  0  0  0  0  0  0  0  0  0
  144.0490   72.4400  220.4160 C   0  0  0  0  0  0  0  0  0  0  0  0
  144.5810   73.7880  220.8200 C   0  0  0  0  0  0  0  0  0  0  0  0
  144.0830   74.9060  219.9710 C   0  0  0  0  0  0  0  0  0  0  0  0
  142.6240   74.9050  219.6780 C   0  0  2  0  0  0  0  0  0  0  0  0
  141.8230   75.7420  220.5830 C   0  0  0  0  0  0  0  0  0  0  0  0
  141.8450   77.1290  220.5780 C   0  0  0  0  0  0  0  0  0  0  0  0
  141.0810   77.8890  221.4400 C   0  0  0  0  0  0  0  0  0  0  0  0
  140.2540   77.2700  222.3540 C   0  0  0  0  0  0  0  0  0  0  0  0
  140.2390   75.8890  222.3520 C   0  0  0  0  0  0  0  0  0  0  0  0
  140.9870   75.1850  221.5070 N   0  0  0  0  0  0  0  0  0  0  0  0
  139.1170   70.8760  222.3390 C   0  0  0  0  0  0  0  0  0  0  0  0
  138.4750   69.6870  222.6130 C   0  0  0  0  0  0  0  0  0  0  0  0
  138.6730   69.1110  223.8480 C   0  0  0  0  0  0  0  0  0  0  0  0
  139.4820   69.6710  224.8140 C   0  0  0  0  0  0  0  0  0  0  0  0
  139.6900   69.1060  226.0540 C   0  0  0  0  0  0  0  0  0  0  0  0
  140.5110   69.7160  226.9760 C   0  0  0  0  0  0  0  0  0  0  0  0
  140.7300   69.0930  228.3220 C   0  0  0  0  0  0  0  0  0  0  0  0
  141.7370   69.8160  228.9530 F   0  0  0  0  0  0  0  0  0  0  0  0
  141.0530   67.7740  228.2160 F   0  0  0  0  0  0  0  0  0  0  0  0
  139.5870   69.3060  229.0650 F   0  0  0  0  0  0  0  0  0  0  0  0
  141.1120   70.9000  226.6220 C   0  0  0  0  0  0  0  0  0  0  0  0
  140.9390   71.5090  225.3970 C   0  0  0  0  0  0  0  0  0  0  0  0
  140.1080   70.8680  224.4930 C   0  0  0  0  0  0  0  0  0  0  0  0
  139.8960   71.4070  223.2800 N   0  0  0  0  0  0  0  0  0  0  0  0
  140.2140   73.1490  221.5800 H   0  0  0  0  0  0  0  0  0  0  0  0
  138.7456   72.9626  218.8989 H   0  0  0  0  0  0  0  0  0  0  0  0
  139.1508   74.5028  219.7139 H   0  0  0  0  0  0  0  0  0  0  0  0
  142.0963   72.2933  221.2075 H   0  0  0  0  0  0  0  0  0  0  0  0
  142.3591   71.5768  219.5392 H   0  0  0  0  0  0  0  0  0  0  0  0
  144.3097   71.7143  221.2005 H   0  0  0  0  0  0  0  0  0  0  0  0
  144.5052   72.1916  219.4464 H   0  0  0  0  0  0  0  0  0  0  0  0
  144.2818   73.9820  221.8606 H   0  0  0  0  0  0  0  0  0  0  0  0
  145.6736   73.7528  220.6977 H   0  0  0  0  0  0  0  0  0  0  0  0
  144.3224   75.8496  220.4832 H   0  0  0  0  0  0  0  0  0  0  0  0
  144.5802   74.7823  218.9976 H   0  0  0  0  0  0  0  0  0  0  0  0
  142.5946   75.3528  218.6737 H   0  0  0  0  0  0  0  0  0  0  0  0
  142.4979   77.6439  219.8578 H   0  0  0  0  0  0  0  0  0  0  0  0
  141.1315   78.9870  221.3982 H   0  0  0  0  0  0  0  0  0  0  0  0
  139.6341   77.8503  223.0533 H   0  0  0  0  0  0  0  0  0  0  0  0
  139.5927   75.3584  223.0666 H   0  0  0  0  0  0  0  0  0  0  0  0
  137.8227   69.2116  221.8657 H   0  0  0  0  0  0  0  0  0  0  0  0
  138.1635   68.1626  224.0738 H   0  0  0  0  0  0  0  0  0  0  0  0
  139.1948   68.1576  226.3098 H   0  0  0  0  0  0  0  0  0  0  0  0
  141.7679   71.3894  227.3571 H   0  0  0  0  0  0  0  0  0  0  0  0
  141.4369   72.4581  225.1496 H   0  0  0  0  0  0  0  0  0  0  0  0
  1  2  2  0
  2  3  1  0
  3  4  1  0
  4  5  1  0
  5  6  2  0
  5  7  1  0
  7  8  1  0
  8  9  1  0
  9 10  1  0
 10 11  1  0
 11 12  1  0
 12 13  1  0
 13 14  2  0
 14 15  1  0
 15 16  2  0
 16 17  1  0
 17 18  2  0
  2 19  1  0
 19 20  2  0
 20 21  1  0
 21 22  2  0
 22 23  1  0
 23 24  2  0
 24 25  1  0
 25 26  1  0
 25 27  1  0
 25 28  1  0
 24 29  1  0
 29 30  2  0
 30 31  1  0
 31 32  2  0
 12  7  1  0
 18 13  1  0
 32 19  1  0
 31 22  1  0
  3 33  1  0
  4 34  1  0
  4 35  1  0
  8 36  1  0
  8 37  1  0
  9 38  1  0
  9 39  1  0
 10 40  1  0
 10 41  1  0
 11 42  1  0
 11 43  1  0
 12 44  1  6
 14 45  1  0
 15 46  1  0
 16 47  1  0
 17 48  1  0
 20 49  1  0
 21 50  1  0
 23 51  1  0
 29 52  1  0
 30 53  1  0
M  END
>  <smiles>  (47) 
O=C(NCC(=O)N1CCCCC1c1ccccn1)c1ccc2cc(C(F)(F)F)ccc2n1

>  <score_type>  (47) 
oracle

>  <origin>  (47) 
autodockgpu

>  <m_score__min__energy>  (47) 
-8.6699999999999999

>  <m_primary>  (47) 
energy

>  <rmsd>  (47) 
3.2136380254557784

>  <m_score__min__rmsd>  (47) 
3.2136380254557784

>  <meeko>  (47) 
{"free_energy": -6.4, "intermolecular_energy": -8.19, "internal_energy": -2.88, "cluster_size": 1, "cluster_id": 8, "rank_in_cluster": 1}

>  <energy>  (47) 
-7.4

>  <cluster_rmsd>  (47) 
0.0

>  <cluster>  (47) 
5

$$$$

     RDKit          3D

 53 56  0  0  0  0  0  0  0  0999 V2000
  137.8950   71.9880  221.0480 O   0  0  0  0  0  0  0  0  0  0  0  0
  138.5890   72.4150  222.0280 C   0  0  0  0  0  0  0  0  0  0  0  0
  139.0520   73.7580  222.1010 N   0  0  0  0  0  0  0  0  0  0  0  0
  138.7650   74.7270  221.0640 C   0  0  0  0  0  0  0  0  0  0  0  0
  139.5780   75.9540  221.3240 C   0  0  0  0  0  0  0  0  0  0  0  0
  138.9970   76.8720  221.9660 O   0  0  0  0  0  0  0  0  0  0  0  0
  140.9260   76.0630  220.8680 N   0  0  0  0  0  0  0  0  0  0  0  0
  141.7660   74.8960  220.9420 C   0  0  0  0  0  0  0  0  0  0  0  0
  142.8680   74.8630  219.9360 C   0  0  0  0  0  0  0  0  0  0  0  0
  143.4990   76.2070  219.6870 C   0  0  0  0  0  0  0  0  0  0  0  0
  142.5120   77.2940  219.4380 C   0  0  0  0  0  0  0  0  0  0  0  0
  141.3470   77.3460  220.3630 C   0  0  2  0  0  0  0  0  0  0  0  0
  141.5100   78.2730  221.4920 C   0  0  0  0  0  0  0  0  0  0  0  0
  141.7620   79.6290  221.3500 C   0  0  0  0  0  0  0  0  0  0  0  0
  141.9090   80.4770  222.4290 C   0  0  0  0  0  0  0  0  0  0  0  0
  141.8080   79.9810  223.7120 C   0  0  0  0  0  0  0  0  0  0  0  0
  141.5570   78.6290  223.8440 C   0  0  0  0  0  0  0  0  0  0  0  0
  141.4190   77.8390  222.7830 N   0  0  0  0  0  0  0  0  0  0  0  0
  138.9190   71.4900  223.1160 C   0  0  0  0  0  0  0  0  0  0  0  0
  138.4330   70.1990  223.1070 C   0  0  0  0  0  0  0  0  0  0  0  0
  138.7720   69.3690  224.1530 C   0  0  0  0  0  0  0  0  0  0  0  0
  139.5730   69.7750  225.2000 C   0  0  0  0  0  0  0  0  0  0  0  0
  139.9210   68.9560  226.2520 C   0  0  0  0  0  0  0  0  0  0  0  0
  140.7240   69.4220  227.2700 C   0  0  0  0  0  0  0  0  0  0  0  0
  141.0970   68.5230  228.4100 C   0  0  0  0  0  0  0  0  0  0  0  0
  139.9430   68.3000  229.1540 F   0  0  0  0  0  0  0  0  0  0  0  0
  142.0860   69.0650  229.1730 F   0  0  0  0  0  0  0  0  0  0  0  0
  141.4450   67.3000  227.8740 F   0  0  0  0  0  0  0  0  0  0  0  0
  141.1650   70.7220  227.2010 C   0  0  0  0  0  0  0  0  0  0  0  0
  140.8470   71.5830  226.1720 C   0  0  0  0  0  0  0  0  0  0  0  0
  140.0380   71.0820  225.1660 C   0  0  0  0  0  0  0  0  0  0  0  0
  139.6900   71.8690  224.1320 N   0  0  0  0  0  0  0  0  0  0  0  0
  139.6240   74.0240  222.9560 H   0  0  0  0  0  0  0  0  0  0  0  0
  139.0287   74.3083  220.0816 H   0  0  0  0  0  0  0  0  0  0  0  0
  137.6937   74.9767  221.0673 H   0  0  0  0  0  0  0  0  0  0  0  0
  142.2153   74.8589  221.9454 H   0  0  0  0  0  0  0  0  0  0  0  0
  141.1206   74.0313  220.7281 H   0  0  0  0  0  0  0  0  0  0  0  0
  143.6469   74.1748  220.2962 H   0  0  0  0  0  0  0  0  0  0  0  0
  142.4254   74.5338  218.9843 H   0  0  0  0  0  0  0  0  0  0  0  0
  144.0990   76.4777  220.5683 H   0  0  0  0  0  0  0  0  0  0  0  0
  144.1096   76.1122  218.7770 H   0  0  0  0  0  0  0  0  0  0  0  0
  143.0436   78.2541  219.5129 H   0  0  0  0  0  0  0  0  0  0  0  0
  142.0901   77.0875  218.4433 H   0  0  0  0  0  0  0  0  0  0  0  0
  140.5535   77.7341  219.7075 H   0  0  0  0  0  0  0  0  0  0  0  0
  141.8483   80.0461  220.3358 H   0  0  0  0  0  0  0  0  0  0  0  0
  142.1064   81.5468  222.2659 H   0  0  0  0  0  0  0  0  0  0  0  0
  141.9222   80.6328  224.5907 H   0  0  0  0  0  0  0  0  0  0  0  0
  141.4692   78.1953  224.8511 H   0  0  0  0  0  0  0  0  0  0  0  0
  137.7924   69.8421  222.2871 H   0  0  0  0  0  0  0  0  0  0  0  0
  138.3875   68.3384  224.1532 H   0  0  0  0  0  0  0  0  0  0  0  0
  139.5539   67.9194  226.2794 H   0  0  0  0  0  0  0  0  0  0  0  0
  141.8073   71.0963  228.0118 H   0  0  0  0  0  0  0  0  0  0  0  0
  141.2182   72.6183  226.1512 H   0  0  0  0  0  0  0  0  0  0  0  0
  1  2  2  0
  2  3  1  0
  3  4  1  0
  4  5  1  0
  5  6  2  0
  5  7  1  0
  7  8  1  0
  8  9  1  0
  9 10  1  0
 10 11  1  0
 11 12  1  0
 12 13  1  0
 13 14  2  0
 14 15  1  0
 15 16  2  0
 16 17  1  0
 17 18  2  0
  2 19  1  0
 19 20  2  0
 20 21  1  0
 21 22  2  0
 22 23  1  0
 23 24  2  0
 24 25  1  0
 25 26  1  0
 25 27  1  0
 25 28  1  0
 24 29  1  0
 29 30  2  0
 30 31  1  0
 31 32  2  0
 12  7  1  0
 18 13  1  0
 32 19  1  0
 31 22  1  0
  3 33  1  0
  4 34  1  0
  4 35  1  0
  8 36  1  0
  8 37  1  0
  9 38  1  0
  9 39  1  0
 10 40  1  0
 10 41  1  0
 11 42  1  0
 11 43  1  0
 12 44  1  6
 14 45  1  0
 15 46  1  0
 16 47  1  0
 17 48  1  0
 20 49  1  0
 21 50  1  0
 23 51  1  0
 29 52  1  0
 30 53  1  0
M  END
>  <smiles>  (48) 
O=C(NCC(=O)N1CCCCC1c1ccccn1)c1ccc2cc(C(F)(F)F)ccc2n1

>  <score_type>  (48) 
oracle

>  <origin>  (48) 
autodockgpu

>  <m_score__min__energy>  (48) 
-8.6699999999999999

>  <m_primary>  (48) 
energy

>  <rmsd>  (48) 
2.136116327662085

>  <m_score__min__rmsd>  (48) 
2.136116327662085

>  <meeko>  (48) 
{"free_energy": -7.97, "intermolecular_energy": -9.76, "internal_energy": -1.8, "cluster_size": 42, "cluster_id": 1, "rank_in_cluster": 29}

>  <energy>  (48) 
-7.19

>  <cluster_rmsd>  (48) 
0.0

>  <cluster>  (48) 
6

$$$$

     RDKit          3D

 53 56  0  0  0  0  0  0  0  0999 V2000
  139.7630   72.7650  220.4290 O   0  0  0  0  0  0  0  0  0  0  0  0
  139.6750   73.1480  221.6410 C   0  0  0  0  0  0  0  0  0  0  0  0
  139.6320   74.5230  222.0010 N   0  0  0  0  0  0  0  0  0  0  0  0
  139.6860   75.5780  221.0120 C   0  0  0  0  0  0  0  0  0  0  0  0
  140.6430   76.6240  221.4850 C   0  0  0  0  0  0  0  0  0  0  0  0
  140.7900   76.7090  222.7350 O   0  0  0  0  0  0  0  0  0  0  0  0
  141.3400   77.4640  220.5650 N   0  0  0  0  0  0  0  0  0  0  0  0
  142.4220   76.8930  219.8060 C   0  0  0  0  0  0  0  0  0  0  0  0
  142.6730   77.5570  218.4940 C   0  0  0  0  0  0  0  0  0  0  0  0
  142.5140   79.0520  218.5330 C   0  0  0  0  0  0  0  0  0  0  0  0
  141.2520   79.5030  219.1820 C   0  0  0  0  0  0  0  0  0  0  0  0
  140.9010   78.8340  220.4650 C   0  0  2  0  0  0  0  0  0  0  0  0
  141.3320   79.5620  221.6670 C   0  0  0  0  0  0  0  0  0  0  0  0
  142.5660   79.3880  222.2770 C   0  0  0  0  0  0  0  0  0  0  0  0
  142.9440   80.0860  223.4050 C   0  0  0  0  0  0  0  0  0  0  0  0
  142.0790   81.0000  223.9710 C   0  0  0  0  0  0  0  0  0  0  0  0
  140.8530   81.1660  223.3560 C   0  0  0  0  0  0  0  0  0  0  0  0
  140.5190   80.4780  222.2690 N   0  0  0  0  0  0  0  0  0  0  0  0
  139.6170   72.1340  222.6980 C   0  0  0  0  0  0  0  0  0  0  0  0
  138.8240   71.0150  222.5510 C   0  0  0  0  0  0  0  0  0  0  0  0
  138.8050   70.0930  223.5740 C   0  0  0  0  0  0  0  0  0  0  0  0
  139.5420   70.2420  224.7300 C   0  0  0  0  0  0  0  0  0  0  0  0
  139.5330   69.3280  225.7610 C   0  0  0  0  0  0  0  0  0  0  0  0
  140.2920   69.5360  226.8920 C   0  0  0  0  0  0  0  0  0  0  0  0
  140.2750   68.5350  228.0080 C   0  0  0  0  0  0  0  0  0  0  0  0
  139.5620   69.1010  229.0600 F   0  0  0  0  0  0  0  0  0  0  0  0
  141.5360   68.1870  228.3880 F   0  0  0  0  0  0  0  0  0  0  0  0
  139.5290   67.4550  227.5810 F   0  0  0  0  0  0  0  0  0  0  0  0
  141.0540   70.6770  226.9570 C   0  0  0  0  0  0  0  0  0  0  0  0
  141.1000   71.6240  225.9560 C   0  0  0  0  0  0  0  0  0  0  0  0
  140.3250   71.3840  224.8330 C   0  0  0  0  0  0  0  0  0  0  0  0
  140.3240   72.2670  223.8190 N   0  0  0  0  0  0  0  0  0  0  0  0
  139.5590   74.7470  223.0370 H   0  0  0  0  0  0  0  0  0  0  0  0
  140.0298   75.1681  220.0508 H   0  0  0  0  0  0  0  0  0  0  0  0
  138.6867   76.0166  220.8743 H   0  0  0  0  0  0  0  0  0  0  0  0
  143.3396   76.9639  220.4084 H   0  0  0  0  0  0  0  0  0  0  0  0
  142.1346   75.8551  219.5823 H   0  0  0  0  0  0  0  0  0  0  0  0
  143.7010   77.3252  218.1785 H   0  0  0  0  0  0  0  0  0  0  0  0
  141.9209   77.1719  217.7897 H   0  0  0  0  0  0  0  0  0  0  0  0
  143.3621   79.4770  219.0899 H   0  0  0  0  0  0  0  0  0  0  0  0
  142.4808   79.3991  217.4897 H   0  0  0  0  0  0  0  0  0  0  0  0
  141.3418   80.5815  219.3787 H   0  0  0  0  0  0  0  0  0  0  0  0
  140.4473   79.2381  218.4803 H   0  0  0  0  0  0  0  0  0  0  0  0
  139.8015   78.8411  220.4315 H   0  0  0  0  0  0  0  0  0  0  0  0
  143.2715   78.6640  221.8434 H   0  0  0  0  0  0  0  0  0  0  0  0
  143.9339   79.9142  223.8529 H   0  0  0  0  0  0  0  0  0  0  0  0
  142.3530   81.5704  224.8707 H   0  0  0  0  0  0  0  0  0  0  0  0
  140.1353   81.8857  223.7766 H   0  0  0  0  0  0  0  0  0  0  0  0
  138.2235   70.8632  221.6420 H   0  0  0  0  0  0  0  0  0  0  0  0
  138.1742   69.1985  223.4641 H   0  0  0  0  0  0  0  0  0  0  0  0
  138.9134   68.4227  225.6803 H   0  0  0  0  0  0  0  0  0  0  0  0
  141.6617   70.8446  227.8584 H   0  0  0  0  0  0  0  0  0  0  0  0
  141.7222   72.5268  226.0448 H   0  0  0  0  0  0  0  0  0  0  0  0
  1  2  2  0
  2  3  1  0
  3  4  1  0
  4  5  1  0
  5  6  2  0
  5  7  1  0
  7  8  1  0
  8  9  1  0
  9 10  1  0
 10 11  1  0
 11 12  1  0
 12 13  1  0
 13 14  2  0
 14 15  1  0
 15 16  2  0
 16 17  1  0
 17 18  2  0
  2 19  1  0
 19 20  2  0
 20 21  1  0
 21 22  2  0
 22 23  1  0
 23 24  2  0
 24 25  1  0
 25 26  1  0
 25 27  1  0
 25 28  1  0
 24 29  1  0
 29 30  2  0
 30 31  1  0
 31 32  2  0
 12  7  1  0
 18 13  1  0
 32 19  1  0
 31 22  1  0
  3 33  1  0
  4 34  1  0
  4 35  1  0
  8 36  1  0
  8 37  1  0
  9 38  1  0
  9 39  1  0
 10 40  1  0
 10 41  1  0
 11 42  1  0
 11 43  1  0
 12 44  1  1
 14 45  1  0
 15 46  1  0
 16 47  1  0
 17 48  1  0
 20 49  1  0
 21 50  1  0
 23 51  1  0
 29 52  1  0
 30 53  1  0
M  END
>  <smiles>  (49) 
O=C(NCC(=O)N1CCCCC1c1ccccn1)c1ccc2cc(C(F)(F)F)ccc2n1

>  <score_type>  (49) 
oracle

>  <origin>  (49) 
autodockgpu

>  <m_score__min__energy>  (49) 
-8.6699999999999999

>  <m_primary>  (49) 
energy

>  <rmsd>  (49) 
2.7621706306908953

>  <m_score__min__rmsd>  (49) 
2.7621706306908953

>  <meeko>  (49) 
{"free_energy": -8.59, "intermolecular_energy": -10.38, "internal_energy": -2.03, "cluster_size": 42, "cluster_id": 1, "rank_in_cluster": 5}

>  <energy>  (49) 
-7.07

>  <cluster_rmsd>  (49) 
0.0

>  <cluster>  (49) 
7

$$$$

     RDKit          3D

 53 56  0  0  0  0  0  0  0  0999 V2000
  139.8460   72.5470  220.5860 O   0  0  0  0  0  0  0  0  0  0  0  0
  139.7170   72.9270  221.7960 C   0  0  0  0  0  0  0  0  0  0  0  0
  139.4600   74.2820  222.1420 N   0  0  0  0  0  0  0  0  0  0  0  0
  139.3280   75.3200  221.1400 C   0  0  0  0  0  0  0  0  0  0  0  0
  140.6540   75.9900  220.9750 C   0  0  0  0  0  0  0  0  0  0  0  0
  141.1520   76.4890  222.0210 O   0  0  0  0  0  0  0  0  0  0  0  0
  141.3020   76.0500  219.7050 N   0  0  0  0  0  0  0  0  0  0  0  0
  140.4870   75.9890  218.5200 C   0  0  0  0  0  0  0  0  0  0  0  0
  141.0790   76.6620  217.3270 C   0  0  0  0  0  0  0  0  0  0  0  0
  142.5670   76.4730  217.2040 C   0  0  0  0  0  0  0  0  0  0  0  0
  143.3120   76.7540  218.4620 C   0  0  0  0  0  0  0  0  0  0  0  0
  142.7390   76.1700  219.7060 C   0  0  2  0  0  0  0  0  0  0  0  0
  143.3250   74.8800  220.0970 C   0  0  0  0  0  0  0  0  0  0  0  0
  144.6500   74.7120  220.4700 C   0  0  0  0  0  0  0  0  0  0  0  0
  145.1730   73.4880  220.8320 C   0  0  0  0  0  0  0  0  0  0  0  0
  144.3670   72.3690  220.8320 C   0  0  0  0  0  0  0  0  0  0  0  0
  143.0490   72.5450  220.4590 C   0  0  0  0  0  0  0  0  0  0  0  0
  142.5750   73.7390  220.1160 N   0  0  0  0  0  0  0  0  0  0  0  0
  139.8390   71.9310  222.8640 C   0  0  0  0  0  0  0  0  0  0  0  0
  139.4520   70.6250  222.6500 C   0  0  0  0  0  0  0  0  0  0  0  0
  139.5860   69.7280  223.6870 C   0  0  0  0  0  0  0  0  0  0  0  0
  140.0890   70.0820  224.9210 C   0  0  0  0  0  0  0  0  0  0  0  0
  140.2300   69.1960  225.9680 C   0  0  0  0  0  0  0  0  0  0  0  0
  140.7390   69.6130  227.1780 C   0  0  0  0  0  0  0  0  0  0  0  0
  140.8880   68.6410  228.3100 C   0  0  0  0  0  0  0  0  0  0  0  0
  139.6610   68.5760  228.9630 F   0  0  0  0  0  0  0  0  0  0  0  0
  141.8870   69.0100  229.1590 F   0  0  0  0  0  0  0  0  0  0  0  0
  141.0900   67.3930  227.7570 F   0  0  0  0  0  0  0  0  0  0  0  0
  141.1010   70.9330  227.3070 C   0  0  0  0  0  0  0  0  0  0  0  0
  140.9820   71.8600  226.2940 C   0  0  0  0  0  0  0  0  0  0  0  0
  140.4660   71.4080  225.0900 C   0  0  0  0  0  0  0  0  0  0  0  0
  140.3230   72.2600  224.0600 N   0  0  0  0  0  0  0  0  0  0  0  0
  139.3680   74.5050  223.1770 H   0  0  0  0  0  0  0  0  0  0  0  0
  139.0152   74.8753  220.1838 H   0  0  0  0  0  0  0  0  0  0  0  0
  138.5711   76.0537  221.4542 H   0  0  0  0  0  0  0  0  0  0  0  0
  140.3218   74.9304  218.2707 H   0  0  0  0  0  0  0  0  0  0  0  0
  139.5558   76.5263  218.7526 H   0  0  0  0  0  0  0  0  0  0  0  0
  140.6009   76.2534  216.4245 H   0  0  0  0  0  0  0  0  0  0  0  0
  140.8999   77.7410  217.4438 H   0  0  0  0  0  0  0  0  0  0  0  0
  142.7616   75.4309  216.9105 H   0  0  0  0  0  0  0  0  0  0  0  0
  142.9216   77.1938  216.4526 H   0  0  0  0  0  0  0  0  0  0  0  0
  144.3320   76.3593  218.3441 H   0  0  0  0  0  0  0  0  0  0  0  0
  143.2633   77.8445  218.5974 H   0  0  0  0  0  0  0  0  0  0  0  0
  143.0203   76.9209  220.4590 H   0  0  0  0  0  0  0  0  0  0  0  0
  145.3112   75.5910  220.4775 H   0  0  0  0  0  0  0  0  0  0  0  0
  146.2313   73.4046  221.1202 H   0  0  0  0  0  0  0  0  0  0  0  0
  144.7565   71.3804  221.1164 H   0  0  0  0  0  0  0  0  0  0  0  0
  142.3747   71.6760  220.4453 H   0  0  0  0  0  0  0  0  0  0  0  0
  139.0472   70.3079  221.6776 H   0  0  0  0  0  0  0  0  0  0  0  0
  139.2785   68.6846  223.5235 H   0  0  0  0  0  0  0  0  0  0  0  0
  139.9329   68.1452  225.8356 H   0  0  0  0  0  0  0  0  0  0  0  0
  141.5083   71.2679  228.2724 H   0  0  0  0  0  0  0  0  0  0  0  0
  141.2824   72.9088  226.4346 H   0  0  0  0  0  0  0  0  0  0  0  0
  1  2  2  0
  2  3  1  0
  3  4  1  0
  4  5  1  0
  5  6  2  0
  5  7  1  0
  7  8  1  0
  8  9  1  0
  9 10  1  0
 10 11  1  0
 11 12  1  0
 12 13  1  0
 13 14  2  0
 14 15  1  0
 15 16  2  0
 16 17  1  0
 17 18  2  0
  2 19  1  0
 19 20  2  0
 20 21  1  0
 21 22  2  0
 22 23  1  0
 23 24  2  0
 24 25  1  0
 25 26  1  0
 25 27  1  0
 25 28  1  0
 24 29  1  0
 29 30  2  0
 30 31  1  0
 31 32  2  0
 12  7  1  0
 18 13  1  0
 32 19  1  0
 31 22  1  0
  3 33  1  0
  4 34  1  0
  4 35  1  0
  8 36  1  0
  8 37  1  0
  9 38  1  0
  9 39  1  0
 10 40  1  0
 10 41  1  0
 11 42  1  0
 11 43  1  0
 12 44  1  1
 14 45  1  0
 15 46  1  0
 16 47  1  0
 17 48  1  0
 20 49  1  0
 21 50  1  0
 23 51  1  0
 29 52  1  0
 30 53  1  0
M  END
>  <smiles>  (50) 
O=C(NCC(=O)N1CCCCC1c1ccccn1)c1ccc2cc(C(F)(F)F)ccc2n1

>  <score_type>  (50) 
oracle

>  <origin>  (50) 
autodockgpu

>  <m_score__min__energy>  (50) 
-8.6699999999999999

>  <m_primary>  (50) 
energy

>  <rmsd>  (50) 
3.820263744708411

>  <m_score__min__rmsd>  (50) 
3.820263744708411

>  <meeko>  (50) 
{"free_energy": -7.63, "intermolecular_energy": -9.42, "internal_energy": -2.33, "cluster_size": 1, "cluster_id": 4, "rank_in_cluster": 1}

>  <energy>  (50) 
-6.4

>  <cluster_rmsd>  (50) 
0.0

>  <cluster>  (50) 
8

$$$$

     RDKit          3D

 53 56  0  0  0  0  0  0  0  0999 V2000
  140.6740   73.9880  221.1070 O   0  0  0  0  0  0  0  0  0  0  0  0
  139.7490   73.8170  221.9720 C   0  0  0  0  0  0  0  0  0  0  0  0
  138.7930   74.8660  222.2200 N   0  0  0  0  0  0  0  0  0  0  0  0
  138.9350   76.0690  221.4630 C   0  0  0  0  0  0  0  0  0  0  0  0
  139.1750   77.3310  222.1160 C   0  0  0  0  0  0  0  0  0  0  0  0
  138.1410   77.8120  222.7510 O   0  0  0  0  0  0  0  0  0  0  0  0
  140.3310   78.1510  222.1990 N   0  0  0  0  0  0  0  0  0  0  0  0
  141.4510   77.8800  223.0810 C   0  0  0  0  0  0  0  0  0  0  0  0
  141.7970   79.2000  223.7970 C   0  0  0  0  0  0  0  0  0  0  0  0
  142.1110   80.2130  222.7270 C   0  0  0  0  0  0  0  0  0  0  0  0
  140.7810   80.5060  222.0150 C   0  0  0  0  0  0  0  0  0  0  0  0
  140.3530   79.2880  221.2500 C   0  0  1  0  0  0  0  0  0  0  0  0
  141.2570   78.9690  220.1150 C   0  0  0  0  0  0  0  0  0  0  0  0
  141.7310   79.9420  219.2520 C   0  0  0  0  0  0  0  0  0  0  0  0
  142.5820   79.6450  218.1930 C   0  0  0  0  0  0  0  0  0  0  0  0
  142.9370   78.3180  218.0370 C   0  0  0  0  0  0  0  0  0  0  0  0
  142.4340   77.3910  218.9250 C   0  0  0  0  0  0  0  0  0  0  0  0
  141.6130   77.6990  219.9430 N   0  0  0  0  0  0  0  0  0  0  0  0
  139.6370   72.5690  222.7230 C   0  0  0  0  0  0  0  0  0  0  0  0
  138.7550   71.5960  222.2980 C   0  0  0  0  0  0  0  0  0  0  0  0
  138.6710   70.4170  223.0460 C   0  0  0  0  0  0  0  0  0  0  0  0
  139.4620   70.2770  224.1640 C   0  0  0  0  0  0  0  0  0  0  0  0
  139.4120   69.1240  224.9370 C   0  0  0  0  0  0  0  0  0  0  0  0
  140.2110   68.9800  226.0680 C   0  0  0  0  0  0  0  0  0  0  0  0
  140.1470   67.7370  226.8890 C   0  0  0  0  0  0  0  0  0  0  0  0
  141.3020   67.0130  226.6920 F   0  0  0  0  0  0  0  0  0  0  0  0
  140.0890   68.0620  228.2380 F   0  0  0  0  0  0  0  0  0  0  0  0
  139.0460   67.0140  226.5260 F   0  0  0  0  0  0  0  0  0  0  0  0
  141.0640   69.9800  226.4360 C   0  0  0  0  0  0  0  0  0  0  0  0
  141.1440   71.1370  225.6980 C   0  0  0  0  0  0  0  0  0  0  0  0
  140.3490   71.2670  224.5820 C   0  0  0  0  0  0  0  0  0  0  0  0
  140.3860   72.3760  223.8250 N   0  0  0  0  0  0  0  0  0  0  0  0
  138.0580   74.6760  222.9370 H   0  0  0  0  0  0  0  0  0  0  0  0
  139.7772   75.9078  220.7740 H   0  0  0  0  0  0  0  0  0  0  0  0
  137.9316   76.2051  221.0332 H   0  0  0  0  0  0  0  0  0  0  0  0
  141.1728   77.1128  223.8186 H   0  0  0  0  0  0  0  0  0  0  0  0
  142.3149   77.5066  222.5116 H   0  0  0  0  0  0  0  0  0  0  0  0
  140.9407   79.5391  224.3985 H   0  0  0  0  0  0  0  0  0  0  0  0
  142.6535   79.0662  224.4741 H   0  0  0  0  0  0  0  0  0  0  0  0
  142.5135   81.1322  223.1777 H   0  0  0  0  0  0  0  0  0  0  0  0
  142.8683   79.8345  222.0247 H   0  0  0  0  0  0  0  0  0  0  0  0
  140.0131   80.7613  222.7601 H   0  0  0  0  0  0  0  0  0  0  0  0
  140.9103   81.3511  221.3228 H   0  0  0  0  0  0  0  0  0  0  0  0
  139.3616   79.4806  220.8140 H   0  0  0  0  0  0  0  0  0  0  0  0
  141.4238   80.9865  219.4094 H   0  0  0  0  0  0  0  0  0  0  0  0
  142.9538   80.4263  217.5138 H   0  0  0  0  0  0  0  0  0  0  0  0
  143.6069   78.0082  217.2213 H   0  0  0  0  0  0  0  0  0  0  0  0
  142.7217   76.3376  218.7923 H   0  0  0  0  0  0  0  0  0  0  0  0
  138.1377   71.7431  221.3995 H   0  0  0  0  0  0  0  0  0  0  0  0
  137.9828   69.6133  222.7452 H   0  0  0  0  0  0  0  0  0  0  0  0
  138.7292   68.3105  224.6505 H   0  0  0  0  0  0  0  0  0  0  0  0
  141.6926   69.8591  227.3305 H   0  0  0  0  0  0  0  0  0  0  0  0
  141.8306   71.9439  225.9938 H   0  0  0  0  0  0  0  0  0  0  0  0
  1  2  2  0
  2  3  1  0
  3  4  1  0
  4  5  1  0
  5  6  2  0
  5  7  1  0
  7  8  1  0
  8  9  1  0
  9 10  1  0
 10 11  1  0
 11 12  1  0
 12 13  1  0
 13 14  2  0
 14 15  1  0
 15 16  2  0
 16 17  1  0
 17 18  2  0
  2 19  1  0
 19 20  2  0
 20 21  1  0
 21 22  2  0
 22 23  1  0
 23 24  2  0
 24 25  1  0
 25 26  1  0
 25 27  1  0
 25 28  1  0
 24 29  1  0
 29 30  2  0
 30 31  1  0
 31 32  2  0
 12  7  1  0
 18 13  1  0
 32 19  1  0
 31 22  1  0
  3 33  1  0
  4 34  1  0
  4 35  1  0
  8 36  1  0
  8 37  1  0
  9 38  1  0
  9 39  1  0
 10 40  1  0
 10 41  1  0
 11 42  1  0
 11 43  1  0
 12 44  1  6
 14 45  1  0
 15 46  1  0
 16 47  1  0
 17 48  1  0
 20 49  1  0
 21 50  1  0
 23 51  1  0
 29 52  1  0
 30 53  1  0
M  END
>  <smiles>  (51) 
O=C(NCC(=O)N1CCCCC1c1ccccn1)c1ccc2cc(C(F)(F)F)ccc2n1

>  <score_type>  (51) 
oracle

>  <origin>  (51) 
autodockgpu

>  <m_score__min__energy>  (51) 
-8.1699999999999999

>  <m_primary>  (51) 
energy

>  <rmsd>  (51) 
3.820383834623698

>  <m_score__min__rmsd>  (51) 
3.820383834623698

>  <meeko>  (51) 
{"free_energy": -8.03, "intermolecular_energy": -9.82, "internal_energy": -1.62, "cluster_size": 7, "cluster_id": 2, "rank_in_cluster": 2}

>  <energy>  (51) 
-8.17

>  <cluster_rmsd>  (51) 
0.0

>  <cluster>  (51) 
1

$$$$

     RDKit          3D

 53 56  0  0  0  0  0  0  0  0999 V2000
  140.0810   73.9160  220.4400 O   0  0  0  0  0  0  0  0  0  0  0  0
  139.5490   73.8820  221.6020 C   0  0  0  0  0  0  0  0  0  0  0  0
  138.9450   75.0700  222.1500 N   0  0  0  0  0  0  0  0  0  0  0  0
  138.9730   76.2480  221.3430 C   0  0  0  0  0  0  0  0  0  0  0  0
  139.1690   77.5470  221.9350 C   0  0  0  0  0  0  0  0  0  0  0  0
  138.0720   78.1200  222.3480 O   0  0  0  0  0  0  0  0  0  0  0  0
  140.3380   78.3230  222.1530 N   0  0  0  0  0  0  0  0  0  0  0  0
  141.4500   77.8920  222.9800 C   0  0  0  0  0  0  0  0  0  0  0  0
  141.8140   79.0700  223.9040 C   0  0  0  0  0  0  0  0  0  0  0  0
  142.1490   80.2400  223.0160 C   0  0  0  0  0  0  0  0  0  0  0  0
  140.8270   80.6680  222.3610 C   0  0  0  0  0  0  0  0  0  0  0  0
  140.3820   79.6000  221.4050 C   0  0  1  0  0  0  0  0  0  0  0  0
  141.2850   79.4580  220.2340 C   0  0  0  0  0  0  0  0  0  0  0  0
  141.7110   78.2250  219.7730 C   0  0  0  0  0  0  0  0  0  0  0  0
  142.5520   78.0910  218.6730 C   0  0  0  0  0  0  0  0  0  0  0  0
  142.9500   79.2600  218.0520 C   0  0  0  0  0  0  0  0  0  0  0  0
  142.4960   80.4610  218.5540 C   0  0  0  0  0  0  0  0  0  0  0  0
  141.6830   80.5690  219.6180 N   0  0  0  0  0  0  0  0  0  0  0  0
  139.5390   72.6560  222.3940 C   0  0  0  0  0  0  0  0  0  0  0  0
  138.7750   71.5830  221.9770 C   0  0  0  0  0  0  0  0  0  0  0  0
  138.7870   70.4280  222.7660 C   0  0  0  0  0  0  0  0  0  0  0  0
  139.5480   70.4080  223.9120 C   0  0  0  0  0  0  0  0  0  0  0  0
  139.5890   69.2820  224.7250 C   0  0  0  0  0  0  0  0  0  0  0  0
  140.3580   69.2590  225.8850 C   0  0  0  0  0  0  0  0  0  0  0  0
  140.3930   68.0440  226.7490 C   0  0  0  0  0  0  0  0  0  0  0  0
  139.4460   67.1510  226.3010 F   0  0  0  0  0  0  0  0  0  0  0  0
  141.6310   67.4210  226.6420 F   0  0  0  0  0  0  0  0  0  0  0  0
  140.1550   68.4070  228.0450 F   0  0  0  0  0  0  0  0  0  0  0  0
  141.0910   70.3540  226.2430 C   0  0  0  0  0  0  0  0  0  0  0  0
  141.0790   71.4870  225.4650 C   0  0  0  0  0  0  0  0  0  0  0  0
  140.3140   71.4970  224.3210 C   0  0  0  0  0  0  0  0  0  0  0  0
  140.2640   72.5780  223.5250 N   0  0  0  0  0  0  0  0  0  0  0  0
  138.5250   74.9900  223.1030 H   0  0  0  0  0  0  0  0  0  0  0  0
  139.7862   76.1097  220.6153 H   0  0  0  0  0  0  0  0  0  0  0  0
  137.9420   76.3071  220.9642 H   0  0  0  0  0  0  0  0  0  0  0  0
  141.1565   77.0185  223.5808 H   0  0  0  0  0  0  0  0  0  0  0  0
  142.3102   77.6033  222.3581 H   0  0  0  0  0  0  0  0  0  0  0  0
  140.9606   79.3196  224.5517 H   0  0  0  0  0  0  0  0  0  0  0  0
  142.6653   78.8124  224.5512 H   0  0  0  0  0  0  0  0  0  0  0  0
  142.5647   81.0655  223.6124 H   0  0  0  0  0  0  0  0  0  0  0  0
  142.9029   79.9700  222.2619 H   0  0  0  0  0  0  0  0  0  0  0  0
  140.0606   80.8096  223.1373 H   0  0  0  0  0  0  0  0  0  0  0  0
  140.9726   81.6133  221.8177 H   0  0  0  0  0  0  0  0  0  0  0  0
  139.3954   79.8780  221.0058 H   0  0  0  0  0  0  0  0  0  0  0  0
  141.3725   77.3179  220.2951 H   0  0  0  0  0  0  0  0  0  0  0  0
  142.8834   77.1049  218.3156 H   0  0  0  0  0  0  0  0  0  0  0  0
  143.6147   79.2326  217.1760 H   0  0  0  0  0  0  0  0  0  0  0  0
  142.8187   81.3859  218.0536 H   0  0  0  0  0  0  0  0  0  0  0  0
  138.1771   71.6353  221.0552 H   0  0  0  0  0  0  0  0  0  0  0  0
  138.1959   69.5475  222.4741 H   0  0  0  0  0  0  0  0  0  0  0  0
  139.0035   68.3932  224.4471 H   0  0  0  0  0  0  0  0  0  0  0  0
  141.6959   70.3292  227.1614 H   0  0  0  0  0  0  0  0  0  0  0  0
  141.6699   72.3695  225.7514 H   0  0  0  0  0  0  0  0  0  0  0  0
  1  2  2  0
  2  3  1  0
  3  4  1  0
  4  5  1  0
  5  6  2  0
  5  7  1  0
  7  8  1  0
  8  9  1  0
  9 10  1  0
 10 11  1  0
 11 12  1  0
 12 13  1  0
 13 14  2  0
 14 15  1  0
 15 16  2  0
 16 17  1  0
 17 18  2  0
  2 19  1  0
 19 20  2  0
 20 21  1  0
 21 22  2  0
 22 23  1  0
 23 24  2  0
 24 25  1  0
 25 26  1  0
 25 27  1  0
 25 28  1  0
 24 29  1  0
 29 30  2  0
 30 31  1  0
 31 32  2  0
 12  7  1  0
 18 13  1  0
 32 19  1  0
 31 22  1  0
  3 33  1  0
  4 34  1  0
  4 35  1  0
  8 36  1  0
  8 37  1  0
  9 38  1  0
  9 39  1  0
 10 40  1  0
 10 41  1  0
 11 42  1  0
 11 43  1  0
 12 44  1  6
 14 45  1  0
 15 46  1  0
 16 47  1  0
 17 48  1  0
 20 49  1  0
 21 50  1  0
 23 51  1  0
 29 52  1  0
 30 53  1  0
M  END
>  <smiles>  (52) 
O=C(NCC(=O)N1CCCCC1c1ccccn1)c1ccc2cc(C(F)(F)F)ccc2n1

>  <score_type>  (52) 
oracle

>  <origin>  (52) 
autodockgpu

>  <m_score__min__energy>  (52) 
-8.1699999999999999

>  <m_primary>  (52) 
energy

>  <rmsd>  (52) 
4.086360278832888

>  <m_score__min__rmsd>  (52) 
4.086360278832888

>  <meeko>  (52) 
{"free_energy": -7.96, "intermolecular_energy": -9.75, "internal_energy": -1.51, "cluster_size": 7, "cluster_id": 2, "rank_in_cluster": 4}

>  <energy>  (52) 
-8.07

>  <cluster_rmsd>  (52) 
0.49

>  <cluster>  (52) 
1

$$$$

     RDKit          3D

 53 56  0  0  0  0  0  0  0  0999 V2000
  139.7600   73.3930  220.4270 O   0  0  0  0  0  0  0  0  0  0  0  0
  139.6270   73.5050  221.6930 C   0  0  0  0  0  0  0  0  0  0  0  0
  139.5140   74.8120  222.2910 N   0  0  0  0  0  0  0  0  0  0  0  0
  139.5560   75.9370  221.4120 C   0  0  0  0  0  0  0  0  0  0  0  0
  140.6990   76.8130  221.3840 C   0  0  0  0  0  0  0  0  0  0  0  0
  141.8160   76.2280  221.0460 O   0  0  0  0  0  0  0  0  0  0  0  0
  140.8390   78.2000  221.6560 N   0  0  0  0  0  0  0  0  0  0  0  0
  140.9810   79.2130  220.6270 C   0  0  0  0  0  0  0  0  0  0  0  0
  142.1500   80.1260  221.0450 C   0  0  0  0  0  0  0  0  0  0  0  0
  141.8050   80.6930  222.3980 C   0  0  0  0  0  0  0  0  0  0  0  0
  141.8740   79.5150  223.3820 C   0  0  0  0  0  0  0  0  0  0  0  0
  140.7520   78.5620  223.0890 C   0  0  1  0  0  0  0  0  0  0  0  0
  139.4130   79.1370  223.3760 C   0  0  0  0  0  0  0  0  0  0  0  0
  139.2400   80.2300  224.2070 C   0  0  0  0  0  0  0  0  0  0  0  0
  137.9870   80.7720  224.4720 C   0  0  0  0  0  0  0  0  0  0  0  0
  136.9070   80.1640  223.8600 C   0  0  0  0  0  0  0  0  0  0  0  0
  137.1370   79.0790  223.0420 C   0  0  0  0  0  0  0  0  0  0  0  0
  138.3570   78.5690  222.7990 N   0  0  0  0  0  0  0  0  0  0  0  0
  139.5860   72.3290  222.5570 C   0  0  0  0  0  0  0  0  0  0  0  0
  138.8440   71.2290  222.1740 C   0  0  0  0  0  0  0  0  0  0  0  0
  138.8250   70.1230  223.0300 C   0  0  0  0  0  0  0  0  0  0  0  0
  139.5370   70.1760  224.2070 C   0  0  0  0  0  0  0  0  0  0  0  0
  139.5450   69.1010  225.0870 C   0  0  0  0  0  0  0  0  0  0  0  0
  140.2640   69.1520  226.2790 C   0  0  0  0  0  0  0  0  0  0  0  0
  140.2650   67.9920  227.2150 C   0  0  0  0  0  0  0  0  0  0  0  0
  139.9670   68.4420  228.4820 F   0  0  0  0  0  0  0  0  0  0  0  0
  139.2730   67.0900  226.8530 F   0  0  0  0  0  0  0  0  0  0  0  0
  141.4910   67.3890  227.1820 F   0  0  0  0  0  0  0  0  0  0  0  0
  140.9780   70.2710  226.6010 C   0  0  0  0  0  0  0  0  0  0  0  0
  140.9960   71.3560  225.7560 C   0  0  0  0  0  0  0  0  0  0  0  0
  140.2810   71.2930  224.5810 C   0  0  0  0  0  0  0  0  0  0  0  0
  140.2620   72.3230  223.7200 N   0  0  0  0  0  0  0  0  0  0  0  0
  139.4080   74.8490  223.3290 H   0  0  0  0  0  0  0  0  0  0  0  0
  139.4395   75.5418  220.3921 H   0  0  0  0  0  0  0  0  0  0  0  0
  138.7628   76.5862  221.8111 H   0  0  0  0  0  0  0  0  0  0  0  0
  141.2006   78.7388  219.6590 H   0  0  0  0  0  0  0  0  0  0  0  0
  140.0523   79.7925  220.5185 H   0  0  0  0  0  0  0  0  0  0  0  0
  143.0811   79.5434  221.1059 H   0  0  0  0  0  0  0  0  0  0  0  0
  142.3021   80.9300  220.3099 H   0  0  0  0  0  0  0  0  0  0  0  0
  142.5289   81.4710  222.6821 H   0  0  0  0  0  0  0  0  0  0  0  0
  140.8085   81.1588  222.3970 H   0  0  0  0  0  0  0  0  0  0  0  0
  142.8371   78.9959  223.2678 H   0  0  0  0  0  0  0  0  0  0  0  0
  141.7828   79.8881  224.4128 H   0  0  0  0  0  0  0  0  0  0  0  0
  140.8595   77.6842  223.7431 H   0  0  0  0  0  0  0  0  0  0  0  0
  140.1250   80.6863  224.6745 H   0  0  0  0  0  0  0  0  0  0  0  0
  137.8617   81.6407  225.1351 H   0  0  0  0  0  0  0  0  0  0  0  0
  135.8855   80.5383  224.0225 H   0  0  0  0  0  0  0  0  0  0  0  0
  136.2712   78.6020  222.5594 H   0  0  0  0  0  0  0  0  0  0  0  0
  138.2858   71.2229  221.2261 H   0  0  0  0  0  0  0  0  0  0  0  0
  138.2492   69.2235  222.7664 H   0  0  0  0  0  0  0  0  0  0  0  0
  138.9740   68.1943  224.8383 H   0  0  0  0  0  0  0  0  0  0  0  0
  141.5433   70.3047  227.5440 H   0  0  0  0  0  0  0  0  0  0  0  0
  141.5710   72.2575  226.0141 H   0  0  0  0  0  0  0  0  0  0  0  0
  1  2  2  0
  2  3  1  0
  3  4  1  0
  4  5  1  0
  5  6  2  0
  5  7  1  0
  7  8  1  0
  8  9  1  0
  9 10  1  0
 10 11  1  0
 11 12  1  0
 12 13  1  0
 13 14  2  0
 14 15  1  0
 15 16  2  0
 16 17  1  0
 17 18  2  0
  2 19  1  0
 19 20  2  0
 20 21  1  0
 21 22  2  0
 22 23  1  0
 23 24  2  0
 24 25  1  0
 25 26  1  0
 25 27  1  0
 25 28  1  0
 24 29  1  0
 29 30  2  0
 30 31  1  0
 31 32  2  0
 12  7  1  0
 18 13  1  0
 32 19  1  0
 31 22  1  0
  3 33  1  0
  4 34  1  0
  4 35  1  0
  8 36  1  0
  8 37  1  0
  9 38  1  0
  9 39  1  0
 10 40  1  0
 10 41  1  0
 11 42  1  0
 11 43  1  0
 12 44  1  1
 14 45  1  0
 15 46  1  0
 16 47  1  0
 17 48  1  0
 20 49  1  0
 21 50  1  0
 23 51  1  0
 29 52  1  0
 30 53  1  0
M  END
>  <smiles>  (53) 
O=C(NCC(=O)N1CCCCC1c1ccccn1)c1ccc2cc(C(F)(F)F)ccc2n1

>  <score_type>  (53) 
oracle

>  <origin>  (53) 
autodockgpu

>  <m_score__min__energy>  (53) 
-8.1699999999999999

>  <m_primary>  (53) 
energy

>  <rmsd>  (53) 
3.8595507949722063

>  <m_score__min__rmsd>  (53) 
3.8595507949722063

>  <meeko>  (53) 
{"free_energy": -8.07, "intermolecular_energy": -9.86, "internal_energy": -1.63, "cluster_size": 22, "cluster_id": 1, "rank_in_cluster": 2}

>  <energy>  (53) 
-8.04

>  <cluster_rmsd>  (53) 
0.35

>  <cluster>  (53) 
1

$$$$

     RDKit          3D

 53 56  0  0  0  0  0  0  0  0999 V2000
  138.4810   74.1870  221.6680 O   0  0  0  0  0  0  0  0  0  0  0  0
  139.7290   74.4550  221.6020 C   0  0  0  0  0  0  0  0  0  0  0  0
  140.2110   75.7430  222.0310 N   0  0  0  0  0  0  0  0  0  0  0  0
  139.2420   76.6710  222.5210 C   0  0  0  0  0  0  0  0  0  0  0  0
  139.5810   78.0570  222.7230 C   0  0  0  0  0  0  0  0  0  0  0  0
  138.6410   78.7620  223.2920 O   0  0  0  0  0  0  0  0  0  0  0  0
  140.7510   78.8020  222.4200 N   0  0  0  0  0  0  0  0  0  0  0  0
  141.8980   78.8990  223.3030 C   0  0  0  0  0  0  0  0  0  0  0  0
  142.2880   80.3870  223.3820 C   0  0  0  0  0  0  0  0  0  0  0  0
  142.5790   80.8420  221.9750 C   0  0  0  0  0  0  0  0  0  0  0  0
  141.2290   80.8430  221.2410 C   0  0  0  0  0  0  0  0  0  0  0  0
  140.7560   79.4280  221.0780 C   0  0  1  0  0  0  0  0  0  0  0  0
  141.6130   78.6330  220.1620 C   0  0  0  0  0  0  0  0  0  0  0  0
  142.0830   79.1380  218.9620 C   0  0  0  0  0  0  0  0  0  0  0  0
  142.8900   78.3960  218.1070 C   0  0  0  0  0  0  0  0  0  0  0  0
  143.2080   77.1140  218.5140 C   0  0  0  0  0  0  0  0  0  0  0  0
  142.7130   76.6610  219.7180 C   0  0  0  0  0  0  0  0  0  0  0  0
  141.9330   77.3940  220.5300 N   0  0  0  0  0  0  0  0  0  0  0  0
  140.6870   73.4760  221.0970 C   0  0  0  0  0  0  0  0  0  0  0  0
  140.2560   72.2030  220.7810 C   0  0  0  0  0  0  0  0  0  0  0  0
  141.2050   71.2910  220.3050 C   0  0  0  0  0  0  0  0  0  0  0  0
  142.5140   71.6960  220.1740 C   0  0  0  0  0  0  0  0  0  0  0  0
  143.4890   70.8230  219.7060 C   0  0  0  0  0  0  0  0  0  0  0  0
  144.8140   71.2300  219.5730 C   0  0  0  0  0  0  0  0  0  0  0  0
  145.8510   70.2850  219.0690 C   0  0  0  0  0  0  0  0  0  0  0  0
  146.0640   70.5280  217.7300 F   0  0  0  0  0  0  0  0  0  0  0  0
  147.0550   70.5080  219.7260 F   0  0  0  0  0  0  0  0  0  0  0  0
  145.4290   69.0020  219.2760 F   0  0  0  0  0  0  0  0  0  0  0  0
  145.1770   72.5040  219.9030 C   0  0  0  0  0  0  0  0  0  0  0  0
  144.2420   73.3980  220.3690 C   0  0  0  0  0  0  0  0  0  0  0  0
  142.9350   72.9840  220.4960 C   0  0  0  0  0  0  0  0  0  0  0  0
  141.9810   73.8140  220.9470 N   0  0  0  0  0  0  0  0  0  0  0  0
  141.2390   75.9120  221.9560 H   0  0  0  0  0  0  0  0  0  0  0  0
  138.4039   76.6541  221.8088 H   0  0  0  0  0  0  0  0  0  0  0  0
  139.0593   76.3136  223.5452 H   0  0  0  0  0  0  0  0  0  0  0  0
  141.6360   78.5245  224.3035 H   0  0  0  0  0  0  0  0  0  0  0  0
  142.7355   78.2957  222.9227 H   0  0  0  0  0  0  0  0  0  0  0  0
  141.4584   80.9730  223.8045 H   0  0  0  0  0  0  0  0  0  0  0  0
  143.1658   80.5287  224.0297 H   0  0  0  0  0  0  0  0  0  0  0  0
  143.0106   81.8538  221.9823 H   0  0  0  0  0  0  0  0  0  0  0  0
  143.3055   80.1805  221.4803 H   0  0  0  0  0  0  0  0  0  0  0  0
  140.4921   81.4123  221.8265 H   0  0  0  0  0  0  0  0  0  0  0  0
  141.3459   81.3103  220.2521 H   0  0  0  0  0  0  0  0  0  0  0  0
  139.7522   79.4452  220.6285 H   0  0  0  0  0  0  0  0  0  0  0  0
  141.8080   80.1635  218.6744 H   0  0  0  0  0  0  0  0  0  0  0  0
  143.2567   78.8081  217.1553 H   0  0  0  0  0  0  0  0  0  0  0  0
  143.8432   76.4683  217.8898 H   0  0  0  0  0  0  0  0  0  0  0  0
  142.9718   75.6392  220.0326 H   0  0  0  0  0  0  0  0  0  0  0  0
  139.2010   71.9149  220.8995 H   0  0  0  0  0  0  0  0  0  0  0  0
  140.9090   70.2654  220.0394 H   0  0  0  0  0  0  0  0  0  0  0  0
  143.2094   69.7939  219.4363 H   0  0  0  0  0  0  0  0  0  0  0  0
  146.2258   72.8178  219.7952 H   0  0  0  0  0  0  0  0  0  0  0  0
  144.5328   74.4249  220.6354 H   0  0  0  0  0  0  0  0  0  0  0  0
  1  2  2  0
  2  3  1  0
  3  4  1  0
  4  5  1  0
  5  6  2  0
  5  7  1  0
  7  8  1  0
  8  9  1  0
  9 10  1  0
 10 11  1  0
 11 12  1  0
 12 13  1  0
 13 14  2  0
 14 15  1  0
 15 16  2  0
 16 17  1  0
 17 18  2  0
  2 19  1  0
 19 20  2  0
 20 21  1  0
 21 22  2  0
 22 23  1  0
 23 24  2  0
 24 25  1  0
 25 26  1  0
 25 27  1  0
 25 28  1  0
 24 29  1  0
 29 30  2  0
 30 31  1  0
 31 32  2  0
 12  7  1  0
 18 13  1  0
 32 19  1  0
 31 22  1  0
  3 33  1  0
  4 34  1  0
  4 35  1  0
  8 36  1  0
  8 37  1  0
  9 38  1  0
  9 39  1  0
 10 40  1  0
 10 41  1  0
 11 42  1  0
 11 43  1  0
 12 44  1  6
 14 45  1  0
 15 46  1  0
 16 47  1  0
 17 48  1  0
 20 49  1  0
 21 50  1  0
 23 51  1  0
 29 52  1  0
 30 53  1  0
M  END
>  <smiles>  (54) 
O=C(NCC(=O)N1CCCCC1c1ccccn1)c1ccc2cc(C(F)(F)F)ccc2n1

>  <score_type>  (54) 
oracle

>  <origin>  (54) 
autodockgpu

>  <m_score__min__energy>  (54) 
-8.1699999999999999

>  <m_primary>  (54) 
energy

>  <rmsd>  (54) 
5.672628427637894

>  <m_score__min__rmsd>  (54) 
5.672628427637894

>  <meeko>  (54) 
{"free_energy": -6.12, "intermolecular_energy": -7.91, "internal_energy": -3.03, "cluster_size": 10, "cluster_id": 6, "rank_in_cluster": 9}

>  <energy>  (54) 
-8.02

>  <cluster_rmsd>  (54) 
1.7

>  <cluster>  (54) 
1

$$$$

     RDKit          3D

 53 56  0  0  0  0  0  0  0  0999 V2000
  140.0370   72.5820  220.5930 O   0  0  0  0  0  0  0  0  0  0  0  0
  139.6590   72.8480  221.7850 C   0  0  0  0  0  0  0  0  0  0  0  0
  139.0900   74.1360  222.0880 N   0  0  0  0  0  0  0  0  0  0  0  0
  138.9750   75.0680  221.0120 C   0  0  0  0  0  0  0  0  0  0  0  0
  139.0900   76.4850  221.2440 C   0  0  0  0  0  0  0  0  0  0  0  0
  138.2900   76.9450  222.1660 O   0  0  0  0  0  0  0  0  0  0  0  0
  139.9160   77.4790  220.6550 N   0  0  0  0  0  0  0  0  0  0  0  0
  139.4540   78.4210  219.6520 C   0  0  0  0  0  0  0  0  0  0  0  0
  140.5010   78.4330  218.5210 C   0  0  0  0  0  0  0  0  0  0  0  0
  141.8180   78.8210  219.1430 C   0  0  0  0  0  0  0  0  0  0  0  0
  142.2330   77.6380  220.0320 C   0  0  0  0  0  0  0  0  0  0  0  0
  141.2920   77.5430  221.1970 C   0  0  1  0  0  0  0  0  0  0  0  0
  141.4060   78.6940  222.1290 C   0  0  0  0  0  0  0  0  0  0  0  0
  140.3140   79.2070  222.8080 C   0  0  0  0  0  0  0  0  0  0  0  0
  140.4210   80.2820  223.6850 C   0  0  0  0  0  0  0  0  0  0  0  0
  141.6830   80.8220  223.8500 C   0  0  0  0  0  0  0  0  0  0  0  0
  142.7340   80.2720  223.1490 C   0  0  0  0  0  0  0  0  0  0  0  0
  142.6100   79.2330  222.3060 N   0  0  0  0  0  0  0  0  0  0  0  0
  139.7910   71.8650  222.8570 C   0  0  0  0  0  0  0  0  0  0  0  0
  139.4010   70.5600  222.6350 C   0  0  0  0  0  0  0  0  0  0  0  0
  139.5380   69.6480  223.6880 C   0  0  0  0  0  0  0  0  0  0  0  0
  140.0480   70.0860  224.8890 C   0  0  0  0  0  0  0  0  0  0  0  0
  140.2010   69.2160  225.9620 C   0  0  0  0  0  0  0  0  0  0  0  0
  140.7180   69.6560  227.1770 C   0  0  0  0  0  0  0  0  0  0  0  0
  140.8770   68.7130  228.3210 C   0  0  0  0  0  0  0  0  0  0  0  0
  139.6970   68.6700  229.0310 F   0  0  0  0  0  0  0  0  0  0  0  0
  141.1200   67.4300  227.8460 F   0  0  0  0  0  0  0  0  0  0  0  0
  141.9110   69.1320  229.1090 F   0  0  0  0  0  0  0  0  0  0  0  0
  141.0860   70.9620  227.3330 C   0  0  0  0  0  0  0  0  0  0  0  0
  140.9510   71.8540  226.2960 C   0  0  0  0  0  0  0  0  0  0  0  0
  140.4390   71.4070  225.0990 C   0  0  0  0  0  0  0  0  0  0  0  0
  140.2850   72.2350  224.0530 N   0  0  0  0  0  0  0  0  0  0  0  0
  138.7980   74.3030  223.0770 H   0  0  0  0  0  0  0  0  0  0  0  0
  139.7579   74.8053  220.2853 H   0  0  0  0  0  0  0  0  0  0  0  0
  137.9243   74.9568  220.7061 H   0  0  0  0  0  0  0  0  0  0  0  0
  138.4774   78.1032  219.2580 H   0  0  0  0  0  0  0  0  0  0  0  0
  139.3355   79.4253  220.0849 H   0  0  0  0  0  0  0  0  0  0  0  0
  140.5776   77.4341  218.0667 H   0  0  0  0  0  0  0  0  0  0  0  0
  140.2163   79.1428  217.7303 H   0  0  0  0  0  0  0  0  0  0  0  0
  142.5728   78.9951  218.3620 H   0  0  0  0  0  0  0  0  0  0  0  0
  141.7298   79.7502  219.7251 H   0  0  0  0  0  0  0  0  0  0  0  0
  142.1912   76.7066  219.4483 H   0  0  0  0  0  0  0  0  0  0  0  0
  143.2592   77.7920  220.3971 H   0  0  0  0  0  0  0  0  0  0  0  0
  141.5470   76.6450  221.7789 H   0  0  0  0  0  0  0  0  0  0  0  0
  139.3269   78.7486  222.6486 H   0  0  0  0  0  0  0  0  0  0  0  0
  139.5466   80.6816  224.2195 H   0  0  0  0  0  0  0  0  0  0  0  0
  141.8448   81.6736  224.5273 H   0  0  0  0  0  0  0  0  0  0  0  0
  143.7337   80.7094  223.2877 H   0  0  0  0  0  0  0  0  0  0  0  0
  138.9955   70.2465  221.6617 H   0  0  0  0  0  0  0  0  0  0  0  0
  139.2423   68.5965  223.5575 H   0  0  0  0  0  0  0  0  0  0  0  0
  139.9085   68.1616  225.8490 H   0  0  0  0  0  0  0  0  0  0  0  0
  141.4937   71.3027  228.2962 H   0  0  0  0  0  0  0  0  0  0  0  0
  141.2468   72.9061  226.4204 H   0  0  0  0  0  0  0  0  0  0  0  0
  1  2  2  0
  2  3  1  0
  3  4  1  0
  4  5  1  0
  5  6  2  0
  5  7  1  0
  7  8  1  0
  8  9  1  0
  9 10  1  0
 10 11  1  0
 11 12  1  0
 12 13  1  0
 13 14  2  0
 14 15  1  0
 15 16  2  0
 16 17  1  0
 17 18  2  0
  2 19  1  0
 19 20  2  0
 20 21  1  0
 21 22  2  0
 22 23  1  0
 23 24  2  0
 24 25  1  0
 25 26  1  0
 25 27  1  0
 25 28  1  0
 24 29  1  0
 29 30  2  0
 30 31  1  0
 31 32  2  0
 12  7  1  0
 18 13  1  0
 32 19  1  0
 31 22  1  0
  3 33  1  0
  4 34  1  0
  4 35  1  0
  8 36  1  0
  8 37  1  0
  9 38  1  0
  9 39  1  0
 10 40  1  0
 10 41  1  0
 11 42  1  0
 11 43  1  0
 12 44  1  1
 14 45  1  0
 15 46  1  0
 16 47  1  0
 17 48  1  0
 20 49  1  0
 21 50  1  0
 23 51  1  0
 29 52  1  0
 30 53  1  0
M  END
>  <smiles>  (55) 
O=C(NCC(=O)N1CCCCC1c1ccccn1)c1ccc2cc(C(F)(F)F)ccc2n1

>  <score_type>  (55) 
oracle

>  <origin>  (55) 
autodockgpu

>  <m_score__min__energy>  (55) 
-8.1699999999999999

>  <m_primary>  (55) 
energy

>  <rmsd>  (55) 
2.4813385761412303

>  <m_score__min__rmsd>  (55) 
2.4813385761412303

>  <meeko>  (55) 
{"free_energy": -8.0, "intermolecular_energy": -9.79, "internal_energy": -1.62, "cluster_size": 22, "cluster_id": 1, "rank_in_cluster": 6}

>  <energy>  (55) 
-8.0

>  <cluster_rmsd>  (55) 
1.71

>  <cluster>  (55) 
1

$$$$

     RDKit          3D

 53 56  0  0  0  0  0  0  0  0999 V2000
  139.2750   74.5800  222.3180 O   0  0  0  0  0  0  0  0  0  0  0  0
  140.4860   74.7930  221.9690 C   0  0  0  0  0  0  0  0  0  0  0  0
  141.0580   76.1060  222.1270 N   0  0  0  0  0  0  0  0  0  0  0  0
  140.2190   77.1210  222.6810 C   0  0  0  0  0  0  0  0  0  0  0  0
  140.6520   78.4940  222.7290 C   0  0  0  0  0  0  0  0  0  0  0  0
  140.5540   79.0470  223.9070 O   0  0  0  0  0  0  0  0  0  0  0  0
  141.1670   79.3620  221.7300 N   0  0  0  0  0  0  0  0  0  0  0  0
  142.2390   80.3130  221.9630 C   0  0  0  0  0  0  0  0  0  0  0  0
  141.7940   81.6580  221.3580 C   0  0  0  0  0  0  0  0  0  0  0  0
  141.5180   81.4160  219.8970 C   0  0  0  0  0  0  0  0  0  0  0  0
  140.2560   80.5400  219.8430 C   0  0  0  0  0  0  0  0  0  0  0  0
  140.5770   79.1780  220.3850 C   0  0  1  0  0  0  0  0  0  0  0  0
  141.5250   78.4220  219.5260 C   0  0  0  0  0  0  0  0  0  0  0  0
  141.6620   78.6760  218.1730 C   0  0  0  0  0  0  0  0  0  0  0  0
  142.5530   77.9720  217.3700 C   0  0  0  0  0  0  0  0  0  0  0  0
  143.3060   76.9940  217.9910 C   0  0  0  0  0  0  0  0  0  0  0  0
  143.1290   76.7830  219.3420 C   0  0  0  0  0  0  0  0  0  0  0  0
  142.2620   77.4740  220.1010 N   0  0  0  0  0  0  0  0  0  0  0  0
  141.3110   73.7270  221.4090 C   0  0  0  0  0  0  0  0  0  0  0  0
  140.7820   72.4590  221.2700 C   0  0  0  0  0  0  0  0  0  0  0  0
  141.6050   71.4620  220.7350 C   0  0  0  0  0  0  0  0  0  0  0  0
  142.8950   71.7820  220.3750 C   0  0  0  0  0  0  0  0  0  0  0  0
  143.7470   70.8240  219.8400 C   0  0  0  0  0  0  0  0  0  0  0  0
  145.0520   71.1450  219.4750 C   0  0  0  0  0  0  0  0  0  0  0  0
  145.9560   70.1080  218.9020 C   0  0  0  0  0  0  0  0  0  0  0  0
  147.0880   70.0230  219.6820 F   0  0  0  0  0  0  0  0  0  0  0  0
  145.3360   68.8650  218.9380 F   0  0  0  0  0  0  0  0  0  0  0  0
  146.2700   70.4450  217.6150 F   0  0  0  0  0  0  0  0  0  0  0  0
  145.5160   72.4190  219.6380 C   0  0  0  0  0  0  0  0  0  0  0  0
  144.7030   73.3960  220.1640 C   0  0  0  0  0  0  0  0  0  0  0  0
  143.4160   73.0660  220.5200 C   0  0  0  0  0  0  0  0  0  0  0  0
  142.5800   73.9800  221.0390 N   0  0  0  0  0  0  0  0  0  0  0  0
  142.0510   76.2280  221.8260 H   0  0  0  0  0  0  0  0  0  0  0  0
  139.2852   77.1072  222.0998 H   0  0  0  0  0  0  0  0  0  0  0  0
  140.1721   76.8437  223.7444 H   0  0  0  0  0  0  0  0  0  0  0  0
  142.4150   80.4254  223.0430 H   0  0  0  0  0  0  0  0  0  0  0  0
  143.1752   79.9673  221.5003 H   0  0  0  0  0  0  0  0  0  0  0  0
  140.8827   82.0147  221.8603 H   0  0  0  0  0  0  0  0  0  0  0  0
  142.5735   82.4231  221.4880 H   0  0  0  0  0  0  0  0  0  0  0  0
  141.3434   82.3700  219.3780 H   0  0  0  0  0  0  0  0  0  0  0  0
  142.3696   80.9262  219.4021 H   0  0  0  0  0  0  0  0  0  0  0  0
  139.4626   81.0000  220.4504 H   0  0  0  0  0  0  0  0  0  0  0  0
  139.9118   80.4517  218.8020 H   0  0  0  0  0  0  0  0  0  0  0  0
  139.6493   78.5880  220.4195 H   0  0  0  0  0  0  0  0  0  0  0  0
  141.0441   79.4630  217.7159 H   0  0  0  0  0  0  0  0  0  0  0  0
  142.6531   78.1831  216.2951 H   0  0  0  0  0  0  0  0  0  0  0  0
  144.0314   76.3963  217.4196 H   0  0  0  0  0  0  0  0  0  0  0  0
  143.7335   76.0026  219.8273 H   0  0  0  0  0  0  0  0  0  0  0  0
  139.7467   72.2398  221.5703 H   0  0  0  0  0  0  0  0  0  0  0  0
  141.2270   70.4373  220.6039 H   0  0  0  0  0  0  0  0  0  0  0  0
  143.3847   69.7945  219.7024 H   0  0  0  0  0  0  0  0  0  0  0  0
  146.5476   72.6658  219.3465 H   0  0  0  0  0  0  0  0  0  0  0  0
  145.0753   74.4224  220.2975 H   0  0  0  0  0  0  0  0  0  0  0  0
  1  2  2  0
  2  3  1  0
  3  4  1  0
  4  5  1  0
  5  6  2  0
  5  7  1  0
  7  8  1  0
  8  9  1  0
  9 10  1  0
 10 11  1  0
 11 12  1  0
 12 13  1  0
 13 14  2  0
 14 15  1  0
 15 16  2  0
 16 17  1  0
 17 18  2  0
  2 19  1  0
 19 20  2  0
 20 21  1  0
 21 22  2  0
 22 23  1  0
 23 24  2  0
 24 25  1  0
 25 26  1  0
 25 27  1  0
 25 28  1  0
 24 29  1  0
 29 30  2  0
 30 31  1  0
 31 32  2  0
 12  7  1  0
 18 13  1  0
 32 19  1  0
 31 22  1  0
  3 33  1  0
  4 34  1  0
  4 35  1  0
  8 36  1  0
  8 37  1  0
  9 38  1  0
  9 39  1  0
 10 40  1  0
 10 41  1  0
 11 42  1  0
 11 43  1  0
 12 44  1  1
 14 45  1  0
 15 46  1  0
 16 47  1  0
 17 48  1  0
 20 49  1  0
 21 50  1  0
 23 51  1  0
 29 52  1  0
 30 53  1  0
M  END
>  <smiles>  (56) 
O=C(NCC(=O)N1CCCCC1c1ccccn1)c1ccc2cc(C(F)(F)F)ccc2n1

>  <score_type>  (56) 
oracle

>  <origin>  (56) 
autodockgpu

>  <m_score__min__energy>  (56) 
-8.1699999999999999

>  <m_primary>  (56) 
energy

>  <rmsd>  (56) 
5.830676100735942

>  <m_score__min__rmsd>  (56) 
5.830676100735942

>  <meeko>  (56) 
{"free_energy": -6.4, "intermolecular_energy": -8.19, "internal_energy": -2.96, "cluster_size": 10, "cluster_id": 6, "rank_in_cluster": 4}

>  <energy>  (56) 
-8.0

>  <cluster_rmsd>  (56) 
1.73

>  <cluster>  (56) 
1

$$$$

     RDKit          3D

 53 56  0  0  0  0  0  0  0  0999 V2000
  140.3090   72.5660  220.5230 O   0  0  0  0  0  0  0  0  0  0  0  0
  140.0560   72.9020  221.7300 C   0  0  0  0  0  0  0  0  0  0  0  0
  139.7610   74.2760  222.0470 N   0  0  0  0  0  0  0  0  0  0  0  0
  139.7660   75.2100  220.9670 C   0  0  0  0  0  0  0  0  0  0  0  0
  140.9320   76.0060  220.6810 C   0  0  0  0  0  0  0  0  0  0  0  0
  141.1520   76.9640  221.5390 O   0  0  0  0  0  0  0  0  0  0  0  0
  141.8920   75.9420  219.6360 N   0  0  0  0  0  0  0  0  0  0  0  0
  142.6440   77.0880  219.1590 C   0  0  0  0  0  0  0  0  0  0  0  0
  142.5740   77.0700  217.6200 C   0  0  0  0  0  0  0  0  0  0  0  0
  143.1460   75.7510  217.1680 C   0  0  0  0  0  0  0  0  0  0  0  0
  142.1370   74.6780  217.6050 C   0  0  0  0  0  0  0  0  0  0  0  0
  142.1370   74.5820  219.1030 C   0  0  1  0  0  0  0  0  0  0  0  0
  143.4150   74.0570  219.6500 C   0  0  0  0  0  0  0  0  0  0  0  0
  143.8160   72.7460  219.4610 C   0  0  0  0  0  0  0  0  0  0  0  0
  145.0150   72.2550  219.9680 C   0  0  0  0  0  0  0  0  0  0  0  0
  145.7980   73.1460  220.6770 C   0  0  0  0  0  0  0  0  0  0  0  0
  145.3490   74.4400  220.8350 C   0  0  0  0  0  0  0  0  0  0  0  0
  144.1870   74.8950  220.3370 N   0  0  0  0  0  0  0  0  0  0  0  0
  140.0580   71.9150  222.8060 C   0  0  0  0  0  0  0  0  0  0  0  0
  139.5660   70.6470  222.5670 C   0  0  0  0  0  0  0  0  0  0  0  0
  139.5800   69.7310  223.6240 C   0  0  0  0  0  0  0  0  0  0  0  0
  140.0760   70.1260  224.8460 C   0  0  0  0  0  0  0  0  0  0  0  0
  140.1090   69.2490  225.9230 C   0  0  0  0  0  0  0  0  0  0  0  0
  140.6100   69.6470  227.1600 C   0  0  0  0  0  0  0  0  0  0  0  0
  140.6390   68.6960  228.3080 C   0  0  0  0  0  0  0  0  0  0  0  0
  141.7360   68.9780  229.0920 F   0  0  0  0  0  0  0  0  0  0  0  0
  139.5110   68.8730  229.0990 F   0  0  0  0  0  0  0  0  0  0  0  0
  140.6900   67.4170  227.8310 F   0  0  0  0  0  0  0  0  0  0  0  0
  141.0820   70.9170  227.3310 C   0  0  0  0  0  0  0  0  0  0  0  0
  141.0680   71.8140  226.2900 C   0  0  0  0  0  0  0  0  0  0  0  0
  140.5700   71.4090  225.0730 C   0  0  0  0  0  0  0  0  0  0  0  0
  140.5310   72.2440  224.0220 N   0  0  0  0  0  0  0  0  0  0  0  0
  139.5610   74.4980  223.0480 H   0  0  0  0  0  0  0  0  0  0  0  0
  139.5483   74.6349  220.0549 H   0  0  0  0  0  0  0  0  0  0  0  0
  139.0332   75.9624  221.2940 H   0  0  0  0  0  0  0  0  0  0  0  0
  142.2004   78.0174  219.5456 H   0  0  0  0  0  0  0  0  0  0  0  0
  143.6877   77.0410  219.5031 H   0  0  0  0  0  0  0  0  0  0  0  0
  141.5293   77.1622  217.2883 H   0  0  0  0  0  0  0  0  0  0  0  0
  143.1397   77.9105  217.1916 H   0  0  0  0  0  0  0  0  0  0  0  0
  143.2647   75.7408  216.0745 H   0  0  0  0  0  0  0  0  0  0  0  0
  144.1389   75.5718  217.6062 H   0  0  0  0  0  0  0  0  0  0  0  0
  141.1316   74.9535  217.2539 H   0  0  0  0  0  0  0  0  0  0  0  0
  142.4193   73.7069  217.1723 H   0  0  0  0  0  0  0  0  0  0  0  0
  141.3534   73.8726  219.4075 H   0  0  0  0  0  0  0  0  0  0  0  0
  143.1640   72.0685  218.8900 H   0  0  0  0  0  0  0  0  0  0  0  0
  145.3239   71.2108  219.8124 H   0  0  0  0  0  0  0  0  0  0  0  0
  146.7599   72.8293  221.1065 H   0  0  0  0  0  0  0  0  0  0  0  0
  145.9791   75.1410  221.4021 H   0  0  0  0  0  0  0  0  0  0  0  0
  139.1758   70.3665  221.5776 H   0  0  0  0  0  0  0  0  0  0  0  0
  139.1998   68.7088  223.4808 H   0  0  0  0  0  0  0  0  0  0  0  0
  139.7331   68.2230  225.7966 H   0  0  0  0  0  0  0  0  0  0  0  0
  141.4768   71.2246  228.3105 H   0  0  0  0  0  0  0  0  0  0  0  0
  141.4480   72.8371  226.4272 H   0  0  0  0  0  0  0  0  0  0  0  0
  1  2  2  0
  2  3  1  0
  3  4  1  0
  4  5  1  0
  5  6  2  0
  5  7  1  0
  7  8  1  0
  8  9  1  0
  9 10  1  0
 10 11  1  0
 11 12  1  0
 12 13  1  0
 13 14  2  0
 14 15  1  0
 15 16  2  0
 16 17  1  0
 17 18  2  0
  2 19  1  0
 19 20  2  0
 20 21  1  0
 21 22  2  0
 22 23  1  0
 23 24  2  0
 24 25  1  0
 25 26  1  0
 25 27  1  0
 25 28  1  0
 24 29  1  0
 29 30  2  0
 30 31  1  0
 31 32  2  0
 12  7  1  0
 18 13  1  0
 32 19  1  0
 31 22  1  0
  3 33  1  0
  4 34  1  0
  4 35  1  0
  8 36  1  0
  8 37  1  0
  9 38  1  0
  9 39  1  0
 10 40  1  0
 10 41  1  0
 11 42  1  0
 11 43  1  0
 12 44  1  6
 14 45  1  0
 15 46  1  0
 16 47  1  0
 17 48  1  0
 20 49  1  0
 21 50  1  0
 23 51  1  0
 29 52  1  0
 30 53  1  0
M  END
>  <smiles>  (57) 
O=C(NCC(=O)N1CCCCC1c1ccccn1)c1ccc2cc(C(F)(F)F)ccc2n1

>  <score_type>  (57) 
oracle

>  <origin>  (57) 
autodockgpu

>  <m_score__min__energy>  (57) 
-8.1699999999999999

>  <m_primary>  (57) 
energy

>  <rmsd>  (57) 
4.349429858059774

>  <m_score__min__rmsd>  (57) 
4.349429858059774

>  <meeko>  (57) 
{"free_energy": -7.55, "intermolecular_energy": -9.34, "internal_energy": -2.04, "cluster_size": 7, "cluster_id": 3, "rank_in_cluster": 6}

>  <energy>  (57) 
-7.96

>  <cluster_rmsd>  (57) 
1.68

>  <cluster>  (57) 
1

$$$$

     RDKit          3D

 53 56  0  0  0  0  0  0  0  0999 V2000
  140.7870   74.1350  221.4630 O   0  0  0  0  0  0  0  0  0  0  0  0
  139.7260   73.8580  222.1200 C   0  0  0  0  0  0  0  0  0  0  0  0
  138.6410   74.8050  222.1650 N   0  0  0  0  0  0  0  0  0  0  0  0
  138.8160   76.0310  221.4540 C   0  0  0  0  0  0  0  0  0  0  0  0
  139.2220   77.2330  222.1380 C   0  0  0  0  0  0  0  0  0  0  0  0
  138.3410   77.6920  222.9840 O   0  0  0  0  0  0  0  0  0  0  0  0
  140.4050   78.0140  222.0620 N   0  0  0  0  0  0  0  0  0  0  0  0
  141.4330   78.0220  223.0870 C   0  0  0  0  0  0  0  0  0  0  0  0
  141.7820   79.4950  223.3710 C   0  0  0  0  0  0  0  0  0  0  0  0
  142.2340   80.1010  222.0670 C   0  0  0  0  0  0  0  0  0  0  0  0
  140.9850   80.1720  221.1760 C   0  0  0  0  0  0  0  0  0  0  0  0
  140.5630   78.7800  220.8060 C   0  0  1  0  0  0  0  0  0  0  0  0
  141.5420   78.0940  219.9240 C   0  0  0  0  0  0  0  0  0  0  0  0
  142.0060   78.6610  218.7500 C   0  0  0  0  0  0  0  0  0  0  0  0
  142.9270   78.0210  217.9280 C   0  0  0  0  0  0  0  0  0  0  0  0
  143.3640   76.7770  218.3400 C   0  0  0  0  0  0  0  0  0  0  0  0
  142.8690   76.2590  219.5170 C   0  0  0  0  0  0  0  0  0  0  0  0
  141.9790   76.8940  220.2980 N   0  0  0  0  0  0  0  0  0  0  0  0
  139.5860   72.5910  222.8320 C   0  0  0  0  0  0  0  0  0  0  0  0
  138.6130   71.6940  222.4390 C   0  0  0  0  0  0  0  0  0  0  0  0
  138.5060   70.4930  223.1490 C   0  0  0  0  0  0  0  0  0  0  0  0
  139.3640   70.2580  224.1990 C   0  0  0  0  0  0  0  0  0  0  0  0
  139.2930   69.0790  224.9320 C   0  0  0  0  0  0  0  0  0  0  0  0
  140.1600   68.8390  225.9950 C   0  0  0  0  0  0  0  0  0  0  0  0
  140.0730   67.5710  226.7730 C   0  0  0  0  0  0  0  0  0  0  0  0
  138.8290   67.0130  226.5800 F   0  0  0  0  0  0  0  0  0  0  0  0
  141.0120   66.6610  226.3020 F   0  0  0  0  0  0  0  0  0  0  0  0
  140.2930   67.8390  228.0950 F   0  0  0  0  0  0  0  0  0  0  0  0
  141.1020   69.7680  226.3340 C   0  0  0  0  0  0  0  0  0  0  0  0
  141.2050   70.9470  225.6330 C   0  0  0  0  0  0  0  0  0  0  0  0
  140.3420   71.1720  224.5850 C   0  0  0  0  0  0  0  0  0  0  0  0
  140.3970   72.3060  223.8670 N   0  0  0  0  0  0  0  0  0  0  0  0
  137.7970   74.5310  222.7170 H   0  0  0  0  0  0  0  0  0  0  0  0
  139.5749   75.8391  220.6812 H   0  0  0  0  0  0  0  0  0  0  0  0
  137.7929   76.2709  221.1288 H   0  0  0  0  0  0  0  0  0  0  0  0
  141.0567   77.5408  224.0018 H   0  0  0  0  0  0  0  0  0  0  0  0
  142.3222   77.4677  222.7523 H   0  0  0  0  0  0  0  0  0  0  0  0
  140.8960   80.0271  223.7477 H   0  0  0  0  0  0  0  0  0  0  0  0
  142.5714   79.5711  224.1333 H   0  0  0  0  0  0  0  0  0  0  0  0
  142.6411   81.1090  222.2350 H   0  0  0  0  0  0  0  0  0  0  0  0
  143.0286   79.5015  221.5988 H   0  0  0  0  0  0  0  0  0  0  0  0
  140.1708   80.6702  221.7228 H   0  0  0  0  0  0  0  0  0  0  0  0
  141.2134   80.7436  220.2643 H   0  0  0  0  0  0  0  0  0  0  0  0
  139.6219   78.8387  220.2395 H   0  0  0  0  0  0  0  0  0  0  0  0
  141.6329   79.6534  218.4566 H   0  0  0  0  0  0  0  0  0  0  0  0
  143.2891   78.4818  216.9971 H   0  0  0  0  0  0  0  0  0  0  0  0
  144.0925   76.2113  217.7405 H   0  0  0  0  0  0  0  0  0  0  0  0
  143.2232   75.2676  219.8359 H   0  0  0  0  0  0  0  0  0  0  0  0
  137.9435   71.9162  221.5950 H   0  0  0  0  0  0  0  0  0  0  0  0
  137.7466   69.7470  222.8717 H   0  0  0  0  0  0  0  0  0  0  0  0
  138.5391   68.3228  224.6679 H   0  0  0  0  0  0  0  0  0  0  0  0
  141.7839   69.5718  227.1745 H   0  0  0  0  0  0  0  0  0  0  0  0
  141.9632   71.6961  225.9051 H   0  0  0  0  0  0  0  0  0  0  0  0
  1  2  2  0
  2  3  1  0
  3  4  1  0
  4  5  1  0
  5  6  2  0
  5  7  1  0
  7  8  1  0
  8  9  1  0
  9 10  1  0
 10 11  1  0
 11 12  1  0
 12 13  1  0
 13 14  2  0
 14 15  1  0
 15 16  2  0
 16 17  1  0
 17 18  2  0
  2 19  1  0
 19 20  2  0
 20 21  1  0
 21 22  2  0
 22 23  1  0
 23 24  2  0
 24 25  1  0
 25 26  1  0
 25 27  1  0
 25 28  1  0
 24 29  1  0
 29 30  2  0
 30 31  1  0
 31 32  2  0
 12  7  1  0
 18 13  1  0
 32 19  1  0
 31 22  1  0
  3 33  1  0
  4 34  1  0
  4 35  1  0
  8 36  1  0
  8 37  1  0
  9 38  1  0
  9 39  1  0
 10 40  1  0
 10 41  1  0
 11 42  1  0
 11 43  1  0
 12 44  1  6
 14 45  1  0
 15 46  1  0
 16 47  1  0
 17 48  1  0
 20 49  1  0
 21 50  1  0
 23 51  1  0
 29 52  1  0
 30 53  1  0
M  END
>  <smiles>  (58) 
O=C(NCC(=O)N1CCCCC1c1ccccn1)c1ccc2cc(C(F)(F)F)ccc2n1

>  <score_type>  (58) 
oracle

>  <origin>  (58) 
autodockgpu

>  <m_score__min__energy>  (58) 
-8.1699999999999999

>  <m_primary>  (58) 
energy

>  <rmsd>  (58) 
3.843524036104376

>  <m_score__min__rmsd>  (58) 
3.843524036104376

>  <meeko>  (58) 
{"free_energy": -7.71, "intermolecular_energy": -9.5, "internal_energy": -1.71, "cluster_size": 7, "cluster_id": 2, "rank_in_cluster": 7}

>  <energy>  (58) 
-7.88

>  <cluster_rmsd>  (58) 
1.82

>  <cluster>  (58) 
1

$$$$

     RDKit          3D

 53 56  0  0  0  0  0  0  0  0999 V2000
  139.7390   72.5590  220.5030 O   0  0  0  0  0  0  0  0  0  0  0  0
  139.5700   72.8700  221.7310 C   0  0  0  0  0  0  0  0  0  0  0  0
  139.2380   74.2250  222.0900 N   0  0  0  0  0  0  0  0  0  0  0  0
  139.1130   75.1700  221.0260 C   0  0  0  0  0  0  0  0  0  0  0  0
  139.1730   76.5860  221.2810 C   0  0  0  0  0  0  0  0  0  0  0  0
  138.3930   76.9910  222.2460 O   0  0  0  0  0  0  0  0  0  0  0  0
  139.9260   77.6280  220.6780 N   0  0  0  0  0  0  0  0  0  0  0  0
  139.3740   78.5750  219.7270 C   0  0  0  0  0  0  0  0  0  0  0  0
  140.3590   78.6600  218.5450 C   0  0  0  0  0  0  0  0  0  0  0  0
  141.6900   79.0860  219.1080 C   0  0  0  0  0  0  0  0  0  0  0  0
  142.1980   77.9000  219.9410 C   0  0  0  0  0  0  0  0  0  0  0  0
  141.3250   77.7350  221.1510 C   0  0  1  0  0  0  0  0  0  0  0  0
  141.4410   78.8670  222.1070 C   0  0  0  0  0  0  0  0  0  0  0  0
  142.6640   79.3970  222.4790 C   0  0  0  0  0  0  0  0  0  0  0  0
  142.7730   80.4600  223.3700 C   0  0  0  0  0  0  0  0  0  0  0  0
  141.5910   80.9690  223.8740 C   0  0  0  0  0  0  0  0  0  0  0  0
  140.4020   80.4020  223.4690 C   0  0  0  0  0  0  0  0  0  0  0  0
  140.3180   79.3750  222.6070 N   0  0  0  0  0  0  0  0  0  0  0  0
  139.7040   71.8730  222.7900 C   0  0  0  0  0  0  0  0  0  0  0  0
  139.3080   70.5720  222.5530 C   0  0  0  0  0  0  0  0  0  0  0  0
  139.4470   69.6460  223.5930 C   0  0  0  0  0  0  0  0  0  0  0  0
  139.9660   70.0670  224.7970 C   0  0  0  0  0  0  0  0  0  0  0  0
  140.1210   69.1830  225.8570 C   0  0  0  0  0  0  0  0  0  0  0  0
  140.6450   69.6050  227.0760 C   0  0  0  0  0  0  0  0  0  0  0  0
  140.8070   68.6460  228.2060 C   0  0  0  0  0  0  0  0  0  0  0  0
  141.7620   69.1330  229.0710 F   0  0  0  0  0  0  0  0  0  0  0  0
  139.6180   68.5470  228.9180 F   0  0  0  0  0  0  0  0  0  0  0  0
  141.1680   67.4250  227.7110 F   0  0  0  0  0  0  0  0  0  0  0  0
  141.0180   70.9080  227.2470 C   0  0  0  0  0  0  0  0  0  0  0  0
  140.8810   71.8140  226.2220 C   0  0  0  0  0  0  0  0  0  0  0  0
  140.3620   71.3840  225.0220 C   0  0  0  0  0  0  0  0  0  0  0  0
  140.2050   72.2260  223.9880 N   0  0  0  0  0  0  0  0  0  0  0  0
  139.1110   74.4280  223.1070 H   0  0  0  0  0  0  0  0  0  0  0  0
  139.9198   74.9462  220.3125 H   0  0  0  0  0  0  0  0  0  0  0  0
  138.0732   75.0273  220.6966 H   0  0  0  0  0  0  0  0  0  0  0  0
  138.3919   78.2265  219.3749 H   0  0  0  0  0  0  0  0  0  0  0  0
  139.2372   79.5619  220.1932 H   0  0  0  0  0  0  0  0  0  0  0  0
  140.4516   77.6773  218.0595 H   0  0  0  0  0  0  0  0  0  0  0  0
  140.0048   79.3781  217.7907 H   0  0  0  0  0  0  0  0  0  0  0  0
  142.3948   79.3107  218.2939 H   0  0  0  0  0  0  0  0  0  0  0  0
  141.5958   79.9958  219.7190 H   0  0  0  0  0  0  0  0  0  0  0  0
  142.1630   76.9830  219.3345 H   0  0  0  0  0  0  0  0  0  0  0  0
  143.2347   78.0881  220.2569 H   0  0  0  0  0  0  0  0  0  0  0  0
  141.6464   76.8343  221.6945 H   0  0  0  0  0  0  0  0  0  0  0  0
  143.5817   78.9628  222.0556 H   0  0  0  0  0  0  0  0  0  0  0  0
  143.7503   80.8743  223.6586 H   0  0  0  0  0  0  0  0  0  0  0  0
  141.5991   81.8094  224.5837 H   0  0  0  0  0  0  0  0  0  0  0  0
  139.4668   80.8146  223.8754 H   0  0  0  0  0  0  0  0  0  0  0  0
  138.8963   70.2727  221.5778 H   0  0  0  0  0  0  0  0  0  0  0  0
  139.1462   68.5975  223.4508 H   0  0  0  0  0  0  0  0  0  0  0  0
  139.8246   68.1312  225.7313 H   0  0  0  0  0  0  0  0  0  0  0  0
  141.4313   71.2350  228.2125 H   0  0  0  0  0  0  0  0  0  0  0  0
  141.1807   72.8635  226.3585 H   0  0  0  0  0  0  0  0  0  0  0  0
  1  2  2  0
  2  3  1  0
  3  4  1  0
  4  5  1  0
  5  6  2  0
  5  7  1  0
  7  8  1  0
  8  9  1  0
  9 10  1  0
 10 11  1  0
 11 12  1  0
 12 13  1  0
 13 14  2  0
 14 15  1  0
 15 16  2  0
 16 17  1  0
 17 18  2  0
  2 19  1  0
 19 20  2  0
 20 21  1  0
 21 22  2  0
 22 23  1  0
 23 24  2  0
 24 25  1  0
 25 26  1  0
 25 27  1  0
 25 28  1  0
 24 29  1  0
 29 30  2  0
 30 31  1  0
 31 32  2  0
 12  7  1  0
 18 13  1  0
 32 19  1  0
 31 22  1  0
  3 33  1  0
  4 34  1  0
  4 35  1  0
  8 36  1  0
  8 37  1  0
  9 38  1  0
  9 39  1  0
 10 40  1  0
 10 41  1  0
 11 42  1  0
 11 43  1  0
 12 44  1  1
 14 45  1  0
 15 46  1  0
 16 47  1  0
 17 48  1  0
 20 49  1  0
 21 50  1  0
 23 51  1  0
 29 52  1  0
 30 53  1  0
M  END
>  <smiles>  (59) 
O=C(NCC(=O)N1CCCCC1c1ccccn1)c1ccc2cc(C(F)(F)F)ccc2n1

>  <score_type>  (59) 
oracle

>  <origin>  (59) 
autodockgpu

>  <m_score__min__energy>  (59) 
-8.1699999999999999

>  <m_primary>  (59) 
energy

>  <rmsd>  (59) 
2.4933754904822374

>  <m_score__min__rmsd>  (59) 
2.4933754904822374

>  <meeko>  (59) 
{"free_energy": -8.02, "intermolecular_energy": -9.81, "internal_energy": -1.72, "cluster_size": 22, "cluster_id": 1, "rank_in_cluster": 4}

>  <energy>  (59) 
-7.74

>  <cluster_rmsd>  (59) 
0.97

>  <cluster>  (59) 
1

$$$$

     RDKit          3D

 53 56  0  0  0  0  0  0  0  0999 V2000
  139.2110   74.6030  222.0930 O   0  0  0  0  0  0  0  0  0  0  0  0
  140.4560   74.7760  221.8670 C   0  0  0  0  0  0  0  0  0  0  0  0
  141.0720   76.0430  222.1680 N   0  0  0  0  0  0  0  0  0  0  0  0
  140.2350   77.0610  222.7190 C   0  0  0  0  0  0  0  0  0  0  0  0
  140.5060   78.4550  222.4780 C   0  0  0  0  0  0  0  0  0  0  0  0
  140.1140   79.2520  223.4340 O   0  0  0  0  0  0  0  0  0  0  0  0
  141.1240   79.1270  221.3900 N   0  0  0  0  0  0  0  0  0  0  0  0
  142.1850   80.1050  221.5440 C   0  0  0  0  0  0  0  0  0  0  0  0
  141.8180   81.3170  220.6670 C   0  0  0  0  0  0  0  0  0  0  0  0
  141.6730   80.8120  219.2540 C   0  0  0  0  0  0  0  0  0  0  0  0
  140.4080   79.9400  219.2440 C   0  0  0  0  0  0  0  0  0  0  0  0
  140.6570   78.7000  220.0520 C   0  0  1  0  0  0  0  0  0  0  0  0
  141.6670   77.8000  219.4370 C   0  0  0  0  0  0  0  0  0  0  0  0
  141.6950   77.5400  218.0780 C   0  0  0  0  0  0  0  0  0  0  0  0
  142.6440   76.7020  217.5010 C   0  0  0  0  0  0  0  0  0  0  0  0
  143.5700   76.1340  218.3560 C   0  0  0  0  0  0  0  0  0  0  0  0
  143.4950   76.4290  219.7000 C   0  0  0  0  0  0  0  0  0  0  0  0
  142.5700   77.2410  220.2380 N   0  0  0  0  0  0  0  0  0  0  0  0
  141.2790   73.7090  221.3050 C   0  0  0  0  0  0  0  0  0  0  0  0
  140.7110   72.4770  221.0470 C   0  0  0  0  0  0  0  0  0  0  0  0
  141.5320   71.4770  220.5140 C   0  0  0  0  0  0  0  0  0  0  0  0
  142.8580   71.7600  220.2710 C   0  0  0  0  0  0  0  0  0  0  0  0
  143.7090   70.7970  219.7430 C   0  0  0  0  0  0  0  0  0  0  0  0
  145.0500   71.0800  219.4970 C   0  0  0  0  0  0  0  0  0  0  0  0
  145.9540   70.0390  218.9290 C   0  0  0  0  0  0  0  0  0  0  0  0
  146.2970   70.3980  217.6450 F   0  0  0  0  0  0  0  0  0  0  0  0
  147.1290   69.9770  219.6680 F   0  0  0  0  0  0  0  0  0  0  0  0
  145.3160   68.8310  218.9490 F   0  0  0  0  0  0  0  0  0  0  0  0
  145.5510   72.3200  219.7740 C   0  0  0  0  0  0  0  0  0  0  0  0
  144.7410   73.2990  220.2970 C   0  0  0  0  0  0  0  0  0  0  0  0
  143.4170   73.0080  220.5360 C   0  0  0  0  0  0  0  0  0  0  0  0
  142.5810   73.9260  221.0470 N   0  0  0  0  0  0  0  0  0  0  0  0
  142.0930   76.1340  221.9630 H   0  0  0  0  0  0  0  0  0  0  0  0
  139.2198   76.8698  222.3410 H   0  0  0  0  0  0  0  0  0  0  0  0
  140.4143   76.9630  223.7998 H   0  0  0  0  0  0  0  0  0  0  0  0
  142.2645   80.4122  222.5973 H   0  0  0  0  0  0  0  0  0  0  0  0
  143.1535   79.6817  221.2395 H   0  0  0  0  0  0  0  0  0  0  0  0
  140.8702   81.7578  221.0096 H   0  0  0  0  0  0  0  0  0  0  0  0
  142.5938   82.0944  220.7280 H   0  0  0  0  0  0  0  0  0  0  0  0
  141.5617   81.6551  218.5563 H   0  0  0  0  0  0  0  0  0  0  0  0
  142.5584   80.2414  218.9371 H   0  0  0  0  0  0  0  0  0  0  0  0
  139.5701   80.5023  219.6818 H   0  0  0  0  0  0  0  0  0  0  0  0
  140.1584   79.6629  218.2092 H   0  0  0  0  0  0  0  0  0  0  0  0
  139.7207   78.1252  220.1064 H   0  0  0  0  0  0  0  0  0  0  0  0
  140.9407   78.0123  217.4315 H   0  0  0  0  0  0  0  0  0  0  0  0
  142.6568   76.5016  216.4195 H   0  0  0  0  0  0  0  0  0  0  0  0
  144.3503   75.4607  217.9716 H   0  0  0  0  0  0  0  0  0  0  0  0
  144.2365   75.9725  220.3721 H   0  0  0  0  0  0  0  0  0  0  0  0
  139.6473   72.2878  221.2538 H   0  0  0  0  0  0  0  0  0  0  0  0
  141.1245   70.4796  220.2924 H   0  0  0  0  0  0  0  0  0  0  0  0
  143.3170   69.7947  219.5156 H   0  0  0  0  0  0  0  0  0  0  0  0
  146.6113   72.5367  219.5769 H   0  0  0  0  0  0  0  0  0  0  0  0
  145.1436   74.2979  220.5208 H   0  0  0  0  0  0  0  0  0  0  0  0
  1  2  2  0
  2  3  1  0
  3  4  1  0
  4  5  1  0
  5  6  2  0
  5  7  1  0
  7  8  1  0
  8  9  1  0
  9 10  1  0
 10 11  1  0
 11 12  1  0
 12 13  1  0
 13 14  2  0
 14 15  1  0
 15 16  2  0
 16 17  1  0
 17 18  2  0
  2 19  1  0
 19 20  2  0
 20 21  1  0
 21 22  2  0
 22 23  1  0
 23 24  2  0
 24 25  1  0
 25 26  1  0
 25 27  1  0
 25 28  1  0
 24 29  1  0
 29 30  2  0
 30 31  1  0
 31 32  2  0
 12  7  1  0
 18 13  1  0
 32 19  1  0
 31 22  1  0
  3 33  1  0
  4 34  1  0
  4 35  1  0
  8 36  1  0
  8 37  1  0
  9 38  1  0
  9 39  1  0
 10 40  1  0
 10 41  1  0
 11 42  1  0
 11 43  1  0
 12 44  1  1
 14 45  1  0
 15 46  1  0
 16 47  1  0
 17 48  1  0
 20 49  1  0
 21 50  1  0
 23 51  1  0
 29 52  1  0
 30 53  1  0
M  END
>  <smiles>  (60) 
O=C(NCC(=O)N1CCCCC1c1ccccn1)c1ccc2cc(C(F)(F)F)ccc2n1

>  <score_type>  (60) 
oracle

>  <origin>  (60) 
autodockgpu

>  <m_score__min__energy>  (60) 
-8.1699999999999999

>  <m_primary>  (60) 
energy

>  <rmsd>  (60) 
5.788254332825607

>  <m_score__min__rmsd>  (60) 
5.788254332825607

>  <meeko>  (60) 
{"free_energy": -5.87, "intermolecular_energy": -7.66, "internal_energy": -3.26, "cluster_size": 10, "cluster_id": 6, "rank_in_cluster": 10}

>  <energy>  (60) 
-7.61

>  <cluster_rmsd>  (60) 
1.74

>  <cluster>  (60) 
1

$$$$

     RDKit          3D

 53 56  0  0  0  0  0  0  0  0999 V2000
  138.5470   73.9410  221.9320 O   0  0  0  0  0  0  0  0  0  0  0  0
  139.7600   74.2750  221.7030 C   0  0  0  0  0  0  0  0  0  0  0  0
  140.1960   75.6220  221.9670 N   0  0  0  0  0  0  0  0  0  0  0  0
  139.2240   76.5330  222.4840 C   0  0  0  0  0  0  0  0  0  0  0  0
  139.5480   77.9210  222.6960 C   0  0  0  0  0  0  0  0  0  0  0  0
  138.5850   78.6220  223.2280 O   0  0  0  0  0  0  0  0  0  0  0  0
  140.7250   78.6710  222.4330 N   0  0  0  0  0  0  0  0  0  0  0  0
  141.8590   78.7360  223.3370 C   0  0  0  0  0  0  0  0  0  0  0  0
  142.2530   80.2200  223.4680 C   0  0  0  0  0  0  0  0  0  0  0  0
  142.5660   80.7170  222.0800 C   0  0  0  0  0  0  0  0  0  0  0  0
  141.2270   80.7460  221.3270 C   0  0  0  0  0  0  0  0  0  0  0  0
  140.7520   79.3380  221.1120 C   0  0  1  0  0  0  0  0  0  0  0  0
  141.6210   78.5690  220.1840 C   0  0  0  0  0  0  0  0  0  0  0  0
  142.0730   79.0950  218.9870 C   0  0  0  0  0  0  0  0  0  0  0  0
  142.8910   78.3780  218.1210 C   0  0  0  0  0  0  0  0  0  0  0  0
  143.2380   77.0990  218.5140 C   0  0  0  0  0  0  0  0  0  0  0  0
  142.7590   76.6250  219.7170 C   0  0  0  0  0  0  0  0  0  0  0  0
  141.9690   77.3350  220.5400 N   0  0  0  0  0  0  0  0  0  0  0  0
  140.7230   73.3120  221.1760 C   0  0  0  0  0  0  0  0  0  0  0  0
  140.3130   72.0240  220.8940 C   0  0  0  0  0  0  0  0  0  0  0  0
  141.2660   71.1290  220.3960 C   0  0  0  0  0  0  0  0  0  0  0  0
  142.5580   71.5640  220.2090 C   0  0  0  0  0  0  0  0  0  0  0  0
  143.5370   70.7100  219.7170 C   0  0  0  0  0  0  0  0  0  0  0  0
  144.8450   71.1470  219.5270 C   0  0  0  0  0  0  0  0  0  0  0  0
  145.8860   70.2200  218.9980 C   0  0  0  0  0  0  0  0  0  0  0  0
  145.4250   68.9260  219.1000 F   0  0  0  0  0  0  0  0  0  0  0  0
  146.1070   70.4750  217.6510 F   0  0  0  0  0  0  0  0  0  0  0  0
  147.0410   70.3880  219.7090 F   0  0  0  0  0  0  0  0  0  0  0  0
  145.1870   72.4350  219.8260 C   0  0  0  0  0  0  0  0  0  0  0  0
  144.2480   73.3120  220.3140 C   0  0  0  0  0  0  0  0  0  0  0  0
  142.9580   72.8670  220.4970 C   0  0  0  0  0  0  0  0  0  0  0  0
  142.0010   73.6810  220.9730 N   0  0  0  0  0  0  0  0  0  0  0  0
  141.1960   75.8440  221.7620 H   0  0  0  0  0  0  0  0  0  0  0  0
  138.3740   76.5131  221.7860 H   0  0  0  0  0  0  0  0  0  0  0  0
  139.0645   76.1623  223.5073 H   0  0  0  0  0  0  0  0  0  0  0  0
  141.5799   78.3319  224.3213 H   0  0  0  0  0  0  0  0  0  0  0  0
  142.7002   78.1413  222.9515 H   0  0  0  0  0  0  0  0  0  0  0  0
  141.4194   80.7958  223.8964 H   0  0  0  0  0  0  0  0  0  0  0  0
  143.1216   80.3384  224.1325 H   0  0  0  0  0  0  0  0  0  0  0  0
  143.0010   81.7264  222.1248 H   0  0  0  0  0  0  0  0  0  0  0  0
  143.2972   80.0681  221.5757 H   0  0  0  0  0  0  0  0  0  0  0  0
  140.4833   81.2989  221.9196 H   0  0  0  0  0  0  0  0  0  0  0  0
  141.3597   81.2441  220.3553 H   0  0  0  0  0  0  0  0  0  0  0  0
  139.7553   79.3724  220.6479 H   0  0  0  0  0  0  0  0  0  0  0  0
  141.7746   80.1170  218.7105 H   0  0  0  0  0  0  0  0  0  0  0  0
  143.2440   78.8067  217.1715 H   0  0  0  0  0  0  0  0  0  0  0  0
  143.8828   76.4724  217.8803 H   0  0  0  0  0  0  0  0  0  0  0  0
  143.0401   75.6058  220.0208 H   0  0  0  0  0  0  0  0  0  0  0  0
  139.2707   71.7117  221.0557 H   0  0  0  0  0  0  0  0  0  0  0  0
  140.9865   70.0922  220.1573 H   0  0  0  0  0  0  0  0  0  0  0  0
  143.2740   69.6701  219.4732 H   0  0  0  0  0  0  0  0  0  0  0  0
  146.2227   72.7733  219.6750 H   0  0  0  0  0  0  0  0  0  0  0  0
  144.5220   74.3500  220.5539 H   0  0  0  0  0  0  0  0  0  0  0  0
  1  2  2  0
  2  3  1  0
  3  4  1  0
  4  5  1  0
  5  6  2  0
  5  7  1  0
  7  8  1  0
  8  9  1  0
  9 10  1  0
 10 11  1  0
 11 12  1  0
 12 13  1  0
 13 14  2  0
 14 15  1  0
 15 16  2  0
 16 17  1  0
 17 18  2  0
  2 19  1  0
 19 20  2  0
 20 21  1  0
 21 22  2  0
 22 23  1  0
 23 24  2  0
 24 25  1  0
 25 26  1  0
 25 27  1  0
 25 28  1  0
 24 29  1  0
 29 30  2  0
 30 31  1  0
 31 32  2  0
 12  7  1  0
 18 13  1  0
 32 19  1  0
 31 22  1  0
  3 33  1  0
  4 34  1  0
  4 35  1  0
  8 36  1  0
  8 37  1  0
  9 38  1  0
  9 39  1  0
 10 40  1  0
 10 41  1  0
 11 42  1  0
 11 43  1  0
 12 44  1  6
 14 45  1  0
 15 46  1  0
 16 47  1  0
 17 48  1  0
 20 49  1  0
 21 50  1  0
 23 51  1  0
 29 52  1  0
 30 53  1  0
M  END
>  <smiles>  (61) 
O=C(NCC(=O)N1CCCCC1c1ccccn1)c1ccc2cc(C(F)(F)F)ccc2n1

>  <score_type>  (61) 
oracle

>  <origin>  (61) 
autodockgpu

>  <m_score__min__energy>  (61) 
-8.1699999999999999

>  <m_primary>  (61) 
energy

>  <rmsd>  (61) 
5.634220014476896

>  <m_score__min__rmsd>  (61) 
5.634220014476896

>  <meeko>  (61) 
{"free_energy": -6.2, "intermolecular_energy": -7.99, "internal_energy": -3.02, "cluster_size": 10, "cluster_id": 6, "rank_in_cluster": 8}

>  <energy>  (61) 
-7.61

>  <cluster_rmsd>  (61) 
1.83

>  <cluster>  (61) 
1

$$$$

     RDKit          3D

 53 56  0  0  0  0  0  0  0  0999 V2000
  140.2610   72.5540  220.5430 O   0  0  0  0  0  0  0  0  0  0  0  0
  140.0110   72.8950  221.7500 C   0  0  0  0  0  0  0  0  0  0  0  0
  139.7070   74.2680  222.0610 N   0  0  0  0  0  0  0  0  0  0  0  0
  139.7000   75.1970  220.9750 C   0  0  0  0  0  0  0  0  0  0  0  0
  140.8310   76.0540  220.7260 C   0  0  0  0  0  0  0  0  0  0  0  0
  140.9200   77.0740  221.5360 O   0  0  0  0  0  0  0  0  0  0  0  0
  141.8710   75.9970  219.7610 N   0  0  0  0  0  0  0  0  0  0  0  0
  142.6850   77.1380  219.3840 C   0  0  0  0  0  0  0  0  0  0  0  0
  142.7410   77.1690  217.8450 C   0  0  0  0  0  0  0  0  0  0  0  0
  143.3160   75.8510  217.3970 C   0  0  0  0  0  0  0  0  0  0  0  0
  142.2500   74.7910  217.7160 C   0  0  0  0  0  0  0  0  0  0  0  0
  142.1260   74.6490  219.2050 C   0  0  1  0  0  0  0  0  0  0  0  0
  143.3420   74.0740  219.8350 C   0  0  0  0  0  0  0  0  0  0  0  0
  144.4050   74.8590  220.2440 C   0  0  0  0  0  0  0  0  0  0  0  0
  145.5420   74.3220  220.8390 C   0  0  0  0  0  0  0  0  0  0  0  0
  145.5630   72.9500  221.0060 C   0  0  0  0  0  0  0  0  0  0  0  0
  144.4770   72.2160  220.5790 C   0  0  0  0  0  0  0  0  0  0  0  0
  143.3880   72.7550  220.0060 N   0  0  0  0  0  0  0  0  0  0  0  0
  140.0260   71.9140  222.8310 C   0  0  0  0  0  0  0  0  0  0  0  0
  139.5350   70.6440  222.6040 C   0  0  0  0  0  0  0  0  0  0  0  0
  139.5610   69.7330  223.6660 C   0  0  0  0  0  0  0  0  0  0  0  0
  140.0680   70.1370  224.8800 C   0  0  0  0  0  0  0  0  0  0  0  0
  140.1130   69.2660  225.9620 C   0  0  0  0  0  0  0  0  0  0  0  0
  140.6260   69.6710  227.1920 C   0  0  0  0  0  0  0  0  0  0  0  0
  140.6680   68.7270  228.3450 C   0  0  0  0  0  0  0  0  0  0  0  0
  139.5160   68.8750  229.0850 F   0  0  0  0  0  0  0  0  0  0  0  0
  140.6980   67.4170  227.8840 F   0  0  0  0  0  0  0  0  0  0  0  0
  141.7760   68.9910  229.1010 F   0  0  0  0  0  0  0  0  0  0  0  0
  141.0960   70.9430  227.3520 C   0  0  0  0  0  0  0  0  0  0  0  0
  141.0700   71.8350  226.3060 C   0  0  0  0  0  0  0  0  0  0  0  0
  140.5610   71.4220  225.0960 C   0  0  0  0  0  0  0  0  0  0  0  0
  140.5100   72.2510  224.0410 N   0  0  0  0  0  0  0  0  0  0  0  0
  139.5120   74.4940  223.0620 H   0  0  0  0  0  0  0  0  0  0  0  0
  139.5467   74.6070  220.0594 H   0  0  0  0  0  0  0  0  0  0  0  0
  138.9161   75.9098  221.2706 H   0  0  0  0  0  0  0  0  0  0  0  0
  142.2321   78.0659  219.7634 H   0  0  0  0  0  0  0  0  0  0  0  0
  143.6957   77.0543  219.8099 H   0  0  0  0  0  0  0  0  0  0  0  0
  141.7294   77.2991  217.4330 H   0  0  0  0  0  0  0  0  0  0  0  0
  143.3602   78.0069  217.4922 H   0  0  0  0  0  0  0  0  0  0  0  0
  143.5224   75.8719  216.3167 H   0  0  0  0  0  0  0  0  0  0  0  0
  144.2656   75.6324  217.9073 H   0  0  0  0  0  0  0  0  0  0  0  0
  141.2831   75.1029  217.2943 H   0  0  0  0  0  0  0  0  0  0  0  0
  142.5440   73.8267  217.2758 H   0  0  0  0  0  0  0  0  0  0  0  0
  141.3035   73.9516  219.4220 H   0  0  0  0  0  0  0  0  0  0  0  0
  144.3492   75.9472  220.0933 H   0  0  0  0  0  0  0  0  0  0  0  0
  146.3812   74.9565  221.1601 H   0  0  0  0  0  0  0  0  0  0  0  0
  146.4283   72.4541  221.4700 H   0  0  0  0  0  0  0  0  0  0  0  0
  144.5037   71.1248  220.7155 H   0  0  0  0  0  0  0  0  0  0  0  0
  139.1361   70.3572  221.6198 H   0  0  0  0  0  0  0  0  0  0  0  0
  139.1818   68.7091  223.5324 H   0  0  0  0  0  0  0  0  0  0  0  0
  139.7370   68.2389  225.8450 H   0  0  0  0  0  0  0  0  0  0  0  0
  141.4989   71.2568  228.3263 H   0  0  0  0  0  0  0  0  0  0  0  0
  141.4490   72.8597  226.4340 H   0  0  0  0  0  0  0  0  0  0  0  0
  1  2  2  0
  2  3  1  0
  3  4  1  0
  4  5  1  0
  5  6  2  0
  5  7  1  0
  7  8  1  0
  8  9  1  0
  9 10  1  0
 10 11  1  0
 11 12  1  0
 12 13  1  0
 13 14  2  0
 14 15  1  0
 15 16  2  0
 16 17  1  0
 17 18  2  0
  2 19  1  0
 19 20  2  0
 20 21  1  0
 21 22  2  0
 22 23  1  0
 23 24  2  0
 24 25  1  0
 25 26  1  0
 25 27  1  0
 25 28  1  0
 24 29  1  0
 29 30  2  0
 30 31  1  0
 31 32  2  0
 12  7  1  0
 18 13  1  0
 32 19  1  0
 31 22  1  0
  3 33  1  0
  4 34  1  0
  4 35  1  0
  8 36  1  0
  8 37  1  0
  9 38  1  0
  9 39  1  0
 10 40  1  0
 10 41  1  0
 11 42  1  0
 11 43  1  0
 12 44  1  6
 14 45  1  0
 15 46  1  0
 16 47  1  0
 17 48  1  0
 20 49  1  0
 21 50  1  0
 23 51  1  0
 29 52  1  0
 30 53  1  0
M  END
>  <smiles>  (62) 
O=C(NCC(=O)N1CCCCC1c1ccccn1)c1ccc2cc(C(F)(F)F)ccc2n1

>  <score_type>  (62) 
oracle

>  <origin>  (62) 
autodockgpu

>  <m_score__min__energy>  (62) 
-8.1699999999999999

>  <m_primary>  (62) 
energy

>  <rmsd>  (62) 
4.10412758927084

>  <m_score__min__rmsd>  (62) 
4.10412758927084

>  <meeko>  (62) 
{"free_energy": -7.78, "intermolecular_energy": -9.57, "internal_energy": -1.89, "cluster_size": 7, "cluster_id": 3, "rank_in_cluster": 2}

>  <energy>  (62) 
-7.57

>  <cluster_rmsd>  (62) 
1.84

>  <cluster>  (62) 
1

$$$$

     RDKit          3D

 53 56  0  0  0  0  0  0  0  0999 V2000
  140.5040   72.6250  222.7280 O   0  0  0  0  0  0  0  0  0  0  0  0
  140.2160   73.3930  221.7480 C   0  0  0  0  0  0  0  0  0  0  0  0
  140.2890   72.8950  220.3980 N   0  0  0  0  0  0  0  0  0  0  0  0
  140.6880   71.5340  220.2260 C   0  0  0  0  0  0  0  0  0  0  0  0
  142.0700   71.1880  220.0090 C   0  0  0  0  0  0  0  0  0  0  0  0
  142.3230   69.9110  220.0890 O   0  0  0  0  0  0  0  0  0  0  0  0
  143.2120   71.9820  219.7240 N   0  0  0  0  0  0  0  0  0  0  0  0
  144.1250   71.7160  218.6260 C   0  0  0  0  0  0  0  0  0  0  0  0
  145.5550   71.8040  219.1920 C   0  0  0  0  0  0  0  0  0  0  0  0
  145.7140   73.1820  219.7800 C   0  0  0  0  0  0  0  0  0  0  0  0
  144.8120   73.2200  221.0230 C   0  0  0  0  0  0  0  0  0  0  0  0
  143.3750   73.1690  220.5920 C   0  0  1  0  0  0  0  0  0  0  0  0
  142.9490   74.3870  219.8550 C   0  0  0  0  0  0  0  0  0  0  0  0
  143.5100   75.6290  220.0910 C   0  0  0  0  0  0  0  0  0  0  0  0
  143.1150   76.7680  219.3970 C   0  0  0  0  0  0  0  0  0  0  0  0
  142.1240   76.6020  218.4480 C   0  0  0  0  0  0  0  0  0  0  0  0
  141.6000   75.3420  218.2540 C   0  0  0  0  0  0  0  0  0  0  0  0
  141.9950   74.2530  218.9360 N   0  0  0  0  0  0  0  0  0  0  0  0
  139.8100   74.7780  221.9670 C   0  0  0  0  0  0  0  0  0  0  0  0
  138.4670   75.1000  221.9730 C   0  0  0  0  0  0  0  0  0  0  0  0
  138.1170   76.4390  222.1800 C   0  0  0  0  0  0  0  0  0  0  0  0
  139.1140   77.3700  222.3660 C   0  0  0  0  0  0  0  0  0  0  0  0
  138.8120   78.7100  222.5750 C   0  0  0  0  0  0  0  0  0  0  0  0
  139.8180   79.6540  222.7630 C   0  0  0  0  0  0  0  0  0  0  0  0
  139.4810   81.0890  222.9860 C   0  0  0  0  0  0  0  0  0  0  0  0
  138.8610   81.2160  224.2080 F   0  0  0  0  0  0  0  0  0  0  0  0
  140.6450   81.8470  223.0320 F   0  0  0  0  0  0  0  0  0  0  0  0
  138.6710   81.5230  221.9750 F   0  0  0  0  0  0  0  0  0  0  0  0
  141.1290   79.2700  222.7450 C   0  0  0  0  0  0  0  0  0  0  0  0
  141.4690   77.9540  222.5420 C   0  0  0  0  0  0  0  0  0  0  0  0
  140.4650   77.0310  222.3570 C   0  0  0  0  0  0  0  0  0  0  0  0
  140.7400   75.7320  222.1540 N   0  0  0  0  0  0  0  0  0  0  0  0
  140.0450   73.5630  219.6330 H   0  0  0  0  0  0  0  0  0  0  0  0
  140.3698   70.9978  221.1322 H   0  0  0  0  0  0  0  0  0  0  0  0
  140.2174   71.2627  219.2695 H   0  0  0  0  0  0  0  0  0  0  0  0
  143.9420   70.7107  218.2186 H   0  0  0  0  0  0  0  0  0  0  0  0
  143.9810   72.4431  217.8132 H   0  0  0  0  0  0  0  0  0  0  0  0
  145.6998   71.0419  219.9719 H   0  0  0  0  0  0  0  0  0  0  0  0
  146.3003   71.6264  218.4027 H   0  0  0  0  0  0  0  0  0  0  0  0
  146.7623   73.3578  220.0632 H   0  0  0  0  0  0  0  0  0  0  0  0
  145.4357   73.9627  219.0568 H   0  0  0  0  0  0  0  0  0  0  0  0
  145.0343   72.3552  221.6654 H   0  0  0  0  0  0  0  0  0  0  0  0
  144.9965   74.1473  221.5852 H   0  0  0  0  0  0  0  0  0  0  0  0
  142.7424   73.1110  221.4900 H   0  0  0  0  0  0  0  0  0  0  0  0
  144.2965   75.7193  220.8547 H   0  0  0  0  0  0  0  0  0  0  0  0
  143.5683   77.7508  219.5935 H   0  0  0  0  0  0  0  0  0  0  0  0
  141.7610   77.4577  217.8597 H   0  0  0  0  0  0  0  0  0  0  0  0
  140.8120   75.2204  217.4962 H   0  0  0  0  0  0  0  0  0  0  0  0
  137.6975   74.3290  221.8201 H   0  0  0  0  0  0  0  0  0  0  0  0
  137.0601   76.7434  222.1939 H   0  0  0  0  0  0  0  0  0  0  0  0
  137.7599   79.0306  222.5922 H   0  0  0  0  0  0  0  0  0  0  0  0
  141.9192   80.0206  222.8942 H   0  0  0  0  0  0  0  0  0  0  0  0
  142.5243   77.6440  222.5277 H   0  0  0  0  0  0  0  0  0  0  0  0
  1  2  2  0
  2  3  1  0
  3  4  1  0
  4  5  1  0
  5  6  2  0
  5  7  1  0
  7  8  1  0
  8  9  1  0
  9 10  1  0
 10 11  1  0
 11 12  1  0
 12 13  1  0
 13 14  2  0
 14 15  1  0
 15 16  2  0
 16 17  1  0
 17 18  2  0
  2 19  1  0
 19 20  2  0
 20 21  1  0
 21 22  2  0
 22 23  1  0
 23 24  2  0
 24 25  1  0
 25 26  1  0
 25 27  1  0
 25 28  1  0
 24 29  1  0
 29 30  2  0
 30 31  1  0
 31 32  2  0
 12  7  1  0
 18 13  1  0
 32 19  1  0
 31 22  1  0
  3 33  1  0
  4 34  1  0
  4 35  1  0
  8 36  1  0
  8 37  1  0
  9 38  1  0
  9 39  1  0
 10 40  1  0
 10 41  1  0
 11 42  1  0
 11 43  1  0
 12 44  1  1
 14 45  1  0
 15 46  1  0
 16 47  1  0
 17 48  1  0
 20 49  1  0
 21 50  1  0
 23 51  1  0
 29 52  1  0
 30 53  1  0
M  END
>  <smiles>  (63) 
O=C(NCC(=O)N1CCCCC1c1ccccn1)c1ccc2cc(C(F)(F)F)ccc2n1

>  <score_type>  (63) 
oracle

>  <origin>  (63) 
autodockgpu

>  <m_score__min__energy>  (63) 
-8.1699999999999999

>  <m_primary>  (63) 
energy

>  <rmsd>  (63) 
6.706035706781144

>  <m_score__min__rmsd>  (63) 
6.706035706781144

>  <meeko>  (63) 
{"free_energy": -5.82, "intermolecular_energy": -7.61, "internal_energy": -3.2, "cluster_size": 1, "cluster_id": 7, "rank_in_cluster": 1}

>  <energy>  (63) 
-7.54

>  <cluster_rmsd>  (63) 
1.84

>  <cluster>  (63) 
1

$$$$

     RDKit          3D

 53 56  0  0  0  0  0  0  0  0999 V2000
  139.7700   73.0920  220.2740 O   0  0  0  0  0  0  0  0  0  0  0  0
  139.7020   73.2800  221.5360 C   0  0  0  0  0  0  0  0  0  0  0  0
  139.6580   74.6200  222.0620 N   0  0  0  0  0  0  0  0  0  0  0  0
  139.6930   75.6920  221.1190 C   0  0  0  0  0  0  0  0  0  0  0  0
  140.9210   76.3910  220.8370 C   0  0  0  0  0  0  0  0  0  0  0  0
  141.1570   77.4020  221.6280 O   0  0  0  0  0  0  0  0  0  0  0  0
  141.9270   76.1850  219.8560 N   0  0  0  0  0  0  0  0  0  0  0  0
  142.8550   77.2140  219.4240 C   0  0  0  0  0  0  0  0  0  0  0  0
  142.8810   77.1870  217.8840 C   0  0  0  0  0  0  0  0  0  0  0  0
  143.2950   75.7980  217.4730 C   0  0  0  0  0  0  0  0  0  0  0  0
  142.1240   74.8770  217.8480 C   0  0  0  0  0  0  0  0  0  0  0  0
  142.0170   74.7990  219.3430 C   0  0  1  0  0  0  0  0  0  0  0  0
  143.1750   74.1120  219.9720 C   0  0  0  0  0  0  0  0  0  0  0  0
  144.3670   74.7630  220.2350 C   0  0  0  0  0  0  0  0  0  0  0  0
  145.4500   74.1210  220.8280 C   0  0  0  0  0  0  0  0  0  0  0  0
  145.2790   72.7870  221.1470 C   0  0  0  0  0  0  0  0  0  0  0  0
  144.0710   72.1890  220.8620 C   0  0  0  0  0  0  0  0  0  0  0  0
  143.0360   72.8270  220.2880 N   0  0  0  0  0  0  0  0  0  0  0  0
  139.6650   72.1560  222.4680 C   0  0  0  0  0  0  0  0  0  0  0  0
  139.0000   70.9990  222.1120 C   0  0  0  0  0  0  0  0  0  0  0  0
  138.9820   69.9460  223.0330 C   0  0  0  0  0  0  0  0  0  0  0  0
  139.6200   70.1050  224.2430 C   0  0  0  0  0  0  0  0  0  0  0  0
  139.6280   69.0850  225.1870 C   0  0  0  0  0  0  0  0  0  0  0  0
  140.2720   69.2430  226.4110 C   0  0  0  0  0  0  0  0  0  0  0  0
  140.2730   68.1420  227.4160 C   0  0  0  0  0  0  0  0  0  0  0  0
  139.6610   67.0370  226.8670 F   0  0  0  0  0  0  0  0  0  0  0  0
  141.5790   67.7800  227.7220 F   0  0  0  0  0  0  0  0  0  0  0  0
  139.6190   68.5590  228.5400 F   0  0  0  0  0  0  0  0  0  0  0  0
  140.9130   70.4130  226.7020 C   0  0  0  0  0  0  0  0  0  0  0  0
  140.9290   71.4450  225.7940 C   0  0  0  0  0  0  0  0  0  0  0  0
  140.2890   71.2770  224.5880 C   0  0  0  0  0  0  0  0  0  0  0  0
  140.2720   72.2530  223.6650 N   0  0  0  0  0  0  0  0  0  0  0  0
  139.6030   74.7190  223.1010 H   0  0  0  0  0  0  0  0  0  0  0  0
  139.3412   75.2788  220.1622 H   0  0  0  0  0  0  0  0  0  0  0  0
  139.0809   76.4646  221.6073 H   0  0  0  0  0  0  0  0  0  0  0  0
  142.5168   78.1991  219.7779 H   0  0  0  0  0  0  0  0  0  0  0  0
  143.8590   77.0315  219.8346 H   0  0  0  0  0  0  0  0  0  0  0  0
  141.8817   77.4164  217.4855 H   0  0  0  0  0  0  0  0  0  0  0  0
  143.5825   77.9374  217.4907 H   0  0  0  0  0  0  0  0  0  0  0  0
  143.4794   75.7594  216.3893 H   0  0  0  0  0  0  0  0  0  0  0  0
  144.2249   75.4906  217.9739 H   0  0  0  0  0  0  0  0  0  0  0  0
  141.1895   75.2824  217.4329 H   0  0  0  0  0  0  0  0  0  0  0  0
  142.2981   73.8717  217.4369 H   0  0  0  0  0  0  0  0  0  0  0  0
  141.1264   74.2060  219.5983 H   0  0  0  0  0  0  0  0  0  0  0  0
  144.4621   75.8253  219.9660 H   0  0  0  0  0  0  0  0  0  0  0  0
  146.3936   74.6481  221.0324 H   0  0  0  0  0  0  0  0  0  0  0  0
  146.0911   72.2144  221.6189 H   0  0  0  0  0  0  0  0  0  0  0  0
  143.9459   71.1269  221.1193 H   0  0  0  0  0  0  0  0  0  0  0  0
  138.5007   70.9084  221.1360 H   0  0  0  0  0  0  0  0  0  0  0  0
  138.4656   69.0046  222.7940 H   0  0  0  0  0  0  0  0  0  0  0  0
  139.1169   68.1370  224.9632 H   0  0  0  0  0  0  0  0  0  0  0  0
  141.4206   70.5307  227.6707 H   0  0  0  0  0  0  0  0  0  0  0  0
  141.4444   72.3883  226.0277 H   0  0  0  0  0  0  0  0  0  0  0  0
  1  2  2  0
  2  3  1  0
  3  4  1  0
  4  5  1  0
  5  6  2  0
  5  7  1  0
  7  8  1  0
  8  9  1  0
  9 10  1  0
 10 11  1  0
 11 12  1  0
 12 13  1  0
 13 14  2  0
 14 15  1  0
 15 16  2  0
 16 17  1  0
 17 18  2  0
  2 19  1  0
 19 20  2  0
 20 21  1  0
 21 22  2  0
 22 23  1  0
 23 24  2  0
 24 25  1  0
 25 26  1  0
 25 27  1  0
 25 28  1  0
 24 29  1  0
 29 30  2  0
 30 31  1  0
 31 32  2  0
 12  7  1  0
 18 13  1  0
 32 19  1  0
 31 22  1  0
  3 33  1  0
  4 34  1  0
  4 35  1  0
  8 36  1  0
  8 37  1  0
  9 38  1  0
  9 39  1  0
 10 40  1  0
 10 41  1  0
 11 42  1  0
 11 43  1  0
 12 44  1  6
 14 45  1  0
 15 46  1  0
 16 47  1  0
 17 48  1  0
 20 49  1  0
 21 50  1  0
 23 51  1  0
 29 52  1  0
 30 53  1  0
M  END
>  <smiles>  (64) 
O=C(NCC(=O)N1CCCCC1c1ccccn1)c1ccc2cc(C(F)(F)F)ccc2n1

>  <score_type>  (64) 
oracle

>  <origin>  (64) 
autodockgpu

>  <m_score__min__energy>  (64) 
-8.1699999999999999

>  <m_primary>  (64) 
energy

>  <rmsd>  (64) 
4.183106306128732

>  <m_score__min__rmsd>  (64) 
4.183106306128732

>  <meeko>  (64) 
{"free_energy": -7.57, "intermolecular_energy": -9.36, "internal_energy": -1.98, "cluster_size": 7, "cluster_id": 3, "rank_in_cluster": 5}

>  <energy>  (64) 
-7.46

>  <cluster_rmsd>  (64) 
1.8

>  <cluster>  (64) 
1

$$$$

     RDKit          3D

 53 56  0  0  0  0  0  0  0  0999 V2000
  140.1640   72.5320  220.5840 O   0  0  0  0  0  0  0  0  0  0  0  0
  139.9370   72.8690  221.7950 C   0  0  0  0  0  0  0  0  0  0  0  0
  139.6200   74.2390  222.1130 N   0  0  0  0  0  0  0  0  0  0  0  0
  139.5760   75.1660  221.0280 C   0  0  0  0  0  0  0  0  0  0  0  0
  140.6350   76.1210  220.8250 C   0  0  0  0  0  0  0  0  0  0  0  0
  140.5780   77.1620  221.6100 O   0  0  0  0  0  0  0  0  0  0  0  0
  141.7360   76.1420  219.9280 N   0  0  0  0  0  0  0  0  0  0  0  0
  142.5730   77.3050  219.7040 C   0  0  0  0  0  0  0  0  0  0  0  0
  142.7290   77.4700  218.1800 C   0  0  0  0  0  0  0  0  0  0  0  0
  143.3320   76.1910  217.6580 C   0  0  0  0  0  0  0  0  0  0  0  0
  142.2470   75.1150  217.8140 C   0  0  0  0  0  0  0  0  0  0  0  0
  142.0260   74.8450  219.2740 C   0  0  1  0  0  0  0  0  0  0  0  0
  143.1990   74.2100  219.9290 C   0  0  0  0  0  0  0  0  0  0  0  0
  143.2590   72.8510  220.1810 C   0  0  0  0  0  0  0  0  0  0  0  0
  144.3600   72.2550  220.7890 C   0  0  0  0  0  0  0  0  0  0  0  0
  145.4030   73.0920  221.1360 C   0  0  0  0  0  0  0  0  0  0  0  0
  145.2900   74.4380  220.8620 C   0  0  0  0  0  0  0  0  0  0  0  0
  144.2170   74.9950  220.2730 N   0  0  0  0  0  0  0  0  0  0  0  0
  139.9900   71.8890  222.8760 C   0  0  0  0  0  0  0  0  0  0  0  0
  139.5310   70.6060  222.6540 C   0  0  0  0  0  0  0  0  0  0  0  0
  139.5930   69.6960  223.7150 C   0  0  0  0  0  0  0  0  0  0  0  0
  140.1010   70.1140  224.9240 C   0  0  0  0  0  0  0  0  0  0  0  0
  140.1820   69.2450  226.0050 C   0  0  0  0  0  0  0  0  0  0  0  0
  140.6950   69.6640  227.2300 C   0  0  0  0  0  0  0  0  0  0  0  0
  140.7760   68.7220  228.3820 C   0  0  0  0  0  0  0  0  0  0  0  0
  139.5920   68.7740  229.0840 F   0  0  0  0  0  0  0  0  0  0  0  0
  140.9250   67.4200  227.9210 F   0  0  0  0  0  0  0  0  0  0  0  0
  141.8340   69.0690  229.1740 F   0  0  0  0  0  0  0  0  0  0  0  0
  141.1330   70.9480  227.3850 C   0  0  0  0  0  0  0  0  0  0  0  0
  141.0720   71.8390  226.3400 C   0  0  0  0  0  0  0  0  0  0  0  0
  140.5620   71.4120  225.1350 C   0  0  0  0  0  0  0  0  0  0  0  0
  140.4770   72.2400  224.0800 N   0  0  0  0  0  0  0  0  0  0  0  0
  139.4440   74.4620  223.1180 H   0  0  0  0  0  0  0  0  0  0  0  0
  139.5141   74.5672  220.1073 H   0  0  0  0  0  0  0  0  0  0  0  0
  138.7205   75.8056  221.2907 H   0  0  0  0  0  0  0  0  0  0  0  0
  142.0974   78.1994  220.1328 H   0  0  0  0  0  0  0  0  0  0  0  0
  143.5542   77.1772  220.1845 H   0  0  0  0  0  0  0  0  0  0  0  0
  141.7465   77.6414  217.7160 H   0  0  0  0  0  0  0  0  0  0  0  0
  143.3696   78.3320  217.9419 H   0  0  0  0  0  0  0  0  0  0  0  0
  143.6089   76.3035  216.5994 H   0  0  0  0  0  0  0  0  0  0  0  0
  144.2461   75.9233  218.2083 H   0  0  0  0  0  0  0  0  0  0  0  0
  141.3099   75.4688  217.3593 H   0  0  0  0  0  0  0  0  0  0  0  0
  142.5683   74.1906  217.3117 H   0  0  0  0  0  0  0  0  0  0  0  0
  141.1906   74.1366  219.3758 H   0  0  0  0  0  0  0  0  0  0  0  0
  142.4066   72.2193  219.8906 H   0  0  0  0  0  0  0  0  0  0  0  0
  144.3978   71.1730  220.9833 H   0  0  0  0  0  0  0  0  0  0  0  0
  146.3056   72.6921  221.6213 H   0  0  0  0  0  0  0  0  0  0  0  0
  146.1266   75.0953  221.1415 H   0  0  0  0  0  0  0  0  0  0  0  0
  139.1293   70.3086  221.6741 H   0  0  0  0  0  0  0  0  0  0  0  0
  139.2410   68.6620  223.5849 H   0  0  0  0  0  0  0  0  0  0  0  0
  139.8347   68.2075  225.8912 H   0  0  0  0  0  0  0  0  0  0  0  0
  141.5383   71.2723  228.3548 H   0  0  0  0  0  0  0  0  0  0  0  0
  141.4241   72.8737  226.4644 H   0  0  0  0  0  0  0  0  0  0  0  0
  1  2  2  0
  2  3  1  0
  3  4  1  0
  4  5  1  0
  5  6  2  0
  5  7  1  0
  7  8  1  0
  8  9  1  0
  9 10  1  0
 10 11  1  0
 11 12  1  0
 12 13  1  0
 13 14  2  0
 14 15  1  0
 15 16  2  0
 16 17  1  0
 17 18  2  0
  2 19  1  0
 19 20  2  0
 20 21  1  0
 21 22  2  0
 22 23  1  0
 23 24  2  0
 24 25  1  0
 25 26  1  0
 25 27  1  0
 25 28  1  0
 24 29  1  0
 29 30  2  0
 30 31  1  0
 31 32  2  0
 12  7  1  0
 18 13  1  0
 32 19  1  0
 31 22  1  0
  3 33  1  0
  4 34  1  0
  4 35  1  0
  8 36  1  0
  8 37  1  0
  9 38  1  0
  9 39  1  0
 10 40  1  0
 10 41  1  0
 11 42  1  0
 11 43  1  0
 12 44  1  6
 14 45  1  0
 15 46  1  0
 16 47  1  0
 17 48  1  0
 20 49  1  0
 21 50  1  0
 23 51  1  0
 29 52  1  0
 30 53  1  0
M  END
>  <smiles>  (65) 
O=C(NCC(=O)N1CCCCC1c1ccccn1)c1ccc2cc(C(F)(F)F)ccc2n1

>  <score_type>  (65) 
oracle

>  <origin>  (65) 
autodockgpu

>  <m_score__min__energy>  (65) 
-8.1699999999999999

>  <m_primary>  (65) 
energy

>  <rmsd>  (65) 
4.269375463182012

>  <m_score__min__rmsd>  (65) 
4.269375463182012

>  <meeko>  (65) 
{"free_energy": -7.63, "intermolecular_energy": -9.42, "internal_energy": -2.06, "cluster_size": 7, "cluster_id": 3, "rank_in_cluster": 4}

>  <energy>  (65) 
-7.44

>  <cluster_rmsd>  (65) 
1.79

>  <cluster>  (65) 
1

$$$$

     RDKit          3D

 53 56  0  0  0  0  0  0  0  0999 V2000
  140.0940   72.7140  220.4860 O   0  0  0  0  0  0  0  0  0  0  0  0
  139.9160   72.9980  221.7200 C   0  0  0  0  0  0  0  0  0  0  0  0
  139.6530   74.3590  222.1130 N   0  0  0  0  0  0  0  0  0  0  0  0
  139.6020   75.3390  221.0750 C   0  0  0  0  0  0  0  0  0  0  0  0
  140.7190   76.2140  220.8260 C   0  0  0  0  0  0  0  0  0  0  0  0
  141.8270   75.5960  220.5210 O   0  0  0  0  0  0  0  0  0  0  0  0
  140.8410   77.6290  220.8500 N   0  0  0  0  0  0  0  0  0  0  0  0
  140.6670   78.4730  219.6830 C   0  0  0  0  0  0  0  0  0  0  0  0
  141.8480   79.4630  219.6570 C   0  0  0  0  0  0  0  0  0  0  0  0
  141.8140   80.2250  220.9560 C   0  0  0  0  0  0  0  0  0  0  0  0
  142.1900   79.2160  222.0510 C   0  0  0  0  0  0  0  0  0  0  0  0
  141.0880   78.2060  222.1910 C   0  0  1  0  0  0  0  0  0  0  0  0
  139.8290   78.7930  222.7190 C   0  0  0  0  0  0  0  0  0  0  0  0
  139.8200   79.7370  223.7310 C   0  0  0  0  0  0  0  0  0  0  0  0
  138.6420   80.2900  224.2220 C   0  0  0  0  0  0  0  0  0  0  0  0
  137.4650   79.8490  223.6470 C   0  0  0  0  0  0  0  0  0  0  0  0
  137.5320   78.9070  222.6430 C   0  0  0  0  0  0  0  0  0  0  0  0
  138.6810   78.3850  222.1820 N   0  0  0  0  0  0  0  0  0  0  0  0
  139.9740   71.9660  222.7500 C   0  0  0  0  0  0  0  0  0  0  0  0
  139.5210   70.6930  222.4640 C   0  0  0  0  0  0  0  0  0  0  0  0
  139.5880   69.7320  223.4780 C   0  0  0  0  0  0  0  0  0  0  0  0
  140.0940   70.0910  224.7070 C   0  0  0  0  0  0  0  0  0  0  0  0
  140.1790   69.1690  225.7430 C   0  0  0  0  0  0  0  0  0  0  0  0
  140.6910   69.5290  226.9870 C   0  0  0  0  0  0  0  0  0  0  0  0
  140.7760   68.5300  228.0900 C   0  0  0  0  0  0  0  0  0  0  0  0
  141.0850   67.2990  227.5560 F   0  0  0  0  0  0  0  0  0  0  0  0
  141.8040   68.8720  228.9600 F   0  0  0  0  0  0  0  0  0  0  0  0
  139.5830   68.4930  228.7560 F   0  0  0  0  0  0  0  0  0  0  0  0
  141.1220   70.8060  227.2060 C   0  0  0  0  0  0  0  0  0  0  0  0
  141.0560   71.7470  226.2070 C   0  0  0  0  0  0  0  0  0  0  0  0
  140.5480   71.3790  224.9820 C   0  0  0  0  0  0  0  0  0  0  0  0
  140.4600   72.2580  223.9700 N   0  0  0  0  0  0  0  0  0  0  0  0
  139.5160   74.5390  223.1330 H   0  0  0  0  0  0  0  0  0  0  0  0
  139.4173   74.7930  220.1381 H   0  0  0  0  0  0  0  0  0  0  0  0
  138.8268   76.0320  221.4340 H   0  0  0  0  0  0  0  0  0  0  0  0
  140.6694   77.8592  218.7702 H   0  0  0  0  0  0  0  0  0  0  0  0
  139.7080   79.0099  219.7286 H   0  0  0  0  0  0  0  0  0  0  0  0
  142.7977   78.9155  219.5651 H   0  0  0  0  0  0  0  0  0  0  0  0
  141.7677   80.1468  218.7991 H   0  0  0  0  0  0  0  0  0  0  0  0
  142.5395   81.0515  220.9330 H   0  0  0  0  0  0  0  0  0  0  0  0
  140.8225   80.6651  221.1381 H   0  0  0  0  0  0  0  0  0  0  0  0
  143.1244   78.7052  221.7754 H   0  0  0  0  0  0  0  0  0  0  0  0
  142.3320   79.7429  223.0061 H   0  0  0  0  0  0  0  0  0  0  0  0
  141.4036   77.4418  222.9165 H   0  0  0  0  0  0  0  0  0  0  0  0
  140.7785   80.0615  224.1623 H   0  0  0  0  0  0  0  0  0  0  0  0
  138.6468   81.0399  225.0267 H   0  0  0  0  0  0  0  0  0  0  0  0
  136.4943   80.2419  223.9839 H   0  0  0  0  0  0  0  0  0  0  0  0
  136.5894   78.5624  222.1927 H   0  0  0  0  0  0  0  0  0  0  0  0
  139.1203   70.4429  221.4706 H   0  0  0  0  0  0  0  0  0  0  0  0
  139.2413   68.7040  223.2961 H   0  0  0  0  0  0  0  0  0  0  0  0
  139.8360   68.1370  225.5777 H   0  0  0  0  0  0  0  0  0  0  0  0
  141.5256   71.0838  228.1908 H   0  0  0  0  0  0  0  0  0  0  0  0
  141.4029   72.7759  226.3831 H   0  0  0  0  0  0  0  0  0  0  0  0
  1  2  2  0
  2  3  1  0
  3  4  1  0
  4  5  1  0
  5  6  2  0
  5  7  1  0
  7  8  1  0
  8  9  1  0
  9 10  1  0
 10 11  1  0
 11 12  1  0
 12 13  1  0
 13 14  2  0
 14 15  1  0
 15 16  2  0
 16 17  1  0
 17 18  2  0
  2 19  1  0
 19 20  2  0
 20 21  1  0
 21 22  2  0
 22 23  1  0
 23 24  2  0
 24 25  1  0
 25 26  1  0
 25 27  1  0
 25 28  1  0
 24 29  1  0
 29 30  2  0
 30 31  1  0
 31 32  2  0
 12  7  1  0
 18 13  1  0
 32 19  1  0
 31 22  1  0
  3 33  1  0
  4 34  1  0
  4 35  1  0
  8 36  1  0
  8 37  1  0
  9 38  1  0
  9 39  1  0
 10 40  1  0
 10 41  1  0
 11 42  1  0
 11 43  1  0
 12 44  1  1
 14 45  1  0
 15 46  1  0
 16 47  1  0
 17 48  1  0
 20 49  1  0
 21 50  1  0
 23 51  1  0
 29 52  1  0
 30 53  1  0
M  END
>  <smiles>  (66) 
O=C(NCC(=O)N1CCCCC1c1ccccn1)c1ccc2cc(C(F)(F)F)ccc2n1

>  <score_type>  (66) 
oracle

>  <origin>  (66) 
autodockgpu

>  <m_score__min__energy>  (66) 
-8.1699999999999999

>  <m_primary>  (66) 
energy

>  <rmsd>  (66) 
3.2014630603557115

>  <m_score__min__rmsd>  (66) 
3.2014630603557115

>  <meeko>  (66) 
{"free_energy": -7.74, "intermolecular_energy": -9.53, "internal_energy": -1.73, "cluster_size": 22, "cluster_id": 1, "rank_in_cluster": 9}

>  <energy>  (66) 
-7.44

>  <cluster_rmsd>  (66) 
1.79

>  <cluster>  (66) 
1

$$$$

     RDKit          3D

 53 56  0  0  0  0  0  0  0  0999 V2000
  139.1120   73.2790  220.5320 O   0  0  0  0  0  0  0  0  0  0  0  0
  139.9460   73.1720  221.4950 C   0  0  0  0  0  0  0  0  0  0  0  0
  141.1210   74.0060  221.5250 N   0  0  0  0  0  0  0  0  0  0  0  0
  141.2910   74.9310  220.4500 C   0  0  0  0  0  0  0  0  0  0  0  0
  140.4770   76.1160  220.3560 C   0  0  0  0  0  0  0  0  0  0  0  0
  140.3840   76.6090  219.1520 O   0  0  0  0  0  0  0  0  0  0  0  0
  139.7520   76.8490  221.3320 N   0  0  0  0  0  0  0  0  0  0  0  0
  139.1370   76.2470  222.5010 C   0  0  0  0  0  0  0  0  0  0  0  0
  137.7040   76.8040  222.5990 C   0  0  0  0  0  0  0  0  0  0  0  0
  137.8180   78.3040  222.6900 C   0  0  0  0  0  0  0  0  0  0  0  0
  138.3150   78.7770  221.3160 C   0  0  0  0  0  0  0  0  0  0  0  0
  139.7290   78.3130  221.1160 C   0  0  1  0  0  0  0  0  0  0  0  0
  140.6890   78.9680  222.0420 C   0  0  0  0  0  0  0  0  0  0  0  0
  141.2360   80.2120  221.7830 C   0  0  0  0  0  0  0  0  0  0  0  0
  142.1310   80.8270  222.6520 C   0  0  0  0  0  0  0  0  0  0  0  0
  142.4530   80.1320  223.8030 C   0  0  0  0  0  0  0  0  0  0  0  0
  141.8780   78.8970  224.0110 C   0  0  0  0  0  0  0  0  0  0  0  0
  141.0160   78.3190  223.1570 N   0  0  0  0  0  0  0  0  0  0  0  0
  139.7340   72.2150  222.5770 C   0  0  0  0  0  0  0  0  0  0  0  0
  138.7260   71.2770  222.4670 C   0  0  0  0  0  0  0  0  0  0  0  0
  138.5490   70.3810  223.5260 C   0  0  0  0  0  0  0  0  0  0  0  0
  139.3770   70.4700  224.6230 C   0  0  0  0  0  0  0  0  0  0  0  0
  139.2370   69.6000  225.6970 C   0  0  0  0  0  0  0  0  0  0  0  0
  140.0730   69.6880  226.8080 C   0  0  0  0  0  0  0  0  0  0  0  0
  139.9130   68.7490  227.9540 C   0  0  0  0  0  0  0  0  0  0  0  0
  139.2630   67.6160  227.5160 F   0  0  0  0  0  0  0  0  0  0  0  0
  141.1600   68.3540  228.4220 F   0  0  0  0  0  0  0  0  0  0  0  0
  139.2070   69.3680  228.9470 F   0  0  0  0  0  0  0  0  0  0  0  0
  141.0520   70.6390  226.8550 C   0  0  0  0  0  0  0  0  0  0  0  0
  141.2230   71.5170  225.8120 C   0  0  0  0  0  0  0  0  0  0  0  0
  140.3900   71.4200  224.7200 C   0  0  0  0  0  0  0  0  0  0  0  0
  140.5120   72.2530  223.6730 N   0  0  0  0  0  0  0  0  0  0  0  0
  141.7710   73.8780  222.3330 H   0  0  0  0  0  0  0  0  0  0  0  0
  142.3360   75.2718  220.4928 H   0  0  0  0  0  0  0  0  0  0  0  0
  140.9705   74.3468  219.5748 H   0  0  0  0  0  0  0  0  0  0  0  0
  139.1094   75.1528  222.3912 H   0  0  0  0  0  0  0  0  0  0  0  0
  139.7108   76.4828  223.4094 H   0  0  0  0  0  0  0  0  0  0  0  0
  137.1277   76.5227  221.7053 H   0  0  0  0  0  0  0  0  0  0  0  0
  137.1843   76.3963  223.4786 H   0  0  0  0  0  0  0  0  0  0  0  0
  136.8373   78.7485  222.9151 H   0  0  0  0  0  0  0  0  0  0  0  0
  138.5064   78.6069  223.4927 H   0  0  0  0  0  0  0  0  0  0  0  0
  137.6743   78.3550  220.5277 H   0  0  0  0  0  0  0  0  0  0  0  0
  138.2759   79.8752  221.2668 H   0  0  0  0  0  0  0  0  0  0  0  0
  140.0451   78.5832  220.0976 H   0  0  0  0  0  0  0  0  0  0  0  0
  140.9530   80.7334  220.8567 H   0  0  0  0  0  0  0  0  0  0  0  0
  142.5608   81.8160  222.4346 H   0  0  0  0  0  0  0  0  0  0  0  0
  143.1536   80.5560  224.5374 H   0  0  0  0  0  0  0  0  0  0  0  0
  142.1399   78.3522  224.9300 H   0  0  0  0  0  0  0  0  0  0  0  0
  138.0833   71.2361  221.5752 H   0  0  0  0  0  0  0  0  0  0  0  0
  137.7597   69.6160  223.4835 H   0  0  0  0  0  0  0  0  0  0  0  0
  138.4531   68.8288  225.6698 H   0  0  0  0  0  0  0  0  0  0  0  0
  141.7090   70.7026  227.7350 H   0  0  0  0  0  0  0  0  0  0  0  0
  142.0111   72.2835  225.8488 H   0  0  0  0  0  0  0  0  0  0  0  0
  1  2  2  0
  2  3  1  0
  3  4  1  0
  4  5  1  0
  5  6  2  0
  5  7  1  0
  7  8  1  0
  8  9  1  0
  9 10  1  0
 10 11  1  0
 11 12  1  0
 12 13  1  0
 13 14  2  0
 14 15  1  0
 15 16  2  0
 16 17  1  0
 17 18  2  0
  2 19  1  0
 19 20  2  0
 20 21  1  0
 21 22  2  0
 22 23  1  0
 23 24  2  0
 24 25  1  0
 25 26  1  0
 25 27  1  0
 25 28  1  0
 24 29  1  0
 29 30  2  0
 30 31  1  0
 31 32  2  0
 12  7  1  0
 18 13  1  0
 32 19  1  0
 31 22  1  0
  3 33  1  0
  4 34  1  0
  4 35  1  0
  8 36  1  0
  8 37  1  0
  9 38  1  0
  9 39  1  0
 10 40  1  0
 10 41  1  0
 11 42  1  0
 11 43  1  0
 12 44  1  6
 14 45  1  0
 15 46  1  0
 16 47  1  0
 17 48  1  0
 20 49  1  0
 21 50  1  0
 23 51  1  0
 29 52  1  0
 30 53  1  0
M  END
>  <smiles>  (67) 
O=C(NCC(=O)N1CCCCC1c1ccccn1)c1ccc2cc(C(F)(F)F)ccc2n1

>  <score_type>  (67) 
oracle

>  <origin>  (67) 
autodockgpu

>  <m_score__min__energy>  (67) 
-8.1699999999999999

>  <m_primary>  (67) 
energy

>  <rmsd>  (67) 
3.1565628734393654

>  <m_score__min__rmsd>  (67) 
3.1565628734393654

>  <meeko>  (67) 
{"free_energy": -7.3, "intermolecular_energy": -9.09, "internal_energy": -2.01, "cluster_size": 22, "cluster_id": 1, "rank_in_cluster": 19}

>  <energy>  (67) 
-7.42

>  <cluster_rmsd>  (67) 
1.79

>  <cluster>  (67) 
1

$$$$

     RDKit          3D

 53 56  0  0  0  0  0  0  0  0999 V2000
  139.8620   74.0390  221.9750 O   0  0  0  0  0  0  0  0  0  0  0  0
  140.9080   74.6680  221.5950 C   0  0  0  0  0  0  0  0  0  0  0  0
  141.0230   76.0830  221.8370 N   0  0  0  0  0  0  0  0  0  0  0  0
  139.9350   76.7210  222.5070 C   0  0  0  0  0  0  0  0  0  0  0  0
  139.9320   78.1450  222.7260 C   0  0  0  0  0  0  0  0  0  0  0  0
  138.8730   78.5910  223.3430 O   0  0  0  0  0  0  0  0  0  0  0  0
  140.8710   79.1580  222.3940 N   0  0  0  0  0  0  0  0  0  0  0  0
  142.1010   79.3890  223.1280 C   0  0  0  0  0  0  0  0  0  0  0  0
  142.2000   80.9050  223.3860 C   0  0  0  0  0  0  0  0  0  0  0  0
  142.1700   81.5840  222.0410 C   0  0  0  0  0  0  0  0  0  0  0  0
  140.7480   81.3850  221.4960 C   0  0  0  0  0  0  0  0  0  0  0  0
  140.5410   79.9330  221.1760 C   0  0  1  0  0  0  0  0  0  0  0  0
  141.3830   79.4630  220.0460 C   0  0  0  0  0  0  0  0  0  0  0  0
  141.7680   80.3000  219.0130 C   0  0  0  0  0  0  0  0  0  0  0  0
  142.5610   79.8620  217.9570 C   0  0  0  0  0  0  0  0  0  0  0  0
  142.9530   78.5370  217.9850 C   0  0  0  0  0  0  0  0  0  0  0  0
  142.5400   77.7490  219.0380 C   0  0  0  0  0  0  0  0  0  0  0  0
  141.7740   78.1910  220.0490 N   0  0  0  0  0  0  0  0  0  0  0  0
  142.0000   73.9770  220.9140 C   0  0  0  0  0  0  0  0  0  0  0  0
  143.0740   74.7050  220.4410 C   0  0  0  0  0  0  0  0  0  0  0  0
  144.0980   74.0090  219.7890 C   0  0  0  0  0  0  0  0  0  0  0  0
  143.9940   72.6440  219.6480 C   0  0  0  0  0  0  0  0  0  0  0  0
  144.9880   71.9130  219.0080 C   0  0  0  0  0  0  0  0  0  0  0  0
  144.8850   70.5320  218.8630 C   0  0  0  0  0  0  0  0  0  0  0  0
  145.9580   69.7590  218.1740 C   0  0  0  0  0  0  0  0  0  0  0  0
  146.3530   70.4490  217.0500 F   0  0  0  0  0  0  0  0  0  0  0  0
  147.0680   69.6490  219.0020 F   0  0  0  0  0  0  0  0  0  0  0  0
  145.4810   68.5200  217.8500 F   0  0  0  0  0  0  0  0  0  0  0  0
  143.7960   69.8710  219.3540 C   0  0  0  0  0  0  0  0  0  0  0  0
  142.7920   70.5570  219.9940 C   0  0  0  0  0  0  0  0  0  0  0  0
  142.9050   71.9220  220.1310 C   0  0  0  0  0  0  0  0  0  0  0  0
  141.9530   72.6430  220.7470 N   0  0  0  0  0  0  0  0  0  0  0  0
  141.8970   76.5500  221.5050 H   0  0  0  0  0  0  0  0  0  0  0  0
  139.0309   76.4922  221.9237 H   0  0  0  0  0  0  0  0  0  0  0  0
  140.0100   76.3189  223.5281 H   0  0  0  0  0  0  0  0  0  0  0  0
  142.0774   78.8448  224.0837 H   0  0  0  0  0  0  0  0  0  0  0  0
  142.9701   79.0328  222.5554 H   0  0  0  0  0  0  0  0  0  0  0  0
  141.3494   81.2404  223.9975 H   0  0  0  0  0  0  0  0  0  0  0  0
  143.1243   81.1511  223.9293 H   0  0  0  0  0  0  0  0  0  0  0  0
  142.3909   82.6561  222.1494 H   0  0  0  0  0  0  0  0  0  0  0  0
  142.9242   81.1620  221.3605 H   0  0  0  0  0  0  0  0  0  0  0  0
  140.0160   81.7029  222.2530 H   0  0  0  0  0  0  0  0  0  0  0  0
  140.6135   81.9871  220.5853 H   0  0  0  0  0  0  0  0  0  0  0  0
  139.4954   79.7893  220.8660 H   0  0  0  0  0  0  0  0  0  0  0  0
  141.4353   81.3484  219.0275 H   0  0  0  0  0  0  0  0  0  0  0  0
  142.8608   80.5362  217.1411 H   0  0  0  0  0  0  0  0  0  0  0  0
  143.5812   78.1201  217.1841 H   0  0  0  0  0  0  0  0  0  0  0  0
  142.8565   76.6956  219.0511 H   0  0  0  0  0  0  0  0  0  0  0  0
  143.1229   75.7960  220.5724 H   0  0  0  0  0  0  0  0  0  0  0  0
  144.9737   74.5454  219.3947 H   0  0  0  0  0  0  0  0  0  0  0  0
  145.8708   72.4342  218.6094 H   0  0  0  0  0  0  0  0  0  0  0  0
  143.7217   68.7799  219.2363 H   0  0  0  0  0  0  0  0  0  0  0  0
  141.9142   70.0251  220.3896 H   0  0  0  0  0  0  0  0  0  0  0  0
  1  2  2  0
  2  3  1  0
  3  4  1  0
  4  5  1  0
  5  6  2  0
  5  7  1  0
  7  8  1  0
  8  9  1  0
  9 10  1  0
 10 11  1  0
 11 12  1  0
 12 13  1  0
 13 14  2  0
 14 15  1  0
 15 16  2  0
 16 17  1  0
 17 18  2  0
  2 19  1  0
 19 20  2  0
 20 21  1  0
 21 22  2  0
 22 23  1  0
 23 24  2  0
 24 25  1  0
 25 26  1  0
 25 27  1  0
 25 28  1  0
 24 29  1  0
 29 30  2  0
 30 31  1  0
 31 32  2  0
 12  7  1  0
 18 13  1  0
 32 19  1  0
 31 22  1  0
  3 33  1  0
  4 34  1  0
  4 35  1  0
  8 36  1  0
  8 37  1  0
  9 38  1  0
  9 39  1  0
 10 40  1  0
 10 41  1  0
 11 42  1  0
 11 43  1  0
 12 44  1  6
 14 45  1  0
 15 46  1  0
 16 47  1  0
 17 48  1  0
 20 49  1  0
 21 50  1  0
 23 51  1  0
 29 52  1  0
 30 53  1  0
M  END
>  <smiles>  (68) 
O=C(NCC(=O)N1CCCCC1c1ccccn1)c1ccc2cc(C(F)(F)F)ccc2n1

>  <score_type>  (68) 
oracle

>  <origin>  (68) 
autodockgpu

>  <m_score__min__energy>  (68) 
-8.1699999999999999

>  <m_primary>  (68) 
energy

>  <rmsd>  (68) 
6.368953894000938

>  <m_score__min__rmsd>  (68) 
6.368953894000938

>  <meeko>  (68) 
{"free_energy": -6.89, "intermolecular_energy": -8.68, "internal_energy": -2.43, "cluster_size": 10, "cluster_id": 6, "rank_in_cluster": 1}

>  <energy>  (68) 
-7.41

>  <cluster_rmsd>  (68) 
0.81

>  <cluster>  (68) 
1

$$$$

     RDKit          3D

 53 56  0  0  0  0  0  0  0  0999 V2000
  139.3610   73.0640  220.3190 O   0  0  0  0  0  0  0  0  0  0  0  0
  139.4150   73.2540  221.5820 C   0  0  0  0  0  0  0  0  0  0  0  0
  139.4770   74.5950  222.1040 N   0  0  0  0  0  0  0  0  0  0  0  0
  139.4740   75.6650  221.1580 C   0  0  0  0  0  0  0  0  0  0  0  0
  139.4180   77.0380  221.5910 C   0  0  0  0  0  0  0  0  0  0  0  0
  138.8050   77.2170  222.7290 O   0  0  0  0  0  0  0  0  0  0  0  0
  139.9070   78.2370  221.0100 N   0  0  0  0  0  0  0  0  0  0  0  0
  139.0560   79.2510  220.4140 C   0  0  0  0  0  0  0  0  0  0  0  0
  139.6750   79.6240  219.0540 C   0  0  0  0  0  0  0  0  0  0  0  0
  141.0770   80.1060  219.3240 C   0  0  0  0  0  0  0  0  0  0  0  0
  141.8710   78.8710  219.7760 C   0  0  0  0  0  0  0  0  0  0  0  0
  141.3710   78.4270  221.1200 C   0  0  1  0  0  0  0  0  0  0  0  0
  141.6660   79.4050  222.1990 C   0  0  0  0  0  0  0  0  0  0  0  0
  142.9490   79.6230  222.6690 C   0  0  0  0  0  0  0  0  0  0  0  0
  143.2270   80.5420  223.6760 C   0  0  0  0  0  0  0  0  0  0  0  0
  142.1500   81.2370  224.1920 C   0  0  0  0  0  0  0  0  0  0  0  0
  140.8930   80.9800  223.6870 C   0  0  0  0  0  0  0  0  0  0  0  0
  140.6460   80.0870  222.7130 N   0  0  0  0  0  0  0  0  0  0  0  0
  139.4130   72.1320  222.5160 C   0  0  0  0  0  0  0  0  0  0  0  0
  138.7660   70.9620  222.1730 C   0  0  0  0  0  0  0  0  0  0  0  0
  138.7810   69.9120  223.0970 C   0  0  0  0  0  0  0  0  0  0  0  0
  139.4320   70.0860  224.2970 C   0  0  0  0  0  0  0  0  0  0  0  0
  139.4720   69.0700  225.2440 C   0  0  0  0  0  0  0  0  0  0  0  0
  140.1300   69.2430  226.4590 C   0  0  0  0  0  0  0  0  0  0  0  0
  140.1660   68.1450  227.4660 C   0  0  0  0  0  0  0  0  0  0  0  0
  141.4170   67.5700  227.4540 F   0  0  0  0  0  0  0  0  0  0  0  0
  139.9620   68.6630  228.7390 F   0  0  0  0  0  0  0  0  0  0  0  0
  139.1990   67.2280  227.1660 F   0  0  0  0  0  0  0  0  0  0  0  0
  140.7520   70.4270  226.7380 C   0  0  0  0  0  0  0  0  0  0  0  0
  140.7360   71.4570  225.8270 C   0  0  0  0  0  0  0  0  0  0  0  0
  140.0820   71.2720  224.6300 C   0  0  0  0  0  0  0  0  0  0  0  0
  140.0340   72.2450  223.7050 N   0  0  0  0  0  0  0  0  0  0  0  0
  139.5210   74.6960  223.1430 H   0  0  0  0  0  0  0  0  0  0  0  0
  140.3950   75.5612  220.5655 H   0  0  0  0  0  0  0  0  0  0  0  0
  138.5091   75.5331  220.6466 H   0  0  0  0  0  0  0  0  0  0  0  0
  138.0406   78.8533  220.2695 H   0  0  0  0  0  0  0  0  0  0  0  0
  138.9858   80.1341  221.0661 H   0  0  0  0  0  0  0  0  0  0  0  0
  139.6988   78.7431  218.3957 H   0  0  0  0  0  0  0  0  0  0  0  0
  139.0818   80.4038  218.5539 H   0  0  0  0  0  0  0  0  0  0  0  0
  141.5179   80.5300  218.4098 H   0  0  0  0  0  0  0  0  0  0  0  0
  141.0906   80.8956  220.0898 H   0  0  0  0  0  0  0  0  0  0  0  0
  141.7352   78.0591  219.0464 H   0  0  0  0  0  0  0  0  0  0  0  0
  142.9395   79.1234  219.8443 H   0  0  0  0  0  0  0  0  0  0  0  0
  141.8871   77.4952  221.3947 H   0  0  0  0  0  0  0  0  0  0  0  0
  143.7789   79.0492  222.2308 H   0  0  0  0  0  0  0  0  0  0  0  0
  144.2511   80.7067  224.0423 H   0  0  0  0  0  0  0  0  0  0  0  0
  142.2926   81.9806  224.9899 H   0  0  0  0  0  0  0  0  0  0  0  0
  140.0426   81.5383  224.1055 H   0  0  0  0  0  0  0  0  0  0  0  0
  138.2551   70.8587  221.2043 H   0  0  0  0  0  0  0  0  0  0  0  0
  138.2794   68.9603  222.8677 H   0  0  0  0  0  0  0  0  0  0  0  0
  138.9751   68.1122  225.0302 H   0  0  0  0  0  0  0  0  0  0  0  0
  141.2700   70.5575  227.6996 H   0  0  0  0  0  0  0  0  0  0  0  0
  141.2364   72.4107  226.0506 H   0  0  0  0  0  0  0  0  0  0  0  0
  1  2  2  0
  2  3  1  0
  3  4  1  0
  4  5  1  0
  5  6  2  0
  5  7  1  0
  7  8  1  0
  8  9  1  0
  9 10  1  0
 10 11  1  0
 11 12  1  0
 12 13  1  0
 13 14  2  0
 14 15  1  0
 15 16  2  0
 16 17  1  0
 17 18  2  0
  2 19  1  0
 19 20  2  0
 20 21  1  0
 21 22  2  0
 22 23  1  0
 23 24  2  0
 24 25  1  0
 25 26  1  0
 25 27  1  0
 25 28  1  0
 24 29  1  0
 29 30  2  0
 30 31  1  0
 31 32  2  0
 12  7  1  0
 18 13  1  0
 32 19  1  0
 31 22  1  0
  3 33  1  0
  4 34  1  0
  4 35  1  0
  8 36  1  0
  8 37  1  0
  9 38  1  0
  9 39  1  0
 10 40  1  0
 10 41  1  0
 11 42  1  0
 11 43  1  0
 12 44  1  1
 14 45  1  0
 15 46  1  0
 16 47  1  0
 17 48  1  0
 20 49  1  0
 21 50  1  0
 23 51  1  0
 29 52  1  0
 30 53  1  0
M  END
>  <smiles>  (69) 
O=C(NCC(=O)N1CCCCC1c1ccccn1)c1ccc2cc(C(F)(F)F)ccc2n1

>  <score_type>  (69) 
oracle

>  <origin>  (69) 
autodockgpu

>  <m_score__min__energy>  (69) 
-8.1699999999999999

>  <m_primary>  (69) 
energy

>  <rmsd>  (69) 
2.9458956380795693

>  <m_score__min__rmsd>  (69) 
2.9458956380795693

>  <meeko>  (69) 
{"free_energy": -7.96, "intermolecular_energy": -9.75, "internal_energy": -1.75, "cluster_size": 22, "cluster_id": 1, "rank_in_cluster": 7}

>  <energy>  (69) 
-7.3

>  <cluster_rmsd>  (69) 
1.83

>  <cluster>  (69) 
1

$$$$

     RDKit          3D

 53 56  0  0  0  0  0  0  0  0999 V2000
  139.2030   74.5450  222.3260 O   0  0  0  0  0  0  0  0  0  0  0  0
  140.4060   74.7800  221.9620 C   0  0  0  0  0  0  0  0  0  0  0  0
  140.9540   76.1050  222.1050 N   0  0  0  0  0  0  0  0  0  0  0  0
  140.1010   77.1070  222.6600 C   0  0  0  0  0  0  0  0  0  0  0  0
  140.4930   78.4930  222.6650 C   0  0  0  0  0  0  0  0  0  0  0  0
  140.2580   79.1140  223.7880 O   0  0  0  0  0  0  0  0  0  0  0  0
  141.0900   79.3140  221.6720 N   0  0  0  0  0  0  0  0  0  0  0  0
  142.1740   80.2420  221.9370 C   0  0  0  0  0  0  0  0  0  0  0  0
  141.8040   81.5790  221.2650 C   0  0  0  0  0  0  0  0  0  0  0  0
  141.6060   81.2960  219.7990 C   0  0  0  0  0  0  0  0  0  0  0  0
  140.3250   80.4530  219.6980 C   0  0  0  0  0  0  0  0  0  0  0  0
  140.5740   79.1020  220.3000 C   0  0  1  0  0  0  0  0  0  0  0  0
  141.5480   78.2920  219.5230 C   0  0  0  0  0  0  0  0  0  0  0  0
  141.6580   78.3880  218.1470 C   0  0  0  0  0  0  0  0  0  0  0  0
  142.5730   77.6350  217.4190 C   0  0  0  0  0  0  0  0  0  0  0  0
  143.3790   76.7740  218.1410 C   0  0  0  0  0  0  0  0  0  0  0  0
  143.2260   76.7180  219.5100 C   0  0  0  0  0  0  0  0  0  0  0  0
  142.3350   77.4550  220.1940 N   0  0  0  0  0  0  0  0  0  0  0  0
  141.2460   73.7260  221.4010 C   0  0  0  0  0  0  0  0  0  0  0  0
  140.7150   72.4670  221.2000 C   0  0  0  0  0  0  0  0  0  0  0  0
  141.5520   71.4820  220.6650 C   0  0  0  0  0  0  0  0  0  0  0  0
  142.8570   71.8040  220.3660 C   0  0  0  0  0  0  0  0  0  0  0  0
  143.7230   70.8570  219.8340 C   0  0  0  0  0  0  0  0  0  0  0  0
  145.0440   71.1790  219.5310 C   0  0  0  0  0  0  0  0  0  0  0  0
  145.9640   70.1550  218.9610 C   0  0  0  0  0  0  0  0  0  0  0  0
  146.3200   70.5350  217.6860 F   0  0  0  0  0  0  0  0  0  0  0  0
  147.1300   70.0930  219.7140 F   0  0  0  0  0  0  0  0  0  0  0  0
  145.3360   68.9410  218.9550 F   0  0  0  0  0  0  0  0  0  0  0  0
  145.5080   72.4440  219.7540 C   0  0  0  0  0  0  0  0  0  0  0  0
  144.6820   73.4100  220.2780 C   0  0  0  0  0  0  0  0  0  0  0  0
  143.3800   73.0790  220.5740 C   0  0  0  0  0  0  0  0  0  0  0  0
  142.5290   73.9820  221.0890 N   0  0  0  0  0  0  0  0  0  0  0  0
  141.9410   76.2440  221.7920 H   0  0  0  0  0  0  0  0  0  0  0  0
  139.1520   77.0520  222.1064 H   0  0  0  0  0  0  0  0  0  0  0  0
  140.0929   76.8532  223.7303 H   0  0  0  0  0  0  0  0  0  0  0  0
  142.2911   80.3849  223.0214 H   0  0  0  0  0  0  0  0  0  0  0  0
  143.1245   79.8556  221.5405 H   0  0  0  0  0  0  0  0  0  0  0  0
  140.8760   81.9769  221.7015 H   0  0  0  0  0  0  0  0  0  0  0  0
  142.5965   82.3267  221.4166 H   0  0  0  0  0  0  0  0  0  0  0  0
  141.4892   82.2366  219.2408 H   0  0  0  0  0  0  0  0  0  0  0  0
  142.4704   80.7672  219.3710 H   0  0  0  0  0  0  0  0  0  0  0  0
  139.5112   80.9540  220.2427 H   0  0  0  0  0  0  0  0  0  0  0  0
  140.0399   80.3397  218.6416 H   0  0  0  0  0  0  0  0  0  0  0  0
  139.6289   78.5392  220.2976 H   0  0  0  0  0  0  0  0  0  0  0  0
  140.9980   79.0849  217.6096 H   0  0  0  0  0  0  0  0  0  0  0  0
  142.6515   77.7200  216.3251 H   0  0  0  0  0  0  0  0  0  0  0  0
  144.1267   76.1468  217.6336 H   0  0  0  0  0  0  0  0  0  0  0  0
  143.8713   76.0295  220.0754 H   0  0  0  0  0  0  0  0  0  0  0  0
  139.6675   72.2459  221.4525 H   0  0  0  0  0  0  0  0  0  0  0  0
  141.1731   70.4650  220.4858 H   0  0  0  0  0  0  0  0  0  0  0  0
  143.3594   69.8355  219.6488 H   0  0  0  0  0  0  0  0  0  0  0  0
  146.5520   72.6922  219.5122 H   0  0  0  0  0  0  0  0  0  0  0  0
  145.0554   74.4290  220.4573 H   0  0  0  0  0  0  0  0  0  0  0  0
  1  2  2  0
  2  3  1  0
  3  4  1  0
  4  5  1  0
  5  6  2  0
  5  7  1  0
  7  8  1  0
  8  9  1  0
  9 10  1  0
 10 11  1  0
 11 12  1  0
 12 13  1  0
 13 14  2  0
 14 15  1  0
 15 16  2  0
 16 17  1  0
 17 18  2  0
  2 19  1  0
 19 20  2  0
 20 21  1  0
 21 22  2  0
 22 23  1  0
 23 24  2  0
 24 25  1  0
 25 26  1  0
 25 27  1  0
 25 28  1  0
 24 29  1  0
 29 30  2  0
 30 31  1  0
 31 32  2  0
 12  7  1  0
 18 13  1  0
 32 19  1  0
 31 22  1  0
  3 33  1  0
  4 34  1  0
  4 35  1  0
  8 36  1  0
  8 37  1  0
  9 38  1  0
  9 39  1  0
 10 40  1  0
 10 41  1  0
 11 42  1  0
 11 43  1  0
 12 44  1  1
 14 45  1  0
 15 46  1  0
 16 47  1  0
 17 48  1  0
 20 49  1  0
 21 50  1  0
 23 51  1  0
 29 52  1  0
 30 53  1  0
M  END
>  <smiles>  (70) 
O=C(NCC(=O)N1CCCCC1c1ccccn1)c1ccc2cc(C(F)(F)F)ccc2n1

>  <score_type>  (70) 
oracle

>  <origin>  (70) 
autodockgpu

>  <m_score__min__energy>  (70) 
-8.1699999999999999

>  <m_primary>  (70) 
energy

>  <rmsd>  (70) 
5.796912949231105

>  <m_score__min__rmsd>  (70) 
5.796912949231105

>  <meeko>  (70) 
{"free_energy": -6.26, "intermolecular_energy": -8.05, "internal_energy": -3.06, "cluster_size": 10, "cluster_id": 6, "rank_in_cluster": 6}

>  <energy>  (70) 
-7.16

>  <cluster_rmsd>  (70) 
1.75

>  <cluster>  (70) 
1

$$$$

     RDKit          3D

 53 56  0  0  0  0  0  0  0  0999 V2000
  138.8610   73.9380  220.9550 O   0  0  0  0  0  0  0  0  0  0  0  0
  139.8430   73.4750  221.6300 C   0  0  0  0  0  0  0  0  0  0  0  0
  141.1730   73.9790  221.4020 N   0  0  0  0  0  0  0  0  0  0  0  0
  141.3240   74.9950  220.4090 C   0  0  0  0  0  0  0  0  0  0  0  0
  141.3090   76.3900  220.7690 C   0  0  0  0  0  0  0  0  0  0  0  0
  142.3390   77.0660  220.3410 O   0  0  0  0  0  0  0  0  0  0  0  0
  140.3780   77.1700  221.5050 N   0  0  0  0  0  0  0  0  0  0  0  0
  139.6380   76.6740  222.6510 C   0  0  0  0  0  0  0  0  0  0  0  0
  138.1650   77.0800  222.4530 C   0  0  0  0  0  0  0  0  0  0  0  0
  138.1340   78.5820  222.3270 C   0  0  0  0  0  0  0  0  0  0  0  0
  138.8020   78.9090  220.9820 C   0  0  0  0  0  0  0  0  0  0  0  0
  140.2640   78.5780  221.0640 C   0  0  1  0  0  0  0  0  0  0  0  0
  141.0040   79.4560  222.0070 C   0  0  0  0  0  0  0  0  0  0  0  0
  141.8780   78.9530  222.9550 C   0  0  0  0  0  0  0  0  0  0  0  0
  142.5750   79.7740  223.8340 C   0  0  0  0  0  0  0  0  0  0  0  0
  142.3540   81.1340  223.7180 C   0  0  0  0  0  0  0  0  0  0  0  0
  141.4730   81.5800  222.7560 C   0  0  0  0  0  0  0  0  0  0  0  0
  140.8090   80.7690  221.9160 N   0  0  0  0  0  0  0  0  0  0  0  0
  139.6450   72.4370  222.6380 C   0  0  0  0  0  0  0  0  0  0  0  0
  138.5100   71.6530  222.5930 C   0  0  0  0  0  0  0  0  0  0  0  0
  138.3530   70.6730  223.5790 C   0  0  0  0  0  0  0  0  0  0  0  0
  139.3250   70.5330  224.5440 C   0  0  0  0  0  0  0  0  0  0  0  0
  139.2110   69.5740  225.5420 C   0  0  0  0  0  0  0  0  0  0  0  0
  140.1930   69.4300  226.5190 C   0  0  0  0  0  0  0  0  0  0  0  0
  140.0580   68.3970  227.5850 C   0  0  0  0  0  0  0  0  0  0  0  0
  139.2160   67.4030  227.1390 F   0  0  0  0  0  0  0  0  0  0  0  0
  141.2920   67.8100  227.8350 F   0  0  0  0  0  0  0  0  0  0  0  0
  139.5710   68.9820  228.7200 F   0  0  0  0  0  0  0  0  0  0  0  0
  141.2930   70.2390  226.5080 C   0  0  0  0  0  0  0  0  0  0  0  0
  141.4440   71.2000  225.5370 C   0  0  0  0  0  0  0  0  0  0  0  0
  140.4670   71.3320  224.5770 C   0  0  0  0  0  0  0  0  0  0  0  0
  140.5620   72.2540  223.6050 N   0  0  0  0  0  0  0  0  0  0  0  0
  141.9400   73.5670  221.9790 H   0  0  0  0  0  0  0  0  0  0  0  0
  142.2893   74.8094  219.9153 H   0  0  0  0  0  0  0  0  0  0  0  0
  140.4067   74.8886  219.8113 H   0  0  0  0  0  0  0  0  0  0  0  0
  139.7225   75.5788  222.7088 H   0  0  0  0  0  0  0  0  0  0  0  0
  140.0369   77.0956  223.5854 H   0  0  0  0  0  0  0  0  0  0  0  0
  137.7650   76.6161  221.5394 H   0  0  0  0  0  0  0  0  0  0  0  0
  137.5485   76.7447  223.3000 H   0  0  0  0  0  0  0  0  0  0  0  0
  137.0956   78.9448  222.3361 H   0  0  0  0  0  0  0  0  0  0  0  0
  138.6567   79.0671  223.1645 H   0  0  0  0  0  0  0  0  0  0  0  0
  138.3341   78.3134  220.1843 H   0  0  0  0  0  0  0  0  0  0  0  0
  138.6771   79.9786  220.7575 H   0  0  0  0  0  0  0  0  0  0  0  0
  140.7142   78.7361  220.0729 H   0  0  0  0  0  0  0  0  0  0  0  0
  142.0264   77.8647  223.0150 H   0  0  0  0  0  0  0  0  0  0  0  0
  143.2670   79.3627  224.5836 H   0  0  0  0  0  0  0  0  0  0  0  0
  142.8704   81.8452  224.3795 H   0  0  0  0  0  0  0  0  0  0  0  0
  141.3039   82.6636  222.6713 H   0  0  0  0  0  0  0  0  0  0  0  0
  137.7533   71.7942  221.8072 H   0  0  0  0  0  0  0  0  0  0  0  0
  137.4653   70.0233  223.5832 H   0  0  0  0  0  0  0  0  0  0  0  0
  138.3294   68.9164  225.5612 H   0  0  0  0  0  0  0  0  0  0  0  0
  142.0648   70.1206  227.2828 H   0  0  0  0  0  0  0  0  0  0  0  0
  142.3300   71.8519  225.5275 H   0  0  0  0  0  0  0  0  0  0  0  0
  1  2  2  0
  2  3  1  0
  3  4  1  0
  4  5  1  0
  5  6  2  0
  5  7  1  0
  7  8  1  0
  8  9  1  0
  9 10  1  0
 10 11  1  0
 11 12  1  0
 12 13  1  0
 13 14  2  0
 14 15  1  0
 15 16  2  0
 16 17  1  0
 17 18  2  0
  2 19  1  0
 19 20  2  0
 20 21  1  0
 21 22  2  0
 22 23  1  0
 23 24  2  0
 24 25  1  0
 25 26  1  0
 25 27  1  0
 25 28  1  0
 24 29  1  0
 29 30  2  0
 30 31  1  0
 31 32  2  0
 12  7  1  0
 18 13  1  0
 32 19  1  0
 31 22  1  0
  3 33  1  0
  4 34  1  0
  4 35  1  0
  8 36  1  0
  8 37  1  0
  9 38  1  0
  9 39  1  0
 10 40  1  0
 10 41  1  0
 11 42  1  0
 11 43  1  0
 12 44  1  6
 14 45  1  0
 15 46  1  0
 16 47  1  0
 17 48  1  0
 20 49  1  0
 21 50  1  0
 23 51  1  0
 29 52  1  0
 30 53  1  0
M  END
>  <smiles>  (71) 
O=C(NCC(=O)N1CCCCC1c1ccccn1)c1ccc2cc(C(F)(F)F)ccc2n1

>  <score_type>  (71) 
oracle

>  <origin>  (71) 
autodockgpu

>  <m_score__min__energy>  (71) 
-8.1699999999999999

>  <m_primary>  (71) 
energy

>  <rmsd>  (71) 
3.4774468720278042

>  <m_score__min__rmsd>  (71) 
3.4774468720278042

>  <meeko>  (71) 
{"free_energy": -7.44, "intermolecular_energy": -9.23, "internal_energy": -1.96, "cluster_size": 22, "cluster_id": 1, "rank_in_cluster": 15}

>  <energy>  (71) 
-7.12

>  <cluster_rmsd>  (71) 
1.8

>  <cluster>  (71) 
1

$$$$

     RDKit          3D

 53 56  0  0  0  0  0  0  0  0999 V2000
  138.5650   73.8920  222.0000 O   0  0  0  0  0  0  0  0  0  0  0  0
  139.7680   74.2360  221.7370 C   0  0  0  0  0  0  0  0  0  0  0  0
  140.1910   75.5950  221.9590 N   0  0  0  0  0  0  0  0  0  0  0  0
  139.2180   76.5050  222.4740 C   0  0  0  0  0  0  0  0  0  0  0  0
  139.5390   77.8950  222.6800 C   0  0  0  0  0  0  0  0  0  0  0  0
  138.5650   78.6020  223.1830 O   0  0  0  0  0  0  0  0  0  0  0  0
  140.7230   78.6410  222.4370 N   0  0  0  0  0  0  0  0  0  0  0  0
  141.8530   78.6790  223.3460 C   0  0  0  0  0  0  0  0  0  0  0  0
  142.2580   80.1570  223.5090 C   0  0  0  0  0  0  0  0  0  0  0  0
  142.5810   80.6800  222.1330 C   0  0  0  0  0  0  0  0  0  0  0  0
  141.2450   80.7340  221.3750 C   0  0  0  0  0  0  0  0  0  0  0  0
  140.7600   79.3350  221.1300 C   0  0  1  0  0  0  0  0  0  0  0  0
  141.6270   78.5780  220.1900 C   0  0  0  0  0  0  0  0  0  0  0  0
  142.0700   79.1180  218.9950 C   0  0  0  0  0  0  0  0  0  0  0  0
  142.8860   78.4110  218.1170 C   0  0  0  0  0  0  0  0  0  0  0  0
  143.2400   77.1300  218.4960 C   0  0  0  0  0  0  0  0  0  0  0  0
  142.7700   76.6430  219.6970 C   0  0  0  0  0  0  0  0  0  0  0  0
  141.9820   77.3420  220.5320 N   0  0  0  0  0  0  0  0  0  0  0  0
  140.7330   73.2730  221.2140 C   0  0  0  0  0  0  0  0  0  0  0  0
  140.3320   71.9760  220.9650 C   0  0  0  0  0  0  0  0  0  0  0  0
  141.2870   71.0810  220.4690 C   0  0  0  0  0  0  0  0  0  0  0  0
  142.5720   71.5260  220.2530 C   0  0  0  0  0  0  0  0  0  0  0  0
  143.5510   70.6720  219.7620 C   0  0  0  0  0  0  0  0  0  0  0  0
  144.8520   71.1190  219.5430 C   0  0  0  0  0  0  0  0  0  0  0  0
  145.8940   70.1930  219.0150 C   0  0  0  0  0  0  0  0  0  0  0  0
  146.1590   70.5190  217.7040 F   0  0  0  0  0  0  0  0  0  0  0  0
  147.0760   70.3550  219.7270 F   0  0  0  0  0  0  0  0  0  0  0  0
  145.4480   68.9060  219.1220 F   0  0  0  0  0  0  0  0  0  0  0  0
  145.1840   72.4160  219.8090 C   0  0  0  0  0  0  0  0  0  0  0  0
  144.2440   73.2930  220.2960 C   0  0  0  0  0  0  0  0  0  0  0  0
  142.9620   72.8390  220.5080 C   0  0  0  0  0  0  0  0  0  0  0  0
  142.0030   73.6510  220.9830 N   0  0  0  0  0  0  0  0  0  0  0  0
  141.1830   75.8250  221.7280 H   0  0  0  0  0  0  0  0  0  0  0  0
  138.3668   76.4802  221.7777 H   0  0  0  0  0  0  0  0  0  0  0  0
  139.0612   76.1379  223.4990 H   0  0  0  0  0  0  0  0  0  0  0  0
  141.5668   78.2571  224.3207 H   0  0  0  0  0  0  0  0  0  0  0  0
  142.6912   78.0859  222.9515 H   0  0  0  0  0  0  0  0  0  0  0  0
  141.4270   80.7304  223.9456 H   0  0  0  0  0  0  0  0  0  0  0  0
  143.1246   80.2548  224.1794 H   0  0  0  0  0  0  0  0  0  0  0  0
  143.0230   81.6850  222.2003 H   0  0  0  0  0  0  0  0  0  0  0  0
  143.3100   80.0365  221.6186 H   0  0  0  0  0  0  0  0  0  0  0  0
  140.5031   81.2808  221.9755 H   0  0  0  0  0  0  0  0  0  0  0  0
  141.3859   81.2500  220.4138 H   0  0  0  0  0  0  0  0  0  0  0  0
  139.7653   79.3870  220.6633 H   0  0  0  0  0  0  0  0  0  0  0  0
  141.7665   80.1416  218.7301 H   0  0  0  0  0  0  0  0  0  0  0  0
  143.2317   78.8496  217.1693 H   0  0  0  0  0  0  0  0  0  0  0  0
  143.8834   76.5118  217.8527 H   0  0  0  0  0  0  0  0  0  0  0  0
  143.0568   75.6220  219.9893 H   0  0  0  0  0  0  0  0  0  0  0  0
  139.2959   71.6562  221.1503 H   0  0  0  0  0  0  0  0  0  0  0  0
  141.0148   70.0370  220.2548 H   0  0  0  0  0  0  0  0  0  0  0  0
  143.2947   69.6251  219.5423 H   0  0  0  0  0  0  0  0  0  0  0  0
  146.2129   72.7626  219.6321 H   0  0  0  0  0  0  0  0  0  0  0  0
  144.5114   74.3379  220.5122 H   0  0  0  0  0  0  0  0  0  0  0  0
  1  2  2  0
  2  3  1  0
  3  4  1  0
  4  5  1  0
  5  6  2  0
  5  7  1  0
  7  8  1  0
  8  9  1  0
  9 10  1  0
 10 11  1  0
 11 12  1  0
 12 13  1  0
 13 14  2  0
 14 15  1  0
 15 16  2  0
 16 17  1  0
 17 18  2  0
  2 19  1  0
 19 20  2  0
 20 21  1  0
 21 22  2  0
 22 23  1  0
 23 24  2  0
 24 25  1  0
 25 26  1  0
 25 27  1  0
 25 28  1  0
 24 29  1  0
 29 30  2  0
 30 31  1  0
 31 32  2  0
 12  7  1  0
 18 13  1  0
 32 19  1  0
 31 22  1  0
  3 33  1  0
  4 34  1  0
  4 35  1  0
  8 36  1  0
  8 37  1  0
  9 38  1  0
  9 39  1  0
 10 40  1  0
 10 41  1  0
 11 42  1  0
 11 43  1  0
 12 44  1  6
 14 45  1  0
 15 46  1  0
 16 47  1  0
 17 48  1  0
 20 49  1  0
 21 50  1  0
 23 51  1  0
 29 52  1  0
 30 53  1  0
M  END
>  <smiles>  (72) 
O=C(NCC(=O)N1CCCCC1c1ccccn1)c1ccc2cc(C(F)(F)F)ccc2n1

>  <score_type>  (72) 
oracle

>  <origin>  (72) 
autodockgpu

>  <m_score__min__energy>  (72) 
-8.1699999999999999

>  <m_primary>  (72) 
energy

>  <rmsd>  (72) 
5.619160208590892

>  <m_score__min__rmsd>  (72) 
5.619160208590892

>  <meeko>  (72) 
{"free_energy": -6.22, "intermolecular_energy": -8.01, "internal_energy": -3.01, "cluster_size": 10, "cluster_id": 6, "rank_in_cluster": 7}

>  <energy>  (72) 
-6.59

>  <cluster_rmsd>  (72) 
1.93

>  <cluster>  (72) 
1

$$$$

     RDKit          3D

 53 56  0  0  0  0  0  0  0  0999 V2000
  140.5820   73.0250  220.9130 O   0  0  0  0  0  0  0  0  0  0  0  0
  139.7560   72.9920  221.8890 C   0  0  0  0  0  0  0  0  0  0  0  0
  138.7100   73.9790  221.9790 N   0  0  0  0  0  0  0  0  0  0  0  0
  138.6510   74.9630  220.9450 C   0  0  0  0  0  0  0  0  0  0  0  0
  138.9090   76.3520  221.2280 C   0  0  0  0  0  0  0  0  0  0  0  0
  138.1840   76.8470  222.1930 O   0  0  0  0  0  0  0  0  0  0  0  0
  139.8100   77.2860  220.6520 N   0  0  0  0  0  0  0  0  0  0  0  0
  139.4450   78.2130  219.5960 C   0  0  0  0  0  0  0  0  0  0  0  0
  140.5480   78.1380  218.5230 C   0  0  0  0  0  0  0  0  0  0  0  0
  141.8480   78.4870  219.2010 C   0  0  0  0  0  0  0  0  0  0  0  0
  142.1610   77.3180  220.1470 C   0  0  0  0  0  0  0  0  0  0  0  0
  141.1580   77.3060  221.2640 C   0  0  1  0  0  0  0  0  0  0  0  0
  141.2780   78.4830  222.1630 C   0  0  0  0  0  0  0  0  0  0  0  0
  142.4930   79.0880  222.4310 C   0  0  0  0  0  0  0  0  0  0  0  0
  142.6050   80.1930  223.2680 C   0  0  0  0  0  0  0  0  0  0  0  0
  141.4340   80.6660  223.8280 C   0  0  0  0  0  0  0  0  0  0  0  0
  140.2520   80.0250  223.5270 C   0  0  0  0  0  0  0  0  0  0  0  0
  140.1640   78.9580  222.7150 N   0  0  0  0  0  0  0  0  0  0  0  0
  139.8500   71.9670  222.9250 C   0  0  0  0  0  0  0  0  0  0  0  0
  139.4270   70.6820  222.6500 C   0  0  0  0  0  0  0  0  0  0  0  0
  139.5270   69.7290  223.6690 C   0  0  0  0  0  0  0  0  0  0  0  0
  140.0350   70.1080  224.8910 C   0  0  0  0  0  0  0  0  0  0  0  0
  140.1520   69.1940  225.9310 C   0  0  0  0  0  0  0  0  0  0  0  0
  140.6670   69.5740  227.1680 C   0  0  0  0  0  0  0  0  0  0  0  0
  140.7870   68.5850  228.2770 C   0  0  0  0  0  0  0  0  0  0  0  0
  139.5910   68.5300  228.9570 F   0  0  0  0  0  0  0  0  0  0  0  0
  141.0250   67.3180  227.7580 F   0  0  0  0  0  0  0  0  0  0  0  0
  141.8080   68.9590  229.1040 F   0  0  0  0  0  0  0  0  0  0  0  0
  141.0680   70.8630  227.3770 C   0  0  0  0  0  0  0  0  0  0  0  0
  140.9690   71.7960  226.3720 C   0  0  0  0  0  0  0  0  0  0  0  0
  140.4590   71.4080  225.1540 C   0  0  0  0  0  0  0  0  0  0  0  0
  140.3390   72.2790  224.1390 N   0  0  0  0  0  0  0  0  0  0  0  0
  138.0630   73.9090  222.7960 H   0  0  0  0  0  0  0  0  0  0  0  0
  139.3815   74.6584  220.1811 H   0  0  0  0  0  0  0  0  0  0  0  0
  137.5852   74.9650  220.6730 H   0  0  0  0  0  0  0  0  0  0  0  0
  138.4761   77.9265  219.1612 H   0  0  0  0  0  0  0  0  0  0  0  0
  139.3516   79.2360  219.9893 H   0  0  0  0  0  0  0  0  0  0  0  0
  140.6006   77.1215  218.1060 H   0  0  0  0  0  0  0  0  0  0  0  0
  140.3384   78.8322  217.6958 H   0  0  0  0  0  0  0  0  0  0  0  0
  142.6491   78.6003  218.4557 H   0  0  0  0  0  0  0  0  0  0  0  0
  141.7737   79.4384  219.7480 H   0  0  0  0  0  0  0  0  0  0  0  0
  142.1050   76.3701  219.5918 H   0  0  0  0  0  0  0  0  0  0  0  0
  143.1735   77.4373  220.5602 H   0  0  0  0  0  0  0  0  0  0  0  0
  141.3404   76.4183  221.8874 H   0  0  0  0  0  0  0  0  0  0  0  0
  143.4026   78.6806  221.9656 H   0  0  0  0  0  0  0  0  0  0  0  0
  143.5765   80.6663  223.4737 H   0  0  0  0  0  0  0  0  0  0  0  0
  141.4450   81.5365  224.5004 H   0  0  0  0  0  0  0  0  0  0  0  0
  139.3254   80.4096  223.9782 H   0  0  0  0  0  0  0  0  0  0  0  0
  139.0243   70.4161  221.6615 H   0  0  0  0  0  0  0  0  0  0  0  0
  139.2043   68.6916  223.4964 H   0  0  0  0  0  0  0  0  0  0  0  0
  139.8326   68.1531  225.7748 H   0  0  0  0  0  0  0  0  0  0  0  0
  141.4731   71.1567  228.3566 H   0  0  0  0  0  0  0  0  0  0  0  0
  141.2917   72.8343  226.5385 H   0  0  0  0  0  0  0  0  0  0  0  0
  1  2  2  0
  2  3  1  0
  3  4  1  0
  4  5  1  0
  5  6  2  0
  5  7  1  0
  7  8  1  0
  8  9  1  0
  9 10  1  0
 10 11  1  0
 11 12  1  0
 12 13  1  0
 13 14  2  0
 14 15  1  0
 15 16  2  0
 16 17  1  0
 17 18  2  0
  2 19  1  0
 19 20  2  0
 20 21  1  0
 21 22  2  0
 22 23  1  0
 23 24  2  0
 24 25  1  0
 25 26  1  0
 25 27  1  0
 25 28  1  0
 24 29  1  0
 29 30  2  0
 30 31  1  0
 31 32  2  0
 12  7  1  0
 18 13  1  0
 32 19  1  0
 31 22  1  0
  3 33  1  0
  4 34  1  0
  4 35  1  0
  8 36  1  0
  8 37  1  0
  9 38  1  0
  9 39  1  0
 10 40  1  0
 10 41  1  0
 11 42  1  0
 11 43  1  0
 12 44  1  1
 14 45  1  0
 15 46  1  0
 16 47  1  0
 17 48  1  0
 20 49  1  0
 21 50  1  0
 23 51  1  0
 29 52  1  0
 30 53  1  0
M  END
>  <smiles>  (73) 
O=C(NCC(=O)N1CCCCC1c1ccccn1)c1ccc2cc(C(F)(F)F)ccc2n1

>  <score_type>  (73) 
oracle

>  <origin>  (73) 
autodockgpu

>  <m_score__min__energy>  (73) 
-8.1699999999999999

>  <m_primary>  (73) 
energy

>  <rmsd>  (73) 
2.3979909184641746

>  <m_score__min__rmsd>  (73) 
2.3979909184641746

>  <meeko>  (73) 
{"free_energy": -8.0, "intermolecular_energy": -9.79, "internal_energy": -1.6, "cluster_size": 22, "cluster_id": 1, "rank_in_cluster": 5}

>  <energy>  (73) 
-8.13

>  <cluster_rmsd>  (73) 
0.0

>  <cluster>  (73) 
2

$$$$

     RDKit          3D

 53 56  0  0  0  0  0  0  0  0999 V2000
  143.1650   75.3280  217.9940 O   0  0  0  0  0  0  0  0  0  0  0  0
  142.9180   75.9450  219.0850 C   0  0  0  0  0  0  0  0  0  0  0  0
  143.0170   75.2480  220.3430 N   0  0  0  0  0  0  0  0  0  0  0  0
  143.3980   73.8720  220.2970 C   0  0  0  0  0  0  0  0  0  0  0  0
  142.5460   72.8490  220.8490 C   0  0  0  0  0  0  0  0  0  0  0  0
  143.1240   71.6890  220.9940 O   0  0  0  0  0  0  0  0  0  0  0  0
  141.1890   72.8690  221.2680 N   0  0  0  0  0  0  0  0  0  0  0  0
  140.7080   72.2240  222.4760 C   0  0  0  0  0  0  0  0  0  0  0  0
  139.4430   71.4300  222.0960 C   0  0  0  0  0  0  0  0  0  0  0  0
  138.4620   72.4150  221.5140 C   0  0  0  0  0  0  0  0  0  0  0  0
  139.0520   72.8560  220.1650 C   0  0  0  0  0  0  0  0  0  0  0  0
  140.2880   73.6720  220.4100 C   0  0  1  0  0  0  0  0  0  0  0  0
  140.0020   74.9720  221.0710 C   0  0  0  0  0  0  0  0  0  0  0  0
  138.8960   75.7380  220.7470 C   0  0  0  0  0  0  0  0  0  0  0  0
  138.6250   76.9520  221.3690 C   0  0  0  0  0  0  0  0  0  0  0  0
  139.5200   77.3650  222.3370 C   0  0  0  0  0  0  0  0  0  0  0  0
  140.6050   76.5620  222.6190 C   0  0  0  0  0  0  0  0  0  0  0  0
  140.8490   75.3920  222.0070 N   0  0  0  0  0  0  0  0  0  0  0  0
  142.5340   77.3540  219.0890 C   0  0  0  0  0  0  0  0  0  0  0  0
  142.5420   78.0630  217.9040 C   0  0  0  0  0  0  0  0  0  0  0  0
  142.1740   79.4120  217.9480 C   0  0  0  0  0  0  0  0  0  0  0  0
  141.8240   79.9710  219.1570 C   0  0  0  0  0  0  0  0  0  0  0  0
  141.4520   81.3070  219.2470 C   0  0  0  0  0  0  0  0  0  0  0  0
  141.0980   81.8740  220.4680 C   0  0  0  0  0  0  0  0  0  0  0  0
  140.7000   83.3090  220.5510 C   0  0  0  0  0  0  0  0  0  0  0  0
  141.3140   83.8780  221.6450 F   0  0  0  0  0  0  0  0  0  0  0  0
  141.1470   83.9910  219.4260 F   0  0  0  0  0  0  0  0  0  0  0  0
  139.3400   83.3930  220.6500 F   0  0  0  0  0  0  0  0  0  0  0  0
  141.1110   81.1180  221.6050 C   0  0  0  0  0  0  0  0  0  0  0  0
  141.4720   79.7920  221.5570 C   0  0  0  0  0  0  0  0  0  0  0  0
  141.8200   79.2430  220.3440 C   0  0  0  0  0  0  0  0  0  0  0  0
  142.1820   77.9540  220.2400 N   0  0  0  0  0  0  0  0  0  0  0  0
  142.8040   75.7970  221.2060 H   0  0  0  0  0  0  0  0  0  0  0  0
  143.5403   73.6218  219.2353 H   0  0  0  0  0  0  0  0  0  0  0  0
  144.2756   73.8407  220.9595 H   0  0  0  0  0  0  0  0  0  0  0  0
  141.4761   71.5428  222.8709 H   0  0  0  0  0  0  0  0  0  0  0  0
  140.4825   72.9691  223.2532 H   0  0  0  0  0  0  0  0  0  0  0  0
  139.6905   70.6589  221.3516 H   0  0  0  0  0  0  0  0  0  0  0  0
  139.0172   70.9257  222.9760 H   0  0  0  0  0  0  0  0  0  0  0  0
  137.4831   71.9361  221.3645 H   0  0  0  0  0  0  0  0  0  0  0  0
  138.3071   73.2727  222.1850 H   0  0  0  0  0  0  0  0  0  0  0  0
  139.3094   71.9685  219.5682 H   0  0  0  0  0  0  0  0  0  0  0  0
  138.3129   73.4598  219.6180 H   0  0  0  0  0  0  0  0  0  0  0  0
  140.7473   73.9100  219.4392 H   0  0  0  0  0  0  0  0  0  0  0  0
  138.2072   75.3740  219.9704 H   0  0  0  0  0  0  0  0  0  0  0  0
  137.7427   77.5530  221.1037 H   0  0  0  0  0  0  0  0  0  0  0  0
  139.3702   78.3146  222.8717 H   0  0  0  0  0  0  0  0  0  0  0  0
  141.3123   76.8998  223.3908 H   0  0  0  0  0  0  0  0  0  0  0  0
  142.8283   77.5829  216.9566 H   0  0  0  0  0  0  0  0  0  0  0  0
  142.1643   80.0177  217.0298 H   0  0  0  0  0  0  0  0  0  0  0  0
  141.4370   81.9267  218.3383 H   0  0  0  0  0  0  0  0  0  0  0  0
  140.8306   81.5730  222.5664 H   0  0  0  0  0  0  0  0  0  0  0  0
  141.4824   79.1811  222.4717 H   0  0  0  0  0  0  0  0  0  0  0  0
  1  2  2  0
  2  3  1  0
  3  4  1  0
  4  5  1  0
  5  6  2  0
  5  7  1  0
  7  8  1  0
  8  9  1  0
  9 10  1  0
 10 11  1  0
 11 12  1  0
 12 13  1  0
 13 14  2  0
 14 15  1  0
 15 16  2  0
 16 17  1  0
 17 18  2  0
  2 19  1  0
 19 20  2  0
 20 21  1  0
 21 22  2  0
 22 23  1  0
 23 24  2  0
 24 25  1  0
 25 26  1  0
 25 27  1  0
 25 28  1  0
 24 29  1  0
 29 30  2  0
 30 31  1  0
 31 32  2  0
 12  7  1  0
 18 13  1  0
 32 19  1  0
 31 22  1  0
  3 33  1  0
  4 34  1  0
  4 35  1  0
  8 36  1  0
  8 37  1  0
  9 38  1  0
  9 39  1  0
 10 40  1  0
 10 41  1  0
 11 42  1  0
 11 43  1  0
 12 44  1  6
 14 45  1  0
 15 46  1  0
 16 47  1  0
 17 48  1  0
 20 49  1  0
 21 50  1  0
 23 51  1  0
 29 52  1  0
 30 53  1  0
M  END
>  <smiles>  (74) 
O=C(NCC(=O)N1CCCCC1c1ccccn1)c1ccc2cc(C(F)(F)F)ccc2n1

>  <score_type>  (74) 
oracle

>  <origin>  (74) 
autodockgpu

>  <m_score__min__energy>  (74) 
-8.1699999999999999

>  <m_primary>  (74) 
energy

>  <rmsd>  (74) 
8.210770559488733

>  <m_score__min__rmsd>  (74) 
8.210770559488733

>  <meeko>  (74) 
{"free_energy": -5.42, "intermolecular_energy": -7.21, "internal_energy": -3.52, "cluster_size": 1, "cluster_id": 8, "rank_in_cluster": 1}

>  <energy>  (74) 
-8.03

>  <cluster_rmsd>  (74) 
0.5

>  <cluster>  (74) 
2

$$$$

     RDKit          3D

 53 56  0  0  0  0  0  0  0  0999 V2000
  139.2360   73.2590  220.3760 O   0  0  0  0  0  0  0  0  0  0  0  0
  140.0290   73.1870  221.3760 C   0  0  0  0  0  0  0  0  0  0  0  0
  141.1510   74.0850  221.4690 N   0  0  0  0  0  0  0  0  0  0  0  0
  141.3190   75.0310  220.4120 C   0  0  0  0  0  0  0  0  0  0  0  0
  140.5540   76.2510  220.3810 C   0  0  0  0  0  0  0  0  0  0  0  0
  140.5700   76.8670  219.2310 O   0  0  0  0  0  0  0  0  0  0  0  0
  139.7810   76.9120  221.3730 N   0  0  0  0  0  0  0  0  0  0  0  0
  139.2490   76.2540  222.5520 C   0  0  0  0  0  0  0  0  0  0  0  0
  137.7710   76.6700  222.6780 C   0  0  0  0  0  0  0  0  0  0  0  0
  137.7420   78.1730  222.7690 C   0  0  0  0  0  0  0  0  0  0  0  0
  138.1640   78.6910  221.3860 C   0  0  0  0  0  0  0  0  0  0  0  0
  139.6120   78.3670  221.1590 C   0  0  1  0  0  0  0  0  0  0  0  0
  140.5210   79.1120  222.0670 C   0  0  0  0  0  0  0  0  0  0  0  0
  141.8420   78.7440  222.2560 C   0  0  0  0  0  0  0  0  0  0  0  0
  142.6960   79.4440  223.1020 C   0  0  0  0  0  0  0  0  0  0  0  0
  142.1600   80.5380  223.7550 C   0  0  0  0  0  0  0  0  0  0  0  0
  140.8380   80.8590  223.5290 C   0  0  0  0  0  0  0  0  0  0  0  0
  140.0290   80.1690  222.7070 N   0  0  0  0  0  0  0  0  0  0  0  0
  139.8200   72.2070  222.4380 C   0  0  0  0  0  0  0  0  0  0  0  0
  138.8610   71.2260  222.2790 C   0  0  0  0  0  0  0  0  0  0  0  0
  138.6860   70.3080  223.3200 C   0  0  0  0  0  0  0  0  0  0  0  0
  139.4680   70.4200  224.4480 C   0  0  0  0  0  0  0  0  0  0  0  0
  139.3280   69.5300  225.5060 C   0  0  0  0  0  0  0  0  0  0  0  0
  140.1160   69.6410  226.6480 C   0  0  0  0  0  0  0  0  0  0  0  0
  139.9570   68.6800  227.7770 C   0  0  0  0  0  0  0  0  0  0  0  0
  139.3190   67.5510  227.3150 F   0  0  0  0  0  0  0  0  0  0  0  0
  141.2050   68.2870  228.2450 F   0  0  0  0  0  0  0  0  0  0  0  0
  139.2410   69.2760  228.7770 F   0  0  0  0  0  0  0  0  0  0  0  0
  141.0480   70.6350  226.7440 C   0  0  0  0  0  0  0  0  0  0  0  0
  141.2180   71.5340  225.7180 C   0  0  0  0  0  0  0  0  0  0  0  0
  140.4320   71.4140  224.5950 C   0  0  0  0  0  0  0  0  0  0  0  0
  140.5540   72.2660  223.5630 N   0  0  0  0  0  0  0  0  0  0  0  0
  141.7690   73.9850  222.3060 H   0  0  0  0  0  0  0  0  0  0  0  0
  142.3786   75.3262  220.4217 H   0  0  0  0  0  0  0  0  0  0  0  0
  140.9400   74.4849  219.5356 H   0  0  0  0  0  0  0  0  0  0  0  0
  139.3251   75.1623  222.4409 H   0  0  0  0  0  0  0  0  0  0  0  0
  139.8143   76.5445  223.4498 H   0  0  0  0  0  0  0  0  0  0  0  0
  137.2076   76.3342  221.7949 H   0  0  0  0  0  0  0  0  0  0  0  0
  137.3096   76.2143  223.5665 H   0  0  0  0  0  0  0  0  0  0  0  0
  136.7278   78.5212  223.0141 H   0  0  0  0  0  0  0  0  0  0  0  0
  138.4138   78.5411  223.5585 H   0  0  0  0  0  0  0  0  0  0  0  0
  137.5526   78.2077  220.6097 H   0  0  0  0  0  0  0  0  0  0  0  0
  138.0168   79.7801  221.3383 H   0  0  0  0  0  0  0  0  0  0  0  0
  139.8811   78.6665  220.1353 H   0  0  0  0  0  0  0  0  0  0  0  0
  142.2303   77.8667  221.7179 H   0  0  0  0  0  0  0  0  0  0  0  0
  143.7442   79.1423  223.2441 H   0  0  0  0  0  0  0  0  0  0  0  0
  142.7749   81.1398  224.4404 H   0  0  0  0  0  0  0  0  0  0  0  0
  140.4208   81.7317  224.0527 H   0  0  0  0  0  0  0  0  0  0  0  0
  138.2543   71.1683  221.3633 H   0  0  0  0  0  0  0  0  0  0  0  0
  137.9349   69.5085  223.2387 H   0  0  0  0  0  0  0  0  0  0  0  0
  138.5820   68.7243  225.4399 H   0  0  0  0  0  0  0  0  0  0  0  0
  141.6674   70.7167  227.6494 H   0  0  0  0  0  0  0  0  0  0  0  0
  141.9686   72.3346  225.7934 H   0  0  0  0  0  0  0  0  0  0  0  0
  1  2  2  0
  2  3  1  0
  3  4  1  0
  4  5  1  0
  5  6  2  0
  5  7  1  0
  7  8  1  0
  8  9  1  0
  9 10  1  0
 10 11  1  0
 11 12  1  0
 12 13  1  0
 13 14  2  0
 14 15  1  0
 15 16  2  0
 16 17  1  0
 17 18  2  0
  2 19  1  0
 19 20  2  0
 20 21  1  0
 21 22  2  0
 22 23  1  0
 23 24  2  0
 24 25  1  0
 25 26  1  0
 25 27  1  0
 25 28  1  0
 24 29  1  0
 29 30  2  0
 30 31  1  0
 31 32  2  0
 12  7  1  0
 18 13  1  0
 32 19  1  0
 31 22  1  0
  3 33  1  0
  4 34  1  0
  4 35  1  0
  8 36  1  0
  8 37  1  0
  9 38  1  0
  9 39  1  0
 10 40  1  0
 10 41  1  0
 11 42  1  0
 11 43  1  0
 12 44  1  6
 14 45  1  0
 15 46  1  0
 16 47  1  0
 17 48  1  0
 20 49  1  0
 21 50  1  0
 23 51  1  0
 29 52  1  0
 30 53  1  0
M  END
>  <smiles>  (75) 
O=C(NCC(=O)N1CCCCC1c1ccccn1)c1ccc2cc(C(F)(F)F)ccc2n1

>  <score_type>  (75) 
oracle

>  <origin>  (75) 
autodockgpu

>  <m_score__min__energy>  (75) 
-8.1699999999999999

>  <m_primary>  (75) 
energy

>  <rmsd>  (75) 
3.3994201099131223

>  <m_score__min__rmsd>  (75) 
3.3994201099131223

>  <meeko>  (75) 
{"free_energy": -7.16, "intermolecular_energy": -8.95, "internal_energy": -2.02, "cluster_size": 22, "cluster_id": 1, "rank_in_cluster": 20}

>  <energy>  (75) 
-8.01

>  <cluster_rmsd>  (75) 
0.63

>  <cluster>  (75) 
2

$$$$

     RDKit          3D

 53 56  0  0  0  0  0  0  0  0999 V2000
  138.6340   73.9510  220.4080 O   0  0  0  0  0  0  0  0  0  0  0  0
  139.4170   73.8390  221.4130 C   0  0  0  0  0  0  0  0  0  0  0  0
  140.4090   74.8520  221.6670 N   0  0  0  0  0  0  0  0  0  0  0  0
  140.4630   75.9550  220.7610 C   0  0  0  0  0  0  0  0  0  0  0  0
  141.4190   77.0170  220.9420 C   0  0  0  0  0  0  0  0  0  0  0  0
  142.5630   76.8180  220.3470 O   0  0  0  0  0  0  0  0  0  0  0  0
  141.3480   78.2460  221.6490 N   0  0  0  0  0  0  0  0  0  0  0  0
  141.6340   79.5380  221.0530 C   0  0  0  0  0  0  0  0  0  0  0  0
  142.5690   80.2900  222.0210 C   0  0  0  0  0  0  0  0  0  0  0  0
  141.8500   80.3880  223.3410 C   0  0  0  0  0  0  0  0  0  0  0  0
  141.7940   78.9590  223.9020 C   0  0  0  0  0  0  0  0  0  0  0  0
  140.8790   78.1300  223.0490 C   0  0  1  0  0  0  0  0  0  0  0  0
  139.4600   78.5590  223.1350 C   0  0  0  0  0  0  0  0  0  0  0  0
  138.4300   77.8290  222.5680 C   0  0  0  0  0  0  0  0  0  0  0  0
  137.1000   78.2280  222.6530 C   0  0  0  0  0  0  0  0  0  0  0  0
  136.8490   79.4020  223.3370 C   0  0  0  0  0  0  0  0  0  0  0  0
  137.9130   80.0900  223.8820 C   0  0  0  0  0  0  0  0  0  0  0  0
  139.1910   79.6870  223.7880 N   0  0  0  0  0  0  0  0  0  0  0  0
  139.3280   72.6960  222.3180 C   0  0  0  0  0  0  0  0  0  0  0  0
  138.3590   71.7360  222.1060 C   0  0  0  0  0  0  0  0  0  0  0  0
  138.3010   70.6590  222.9980 C   0  0  0  0  0  0  0  0  0  0  0  0
  139.2020   70.6030  224.0370 C   0  0  0  0  0  0  0  0  0  0  0  0
  139.1810   69.5520  224.9460 C   0  0  0  0  0  0  0  0  0  0  0  0
  140.0900   69.4920  225.9990 C   0  0  0  0  0  0  0  0  0  0  0  0
  140.0570   68.3600  226.9680 C   0  0  0  0  0  0  0  0  0  0  0  0
  139.2090   67.3870  226.4870 F   0  0  0  0  0  0  0  0  0  0  0  0
  141.3200   67.7900  227.0740 F   0  0  0  0  0  0  0  0  0  0  0  0
  139.6390   68.8200  228.1840 F   0  0  0  0  0  0  0  0  0  0  0  0
  141.0250   70.4760  226.1530 C   0  0  0  0  0  0  0  0  0  0  0  0
  141.0790   71.5320  225.2750 C   0  0  0  0  0  0  0  0  0  0  0  0
  140.1750   71.5790  224.2380 C   0  0  0  0  0  0  0  0  0  0  0  0
  140.1820   72.5880  223.3520 N   0  0  0  0  0  0  0  0  0  0  0  0
  141.0250   74.7130  222.5000 H   0  0  0  0  0  0  0  0  0  0  0  0
  140.6511   75.5315  219.7634 H   0  0  0  0  0  0  0  0  0  0  0  0
  139.5025   76.4611  220.9382 H   0  0  0  0  0  0  0  0  0  0  0  0
  142.1288   79.4029  220.0799 H   0  0  0  0  0  0  0  0  0  0  0  0
  140.7063   80.1052  220.8868 H   0  0  0  0  0  0  0  0  0  0  0  0
  143.5107   79.7350  222.1441 H   0  0  0  0  0  0  0  0  0  0  0  0
  142.8144   81.2895  221.6326 H   0  0  0  0  0  0  0  0  0  0  0  0
  142.4013   81.0467  224.0282 H   0  0  0  0  0  0  0  0  0  0  0  0
  140.8423   80.8121  223.2195 H   0  0  0  0  0  0  0  0  0  0  0  0
  142.8028   78.5205  223.8934 H   0  0  0  0  0  0  0  0  0  0  0  0
  141.4167   78.9818  224.9350 H   0  0  0  0  0  0  0  0  0  0  0  0
  140.9120   77.0912  223.4093 H   0  0  0  0  0  0  0  0  0  0  0  0
  138.6716   76.9000  222.0308 H   0  0  0  0  0  0  0  0  0  0  0  0
  136.2896   77.6389  222.1989 H   0  0  0  0  0  0  0  0  0  0  0  0
  135.8217   79.7802  223.4447 H   0  0  0  0  0  0  0  0  0  0  0  0
  137.7028   81.0231  224.4253 H   0  0  0  0  0  0  0  0  0  0  0  0
  137.6557   71.8148  221.2639 H   0  0  0  0  0  0  0  0  0  0  0  0
  137.5464   69.8689  222.8705 H   0  0  0  0  0  0  0  0  0  0  0  0
  138.4331   68.7535  224.8316 H   0  0  0  0  0  0  0  0  0  0  0  0
  141.7406   70.4227  226.9867 H   0  0  0  0  0  0  0  0  0  0  0  0
  141.8310   72.3252  225.3987 H   0  0  0  0  0  0  0  0  0  0  0  0
  1  2  2  0
  2  3  1  0
  3  4  1  0
  4  5  1  0
  5  6  2  0
  5  7  1  0
  7  8  1  0
  8  9  1  0
  9 10  1  0
 10 11  1  0
 11 12  1  0
 12 13  1  0
 13 14  2  0
 14 15  1  0
 15 16  2  0
 16 17  1  0
 17 18  2  0
  2 19  1  0
 19 20  2  0
 20 21  1  0
 21 22  2  0
 22 23  1  0
 23 24  2  0
 24 25  1  0
 25 26  1  0
 25 27  1  0
 25 28  1  0
 24 29  1  0
 29 30  2  0
 30 31  1  0
 31 32  2  0
 12  7  1  0
 18 13  1  0
 32 19  1  0
 31 22  1  0
  3 33  1  0
  4 34  1  0
  4 35  1  0
  8 36  1  0
  8 37  1  0
  9 38  1  0
  9 39  1  0
 10 40  1  0
 10 41  1  0
 11 42  1  0
 11 43  1  0
 12 44  1  1
 14 45  1  0
 15 46  1  0
 16 47  1  0
 17 48  1  0
 20 49  1  0
 21 50  1  0
 23 51  1  0
 29 52  1  0
 30 53  1  0
M  END
>  <smiles>  (76) 
O=C(NCC(=O)N1CCCCC1c1ccccn1)c1ccc2cc(C(F)(F)F)ccc2n1

>  <score_type>  (76) 
oracle

>  <origin>  (76) 
autodockgpu

>  <m_score__min__energy>  (76) 
-8.1699999999999999

>  <m_primary>  (76) 
energy

>  <rmsd>  (76) 
4.2453060267396925

>  <m_score__min__rmsd>  (76) 
4.2453060267396925

>  <meeko>  (76) 
{"free_energy": -7.41, "intermolecular_energy": -9.2, "internal_energy": -1.77, "cluster_size": 22, "cluster_id": 1, "rank_in_cluster": 18}

>  <energy>  (76) 
-7.96

>  <cluster_rmsd>  (76) 
0.68

>  <cluster>  (76) 
2

$$$$

     RDKit          3D

 53 56  0  0  0  0  0  0  0  0999 V2000
  140.6490   73.9520  221.0170 O   0  0  0  0  0  0  0  0  0  0  0  0
  139.7840   73.8050  221.9470 C   0  0  0  0  0  0  0  0  0  0  0  0
  138.8670   74.8740  222.2510 N   0  0  0  0  0  0  0  0  0  0  0  0
  138.9780   76.0680  221.4760 C   0  0  0  0  0  0  0  0  0  0  0  0
  139.1840   77.3460  222.1090 C   0  0  0  0  0  0  0  0  0  0  0  0
  138.1210   77.8370  222.6850 O   0  0  0  0  0  0  0  0  0  0  0  0
  140.3320   78.1740  222.2230 N   0  0  0  0  0  0  0  0  0  0  0  0
  141.4520   77.8830  223.0990 C   0  0  0  0  0  0  0  0  0  0  0  0
  141.7840   79.1810  223.8610 C   0  0  0  0  0  0  0  0  0  0  0  0
  142.0910   80.2330  222.8270 C   0  0  0  0  0  0  0  0  0  0  0  0
  140.7610   80.5380  222.1210 C   0  0  0  0  0  0  0  0  0  0  0  0
  140.3460   79.3420  221.3140 C   0  0  1  0  0  0  0  0  0  0  0  0
  141.2560   79.0710  220.1710 C   0  0  0  0  0  0  0  0  0  0  0  0
  141.7260   80.0770  219.3450 C   0  0  0  0  0  0  0  0  0  0  0  0
  142.5820   79.8250  218.2780 C   0  0  0  0  0  0  0  0  0  0  0  0
  142.9480   78.5080  218.0770 C   0  0  0  0  0  0  0  0  0  0  0  0
  142.4490   77.5460  218.9300 C   0  0  0  0  0  0  0  0  0  0  0  0
  141.6230   77.8110  219.9550 N   0  0  0  0  0  0  0  0  0  0  0  0
  139.7020   72.5660  222.7150 C   0  0  0  0  0  0  0  0  0  0  0  0
  138.8040   71.5880  222.3350 C   0  0  0  0  0  0  0  0  0  0  0  0
  138.7510   70.4170  223.0990 C   0  0  0  0  0  0  0  0  0  0  0  0
  139.5850   70.2900  224.1870 C   0  0  0  0  0  0  0  0  0  0  0  0
  139.5660   69.1440  224.9730 C   0  0  0  0  0  0  0  0  0  0  0  0
  140.4080   69.0130  226.0740 C   0  0  0  0  0  0  0  0  0  0  0  0
  140.3780   67.7790  226.9100 C   0  0  0  0  0  0  0  0  0  0  0  0
  139.2090   67.7620  227.6380 F   0  0  0  0  0  0  0  0  0  0  0  0
  140.3720   66.6540  226.0950 F   0  0  0  0  0  0  0  0  0  0  0  0
  141.4700   67.7650  227.7310 F   0  0  0  0  0  0  0  0  0  0  0  0
  141.2750   70.0170  226.3970 C   0  0  0  0  0  0  0  0  0  0  0  0
  141.3250   71.1660  225.6430 C   0  0  0  0  0  0  0  0  0  0  0  0
  140.4870   71.2840  224.5580 C   0  0  0  0  0  0  0  0  0  0  0  0
  140.4940   72.3840  223.7880 N   0  0  0  0  0  0  0  0  0  0  0  0
  138.1810   74.7030  223.0200 H   0  0  0  0  0  0  0  0  0  0  0  0
  139.8249   75.9183  220.7901 H   0  0  0  0  0  0  0  0  0  0  0  0
  137.9717   76.1709  221.0439 H   0  0  0  0  0  0  0  0  0  0  0  0
  141.1786   77.0886  223.8090 H   0  0  0  0  0  0  0  0  0  0  0  0
  142.3209   77.5370  222.5200 H   0  0  0  0  0  0  0  0  0  0  0  0
  140.9232   79.4913  224.4715 H   0  0  0  0  0  0  0  0  0  0  0  0
  142.6401   79.0321  224.5354 H   0  0  0  0  0  0  0  0  0  0  0  0
  142.4835   81.1400  223.3101 H   0  0  0  0  0  0  0  0  0  0  0  0
  142.8536   79.8854  222.1145 H   0  0  0  0  0  0  0  0  0  0  0  0
  139.9886   80.7616  222.8716 H   0  0  0  0  0  0  0  0  0  0  0  0
  140.8849   81.4069  221.4579 H   0  0  0  0  0  0  0  0  0  0  0  0
  139.3536   79.5393  220.8824 H   0  0  0  0  0  0  0  0  0  0  0  0
  141.4114   81.1130  219.5392 H   0  0  0  0  0  0  0  0  0  0  0  0
  142.9487   80.6328  217.6276 H   0  0  0  0  0  0  0  0  0  0  0  0
  143.6234   78.2324  217.2537 H   0  0  0  0  0  0  0  0  0  0  0  0
  142.7450   76.5002  218.7607 H   0  0  0  0  0  0  0  0  0  0  0  0
  138.1516   71.7252  221.4601 H   0  0  0  0  0  0  0  0  0  0  0  0
  138.0529   69.6093  222.8341 H   0  0  0  0  0  0  0  0  0  0  0  0
  138.8741   68.3268  224.7210 H   0  0  0  0  0  0  0  0  0  0  0  0
  141.9387   69.9060  227.2671 H   0  0  0  0  0  0  0  0  0  0  0  0
  142.0223   71.9761  225.9026 H   0  0  0  0  0  0  0  0  0  0  0  0
  1  2  2  0
  2  3  1  0
  3  4  1  0
  4  5  1  0
  5  6  2  0
  5  7  1  0
  7  8  1  0
  8  9  1  0
  9 10  1  0
 10 11  1  0
 11 12  1  0
 12 13  1  0
 13 14  2  0
 14 15  1  0
 15 16  2  0
 16 17  1  0
 17 18  2  0
  2 19  1  0
 19 20  2  0
 20 21  1  0
 21 22  2  0
 22 23  1  0
 23 24  2  0
 24 25  1  0
 25 26  1  0
 25 27  1  0
 25 28  1  0
 24 29  1  0
 29 30  2  0
 30 31  1  0
 31 32  2  0
 12  7  1  0
 18 13  1  0
 32 19  1  0
 31 22  1  0
  3 33  1  0
  4 34  1  0
  4 35  1  0
  8 36  1  0
  8 37  1  0
  9 38  1  0
  9 39  1  0
 10 40  1  0
 10 41  1  0
 11 42  1  0
 11 43  1  0
 12 44  1  6
 14 45  1  0
 15 46  1  0
 16 47  1  0
 17 48  1  0
 20 49  1  0
 21 50  1  0
 23 51  1  0
 29 52  1  0
 30 53  1  0
M  END
>  <smiles>  (77) 
O=C(NCC(=O)N1CCCCC1c1ccccn1)c1ccc2cc(C(F)(F)F)ccc2n1

>  <score_type>  (77) 
oracle

>  <origin>  (77) 
autodockgpu

>  <m_score__min__energy>  (77) 
-8.1699999999999999

>  <m_primary>  (77) 
energy

>  <rmsd>  (77) 
3.8275574613871637

>  <m_score__min__rmsd>  (77) 
3.8275574613871637

>  <meeko>  (77) 
{"free_energy": -7.95, "intermolecular_energy": -9.74, "internal_energy": -1.6, "cluster_size": 7, "cluster_id": 2, "rank_in_cluster": 5}

>  <energy>  (77) 
-7.95

>  <cluster_rmsd>  (77) 
0.57

>  <cluster>  (77) 
2

$$$$

     RDKit          3D

 53 56  0  0  0  0  0  0  0  0999 V2000
  139.1410   73.8810  220.0180 O   0  0  0  0  0  0  0  0  0  0  0  0
  139.6290   73.8670  221.1990 C   0  0  0  0  0  0  0  0  0  0  0  0
  140.2180   75.0630  221.7470 N   0  0  0  0  0  0  0  0  0  0  0  0
  140.2220   76.2260  220.9190 C   0  0  0  0  0  0  0  0  0  0  0  0
  141.4510   76.7370  220.3660 C   0  0  0  0  0  0  0  0  0  0  0  0
  141.8180   77.8920  220.8480 O   0  0  0  0  0  0  0  0  0  0  0  0
  142.3410   76.2140  219.3910 N   0  0  0  0  0  0  0  0  0  0  0  0
  143.2940   77.0230  218.6520 C   0  0  0  0  0  0  0  0  0  0  0  0
  143.1700   76.6320  217.1670 C   0  0  0  0  0  0  0  0  0  0  0  0
  143.4450   75.1530  217.0760 C   0  0  0  0  0  0  0  0  0  0  0  0
  142.2540   74.4560  217.7520 C   0  0  0  0  0  0  0  0  0  0  0  0
  142.2860   74.7440  219.2250 C   0  0  1  0  0  0  0  0  0  0  0  0
  143.4470   74.1230  219.9120 C   0  0  0  0  0  0  0  0  0  0  0  0
  143.4890   72.7750  220.2230 C   0  0  0  0  0  0  0  0  0  0  0  0
  144.5790   72.1920  220.8610 C   0  0  0  0  0  0  0  0  0  0  0  0
  145.6330   73.0290  221.1740 C   0  0  0  0  0  0  0  0  0  0  0  0
  145.5380   74.3630  220.8410 C   0  0  0  0  0  0  0  0  0  0  0  0
  144.4760   74.9070  220.2250 N   0  0  0  0  0  0  0  0  0  0  0  0
  139.6010   72.6570  222.0150 C   0  0  0  0  0  0  0  0  0  0  0  0
  138.9260   71.5430  221.5560 C   0  0  0  0  0  0  0  0  0  0  0  0
  138.9180   70.4040  222.3680 C   0  0  0  0  0  0  0  0  0  0  0  0
  139.5740   70.4400  223.5780 C   0  0  0  0  0  0  0  0  0  0  0  0
  139.5920   69.3320  224.4160 C   0  0  0  0  0  0  0  0  0  0  0  0
  140.2550   69.3650  225.6390 C   0  0  0  0  0  0  0  0  0  0  0  0
  140.2660   68.1700  226.5300 C   0  0  0  0  0  0  0  0  0  0  0  0
  141.5040   67.5710  226.4570 F   0  0  0  0  0  0  0  0  0  0  0  0
  140.0740   68.5590  227.8500 F   0  0  0  0  0  0  0  0  0  0  0  0
  139.2790   67.3090  226.1400 F   0  0  0  0  0  0  0  0  0  0  0  0
  140.9050   70.4990  226.0360 C   0  0  0  0  0  0  0  0  0  0  0  0
  140.9120   71.6160  225.2350 C   0  0  0  0  0  0  0  0  0  0  0  0
  140.2530   71.5700  224.0270 C   0  0  0  0  0  0  0  0  0  0  0  0
  140.2260   72.6330  223.2060 N   0  0  0  0  0  0  0  0  0  0  0  0
  140.6020   74.9980  222.7170 H   0  0  0  0  0  0  0  0  0  0  0  0
  139.5627   76.0057  220.0665 H   0  0  0  0  0  0  0  0  0  0  0  0
  139.9202   77.0215  221.6162 H   0  0  0  0  0  0  0  0  0  0  0  0
  143.0620   78.0905  218.7811 H   0  0  0  0  0  0  0  0  0  0  0  0
  144.3174   76.8507  219.0166 H   0  0  0  0  0  0  0  0  0  0  0  0
  142.1555   76.8507  216.8023 H   0  0  0  0  0  0  0  0  0  0  0  0
  143.8807   77.2020  216.5505 H   0  0  0  0  0  0  0  0  0  0  0  0
  143.5216   74.8429  216.0234 H   0  0  0  0  0  0  0  0  0  0  0  0
  144.3948   74.8899  217.5645 H   0  0  0  0  0  0  0  0  0  0  0  0
  141.3143   74.8344  217.3233 H   0  0  0  0  0  0  0  0  0  0  0  0
  142.3175   73.3705  217.5858 H   0  0  0  0  0  0  0  0  0  0  0  0
  141.3849   74.3113  219.6842 H   0  0  0  0  0  0  0  0  0  0  0  0
  142.6298   72.1421  219.9562 H   0  0  0  0  0  0  0  0  0  0  0  0
  144.6008   71.1194  221.1039 H   0  0  0  0  0  0  0  0  0  0  0  0
  146.5292   72.6387  221.6784 H   0  0  0  0  0  0  0  0  0  0  0  0
  146.3821   75.0211  221.0949 H   0  0  0  0  0  0  0  0  0  0  0  0
  138.4115   71.5511  220.5838 H   0  0  0  0  0  0  0  0  0  0  0  0
  138.3948   69.4921  222.0443 H   0  0  0  0  0  0  0  0  0  0  0  0
  139.0730   68.4125  224.1073 H   0  0  0  0  0  0  0  0  0  0  0  0
  141.4268   70.5184  227.0041 H   0  0  0  0  0  0  0  0  0  0  0  0
  141.4346   72.5301  225.5533 H   0  0  0  0  0  0  0  0  0  0  0  0
  1  2  2  0
  2  3  1  0
  3  4  1  0
  4  5  1  0
  5  6  2  0
  5  7  1  0
  7  8  1  0
  8  9  1  0
  9 10  1  0
 10 11  1  0
 11 12  1  0
 12 13  1  0
 13 14  2  0
 14 15  1  0
 15 16  2  0
 16 17  1  0
 17 18  2  0
  2 19  1  0
 19 20  2  0
 20 21  1  0
 21 22  2  0
 22 23  1  0
 23 24  2  0
 24 25  1  0
 25 26  1  0
 25 27  1  0
 25 28  1  0
 24 29  1  0
 29 30  2  0
 30 31  1  0
 31 32  2  0
 12  7  1  0
 18 13  1  0
 32 19  1  0
 31 22  1  0
  3 33  1  0
  4 34  1  0
  4 35  1  0
  8 36  1  0
  8 37  1  0
  9 38  1  0
  9 39  1  0
 10 40  1  0
 10 41  1  0
 11 42  1  0
 11 43  1  0
 12 44  1  1
 14 45  1  0
 15 46  1  0
 16 47  1  0
 17 48  1  0
 20 49  1  0
 21 50  1  0
 23 51  1  0
 29 52  1  0
 30 53  1  0
M  END
>  <smiles>  (78) 
O=C(NCC(=O)N1CCCCC1c1ccccn1)c1ccc2cc(C(F)(F)F)ccc2n1

>  <score_type>  (78) 
oracle

>  <origin>  (78) 
autodockgpu

>  <m_score__min__energy>  (78) 
-8.1699999999999999

>  <m_primary>  (78) 
energy

>  <rmsd>  (78) 
4.672079352259634

>  <m_score__min__rmsd>  (78) 
4.672079352259634

>  <meeko>  (78) 
{"free_energy": -6.56, "intermolecular_energy": -8.35, "internal_energy": -2.35, "cluster_size": 7, "cluster_id": 3, "rank_in_cluster": 7}

>  <energy>  (78) 
-7.88

>  <cluster_rmsd>  (78) 
0.78

>  <cluster>  (78) 
2

$$$$

     RDKit          3D

 53 56  0  0  0  0  0  0  0  0999 V2000
  140.5030   73.3250  220.4670 O   0  0  0  0  0  0  0  0  0  0  0  0
  139.9860   74.1910  221.2530 C   0  0  0  0  0  0  0  0  0  0  0  0
  138.9340   73.8020  222.1580 N   0  0  0  0  0  0  0  0  0  0  0  0
  138.5190   72.4360  222.1270 C   0  0  0  0  0  0  0  0  0  0  0  0
  139.3720   71.3910  222.6340 C   0  0  0  0  0  0  0  0  0  0  0  0
  140.5200   71.8090  223.0910 O   0  0  0  0  0  0  0  0  0  0  0  0
  139.1940   69.9850  222.7300 N   0  0  0  0  0  0  0  0  0  0  0  0
  139.7560   69.0340  221.7890 C   0  0  0  0  0  0  0  0  0  0  0  0
  138.6320   68.0530  221.4070 C   0  0  0  0  0  0  0  0  0  0  0  0
  138.1510   67.4140  222.6840 C   0  0  0  0  0  0  0  0  0  0  0  0
  137.4340   68.5230  223.4700 C   0  0  0  0  0  0  0  0  0  0  0  0
  138.4440   69.5360  223.9250 C   0  0  1  0  0  0  0  0  0  0  0  0
  139.3920   68.9950  224.9330 C   0  0  0  0  0  0  0  0  0  0  0  0
  140.4560   69.7350  225.4190 C   0  0  0  0  0  0  0  0  0  0  0  0
  141.3410   69.2310  226.3670 C   0  0  0  0  0  0  0  0  0  0  0  0
  141.1080   67.9420  226.8080 C   0  0  0  0  0  0  0  0  0  0  0  0
  140.0330   67.2510  226.2890 C   0  0  0  0  0  0  0  0  0  0  0  0
  139.1900   67.7560  225.3740 N   0  0  0  0  0  0  0  0  0  0  0  0
  140.4410   75.5780  221.2550 C   0  0  0  0  0  0  0  0  0  0  0  0
  141.4710   75.9570  220.4170 C   0  0  0  0  0  0  0  0  0  0  0  0
  141.8830   77.2940  220.4510 C   0  0  0  0  0  0  0  0  0  0  0  0
  141.2530   78.1650  221.3110 C   0  0  0  0  0  0  0  0  0  0  0  0
  141.6300   79.5010  221.3780 C   0  0  0  0  0  0  0  0  0  0  0  0
  140.9960   80.3850  222.2460 C   0  0  0  0  0  0  0  0  0  0  0  0
  141.4090   81.8160  222.3090 C   0  0  0  0  0  0  0  0  0  0  0  0
  140.2810   82.6050  222.3440 F   0  0  0  0  0  0  0  0  0  0  0  0
  142.1160   82.0540  223.4820 F   0  0  0  0  0  0  0  0  0  0  0  0
  142.1820   82.1090  221.2210 F   0  0  0  0  0  0  0  0  0  0  0  0
  139.9830   79.9470  223.0510 C   0  0  0  0  0  0  0  0  0  0  0  0
  139.5800   78.6330  223.0140 C   0  0  0  0  0  0  0  0  0  0  0  0
  140.2150   77.7690  222.1510 C   0  0  0  0  0  0  0  0  0  0  0  0
  139.8630   76.4750  222.0740 N   0  0  0  0  0  0  0  0  0  0  0  0
  138.5450   74.5470  222.7780 H   0  0  0  0  0  0  0  0  0  0  0  0
  137.5816   72.3805  222.6999 H   0  0  0  0  0  0  0  0  0  0  0  0
  138.4824   72.2179  221.0495 H   0  0  0  0  0  0  0  0  0  0  0  0
  140.1182   69.5595  220.8931 H   0  0  0  0  0  0  0  0  0  0  0  0
  140.6065   68.4985  222.2360 H   0  0  0  0  0  0  0  0  0  0  0  0
  137.8068   68.5947  220.9217 H   0  0  0  0  0  0  0  0  0  0  0  0
  138.9981   67.2925  220.7016 H   0  0  0  0  0  0  0  0  0  0  0  0
  137.4545   66.5922  222.4612 H   0  0  0  0  0  0  0  0  0  0  0  0
  138.9856   66.9877  223.2599 H   0  0  0  0  0  0  0  0  0  0  0  0
  136.6896   69.0103  222.8231 H   0  0  0  0  0  0  0  0  0  0  0  0
  136.9264   68.0883  224.3437 H   0  0  0  0  0  0  0  0  0  0  0  0
  137.9116   70.3662  224.4122 H   0  0  0  0  0  0  0  0  0  0  0  0
  140.6072   70.7575  225.0425 H   0  0  0  0  0  0  0  0  0  0  0  0
  142.1834   69.8281  226.7463 H   0  0  0  0  0  0  0  0  0  0  0  0
  141.7659   67.4771  227.5570 H   0  0  0  0  0  0  0  0  0  0  0  0
  139.8558   66.2257  226.6458 H   0  0  0  0  0  0  0  0  0  0  0  0
  141.9521   75.2315  219.7445 H   0  0  0  0  0  0  0  0  0  0  0  0
  142.6980   77.6437  219.8003 H   0  0  0  0  0  0  0  0  0  0  0  0
  142.4435   79.8660  220.7339 H   0  0  0  0  0  0  0  0  0  0  0  0
  139.4857   80.6512  223.7343 H   0  0  0  0  0  0  0  0  0  0  0  0
  138.7650   78.2787  223.6623 H   0  0  0  0  0  0  0  0  0  0  0  0
  1  2  2  0
  2  3  1  0
  3  4  1  0
  4  5  1  0
  5  6  2  0
  5  7  1  0
  7  8  1  0
  8  9  1  0
  9 10  1  0
 10 11  1  0
 11 12  1  0
 12 13  1  0
 13 14  2  0
 14 15  1  0
 15 16  2  0
 16 17  1  0
 17 18  2  0
  2 19  1  0
 19 20  2  0
 20 21  1  0
 21 22  2  0
 22 23  1  0
 23 24  2  0
 24 25  1  0
 25 26  1  0
 25 27  1  0
 25 28  1  0
 24 29  1  0
 29 30  2  0
 30 31  1  0
 31 32  2  0
 12  7  1  0
 18 13  1  0
 32 19  1  0
 31 22  1  0
  3 33  1  0
  4 34  1  0
  4 35  1  0
  8 36  1  0
  8 37  1  0
  9 38  1  0
  9 39  1  0
 10 40  1  0
 10 41  1  0
 11 42  1  0
 11 43  1  0
 12 44  1  1
 14 45  1  0
 15 46  1  0
 16 47  1  0
 17 48  1  0
 20 49  1  0
 21 50  1  0
 23 51  1  0
 29 52  1  0
 30 53  1  0
M  END
>  <smiles>  (79) 
O=C(NCC(=O)N1CCCCC1c1ccccn1)c1ccc2cc(C(F)(F)F)ccc2n1

>  <score_type>  (79) 
oracle

>  <origin>  (79) 
autodockgpu

>  <m_score__min__energy>  (79) 
-8.1699999999999999

>  <m_primary>  (79) 
energy

>  <rmsd>  (79) 
9.31531733587256

>  <m_score__min__rmsd>  (79) 
9.31531733587256

>  <meeko>  (79) 
{"free_energy": -7.42, "intermolecular_energy": -9.21, "internal_energy": -1.76, "cluster_size": 1, "cluster_id": 5, "rank_in_cluster": 1}

>  <energy>  (79) 
-7.71

>  <cluster_rmsd>  (79) 
0.82

>  <cluster>  (79) 
2

$$$$

     RDKit          3D

 53 56  0  0  0  0  0  0  0  0999 V2000
  140.5010   74.0430  220.9730 O   0  0  0  0  0  0  0  0  0  0  0  0
  139.6590   73.8540  221.9170 C   0  0  0  0  0  0  0  0  0  0  0  0
  138.7140   74.8880  222.2550 N   0  0  0  0  0  0  0  0  0  0  0  0
  138.7710   76.0960  221.4960 C   0  0  0  0  0  0  0  0  0  0  0  0
  139.1960   77.3320  222.1030 C   0  0  0  0  0  0  0  0  0  0  0  0
  138.2690   77.9390  222.7920 O   0  0  0  0  0  0  0  0  0  0  0  0
  140.4410   78.0150  222.0920 N   0  0  0  0  0  0  0  0  0  0  0  0
  141.4500   77.8710  223.1250 C   0  0  0  0  0  0  0  0  0  0  0  0
  141.9150   79.2880  223.5100 C   0  0  0  0  0  0  0  0  0  0  0  0
  142.4350   79.9390  222.2540 C   0  0  0  0  0  0  0  0  0  0  0  0
  141.2090   80.1720  221.3580 C   0  0  0  0  0  0  0  0  0  0  0  0
  140.6800   78.8480  220.8910 C   0  0  1  0  0  0  0  0  0  0  0  0
  141.6130   78.1420  219.9750 C   0  0  0  0  0  0  0  0  0  0  0  0
  142.0460   78.7000  218.7850 C   0  0  0  0  0  0  0  0  0  0  0  0
  142.9230   78.0420  217.9300 C   0  0  0  0  0  0  0  0  0  0  0  0
  143.3500   76.7890  218.3260 C   0  0  0  0  0  0  0  0  0  0  0  0
  142.8870   76.2800  219.5210 C   0  0  0  0  0  0  0  0  0  0  0  0
  142.0380   76.9330  220.3330 N   0  0  0  0  0  0  0  0  0  0  0  0
  139.6320   72.6010  222.6670 C   0  0  0  0  0  0  0  0  0  0  0  0
  138.8800   71.5440  222.1970 C   0  0  0  0  0  0  0  0  0  0  0  0
  138.8750   70.3610  222.9450 C   0  0  0  0  0  0  0  0  0  0  0  0
  139.6110   70.3030  224.1070 C   0  0  0  0  0  0  0  0  0  0  0  0
  139.6340   69.1500  224.8820 C   0  0  0  0  0  0  0  0  0  0  0  0
  140.3780   69.0870  226.0570 C   0  0  0  0  0  0  0  0  0  0  0  0
  140.3950   67.8440  226.8800 C   0  0  0  0  0  0  0  0  0  0  0  0
  139.2200   67.1560  226.6720 F   0  0  0  0  0  0  0  0  0  0  0  0
  141.4350   67.0190  226.4700 F   0  0  0  0  0  0  0  0  0  0  0  0
  140.5440   68.1780  228.1960 F   0  0  0  0  0  0  0  0  0  0  0  0
  141.1020   70.1700  226.4680 C   0  0  0  0  0  0  0  0  0  0  0  0
  141.1050   71.3290  225.7290 C   0  0  0  0  0  0  0  0  0  0  0  0
  140.3660   71.3780  224.5690 C   0  0  0  0  0  0  0  0  0  0  0  0
  140.3330   72.4850  223.8090 N   0  0  0  0  0  0  0  0  0  0  0  0
  138.0490   74.6830  223.0340 H   0  0  0  0  0  0  0  0  0  0  0  0
  139.4570   75.9068  220.6572 H   0  0  0  0  0  0  0  0  0  0  0  0
  137.7126   76.2892  221.2668 H   0  0  0  0  0  0  0  0  0  0  0  0
  141.0214   77.3639  224.0021 H   0  0  0  0  0  0  0  0  0  0  0  0
  142.2957   77.2681  222.7627 H   0  0  0  0  0  0  0  0  0  0  0  0
  141.0703   79.8661  223.9130 H   0  0  0  0  0  0  0  0  0  0  0  0
  142.6965   79.2476  224.2831 H   0  0  0  0  0  0  0  0  0  0  0  0
  142.9210   80.8964  222.4930 H   0  0  0  0  0  0  0  0  0  0  0  0
  143.1847   79.3080  221.7543 H   0  0  0  0  0  0  0  0  0  0  0  0
  140.4304   80.6983  221.9296 H   0  0  0  0  0  0  0  0  0  0  0  0
  141.4971   80.7820  220.4891 H   0  0  0  0  0  0  0  0  0  0  0  0
  139.7559   79.0230  220.3205 H   0  0  0  0  0  0  0  0  0  0  0  0
  141.6833   79.7001  218.5054 H   0  0  0  0  0  0  0  0  0  0  0  0
  143.2598   78.4959  216.9863 H   0  0  0  0  0  0  0  0  0  0  0  0
  144.0451   76.2094  217.7008 H   0  0  0  0  0  0  0  0  0  0  0  0
  143.2325   75.2817  219.8275 H   0  0  0  0  0  0  0  0  0  0  0  0
  138.3029   71.6283  221.2643 H   0  0  0  0  0  0  0  0  0  0  0  0
  138.2918   69.4908  222.6095 H   0  0  0  0  0  0  0  0  0  0  0  0
  139.0543   68.2718  224.5616 H   0  0  0  0  0  0  0  0  0  0  0  0
  141.6873   70.1142  227.3977 H   0  0  0  0  0  0  0  0  0  0  0  0
  141.6876   72.2018  226.0589 H   0  0  0  0  0  0  0  0  0  0  0  0
  1  2  2  0
  2  3  1  0
  3  4  1  0
  4  5  1  0
  5  6  2  0
  5  7  1  0
  7  8  1  0
  8  9  1  0
  9 10  1  0
 10 11  1  0
 11 12  1  0
 12 13  1  0
 13 14  2  0
 14 15  1  0
 15 16  2  0
 16 17  1  0
 17 18  2  0
  2 19  1  0
 19 20  2  0
 20 21  1  0
 21 22  2  0
 22 23  1  0
 23 24  2  0
 24 25  1  0
 25 26  1  0
 25 27  1  0
 25 28  1  0
 24 29  1  0
 29 30  2  0
 30 31  1  0
 31 32  2  0
 12  7  1  0
 18 13  1  0
 32 19  1  0
 31 22  1  0
  3 33  1  0
  4 34  1  0
  4 35  1  0
  8 36  1  0
  8 37  1  0
  9 38  1  0
  9 39  1  0
 10 40  1  0
 10 41  1  0
 11 42  1  0
 11 43  1  0
 12 44  1  6
 14 45  1  0
 15 46  1  0
 16 47  1  0
 17 48  1  0
 20 49  1  0
 21 50  1  0
 23 51  1  0
 29 52  1  0
 30 53  1  0
M  END
>  <smiles>  (80) 
O=C(NCC(=O)N1CCCCC1c1ccccn1)c1ccc2cc(C(F)(F)F)ccc2n1

>  <score_type>  (80) 
oracle

>  <origin>  (80) 
autodockgpu

>  <m_score__min__energy>  (80) 
-8.1699999999999999

>  <m_primary>  (80) 
energy

>  <rmsd>  (80) 
3.837592844199877

>  <m_score__min__rmsd>  (80) 
3.837592844199877

>  <meeko>  (80) 
{"free_energy": -7.88, "intermolecular_energy": -9.67, "internal_energy": -1.71, "cluster_size": 7, "cluster_id": 2, "rank_in_cluster": 6}

>  <energy>  (80) 
-7.83

>  <cluster_rmsd>  (80) 
0.0

>  <cluster>  (80) 
3

$$$$

     RDKit          3D

 53 56  0  0  0  0  0  0  0  0999 V2000
  138.6570   74.0360  221.0250 O   0  0  0  0  0  0  0  0  0  0  0  0
  139.6370   73.6730  221.7610 C   0  0  0  0  0  0  0  0  0  0  0  0
  140.8530   74.4450  221.7710 N   0  0  0  0  0  0  0  0  0  0  0  0
  140.8970   75.6030  220.9370 C   0  0  0  0  0  0  0  0  0  0  0  0
  140.1900   76.8050  221.3000 C   0  0  0  0  0  0  0  0  0  0  0  0
  139.2820   76.6360  222.2210 O   0  0  0  0  0  0  0  0  0  0  0  0
  140.2980   78.1450  220.8420 N   0  0  0  0  0  0  0  0  0  0  0  0
  139.1600   78.9650  220.4700 C   0  0  0  0  0  0  0  0  0  0  0  0
  139.4970   79.6270  219.1200 C   0  0  0  0  0  0  0  0  0  0  0  0
  140.7630   80.4190  219.3210 C   0  0  0  0  0  0  0  0  0  0  0  0
  141.8820   79.3870  219.5270 C   0  0  0  0  0  0  0  0  0  0  0  0
  141.6750   78.6900  220.8390 C   0  0  1  0  0  0  0  0  0  0  0  0
  141.8550   79.5890  222.0080 C   0  0  0  0  0  0  0  0  0  0  0  0
  143.0560   79.6870  222.6880 C   0  0  0  0  0  0  0  0  0  0  0  0
  143.2270   80.5330  223.7780 C   0  0  0  0  0  0  0  0  0  0  0  0
  142.1300   81.2830  224.1580 C   0  0  0  0  0  0  0  0  0  0  0  0
  140.9580   81.1460  223.4450 C   0  0  0  0  0  0  0  0  0  0  0  0
  140.8130   80.3220  222.3940 N   0  0  0  0  0  0  0  0  0  0  0  0
  139.5500   72.4830  222.6020 C   0  0  0  0  0  0  0  0  0  0  0  0
  138.6580   71.4810  222.2740 C   0  0  0  0  0  0  0  0  0  0  0  0
  138.6000   70.3590  223.1070 C   0  0  0  0  0  0  0  0  0  0  0  0
  139.4240   70.3000  224.2070 C   0  0  0  0  0  0  0  0  0  0  0  0
  139.4000   69.2040  225.0620 C   0  0  0  0  0  0  0  0  0  0  0  0
  140.2320   69.1410  226.1760 C   0  0  0  0  0  0  0  0  0  0  0  0
  140.1970   67.9600  227.0850 C   0  0  0  0  0  0  0  0  0  0  0  0
  141.4460   67.3810  227.1120 F   0  0  0  0  0  0  0  0  0  0  0  0
  139.9030   68.3680  228.3800 F   0  0  0  0  0  0  0  0  0  0  0  0
  139.2540   67.0780  226.6390 F   0  0  0  0  0  0  0  0  0  0  0  0
  141.0940   70.1660  226.4460 C   0  0  0  0  0  0  0  0  0  0  0  0
  141.1490   71.2670  225.6250 C   0  0  0  0  0  0  0  0  0  0  0  0
  140.3210   71.3170  224.5270 C   0  0  0  0  0  0  0  0  0  0  0  0
  140.3320   72.3690  223.6910 N   0  0  0  0  0  0  0  0  0  0  0  0
  141.6240   74.1050  222.3890 H   0  0  0  0  0  0  0  0  0  0  0  0
  141.9573   75.8801  220.8419 H   0  0  0  0  0  0  0  0  0  0  0  0
  140.3639   75.2716  220.0337 H   0  0  0  0  0  0  0  0  0  0  0  0
  138.2614   78.3388  220.3687 H   0  0  0  0  0  0  0  0  0  0  0  0
  138.9592   79.7259  221.2386 H   0  0  0  0  0  0  0  0  0  0  0  0
  139.6515   78.8569  218.3499 H   0  0  0  0  0  0  0  0  0  0  0  0
  138.6756   80.2782  218.7865 H   0  0  0  0  0  0  0  0  0  0  0  0
  140.9716   81.0369  218.4352 H   0  0  0  0  0  0  0  0  0  0  0  0
  140.6796   81.0990  220.1816 H   0  0  0  0  0  0  0  0  0  0  0  0
  141.8574   78.6498  218.7109 H   0  0  0  0  0  0  0  0  0  0  0  0
  142.8576   79.8952  219.5284 H   0  0  0  0  0  0  0  0  0  0  0  0
  142.4320   77.8978  220.9358 H   0  0  0  0  0  0  0  0  0  0  0  0
  143.9059   79.0736  222.3543 H   0  0  0  0  0  0  0  0  0  0  0  0
  144.1868   80.6019  224.3110 H   0  0  0  0  0  0  0  0  0  0  0  0
  142.1908   81.9746  225.0113 H   0  0  0  0  0  0  0  0  0  0  0  0
  140.0904   81.7469  223.7550 H   0  0  0  0  0  0  0  0  0  0  0  0
  138.0138   71.5627  221.3861 H   0  0  0  0  0  0  0  0  0  0  0  0
  137.9053   69.5353  222.8857 H   0  0  0  0  0  0  0  0  0  0  0  0
  138.7112   68.3718  224.8544 H   0  0  0  0  0  0  0  0  0  0  0  0
  141.7494   70.1097  227.3277 H   0  0  0  0  0  0  0  0  0  0  0  0
  141.8423   72.0931  225.8417 H   0  0  0  0  0  0  0  0  0  0  0  0
  1  2  2  0
  2  3  1  0
  3  4  1  0
  4  5  1  0
  5  6  2  0
  5  7  1  0
  7  8  1  0
  8  9  1  0
  9 10  1  0
 10 11  1  0
 11 12  1  0
 12 13  1  0
 13 14  2  0
 14 15  1  0
 15 16  2  0
 16 17  1  0
 17 18  2  0
  2 19  1  0
 19 20  2  0
 20 21  1  0
 21 22  2  0
 22 23  1  0
 23 24  2  0
 24 25  1  0
 25 26  1  0
 25 27  1  0
 25 28  1  0
 24 29  1  0
 29 30  2  0
 30 31  1  0
 31 32  2  0
 12  7  1  0
 18 13  1  0
 32 19  1  0
 31 22  1  0
  3 33  1  0
  4 34  1  0
  4 35  1  0
  8 36  1  0
  8 37  1  0
  9 38  1  0
  9 39  1  0
 10 40  1  0
 10 41  1  0
 11 42  1  0
 11 43  1  0
 12 44  1  1
 14 45  1  0
 15 46  1  0
 16 47  1  0
 17 48  1  0
 20 49  1  0
 21 50  1  0
 23 51  1  0
 29 52  1  0
 30 53  1  0
M  END
>  <smiles>  (81) 
O=C(NCC(=O)N1CCCCC1c1ccccn1)c1ccc2cc(C(F)(F)F)ccc2n1

>  <score_type>  (81) 
oracle

>  <origin>  (81) 
autodockgpu

>  <m_score__min__energy>  (81) 
-8.1699999999999999

>  <m_primary>  (81) 
energy

>  <rmsd>  (81) 
3.1630396472719964

>  <m_score__min__rmsd>  (81) 
3.1630396472719964

>  <meeko>  (81) 
{"free_energy": -7.42, "intermolecular_energy": -9.21, "internal_energy": -1.63, "cluster_size": 22, "cluster_id": 1, "rank_in_cluster": 17}

>  <energy>  (81) 
-7.78

>  <cluster_rmsd>  (81) 
0.49

>  <cluster>  (81) 
3

$$$$

     RDKit          3D

 53 56  0  0  0  0  0  0  0  0999 V2000
  140.0370   72.8490  220.4140 O   0  0  0  0  0  0  0  0  0  0  0  0
  139.8430   73.1050  221.6510 C   0  0  0  0  0  0  0  0  0  0  0  0
  139.6690   74.4680  222.0840 N   0  0  0  0  0  0  0  0  0  0  0  0
  139.7220   75.4820  221.0800 C   0  0  0  0  0  0  0  0  0  0  0  0
  140.9320   76.2280  220.8430 C   0  0  0  0  0  0  0  0  0  0  0  0
  141.1350   77.2040  221.6840 O   0  0  0  0  0  0  0  0  0  0  0  0
  141.9500   76.0970  219.8620 N   0  0  0  0  0  0  0  0  0  0  0  0
  142.8050   77.1890  219.4360 C   0  0  0  0  0  0  0  0  0  0  0  0
  142.8330   77.1710  217.8950 C   0  0  0  0  0  0  0  0  0  0  0  0
  143.3440   75.8160  217.4790 C   0  0  0  0  0  0  0  0  0  0  0  0
  142.2410   74.8140  217.8500 C   0  0  0  0  0  0  0  0  0  0  0  0
  142.1390   74.7220  219.3450 C   0  0  1  0  0  0  0  0  0  0  0  0
  143.3410   74.1160  219.9710 C   0  0  0  0  0  0  0  0  0  0  0  0
  143.4100   72.7710  220.2900 C   0  0  0  0  0  0  0  0  0  0  0  0
  144.5380   72.2020  220.8720 C   0  0  0  0  0  0  0  0  0  0  0  0
  145.6010   73.0490  221.1200 C   0  0  0  0  0  0  0  0  0  0  0  0
  145.4780   74.3800  220.7830 C   0  0  0  0  0  0  0  0  0  0  0  0
  144.3790   74.9110  220.2210 N   0  0  0  0  0  0  0  0  0  0  0  0
  139.7930   72.0370  222.6460 C   0  0  0  0  0  0  0  0  0  0  0  0
  139.1910   70.8360  222.3250 C   0  0  0  0  0  0  0  0  0  0  0  0
  139.1580   69.8390  223.3060 C   0  0  0  0  0  0  0  0  0  0  0  0
  139.7190   70.0940  224.5370 C   0  0  0  0  0  0  0  0  0  0  0  0
  139.7080   69.1330  225.5400 C   0  0  0  0  0  0  0  0  0  0  0  0
  140.2740   69.3870  226.7870 C   0  0  0  0  0  0  0  0  0  0  0  0
  140.2560   68.3480  227.8550 C   0  0  0  0  0  0  0  0  0  0  0  0
  139.9110   68.9420  229.0490 F   0  0  0  0  0  0  0  0  0  0  0  0
  139.2850   67.3950  227.5740 F   0  0  0  0  0  0  0  0  0  0  0  0
  141.4880   67.7630  227.9340 F   0  0  0  0  0  0  0  0  0  0  0  0
  140.8540   70.5970  227.0410 C   0  0  0  0  0  0  0  0  0  0  0  0
  140.8860   71.5740  226.0750 C   0  0  0  0  0  0  0  0  0  0  0  0
  140.3230   71.3100  224.8470 C   0  0  0  0  0  0  0  0  0  0  0  0
  140.3250   72.2280  223.8660 N   0  0  0  0  0  0  0  0  0  0  0  0
  139.5140   74.6230  223.1050 H   0  0  0  0  0  0  0  0  0  0  0  0
  139.4637   74.9941  220.1285 H   0  0  0  0  0  0  0  0  0  0  0  0
  139.0379   76.2484  221.4732 H   0  0  0  0  0  0  0  0  0  0  0  0
  142.3999   78.1468  219.7945 H   0  0  0  0  0  0  0  0  0  0  0  0
  143.8191   77.0742  219.8465 H   0  0  0  0  0  0  0  0  0  0  0  0
  141.8201   77.3312  217.4970 H   0  0  0  0  0  0  0  0  0  0  0  0
  143.4796   77.9709  217.5050 H   0  0  0  0  0  0  0  0  0  0  0  0
  143.5308   75.7945  216.3952 H   0  0  0  0  0  0  0  0  0  0  0  0
  144.2932   75.5730  217.9790 H   0  0  0  0  0  0  0  0  0  0  0  0
  141.2804   75.1545  217.4361 H   0  0  0  0  0  0  0  0  0  0  0  0
  142.4857   73.8251  217.4351 H   0  0  0  0  0  0  0  0  0  0  0  0
  141.2931   74.0662  219.5988 H   0  0  0  0  0  0  0  0  0  0  0  0
  142.5425   72.1295  220.0758 H   0  0  0  0  0  0  0  0  0  0  0  0
  144.5815   71.1317  221.1222 H   0  0  0  0  0  0  0  0  0  0  0  0
  146.5266   72.6690  221.5770 H   0  0  0  0  0  0  0  0  0  0  0  0
  146.3293   75.0464  220.9860 H   0  0  0  0  0  0  0  0  0  0  0  0
  138.7518   70.6688  221.3304 H   0  0  0  0  0  0  0  0  0  0  0  0
  138.6906   68.8655  223.0967 H   0  0  0  0  0  0  0  0  0  0  0  0
  139.2443   68.1546  225.3460 H   0  0  0  0  0  0  0  0  0  0  0  0
  141.2996   70.7914  228.0277 H   0  0  0  0  0  0  0  0  0  0  0  0
  141.3528   72.5488  226.2794 H   0  0  0  0  0  0  0  0  0  0  0  0
  1  2  2  0
  2  3  1  0
  3  4  1  0
  4  5  1  0
  5  6  2  0
  5  7  1  0
  7  8  1  0
  8  9  1  0
  9 10  1  0
 10 11  1  0
 11 12  1  0
 12 13  1  0
 13 14  2  0
 14 15  1  0
 15 16  2  0
 16 17  1  0
 17 18  2  0
  2 19  1  0
 19 20  2  0
 20 21  1  0
 21 22  2  0
 22 23  1  0
 23 24  2  0
 24 25  1  0
 25 26  1  0
 25 27  1  0
 25 28  1  0
 24 29  1  0
 29 30  2  0
 30 31  1  0
 31 32  2  0
 12  7  1  0
 18 13  1  0
 32 19  1  0
 31 22  1  0
  3 33  1  0
  4 34  1  0
  4 35  1  0
  8 36  1  0
  8 37  1  0
  9 38  1  0
  9 39  1  0
 10 40  1  0
 10 41  1  0
 11 42  1  0
 11 43  1  0
 12 44  1  6
 14 45  1  0
 15 46  1  0
 16 47  1  0
 17 48  1  0
 20 49  1  0
 21 50  1  0
 23 51  1  0
 29 52  1  0
 30 53  1  0
M  END
>  <smiles>  (82) 
O=C(NCC(=O)N1CCCCC1c1ccccn1)c1ccc2cc(C(F)(F)F)ccc2n1

>  <score_type>  (82) 
oracle

>  <origin>  (82) 
autodockgpu

>  <m_score__min__energy>  (82) 
-8.1699999999999999

>  <m_primary>  (82) 
energy

>  <rmsd>  (82) 
4.383435587500928

>  <m_score__min__rmsd>  (82) 
4.383435587500928

>  <meeko>  (82) 
{"free_energy": -7.67, "intermolecular_energy": -9.46, "internal_energy": -2.06, "cluster_size": 7, "cluster_id": 3, "rank_in_cluster": 3}

>  <energy>  (82) 
-7.67

>  <cluster_rmsd>  (82) 
0.61

>  <cluster>  (82) 
3

$$$$

     RDKit          3D

 53 56  0  0  0  0  0  0  0  0999 V2000
  140.7100   73.7410  220.8400 O   0  0  0  0  0  0  0  0  0  0  0  0
  139.9860   73.7780  221.8930 C   0  0  0  0  0  0  0  0  0  0  0  0
  139.3810   75.0180  222.3060 N   0  0  0  0  0  0  0  0  0  0  0  0
  139.6290   76.1670  221.4940 C   0  0  0  0  0  0  0  0  0  0  0  0
  139.4900   77.4970  222.0300 C   0  0  0  0  0  0  0  0  0  0  0  0
  138.2610   77.8400  222.3020 O   0  0  0  0  0  0  0  0  0  0  0  0
  140.4440   78.5080  222.3200 N   0  0  0  0  0  0  0  0  0  0  0  0
  141.6980   78.2600  223.0080 C   0  0  0  0  0  0  0  0  0  0  0  0
  141.8400   79.3390  224.0990 C   0  0  0  0  0  0  0  0  0  0  0  0
  141.7930   80.6760  223.4060 C   0  0  0  0  0  0  0  0  0  0  0  0
  140.3530   80.8410  222.8960 C   0  0  0  0  0  0  0  0  0  0  0  0
  140.1030   79.8500  221.7970 C   0  0  1  0  0  0  0  0  0  0  0  0
  140.9040   80.1260  220.5760 C   0  0  0  0  0  0  0  0  0  0  0  0
  141.0870   81.4060  220.0850 C   0  0  0  0  0  0  0  0  0  0  0  0
  141.8420   81.6650  218.9450 C   0  0  0  0  0  0  0  0  0  0  0  0
  142.4080   80.5730  218.3170 C   0  0  0  0  0  0  0  0  0  0  0  0
  142.1930   79.3200  218.8490 C   0  0  0  0  0  0  0  0  0  0  0  0
  141.4600   79.0900  219.9520 N   0  0  0  0  0  0  0  0  0  0  0  0
  139.7540   72.5790  222.6940 C   0  0  0  0  0  0  0  0  0  0  0  0
  138.6570   71.7840  222.4270 C   0  0  0  0  0  0  0  0  0  0  0  0
  138.4660   70.6470  223.2200 C   0  0  0  0  0  0  0  0  0  0  0  0
  139.3680   70.3720  224.2230 C   0  0  0  0  0  0  0  0  0  0  0  0
  139.2160   69.2540  225.0340 C   0  0  0  0  0  0  0  0  0  0  0  0
  140.1270   68.9720  226.0490 C   0  0  0  0  0  0  0  0  0  0  0  0
  139.9540   67.7700  226.9130 C   0  0  0  0  0  0  0  0  0  0  0  0
  139.6940   68.1800  228.2010 F   0  0  0  0  0  0  0  0  0  0  0  0
  138.8560   67.0330  226.4850 F   0  0  0  0  0  0  0  0  0  0  0  0
  141.0870   67.0090  226.8570 F   0  0  0  0  0  0  0  0  0  0  0  0
  141.1930   69.8000  226.2620 C   0  0  0  0  0  0  0  0  0  0  0  0
  141.3780   70.9150  225.4810 C   0  0  0  0  0  0  0  0  0  0  0  0
  140.4710   71.1820  224.4800 C   0  0  0  0  0  0  0  0  0  0  0  0
  140.6030   72.2590  223.6880 N   0  0  0  0  0  0  0  0  0  0  0  0
  138.8000   74.9950  223.1740 H   0  0  0  0  0  0  0  0  0  0  0  0
  140.6659   76.0802  221.1371 H   0  0  0  0  0  0  0  0  0  0  0  0
  138.8186   76.1188  220.7518 H   0  0  0  0  0  0  0  0  0  0  0  0
  141.6852   77.2601  223.4662 H   0  0  0  0  0  0  0  0  0  0  0  0
  142.5436   78.3010  222.3057 H   0  0  0  0  0  0  0  0  0  0  0  0
  141.0132   79.2581  224.8200 H   0  0  0  0  0  0  0  0  0  0  0  0
  142.7833   79.2165  224.6515 H   0  0  0  0  0  0  0  0  0  0  0  0
  142.0424   81.4813  224.1126 H   0  0  0  0  0  0  0  0  0  0  0  0
  142.5197   80.7273  222.5818 H   0  0  0  0  0  0  0  0  0  0  0  0
  139.6476   80.6617  223.7208 H   0  0  0  0  0  0  0  0  0  0  0  0
  140.2111   81.8622  222.5126 H   0  0  0  0  0  0  0  0  0  0  0  0
  139.0464   79.9185  221.4989 H   0  0  0  0  0  0  0  0  0  0  0  0
  140.6192   82.2492  220.6144 H   0  0  0  0  0  0  0  0  0  0  0  0
  141.9808   82.6874  218.5636 H   0  0  0  0  0  0  0  0  0  0  0  0
  143.0180   80.7007  217.4106 H   0  0  0  0  0  0  0  0  0  0  0  0
  142.6481   78.4570  218.3409 H   0  0  0  0  0  0  0  0  0  0  0  0
  137.9562   72.0362  221.6175 H   0  0  0  0  0  0  0  0  0  0  0  0
  137.6073   69.9823  223.0444 H   0  0  0  0  0  0  0  0  0  0  0  0
  138.3617   68.5803  224.8716 H   0  0  0  0  0  0  0  0  0  0  0  0
  141.9089   69.5719  227.0654 H   0  0  0  0  0  0  0  0  0  0  0  0
  142.2354   71.5825  225.6523 H   0  0  0  0  0  0  0  0  0  0  0  0
  1  2  2  0
  2  3  1  0
  3  4  1  0
  4  5  1  0
  5  6  2  0
  5  7  1  0
  7  8  1  0
  8  9  1  0
  9 10  1  0
 10 11  1  0
 11 12  1  0
 12 13  1  0
 13 14  2  0
 14 15  1  0
 15 16  2  0
 16 17  1  0
 17 18  2  0
  2 19  1  0
 19 20  2  0
 20 21  1  0
 21 22  2  0
 22 23  1  0
 23 24  2  0
 24 25  1  0
 25 26  1  0
 25 27  1  0
 25 28  1  0
 24 29  1  0
 29 30  2  0
 30 31  1  0
 31 32  2  0
 12  7  1  0
 18 13  1  0
 32 19  1  0
 31 22  1  0
  3 33  1  0
  4 34  1  0
  4 35  1  0
  8 36  1  0
  8 37  1  0
  9 38  1  0
  9 39  1  0
 10 40  1  0
 10 41  1  0
 11 42  1  0
 11 43  1  0
 12 44  1  6
 14 45  1  0
 15 46  1  0
 16 47  1  0
 17 48  1  0
 20 49  1  0
 21 50  1  0
 23 51  1  0
 29 52  1  0
 30 53  1  0
M  END
>  <smiles>  (83) 
O=C(NCC(=O)N1CCCCC1c1ccccn1)c1ccc2cc(C(F)(F)F)ccc2n1

>  <score_type>  (83) 
oracle

>  <origin>  (83) 
autodockgpu

>  <m_score__min__energy>  (83) 
-8.1699999999999999

>  <m_primary>  (83) 
energy

>  <rmsd>  (83) 
4.007337123333894

>  <m_score__min__rmsd>  (83) 
4.007337123333894

>  <meeko>  (83) 
{"free_energy": -8.01, "intermolecular_energy": -9.8, "internal_energy": -1.5, "cluster_size": 7, "cluster_id": 2, "rank_in_cluster": 3}

>  <energy>  (83) 
-7.63

>  <cluster_rmsd>  (83) 
0.75

>  <cluster>  (83) 
3

$$$$

     RDKit          3D

 53 56  0  0  0  0  0  0  0  0999 V2000
  140.4920   73.7770  220.6170 O   0  0  0  0  0  0  0  0  0  0  0  0
  139.9530   73.7690  221.7770 C   0  0  0  0  0  0  0  0  0  0  0  0
  139.4780   74.9980  222.3580 N   0  0  0  0  0  0  0  0  0  0  0  0
  139.6370   76.1890  221.5850 C   0  0  0  0  0  0  0  0  0  0  0  0
  139.6690   77.4840  222.2170 C   0  0  0  0  0  0  0  0  0  0  0  0
  138.6190   77.7530  222.9420 O   0  0  0  0  0  0  0  0  0  0  0  0
  140.6340   78.5250  222.1970 N   0  0  0  0  0  0  0  0  0  0  0  0
  141.8230   78.5380  223.0290 C   0  0  0  0  0  0  0  0  0  0  0  0
  141.9210   79.9400  223.6620 C   0  0  0  0  0  0  0  0  0  0  0  0
  141.9740   80.9330  222.5290 C   0  0  0  0  0  0  0  0  0  0  0  0
  140.5830   80.9080  221.8780 C   0  0  0  0  0  0  0  0  0  0  0  0
  140.3810   79.5860  221.1960 C   0  0  1  0  0  0  0  0  0  0  0  0
  141.2800   79.3930  220.0290 C   0  0  0  0  0  0  0  0  0  0  0  0
  141.7120   80.4480  219.2460 C   0  0  0  0  0  0  0  0  0  0  0  0
  142.5590   80.2690  218.1570 C   0  0  0  0  0  0  0  0  0  0  0  0
  142.9550   78.9720  217.8880 C   0  0  0  0  0  0  0  0  0  0  0  0
  142.4950   77.9590  218.7020 C   0  0  0  0  0  0  0  0  0  0  0  0
  141.6760   78.1530  219.7500 N   0  0  0  0  0  0  0  0  0  0  0  0
  139.8070   72.5290  222.5340 C   0  0  0  0  0  0  0  0  0  0  0  0
  139.0560   71.4960  222.0080 C   0  0  0  0  0  0  0  0  0  0  0  0
  138.9340   70.3250  222.7650 C   0  0  0  0  0  0  0  0  0  0  0  0
  139.5590   70.2530  223.9890 C   0  0  0  0  0  0  0  0  0  0  0  0
  139.4650   69.1100  224.7740 C   0  0  0  0  0  0  0  0  0  0  0  0
  140.0960   69.0340  226.0130 C   0  0  0  0  0  0  0  0  0  0  0  0
  139.9870   67.8030  226.8460 C   0  0  0  0  0  0  0  0  0  0  0  0
  139.8220   68.1690  228.1640 F   0  0  0  0  0  0  0  0  0  0  0  0
  138.8610   67.0780  226.4760 F   0  0  0  0  0  0  0  0  0  0  0  0
  141.1140   67.0480  226.6820 F   0  0  0  0  0  0  0  0  0  0  0  0
  140.8240   70.0920  226.4770 C   0  0  0  0  0  0  0  0  0  0  0  0
  140.9430   71.2400  225.7300 C   0  0  0  0  0  0  0  0  0  0  0  0
  140.3140   71.3030  224.5070 C   0  0  0  0  0  0  0  0  0  0  0  0
  140.3960   72.4000  223.7370 N   0  0  0  0  0  0  0  0  0  0  0  0
  139.0480   74.9370  223.3080 H   0  0  0  0  0  0  0  0  0  0  0  0
  140.5862   76.0835  221.0392 H   0  0  0  0  0  0  0  0  0  0  0  0
  138.7046   76.2264  221.0026 H   0  0  0  0  0  0  0  0  0  0  0  0
  141.7406   77.7740  223.8161 H   0  0  0  0  0  0  0  0  0  0  0  0
  142.7198   78.3155  222.4321 H   0  0  0  0  0  0  0  0  0  0  0  0
  141.0400   80.1324  224.2919 H   0  0  0  0  0  0  0  0  0  0  0  0
  142.8151   80.0219  224.2976 H   0  0  0  0  0  0  0  0  0  0  0  0
  142.1982   81.9392  222.9129 H   0  0  0  0  0  0  0  0  0  0  0  0
  142.7619   80.6767  221.8055 H   0  0  0  0  0  0  0  0  0  0  0  0
  139.8125   81.0447  222.6510 H   0  0  0  0  0  0  0  0  0  0  0  0
  140.5056   81.7202  221.1402 H   0  0  0  0  0  0  0  0  0  0  0  0
  139.3530   79.5476  220.8065 H   0  0  0  0  0  0  0  0  0  0  0  0
  141.3738   81.4651  219.4932 H   0  0  0  0  0  0  0  0  0  0  0  0
  142.8964   81.1160  217.5415 H   0  0  0  0  0  0  0  0  0  0  0  0
  143.6232   78.7529  217.0421 H   0  0  0  0  0  0  0  0  0  0  0  0
  142.8173   76.9308  218.4807 H   0  0  0  0  0  0  0  0  0  0  0  0
  138.5695   71.5905  221.0260 H   0  0  0  0  0  0  0  0  0  0  0  0
  138.3472   69.4748  222.3871 H   0  0  0  0  0  0  0  0  0  0  0  0
  138.8823   68.2508  224.4104 H   0  0  0  0  0  0  0  0  0  0  0  0
  141.3195   70.0252  227.4568 H   0  0  0  0  0  0  0  0  0  0  0  0
  141.5299   72.0924  226.1026 H   0  0  0  0  0  0  0  0  0  0  0  0
  1  2  2  0
  2  3  1  0
  3  4  1  0
  4  5  1  0
  5  6  2  0
  5  7  1  0
  7  8  1  0
  8  9  1  0
  9 10  1  0
 10 11  1  0
 11 12  1  0
 12 13  1  0
 13 14  2  0
 14 15  1  0
 15 16  2  0
 16 17  1  0
 17 18  2  0
  2 19  1  0
 19 20  2  0
 20 21  1  0
 21 22  2  0
 22 23  1  0
 23 24  2  0
 24 25  1  0
 25 26  1  0
 25 27  1  0
 25 28  1  0
 24 29  1  0
 29 30  2  0
 30 31  1  0
 31 32  2  0
 12  7  1  0
 18 13  1  0
 32 19  1  0
 31 22  1  0
  3 33  1  0
  4 34  1  0
  4 35  1  0
  8 36  1  0
  8 37  1  0
  9 38  1  0
  9 39  1  0
 10 40  1  0
 10 41  1  0
 11 42  1  0
 11 43  1  0
 12 44  1  6
 14 45  1  0
 15 46  1  0
 16 47  1  0
 17 48  1  0
 20 49  1  0
 21 50  1  0
 23 51  1  0
 29 52  1  0
 30 53  1  0
M  END
>  <smiles>  (84) 
O=C(NCC(=O)N1CCCCC1c1ccccn1)c1ccc2cc(C(F)(F)F)ccc2n1

>  <score_type>  (84) 
oracle

>  <origin>  (84) 
autodockgpu

>  <m_score__min__energy>  (84) 
-8.1699999999999999

>  <m_primary>  (84) 
energy

>  <rmsd>  (84) 
3.9510768452577025

>  <m_score__min__rmsd>  (84) 
3.9510768452577025

>  <meeko>  (84) 
{"free_energy": -8.13, "intermolecular_energy": -9.92, "internal_energy": -1.62, "cluster_size": 7, "cluster_id": 2, "rank_in_cluster": 1}

>  <energy>  (84) 
-7.57

>  <cluster_rmsd>  (84) 
0.61

>  <cluster>  (84) 
3

$$$$

     RDKit          3D

 53 56  0  0  0  0  0  0  0  0999 V2000
  140.8770   72.7920  220.5620 O   0  0  0  0  0  0  0  0  0  0  0  0
  140.2710   73.0290  221.6620 C   0  0  0  0  0  0  0  0  0  0  0  0
  139.7240   74.3380  221.9140 N   0  0  0  0  0  0  0  0  0  0  0  0
  139.8930   75.3230  220.8930 C   0  0  0  0  0  0  0  0  0  0  0  0
  141.1420   76.0260  220.7410 C   0  0  0  0  0  0  0  0  0  0  0  0
  141.4240   76.8380  221.7220 O   0  0  0  0  0  0  0  0  0  0  0  0
  142.1270   75.9990  219.7190 N   0  0  0  0  0  0  0  0  0  0  0  0
  142.9410   77.1440  219.3520 C   0  0  0  0  0  0  0  0  0  0  0  0
  142.9140   77.2480  217.8150 C   0  0  0  0  0  0  0  0  0  0  0  0
  143.4420   75.9440  217.2750 C   0  0  0  0  0  0  0  0  0  0  0  0
  142.3750   74.8870  217.6010 C   0  0  0  0  0  0  0  0  0  0  0  0
  142.3290   74.6750  219.0870 C   0  0  1  0  0  0  0  0  0  0  0  0
  143.5670   74.0520  219.6220 C   0  0  0  0  0  0  0  0  0  0  0  0
  144.4550   74.7450  220.4250 C   0  0  0  0  0  0  0  0  0  0  0  0
  145.6120   74.1600  220.9310 C   0  0  0  0  0  0  0  0  0  0  0  0
  145.8370   72.8400  220.5920 C   0  0  0  0  0  0  0  0  0  0  0  0
  144.9180   72.1980  219.7890 C   0  0  0  0  0  0  0  0  0  0  0  0
  143.8070   72.7810  219.3100 N   0  0  0  0  0  0  0  0  0  0  0  0
  140.1170   71.9940  222.6800 C   0  0  0  0  0  0  0  0  0  0  0  0
  139.4520   70.8250  222.3660 C   0  0  0  0  0  0  0  0  0  0  0  0
  139.3200   69.8590  223.3690 C   0  0  0  0  0  0  0  0  0  0  0  0
  139.8510   70.1100  224.6130 C   0  0  0  0  0  0  0  0  0  0  0  0
  139.7430   69.1780  225.6390 C   0  0  0  0  0  0  0  0  0  0  0  0
  140.2800   69.4290  226.8990 C   0  0  0  0  0  0  0  0  0  0  0  0
  140.1570   68.4220  227.9910 C   0  0  0  0  0  0  0  0  0  0  0  0
  139.5690   69.0180  229.0840 F   0  0  0  0  0  0  0  0  0  0  0  0
  139.3250   67.3850  227.5880 F   0  0  0  0  0  0  0  0  0  0  0  0
  141.3980   67.9420  228.3010 F   0  0  0  0  0  0  0  0  0  0  0  0
  140.9270   70.6060  227.1460 C   0  0  0  0  0  0  0  0  0  0  0  0
  141.0560   71.5530  226.1570 C   0  0  0  0  0  0  0  0  0  0  0  0
  140.5210   71.2930  224.9160 C   0  0  0  0  0  0  0  0  0  0  0  0
  140.6170   72.1830  223.9150 N   0  0  0  0  0  0  0  0  0  0  0  0
  139.2390   74.4800  222.8280 H   0  0  0  0  0  0  0  0  0  0  0  0
  139.6998   74.8175  219.9353 H   0  0  0  0  0  0  0  0  0  0  0  0
  139.2031   76.1197  221.2080 H   0  0  0  0  0  0  0  0  0  0  0  0
  142.5268   78.0597  219.7991 H   0  0  0  0  0  0  0  0  0  0  0  0
  143.9716   77.0237  219.7173 H   0  0  0  0  0  0  0  0  0  0  0  0
  141.8839   77.4120  217.4657 H   0  0  0  0  0  0  0  0  0  0  0  0
  143.5270   78.0930  217.4683 H   0  0  0  0  0  0  0  0  0  0  0  0
  143.5915   76.0133  216.1874 H   0  0  0  0  0  0  0  0  0  0  0  0
  144.4135   75.6868  217.7221 H   0  0  0  0  0  0  0  0  0  0  0  0
  141.3928   75.2345  217.2482 H   0  0  0  0  0  0  0  0  0  0  0  0
  142.6266   73.9406  217.0999 H   0  0  0  0  0  0  0  0  0  0  0  0
  141.5077   73.9799  219.3157 H   0  0  0  0  0  0  0  0  0  0  0  0
  144.2391   75.7949  220.6722 H   0  0  0  0  0  0  0  0  0  0  0  0
  146.3117   74.7203  221.5685 H   0  0  0  0  0  0  0  0  0  0  0  0
  146.7309   72.3118  220.9551 H   0  0  0  0  0  0  0  0  0  0  0  0
  145.1059   71.1467  219.5253 H   0  0  0  0  0  0  0  0  0  0  0  0
  139.0395   70.6590  221.3599 H   0  0  0  0  0  0  0  0  0  0  0  0
  138.7989   68.9118  223.1659 H   0  0  0  0  0  0  0  0  0  0  0  0
  139.2245   68.2260  225.4522 H   0  0  0  0  0  0  0  0  0  0  0  0
  141.3483   70.7982  228.1438 H   0  0  0  0  0  0  0  0  0  0  0  0
  141.5775   72.5012  226.3544 H   0  0  0  0  0  0  0  0  0  0  0  0
  1  2  2  0
  2  3  1  0
  3  4  1  0
  4  5  1  0
  5  6  2  0
  5  7  1  0
  7  8  1  0
  8  9  1  0
  9 10  1  0
 10 11  1  0
 11 12  1  0
 12 13  1  0
 13 14  2  0
 14 15  1  0
 15 16  2  0
 16 17  1  0
 17 18  2  0
  2 19  1  0
 19 20  2  0
 20 21  1  0
 21 22  2  0
 22 23  1  0
 23 24  2  0
 24 25  1  0
 25 26  1  0
 25 27  1  0
 25 28  1  0
 24 29  1  0
 29 30  2  0
 30 31  1  0
 31 32  2  0
 12  7  1  0
 18 13  1  0
 32 19  1  0
 31 22  1  0
  3 33  1  0
  4 34  1  0
  4 35  1  0
  8 36  1  0
  8 37  1  0
  9 38  1  0
  9 39  1  0
 10 40  1  0
 10 41  1  0
 11 42  1  0
 11 43  1  0
 12 44  1  6
 14 45  1  0
 15 46  1  0
 16 47  1  0
 17 48  1  0
 20 49  1  0
 21 50  1  0
 23 51  1  0
 29 52  1  0
 30 53  1  0
M  END
>  <smiles>  (85) 
O=C(NCC(=O)N1CCCCC1c1ccccn1)c1ccc2cc(C(F)(F)F)ccc2n1

>  <score_type>  (85) 
oracle

>  <origin>  (85) 
autodockgpu

>  <m_score__min__energy>  (85) 
-8.1699999999999999

>  <m_primary>  (85) 
energy

>  <rmsd>  (85) 
4.277565571648681

>  <m_score__min__rmsd>  (85) 
4.277565571648681

>  <meeko>  (85) 
{"free_energy": -7.83, "intermolecular_energy": -9.62, "internal_energy": -1.78, "cluster_size": 7, "cluster_id": 3, "rank_in_cluster": 1}

>  <energy>  (85) 
-7.55

>  <cluster_rmsd>  (85) 
0.64

>  <cluster>  (85) 
3

$$$$

     RDKit          3D

 53 56  0  0  0  0  0  0  0  0999 V2000
  139.2260   74.6270  222.2290 O   0  0  0  0  0  0  0  0  0  0  0  0
  140.4590   74.8220  221.9550 C   0  0  0  0  0  0  0  0  0  0  0  0
  141.0500   76.1160  222.1850 N   0  0  0  0  0  0  0  0  0  0  0  0
  140.2030   77.1340  222.7200 C   0  0  0  0  0  0  0  0  0  0  0  0
  140.6090   78.5160  222.7100 C   0  0  0  0  0  0  0  0  0  0  0  0
  140.4690   79.1250  223.8550 O   0  0  0  0  0  0  0  0  0  0  0  0
  141.1370   79.3430  221.6830 N   0  0  0  0  0  0  0  0  0  0  0  0
  142.2020   80.3070  221.8910 C   0  0  0  0  0  0  0  0  0  0  0  0
  141.7620   81.6230  221.2230 C   0  0  0  0  0  0  0  0  0  0  0  0
  141.5090   81.3170  219.7690 C   0  0  0  0  0  0  0  0  0  0  0  0
  140.2510   80.4360  219.7330 C   0  0  0  0  0  0  0  0  0  0  0  0
  140.5680   79.0990  220.3380 C   0  0  1  0  0  0  0  0  0  0  0  0
  141.5310   78.3100  219.5270 C   0  0  0  0  0  0  0  0  0  0  0  0
  141.6480   78.4690  218.1570 C   0  0  0  0  0  0  0  0  0  0  0  0
  142.5540   77.7340  217.3980 C   0  0  0  0  0  0  0  0  0  0  0  0
  143.3420   76.8280  218.0820 C   0  0  0  0  0  0  0  0  0  0  0  0
  143.1830   76.7110  219.4460 C   0  0  0  0  0  0  0  0  0  0  0  0
  142.3020   77.4300  220.1610 N   0  0  0  0  0  0  0  0  0  0  0  0
  141.2920   73.7530  221.4120 C   0  0  0  0  0  0  0  0  0  0  0  0
  140.7710   72.4800  221.2900 C   0  0  0  0  0  0  0  0  0  0  0  0
  141.6010   71.4810  220.7700 C   0  0  0  0  0  0  0  0  0  0  0  0
  142.8890   71.8040  220.4060 C   0  0  0  0  0  0  0  0  0  0  0  0
  143.7470   70.8440  219.8850 C   0  0  0  0  0  0  0  0  0  0  0  0
  145.0500   71.1680  219.5150 C   0  0  0  0  0  0  0  0  0  0  0  0
  145.9620   70.1290  218.9580 C   0  0  0  0  0  0  0  0  0  0  0  0
  146.3190   70.4890  217.6780 F   0  0  0  0  0  0  0  0  0  0  0  0
  147.1290   70.0690  219.7100 F   0  0  0  0  0  0  0  0  0  0  0  0
  145.3260   68.9190  218.9700 F   0  0  0  0  0  0  0  0  0  0  0  0
  145.5060   72.4470  219.6610 C   0  0  0  0  0  0  0  0  0  0  0  0
  144.6870   73.4260  220.1710 C   0  0  0  0  0  0  0  0  0  0  0  0
  143.4010   73.0940  220.5330 C   0  0  0  0  0  0  0  0  0  0  0  0
  142.5590   74.0100  221.0380 N   0  0  0  0  0  0  0  0  0  0  0  0
  142.0610   76.2230  221.9440 H   0  0  0  0  0  0  0  0  0  0  0  0
  139.2579   77.0813  222.1597 H   0  0  0  0  0  0  0  0  0  0  0  0
  140.1841   76.8945  223.7934 H   0  0  0  0  0  0  0  0  0  0  0  0
  142.3615   80.4659  222.9677 H   0  0  0  0  0  0  0  0  0  0  0  0
  143.1460   79.9455  221.4573 H   0  0  0  0  0  0  0  0  0  0  0  0
  140.8420   81.9973  221.6958 H   0  0  0  0  0  0  0  0  0  0  0  0
  142.5366   82.3963  221.3321 H   0  0  0  0  0  0  0  0  0  0  0  0
  141.3401   82.2472  219.2067 H   0  0  0  0  0  0  0  0  0  0  0  0
  142.3694   80.8089  219.3091 H   0  0  0  0  0  0  0  0  0  0  0  0
  139.4470   80.9188  220.3079 H   0  0  0  0  0  0  0  0  0  0  0  0
  139.9228   80.3023  218.6917 H   0  0  0  0  0  0  0  0  0  0  0  0
  139.6416   78.5076  220.3836 H   0  0  0  0  0  0  0  0  0  0  0  0
  141.0025   79.2017  217.6505 H   0  0  0  0  0  0  0  0  0  0  0  0
  142.6385   77.8675  216.3094 H   0  0  0  0  0  0  0  0  0  0  0  0
  144.0813   76.2125  217.5485 H   0  0  0  0  0  0  0  0  0  0  0  0
  143.8147   75.9862  219.9805 H   0  0  0  0  0  0  0  0  0  0  0  0
  139.7367   72.2586  221.5919 H   0  0  0  0  0  0  0  0  0  0  0  0
  141.2299   70.4521  220.6536 H   0  0  0  0  0  0  0  0  0  0  0  0
  143.3913   69.8103  219.7625 H   0  0  0  0  0  0  0  0  0  0  0  0
  146.5367   72.6956  219.3682 H   0  0  0  0  0  0  0  0  0  0  0  0
  145.0528   74.4568  220.2879 H   0  0  0  0  0  0  0  0  0  0  0  0
  1  2  2  0
  2  3  1  0
  3  4  1  0
  4  5  1  0
  5  6  2  0
  5  7  1  0
  7  8  1  0
  8  9  1  0
  9 10  1  0
 10 11  1  0
 11 12  1  0
 12 13  1  0
 13 14  2  0
 14 15  1  0
 15 16  2  0
 16 17  1  0
 17 18  2  0
  2 19  1  0
 19 20  2  0
 20 21  1  0
 21 22  2  0
 22 23  1  0
 23 24  2  0
 24 25  1  0
 25 26  1  0
 25 27  1  0
 25 28  1  0
 24 29  1  0
 29 30  2  0
 30 31  1  0
 31 32  2  0
 12  7  1  0
 18 13  1  0
 32 19  1  0
 31 22  1  0
  3 33  1  0
  4 34  1  0
  4 35  1  0
  8 36  1  0
  8 37  1  0
  9 38  1  0
  9 39  1  0
 10 40  1  0
 10 41  1  0
 11 42  1  0
 11 43  1  0
 12 44  1  1
 14 45  1  0
 15 46  1  0
 16 47  1  0
 17 48  1  0
 20 49  1  0
 21 50  1  0
 23 51  1  0
 29 52  1  0
 30 53  1  0
M  END
>  <smiles>  (86) 
O=C(NCC(=O)N1CCCCC1c1ccccn1)c1ccc2cc(C(F)(F)F)ccc2n1

>  <score_type>  (86) 
oracle

>  <origin>  (86) 
autodockgpu

>  <m_score__min__energy>  (86) 
-8.1699999999999999

>  <m_primary>  (86) 
energy

>  <rmsd>  (86) 
5.817465642820635

>  <m_score__min__rmsd>  (86) 
5.817465642820635

>  <meeko>  (86) 
{"free_energy": -6.3, "intermolecular_energy": -8.09, "internal_energy": -3.02, "cluster_size": 10, "cluster_id": 6, "rank_in_cluster": 5}

>  <energy>  (86) 
-6.56

>  <cluster_rmsd>  (86) 
1.13

>  <cluster>  (86) 
3

$$$$

     RDKit          3D

 53 56  0  0  0  0  0  0  0  0999 V2000
  139.7480   76.2050  219.6990 O   0  0  0  0  0  0  0  0  0  0  0  0
  140.3920   75.4720  220.5240 C   0  0  0  0  0  0  0  0  0  0  0  0
  141.7830   75.7380  220.7880 N   0  0  0  0  0  0  0  0  0  0  0  0
  142.3790   76.8360  220.0960 C   0  0  0  0  0  0  0  0  0  0  0  0
  141.8560   78.1720  220.2360 C   0  0  0  0  0  0  0  0  0  0  0  0
  141.6250   78.7790  219.1040 O   0  0  0  0  0  0  0  0  0  0  0  0
  141.5420   78.9530  221.3790 N   0  0  0  0  0  0  0  0  0  0  0  0
  141.6030   80.4030  221.4060 C   0  0  0  0  0  0  0  0  0  0  0  0
  142.3570   80.8030  222.6890 C   0  0  0  0  0  0  0  0  0  0  0  0
  141.5960   80.2150  223.8500 C   0  0  0  0  0  0  0  0  0  0  0  0
  141.7880   78.6940  223.7560 C   0  0  0  0  0  0  0  0  0  0  0  0
  141.0640   78.1780  222.5470 C   0  0  1  0  0  0  0  0  0  0  0  0
  139.5880   78.3060  222.6570 C   0  0  0  0  0  0  0  0  0  0  0  0
  138.7520   77.2040  222.7030 C   0  0  0  0  0  0  0  0  0  0  0  0
  137.3700   77.3220  222.8120 C   0  0  0  0  0  0  0  0  0  0  0  0
  136.8620   78.6060  222.8730 C   0  0  0  0  0  0  0  0  0  0  0  0
  137.7410   79.6670  222.8230 C   0  0  0  0  0  0  0  0  0  0  0  0
  139.0730   79.5310  222.7170 N   0  0  0  0  0  0  0  0  0  0  0  0
  139.7440   74.3590  221.2120 C   0  0  0  0  0  0  0  0  0  0  0  0
  138.4230   74.0650  220.9370 C   0  0  0  0  0  0  0  0  0  0  0  0
  137.8350   72.9950  221.6200 C   0  0  0  0  0  0  0  0  0  0  0  0
  138.5880   72.2890  222.5300 C   0  0  0  0  0  0  0  0  0  0  0  0
  138.0450   71.2190  223.2320 C   0  0  0  0  0  0  0  0  0  0  0  0
  138.8050   70.5030  224.1530 C   0  0  0  0  0  0  0  0  0  0  0  0
  138.2100   69.3570  224.8990 C   0  0  0  0  0  0  0  0  0  0  0  0
  136.8430   69.5180  224.9480 F   0  0  0  0  0  0  0  0  0  0  0  0
  138.4620   68.1690  224.2240 F   0  0  0  0  0  0  0  0  0  0  0  0
  138.7460   69.3130  226.1560 F   0  0  0  0  0  0  0  0  0  0  0  0
  140.1070   70.8440  224.3800 C   0  0  0  0  0  0  0  0  0  0  0  0
  140.6820   71.8950  223.7060 C   0  0  0  0  0  0  0  0  0  0  0  0
  139.9210   72.5960  222.7980 C   0  0  0  0  0  0  0  0  0  0  0  0
  140.4300   73.6320  222.1120 N   0  0  0  0  0  0  0  0  0  0  0  0
  142.2640   75.1090  221.4690 H   0  0  0  0  0  0  0  0  0  0  0  0
  143.4300   76.8759  220.4183 H   0  0  0  0  0  0  0  0  0  0  0  0
  142.1678   76.6020  219.0421 H   0  0  0  0  0  0  0  0  0  0  0  0
  142.1410   80.7742  220.5213 H   0  0  0  0  0  0  0  0  0  0  0  0
  140.5922   80.8368  221.3955 H   0  0  0  0  0  0  0  0  0  0  0  0
  143.3807   80.4012  222.6662 H   0  0  0  0  0  0  0  0  0  0  0  0
  142.4254   81.8972  222.7787 H   0  0  0  0  0  0  0  0  0  0  0  0
  141.9985   80.5929  224.8014 H   0  0  0  0  0  0  0  0  0  0  0  0
  140.5314   80.4895  223.8141 H   0  0  0  0  0  0  0  0  0  0  0  0
  142.8600   78.4634  223.6689 H   0  0  0  0  0  0  0  0  0  0  0  0
  141.3849   78.2145  224.6602 H   0  0  0  0  0  0  0  0  0  0  0  0
  141.2763   77.1036  222.4444 H   0  0  0  0  0  0  0  0  0  0  0  0
  139.1960   76.1989  222.6516 H   0  0  0  0  0  0  0  0  0  0  0  0
  136.7153   76.4388  222.8478 H   0  0  0  0  0  0  0  0  0  0  0  0
  135.7790   78.7778  222.9596 H   0  0  0  0  0  0  0  0  0  0  0  0
  137.3270   80.6849  222.8729 H   0  0  0  0  0  0  0  0  0  0  0  0
  137.8513   74.6534  220.2042 H   0  0  0  0  0  0  0  0  0  0  0  0
  136.7861   72.7220  221.4323 H   0  0  0  0  0  0  0  0  0  0  0  0
  136.9973   70.9332  223.0569 H   0  0  0  0  0  0  0  0  0  0  0  0
  140.7012   70.2729  225.1085 H   0  0  0  0  0  0  0  0  0  0  0  0
  141.7310   72.1708  223.8888 H   0  0  0  0  0  0  0  0  0  0  0  0
  1  2  2  0
  2  3  1  0
  3  4  1  0
  4  5  1  0
  5  6  2  0
  5  7  1  0
  7  8  1  0
  8  9  1  0
  9 10  1  0
 10 11  1  0
 11 12  1  0
 12 13  1  0
 13 14  2  0
 14 15  1  0
 15 16  2  0
 16 17  1  0
 17 18  2  0
  2 19  1  0
 19 20  2  0
 20 21  1  0
 21 22  2  0
 22 23  1  0
 23 24  2  0
 24 25  1  0
 25 26  1  0
 25 27  1  0
 25 28  1  0
 24 29  1  0
 29 30  2  0
 30 31  1  0
 31 32  2  0
 12  7  1  0
 18 13  1  0
 32 19  1  0
 31 22  1  0
  3 33  1  0
  4 34  1  0
  4 35  1  0
  8 36  1  0
  8 37  1  0
  9 38  1  0
  9 39  1  0
 10 40  1  0
 10 41  1  0
 11 42  1  0
 11 43  1  0
 12 44  1  6
 14 45  1  0
 15 46  1  0
 16 47  1  0
 17 48  1  0
 20 49  1  0
 21 50  1  0
 23 51  1  0
 29 52  1  0
 30 53  1  0
M  END
>  <smiles>  (87) 
O=C(NCC(=O)N1CCCCC1c1ccccn1)c1ccc2cc(C(F)(F)F)ccc2n1

>  <score_type>  (87) 
oracle

>  <origin>  (87) 
autodockgpu

>  <m_score__min__energy>  (87) 
-8.1699999999999999

>  <m_primary>  (87) 
energy

>  <rmsd>  (87) 
5.315085699033168

>  <m_score__min__rmsd>  (87) 
5.315085699033168

>  <meeko>  (87) 
{"free_energy": -6.59, "intermolecular_energy": -8.38, "internal_energy": -2.42, "cluster_size": 22, "cluster_id": 1, "rank_in_cluster": 22}

>  <energy>  (87) 
-7.72

>  <cluster_rmsd>  (87) 
0.0

>  <cluster>  (87) 
4

$$$$

     RDKit          3D

 53 56  0  0  0  0  0  0  0  0999 V2000
  140.0850   73.4910  220.3760 O   0  0  0  0  0  0  0  0  0  0  0  0
  139.7880   73.5880  221.6160 C   0  0  0  0  0  0  0  0  0  0  0  0
  139.4860   74.8770  222.1840 N   0  0  0  0  0  0  0  0  0  0  0  0
  139.5330   76.0030  221.3070 C   0  0  0  0  0  0  0  0  0  0  0  0
  140.6780   76.8780  221.2860 C   0  0  0  0  0  0  0  0  0  0  0  0
  141.7760   76.3150  220.8610 O   0  0  0  0  0  0  0  0  0  0  0  0
  140.8350   78.2440  221.6420 N   0  0  0  0  0  0  0  0  0  0  0  0
  141.0280   79.3120  220.6790 C   0  0  0  0  0  0  0  0  0  0  0  0
  142.2010   80.1740  221.1830 C   0  0  0  0  0  0  0  0  0  0  0  0
  141.8250   80.6700  222.5560 C   0  0  0  0  0  0  0  0  0  0  0  0
  141.8420   79.4360  223.4720 C   0  0  0  0  0  0  0  0  0  0  0  0
  140.7120   78.5240  223.0910 C   0  0  1  0  0  0  0  0  0  0  0  0
  139.3750   79.1100  223.3710 C   0  0  0  0  0  0  0  0  0  0  0  0
  138.2170   78.6180  222.7960 C   0  0  0  0  0  0  0  0  0  0  0  0
  136.9650   79.1630  223.0620 C   0  0  0  0  0  0  0  0  0  0  0  0
  136.9280   80.2300  223.9390 C   0  0  0  0  0  0  0  0  0  0  0  0
  138.1130   80.6790  224.4830 C   0  0  0  0  0  0  0  0  0  0  0  0
  139.3130   80.1390  224.2120 N   0  0  0  0  0  0  0  0  0  0  0  0
  139.7480   72.4100  222.4780 C   0  0  0  0  0  0  0  0  0  0  0  0
  139.0790   71.2790  222.0540 C   0  0  0  0  0  0  0  0  0  0  0  0
  139.0580   70.1730  222.9100 C   0  0  0  0  0  0  0  0  0  0  0  0
  139.6960   70.2570  224.1270 C   0  0  0  0  0  0  0  0  0  0  0  0
  139.7000   69.1830  225.0080 C   0  0  0  0  0  0  0  0  0  0  0  0
  140.3440   69.2640  226.2400 C   0  0  0  0  0  0  0  0  0  0  0  0
  140.3410   68.1050  227.1770 C   0  0  0  0  0  0  0  0  0  0  0  0
  141.4360   68.2000  228.0070 F   0  0  0  0  0  0  0  0  0  0  0  0
  139.2090   68.1490  227.9810 F   0  0  0  0  0  0  0  0  0  0  0  0
  140.3680   66.9450  226.4560 F   0  0  0  0  0  0  0  0  0  0  0  0
  140.9890   70.4130  226.6010 C   0  0  0  0  0  0  0  0  0  0  0  0
  141.0080   71.4980  225.7570 C   0  0  0  0  0  0  0  0  0  0  0  0
  140.3680   71.4040  224.5420 C   0  0  0  0  0  0  0  0  0  0  0  0
  140.3540   72.4330  223.6790 N   0  0  0  0  0  0  0  0  0  0  0  0
  139.2510   74.9020  223.2020 H   0  0  0  0  0  0  0  0  0  0  0  0
  139.4208   75.6095  220.2859 H   0  0  0  0  0  0  0  0  0  0  0  0
  138.7384   76.6525  221.7030 H   0  0  0  0  0  0  0  0  0  0  0  0
  141.2673   78.8903  219.6916 H   0  0  0  0  0  0  0  0  0  0  0  0
  140.1145   79.9165  220.5783 H   0  0  0  0  0  0  0  0  0  0  0  0
  143.1181   79.5691  221.2378 H   0  0  0  0  0  0  0  0  0  0  0  0
  142.3919   81.0151  220.5003 H   0  0  0  0  0  0  0  0  0  0  0  0
  142.5541   81.4157  222.9059 H   0  0  0  0  0  0  0  0  0  0  0  0
  140.8379   81.1554  222.5525 H   0  0  0  0  0  0  0  0  0  0  0  0
  142.7984   78.9051  223.3566 H   0  0  0  0  0  0  0  0  0  0  0  0
  141.7260   79.7512  224.5195 H   0  0  0  0  0  0  0  0  0  0  0  0
  140.7839   77.6079  223.6956 H   0  0  0  0  0  0  0  0  0  0  0  0
  138.2887   77.7658  222.1041 H   0  0  0  0  0  0  0  0  0  0  0  0
  136.0508   78.7647  222.5976 H   0  0  0  0  0  0  0  0  0  0  0  0
  135.9733   80.7113  224.1979 H   0  0  0  0  0  0  0  0  0  0  0  0
  138.0734   81.5293  225.1798 H   0  0  0  0  0  0  0  0  0  0  0  0
  138.5788   71.2488  221.0748 H   0  0  0  0  0  0  0  0  0  0  0  0
  138.5390   69.2491  222.6149 H   0  0  0  0  0  0  0  0  0  0  0  0
  139.1854   68.2521  224.7275 H   0  0  0  0  0  0  0  0  0  0  0  0
  141.4972   70.4704  227.5749 H   0  0  0  0  0  0  0  0  0  0  0  0
  141.5252   72.4244  226.0473 H   0  0  0  0  0  0  0  0  0  0  0  0
  1  2  2  0
  2  3  1  0
  3  4  1  0
  4  5  1  0
  5  6  2  0
  5  7  1  0
  7  8  1  0
  8  9  1  0
  9 10  1  0
 10 11  1  0
 11 12  1  0
 12 13  1  0
 13 14  2  0
 14 15  1  0
 15 16  2  0
 16 17  1  0
 17 18  2  0
  2 19  1  0
 19 20  2  0
 20 21  1  0
 21 22  2  0
 22 23  1  0
 23 24  2  0
 24 25  1  0
 25 26  1  0
 25 27  1  0
 25 28  1  0
 24 29  1  0
 29 30  2  0
 30 31  1  0
 31 32  2  0
 12  7  1  0
 18 13  1  0
 32 19  1  0
 31 22  1  0
  3 33  1  0
  4 34  1  0
  4 35  1  0
  8 36  1  0
  8 37  1  0
  9 38  1  0
  9 39  1  0
 10 40  1  0
 10 41  1  0
 11 42  1  0
 11 43  1  0
 12 44  1  1
 14 45  1  0
 15 46  1  0
 16 47  1  0
 17 48  1  0
 20 49  1  0
 21 50  1  0
 23 51  1  0
 29 52  1  0
 30 53  1  0
M  END
>  <smiles>  (88) 
O=C(NCC(=O)N1CCCCC1c1ccccn1)c1ccc2cc(C(F)(F)F)ccc2n1

>  <score_type>  (88) 
oracle

>  <origin>  (88) 
autodockgpu

>  <m_score__min__energy>  (88) 
-8.1699999999999999

>  <m_primary>  (88) 
energy

>  <rmsd>  (88) 
3.938289494897859

>  <m_score__min__rmsd>  (88) 
3.938289494897859

>  <meeko>  (88) 
{"free_energy": -8.04, "intermolecular_energy": -9.83, "internal_energy": -1.55, "cluster_size": 22, "cluster_id": 1, "rank_in_cluster": 3}

>  <energy>  (88) 
-7.42

>  <cluster_rmsd>  (88) 
0.0

>  <cluster>  (88) 
5

$$$$

     RDKit          3D

 53 56  0  0  0  0  0  0  0  0999 V2000
  134.1530   71.1810  226.5870 O   0  0  0  0  0  0  0  0  0  0  0  0
  134.1400   72.0770  225.6750 C   0  0  0  0  0  0  0  0  0  0  0  0
  134.3070   71.7000  224.2950 N   0  0  0  0  0  0  0  0  0  0  0  0
  134.4810   70.3100  224.0150 C   0  0  0  0  0  0  0  0  0  0  0  0
  135.7310   69.6490  224.2930 C   0  0  0  0  0  0  0  0  0  0  0  0
  135.6100   68.5240  224.9430 O   0  0  0  0  0  0  0  0  0  0  0  0
  137.0740   69.9940  223.9890 N   0  0  0  0  0  0  0  0  0  0  0  0
  137.5530   71.3600  223.8860 C   0  0  0  0  0  0  0  0  0  0  0  0
  138.3840   71.4540  222.5920 C   0  0  0  0  0  0  0  0  0  0  0  0
  139.4930   70.4400  222.7050 C   0  0  0  0  0  0  0  0  0  0  0  0
  138.8190   69.0620  222.6220 C   0  0  0  0  0  0  0  0  0  0  0  0
  137.9950   68.8410  223.8570 C   0  0  1  0  0  0  0  0  0  0  0  0
  138.8170   68.7180  225.0880 C   0  0  0  0  0  0  0  0  0  0  0  0
  139.1640   69.8140  225.8580 C   0  0  0  0  0  0  0  0  0  0  0  0
  139.9290   69.6990  227.0140 C   0  0  0  0  0  0  0  0  0  0  0  0
  140.3330   68.4240  227.3640 C   0  0  0  0  0  0  0  0  0  0  0  0
  139.9590   67.3690  226.5600 C   0  0  0  0  0  0  0  0  0  0  0  0
  139.2190   67.5010  225.4470 N   0  0  0  0  0  0  0  0  0  0  0  0
  133.9570   73.4880  226.0030 C   0  0  0  0  0  0  0  0  0  0  0  0
  134.8020   74.4300  225.4500 C   0  0  0  0  0  0  0  0  0  0  0  0
  134.5990   75.7710  225.7930 C   0  0  0  0  0  0  0  0  0  0  0  0
  133.5770   76.0930  226.6570 C   0  0  0  0  0  0  0  0  0  0  0  0
  133.3390   77.4120  227.0250 C   0  0  0  0  0  0  0  0  0  0  0  0
  132.3070   77.7410  227.8990 C   0  0  0  0  0  0  0  0  0  0  0  0
  132.0620   79.1590  228.2860 C   0  0  0  0  0  0  0  0  0  0  0  0
  133.0530   79.5630  229.1530 F   0  0  0  0  0  0  0  0  0  0  0  0
  132.1370   79.9760  227.1640 F   0  0  0  0  0  0  0  0  0  0  0  0
  130.8290   79.2610  228.8660 F   0  0  0  0  0  0  0  0  0  0  0  0
  131.5060   76.7610  228.4120 C   0  0  0  0  0  0  0  0  0  0  0  0
  131.7080   75.4440  228.0730 C   0  0  0  0  0  0  0  0  0  0  0  0
  132.7310   75.1320  227.2070 C   0  0  0  0  0  0  0  0  0  0  0  0
  132.9750   73.8630  226.8430 N   0  0  0  0  0  0  0  0  0  0  0  0
  134.2900   72.4700  223.5890 H   0  0  0  0  0  0  0  0  0  0  0  0
  133.7099   69.7760  224.5897 H   0  0  0  0  0  0  0  0  0  0  0  0
  134.4272   70.2752  222.9169 H   0  0  0  0  0  0  0  0  0  0  0  0
  136.7020   72.0554  223.8390 H   0  0  0  0  0  0  0  0  0  0  0  0
  138.1621   71.6277  224.7620 H   0  0  0  0  0  0  0  0  0  0  0  0
  137.7525   71.2274  221.7203 H   0  0  0  0  0  0  0  0  0  0  0  0
  138.7910   72.4674  222.4600 H   0  0  0  0  0  0  0  0  0  0  0  0
  140.2101   70.5647  221.8802 H   0  0  0  0  0  0  0  0  0  0  0  0
  140.0521   70.5584  223.6449 H   0  0  0  0  0  0  0  0  0  0  0  0
  138.1701   69.0226  221.7347 H   0  0  0  0  0  0  0  0  0  0  0  0
  139.5873   68.2786  222.5450 H   0  0  0  0  0  0  0  0  0  0  0  0
  137.4525   67.8901  223.7497 H   0  0  0  0  0  0  0  0  0  0  0  0
  138.8228   70.8117  225.5448 H   0  0  0  0  0  0  0  0  0  0  0  0
  140.1987   70.5774  227.6187 H   0  0  0  0  0  0  0  0  0  0  0  0
  140.9403   68.2551  228.2655 H   0  0  0  0  0  0  0  0  0  0  0  0
  140.2860   66.3587  226.8469 H   0  0  0  0  0  0  0  0  0  0  0  0
  135.6084   74.1355  224.7622 H   0  0  0  0  0  0  0  0  0  0  0  0
  135.2470   76.5571  225.3781 H   0  0  0  0  0  0  0  0  0  0  0  0
  133.9776   78.2100  226.6183 H   0  0  0  0  0  0  0  0  0  0  0  0
  130.6922   77.0277  229.1024 H   0  0  0  0  0  0  0  0  0  0  0  0
  131.0637   74.6541  228.4864 H   0  0  0  0  0  0  0  0  0  0  0  0
  1  2  2  0
  2  3  1  0
  3  4  1  0
  4  5  1  0
  5  6  2  0
  5  7  1  0
  7  8  1  0
  8  9  1  0
  9 10  1  0
 10 11  1  0
 11 12  1  0
 12 13  1  0
 13 14  2  0
 14 15  1  0
 15 16  2  0
 16 17  1  0
 17 18  2  0
  2 19  1  0
 19 20  2  0
 20 21  1  0
 21 22  2  0
 22 23  1  0
 23 24  2  0
 24 25  1  0
 25 26  1  0
 25 27  1  0
 25 28  1  0
 24 29  1  0
 29 30  2  0
 30 31  1  0
 31 32  2  0
 12  7  1  0
 18 13  1  0
 32 19  1  0
 31 22  1  0
  3 33  1  0
  4 34  1  0
  4 35  1  0
  8 36  1  0
  8 37  1  0
  9 38  1  0
  9 39  1  0
 10 40  1  0
 10 41  1  0
 11 42  1  0
 11 43  1  0
 12 44  1  6
 14 45  1  0
 15 46  1  0
 16 47  1  0
 17 48  1  0
 20 49  1  0
 21 50  1  0
 23 51  1  0
 29 52  1  0
 30 53  1  0
M  END
>  <smiles>  (89) 
O=C(NCC(=O)N1CCCCC1c1ccccn1)c1ccc2cc(C(F)(F)F)ccc2n1

>  <score_type>  (89) 
oracle

>  <origin>  (89) 
autodockgpu

>  <m_score__min__energy>  (89) 
-8.1699999999999999

>  <m_primary>  (89) 
energy

>  <rmsd>  (89) 
9.55015385929971

>  <m_score__min__rmsd>  (89) 
9.55015385929971

>  <meeko>  (89) 
{"free_energy": -7.72, "intermolecular_energy": -9.51, "internal_energy": -1.43, "cluster_size": 1, "cluster_id": 4, "rank_in_cluster": 1}

>  <energy>  (89) 
-6.89

>  <cluster_rmsd>  (89) 
0.0

>  <cluster>  (89) 
6

$$$$

     RDKit          3D

 53 56  0  0  0  0  0  0  0  0999 V2000
  139.2830   74.5730  222.3360 O   0  0  0  0  0  0  0  0  0  0  0  0
  140.4830   74.7890  221.9520 C   0  0  0  0  0  0  0  0  0  0  0  0
  141.0430   76.1120  222.0530 N   0  0  0  0  0  0  0  0  0  0  0  0
  140.2050   77.1350  222.5920 C   0  0  0  0  0  0  0  0  0  0  0  0
  140.6660   78.4970  222.6890 C   0  0  0  0  0  0  0  0  0  0  0  0
  140.6030   79.0010  223.8910 O   0  0  0  0  0  0  0  0  0  0  0  0
  141.1800   79.3960  221.7180 N   0  0  0  0  0  0  0  0  0  0  0  0
  142.2550   80.3360  221.9770 C   0  0  0  0  0  0  0  0  0  0  0  0
  141.8110   81.7020  221.4180 C   0  0  0  0  0  0  0  0  0  0  0  0
  141.5290   81.5070  219.9510 C   0  0  0  0  0  0  0  0  0  0  0  0
  140.2650   80.6360  219.8720 C   0  0  0  0  0  0  0  0  0  0  0  0
  140.5860   79.2570  220.3690 C   0  0  1  0  0  0  0  0  0  0  0  0
  141.5290   78.5270  219.4830 C   0  0  0  0  0  0  0  0  0  0  0  0
  141.7140   78.8710  218.1560 C   0  0  0  0  0  0  0  0  0  0  0  0
  142.6010   78.1910  217.3270 C   0  0  0  0  0  0  0  0  0  0  0  0
  143.2990   77.1430  217.8960 C   0  0  0  0  0  0  0  0  0  0  0  0
  143.0750   76.8430  219.2230 C   0  0  0  0  0  0  0  0  0  0  0  0
  142.2130   77.5120  220.0070 N   0  0  0  0  0  0  0  0  0  0  0  0
  141.3090   73.7140  221.4090 C   0  0  0  0  0  0  0  0  0  0  0  0
  140.7910   72.4370  221.3220 C   0  0  0  0  0  0  0  0  0  0  0  0
  141.6140   71.4320  220.8010 C   0  0  0  0  0  0  0  0  0  0  0  0
  142.8910   71.7540  220.4020 C   0  0  0  0  0  0  0  0  0  0  0  0
  143.7430   70.7890  219.8790 C   0  0  0  0  0  0  0  0  0  0  0  0
  145.0350   71.1120  219.4740 C   0  0  0  0  0  0  0  0  0  0  0  0
  145.9390   70.0670  218.9150 C   0  0  0  0  0  0  0  0  0  0  0  0
  145.2760   68.8590  218.9110 F   0  0  0  0  0  0  0  0  0  0  0  0
  146.2540   70.3690  217.5960 F   0  0  0  0  0  0  0  0  0  0  0  0
  147.0750   70.0020  219.6720 F   0  0  0  0  0  0  0  0  0  0  0  0
  145.4880   72.3950  219.5870 C   0  0  0  0  0  0  0  0  0  0  0  0
  144.6760   73.3800  220.0980 C   0  0  0  0  0  0  0  0  0  0  0  0
  143.4000   73.0480  220.4940 C   0  0  0  0  0  0  0  0  0  0  0  0
  142.5650   73.9690  221.0020 N   0  0  0  0  0  0  0  0  0  0  0  0
  142.0270   76.2360  221.7250 H   0  0  0  0  0  0  0  0  0  0  0  0
  139.2973   77.1554  221.9709 H   0  0  0  0  0  0  0  0  0  0  0  0
  140.1067   76.8370  223.6463 H   0  0  0  0  0  0  0  0  0  0  0  0
  142.4360   80.4126  223.0593 H   0  0  0  0  0  0  0  0  0  0  0  0
  143.1881   80.0032  221.4989 H   0  0  0  0  0  0  0  0  0  0  0  0
  140.9025   82.0445  221.9350 H   0  0  0  0  0  0  0  0  0  0  0  0
  142.5924   82.4611  221.5700 H   0  0  0  0  0  0  0  0  0  0  0  0
  141.3549   82.4775  219.4634 H   0  0  0  0  0  0  0  0  0  0  0  0
  142.3778   81.0308  219.4384 H   0  0  0  0  0  0  0  0  0  0  0  0
  139.4741   81.0775  220.4961 H   0  0  0  0  0  0  0  0  0  0  0  0
  139.9170   80.5822  218.8299 H   0  0  0  0  0  0  0  0  0  0  0  0
  139.6573   78.6678  220.3876 H   0  0  0  0  0  0  0  0  0  0  0  0
  141.1393   79.7123  217.7412 H   0  0  0  0  0  0  0  0  0  0  0  0
  142.7394   78.4733  216.2729 H   0  0  0  0  0  0  0  0  0  0  0  0
  144.0186   76.5600  217.3025 H   0  0  0  0  0  0  0  0  0  0  0  0
  143.6352   76.0064  219.6661 H   0  0  0  0  0  0  0  0  0  0  0  0
  139.7649   72.2167  221.6515 H   0  0  0  0  0  0  0  0  0  0  0  0
  141.2453   70.3995  220.7117 H   0  0  0  0  0  0  0  0  0  0  0  0
  143.3903   69.7515  219.7833 H   0  0  0  0  0  0  0  0  0  0  0  0
  146.5108   72.6427  219.2667 H   0  0  0  0  0  0  0  0  0  0  0  0
  145.0393   74.4143  220.1887 H   0  0  0  0  0  0  0  0  0  0  0  0
  1  2  2  0
  2  3  1  0
  3  4  1  0
  4  5  1  0
  5  6  2  0
  5  7  1  0
  7  8  1  0
  8  9  1  0
  9 10  1  0
 10 11  1  0
 11 12  1  0
 12 13  1  0
 13 14  2  0
 14 15  1  0
 15 16  2  0
 16 17  1  0
 17 18  2  0
  2 19  1  0
 19 20  2  0
 20 21  1  0
 21 22  2  0
 22 23  1  0
 23 24  2  0
 24 25  1  0
 25 26  1  0
 25 27  1  0
 25 28  1  0
 24 29  1  0
 29 30  2  0
 30 31  1  0
 31 32  2  0
 12  7  1  0
 18 13  1  0
 32 19  1  0
 31 22  1  0
  3 33  1  0
  4 34  1  0
  4 35  1  0
  8 36  1  0
  8 37  1  0
  9 38  1  0
  9 39  1  0
 10 40  1  0
 10 41  1  0
 11 42  1  0
 11 43  1  0
 12 44  1  1
 14 45  1  0
 15 46  1  0
 16 47  1  0
 17 48  1  0
 20 49  1  0
 21 50  1  0
 23 51  1  0
 29 52  1  0
 30 53  1  0
M  END
>  <smiles>  (90) 
O=C(NCC(=O)N1CCCCC1c1ccccn1)c1ccc2cc(C(F)(F)F)ccc2n1

>  <score_type>  (90) 
oracle

>  <origin>  (90) 
autodockgpu

>  <m_score__min__energy>  (90) 
-8.1699999999999999

>  <m_primary>  (90) 
energy

>  <rmsd>  (90) 
5.83160659233185

>  <m_score__min__rmsd>  (90) 
5.83160659233185

>  <meeko>  (90) 
{"free_energy": -6.43, "intermolecular_energy": -8.22, "internal_energy": -2.9, "cluster_size": 10, "cluster_id": 6, "rank_in_cluster": 3}

>  <energy>  (90) 
-6.82

>  <cluster_rmsd>  (90) 
0.32

>  <cluster>  (90) 
6

$$$$

     RDKit          3D

 53 56  0  0  0  0  0  0  0  0999 V2000
  139.2080   73.5970  220.6310 O   0  0  0  0  0  0  0  0  0  0  0  0
  140.1480   73.2270  221.4140 C   0  0  0  0  0  0  0  0  0  0  0  0
  141.4670   73.7890  221.2700 N   0  0  0  0  0  0  0  0  0  0  0  0
  141.6540   74.7540  220.2340 C   0  0  0  0  0  0  0  0  0  0  0  0
  141.4960   76.1630  220.4950 C   0  0  0  0  0  0  0  0  0  0  0  0
  142.3780   76.9210  219.9050 O   0  0  0  0  0  0  0  0  0  0  0  0
  140.5540   76.8820  221.2780 N   0  0  0  0  0  0  0  0  0  0  0  0
  139.8150   76.3030  222.3850 C   0  0  0  0  0  0  0  0  0  0  0  0
  138.3390   76.7070  222.2080 C   0  0  0  0  0  0  0  0  0  0  0  0
  138.2930   78.2130  222.1830 C   0  0  0  0  0  0  0  0  0  0  0  0
  138.9620   78.6360  220.8660 C   0  0  0  0  0  0  0  0  0  0  0  0
  140.4270   78.3160  220.9310 C   0  0  1  0  0  0  0  0  0  0  0  0
  141.1540   79.1360  221.9330 C   0  0  0  0  0  0  0  0  0  0  0  0
  141.4990   80.4550  221.7000 C   0  0  0  0  0  0  0  0  0  0  0  0
  142.1760   81.2250  222.6400 C   0  0  0  0  0  0  0  0  0  0  0  0
  142.4930   80.6060  223.8340 C   0  0  0  0  0  0  0  0  0  0  0  0
  142.1250   79.2900  224.0140 C   0  0  0  0  0  0  0  0  0  0  0  0
  141.4710   78.5630  223.0920 N   0  0  0  0  0  0  0  0  0  0  0  0
  139.9140   72.2390  222.4640 C   0  0  0  0  0  0  0  0  0  0  0  0
  138.9360   71.2810  222.2890 C   0  0  0  0  0  0  0  0  0  0  0  0
  138.7370   70.3540  223.3190 C   0  0  0  0  0  0  0  0  0  0  0  0
  139.5160   70.4360  224.4510 C   0  0  0  0  0  0  0  0  0  0  0  0
  139.3530   69.5370  225.4980 C   0  0  0  0  0  0  0  0  0  0  0  0
  140.1390   69.6180  226.6440 C   0  0  0  0  0  0  0  0  0  0  0  0
  139.9540   68.6470  227.7610 C   0  0  0  0  0  0  0  0  0  0  0  0
  139.2060   69.2440  228.7510 F   0  0  0  0  0  0  0  0  0  0  0  0
  139.2410   67.5410  227.3150 F   0  0  0  0  0  0  0  0  0  0  0  0
  141.1790   68.2650  228.2320 F   0  0  0  0  0  0  0  0  0  0  0  0
  141.0910   70.5900  226.7560 C   0  0  0  0  0  0  0  0  0  0  0  0
  141.2840   71.4980  225.7420 C   0  0  0  0  0  0  0  0  0  0  0  0
  140.5000   71.4080  224.6130 C   0  0  0  0  0  0  0  0  0  0  0  0
  140.6450   72.2690  223.5930 N   0  0  0  0  0  0  0  0  0  0  0  0
  142.2000   73.4530  221.9340 H   0  0  0  0  0  0  0  0  0  0  0  0
  142.6800   74.6180  219.8613 H   0  0  0  0  0  0  0  0  0  0  0  0
  140.8198   74.5395  219.5498 H   0  0  0  0  0  0  0  0  0  0  0  0
  139.9103   75.2072  222.3697 H   0  0  0  0  0  0  0  0  0  0  0  0
  140.2062   76.6646  223.3474 H   0  0  0  0  0  0  0  0  0  0  0  0
  137.9473   76.3016  221.2634 H   0  0  0  0  0  0  0  0  0  0  0  0
  137.7228   76.3095  223.0279 H   0  0  0  0  0  0  0  0  0  0  0  0
  137.2509   78.5640  222.2122 H   0  0  0  0  0  0  0  0  0  0  0  0
  138.8077   78.6461  223.0533 H   0  0  0  0  0  0  0  0  0  0  0  0
  138.5031   78.0902  220.0284 H   0  0  0  0  0  0  0  0  0  0  0  0
  138.8265   79.7169  220.7134 H   0  0  0  0  0  0  0  0  0  0  0  0
  140.8789   78.5449  219.9546 H   0  0  0  0  0  0  0  0  0  0  0  0
  141.2282   80.9116  220.7365 H   0  0  0  0  0  0  0  0  0  0  0  0
  142.4453   82.2732  222.4429 H   0  0  0  0  0  0  0  0  0  0  0  0
  143.0281   81.1523  224.6247 H   0  0  0  0  0  0  0  0  0  0  0  0
  142.3816   78.8064  224.9681 H   0  0  0  0  0  0  0  0  0  0  0  0
  138.3325   71.2470  221.3700 H   0  0  0  0  0  0  0  0  0  0  0  0
  137.9695   69.5716  223.2251 H   0  0  0  0  0  0  0  0  0  0  0  0
  138.5902   68.7483  225.4199 H   0  0  0  0  0  0  0  0  0  0  0  0
  141.7084   70.6471  227.6646 H   0  0  0  0  0  0  0  0  0  0  0  0
  142.0504   72.2820  225.8306 H   0  0  0  0  0  0  0  0  0  0  0  0
  1  2  2  0
  2  3  1  0
  3  4  1  0
  4  5  1  0
  5  6  2  0
  5  7  1  0
  7  8  1  0
  8  9  1  0
  9 10  1  0
 10 11  1  0
 11 12  1  0
 12 13  1  0
 13 14  2  0
 14 15  1  0
 15 16  2  0
 16 17  1  0
 17 18  2  0
  2 19  1  0
 19 20  2  0
 20 21  1  0
 21 22  2  0
 22 23  1  0
 23 24  2  0
 24 25  1  0
 25 26  1  0
 25 27  1  0
 25 28  1  0
 24 29  1  0
 29 30  2  0
 30 31  1  0
 31 32  2  0
 12  7  1  0
 18 13  1  0
 32 19  1  0
 31 22  1  0
  3 33  1  0
  4 34  1  0
  4 35  1  0
  8 36  1  0
  8 37  1  0
  9 38  1  0
  9 39  1  0
 10 40  1  0
 10 41  1  0
 11 42  1  0
 11 43  1  0
 12 44  1  6
 14 45  1  0
 15 46  1  0
 16 47  1  0
 17 48  1  0
 20 49  1  0
 21 50  1  0
 23 51  1  0
 29 52  1  0
 30 53  1  0
M  END
>  <smiles>  (91) 
O=C(NCC(=O)N1CCCCC1c1ccccn1)c1ccc2cc(C(F)(F)F)ccc2n1

>  <score_type>  (91) 
oracle

>  <origin>  (91) 
autodockgpu

>  <m_score__min__energy>  (91) 
-8.1699999999999999

>  <m_primary>  (91) 
energy

>  <rmsd>  (91) 
3.0542134363221463

>  <m_score__min__rmsd>  (91) 
3.0542134363221463

>  <meeko>  (91) 
{"free_energy": -7.61, "intermolecular_energy": -9.4, "internal_energy": -1.92, "cluster_size": 22, "cluster_id": 1, "rank_in_cluster": 11}

>  <energy>  (91) 
-6.43

>  <cluster_rmsd>  (91) 
1.09

>  <cluster>  (91) 
6

$$$$

     RDKit          3D

 53 56  0  0  0  0  0  0  0  0999 V2000
  139.0030   73.7170  220.7940 O   0  0  0  0  0  0  0  0  0  0  0  0
  139.9620   73.3050  221.5320 C   0  0  0  0  0  0  0  0  0  0  0  0
  141.2870   73.8420  221.3530 N   0  0  0  0  0  0  0  0  0  0  0  0
  141.4590   74.8300  220.3370 C   0  0  0  0  0  0  0  0  0  0  0  0
  141.3920   76.2350  220.6510 C   0  0  0  0  0  0  0  0  0  0  0  0
  142.4000   76.9330  220.2070 O   0  0  0  0  0  0  0  0  0  0  0  0
  140.4290   77.0040  221.3560 N   0  0  0  0  0  0  0  0  0  0  0  0
  139.6380   76.4930  222.4600 C   0  0  0  0  0  0  0  0  0  0  0  0
  138.1760   76.9030  222.2020 C   0  0  0  0  0  0  0  0  0  0  0  0
  138.1510   78.4060  222.0960 C   0  0  0  0  0  0  0  0  0  0  0  0
  138.8770   78.7510  220.7870 C   0  0  0  0  0  0  0  0  0  0  0  0
  140.3340   78.4190  220.9300 C   0  0  1  0  0  0  0  0  0  0  0  0
  141.0310   79.2830  221.9170 C   0  0  0  0  0  0  0  0  0  0  0  0
  141.1110   80.6570  221.7720 C   0  0  0  0  0  0  0  0  0  0  0  0
  141.7590   81.4670  222.6990 C   0  0  0  0  0  0  0  0  0  0  0  0
  142.3270   80.8300  223.7860 C   0  0  0  0  0  0  0  0  0  0  0  0
  142.2170   79.4600  223.8810 C   0  0  0  0  0  0  0  0  0  0  0  0
  141.5870   78.6950  222.9730 N   0  0  0  0  0  0  0  0  0  0  0  0
  139.7430   72.2940  222.5620 C   0  0  0  0  0  0  0  0  0  0  0  0
  138.7160   71.3830  222.4140 C   0  0  0  0  0  0  0  0  0  0  0  0
  138.5340   70.4330  223.4250 C   0  0  0  0  0  0  0  0  0  0  0  0
  139.3760   70.4460  224.5140 C   0  0  0  0  0  0  0  0  0  0  0  0
  139.2320   69.5220  225.5410 C   0  0  0  0  0  0  0  0  0  0  0  0
  140.0820   69.5330  226.6440 C   0  0  0  0  0  0  0  0  0  0  0  0
  139.9170   68.5350  227.7400 C   0  0  0  0  0  0  0  0  0  0  0  0
  139.1800   69.1050  228.7540 F   0  0  0  0  0  0  0  0  0  0  0  0
  139.2010   67.4370  227.2780 F   0  0  0  0  0  0  0  0  0  0  0  0
  141.1490   68.1470  228.1840 F   0  0  0  0  0  0  0  0  0  0  0  0
  141.0790   70.4620  226.7310 C   0  0  0  0  0  0  0  0  0  0  0  0
  141.2550   71.3930  225.7360 C   0  0  0  0  0  0  0  0  0  0  0  0
  140.4090   71.3710  224.6500 C   0  0  0  0  0  0  0  0  0  0  0  0
  140.5340   72.2580  223.6500 N   0  0  0  0  0  0  0  0  0  0  0  0
  142.0350   73.4710  221.9810 H   0  0  0  0  0  0  0  0  0  0  0  0
  142.4509   74.6550  219.8949 H   0  0  0  0  0  0  0  0  0  0  0  0
  140.5737   74.6810  219.7013 H   0  0  0  0  0  0  0  0  0  0  0  0
  139.7194   75.3970  222.5062 H   0  0  0  0  0  0  0  0  0  0  0  0
  139.9946   76.9012  223.4172 H   0  0  0  0  0  0  0  0  0  0  0  0
  137.8172   76.4524  221.2649 H   0  0  0  0  0  0  0  0  0  0  0  0
  137.5221   76.5564  223.0158 H   0  0  0  0  0  0  0  0  0  0  0  0
  137.1133   78.7696  222.0647 H   0  0  0  0  0  0  0  0  0  0  0  0
  138.6366   78.8788  222.9624 H   0  0  0  0  0  0  0  0  0  0  0  0
  138.4454   78.1661  219.9614 H   0  0  0  0  0  0  0  0  0  0  0  0
  138.7612   79.8233  220.5710 H   0  0  0  0  0  0  0  0  0  0  0  0
  140.8277   78.5915  219.9623 H   0  0  0  0  0  0  0  0  0  0  0  0
  140.6455   81.1254  220.8923 H   0  0  0  0  0  0  0  0  0  0  0  0
  141.8163   82.5583  222.5733 H   0  0  0  0  0  0  0  0  0  0  0  0
  142.8563   81.4053  224.5598 H   0  0  0  0  0  0  0  0  0  0  0  0
  142.6713   78.9631  224.7509 H   0  0  0  0  0  0  0  0  0  0  0  0
  138.0620   71.4035  221.5298 H   0  0  0  0  0  0  0  0  0  0  0  0
  137.7296   69.6864  223.3507 H   0  0  0  0  0  0  0  0  0  0  0  0
  138.4327   68.7686  225.4820 H   0  0  0  0  0  0  0  0  0  0  0  0
  141.7468   70.4650  227.6051 H   0  0  0  0  0  0  0  0  0  0  0  0
  142.0573   72.1423  225.8058 H   0  0  0  0  0  0  0  0  0  0  0  0
  1  2  2  0
  2  3  1  0
  3  4  1  0
  4  5  1  0
  5  6  2  0
  5  7  1  0
  7  8  1  0
  8  9  1  0
  9 10  1  0
 10 11  1  0
 11 12  1  0
 12 13  1  0
 13 14  2  0
 14 15  1  0
 15 16  2  0
 16 17  1  0
 17 18  2  0
  2 19  1  0
 19 20  2  0
 20 21  1  0
 21 22  2  0
 22 23  1  0
 23 24  2  0
 24 25  1  0
 25 26  1  0
 25 27  1  0
 25 28  1  0
 24 29  1  0
 29 30  2  0
 30 31  1  0
 31 32  2  0
 12  7  1  0
 18 13  1  0
 32 19  1  0
 31 22  1  0
  3 33  1  0
  4 34  1  0
  4 35  1  0
  8 36  1  0
  8 37  1  0
  9 38  1  0
  9 39  1  0
 10 40  1  0
 10 41  1  0
 11 42  1  0
 11 43  1  0
 12 44  1  6
 14 45  1  0
 15 46  1  0
 16 47  1  0
 17 48  1  0
 20 49  1  0
 21 50  1  0
 23 51  1  0
 29 52  1  0
 30 53  1  0
M  END
>  <smiles>  (92) 
O=C(NCC(=O)N1CCCCC1c1ccccn1)c1ccc2cc(C(F)(F)F)ccc2n1

>  <score_type>  (92) 
oracle

>  <origin>  (92) 
autodockgpu

>  <m_score__min__energy>  (92) 
-8.1699999999999999

>  <m_primary>  (92) 
energy

>  <rmsd>  (92) 
3.0510916992441457

>  <m_score__min__rmsd>  (92) 
3.0510916992441457

>  <meeko>  (92) 
{"free_energy": -7.46, "intermolecular_energy": -9.25, "internal_energy": -1.96, "cluster_size": 22, "cluster_id": 1, "rank_in_cluster": 14}

>  <energy>  (92) 
-6.4

>  <cluster_rmsd>  (92) 
1.11

>  <cluster>  (92) 
6

$$$$

     RDKit          3D

 53 56  0  0  0  0  0  0  0  0999 V2000
  139.1860   73.6900  220.6910 O   0  0  0  0  0  0  0  0  0  0  0  0
  140.1250   73.2880  221.4590 C   0  0  0  0  0  0  0  0  0  0  0  0
  141.4590   73.8070  221.2960 N   0  0  0  0  0  0  0  0  0  0  0  0
  141.6630   74.7680  220.2600 C   0  0  0  0  0  0  0  0  0  0  0  0
  141.5240   76.1790  220.5200 C   0  0  0  0  0  0  0  0  0  0  0  0
  142.4510   76.9190  219.9770 O   0  0  0  0  0  0  0  0  0  0  0  0
  140.5630   76.9170  221.2600 N   0  0  0  0  0  0  0  0  0  0  0  0
  139.8210   76.3770  222.3840 C   0  0  0  0  0  0  0  0  0  0  0  0
  138.3410   76.7470  222.1740 C   0  0  0  0  0  0  0  0  0  0  0  0
  138.2710   78.2500  222.0800 C   0  0  0  0  0  0  0  0  0  0  0  0
  138.9470   78.6240  220.7520 C   0  0  0  0  0  0  0  0  0  0  0  0
  140.4160   78.3310  220.8470 C   0  0  1  0  0  0  0  0  0  0  0  0
  141.1200   79.2080  221.8180 C   0  0  0  0  0  0  0  0  0  0  0  0
  141.5810   78.7410  223.0360 C   0  0  0  0  0  0  0  0  0  0  0  0
  142.2440   79.5600  223.9440 C   0  0  0  0  0  0  0  0  0  0  0  0
  142.4250   80.8780  223.5700 C   0  0  0  0  0  0  0  0  0  0  0  0
  141.9450   81.2890  222.3450 C   0  0  0  0  0  0  0  0  0  0  0  0
  141.3060   80.4820  221.4820 N   0  0  0  0  0  0  0  0  0  0  0  0
  139.8750   72.3050  222.5100 C   0  0  0  0  0  0  0  0  0  0  0  0
  138.8260   71.4170  222.3740 C   0  0  0  0  0  0  0  0  0  0  0  0
  138.6140   70.4940  223.4030 C   0  0  0  0  0  0  0  0  0  0  0  0
  139.4490   70.5080  224.4970 C   0  0  0  0  0  0  0  0  0  0  0  0
  139.2760   69.6100  225.5430 C   0  0  0  0  0  0  0  0  0  0  0  0
  140.1190   69.6220  226.6500 C   0  0  0  0  0  0  0  0  0  0  0  0
  139.9220   68.6530  227.7650 C   0  0  0  0  0  0  0  0  0  0  0  0
  139.2520   67.5500  227.2850 F   0  0  0  0  0  0  0  0  0  0  0  0
  141.1540   68.2150  228.2360 F   0  0  0  0  0  0  0  0  0  0  0  0
  139.2180   69.2580  228.7680 F   0  0  0  0  0  0  0  0  0  0  0  0
  141.1400   70.5270  226.7240 C   0  0  0  0  0  0  0  0  0  0  0  0
  141.3450   71.4320  225.7100 C   0  0  0  0  0  0  0  0  0  0  0  0
  140.5050   71.4090  224.6210 C   0  0  0  0  0  0  0  0  0  0  0  0
  140.6590   72.2710  223.6020 N   0  0  0  0  0  0  0  0  0  0  0  0
  142.1910   73.4450  221.9490 H   0  0  0  0  0  0  0  0  0  0  0  0
  142.6881   74.6173  219.8907 H   0  0  0  0  0  0  0  0  0  0  0  0
  140.8284   74.5647  219.5729 H   0  0  0  0  0  0  0  0  0  0  0  0
  139.9345   75.2835  222.4198 H   0  0  0  0  0  0  0  0  0  0  0  0
  140.1953   76.7892  223.3327 H   0  0  0  0  0  0  0  0  0  0  0  0
  137.9663   76.2926  221.2450 H   0  0  0  0  0  0  0  0  0  0  0  0
  137.7223   76.3766  223.0046 H   0  0  0  0  0  0  0  0  0  0  0  0
  137.2231   78.5846  222.0828 H   0  0  0  0  0  0  0  0  0  0  0  0
  138.7694   78.7305  222.9348 H   0  0  0  0  0  0  0  0  0  0  0  0
  138.5060   78.0335  219.9354 H   0  0  0  0  0  0  0  0  0  0  0  0
  138.7958   79.6944  220.5486 H   0  0  0  0  0  0  0  0  0  0  0  0
  140.8740   78.5226  219.8654 H   0  0  0  0  0  0  0  0  0  0  0  0
  141.4174   77.6846  223.2955 H   0  0  0  0  0  0  0  0  0  0  0  0
  142.6057   79.1782  224.9101 H   0  0  0  0  0  0  0  0  0  0  0  0
  142.9415   81.5846  224.2362 H   0  0  0  0  0  0  0  0  0  0  0  0
  142.0941   82.3401  222.0571 H   0  0  0  0  0  0  0  0  0  0  0  0
  138.1783   71.4352  221.4851 H   0  0  0  0  0  0  0  0  0  0  0  0
  137.7912   69.7668  223.3389 H   0  0  0  0  0  0  0  0  0  0  0  0
  138.4578   68.8763  225.4952 H   0  0  0  0  0  0  0  0  0  0  0  0
  141.8030   70.5313  227.6018 H   0  0  0  0  0  0  0  0  0  0  0  0
  142.1661   72.1616  225.7683 H   0  0  0  0  0  0  0  0  0  0  0  0
  1  2  2  0
  2  3  1  0
  3  4  1  0
  4  5  1  0
  5  6  2  0
  5  7  1  0
  7  8  1  0
  8  9  1  0
  9 10  1  0
 10 11  1  0
 11 12  1  0
 12 13  1  0
 13 14  2  0
 14 15  1  0
 15 16  2  0
 16 17  1  0
 17 18  2  0
  2 19  1  0
 19 20  2  0
 20 21  1  0
 21 22  2  0
 22 23  1  0
 23 24  2  0
 24 25  1  0
 25 26  1  0
 25 27  1  0
 25 28  1  0
 24 29  1  0
 29 30  2  0
 30 31  1  0
 31 32  2  0
 12  7  1  0
 18 13  1  0
 32 19  1  0
 31 22  1  0
  3 33  1  0
  4 34  1  0
  4 35  1  0
  8 36  1  0
  8 37  1  0
  9 38  1  0
  9 39  1  0
 10 40  1  0
 10 41  1  0
 11 42  1  0
 11 43  1  0
 12 44  1  6
 14 45  1  0
 15 46  1  0
 16 47  1  0
 17 48  1  0
 20 49  1  0
 21 50  1  0
 23 51  1  0
 29 52  1  0
 30 53  1  0
M  END
>  <smiles>  (93) 
O=C(NCC(=O)N1CCCCC1c1ccccn1)c1ccc2cc(C(F)(F)F)ccc2n1

>  <score_type>  (93) 
oracle

>  <origin>  (93) 
autodockgpu

>  <m_score__min__energy>  (93) 
-8.1699999999999999

>  <m_primary>  (93) 
energy

>  <rmsd>  (93) 
3.378821363785658

>  <m_score__min__rmsd>  (93) 
3.378821363785658

>  <meeko>  (93) 
{"free_energy": -7.57, "intermolecular_energy": -9.35, "internal_energy": -1.85, "cluster_size": 22, "cluster_id": 1, "rank_in_cluster": 12}

>  <energy>  (93) 
-6.3

>  <cluster_rmsd>  (93) 
1.14

>  <cluster>  (93) 
6

$$$$

     RDKit          3D

 53 56  0  0  0  0  0  0  0  0999 V2000
  140.7320   74.3640  221.9580 O   0  0  0  0  0  0  0  0  0  0  0  0
  139.6820   73.6370  221.8900 C   0  0  0  0  0  0  0  0  0  0  0  0
  138.6220   73.9900  220.9800 N   0  0  0  0  0  0  0  0  0  0  0  0
  138.8090   75.1600  220.1830 C   0  0  0  0  0  0  0  0  0  0  0  0
  139.1710   76.4180  220.7880 C   0  0  0  0  0  0  0  0  0  0  0  0
  138.7340   76.5730  222.0070 O   0  0  0  0  0  0  0  0  0  0  0  0
  139.9180   77.5230  220.3020 N   0  0  0  0  0  0  0  0  0  0  0  0
  139.3710   78.5470  219.4310 C   0  0  0  0  0  0  0  0  0  0  0  0
  140.3790   78.7570  218.2850 C   0  0  0  0  0  0  0  0  0  0  0  0
  141.6900   79.1490  218.9170 C   0  0  0  0  0  0  0  0  0  0  0  0
  142.2010   77.8970  219.6470 C   0  0  0  0  0  0  0  0  0  0  0  0
  141.3050   77.6070  220.8150 C   0  0  1  0  0  0  0  0  0  0  0  0
  141.3800   78.6450  221.8750 C   0  0  0  0  0  0  0  0  0  0  0  0
  142.5710   79.2560  222.2280 C   0  0  0  0  0  0  0  0  0  0  0  0
  142.6410   80.2320  223.2170 C   0  0  0  0  0  0  0  0  0  0  0  0
  141.4540   80.5690  223.8400 C   0  0  0  0  0  0  0  0  0  0  0  0
  140.2980   79.9280  223.4480 C   0  0  0  0  0  0  0  0  0  0  0  0
  140.2510   78.9870  222.4900 N   0  0  0  0  0  0  0  0  0  0  0  0
  139.5320   72.4460  222.7200 C   0  0  0  0  0  0  0  0  0  0  0  0
  138.5290   71.5400  222.4340 C   0  0  0  0  0  0  0  0  0  0  0  0
  138.4130   70.4130  223.2550 C   0  0  0  0  0  0  0  0  0  0  0  0
  139.2920   70.2560  224.3030 C   0  0  0  0  0  0  0  0  0  0  0  0
  139.2120   69.1530  225.1440 C   0  0  0  0  0  0  0  0  0  0  0  0
  140.1000   68.9910  226.2050 C   0  0  0  0  0  0  0  0  0  0  0  0
  140.0040   67.8030  227.1000 C   0  0  0  0  0  0  0  0  0  0  0  0
  141.1290   67.0270  226.9320 F   0  0  0  0  0  0  0  0  0  0  0  0
  139.9790   68.2110  228.4280 F   0  0  0  0  0  0  0  0  0  0  0  0
  138.8720   67.1010  226.7970 F   0  0  0  0  0  0  0  0  0  0  0  0
  141.0700   69.9240  226.4350 C   0  0  0  0  0  0  0  0  0  0  0  0
  141.1820   71.0300  225.6250 C   0  0  0  0  0  0  0  0  0  0  0  0
  140.2990   71.1780  224.5800 C   0  0  0  0  0  0  0  0  0  0  0  0
  140.3620   72.2380  223.7580 N   0  0  0  0  0  0  0  0  0  0  0  0
  137.7860   73.3640  220.9630 H   0  0  0  0  0  0  0  0  0  0  0  0
  139.6011   74.9217  219.4579 H   0  0  0  0  0  0  0  0  0  0  0  0
  137.7971   75.3571  219.7994 H   0  0  0  0  0  0  0  0  0  0  0  0
  138.4025   78.2188  219.0256 H   0  0  0  0  0  0  0  0  0  0  0  0
  139.2082   79.4837  219.9842 H   0  0  0  0  0  0  0  0  0  0  0  0
  140.4993   77.8255  217.7124 H   0  0  0  0  0  0  0  0  0  0  0  0
  140.0288   79.5364  217.5923 H   0  0  0  0  0  0  0  0  0  0  0  0
  142.4084   79.4606  218.1445 H   0  0  0  0  0  0  0  0  0  0  0  0
  141.5661   79.9955  219.6085 H   0  0  0  0  0  0  0  0  0  0  0  0
  142.1947   77.0404  218.9569 H   0  0  0  0  0  0  0  0  0  0  0  0
  143.2276   78.0696  220.0025 H   0  0  0  0  0  0  0  0  0  0  0  0
  141.6308   76.6644  221.2790 H   0  0  0  0  0  0  0  0  0  0  0  0
  143.4941   78.9595  221.7085 H   0  0  0  0  0  0  0  0  0  0  0  0
  143.5929   80.7113  223.4894 H   0  0  0  0  0  0  0  0  0  0  0  0
  141.4322   81.3324  224.6317 H   0  0  0  0  0  0  0  0  0  0  0  0
  139.3584   80.2033  223.9493 H   0  0  0  0  0  0  0  0  0  0  0  0
  137.8439   71.6995  221.5883 H   0  0  0  0  0  0  0  0  0  0  0  0
  137.6307   69.6632  223.0659 H   0  0  0  0  0  0  0  0  0  0  0  0
  138.4344   68.3949  224.9691 H   0  0  0  0  0  0  0  0  0  0  0  0
  141.7676   69.7901  227.2749 H   0  0  0  0  0  0  0  0  0  0  0  0
  141.9631   71.7824  225.8092 H   0  0  0  0  0  0  0  0  0  0  0  0
  1  2  2  0
  2  3  1  0
  3  4  1  0
  4  5  1  0
  5  6  2  0
  5  7  1  0
  7  8  1  0
  8  9  1  0
  9 10  1  0
 10 11  1  0
 11 12  1  0
 12 13  1  0
 13 14  2  0
 14 15  1  0
 15 16  2  0
 16 17  1  0
 17 18  2  0
  2 19  1  0
 19 20  2  0
 20 21  1  0
 21 22  2  0
 22 23  1  0
 23 24  2  0
 24 25  1  0
 25 26  1  0
 25 27  1  0
 25 28  1  0
 24 29  1  0
 29 30  2  0
 30 31  1  0
 31 32  2  0
 12  7  1  0
 18 13  1  0
 32 19  1  0
 31 22  1  0
  3 33  1  0
  4 34  1  0
  4 35  1  0
  8 36  1  0
  8 37  1  0
  9 38  1  0
  9 39  1  0
 10 40  1  0
 10 41  1  0
 11 42  1  0
 11 43  1  0
 12 44  1  1
 14 45  1  0
 15 46  1  0
 16 47  1  0
 17 48  1  0
 20 49  1  0
 21 50  1  0
 23 51  1  0
 29 52  1  0
 30 53  1  0
M  END
>  <smiles>  (94) 
O=C(NCC(=O)N1CCCCC1c1ccccn1)c1ccc2cc(C(F)(F)F)ccc2n1

>  <score_type>  (94) 
oracle

>  <origin>  (94) 
autodockgpu

>  <m_score__min__energy>  (94) 
-8.1699999999999999

>  <m_primary>  (94) 
energy

>  <rmsd>  (94) 
2.6495123744491482

>  <m_score__min__rmsd>  (94) 
2.6495123744491482

>  <meeko>  (94) 
{"free_energy": -7.61, "intermolecular_energy": -9.4, "internal_energy": -1.55, "cluster_size": 22, "cluster_id": 1, "rank_in_cluster": 10}

>  <energy>  (94) 
-6.26

>  <cluster_rmsd>  (94) 
1.14

>  <cluster>  (94) 
6

$$$$

     RDKit          3D

 53 56  0  0  0  0  0  0  0  0999 V2000
  140.4240   72.4770  220.4620 O   0  0  0  0  0  0  0  0  0  0  0  0
  139.9890   72.7990  221.6190 C   0  0  0  0  0  0  0  0  0  0  0  0
  139.4610   74.1200  221.8460 N   0  0  0  0  0  0  0  0  0  0  0  0
  139.4520   75.0190  220.7360 C   0  0  0  0  0  0  0  0  0  0  0  0
  139.8350   76.3980  220.8960 C   0  0  0  0  0  0  0  0  0  0  0  0
  140.8950   76.7440  220.2180 O   0  0  0  0  0  0  0  0  0  0  0  0
  139.2720   77.4570  221.6560 N   0  0  0  0  0  0  0  0  0  0  0  0
  138.4450   77.2550  222.8320 C   0  0  0  0  0  0  0  0  0  0  0  0
  137.2090   78.1630  222.6810 C   0  0  0  0  0  0  0  0  0  0  0  0
  137.7130   79.5760  222.5410 C   0  0  0  0  0  0  0  0  0  0  0  0
  138.4040   79.6470  221.1710 C   0  0  0  0  0  0  0  0  0  0  0  0
  139.6530   78.8150  221.2050 C   0  0  1  0  0  0  0  0  0  0  0  0
  140.6920   79.3670  222.1130 C   0  0  0  0  0  0  0  0  0  0  0  0
  141.1010   80.6870  222.0530 C   0  0  0  0  0  0  0  0  0  0  0  0
  142.0690   81.2060  222.9070 C   0  0  0  0  0  0  0  0  0  0  0  0
  142.6120   80.3320  223.8290 C   0  0  0  0  0  0  0  0  0  0  0  0
  142.1680   79.0270  223.8440 C   0  0  0  0  0  0  0  0  0  0  0  0
  141.2310   78.5450  223.0110 N   0  0  0  0  0  0  0  0  0  0  0  0
  140.0130   71.8490  222.7280 C   0  0  0  0  0  0  0  0  0  0  0  0
  139.5280   70.5710  222.5390 C   0  0  0  0  0  0  0  0  0  0  0  0
  139.5640   69.6910  223.6270 C   0  0  0  0  0  0  0  0  0  0  0  0
  140.0730   70.1320  224.8270 C   0  0  0  0  0  0  0  0  0  0  0  0
  140.1270   69.2920  225.9330 C   0  0  0  0  0  0  0  0  0  0  0  0
  140.6420   69.7360  227.1480 C   0  0  0  0  0  0  0  0  0  0  0  0
  140.6940   68.8260  228.3280 C   0  0  0  0  0  0  0  0  0  0  0  0
  140.8070   67.5270  227.8840 F   0  0  0  0  0  0  0  0  0  0  0  0
  141.8240   69.1010  229.0890 F   0  0  0  0  0  0  0  0  0  0  0  0
  139.5640   68.9940  229.0760 F   0  0  0  0  0  0  0  0  0  0  0  0
  141.1060   71.0140  227.2700 C   0  0  0  0  0  0  0  0  0  0  0  0
  141.0710   71.8750  226.1990 C   0  0  0  0  0  0  0  0  0  0  0  0
  140.5600   71.4250  225.0030 C   0  0  0  0  0  0  0  0  0  0  0  0
  140.5000   72.2240  223.9250 N   0  0  0  0  0  0  0  0  0  0  0  0
  139.1190   74.3340  222.8100 H   0  0  0  0  0  0  0  0  0  0  0  0
  140.1292   74.5917  219.9818 H   0  0  0  0  0  0  0  0  0  0  0  0
  138.3819   75.0916  220.4919 H   0  0  0  0  0  0  0  0  0  0  0  0
  138.1335   76.2021  222.8974 H   0  0  0  0  0  0  0  0  0  0  0  0
  139.0016   77.5021  223.7481 H   0  0  0  0  0  0  0  0  0  0  0  0
  136.6367   77.8760  221.7865 H   0  0  0  0  0  0  0  0  0  0  0  0
  136.5444   78.0685  223.5524 H   0  0  0  0  0  0  0  0  0  0  0  0
  136.8743   80.2866  222.5830 H   0  0  0  0  0  0  0  0  0  0  0  0
  138.4050   79.8387  223.3547 H   0  0  0  0  0  0  0  0  0  0  0  0
  137.7255   79.2607  220.3961 H   0  0  0  0  0  0  0  0  0  0  0  0
  138.6615   80.6913  220.9404 H   0  0  0  0  0  0  0  0  0  0  0  0
  140.0935   78.8053  220.1971 H   0  0  0  0  0  0  0  0  0  0  0  0
  140.6446   81.3501  221.3033 H   0  0  0  0  0  0  0  0  0  0  0  0
  142.3857   82.2579  222.8510 H   0  0  0  0  0  0  0  0  0  0  0  0
  143.3830   80.6706  224.5368 H   0  0  0  0  0  0  0  0  0  0  0  0
  142.6071   78.3396  224.5820 H   0  0  0  0  0  0  0  0  0  0  0  0
  139.1263   70.2542  221.5652 H   0  0  0  0  0  0  0  0  0  0  0  0
  139.1906   68.6614  223.5242 H   0  0  0  0  0  0  0  0  0  0  0  0
  139.7569   68.2597  225.8470 H   0  0  0  0  0  0  0  0  0  0  0  0
  141.5112   71.3576  228.2332 H   0  0  0  0  0  0  0  0  0  0  0  0
  141.4447   72.9050  226.2961 H   0  0  0  0  0  0  0  0  0  0  0  0
  1  2  2  0
  2  3  1  0
  3  4  1  0
  4  5  1  0
  5  6  2  0
  5  7  1  0
  7  8  1  0
  8  9  1  0
  9 10  1  0
 10 11  1  0
 11 12  1  0
 12 13  1  0
 13 14  2  0
 14 15  1  0
 15 16  2  0
 16 17  1  0
 17 18  2  0
  2 19  1  0
 19 20  2  0
 20 21  1  0
 21 22  2  0
 22 23  1  0
 23 24  2  0
 24 25  1  0
 25 26  1  0
 25 27  1  0
 25 28  1  0
 24 29  1  0
 29 30  2  0
 30 31  1  0
 31 32  2  0
 12  7  1  0
 18 13  1  0
 32 19  1  0
 31 22  1  0
  3 33  1  0
  4 34  1  0
  4 35  1  0
  8 36  1  0
  8 37  1  0
  9 38  1  0
  9 39  1  0
 10 40  1  0
 10 41  1  0
 11 42  1  0
 11 43  1  0
 12 44  1  6
 14 45  1  0
 15 46  1  0
 16 47  1  0
 17 48  1  0
 20 49  1  0
 21 50  1  0
 23 51  1  0
 29 52  1  0
 30 53  1  0
M  END
>  <smiles>  (95) 
O=C(NCC(=O)N1CCCCC1c1ccccn1)c1ccc2cc(C(F)(F)F)ccc2n1

>  <score_type>  (95) 
oracle

>  <origin>  (95) 
autodockgpu

>  <m_score__min__energy>  (95) 
-8.1699999999999999

>  <m_primary>  (95) 
energy

>  <rmsd>  (95) 
3.0915744615071725

>  <m_score__min__rmsd>  (95) 
3.0915744615071725

>  <meeko>  (95) 
{"free_energy": -7.88, "intermolecular_energy": -9.67, "internal_energy": -1.58, "cluster_size": 22, "cluster_id": 1, "rank_in_cluster": 8}

>  <energy>  (95) 
-6.22

>  <cluster_rmsd>  (95) 
1.06

>  <cluster>  (95) 
6

$$$$

     RDKit          3D

 53 56  0  0  0  0  0  0  0  0999 V2000
  139.1160   73.4090  220.5020 O   0  0  0  0  0  0  0  0  0  0  0  0
  139.9760   73.2580  221.4350 C   0  0  0  0  0  0  0  0  0  0  0  0
  141.1860   74.0400  221.4310 N   0  0  0  0  0  0  0  0  0  0  0  0
  141.3610   74.9650  220.3570 C   0  0  0  0  0  0  0  0  0  0  0  0
  140.9290   76.3350  220.4810 C   0  0  0  0  0  0  0  0  0  0  0  0
  141.3770   77.1260  219.5450 O   0  0  0  0  0  0  0  0  0  0  0  0
  140.1030   76.9860  221.4340 N   0  0  0  0  0  0  0  0  0  0  0  0
  139.5700   76.3370  222.6180 C   0  0  0  0  0  0  0  0  0  0  0  0
  138.0720   76.6910  222.6960 C   0  0  0  0  0  0  0  0  0  0  0  0
  137.9770   78.1940  222.7460 C   0  0  0  0  0  0  0  0  0  0  0  0
  138.4120   78.6940  221.3600 C   0  0  0  0  0  0  0  0  0  0  0  0
  139.8780   78.4270  221.1770 C   0  0  1  0  0  0  0  0  0  0  0  0
  140.7310   79.2340  222.0870 C   0  0  0  0  0  0  0  0  0  0  0  0
  140.4690   80.5650  222.3610 C   0  0  0  0  0  0  0  0  0  0  0  0
  141.2640   81.3190  223.2170 C   0  0  0  0  0  0  0  0  0  0  0  0
  142.3420   80.6720  223.7910 C   0  0  0  0  0  0  0  0  0  0  0  0
  142.5570   79.3450  223.4830 C   0  0  0  0  0  0  0  0  0  0  0  0
  141.7760   78.6340  222.6520 N   0  0  0  0  0  0  0  0  0  0  0  0
  139.7590   72.3030  222.5180 C   0  0  0  0  0  0  0  0  0  0  0  0
  138.7140   71.4050  222.4320 C   0  0  0  0  0  0  0  0  0  0  0  0
  138.5340   70.5080  223.4910 C   0  0  0  0  0  0  0  0  0  0  0  0
  139.3950   70.5590  224.5640 C   0  0  0  0  0  0  0  0  0  0  0  0
  139.2540   69.6880  225.6370 C   0  0  0  0  0  0  0  0  0  0  0  0
  140.1230   69.7370  226.7230 C   0  0  0  0  0  0  0  0  0  0  0  0
  139.9610   68.7970  227.8690 C   0  0  0  0  0  0  0  0  0  0  0  0
  139.1890   69.4020  228.8360 F   0  0  0  0  0  0  0  0  0  0  0  0
  139.2840   67.6570  227.4550 F   0  0  0  0  0  0  0  0  0  0  0  0
  141.1930   68.4680  228.3580 F   0  0  0  0  0  0  0  0  0  0  0  0
  141.1390   70.6500  226.7470 C   0  0  0  0  0  0  0  0  0  0  0  0
  141.3130   71.5290  225.7050 C   0  0  0  0  0  0  0  0  0  0  0  0
  140.4460   71.4700  224.6370 C   0  0  0  0  0  0  0  0  0  0  0  0
  140.5690   72.3050  223.5920 N   0  0  0  0  0  0  0  0  0  0  0  0
  141.8570   73.8780  222.2150 H   0  0  0  0  0  0  0  0  0  0  0  0
  142.4394   74.9950  220.1422 H   0  0  0  0  0  0  0  0  0  0  0  0
  140.6884   74.5677  219.5826 H   0  0  0  0  0  0  0  0  0  0  0  0
  139.6962   75.2471  222.5395 H   0  0  0  0  0  0  0  0  0  0  0  0
  140.0990   76.6760  223.5209 H   0  0  0  0  0  0  0  0  0  0  0  0
  137.5467   76.3085  221.8085 H   0  0  0  0  0  0  0  0  0  0  0  0
  137.6072   76.2383  223.5843 H   0  0  0  0  0  0  0  0  0  0  0  0
  136.9430   78.5045  222.9568 H   0  0  0  0  0  0  0  0  0  0  0  0
  138.6121   78.6109  223.5415 H   0  0  0  0  0  0  0  0  0  0  0  0
  137.8417   78.1649  220.5823 H   0  0  0  0  0  0  0  0  0  0  0  0
  138.2201   79.7741  221.2796 H   0  0  0  0  0  0  0  0  0  0  0  0
  140.1605   78.7113  220.1526 H   0  0  0  0  0  0  0  0  0  0  0  0
  139.6007   81.0436  221.8845 H   0  0  0  0  0  0  0  0  0  0  0  0
  141.0461   82.3766  223.4267 H   0  0  0  0  0  0  0  0  0  0  0  0
  143.0147   81.2045  224.4794 H   0  0  0  0  0  0  0  0  0  0  0  0
  143.4179   78.8391  223.9444 H   0  0  0  0  0  0  0  0  0  0  0  0
  138.0445   71.3949  221.5593 H   0  0  0  0  0  0  0  0  0  0  0  0
  137.7162   69.7727  223.4664 H   0  0  0  0  0  0  0  0  0  0  0  0
  138.4414   68.9467  225.6281 H   0  0  0  0  0  0  0  0  0  0  0  0
  141.8235   70.6818  227.6075 H   0  0  0  0  0  0  0  0  0  0  0  0
  142.1295   72.2658  225.7239 H   0  0  0  0  0  0  0  0  0  0  0  0
  1  2  2  0
  2  3  1  0
  3  4  1  0
  4  5  1  0
  5  6  2  0
  5  7  1  0
  7  8  1  0
  8  9  1  0
  9 10  1  0
 10 11  1  0
 11 12  1  0
 12 13  1  0
 13 14  2  0
 14 15  1  0
 15 16  2  0
 16 17  1  0
 17 18  2  0
  2 19  1  0
 19 20  2  0
 20 21  1  0
 21 22  2  0
 22 23  1  0
 23 24  2  0
 24 25  1  0
 25 26  1  0
 25 27  1  0
 25 28  1  0
 24 29  1  0
 29 30  2  0
 30 31  1  0
 31 32  2  0
 12  7  1  0
 18 13  1  0
 32 19  1  0
 31 22  1  0
  3 33  1  0
  4 34  1  0
  4 35  1  0
  8 36  1  0
  8 37  1  0
  9 38  1  0
  9 39  1  0
 10 40  1  0
 10 41  1  0
 11 42  1  0
 11 43  1  0
 12 44  1  6
 14 45  1  0
 15 46  1  0
 16 47  1  0
 17 48  1  0
 20 49  1  0
 21 50  1  0
 23 51  1  0
 29 52  1  0
 30 53  1  0
M  END
>  <smiles>  (96) 
O=C(NCC(=O)N1CCCCC1c1ccccn1)c1ccc2cc(C(F)(F)F)ccc2n1

>  <score_type>  (96) 
oracle

>  <origin>  (96) 
autodockgpu

>  <m_score__min__energy>  (96) 
-8.1699999999999999

>  <m_primary>  (96) 
energy

>  <rmsd>  (96) 
3.244822025725908

>  <m_score__min__rmsd>  (96) 
3.244822025725908

>  <meeko>  (96) 
{"free_energy": -7.12, "intermolecular_energy": -8.91, "internal_energy": -2.08, "cluster_size": 22, "cluster_id": 1, "rank_in_cluster": 21}

>  <energy>  (96) 
-6.2

>  <cluster_rmsd>  (96) 
1.06

>  <cluster>  (96) 
6

$$$$

     RDKit          3D

 53 56  0  0  0  0  0  0  0  0999 V2000
  139.7320   73.9720  221.9730 O   0  0  0  0  0  0  0  0  0  0  0  0
  140.8260   74.5640  221.6800 C   0  0  0  0  0  0  0  0  0  0  0  0
  140.9650   75.9780  221.9210 N   0  0  0  0  0  0  0  0  0  0  0  0
  139.8440   76.6560  222.4900 C   0  0  0  0  0  0  0  0  0  0  0  0
  139.8920   78.0700  222.7610 C   0  0  0  0  0  0  0  0  0  0  0  0
  138.8830   78.5180  223.4560 O   0  0  0  0  0  0  0  0  0  0  0  0
  140.8380   79.0710  222.4130 N   0  0  0  0  0  0  0  0  0  0  0  0
  142.0520   79.3290  223.1640 C   0  0  0  0  0  0  0  0  0  0  0  0
  142.1460   80.8530  223.3690 C   0  0  0  0  0  0  0  0  0  0  0  0
  142.1440   81.4840  222.0010 C   0  0  0  0  0  0  0  0  0  0  0  0
  140.7340   81.2640  221.4330 C   0  0  0  0  0  0  0  0  0  0  0  0
  140.5340   79.8010  221.1620 C   0  0  1  0  0  0  0  0  0  0  0  0
  141.4000   79.2920  220.0670 C   0  0  0  0  0  0  0  0  0  0  0  0
  141.7680   80.0770  218.9890 C   0  0  0  0  0  0  0  0  0  0  0  0
  142.5830   79.6020  217.9660 C   0  0  0  0  0  0  0  0  0  0  0  0
  143.0140   78.2940  218.0760 C   0  0  0  0  0  0  0  0  0  0  0  0
  142.6170   77.5570  219.1710 C   0  0  0  0  0  0  0  0  0  0  0  0
  141.8290   78.0350  220.1490 N   0  0  0  0  0  0  0  0  0  0  0  0
  141.9510   73.8340  221.1030 C   0  0  0  0  0  0  0  0  0  0  0  0
  143.1220   74.5060  220.8140 C   0  0  0  0  0  0  0  0  0  0  0  0
  144.1760   73.7740  220.2570 C   0  0  0  0  0  0  0  0  0  0  0  0
  144.0030   72.4290  220.0190 C   0  0  0  0  0  0  0  0  0  0  0  0
  145.0220   71.6630  219.4670 C   0  0  0  0  0  0  0  0  0  0  0  0
  144.8500   70.3020  219.2260 C   0  0  0  0  0  0  0  0  0  0  0  0
  145.9510   69.4910  218.6320 C   0  0  0  0  0  0  0  0  0  0  0  0
  145.5420   68.1790  218.5450 F   0  0  0  0  0  0  0  0  0  0  0  0
  146.2170   69.9270  217.3400 F   0  0  0  0  0  0  0  0  0  0  0  0
  147.0660   69.6080  219.4120 F   0  0  0  0  0  0  0  0  0  0  0  0
  143.6650   69.6960  219.5330 C   0  0  0  0  0  0  0  0  0  0  0  0
  142.6330   70.4190  220.0820 C   0  0  0  0  0  0  0  0  0  0  0  0
  142.8150   71.7630  220.3160 C   0  0  0  0  0  0  0  0  0  0  0  0
  141.8400   72.5170  220.8490 N   0  0  0  0  0  0  0  0  0  0  0  0
  141.8780   76.4140  221.6630 H   0  0  0  0  0  0  0  0  0  0  0  0
  139.0005   76.4978  221.8019 H   0  0  0  0  0  0  0  0  0  0  0  0
  139.7821   76.2184  223.4973 H   0  0  0  0  0  0  0  0  0  0  0  0
  142.0079   78.8198  224.1380 H   0  0  0  0  0  0  0  0  0  0  0  0
  142.9329   78.9528  222.6232 H   0  0  0  0  0  0  0  0  0  0  0  0
  141.2830   81.2096  223.9505 H   0  0  0  0  0  0  0  0  0  0  0  0
  143.0593   81.1185  223.9217 H   0  0  0  0  0  0  0  0  0  0  0  0
  142.3618   82.5596  222.0763 H   0  0  0  0  0  0  0  0  0  0  0  0
  142.9128   81.0393  221.3520 H   0  0  0  0  0  0  0  0  0  0  0  0
  139.9858   81.6089  222.1618 H   0  0  0  0  0  0  0  0  0  0  0  0
  140.6192   81.8322  220.4981 H   0  0  0  0  0  0  0  0  0  0  0  0
  139.4950   79.6446  220.8363 H   0  0  0  0  0  0  0  0  0  0  0  0
  141.4034   81.1136  218.9387 H   0  0  0  0  0  0  0  0  0  0  0  0
  142.8694   80.2354  217.1135 H   0  0  0  0  0  0  0  0  0  0  0  0
  143.6610   77.8497  217.3053 H   0  0  0  0  0  0  0  0  0  0  0  0
  142.9656   76.5166  219.2489 H   0  0  0  0  0  0  0  0  0  0  0  0
  143.2229   75.5827  221.0153 H   0  0  0  0  0  0  0  0  0  0  0  0
  145.1291   74.2658  220.0127 H   0  0  0  0  0  0  0  0  0  0  0  0
  145.9811   72.1395  219.2159 H   0  0  0  0  0  0  0  0  0  0  0  0
  143.5356   68.6209  219.3394 H   0  0  0  0  0  0  0  0  0  0  0  0
  141.6784   69.9320  220.3300 H   0  0  0  0  0  0  0  0  0  0  0  0
  1  2  2  0
  2  3  1  0
  3  4  1  0
  4  5  1  0
  5  6  2  0
  5  7  1  0
  7  8  1  0
  8  9  1  0
  9 10  1  0
 10 11  1  0
 11 12  1  0
 12 13  1  0
 13 14  2  0
 14 15  1  0
 15 16  2  0
 16 17  1  0
 17 18  2  0
  2 19  1  0
 19 20  2  0
 20 21  1  0
 21 22  2  0
 22 23  1  0
 23 24  2  0
 24 25  1  0
 25 26  1  0
 25 27  1  0
 25 28  1  0
 24 29  1  0
 29 30  2  0
 30 31  1  0
 31 32  2  0
 12  7  1  0
 18 13  1  0
 32 19  1  0
 31 22  1  0
  3 33  1  0
  4 34  1  0
  4 35  1  0
  8 36  1  0
  8 37  1  0
  9 38  1  0
  9 39  1  0
 10 40  1  0
 10 41  1  0
 11 42  1  0
 11 43  1  0
 12 44  1  6
 14 45  1  0
 15 46  1  0
 16 47  1  0
 17 48  1  0
 20 49  1  0
 21 50  1  0
 23 51  1  0
 29 52  1  0
 30 53  1  0
M  END
>  <smiles>  (97) 
O=C(NCC(=O)N1CCCCC1c1ccccn1)c1ccc2cc(C(F)(F)F)ccc2n1

>  <score_type>  (97) 
oracle

>  <origin>  (97) 
autodockgpu

>  <m_score__min__energy>  (97) 
-8.1699999999999999

>  <m_primary>  (97) 
energy

>  <rmsd>  (97) 
6.223544369633186

>  <m_score__min__rmsd>  (97) 
6.223544369633186

>  <meeko>  (97) 
{"free_energy": -6.82, "intermolecular_energy": -8.61, "internal_energy": -2.41, "cluster_size": 10, "cluster_id": 6, "rank_in_cluster": 2}

>  <energy>  (97) 
-6.12

>  <cluster_rmsd>  (97) 
1.06

>  <cluster>  (97) 
6

$$$$

     RDKit          3D

 53 56  0  0  0  0  0  0  0  0999 V2000
  140.2430   73.4680  220.4220 O   0  0  0  0  0  0  0  0  0  0  0  0
  139.8440   73.5600  221.6330 C   0  0  0  0  0  0  0  0  0  0  0  0
  139.4590   74.8420  222.1670 N   0  0  0  0  0  0  0  0  0  0  0  0
  139.5460   75.9660  221.2900 C   0  0  0  0  0  0  0  0  0  0  0  0
  140.6940   76.8360  221.3120 C   0  0  0  0  0  0  0  0  0  0  0  0
  141.8070   76.2650  220.9410 O   0  0  0  0  0  0  0  0  0  0  0  0
  140.8420   78.2040  221.6630 N   0  0  0  0  0  0  0  0  0  0  0  0
  141.0320   79.2690  220.6950 C   0  0  0  0  0  0  0  0  0  0  0  0
  142.1980   80.1410  221.2010 C   0  0  0  0  0  0  0  0  0  0  0  0
  141.8130   80.6400  222.5700 C   0  0  0  0  0  0  0  0  0  0  0  0
  141.8320   79.4110  223.4910 C   0  0  0  0  0  0  0  0  0  0  0  0
  140.7100   78.4910  223.1090 C   0  0  1  0  0  0  0  0  0  0  0  0
  139.3690   79.0690  223.3810 C   0  0  0  0  0  0  0  0  0  0  0  0
  138.2160   78.5710  222.8000 C   0  0  0  0  0  0  0  0  0  0  0  0
  136.9600   79.1080  223.0580 C   0  0  0  0  0  0  0  0  0  0  0  0
  136.9120   80.1780  223.9330 C   0  0  0  0  0  0  0  0  0  0  0  0
  138.0910   80.6340  224.4820 C   0  0  0  0  0  0  0  0  0  0  0  0
  139.2960   80.1000  224.2200 N   0  0  0  0  0  0  0  0  0  0  0  0
  139.7670   72.3850  222.4970 C   0  0  0  0  0  0  0  0  0  0  0  0
  139.1140   71.2540  222.0490 C   0  0  0  0  0  0  0  0  0  0  0  0
  139.0570   70.1500  222.9060 C   0  0  0  0  0  0  0  0  0  0  0  0
  139.6450   70.2370  224.1480 C   0  0  0  0  0  0  0  0  0  0  0  0
  139.6120   69.1650  225.0310 C   0  0  0  0  0  0  0  0  0  0  0  0
  140.2070   69.2490  226.2880 C   0  0  0  0  0  0  0  0  0  0  0  0
  140.1650   68.0920  227.2270 C   0  0  0  0  0  0  0  0  0  0  0  0
  139.1740   67.2260  226.8230 F   0  0  0  0  0  0  0  0  0  0  0  0
  141.3660   67.3970  227.1780 F   0  0  0  0  0  0  0  0  0  0  0  0
  139.9320   68.5500  228.4930 F   0  0  0  0  0  0  0  0  0  0  0  0
  140.8380   70.3980  226.6710 C   0  0  0  0  0  0  0  0  0  0  0  0
  140.8940   71.4800  225.8250 C   0  0  0  0  0  0  0  0  0  0  0  0
  140.3020   71.3840  224.5860 C   0  0  0  0  0  0  0  0  0  0  0  0
  140.3250   72.4110  223.7210 N   0  0  0  0  0  0  0  0  0  0  0  0
  139.1410   74.8640  223.1620 H   0  0  0  0  0  0  0  0  0  0  0  0
  139.4727   75.5705  220.2662 H   0  0  0  0  0  0  0  0  0  0  0  0
  138.7394   76.6198  221.6533 H   0  0  0  0  0  0  0  0  0  0  0  0
  141.2784   78.8443  219.7107 H   0  0  0  0  0  0  0  0  0  0  0  0
  140.1151   79.8670  220.5868 H   0  0  0  0  0  0  0  0  0  0  0  0
  143.1187   79.5422  221.2623 H   0  0  0  0  0  0  0  0  0  0  0  0
  142.3865   80.9806  220.5158 H   0  0  0  0  0  0  0  0  0  0  0  0
  142.5365   81.3910  222.9202 H   0  0  0  0  0  0  0  0  0  0  0  0
  140.8232   81.1197  222.5597 H   0  0  0  0  0  0  0  0  0  0  0  0
  142.7921   78.8851  223.3830 H   0  0  0  0  0  0  0  0  0  0  0  0
  141.7084   79.7305  224.5363 H   0  0  0  0  0  0  0  0  0  0  0  0
  140.7844   77.5780  223.7180 H   0  0  0  0  0  0  0  0  0  0  0  0
  138.2963   77.7191  222.1088 H   0  0  0  0  0  0  0  0  0  0  0  0
  136.0508   78.7026  222.5901 H   0  0  0  0  0  0  0  0  0  0  0  0
  135.9534   80.6548  224.1853 H   0  0  0  0  0  0  0  0  0  0  0  0
  138.0428   81.4860  225.1761 H   0  0  0  0  0  0  0  0  0  0  0  0
  138.6535   71.2221  221.0505 H   0  0  0  0  0  0  0  0  0  0  0  0
  138.5498   69.2257  222.5923 H   0  0  0  0  0  0  0  0  0  0  0  0
  139.1076   68.2341  224.7327 H   0  0  0  0  0  0  0  0  0  0  0  0
  141.3054   70.4582  227.6649 H   0  0  0  0  0  0  0  0  0  0  0  0
  141.4026   72.4056  226.1325 H   0  0  0  0  0  0  0  0  0  0  0  0
  1  2  2  0
  2  3  1  0
  3  4  1  0
  4  5  1  0
  5  6  2  0
  5  7  1  0
  7  8  1  0
  8  9  1  0
  9 10  1  0
 10 11  1  0
 11 12  1  0
 12 13  1  0
 13 14  2  0
 14 15  1  0
 15 16  2  0
 16 17  1  0
 17 18  2  0
  2 19  1  0
 19 20  2  0
 20 21  1  0
 21 22  2  0
 22 23  1  0
 23 24  2  0
 24 25  1  0
 25 26  1  0
 25 27  1  0
 25 28  1  0
 24 29  1  0
 29 30  2  0
 30 31  1  0
 31 32  2  0
 12  7  1  0
 18 13  1  0
 32 19  1  0
 31 22  1  0
  3 33  1  0
  4 34  1  0
  4 35  1  0
  8 36  1  0
  8 37  1  0
  9 38  1  0
  9 39  1  0
 10 40  1  0
 10 41  1  0
 11 42  1  0
 11 43  1  0
 12 44  1  1
 14 45  1  0
 15 46  1  0
 16 47  1  0
 17 48  1  0
 20 49  1  0
 21 50  1  0
 23 51  1  0
 29 52  1  0
 30 53  1  0
M  END
>  <smiles>  (98) 
O=C(NCC(=O)N1CCCCC1c1ccccn1)c1ccc2cc(C(F)(F)F)ccc2n1

>  <score_type>  (98) 
oracle

>  <origin>  (98) 
autodockgpu

>  <m_score__min__energy>  (98) 
-8.1699999999999999

>  <m_primary>  (98) 
energy

>  <rmsd>  (98) 
3.9313017082035144

>  <m_score__min__rmsd>  (98) 
3.9313017082035144

>  <meeko>  (98) 
{"free_energy": -8.17, "intermolecular_energy": -9.96, "internal_energy": -1.54, "cluster_size": 22, "cluster_id": 1, "rank_in_cluster": 1}

>  <energy>  (98) 
-5.87

>  <cluster_rmsd>  (98) 
1.28

>  <cluster>  (98) 
6

$$$$

     RDKit          3D

 53 56  0  0  0  0  0  0  0  0999 V2000
  139.0230   73.9350  220.9020 O   0  0  0  0  0  0  0  0  0  0  0  0
  139.9870   73.4530  221.5890 C   0  0  0  0  0  0  0  0  0  0  0  0
  141.3290   73.9340  221.3810 N   0  0  0  0  0  0  0  0  0  0  0  0
  141.5110   74.9500  220.3940 C   0  0  0  0  0  0  0  0  0  0  0  0
  141.4170   76.3460  220.7400 C   0  0  0  0  0  0  0  0  0  0  0  0
  142.3890   77.0810  220.2770 O   0  0  0  0  0  0  0  0  0  0  0  0
  140.4580   77.0730  221.4950 N   0  0  0  0  0  0  0  0  0  0  0  0
  139.7630   76.5340  222.6490 C   0  0  0  0  0  0  0  0  0  0  0  0
  138.2680   76.8650  222.4750 C   0  0  0  0  0  0  0  0  0  0  0  0
  138.1580   78.3630  222.3580 C   0  0  0  0  0  0  0  0  0  0  0  0
  138.7860   78.7300  221.0050 C   0  0  0  0  0  0  0  0  0  0  0  0
  140.2640   78.4760  221.0620 C   0  0  1  0  0  0  0  0  0  0  0  0
  140.9730   79.3860  221.9980 C   0  0  0  0  0  0  0  0  0  0  0  0
  141.8380   78.9190  222.9720 C   0  0  0  0  0  0  0  0  0  0  0  0
  142.5060   79.7720  223.8450 C   0  0  0  0  0  0  0  0  0  0  0  0
  142.2640   81.1240  223.6950 C   0  0  0  0  0  0  0  0  0  0  0  0
  141.3920   81.5340  222.7090 C   0  0  0  0  0  0  0  0  0  0  0  0
  140.7560   80.6940  221.8750 N   0  0  0  0  0  0  0  0  0  0  0  0
  139.7580   72.4160  222.5920 C   0  0  0  0  0  0  0  0  0  0  0  0
  138.6450   71.6050  222.4890 C   0  0  0  0  0  0  0  0  0  0  0  0
  138.4560   70.6270  223.4710 C   0  0  0  0  0  0  0  0  0  0  0  0
  139.3770   70.5150  224.4880 C   0  0  0  0  0  0  0  0  0  0  0  0
  139.2290   69.5570  225.4850 C   0  0  0  0  0  0  0  0  0  0  0  0
  140.1580   69.4420  226.5150 C   0  0  0  0  0  0  0  0  0  0  0  0
  139.9890   68.4110  227.5780 C   0  0  0  0  0  0  0  0  0  0  0  0
  139.2160   67.3830  227.0840 F   0  0  0  0  0  0  0  0  0  0  0  0
  141.2230   67.8720  227.9180 F   0  0  0  0  0  0  0  0  0  0  0  0
  139.4040   68.9850  228.6720 F   0  0  0  0  0  0  0  0  0  0  0  0
  141.2390   70.2750  226.5600 C   0  0  0  0  0  0  0  0  0  0  0  0
  141.4220   71.2350  225.5920 C   0  0  0  0  0  0  0  0  0  0  0  0
  140.4960   71.3390  224.5790 C   0  0  0  0  0  0  0  0  0  0  0  0
  140.6240   72.2590  223.6090 N   0  0  0  0  0  0  0  0  0  0  0  0
  142.0810   73.5070  221.9670 H   0  0  0  0  0  0  0  0  0  0  0  0
  142.5154   74.7994  219.9716 H   0  0  0  0  0  0  0  0  0  0  0  0
  140.6426   74.8051  219.7345 H   0  0  0  0  0  0  0  0  0  0  0  0
  139.9045   75.4443  222.6993 H   0  0  0  0  0  0  0  0  0  0  0  0
  140.1542   76.9704  223.5799 H   0  0  0  0  0  0  0  0  0  0  0  0
  137.8786   76.3856  221.5648 H   0  0  0  0  0  0  0  0  0  0  0  0
  137.6824   76.4944  223.3292 H   0  0  0  0  0  0  0  0  0  0  0  0
  137.1026   78.6719  222.3858 H   0  0  0  0  0  0  0  0  0  0  0  0
  138.6687   78.8704  223.1897 H   0  0  0  0  0  0  0  0  0  0  0  0
  138.3371   78.1140  220.2119 H   0  0  0  0  0  0  0  0  0  0  0  0
  138.6017   79.7925  220.7880 H   0  0  0  0  0  0  0  0  0  0  0  0
  140.6887   78.6626  220.0646 H   0  0  0  0  0  0  0  0  0  0  0  0
  142.0033   77.8350  223.0591 H   0  0  0  0  0  0  0  0  0  0  0  0
  143.1918   79.3895  224.6153 H   0  0  0  0  0  0  0  0  0  0  0  0
  142.7571   81.8583  224.3490 H   0  0  0  0  0  0  0  0  0  0  0  0
  141.2059   82.6125  222.5985 H   0  0  0  0  0  0  0  0  0  0  0  0
  137.9302   71.7243  221.6615 H   0  0  0  0  0  0  0  0  0  0  0  0
  137.5843   69.9573  223.4312 H   0  0  0  0  0  0  0  0  0  0  0  0
  138.3633   68.8788  225.4592 H   0  0  0  0  0  0  0  0  0  0  0  0
  141.9693   70.1776  227.3768 H   0  0  0  0  0  0  0  0  0  0  0  0
  142.2921   71.9070  225.6268 H   0  0  0  0  0  0  0  0  0  0  0  0
  1  2  2  0
  2  3  1  0
  3  4  1  0
  4  5  1  0
  5  6  2  0
  5  7  1  0
  7  8  1  0
  8  9  1  0
  9 10  1  0
 10 11  1  0
 11 12  1  0
 12 13  1  0
 13 14  2  0
 14 15  1  0
 15 16  2  0
 16 17  1  0
 17 18  2  0
  2 19  1  0
 19 20  2  0
 20 21  1  0
 21 22  2  0
 22 23  1  0
 23 24  2  0
 24 25  1  0
 25 26  1  0
 25 27  1  0
 25 28  1  0
 24 29  1  0
 29 30  2  0
 30 31  1  0
 31 32  2  0
 12  7  1  0
 18 13  1  0
 32 19  1  0
 31 22  1  0
  3 33  1  0
  4 34  1  0
  4 35  1  0
  8 36  1  0
  8 37  1  0
  9 38  1  0
  9 39  1  0
 10 40  1  0
 10 41  1  0
 11 42  1  0
 11 43  1  0
 12 44  1  6
 14 45  1  0
 15 46  1  0
 16 47  1  0
 17 48  1  0
 20 49  1  0
 21 50  1  0
 23 51  1  0
 29 52  1  0
 30 53  1  0
M  END
>  <smiles>  (99) 
O=C(NCC(=O)N1CCCCC1c1ccccn1)c1ccc2cc(C(F)(F)F)ccc2n1

>  <score_type>  (99) 
oracle

>  <origin>  (99) 
autodockgpu

>  <m_score__min__energy>  (99) 
-8.1699999999999999

>  <m_primary>  (99) 
energy

>  <rmsd>  (99) 
3.4732424875436245

>  <m_score__min__rmsd>  (99) 
3.4732424875436245

>  <meeko>  (99) 
{"free_energy": -7.44, "intermolecular_energy": -9.23, "internal_energy": -1.95, "cluster_size": 22, "cluster_id": 1, "rank_in_cluster": 16}

>  <energy>  (99) 
-5.82

>  <cluster_rmsd>  (99) 
0.0

>  <cluster>  (99) 
7

$$$$

     RDKit          3D

 53 56  0  0  0  0  0  0  0  0999 V2000
  139.4010   72.8570  220.4060 O   0  0  0  0  0  0  0  0  0  0  0  0
  140.1640   72.9230  221.4300 C   0  0  0  0  0  0  0  0  0  0  0  0
  141.2230   73.8990  221.4750 N   0  0  0  0  0  0  0  0  0  0  0  0
  141.3630   74.7620  220.3460 C   0  0  0  0  0  0  0  0  0  0  0  0
  141.1600   76.1840  220.4700 C   0  0  0  0  0  0  0  0  0  0  0  0
  141.9040   76.9030  219.6750 O   0  0  0  0  0  0  0  0  0  0  0  0
  140.2990   76.9500  221.2980 N   0  0  0  0  0  0  0  0  0  0  0  0
  139.5670   76.4040  222.4260 C   0  0  0  0  0  0  0  0  0  0  0  0
  138.1140   76.9050  222.3130 C   0  0  0  0  0  0  0  0  0  0  0  0
  138.1670   78.4110  222.3080 C   0  0  0  0  0  0  0  0  0  0  0  0
  138.8100   78.8100  220.9710 C   0  0  0  0  0  0  0  0  0  0  0  0
  140.2530   78.3950  220.9750 C   0  0  1  0  0  0  0  0  0  0  0  0
  141.0710   79.1500  221.9590 C   0  0  0  0  0  0  0  0  0  0  0  0
  141.4330   80.4710  221.7600 C   0  0  0  0  0  0  0  0  0  0  0  0
  142.1950   81.1800  222.6830 C   0  0  0  0  0  0  0  0  0  0  0  0
  142.5780   80.4990  223.8230 C   0  0  0  0  0  0  0  0  0  0  0  0
  142.1890   79.1850  223.9690 C   0  0  0  0  0  0  0  0  0  0  0  0
  141.4530   78.5170  223.0650 N   0  0  0  0  0  0  0  0  0  0  0  0
  139.9850   72.0230  222.5660 C   0  0  0  0  0  0  0  0  0  0  0  0
  139.1560   70.9270  222.4400 C   0  0  0  0  0  0  0  0  0  0  0  0
  139.0050   70.0910  223.5520 C   0  0  0  0  0  0  0  0  0  0  0  0
  139.6810   70.3930  224.7120 C   0  0  0  0  0  0  0  0  0  0  0  0
  139.5610   69.5910  225.8410 C   0  0  0  0  0  0  0  0  0  0  0  0
  140.2430   69.8950  227.0160 C   0  0  0  0  0  0  0  0  0  0  0  0
  140.1060   69.0260  228.2200 C   0  0  0  0  0  0  0  0  0  0  0  0
  139.2190   69.6140  229.0940 F   0  0  0  0  0  0  0  0  0  0  0  0
  139.5730   67.7950  227.8580 F   0  0  0  0  0  0  0  0  0  0  0  0
  141.3330   68.8620  228.7980 F   0  0  0  0  0  0  0  0  0  0  0  0
  141.0490   70.9960  227.0750 C   0  0  0  0  0  0  0  0  0  0  0  0
  141.1950   71.8140  225.9800 C   0  0  0  0  0  0  0  0  0  0  0  0
  140.5150   71.5030  224.8250 C   0  0  0  0  0  0  0  0  0  0  0  0
  140.6210   72.2680  223.7260 N   0  0  0  0  0  0  0  0  0  0  0  0
  141.8180   73.9110  222.3340 H   0  0  0  0  0  0  0  0  0  0  0  0
  142.3880   74.6237  219.9715 H   0  0  0  0  0  0  0  0  0  0  0  0
  140.5280   74.4533  219.6999 H   0  0  0  0  0  0  0  0  0  0  0  0
  139.5901   75.3047  222.3936 H   0  0  0  0  0  0  0  0  0  0  0  0
  140.0179   76.7259  223.3763 H   0  0  0  0  0  0  0  0  0  0  0  0
  137.6598   76.5398  221.3801 H   0  0  0  0  0  0  0  0  0  0  0  0
  137.5050   76.5362  223.1515 H   0  0  0  0  0  0  0  0  0  0  0  0
  137.1523   78.8290  222.3835 H   0  0  0  0  0  0  0  0  0  0  0  0
  138.7437   78.7958  223.1620 H   0  0  0  0  0  0  0  0  0  0  0  0
  138.2847   78.3074  220.1454 H   0  0  0  0  0  0  0  0  0  0  0  0
  138.7387   79.8994  220.8366 H   0  0  0  0  0  0  0  0  0  0  0  0
  140.6811   78.6103  219.9849 H   0  0  0  0  0  0  0  0  0  0  0  0
  141.1068   80.9779  220.8399 H   0  0  0  0  0  0  0  0  0  0  0  0
  142.4783   82.2294  222.5141 H   0  0  0  0  0  0  0  0  0  0  0  0
  143.1808   80.9955  224.5977 H   0  0  0  0  0  0  0  0  0  0  0  0
  142.4994   78.6515  224.8795 H   0  0  0  0  0  0  0  0  0  0  0  0
  138.6311   70.7174  221.4963 H   0  0  0  0  0  0  0  0  0  0  0  0
  138.3552   69.2050  223.4996 H   0  0  0  0  0  0  0  0  0  0  0  0
  138.9160   68.7007  225.8054 H   0  0  0  0  0  0  0  0  0  0  0  0
  141.5856   71.2300  228.0063 H   0  0  0  0  0  0  0  0  0  0  0  0
  141.8437   72.7011  226.0263 H   0  0  0  0  0  0  0  0  0  0  0  0
  1  2  2  0
  2  3  1  0
  3  4  1  0
  4  5  1  0
  5  6  2  0
  5  7  1  0
  7  8  1  0
  8  9  1  0
  9 10  1  0
 10 11  1  0
 11 12  1  0
 12 13  1  0
 13 14  2  0
 14 15  1  0
 15 16  2  0
 16 17  1  0
 17 18  2  0
  2 19  1  0
 19 20  2  0
 20 21  1  0
 21 22  2  0
 22 23  1  0
 23 24  2  0
 24 25  1  0
 25 26  1  0
 25 27  1  0
 25 28  1  0
 24 29  1  0
 29 30  2  0
 30 31  1  0
 31 32  2  0
 12  7  1  0
 18 13  1  0
 32 19  1  0
 31 22  1  0
  3 33  1  0
  4 34  1  0
  4 35  1  0
  8 36  1  0
  8 37  1  0
  9 38  1  0
  9 39  1  0
 10 40  1  0
 10 41  1  0
 11 42  1  0
 11 43  1  0
 12 44  1  6
 14 45  1  0
 15 46  1  0
 16 47  1  0
 17 48  1  0
 20 49  1  0
 21 50  1  0
 23 51  1  0
 29 52  1  0
 30 53  1  0
M  END
>  <smiles>  (100) 
O=C(NCC(=O)N1CCCCC1c1ccccn1)c1ccc2cc(C(F)(F)F)ccc2n1

>  <score_type>  (100) 
oracle

>  <origin>  (100) 
autodockgpu

>  <m_score__min__energy>  (100) 
-8.1699999999999999

>  <m_primary>  (100) 
energy

>  <rmsd>  (100) 
2.9978830347989986

>  <m_score__min__rmsd>  (100) 
2.9978830347989986

>  <meeko>  (100) 
{"free_energy": -7.54, "intermolecular_energy": -9.33, "internal_energy": -1.94, "cluster_size": 22, "cluster_id": 1, "rank_in_cluster": 13}

>  <energy>  (100) 
-5.42

>  <cluster_rmsd>  (100) 
0.0

>  <cluster>  (100) 
8

$$$$
