
     RDKit          3D

 49 52  0  0  0  0  0  0  0  0999 V2000
  141.1660   72.2460  221.4150 O   0  0  0  0  0  0  0  0  0  0  0  0
  140.3270   72.5040  222.3410 C   0  0  0  0  0  0  0  0  0  0  0  0
  139.5250   73.6620  222.2930 N   0  0  0  0  0  0  0  0  0  0  0  0
  139.5900   74.6250  221.2140 C   0  0  0  0  0  0  0  0  0  0  0  0
  139.2560   75.9940  221.6720 C   0  0  0  0  0  0  0  0  0  0  0  0
  138.3000   76.2610  222.4430 O   0  0  0  0  0  0  0  0  0  0  0  0
  140.0630   77.0680  221.2130 N   0  0  0  0  0  0  0  0  0  0  0  0
  139.6920   78.0970  220.2300 C   0  0  0  0  0  0  0  0  0  0  0  0
  140.9970   78.6060  219.6490 C   0  0  2  0  0  0  0  0  0  0  0  0
  140.9590   78.5710  218.2600 O   0  0  0  0  0  0  0  0  0  0  0  0
  142.0160   77.6250  220.2100 C   0  0  0  0  0  0  0  0  0  0  0  0
  141.4270   77.4190  221.5870 C   0  0  1  0  0  0  0  0  0  0  0  0
  141.4950   78.6690  222.3380 C   0  0  0  0  0  0  0  0  0  0  0  0
  142.5550   79.5400  222.3760 C   0  0  0  0  0  0  0  0  0  0  0  0
  142.5430   80.7160  223.1150 C   0  0  0  0  0  0  0  0  0  0  0  0
  141.4260   81.0530  223.8580 C   0  0  0  0  0  0  0  0  0  0  0  0
  140.3550   80.1870  223.8300 C   0  0  0  0  0  0  0  0  0  0  0  0
  140.3810   79.0280  223.0950 C   0  0  0  0  0  0  0  0  0  0  0  0
  140.1880   71.5830  223.4800 C   0  0  0  0  0  0  0  0  0  0  0  0
  139.5800   70.3510  223.3250 C   0  0  0  0  0  0  0  0  0  0  0  0
  139.4690   69.5080  224.4310 C   0  0  0  0  0  0  0  0  0  0  0  0
  139.9520   69.8700  225.6770 C   0  0  0  0  0  0  0  0  0  0  0  0
  139.8490   69.0430  226.7820 C   0  0  0  0  0  0  0  0  0  0  0  0
  140.3670   69.5010  227.9930 C   0  0  0  0  0  0  0  0  0  0  0  0
  140.2750   68.7020  229.0900 F   0  0  0  0  0  0  0  0  0  0  0  0
  140.9620   70.7480  228.0600 C   0  0  0  0  0  0  0  0  0  0  0  0
  141.0650   71.5750  226.9570 C   0  0  0  0  0  0  0  0  0  0  0  0
  140.5480   71.1100  225.7660 C   0  0  0  0  0  0  0  0  0  0  0  0
  140.6530   71.9220  224.6940 N   0  0  0  0  0  0  0  0  0  0  0  0
  138.8510   73.8230  223.0830 H   0  0  0  0  0  0  0  0  0  0  0  0
  140.6095   74.6274  220.8009 H   0  0  0  0  0  0  0  0  0  0  0  0
  138.8529   74.3321  220.4518 H   0  0  0  0  0  0  0  0  0  0  0  0
  139.0647   77.6614  219.4383 H   0  0  0  0  0  0  0  0  0  0  0  0
  139.1125   78.9087  220.6940 H   0  0  0  0  0  0  0  0  0  0  0  0
  141.2238   79.6512  219.9063 H   0  0  0  0  0  0  0  0  0  0  0  0
  139.9820   78.4700  218.0270 H   0  0  0  0  0  0  0  0  0  0  0  0
  142.0471   76.6895  219.6322 H   0  0  0  0  0  0  0  0  0  0  0  0
  143.0599   77.9713  220.1929 H   0  0  0  0  0  0  0  0  0  0  0  0
  141.9205   76.6769  222.2318 H   0  0  0  0  0  0  0  0  0  0  0  0
  143.4559   79.2954  221.7942 H   0  0  0  0  0  0  0  0  0  0  0  0
  143.4209   81.3787  223.1094 H   0  0  0  0  0  0  0  0  0  0  0  0
  141.3940   81.9795  224.4501 H   0  0  0  0  0  0  0  0  0  0  0  0
  139.4544   80.4309  224.4126 H   0  0  0  0  0  0  0  0  0  0  0  0
  139.5019   78.3669  223.1036 H   0  0  0  0  0  0  0  0  0  0  0  0
  139.1898   70.0403  222.3446 H   0  0  0  0  0  0  0  0  0  0  0  0
  138.9841   68.5281  224.3097 H   0  0  0  0  0  0  0  0  0  0  0  0
  139.3729   68.0542  226.7072 H   0  0  0  0  0  0  0  0  0  0  0  0
  141.3666   71.0930  229.0229 H   0  0  0  0  0  0  0  0  0  0  0  0
  141.5404   72.5645  227.0265 H   0  0  0  0  0  0  0  0  0  0  0  0
  1  2  2  0
  2  3  1  0
  3  4  1  0
  4  5  1  0
  5  6  2  0
  5  7  1  0
  7  8  1  0
  8  9  1  0
  9 10  1  0
  9 11  1  0
 11 12  1  0
 12 13  1  0
 13 14  2  0
 14 15  1  0
 15 16  2  0
 16 17  1  0
 17 18  2  0
  2 19  1  0
 19 20  2  0
 20 21  1  0
 21 22  2  0
 22 23  1  0
 23 24  2  0
 24 25  1  0
 24 26  1  0
 26 27  2  0
 27 28  1  0
 28 29  2  0
 12  7  1  0
 18 13  1  0
 29 19  1  0
 28 22  1  0
  3 30  1  0
  4 31  1  0
  4 32  1  0
  8 33  1  0
  8 34  1  0
  9 35  1  6
 10 36  1  0
 11 37  1  0
 11 38  1  0
 12 39  1  1
 14 40  1  0
 15 41  1  0
 16 42  1  0
 17 43  1  0
 18 44  1  0
 20 45  1  0
 21 46  1  0
 23 47  1  0
 26 48  1  0
 27 49  1  0
M  END
>  <smiles>  (1) 
O=C(NCC(=O)N1C[C@H](O)C[C@H]1c1ccccc1)c1ccc2cc(F)ccc2n1

>  <score_type>  (1) 
oracle

>  <origin>  (1) 
autodockgpu

>  <m_score__min__energy>  (1) 
-8.6600000000000001

>  <m_primary>  (1) 
energy

>  <rmsd>  (1) 
2.1284579802465355

>  <m_score__min__rmsd>  (1) 
2.1284579802465355

>  <meeko>  (1) 
{"free_energy": -8.48, "intermolecular_energy": -10.27, "internal_energy": -1.32, "cluster_size": 37, "cluster_id": 1, "rank_in_cluster": 25}

>  <energy>  (1) 
-8.66

>  <cluster_rmsd>  (1) 
0.0

>  <cluster>  (1) 
1

$$$$

     RDKit          3D

 49 52  0  0  0  0  0  0  0  0999 V2000
  138.7240   71.2580  221.4090 O   0  0  0  0  0  0  0  0  0  0  0  0
  139.2000   71.6930  222.5120 C   0  0  0  0  0  0  0  0  0  0  0  0
  139.5260   73.0540  222.6760 N   0  0  0  0  0  0  0  0  0  0  0  0
  139.3500   74.0410  221.6310 C   0  0  0  0  0  0  0  0  0  0  0  0
  140.5560   74.8830  221.4560 C   0  0  0  0  0  0  0  0  0  0  0  0
  141.7330   74.4570  221.5780 O   0  0  0  0  0  0  0  0  0  0  0  0
  140.3740   76.2530  221.1310 N   0  0  0  0  0  0  0  0  0  0  0  0
  139.1080   77.0020  221.1270 C   0  0  0  0  0  0  0  0  0  0  0  0
  139.3170   78.1670  220.1800 C   0  0  2  0  0  0  0  0  0  0  0  0
  138.2920   78.2240  219.2420 O   0  0  0  0  0  0  0  0  0  0  0  0
  140.6540   77.8350  219.5330 C   0  0  0  0  0  0  0  0  0  0  0  0
  141.3650   77.2440  220.7290 C   0  0  1  0  0  0  0  0  0  0  0  0
  141.5620   78.2780  221.7400 C   0  0  0  0  0  0  0  0  0  0  0  0
  141.8670   79.5960  221.5080 C   0  0  0  0  0  0  0  0  0  0  0  0
  142.0360   80.5240  222.5280 C   0  0  0  0  0  0  0  0  0  0  0  0
  141.8960   80.1340  223.8470 C   0  0  0  0  0  0  0  0  0  0  0  0
  141.5910   78.8140  224.0940 C   0  0  0  0  0  0  0  0  0  0  0  0
  141.4260   77.9080  223.0760 C   0  0  0  0  0  0  0  0  0  0  0  0
  139.4130   70.7650  223.6330 C   0  0  0  0  0  0  0  0  0  0  0  0
  139.0220   69.4420  223.5420 C   0  0  0  0  0  0  0  0  0  0  0  0
  139.2420   68.5950  224.6280 C   0  0  0  0  0  0  0  0  0  0  0  0
  139.8430   69.0420  225.7930 C   0  0  0  0  0  0  0  0  0  0  0  0
  140.0690   68.2130  226.8780 C   0  0  0  0  0  0  0  0  0  0  0  0
  140.6820   68.7620  228.0040 C   0  0  0  0  0  0  0  0  0  0  0  0
  140.9120   67.9620  229.0810 F   0  0  0  0  0  0  0  0  0  0  0  0
  141.0430   70.0970  228.0110 C   0  0  0  0  0  0  0  0  0  0  0  0
  140.8180   70.9260  226.9280 C   0  0  0  0  0  0  0  0  0  0  0  0
  140.2110   70.3710  225.8210 C   0  0  0  0  0  0  0  0  0  0  0  0
  139.9960   71.1860  224.7680 N   0  0  0  0  0  0  0  0  0  0  0  0
  139.9130   73.3550  223.6040 H   0  0  0  0  0  0  0  0  0  0  0  0
  139.1382   73.5224  220.6843 H   0  0  0  0  0  0  0  0  0  0  0  0
  138.5157   74.6972  221.9197 H   0  0  0  0  0  0  0  0  0  0  0  0
  138.2864   76.3627  220.7716 H   0  0  0  0  0  0  0  0  0  0  0  0
  138.8392   77.3458  222.1367 H   0  0  0  0  0  0  0  0  0  0  0  0
  139.3134   79.1500  220.6736 H   0  0  0  0  0  0  0  0  0  0  0  0
  138.5280   79.0030  218.6440 H   0  0  0  0  0  0  0  0  0  0  0  0
  140.5459   77.1052  218.7171 H   0  0  0  0  0  0  0  0  0  0  0  0
  141.1666   78.6815  219.0527 H   0  0  0  0  0  0  0  0  0  0  0  0
  142.3685   76.8290  220.5538 H   0  0  0  0  0  0  0  0  0  0  0  0
  141.9829   79.9328  220.4672 H   0  0  0  0  0  0  0  0  0  0  0  0
  142.2811   81.5687  222.2862 H   0  0  0  0  0  0  0  0  0  0  0  0
  142.0237   80.8526  224.6700 H   0  0  0  0  0  0  0  0  0  0  0  0
  141.4766   78.4767  225.1347 H   0  0  0  0  0  0  0  0  0  0  0  0
  141.1803   76.8642  223.3213 H   0  0  0  0  0  0  0  0  0  0  0  0
  138.5444   69.0630  222.6265 H   0  0  0  0  0  0  0  0  0  0  0  0
  138.9295   67.5427  224.5573 H   0  0  0  0  0  0  0  0  0  0  0  0
  139.7741   67.1535  226.8530 H   0  0  0  0  0  0  0  0  0  0  0  0
  141.5251   70.5129  228.9080 H   0  0  0  0  0  0  0  0  0  0  0  0
  141.1114   71.9860  226.9483 H   0  0  0  0  0  0  0  0  0  0  0  0
  1  2  2  0
  2  3  1  0
  3  4  1  0
  4  5  1  0
  5  6  2  0
  5  7  1  0
  7  8  1  0
  8  9  1  0
  9 10  1  0
  9 11  1  0
 11 12  1  0
 12 13  1  0
 13 14  2  0
 14 15  1  0
 15 16  2  0
 16 17  1  0
 17 18  2  0
  2 19  1  0
 19 20  2  0
 20 21  1  0
 21 22  2  0
 22 23  1  0
 23 24  2  0
 24 25  1  0
 24 26  1  0
 26 27  2  0
 27 28  1  0
 28 29  2  0
 12  7  1  0
 18 13  1  0
 29 19  1  0
 28 22  1  0
  3 30  1  0
  4 31  1  0
  4 32  1  0
  8 33  1  0
  8 34  1  0
  9 35  1  1
 10 36  1  0
 11 37  1  0
 11 38  1  0
 12 39  1  6
 14 40  1  0
 15 41  1  0
 16 42  1  0
 17 43  1  0
 18 44  1  0
 20 45  1  0
 21 46  1  0
 23 47  1  0
 26 48  1  0
 27 49  1  0
M  END
>  <smiles>  (2) 
O=C(NCC(=O)N1C[C@H](O)C[C@H]1c1ccccc1)c1ccc2cc(F)ccc2n1

>  <score_type>  (2) 
oracle

>  <origin>  (2) 
autodockgpu

>  <m_score__min__energy>  (2) 
-8.6600000000000001

>  <m_primary>  (2) 
energy

>  <rmsd>  (2) 
1.716249081218553

>  <m_score__min__rmsd>  (2) 
1.716249081218553

>  <meeko>  (2) 
{"free_energy": -7.85, "intermolecular_energy": -9.64, "internal_energy": -1.46, "cluster_size": 37, "cluster_id": 1, "rank_in_cluster": 37}

>  <energy>  (2) 
-8.65

>  <cluster_rmsd>  (2) 
0.21

>  <cluster>  (2) 
1

$$$$

     RDKit          3D

 49 52  0  0  0  0  0  0  0  0999 V2000
  139.9000   71.6670  221.0220 O   0  0  0  0  0  0  0  0  0  0  0  0
  139.8080   72.1750  222.1890 C   0  0  0  0  0  0  0  0  0  0  0  0
  139.6340   73.5630  222.3660 N   0  0  0  0  0  0  0  0  0  0  0  0
  139.5480   74.4960  221.2620 C   0  0  0  0  0  0  0  0  0  0  0  0
  140.7520   75.3530  221.1670 C   0  0  0  0  0  0  0  0  0  0  0  0
  141.9300   74.9150  221.2050 O   0  0  0  0  0  0  0  0  0  0  0  0
  140.5670   76.7540  221.0240 N   0  0  0  0  0  0  0  0  0  0  0  0
  139.3020   77.4960  221.1360 C   0  0  0  0  0  0  0  0  0  0  0  0
  139.4980   78.7740  220.3430 C   0  0  2  0  0  0  0  0  0  0  0  0
  138.4590   78.9500  219.4360 O   0  0  0  0  0  0  0  0  0  0  0  0
  140.8240   78.5280  219.6380 C   0  0  0  0  0  0  0  0  0  0  0  0
  141.5530   77.7880  220.7370 C   0  0  1  0  0  0  0  0  0  0  0  0
  141.7660   78.6840  221.8700 C   0  0  0  0  0  0  0  0  0  0  0  0
  141.5820   78.3790  223.1960 C   0  0  0  0  0  0  0  0  0  0  0  0
  141.8100   79.2880  224.2200 C   0  0  0  0  0  0  0  0  0  0  0  0
  142.2430   80.5680  223.9240 C   0  0  0  0  0  0  0  0  0  0  0  0
  142.4310   80.8880  222.5980 C   0  0  0  0  0  0  0  0  0  0  0  0
  142.2020   79.9780  221.5950 C   0  0  0  0  0  0  0  0  0  0  0  0
  139.8830   71.3060  223.3730 C   0  0  0  0  0  0  0  0  0  0  0  0
  139.4680   69.9890  223.3130 C   0  0  0  0  0  0  0  0  0  0  0  0
  139.5560   69.1980  224.4590 C   0  0  0  0  0  0  0  0  0  0  0  0
  140.0490   69.6960  225.6530 C   0  0  0  0  0  0  0  0  0  0  0  0
  140.1440   68.9230  226.7980 C   0  0  0  0  0  0  0  0  0  0  0  0
  140.6550   69.5200  227.9500 C   0  0  0  0  0  0  0  0  0  0  0  0
  140.7550   68.7750  229.0850 F   0  0  0  0  0  0  0  0  0  0  0  0
  141.0490   70.8450  227.9230 C   0  0  0  0  0  0  0  0  0  0  0  0
  140.9560   71.6180  226.7810 C   0  0  0  0  0  0  0  0  0  0  0  0
  140.4490   71.0160  225.6490 C   0  0  0  0  0  0  0  0  0  0  0  0
  140.3610   71.7770  224.5380 N   0  0  0  0  0  0  0  0  0  0  0  0
  139.5640   73.9250  223.3490 H   0  0  0  0  0  0  0  0  0  0  0  0
  139.4402   73.9294  220.3253 H   0  0  0  0  0  0  0  0  0  0  0  0
  138.6788   75.1478  221.4340 H   0  0  0  0  0  0  0  0  0  0  0  0
  138.4743   76.9070  220.7140 H   0  0  0  0  0  0  0  0  0  0  0  0
  139.0490   77.7068  222.1856 H   0  0  0  0  0  0  0  0  0  0  0  0
  139.5034   79.6855  220.9587 H   0  0  0  0  0  0  0  0  0  0  0  0
  138.6850   78.3450  218.6590 H   0  0  0  0  0  0  0  0  0  0  0  0
  140.7017   77.9091  218.7369 H   0  0  0  0  0  0  0  0  0  0  0  0
  141.3306   79.4293  219.2626 H   0  0  0  0  0  0  0  0  0  0  0  0
  142.5530   77.3995  220.4939 H   0  0  0  0  0  0  0  0  0  0  0  0
  141.2381   77.3678  223.4590 H   0  0  0  0  0  0  0  0  0  0  0  0
  141.6464   78.9906  225.2663 H   0  0  0  0  0  0  0  0  0  0  0  0
  142.4305   81.3041  224.7196 H   0  0  0  0  0  0  0  0  0  0  0  0
  142.7738   81.8996  222.3349 H   0  0  0  0  0  0  0  0  0  0  0  0
  142.3668   80.2783  220.5497 H   0  0  0  0  0  0  0  0  0  0  0  0
  139.0740   69.5704  222.3752 H   0  0  0  0  0  0  0  0  0  0  0  0
  139.2246   68.1501  224.4125 H   0  0  0  0  0  0  0  0  0  0  0  0
  139.8260   67.8700  226.7988 H   0  0  0  0  0  0  0  0  0  0  0  0
  141.4499   71.2992  228.8411 H   0  0  0  0  0  0  0  0  0  0  0  0
  141.2737   72.6711  226.7755 H   0  0  0  0  0  0  0  0  0  0  0  0
  1  2  2  0
  2  3  1  0
  3  4  1  0
  4  5  1  0
  5  6  2  0
  5  7  1  0
  7  8  1  0
  8  9  1  0
  9 10  1  0
  9 11  1  0
 11 12  1  0
 12 13  1  0
 13 14  2  0
 14 15  1  0
 15 16  2  0
 16 17  1  0
 17 18  2  0
  2 19  1  0
 19 20  2  0
 20 21  1  0
 21 22  2  0
 22 23  1  0
 23 24  2  0
 24 25  1  0
 24 26  1  0
 26 27  2  0
 27 28  1  0
 28 29  2  0
 12  7  1  0
 18 13  1  0
 29 19  1  0
 28 22  1  0
  3 30  1  0
  4 31  1  0
  4 32  1  0
  8 33  1  0
  8 34  1  0
  9 35  1  1
 10 36  1  0
 11 37  1  0
 11 38  1  0
 12 39  1  6
 14 40  1  0
 15 41  1  0
 16 42  1  0
 17 43  1  0
 18 44  1  0
 20 45  1  0
 21 46  1  0
 23 47  1  0
 26 48  1  0
 27 49  1  0
M  END
>  <smiles>  (3) 
O=C(NCC(=O)N1C[C@H](O)C[C@H]1c1ccccc1)c1ccc2cc(F)ccc2n1

>  <score_type>  (3) 
oracle

>  <origin>  (3) 
autodockgpu

>  <m_score__min__energy>  (3) 
-8.6600000000000001

>  <m_primary>  (3) 
energy

>  <rmsd>  (3) 
1.974559817546064

>  <m_score__min__rmsd>  (3) 
1.974559817546064

>  <meeko>  (3) 
{"free_energy": -8.24, "intermolecular_energy": -10.03, "internal_energy": -1.34, "cluster_size": 37, "cluster_id": 1, "rank_in_cluster": 33}

>  <energy>  (3) 
-8.64

>  <cluster_rmsd>  (3) 
0.12

>  <cluster>  (3) 
1

$$$$

     RDKit          3D

 49 52  0  0  0  0  0  0  0  0999 V2000
  141.3120   72.3500  221.5680 O   0  0  0  0  0  0  0  0  0  0  0  0
  140.3900   72.5390  222.4310 C   0  0  0  0  0  0  0  0  0  0  0  0
  139.5240   73.6470  222.3380 N   0  0  0  0  0  0  0  0  0  0  0  0
  139.6110   74.6330  221.2800 C   0  0  0  0  0  0  0  0  0  0  0  0
  139.2310   75.9850  221.7510 C   0  0  0  0  0  0  0  0  0  0  0  0
  138.2720   76.2130  222.5310 O   0  0  0  0  0  0  0  0  0  0  0  0
  139.9950   77.0910  221.2930 N   0  0  0  0  0  0  0  0  0  0  0  0
  139.5800   78.1120  220.3190 C   0  0  0  0  0  0  0  0  0  0  0  0
  140.8620   78.6720  219.7330 C   0  0  2  0  0  0  0  0  0  0  0  0
  140.8160   78.6440  218.3430 O   0  0  0  0  0  0  0  0  0  0  0  0
  141.9200   77.7250  220.2800 C   0  0  0  0  0  0  0  0  0  0  0  0
  141.3480   77.4890  221.6600 C   0  0  1  0  0  0  0  0  0  0  0  0
  141.3760   78.7360  222.4190 C   0  0  0  0  0  0  0  0  0  0  0  0
  140.3320   79.2870  223.1190 C   0  0  0  0  0  0  0  0  0  0  0  0
  140.4370   80.4800  223.8220 C   0  0  0  0  0  0  0  0  0  0  0  0
  141.6370   81.1690  223.8370 C   0  0  0  0  0  0  0  0  0  0  0  0
  142.6930   80.6270  223.1380 C   0  0  0  0  0  0  0  0  0  0  0  0
  142.5740   79.4470  222.4480 C   0  0  0  0  0  0  0  0  0  0  0  0
  140.2240   71.5910  223.5430 C   0  0  0  0  0  0  0  0  0  0  0  0
  139.6000   70.3730  223.3480 C   0  0  0  0  0  0  0  0  0  0  0  0
  139.4620   69.5020  224.4290 C   0  0  0  0  0  0  0  0  0  0  0  0
  139.9330   69.8240  225.6900 C   0  0  0  0  0  0  0  0  0  0  0  0
  139.8040   68.9700  226.7720 C   0  0  0  0  0  0  0  0  0  0  0  0
  140.3130   69.3880  228.0010 C   0  0  0  0  0  0  0  0  0  0  0  0
  140.1950   68.5620  229.0750 F   0  0  0  0  0  0  0  0  0  0  0  0
  140.9250   70.6240  228.1090 C   0  0  0  0  0  0  0  0  0  0  0  0
  141.0550   71.4780  227.0290 C   0  0  0  0  0  0  0  0  0  0  0  0
  140.5470   71.0530  225.8200 C   0  0  0  0  0  0  0  0  0  0  0  0
  140.6770   71.8910  224.7720 N   0  0  0  0  0  0  0  0  0  0  0  0
  138.7840   73.7530  223.0760 H   0  0  0  0  0  0  0  0  0  0  0  0
  140.6455   74.6642  220.9074 H   0  0  0  0  0  0  0  0  0  0  0  0
  138.9107   74.3406  220.4837 H   0  0  0  0  0  0  0  0  0  0  0  0
  138.9638   77.6588  219.5285 H   0  0  0  0  0  0  0  0  0  0  0  0
  138.9742   78.8990  220.7919 H   0  0  0  0  0  0  0  0  0  0  0  0
  141.0521   79.7230  219.9963 H   0  0  0  0  0  0  0  0  0  0  0  0
  141.7120   79.0010  218.0450 H   0  0  0  0  0  0  0  0  0  0  0  0
  141.9808   76.7950  219.6957 H   0  0  0  0  0  0  0  0  0  0  0  0
  142.9506   78.1088  220.2579 H   0  0  0  0  0  0  0  0  0  0  0  0
  141.8725   76.7611  222.2965 H   0  0  0  0  0  0  0  0  0  0  0  0
  139.3670   78.7590  223.1234 H   0  0  0  0  0  0  0  0  0  0  0  0
  139.5673   80.8768  224.3663 H   0  0  0  0  0  0  0  0  0  0  0  0
  141.7438   82.1154  224.3873 H   0  0  0  0  0  0  0  0  0  0  0  0
  143.6582   81.1547  223.1328 H   0  0  0  0  0  0  0  0  0  0  0  0
  143.4454   79.0528  221.9046 H   0  0  0  0  0  0  0  0  0  0  0  0
  139.2178   70.0946  222.3548 H   0  0  0  0  0  0  0  0  0  0  0  0
  138.9652   68.5327  224.2749 H   0  0  0  0  0  0  0  0  0  0  0  0
  139.3145   67.9907  226.6653 H   0  0  0  0  0  0  0  0  0  0  0  0
  141.3212   70.9378  229.0860 H   0  0  0  0  0  0  0  0  0  0  0  0
  141.5445   72.4578  227.1307 H   0  0  0  0  0  0  0  0  0  0  0  0
  1  2  2  0
  2  3  1  0
  3  4  1  0
  4  5  1  0
  5  6  2  0
  5  7  1  0
  7  8  1  0
  8  9  1  0
  9 10  1  0
  9 11  1  0
 11 12  1  0
 12 13  1  0
 13 14  2  0
 14 15  1  0
 15 16  2  0
 16 17  1  0
 17 18  2  0
  2 19  1  0
 19 20  2  0
 20 21  1  0
 21 22  2  0
 22 23  1  0
 23 24  2  0
 24 25  1  0
 24 26  1  0
 26 27  2  0
 27 28  1  0
 28 29  2  0
 12  7  1  0
 18 13  1  0
 29 19  1  0
 28 22  1  0
  3 30  1  0
  4 31  1  0
  4 32  1  0
  8 33  1  0
  8 34  1  0
  9 35  1  6
 10 36  1  0
 11 37  1  0
 11 38  1  0
 12 39  1  1
 14 40  1  0
 15 41  1  0
 16 42  1  0
 17 43  1  0
 18 44  1  0
 20 45  1  0
 21 46  1  0
 23 47  1  0
 26 48  1  0
 27 49  1  0
M  END
>  <smiles>  (4) 
O=C(NCC(=O)N1C[C@H](O)C[C@H]1c1ccccc1)c1ccc2cc(F)ccc2n1

>  <score_type>  (4) 
oracle

>  <origin>  (4) 
autodockgpu

>  <m_score__min__energy>  (4) 
-8.6600000000000001

>  <m_primary>  (4) 
energy

>  <rmsd>  (4) 
2.1633190560693563

>  <m_score__min__rmsd>  (4) 
2.1633190560693563

>  <meeko>  (4) 
{"free_energy": -8.63, "intermolecular_energy": -10.42, "internal_energy": -1.3, "cluster_size": 37, "cluster_id": 1, "rank_in_cluster": 5}

>  <energy>  (4) 
-8.63

>  <cluster_rmsd>  (4) 
1.54

>  <cluster>  (4) 
1

$$$$

     RDKit          3D

 49 52  0  0  0  0  0  0  0  0999 V2000
  141.3760   72.7620  221.8920 O   0  0  0  0  0  0  0  0  0  0  0  0
  140.3020   72.6780  222.5770 C   0  0  0  0  0  0  0  0  0  0  0  0
  139.2260   73.5590  222.3510 N   0  0  0  0  0  0  0  0  0  0  0  0
  139.2550   74.6030  221.3470 C   0  0  0  0  0  0  0  0  0  0  0  0
  139.0800   75.9480  221.9420 C   0  0  0  0  0  0  0  0  0  0  0  0
  138.2630   76.2080  222.8610 O   0  0  0  0  0  0  0  0  0  0  0  0
  139.8830   77.0090  221.4450 N   0  0  0  0  0  0  0  0  0  0  0  0
  139.5110   77.9980  220.4220 C   0  0  0  0  0  0  0  0  0  0  0  0
  140.8150   78.4910  219.8270 C   0  0  2  0  0  0  0  0  0  0  0  0
  140.7820   78.4030  218.4390 O   0  0  0  0  0  0  0  0  0  0  0  0
  141.8370   77.5370  220.4270 C   0  0  0  0  0  0  0  0  0  0  0  0
  141.2450   77.3810  221.8100 C   0  0  1  0  0  0  0  0  0  0  0  0
  141.3040   78.6580  222.5130 C   0  0  0  0  0  0  0  0  0  0  0  0
  140.2730   79.2670  223.1840 C   0  0  0  0  0  0  0  0  0  0  0  0
  140.4080   80.4870  223.8350 C   0  0  0  0  0  0  0  0  0  0  0  0
  141.6260   81.1440  223.8240 C   0  0  0  0  0  0  0  0  0  0  0  0
  142.6690   80.5440  223.1530 C   0  0  0  0  0  0  0  0  0  0  0  0
  142.5200   79.3380  222.5150 C   0  0  0  0  0  0  0  0  0  0  0  0
  140.1780   71.6480  223.6190 C   0  0  0  0  0  0  0  0  0  0  0  0
  139.5670   70.4370  223.3500 C   0  0  0  0  0  0  0  0  0  0  0  0
  139.4690   69.4870  224.3670 C   0  0  0  0  0  0  0  0  0  0  0  0
  139.9690   69.7230  225.6370 C   0  0  0  0  0  0  0  0  0  0  0  0
  139.8800   68.7900  226.6560 C   0  0  0  0  0  0  0  0  0  0  0  0
  140.4140   69.1260  227.8990 C   0  0  0  0  0  0  0  0  0  0  0  0
  140.3360   68.2200  228.9120 F   0  0  0  0  0  0  0  0  0  0  0  0
  141.0110   70.3600  228.0830 C   0  0  0  0  0  0  0  0  0  0  0  0
  141.1000   71.2930  227.0660 C   0  0  0  0  0  0  0  0  0  0  0  0
  140.5670   70.9490  225.8420 C   0  0  0  0  0  0  0  0  0  0  0  0
  140.6590   71.8640  224.8550 N   0  0  0  0  0  0  0  0  0  0  0  0
  138.3660   73.4440  222.9430 H   0  0  0  0  0  0  0  0  0  0  0  0
  140.2231   74.5681  220.8259 H   0  0  0  0  0  0  0  0  0  0  0  0
  138.4222   74.4282  220.6499 H   0  0  0  0  0  0  0  0  0  0  0  0
  138.8890   77.5294  219.6451 H   0  0  0  0  0  0  0  0  0  0  0  0
  138.9259   78.8239  220.8527 H   0  0  0  0  0  0  0  0  0  0  0  0
  141.0355   79.5462  220.0460 H   0  0  0  0  0  0  0  0  0  0  0  0
  139.8730   78.7550  218.1770 H   0  0  0  0  0  0  0  0  0  0  0  0
  141.8738   76.5803  219.8854 H   0  0  0  0  0  0  0  0  0  0  0  0
  142.8794   77.8871  220.3990 H   0  0  0  0  0  0  0  0  0  0  0  0
  141.7407   76.6669  222.4841 H   0  0  0  0  0  0  0  0  0  0  0  0
  139.2941   78.7657  223.2074 H   0  0  0  0  0  0  0  0  0  0  0  0
  139.5480   80.9301  224.3584 H   0  0  0  0  0  0  0  0  0  0  0  0
  141.7567   82.1105  224.3327 H   0  0  0  0  0  0  0  0  0  0  0  0
  143.6479   81.0452  223.1279 H   0  0  0  0  0  0  0  0  0  0  0  0
  143.3819   78.8975  221.9924 H   0  0  0  0  0  0  0  0  0  0  0  0
  139.1640   70.2257  222.3485 H   0  0  0  0  0  0  0  0  0  0  0  0
  138.9813   68.5242  224.1545 H   0  0  0  0  0  0  0  0  0  0  0  0
  139.4024   67.8131  226.4898 H   0  0  0  0  0  0  0  0  0  0  0  0
  141.4285   70.6073  229.0702 H   0  0  0  0  0  0  0  0  0  0  0  0
  141.5772   72.2709  227.2273 H   0  0  0  0  0  0  0  0  0  0  0  0
  1  2  2  0
  2  3  1  0
  3  4  1  0
  4  5  1  0
  5  6  2  0
  5  7  1  0
  7  8  1  0
  8  9  1  0
  9 10  1  0
  9 11  1  0
 11 12  1  0
 12 13  1  0
 13 14  2  0
 14 15  1  0
 15 16  2  0
 16 17  1  0
 17 18  2  0
  2 19  1  0
 19 20  2  0
 20 21  1  0
 21 22  2  0
 22 23  1  0
 23 24  2  0
 24 25  1  0
 24 26  1  0
 26 27  2  0
 27 28  1  0
 28 29  2  0
 12  7  1  0
 18 13  1  0
 29 19  1  0
 28 22  1  0
  3 30  1  0
  4 31  1  0
  4 32  1  0
  8 33  1  0
  8 34  1  0
  9 35  1  6
 10 36  1  0
 11 37  1  0
 11 38  1  0
 12 39  1  1
 14 40  1  0
 15 41  1  0
 16 42  1  0
 17 43  1  0
 18 44  1  0
 20 45  1  0
 21 46  1  0
 23 47  1  0
 26 48  1  0
 27 49  1  0
M  END
>  <smiles>  (5) 
O=C(NCC(=O)N1C[C@H](O)C[C@H]1c1ccccc1)c1ccc2cc(F)ccc2n1

>  <score_type>  (5) 
oracle

>  <origin>  (5) 
autodockgpu

>  <m_score__min__energy>  (5) 
-8.6600000000000001

>  <m_primary>  (5) 
energy

>  <rmsd>  (5) 
2.1472754283123177

>  <m_score__min__rmsd>  (5) 
2.1472754283123177

>  <meeko>  (5) 
{"free_energy": -8.57, "intermolecular_energy": -10.36, "internal_energy": -1.23, "cluster_size": 37, "cluster_id": 1, "rank_in_cluster": 17}

>  <energy>  (5) 
-8.63

>  <cluster_rmsd>  (5) 
1.56

>  <cluster>  (5) 
1

$$$$

     RDKit          3D

 49 52  0  0  0  0  0  0  0  0999 V2000
  141.2860   72.4030  221.6790 O   0  0  0  0  0  0  0  0  0  0  0  0
  140.3050   72.4900  222.4910 C   0  0  0  0  0  0  0  0  0  0  0  0
  139.3280   73.4960  222.3450 N   0  0  0  0  0  0  0  0  0  0  0  0
  139.3620   74.4840  221.2860 C   0  0  0  0  0  0  0  0  0  0  0  0
  140.4510   75.4690  221.4830 C   0  0  0  0  0  0  0  0  0  0  0  0
  141.6610   75.1590  221.6230 O   0  0  0  0  0  0  0  0  0  0  0  0
  140.1090   76.8470  221.5160 N   0  0  0  0  0  0  0  0  0  0  0  0
  138.9290   77.4510  222.1540 C   0  0  0  0  0  0  0  0  0  0  0  0
  138.6950   78.7650  221.4340 C   0  0  2  0  0  0  0  0  0  0  0  0
  137.3750   78.8610  221.0080 O   0  0  0  0  0  0  0  0  0  0  0  0
  139.6600   78.6780  220.2600 C   0  0  0  0  0  0  0  0  0  0  0  0
  140.8170   77.9850  220.9440 C   0  0  1  0  0  0  0  0  0  0  0  0
  141.3770   78.8640  221.9660 C   0  0  0  0  0  0  0  0  0  0  0  0
  141.6310   78.5340  223.2740 C   0  0  0  0  0  0  0  0  0  0  0  0
  142.1700   79.4290  224.1900 C   0  0  0  0  0  0  0  0  0  0  0  0
  142.4760   80.7190  223.7960 C   0  0  0  0  0  0  0  0  0  0  0  0
  142.2250   81.0640  222.4860 C   0  0  0  0  0  0  0  0  0  0  0  0
  141.6920   80.1690  221.5930 C   0  0  0  0  0  0  0  0  0  0  0  0
  140.1840   71.5310  223.5990 C   0  0  0  0  0  0  0  0  0  0  0  0
  139.5930   70.2960  223.4050 C   0  0  0  0  0  0  0  0  0  0  0  0
  139.4980   69.4150  224.4820 C   0  0  0  0  0  0  0  0  0  0  0  0
  139.9810   69.7420  225.7380 C   0  0  0  0  0  0  0  0  0  0  0  0
  139.8940   68.8770  226.8160 C   0  0  0  0  0  0  0  0  0  0  0  0
  140.4110   69.3020  228.0390 C   0  0  0  0  0  0  0  0  0  0  0  0
  140.3350   68.4660  229.1090 F   0  0  0  0  0  0  0  0  0  0  0  0
  140.9880   70.5550  228.1460 C   0  0  0  0  0  0  0  0  0  0  0  0
  141.0760   71.4190  227.0700 C   0  0  0  0  0  0  0  0  0  0  0  0
  140.5600   70.9870  225.8670 C   0  0  0  0  0  0  0  0  0  0  0  0
  140.6490   71.8360  224.8220 N   0  0  0  0  0  0  0  0  0  0  0  0
  138.5430   73.5200  223.0410 H   0  0  0  0  0  0  0  0  0  0  0  0
  139.5166   73.9705  220.3256 H   0  0  0  0  0  0  0  0  0  0  0  0
  138.4055   75.0272  221.2962 H   0  0  0  0  0  0  0  0  0  0  0  0
  138.0548   76.7927  222.0429 H   0  0  0  0  0  0  0  0  0  0  0  0
  139.0859   77.6032  223.2321 H   0  0  0  0  0  0  0  0  0  0  0  0
  138.8625   79.6534  222.0607 H   0  0  0  0  0  0  0  0  0  0  0  0
  137.2550   78.0980  220.3570 H   0  0  0  0  0  0  0  0  0  0  0  0
  139.2504   78.0767  219.4350 H   0  0  0  0  0  0  0  0  0  0  0  0
  139.9042   79.6375  219.7806 H   0  0  0  0  0  0  0  0  0  0  0  0
  141.6736   77.7089  220.3116 H   0  0  0  0  0  0  0  0  0  0  0  0
  141.3970   77.5139  223.6126 H   0  0  0  0  0  0  0  0  0  0  0  0
  142.3531   79.1120  225.2273 H   0  0  0  0  0  0  0  0  0  0  0  0
  142.9046   81.4439  224.5036 H   0  0  0  0  0  0  0  0  0  0  0  0
  142.4581   82.0842  222.1470 H   0  0  0  0  0  0  0  0  0  0  0  0
  141.5088   80.4897  220.5569 H   0  0  0  0  0  0  0  0  0  0  0  0
  139.2036   70.0127  222.4160 H   0  0  0  0  0  0  0  0  0  0  0  0
  139.0263   68.4331  224.3295 H   0  0  0  0  0  0  0  0  0  0  0  0
  139.4310   67.8848  226.7105 H   0  0  0  0  0  0  0  0  0  0  0  0
  141.3899   70.8743  229.1189 H   0  0  0  0  0  0  0  0  0  0  0  0
  141.5394   72.4116  227.1701 H   0  0  0  0  0  0  0  0  0  0  0  0
  1  2  2  0
  2  3  1  0
  3  4  1  0
  4  5  1  0
  5  6  2  0
  5  7  1  0
  7  8  1  0
  8  9  1  0
  9 10  1  0
  9 11  1  0
 11 12  1  0
 12 13  1  0
 13 14  2  0
 14 15  1  0
 15 16  2  0
 16 17  1  0
 17 18  2  0
  2 19  1  0
 19 20  2  0
 20 21  1  0
 21 22  2  0
 22 23  1  0
 23 24  2  0
 24 25  1  0
 24 26  1  0
 26 27  2  0
 27 28  1  0
 28 29  2  0
 12  7  1  0
 18 13  1  0
 29 19  1  0
 28 22  1  0
  3 30  1  0
  4 31  1  0
  4 32  1  0
  8 33  1  0
  8 34  1  0
  9 35  1  1
 10 36  1  0
 11 37  1  0
 11 38  1  0
 12 39  1  6
 14 40  1  0
 15 41  1  0
 16 42  1  0
 17 43  1  0
 18 44  1  0
 20 45  1  0
 21 46  1  0
 23 47  1  0
 26 48  1  0
 27 49  1  0
M  END
>  <smiles>  (6) 
O=C(NCC(=O)N1C[C@H](O)C[C@H]1c1ccccc1)c1ccc2cc(F)ccc2n1

>  <score_type>  (6) 
oracle

>  <origin>  (6) 
autodockgpu

>  <m_score__min__energy>  (6) 
-8.6600000000000001

>  <m_primary>  (6) 
energy

>  <rmsd>  (6) 
2.371921711661685

>  <m_score__min__rmsd>  (6) 
2.371921711661685

>  <meeko>  (6) 
{"free_energy": -8.62, "intermolecular_energy": -10.41, "internal_energy": -1.11, "cluster_size": 37, "cluster_id": 1, "rank_in_cluster": 8}

>  <energy>  (6) 
-8.62

>  <cluster_rmsd>  (6) 
1.57

>  <cluster>  (6) 
1

$$$$

     RDKit          3D

 49 52  0  0  0  0  0  0  0  0999 V2000
  141.3690   72.2200  221.5330 O   0  0  0  0  0  0  0  0  0  0  0  0
  140.4790   72.4950  222.4060 C   0  0  0  0  0  0  0  0  0  0  0  0
  139.7170   73.6780  222.3190 N   0  0  0  0  0  0  0  0  0  0  0  0
  139.8810   74.6490  221.2560 C   0  0  0  0  0  0  0  0  0  0  0  0
  139.3140   75.9680  221.6190 C   0  0  0  0  0  0  0  0  0  0  0  0
  138.2660   76.1180  222.2970 O   0  0  0  0  0  0  0  0  0  0  0  0
  139.9920   77.1330  221.1750 N   0  0  0  0  0  0  0  0  0  0  0  0
  139.4610   78.1860  220.2960 C   0  0  0  0  0  0  0  0  0  0  0  0
  140.6700   78.8390  219.6520 C   0  0  2  0  0  0  0  0  0  0  0  0
  140.5210   78.8870  218.2710 O   0  0  0  0  0  0  0  0  0  0  0  0
  141.8060   77.9140  220.0640 C   0  0  0  0  0  0  0  0  0  0  0  0
  141.3510   77.5740  221.4660 C   0  0  1  0  0  0  0  0  0  0  0  0
  141.3810   78.7760  222.2930 C   0  0  0  0  0  0  0  0  0  0  0  0
  140.3440   79.2770  223.0400 C   0  0  0  0  0  0  0  0  0  0  0  0
  140.4520   80.4300  223.8080 C   0  0  0  0  0  0  0  0  0  0  0  0
  141.6460   81.1270  223.8420 C   0  0  0  0  0  0  0  0  0  0  0  0
  142.6950   80.6360  223.0970 C   0  0  0  0  0  0  0  0  0  0  0  0
  142.5730   79.4950  222.3430 C   0  0  0  0  0  0  0  0  0  0  0  0
  140.2380   71.5690  223.5220 C   0  0  0  0  0  0  0  0  0  0  0  0
  139.5690   70.3760  223.3220 C   0  0  0  0  0  0  0  0  0  0  0  0
  139.3610   69.5250  224.4080 C   0  0  0  0  0  0  0  0  0  0  0  0
  139.8090   69.8430  225.6800 C   0  0  0  0  0  0  0  0  0  0  0  0
  139.6110   69.0080  226.7670 C   0  0  0  0  0  0  0  0  0  0  0  0
  140.1000   69.4200  228.0060 C   0  0  0  0  0  0  0  0  0  0  0  0
  139.9150   68.6130  229.0850 F   0  0  0  0  0  0  0  0  0  0  0  0
  140.7600   70.6310  228.1180 C   0  0  0  0  0  0  0  0  0  0  0  0
  140.9590   71.4650  227.0340 C   0  0  0  0  0  0  0  0  0  0  0  0
  140.4700   71.0460  225.8150 C   0  0  0  0  0  0  0  0  0  0  0  0
  140.6670   71.8650  224.7610 N   0  0  0  0  0  0  0  0  0  0  0  0
  138.9980   73.8520  223.0640 H   0  0  0  0  0  0  0  0  0  0  0  0
  140.9542   74.7689  221.0467 H   0  0  0  0  0  0  0  0  0  0  0  0
  139.3426   74.2790  220.3710 H   0  0  0  0  0  0  0  0  0  0  0  0
  138.8072   77.7488  219.5270 H   0  0  0  0  0  0  0  0  0  0  0  0
  138.8592   78.9156  220.8578 H   0  0  0  0  0  0  0  0  0  0  0  0
  140.8335   79.8816  219.9621 H   0  0  0  0  0  0  0  0  0  0  0  0
  141.3770   79.3000  217.9300 H   0  0  0  0  0  0  0  0  0  0  0  0
  141.8626   77.0220  219.4228 H   0  0  0  0  0  0  0  0  0  0  0  0
  142.8144   78.3472  219.9899 H   0  0  0  0  0  0  0  0  0  0  0  0
  141.9536   76.8379  222.0183 H   0  0  0  0  0  0  0  0  0  0  0  0
  139.3834   78.7411  223.0302 H   0  0  0  0  0  0  0  0  0  0  0  0
  139.5888   80.7879  224.3883 H   0  0  0  0  0  0  0  0  0  0  0  0
  141.7540   82.0418  224.4432 H   0  0  0  0  0  0  0  0  0  0  0  0
  143.6556   81.1718  223.1062 H   0  0  0  0  0  0  0  0  0  0  0  0
  143.4382   79.1398  221.7640 H   0  0  0  0  0  0  0  0  0  0  0  0
  139.2057   70.1014  222.3207 H   0  0  0  0  0  0  0  0  0  0  0  0
  138.8271   68.5763  224.2501 H   0  0  0  0  0  0  0  0  0  0  0  0
  139.0839   68.0489  226.6562 H   0  0  0  0  0  0  0  0  0  0  0  0
  141.1391   70.9404  229.1031 H   0  0  0  0  0  0  0  0  0  0  0  0
  141.4864   72.4245  227.1396 H   0  0  0  0  0  0  0  0  0  0  0  0
  1  2  2  0
  2  3  1  0
  3  4  1  0
  4  5  1  0
  5  6  2  0
  5  7  1  0
  7  8  1  0
  8  9  1  0
  9 10  1  0
  9 11  1  0
 11 12  1  0
 12 13  1  0
 13 14  2  0
 14 15  1  0
 15 16  2  0
 16 17  1  0
 17 18  2  0
  2 19  1  0
 19 20  2  0
 20 21  1  0
 21 22  2  0
 22 23  1  0
 23 24  2  0
 24 25  1  0
 24 26  1  0
 26 27  2  0
 27 28  1  0
 28 29  2  0
 12  7  1  0
 18 13  1  0
 29 19  1  0
 28 22  1  0
  3 30  1  0
  4 31  1  0
  4 32  1  0
  8 33  1  0
  8 34  1  0
  9 35  1  1
 10 36  1  0
 11 37  1  0
 11 38  1  0
 12 39  1  1
 14 40  1  0
 15 41  1  0
 16 42  1  0
 17 43  1  0
 18 44  1  0
 20 45  1  0
 21 46  1  0
 23 47  1  0
 26 48  1  0
 27 49  1  0
M  END
>  <smiles>  (7) 
O=C(NCC(=O)N1C[C@H](O)C[C@H]1c1ccccc1)c1ccc2cc(F)ccc2n1

>  <score_type>  (7) 
oracle

>  <origin>  (7) 
autodockgpu

>  <m_score__min__energy>  (7) 
-8.6600000000000001

>  <m_primary>  (7) 
energy

>  <rmsd>  (7) 
2.178861955042171

>  <m_score__min__rmsd>  (7) 
2.178861955042171

>  <meeko>  (7) 
{"free_energy": -8.5, "intermolecular_energy": -10.29, "internal_energy": -1.33, "cluster_size": 37, "cluster_id": 1, "rank_in_cluster": 23}

>  <energy>  (7) 
-8.62

>  <cluster_rmsd>  (7) 
0.59

>  <cluster>  (7) 
1

$$$$

     RDKit          3D

 49 52  0  0  0  0  0  0  0  0999 V2000
  141.2880   72.3910  221.6530 O   0  0  0  0  0  0  0  0  0  0  0  0
  140.3230   72.5060  222.4810 C   0  0  0  0  0  0  0  0  0  0  0  0
  139.3730   73.5380  222.3500 N   0  0  0  0  0  0  0  0  0  0  0  0
  139.4160   74.5240  221.2900 C   0  0  0  0  0  0  0  0  0  0  0  0
  140.4260   75.5760  221.5540 C   0  0  0  0  0  0  0  0  0  0  0  0
  141.6630   75.3620  221.6130 O   0  0  0  0  0  0  0  0  0  0  0  0
  139.9700   76.9060  221.7530 N   0  0  0  0  0  0  0  0  0  0  0  0
  138.8820   77.3460  222.6390 C   0  0  0  0  0  0  0  0  0  0  0  0
  138.3940   78.6660  222.0760 C   0  0  2  0  0  0  0  0  0  0  0  0
  137.0140   78.6460  221.9070 O   0  0  0  0  0  0  0  0  0  0  0  0
  139.1220   78.7480  220.7410 C   0  0  0  0  0  0  0  0  0  0  0  0
  140.4480   78.1430  221.1480 C   0  0  1  0  0  0  0  0  0  0  0  0
  141.1070   79.0170  222.1130 C   0  0  0  0  0  0  0  0  0  0  0  0
  141.5930   78.6510  223.3440 C   0  0  0  0  0  0  0  0  0  0  0  0
  142.2140   79.5440  224.2080 C   0  0  0  0  0  0  0  0  0  0  0  0
  142.3660   80.8690  223.8400 C   0  0  0  0  0  0  0  0  0  0  0  0
  141.8820   81.2490  222.6070 C   0  0  0  0  0  0  0  0  0  0  0  0
  141.2710   80.3560  221.7640 C   0  0  0  0  0  0  0  0  0  0  0  0
  140.1940   71.5500  223.5920 C   0  0  0  0  0  0  0  0  0  0  0  0
  139.6050   70.3150  223.3980 C   0  0  0  0  0  0  0  0  0  0  0  0
  139.5020   69.4370  224.4780 C   0  0  0  0  0  0  0  0  0  0  0  0
  139.9750   69.7690  225.7360 C   0  0  0  0  0  0  0  0  0  0  0  0
  139.8810   68.9090  226.8170 C   0  0  0  0  0  0  0  0  0  0  0  0
  140.3880   69.3390  228.0420 C   0  0  0  0  0  0  0  0  0  0  0  0
  140.3050   68.5060  229.1150 F   0  0  0  0  0  0  0  0  0  0  0  0
  140.9640   70.5920  228.1480 C   0  0  0  0  0  0  0  0  0  0  0  0
  141.0600   71.4520  227.0700 C   0  0  0  0  0  0  0  0  0  0  0  0
  140.5530   71.0150  225.8640 C   0  0  0  0  0  0  0  0  0  0  0  0
  140.6500   71.8600  224.8170 N   0  0  0  0  0  0  0  0  0  0  0  0
  138.6000   73.5840  223.0600 H   0  0  0  0  0  0  0  0  0  0  0  0
  139.6666   74.0196  220.3451 H   0  0  0  0  0  0  0  0  0  0  0  0
  138.4289   75.0060  221.2327 H   0  0  0  0  0  0  0  0  0  0  0  0
  138.0676   76.6066  222.6408 H   0  0  0  0  0  0  0  0  0  0  0  0
  139.2266   77.4535  223.6781 H   0  0  0  0  0  0  0  0  0  0  0  0
  138.5939   79.5297  222.7272 H   0  0  0  0  0  0  0  0  0  0  0  0
  136.8060   79.4690  221.3600 H   0  0  0  0  0  0  0  0  0  0  0  0
  138.6209   78.1543  219.9622 H   0  0  0  0  0  0  0  0  0  0  0  0
  139.1800   79.7532  220.2981 H   0  0  0  0  0  0  0  0  0  0  0  0
  141.1912   77.9948  220.3507 H   0  0  0  0  0  0  0  0  0  0  0  0
  141.4857   77.6029  223.6603 H   0  0  0  0  0  0  0  0  0  0  0  0
  142.5847   79.1979  225.1841 H   0  0  0  0  0  0  0  0  0  0  0  0
  142.8556   81.5932  224.5077 H   0  0  0  0  0  0  0  0  0  0  0  0
  141.9886   82.2970  222.2902 H   0  0  0  0  0  0  0  0  0  0  0  0
  140.9014   80.7054  220.7886 H   0  0  0  0  0  0  0  0  0  0  0  0
  139.2230   70.0282  222.4071 H   0  0  0  0  0  0  0  0  0  0  0  0
  139.0321   68.4542  224.3254 H   0  0  0  0  0  0  0  0  0  0  0  0
  139.4198   67.9158  226.7121 H   0  0  0  0  0  0  0  0  0  0  0  0
  141.3589   70.9149  229.1226 H   0  0  0  0  0  0  0  0  0  0  0  0
  141.5222   72.4451  227.1700 H   0  0  0  0  0  0  0  0  0  0  0  0
  1  2  2  0
  2  3  1  0
  3  4  1  0
  4  5  1  0
  5  6  2  0
  5  7  1  0
  7  8  1  0
  8  9  1  0
  9 10  1  0
  9 11  1  0
 11 12  1  0
 12 13  1  0
 13 14  2  0
 14 15  1  0
 15 16  2  0
 16 17  1  0
 17 18  2  0
  2 19  1  0
 19 20  2  0
 20 21  1  0
 21 22  2  0
 22 23  1  0
 23 24  2  0
 24 25  1  0
 24 26  1  0
 26 27  2  0
 27 28  1  0
 28 29  2  0
 12  7  1  0
 18 13  1  0
 29 19  1  0
 28 22  1  0
  3 30  1  0
  4 31  1  0
  4 32  1  0
  8 33  1  0
  8 34  1  0
  9 35  1  1
 10 36  1  0
 11 37  1  0
 11 38  1  0
 12 39  1  6
 14 40  1  0
 15 41  1  0
 16 42  1  0
 17 43  1  0
 18 44  1  0
 20 45  1  0
 21 46  1  0
 23 47  1  0
 26 48  1  0
 27 49  1  0
M  END
>  <smiles>  (8) 
O=C(NCC(=O)N1C[C@H](O)C[C@H]1c1ccccc1)c1ccc2cc(F)ccc2n1

>  <score_type>  (8) 
oracle

>  <origin>  (8) 
autodockgpu

>  <m_score__min__energy>  (8) 
-8.6600000000000001

>  <m_primary>  (8) 
energy

>  <rmsd>  (8) 
2.597899064380932

>  <m_score__min__rmsd>  (8) 
2.597899064380932

>  <meeko>  (8) 
{"free_energy": -8.61, "intermolecular_energy": -10.4, "internal_energy": -1.11, "cluster_size": 37, "cluster_id": 1, "rank_in_cluster": 9}

>  <energy>  (8) 
-8.62

>  <cluster_rmsd>  (8) 
0.18

>  <cluster>  (8) 
1

$$$$

     RDKit          3D

 49 52  0  0  0  0  0  0  0  0999 V2000
  141.1880   72.2180  221.4880 O   0  0  0  0  0  0  0  0  0  0  0  0
  140.3100   72.4280  222.3900 C   0  0  0  0  0  0  0  0  0  0  0  0
  139.4530   73.5450  222.3240 N   0  0  0  0  0  0  0  0  0  0  0  0
  139.5000   74.5160  221.2510 C   0  0  0  0  0  0  0  0  0  0  0  0
  140.5550   75.5330  221.4710 C   0  0  0  0  0  0  0  0  0  0  0  0
  141.7740   75.2610  221.6080 O   0  0  0  0  0  0  0  0  0  0  0  0
  140.1650   76.8980  221.5320 N   0  0  0  0  0  0  0  0  0  0  0  0
  138.9760   77.4500  222.1980 C   0  0  0  0  0  0  0  0  0  0  0  0
  138.6850   78.7670  221.5030 C   0  0  2  0  0  0  0  0  0  0  0  0
  137.3560   78.8230  221.1000 O   0  0  0  0  0  0  0  0  0  0  0  0
  139.6330   78.7320  220.3130 C   0  0  0  0  0  0  0  0  0  0  0  0
  140.8250   78.0690  220.9680 C   0  0  1  0  0  0  0  0  0  0  0  0
  141.3700   78.9500  221.9950 C   0  0  0  0  0  0  0  0  0  0  0  0
  141.6720   78.6040  223.2890 C   0  0  0  0  0  0  0  0  0  0  0  0
  142.1940   79.5030  224.2110 C   0  0  0  0  0  0  0  0  0  0  0  0
  142.4310   80.8140  223.8390 C   0  0  0  0  0  0  0  0  0  0  0  0
  142.1310   81.1750  222.5440 C   0  0  0  0  0  0  0  0  0  0  0  0
  141.6160   80.2760  221.6440 C   0  0  0  0  0  0  0  0  0  0  0  0
  140.1850   71.4950  223.5200 C   0  0  0  0  0  0  0  0  0  0  0  0
  139.5920   70.2570  223.3550 C   0  0  0  0  0  0  0  0  0  0  0  0
  139.4930   69.4020  224.4530 C   0  0  0  0  0  0  0  0  0  0  0  0
  139.9730   69.7590  225.7020 C   0  0  0  0  0  0  0  0  0  0  0  0
  139.8830   68.9200  226.8000 C   0  0  0  0  0  0  0  0  0  0  0  0
  140.3970   69.3740  228.0140 C   0  0  0  0  0  0  0  0  0  0  0  0
  140.3170   68.5630  229.1040 F   0  0  0  0  0  0  0  0  0  0  0  0
  140.9760   70.6280  228.0920 C   0  0  0  0  0  0  0  0  0  0  0  0
  141.0670   71.4660  226.9960 C   0  0  0  0  0  0  0  0  0  0  0  0
  140.5540   71.0050  225.8020 C   0  0  0  0  0  0  0  0  0  0  0  0
  140.6470   71.8290  224.7370 N   0  0  0  0  0  0  0  0  0  0  0  0
  138.7490   73.6680  223.0940 H   0  0  0  0  0  0  0  0  0  0  0  0
  139.7033   73.9916  220.3057 H   0  0  0  0  0  0  0  0  0  0  0  0
  138.5299   75.0334  221.2172 H   0  0  0  0  0  0  0  0  0  0  0  0
  138.1233   76.7635  222.0898 H   0  0  0  0  0  0  0  0  0  0  0  0
  139.1450   77.5904  223.2758 H   0  0  0  0  0  0  0  0  0  0  0  0
  138.8320   79.6510  222.1409 H   0  0  0  0  0  0  0  0  0  0  0  0
  137.3230   78.3000  220.2360 H   0  0  0  0  0  0  0  0  0  0  0  0
  139.2312   78.1296  219.4850 H   0  0  0  0  0  0  0  0  0  0  0  0
  139.8359   79.7067  219.8452 H   0  0  0  0  0  0  0  0  0  0  0  0
  141.6808   77.8333  220.3184 H   0  0  0  0  0  0  0  0  0  0  0  0
  141.4924   77.5675  223.6105 H   0  0  0  0  0  0  0  0  0  0  0  0
  142.4186   79.1724  225.2358 H   0  0  0  0  0  0  0  0  0  0  0  0
  142.8444   81.5425  224.5521 H   0  0  0  0  0  0  0  0  0  0  0  0
  142.3090   82.2118  222.2226 H   0  0  0  0  0  0  0  0  0  0  0  0
  141.3919   80.6104  220.6203 H   0  0  0  0  0  0  0  0  0  0  0  0
  139.2039   69.9506  222.3724 H   0  0  0  0  0  0  0  0  0  0  0  0
  139.0206   68.4171  224.3231 H   0  0  0  0  0  0  0  0  0  0  0  0
  139.4201   67.9256  226.7170 H   0  0  0  0  0  0  0  0  0  0  0  0
  141.3771   70.9696  229.0576 H   0  0  0  0  0  0  0  0  0  0  0  0
  141.5301   72.4607  227.0735 H   0  0  0  0  0  0  0  0  0  0  0  0
  1  2  2  0
  2  3  1  0
  3  4  1  0
  4  5  1  0
  5  6  2  0
  5  7  1  0
  7  8  1  0
  8  9  1  0
  9 10  1  0
  9 11  1  0
 11 12  1  0
 12 13  1  0
 13 14  2  0
 14 15  1  0
 15 16  2  0
 16 17  1  0
 17 18  2  0
  2 19  1  0
 19 20  2  0
 20 21  1  0
 21 22  2  0
 22 23  1  0
 23 24  2  0
 24 25  1  0
 24 26  1  0
 26 27  2  0
 27 28  1  0
 28 29  2  0
 12  7  1  0
 18 13  1  0
 29 19  1  0
 28 22  1  0
  3 30  1  0
  4 31  1  0
  4 32  1  0
  8 33  1  0
  8 34  1  0
  9 35  1  1
 10 36  1  0
 11 37  1  0
 11 38  1  0
 12 39  1  6
 14 40  1  0
 15 41  1  0
 16 42  1  0
 17 43  1  0
 18 44  1  0
 20 45  1  0
 21 46  1  0
 23 47  1  0
 26 48  1  0
 27 49  1  0
M  END
>  <smiles>  (9) 
O=C(NCC(=O)N1C[C@H](O)C[C@H]1c1ccccc1)c1ccc2cc(F)ccc2n1

>  <score_type>  (9) 
oracle

>  <origin>  (9) 
autodockgpu

>  <m_score__min__energy>  (9) 
-8.6600000000000001

>  <m_primary>  (9) 
energy

>  <rmsd>  (9) 
2.3990855163982885

>  <m_score__min__rmsd>  (9) 
2.3990855163982885

>  <meeko>  (9) 
{"free_energy": -8.6, "intermolecular_energy": -10.39, "internal_energy": -1.14, "cluster_size": 37, "cluster_id": 1, "rank_in_cluster": 13}

>  <energy>  (9) 
-8.61

>  <cluster_rmsd>  (9) 
0.32

>  <cluster>  (9) 
1

$$$$

     RDKit          3D

 49 52  0  0  0  0  0  0  0  0999 V2000
  140.2520   71.5620  220.9580 O   0  0  0  0  0  0  0  0  0  0  0  0
  140.0090   72.0860  222.0960 C   0  0  0  0  0  0  0  0  0  0  0  0
  139.7710   73.4690  222.2240 N   0  0  0  0  0  0  0  0  0  0  0  0
  139.7830   74.3810  221.0990 C   0  0  0  0  0  0  0  0  0  0  0  0
  140.7920   75.4530  221.2660 C   0  0  0  0  0  0  0  0  0  0  0  0
  140.7950   76.2710  222.2200 O   0  0  0  0  0  0  0  0  0  0  0  0
  141.8170   75.5660  220.2900 N   0  0  0  0  0  0  0  0  0  0  0  0
  142.7380   76.6970  220.0980 C   0  0  0  0  0  0  0  0  0  0  0  0
  143.1900   76.6240  218.6520 C   0  0  2  0  0  0  0  0  0  0  0  0
  143.0110   77.8510  218.0230 O   0  0  0  0  0  0  0  0  0  0  0  0
  142.2750   75.5550  218.0710 C   0  0  0  0  0  0  0  0  0  0  0  0
  142.2100   74.6170  219.2550 C   0  0  1  0  0  0  0  0  0  0  0  0
  143.5310   74.0440  219.4980 C   0  0  0  0  0  0  0  0  0  0  0  0
  144.4170   73.6080  218.5440 C   0  0  0  0  0  0  0  0  0  0  0  0
  145.6620   73.0760  218.8540 C   0  0  0  0  0  0  0  0  0  0  0  0
  146.0560   72.9670  220.1760 C   0  0  0  0  0  0  0  0  0  0  0  0
  145.1760   73.4010  221.1430 C   0  0  0  0  0  0  0  0  0  0  0  0
  143.9490   73.9250  220.8210 C   0  0  0  0  0  0  0  0  0  0  0  0
  139.9740   71.2390  223.2990 C   0  0  0  0  0  0  0  0  0  0  0  0
  139.5430   69.9280  223.2300 C   0  0  0  0  0  0  0  0  0  0  0  0
  139.5250   69.1590  224.3940 C   0  0  0  0  0  0  0  0  0  0  0  0
  139.9300   69.6730  225.6140 C   0  0  0  0  0  0  0  0  0  0  0  0
  139.9190   68.9220  226.7770 C   0  0  0  0  0  0  0  0  0  0  0  0
  140.3460   69.5330  227.9550 C   0  0  0  0  0  0  0  0  0  0  0  0
  140.3420   68.8100  229.1080 F   0  0  0  0  0  0  0  0  0  0  0  0
  140.7640   70.8520  227.9350 C   0  0  0  0  0  0  0  0  0  0  0  0
  140.7760   71.6030  226.7750 C   0  0  0  0  0  0  0  0  0  0  0  0
  140.3500   70.9870  225.6170 C   0  0  0  0  0  0  0  0  0  0  0  0
  140.3650   71.7260  224.4890 N   0  0  0  0  0  0  0  0  0  0  0  0
  139.5760   73.8450  223.1850 H   0  0  0  0  0  0  0  0  0  0  0  0
  140.0142   73.8146  220.1848 H   0  0  0  0  0  0  0  0  0  0  0  0
  138.7919   74.8537  221.0334 H   0  0  0  0  0  0  0  0  0  0  0  0
  142.2206   77.6486  220.2896 H   0  0  0  0  0  0  0  0  0  0  0  0
  143.5908   76.6455  220.7909 H   0  0  0  0  0  0  0  0  0  0  0  0
  144.2570   76.3869  218.5281 H   0  0  0  0  0  0  0  0  0  0  0  0
  143.5780   78.5000  218.5490 H   0  0  0  0  0  0  0  0  0  0  0  0
  141.2851   75.9582  217.8114 H   0  0  0  0  0  0  0  0  0  0  0  0
  142.6211   75.1010  217.1307 H   0  0  0  0  0  0  0  0  0  0  0  0
  141.5404   73.7491  219.1631 H   0  0  0  0  0  0  0  0  0  0  0  0
  144.1275   73.6835  217.4855 H   0  0  0  0  0  0  0  0  0  0  0  0
  146.3339   72.7418  218.0497 H   0  0  0  0  0  0  0  0  0  0  0  0
  147.0371   72.5487  220.4452 H   0  0  0  0  0  0  0  0  0  0  0  0
  145.4645   73.3255  222.2018 H   0  0  0  0  0  0  0  0  0  0  0  0
  143.2796   74.2590  221.6275 H   0  0  0  0  0  0  0  0  0  0  0  0
  139.2188   69.4969  222.2713 H   0  0  0  0  0  0  0  0  0  0  0  0
  139.1796   68.1160  224.3409 H   0  0  0  0  0  0  0  0  0  0  0  0
  139.5834   67.8745  226.7717 H   0  0  0  0  0  0  0  0  0  0  0  0
  141.0979   71.3182  228.8737 H   0  0  0  0  0  0  0  0  0  0  0  0
  141.1120   72.6504  226.7753 H   0  0  0  0  0  0  0  0  0  0  0  0
  1  2  2  0
  2  3  1  0
  3  4  1  0
  4  5  1  0
  5  6  2  0
  5  7  1  0
  7  8  1  0
  8  9  1  0
  9 10  1  0
  9 11  1  0
 11 12  1  0
 12 13  1  0
 13 14  2  0
 14 15  1  0
 15 16  2  0
 16 17  1  0
 17 18  2  0
  2 19  1  0
 19 20  2  0
 20 21  1  0
 21 22  2  0
 22 23  1  0
 23 24  2  0
 24 25  1  0
 24 26  1  0
 26 27  2  0
 27 28  1  0
 28 29  2  0
 12  7  1  0
 18 13  1  0
 29 19  1  0
 28 22  1  0
  3 30  1  0
  4 31  1  0
  4 32  1  0
  8 33  1  0
  8 34  1  0
  9 35  1  1
 10 36  1  0
 11 37  1  0
 11 38  1  0
 12 39  1  6
 14 40  1  0
 15 41  1  0
 16 42  1  0
 17 43  1  0
 18 44  1  0
 20 45  1  0
 21 46  1  0
 23 47  1  0
 26 48  1  0
 27 49  1  0
M  END
>  <smiles>  (10) 
O=C(NCC(=O)N1C[C@H](O)C[C@H]1c1ccccc1)c1ccc2cc(F)ccc2n1

>  <score_type>  (10) 
oracle

>  <origin>  (10) 
autodockgpu

>  <m_score__min__energy>  (10) 
-8.6600000000000001

>  <m_primary>  (10) 
energy

>  <rmsd>  (10) 
2.2874970011038984

>  <m_score__min__rmsd>  (10) 
2.2874970011038984

>  <meeko>  (10) 
{"free_energy": -8.06, "intermolecular_energy": -9.85, "internal_energy": -1.61, "cluster_size": 10, "cluster_id": 2, "rank_in_cluster": 10}

>  <energy>  (10) 
-8.6

>  <cluster_rmsd>  (10) 
1.4

>  <cluster>  (10) 
1

$$$$

     RDKit          3D

 49 52  0  0  0  0  0  0  0  0999 V2000
  141.0740   73.1540  222.0250 O   0  0  0  0  0  0  0  0  0  0  0  0
  139.9870   72.8350  222.6130 C   0  0  0  0  0  0  0  0  0  0  0  0
  138.7860   73.5220  222.3450 N   0  0  0  0  0  0  0  0  0  0  0  0
  138.6960   74.6190  221.4020 C   0  0  0  0  0  0  0  0  0  0  0  0
  138.7850   75.9350  222.0750 C   0  0  0  0  0  0  0  0  0  0  0  0
  138.0900   76.2640  223.0690 O   0  0  0  0  0  0  0  0  0  0  0  0
  139.7110   76.8840  221.5670 N   0  0  0  0  0  0  0  0  0  0  0  0
  139.4990   77.8190  220.4510 C   0  0  0  0  0  0  0  0  0  0  0  0
  140.8800   78.1550  219.9230 C   0  0  2  0  0  0  0  0  0  0  0  0
  140.9370   77.9630  218.5470 O   0  0  0  0  0  0  0  0  0  0  0  0
  141.7700   77.1690  220.6660 C   0  0  0  0  0  0  0  0  0  0  0  0
  141.0710   77.1700  222.0070 C   0  0  1  0  0  0  0  0  0  0  0  0
  141.1930   78.4890  222.6200 C   0  0  0  0  0  0  0  0  0  0  0  0
  140.1840   79.2110  223.2070 C   0  0  0  0  0  0  0  0  0  0  0  0
  140.3800   80.4630  223.7740 C   0  0  0  0  0  0  0  0  0  0  0  0
  141.6400   81.0360  223.7640 C   0  0  0  0  0  0  0  0  0  0  0  0
  142.6610   80.3230  223.1770 C   0  0  0  0  0  0  0  0  0  0  0  0
  142.4520   79.0860  222.6210 C   0  0  0  0  0  0  0  0  0  0  0  0
  139.9790   71.7320  223.5870 C   0  0  0  0  0  0  0  0  0  0  0  0
  139.4390   70.5020  223.2600 C   0  0  0  0  0  0  0  0  0  0  0  0
  139.4510   69.4830  224.2130 C   0  0  0  0  0  0  0  0  0  0  0  0
  139.9900   69.6700  225.4750 C   0  0  0  0  0  0  0  0  0  0  0  0
  140.0100   68.6680  226.4300 C   0  0  0  0  0  0  0  0  0  0  0  0
  140.5750   68.9580  227.6710 C   0  0  0  0  0  0  0  0  0  0  0  0
  140.6040   67.9850  228.6220 F   0  0  0  0  0  0  0  0  0  0  0  0
  141.0950   70.2170  227.9140 C   0  0  0  0  0  0  0  0  0  0  0  0
  141.0760   71.2180  226.9620 C   0  0  0  0  0  0  0  0  0  0  0  0
  140.5130   70.9180  225.7390 C   0  0  0  0  0  0  0  0  0  0  0  0
  140.4990   71.9000  224.8140 N   0  0  0  0  0  0  0  0  0  0  0  0
  137.9220   73.2160  222.8570 H   0  0  0  0  0  0  0  0  0  0  0  0
  139.5195   74.5337  220.6777 H   0  0  0  0  0  0  0  0  0  0  0  0
  137.7187   74.5581  220.9007 H   0  0  0  0  0  0  0  0  0  0  0  0
  138.8934   77.3451  219.6645 H   0  0  0  0  0  0  0  0  0  0  0  0
  138.9603   78.7212  220.7765 H   0  0  0  0  0  0  0  0  0  0  0  0
  141.1763   79.2023  220.0822 H   0  0  0  0  0  0  0  0  0  0  0  0
  140.5400   77.0470  218.3950 H   0  0  0  0  0  0  0  0  0  0  0  0
  141.7605   76.1735  220.1982 H   0  0  0  0  0  0  0  0  0  0  0  0
  142.8386   77.4287  220.6930 H   0  0  0  0  0  0  0  0  0  0  0  0
  141.4534   76.4718  222.7662 H   0  0  0  0  0  0  0  0  0  0  0  0
  139.1733   78.7775  223.2292 H   0  0  0  0  0  0  0  0  0  0  0  0
  139.5350   80.9990  224.2307 H   0  0  0  0  0  0  0  0  0  0  0  0
  141.8191   82.0258  224.2092 H   0  0  0  0  0  0  0  0  0  0  0  0
  143.6716   80.7566  223.1530 H   0  0  0  0  0  0  0  0  0  0  0  0
  143.2991   78.5527  222.1649 H   0  0  0  0  0  0  0  0  0  0  0  0
  139.0064   70.3293  222.2635 H   0  0  0  0  0  0  0  0  0  0  0  0
  139.0205   68.5042  223.9549 H   0  0  0  0  0  0  0  0  0  0  0  0
  139.5926   67.6730  226.2161 H   0  0  0  0  0  0  0  0  0  0  0  0
  141.5384   70.4280  228.8983 H   0  0  0  0  0  0  0  0  0  0  0  0
  141.4931   72.2142  227.1709 H   0  0  0  0  0  0  0  0  0  0  0  0
  1  2  2  0
  2  3  1  0
  3  4  1  0
  4  5  1  0
  5  6  2  0
  5  7  1  0
  7  8  1  0
  8  9  1  0
  9 10  1  0
  9 11  1  0
 11 12  1  0
 12 13  1  0
 13 14  2  0
 14 15  1  0
 15 16  2  0
 16 17  1  0
 17 18  2  0
  2 19  1  0
 19 20  2  0
 20 21  1  0
 21 22  2  0
 22 23  1  0
 23 24  2  0
 24 25  1  0
 24 26  1  0
 26 27  2  0
 27 28  1  0
 28 29  2  0
 12  7  1  0
 18 13  1  0
 29 19  1  0
 28 22  1  0
  3 30  1  0
  4 31  1  0
  4 32  1  0
  8 33  1  0
  8 34  1  0
  9 35  1  6
 10 36  1  0
 11 37  1  0
 11 38  1  0
 12 39  1  1
 14 40  1  0
 15 41  1  0
 16 42  1  0
 17 43  1  0
 18 44  1  0
 20 45  1  0
 21 46  1  0
 23 47  1  0
 26 48  1  0
 27 49  1  0
M  END
>  <smiles>  (11) 
O=C(NCC(=O)N1C[C@H](O)C[C@H]1c1ccccc1)c1ccc2cc(F)ccc2n1

>  <score_type>  (11) 
oracle

>  <origin>  (11) 
autodockgpu

>  <m_score__min__energy>  (11) 
-8.6600000000000001

>  <m_primary>  (11) 
energy

>  <rmsd>  (11) 
2.1276671016008812

>  <m_score__min__rmsd>  (11) 
2.1276671016008812

>  <meeko>  (11) 
{"free_energy": -8.43, "intermolecular_energy": -10.22, "internal_energy": -1.26, "cluster_size": 37, "cluster_id": 1, "rank_in_cluster": 27}

>  <energy>  (11) 
-8.6

>  <cluster_rmsd>  (11) 
1.54

>  <cluster>  (11) 
1

$$$$

     RDKit          3D

 49 52  0  0  0  0  0  0  0  0999 V2000
  141.2950   72.4640  221.7020 O   0  0  0  0  0  0  0  0  0  0  0  0
  140.3050   72.5460  222.5040 C   0  0  0  0  0  0  0  0  0  0  0  0
  139.3300   73.5520  222.3530 N   0  0  0  0  0  0  0  0  0  0  0  0
  139.3740   74.5460  221.3000 C   0  0  0  0  0  0  0  0  0  0  0  0
  140.4180   75.5680  221.5470 C   0  0  0  0  0  0  0  0  0  0  0  0
  141.6430   75.3070  221.6530 O   0  0  0  0  0  0  0  0  0  0  0  0
  140.0110   76.9220  221.6730 N   0  0  0  0  0  0  0  0  0  0  0  0
  138.8830   77.4390  222.4640 C   0  0  0  0  0  0  0  0  0  0  0  0
  138.5010   78.7610  221.8270 C   0  0  2  0  0  0  0  0  0  0  0  0
  137.1370   78.7970  221.5580 O   0  0  0  0  0  0  0  0  0  0  0  0
  139.3270   78.7660  220.5490 C   0  0  0  0  0  0  0  0  0  0  0  0
  140.5890   78.1160  221.0690 C   0  0  1  0  0  0  0  0  0  0  0  0
  141.2170   78.9910  222.0550 C   0  0  0  0  0  0  0  0  0  0  0  0
  141.6010   78.6420  223.3260 C   0  0  0  0  0  0  0  0  0  0  0  0
  142.1980   79.5340  224.2080 C   0  0  0  0  0  0  0  0  0  0  0  0
  142.4310   80.8410  223.8170 C   0  0  0  0  0  0  0  0  0  0  0  0
  142.0500   81.2040  222.5440 C   0  0  0  0  0  0  0  0  0  0  0  0
  141.4610   80.3110  221.6830 C   0  0  0  0  0  0  0  0  0  0  0  0
  140.1740   71.5800  223.6050 C   0  0  0  0  0  0  0  0  0  0  0  0
  139.5600   70.3570  223.4050 C   0  0  0  0  0  0  0  0  0  0  0  0
  139.4560   69.4690  224.4760 C   0  0  0  0  0  0  0  0  0  0  0  0
  139.9510   69.7780  225.7320 C   0  0  0  0  0  0  0  0  0  0  0  0
  139.8550   68.9070  226.8030 C   0  0  0  0  0  0  0  0  0  0  0  0
  140.3850   69.3140  228.0270 C   0  0  0  0  0  0  0  0  0  0  0  0
  140.3000   68.4710  229.0920 F   0  0  0  0  0  0  0  0  0  0  0  0
  140.9840   70.5560  228.1400 C   0  0  0  0  0  0  0  0  0  0  0  0
  141.0800   71.4270  227.0710 C   0  0  0  0  0  0  0  0  0  0  0  0
  140.5520   71.0120  225.8670 C   0  0  0  0  0  0  0  0  0  0  0  0
  140.6500   71.8680  224.8280 N   0  0  0  0  0  0  0  0  0  0  0  0
  138.5370   73.5720  223.0420 H   0  0  0  0  0  0  0  0  0  0  0  0
  139.5876   74.0432  220.3453 H   0  0  0  0  0  0  0  0  0  0  0  0
  138.3993   75.0550  221.2713 H   0  0  0  0  0  0  0  0  0  0  0  0
  138.0364   76.7376  222.4272 H   0  0  0  0  0  0  0  0  0  0  0  0
  139.1553   77.5641  223.5224 H   0  0  0  0  0  0  0  0  0  0  0  0
  138.6943   79.6366  222.4641 H   0  0  0  0  0  0  0  0  0  0  0  0
  137.0700   79.0520  220.5830 H   0  0  0  0  0  0  0  0  0  0  0  0
  138.8560   78.1705  219.7530 H   0  0  0  0  0  0  0  0  0  0  0  0
  139.4649   79.7528  220.0830 H   0  0  0  0  0  0  0  0  0  0  0  0
  141.3798   77.9087  220.3330 H   0  0  0  0  0  0  0  0  0  0  0  0
  141.4281   77.6088  223.6614 H   0  0  0  0  0  0  0  0  0  0  0  0
  142.4853   79.2017  225.2165 H   0  0  0  0  0  0  0  0  0  0  0  0
  142.9034   81.5639  224.4983 H   0  0  0  0  0  0  0  0  0  0  0  0
  142.2222   82.2372  222.2080 H   0  0  0  0  0  0  0  0  0  0  0  0
  141.1749   80.6462  220.6751 H   0  0  0  0  0  0  0  0  0  0  0  0
  139.1596   70.0884  222.4163 H   0  0  0  0  0  0  0  0  0  0  0  0
  138.9672   68.4963  224.3184 H   0  0  0  0  0  0  0  0  0  0  0  0
  139.3752   67.9234  226.6922 H   0  0  0  0  0  0  0  0  0  0  0  0
  141.3975   70.8604  229.1128 H   0  0  0  0  0  0  0  0  0  0  0  0
  141.5585   72.4118  227.1767 H   0  0  0  0  0  0  0  0  0  0  0  0
  1  2  2  0
  2  3  1  0
  3  4  1  0
  4  5  1  0
  5  6  2  0
  5  7  1  0
  7  8  1  0
  8  9  1  0
  9 10  1  0
  9 11  1  0
 11 12  1  0
 12 13  1  0
 13 14  2  0
 14 15  1  0
 15 16  2  0
 16 17  1  0
 17 18  2  0
  2 19  1  0
 19 20  2  0
 20 21  1  0
 21 22  2  0
 22 23  1  0
 23 24  2  0
 24 25  1  0
 24 26  1  0
 26 27  2  0
 27 28  1  0
 28 29  2  0
 12  7  1  0
 18 13  1  0
 29 19  1  0
 28 22  1  0
  3 30  1  0
  4 31  1  0
  4 32  1  0
  8 33  1  0
  8 34  1  0
  9 35  1  1
 10 36  1  0
 11 37  1  0
 11 38  1  0
 12 39  1  6
 14 40  1  0
 15 41  1  0
 16 42  1  0
 17 43  1  0
 18 44  1  0
 20 45  1  0
 21 46  1  0
 23 47  1  0
 26 48  1  0
 27 49  1  0
M  END
>  <smiles>  (12) 
O=C(NCC(=O)N1C[C@H](O)C[C@H]1c1ccccc1)c1ccc2cc(F)ccc2n1

>  <score_type>  (12) 
oracle

>  <origin>  (12) 
autodockgpu

>  <m_score__min__energy>  (12) 
-8.6600000000000001

>  <m_primary>  (12) 
energy

>  <rmsd>  (12) 
2.5269713566206917

>  <m_score__min__rmsd>  (12) 
2.5269713566206917

>  <meeko>  (12) 
{"free_energy": -8.64, "intermolecular_energy": -10.43, "internal_energy": -1.1, "cluster_size": 37, "cluster_id": 1, "rank_in_cluster": 3}

>  <energy>  (12) 
-8.6

>  <cluster_rmsd>  (12) 
0.57

>  <cluster>  (12) 
1

$$$$

     RDKit          3D

 49 52  0  0  0  0  0  0  0  0999 V2000
  141.2380   72.3200  221.5820 O   0  0  0  0  0  0  0  0  0  0  0  0
  140.2960   72.4630  222.4320 C   0  0  0  0  0  0  0  0  0  0  0  0
  139.3650   73.5150  222.3140 N   0  0  0  0  0  0  0  0  0  0  0  0
  139.4050   74.4910  221.2440 C   0  0  0  0  0  0  0  0  0  0  0  0
  140.5850   75.3790  221.3490 C   0  0  0  0  0  0  0  0  0  0  0  0
  141.7560   74.9690  221.5550 O   0  0  0  0  0  0  0  0  0  0  0  0
  140.3840   76.7780  221.2110 N   0  0  0  0  0  0  0  0  0  0  0  0
  139.1390   77.5220  221.4550 C   0  0  0  0  0  0  0  0  0  0  0  0
  139.2440   78.7900  220.6300 C   0  0  2  0  0  0  0  0  0  0  0  0
  138.1090   78.9550  219.8430 O   0  0  0  0  0  0  0  0  0  0  0  0
  140.4820   78.5340  219.7820 C   0  0  0  0  0  0  0  0  0  0  0  0
  141.3310   77.8080  220.8020 C   0  0  1  0  0  0  0  0  0  0  0  0
  141.6700   78.7180  221.8910 C   0  0  0  0  0  0  0  0  0  0  0  0
  141.5310   78.4680  223.2340 C   0  0  0  0  0  0  0  0  0  0  0  0
  141.8800   79.3870  224.2150 C   0  0  0  0  0  0  0  0  0  0  0  0
  142.3940   80.6200  223.8550 C   0  0  0  0  0  0  0  0  0  0  0  0
  142.5380   80.8840  222.5110 C   0  0  0  0  0  0  0  0  0  0  0  0
  142.1890   79.9650  221.5520 C   0  0  0  0  0  0  0  0  0  0  0  0
  140.1720   71.5200  223.5530 C   0  0  0  0  0  0  0  0  0  0  0  0
  139.5730   70.2860  223.3790 C   0  0  0  0  0  0  0  0  0  0  0  0
  139.4760   69.4210  224.4700 C   0  0  0  0  0  0  0  0  0  0  0  0
  139.9640   69.7630  225.7190 C   0  0  0  0  0  0  0  0  0  0  0  0
  139.8760   68.9150  226.8090 C   0  0  0  0  0  0  0  0  0  0  0  0
  140.3990   69.3550  228.0250 C   0  0  0  0  0  0  0  0  0  0  0  0
  140.3210   68.5340  229.1080 F   0  0  0  0  0  0  0  0  0  0  0  0
  140.9830   70.6050  228.1120 C   0  0  0  0  0  0  0  0  0  0  0  0
  141.0730   71.4540  227.0240 C   0  0  0  0  0  0  0  0  0  0  0  0
  140.5510   71.0070  225.8280 C   0  0  0  0  0  0  0  0  0  0  0  0
  140.6430   71.8400  224.7710 N   0  0  0  0  0  0  0  0  0  0  0  0
  138.6100   73.5840  223.0410 H   0  0  0  0  0  0  0  0  0  0  0  0
  139.4436   73.9611  220.2808 H   0  0  0  0  0  0  0  0  0  0  0  0
  138.5020   75.1147  221.3183 H   0  0  0  0  0  0  0  0  0  0  0  0
  138.2697   76.9285  221.1354 H   0  0  0  0  0  0  0  0  0  0  0  0
  139.0050   77.7455  222.5237 H   0  0  0  0  0  0  0  0  0  0  0  0
  139.3186   79.7087  221.2304 H   0  0  0  0  0  0  0  0  0  0  0  0
  138.2820   78.4030  219.0160 H   0  0  0  0  0  0  0  0  0  0  0  0
  140.2591   77.9033  218.9088 H   0  0  0  0  0  0  0  0  0  0  0  0
  140.9421   79.4297  219.3392 H   0  0  0  0  0  0  0  0  0  0  0  0
  142.2978   77.4157  220.4536 H   0  0  0  0  0  0  0  0  0  0  0  0
  141.1245   77.4951  223.5473 H   0  0  0  0  0  0  0  0  0  0  0  0
  141.7479   79.1347  225.2775 H   0  0  0  0  0  0  0  0  0  0  0  0
  142.6775   81.3629  224.6151 H   0  0  0  0  0  0  0  0  0  0  0  0
  142.9435   81.8572  222.1972 H   0  0  0  0  0  0  0  0  0  0  0  0
  142.3227   80.2201  220.4904 H   0  0  0  0  0  0  0  0  0  0  0  0
  139.1788   69.9905  222.3955 H   0  0  0  0  0  0  0  0  0  0  0  0
  138.9982   68.4397  224.3332 H   0  0  0  0  0  0  0  0  0  0  0  0
  139.4077   67.9237  226.7192 H   0  0  0  0  0  0  0  0  0  0  0  0
  141.3898   70.9355  229.0791 H   0  0  0  0  0  0  0  0  0  0  0  0
  141.5418   72.4455  227.1089 H   0  0  0  0  0  0  0  0  0  0  0  0
  1  2  2  0
  2  3  1  0
  3  4  1  0
  4  5  1  0
  5  6  2  0
  5  7  1  0
  7  8  1  0
  8  9  1  0
  9 10  1  0
  9 11  1  0
 11 12  1  0
 12 13  1  0
 13 14  2  0
 14 15  1  0
 15 16  2  0
 16 17  1  0
 17 18  2  0
  2 19  1  0
 19 20  2  0
 20 21  1  0
 21 22  2  0
 22 23  1  0
 23 24  2  0
 24 25  1  0
 24 26  1  0
 26 27  2  0
 27 28  1  0
 28 29  2  0
 12  7  1  0
 18 13  1  0
 29 19  1  0
 28 22  1  0
  3 30  1  0
  4 31  1  0
  4 32  1  0
  8 33  1  0
  8 34  1  0
  9 35  1  1
 10 36  1  0
 11 37  1  0
 11 38  1  0
 12 39  1  6
 14 40  1  0
 15 41  1  0
 16 42  1  0
 17 43  1  0
 18 44  1  0
 20 45  1  0
 21 46  1  0
 23 47  1  0
 26 48  1  0
 27 49  1  0
M  END
>  <smiles>  (13) 
O=C(NCC(=O)N1C[C@H](O)C[C@H]1c1ccccc1)c1ccc2cc(F)ccc2n1

>  <score_type>  (13) 
oracle

>  <origin>  (13) 
autodockgpu

>  <m_score__min__energy>  (13) 
-8.6600000000000001

>  <m_primary>  (13) 
energy

>  <rmsd>  (13) 
2.11621791983374

>  <m_score__min__rmsd>  (13) 
2.11621791983374

>  <meeko>  (13) 
{"free_energy": -8.62, "intermolecular_energy": -10.41, "internal_energy": -1.1, "cluster_size": 37, "cluster_id": 1, "rank_in_cluster": 7}

>  <energy>  (13) 
-8.6

>  <cluster_rmsd>  (13) 
0.19

>  <cluster>  (13) 
1

$$$$

     RDKit          3D

 49 52  0  0  0  0  0  0  0  0999 V2000
  141.2870   72.2700  221.5330 O   0  0  0  0  0  0  0  0  0  0  0  0
  140.3930   72.5020  222.4150 C   0  0  0  0  0  0  0  0  0  0  0  0
  139.5710   73.6440  222.3340 N   0  0  0  0  0  0  0  0  0  0  0  0
  139.6760   74.6200  221.2690 C   0  0  0  0  0  0  0  0  0  0  0  0
  139.2470   75.9680  221.7090 C   0  0  0  0  0  0  0  0  0  0  0  0
  138.2590   76.1800  222.4570 O   0  0  0  0  0  0  0  0  0  0  0  0
  139.9950   77.0880  221.2600 N   0  0  0  0  0  0  0  0  0  0  0  0
  139.5590   78.1200  220.3070 C   0  0  0  0  0  0  0  0  0  0  0  0
  140.8280   78.7010  219.7140 C   0  0  2  0  0  0  0  0  0  0  0  0
  140.7670   78.6930  218.3250 O   0  0  0  0  0  0  0  0  0  0  0  0
  141.9020   77.7560  220.2350 C   0  0  0  0  0  0  0  0  0  0  0  0
  141.3490   77.4940  221.6180 C   0  0  1  0  0  0  0  0  0  0  0  0
  141.3730   78.7290  222.3950 C   0  0  0  0  0  0  0  0  0  0  0  0
  140.3300   79.2630  223.1100 C   0  0  0  0  0  0  0  0  0  0  0  0
  140.4320   80.4460  223.8300 C   0  0  0  0  0  0  0  0  0  0  0  0
  141.6280   81.1420  223.8480 C   0  0  0  0  0  0  0  0  0  0  0  0
  142.6830   80.6180  223.1340 C   0  0  0  0  0  0  0  0  0  0  0  0
  142.5670   79.4470  222.4270 C   0  0  0  0  0  0  0  0  0  0  0  0
  140.2110   71.5660  223.5340 C   0  0  0  0  0  0  0  0  0  0  0  0
  139.5660   70.3570  223.3500 C   0  0  0  0  0  0  0  0  0  0  0  0
  139.4130   69.4980  224.4390 C   0  0  0  0  0  0  0  0  0  0  0  0
  139.8920   69.8230  225.6970 C   0  0  0  0  0  0  0  0  0  0  0  0
  139.7490   68.9800  226.7870 C   0  0  0  0  0  0  0  0  0  0  0  0
  140.2670   69.4000  228.0110 C   0  0  0  0  0  0  0  0  0  0  0  0
  140.1360   68.5850  229.0930 F   0  0  0  0  0  0  0  0  0  0  0  0
  140.9000   70.6270  228.1080 C   0  0  0  0  0  0  0  0  0  0  0  0
  141.0440   71.4690  227.0210 C   0  0  0  0  0  0  0  0  0  0  0  0
  140.5270   71.0410  225.8160 C   0  0  0  0  0  0  0  0  0  0  0  0
  140.6710   71.8690  224.7600 N   0  0  0  0  0  0  0  0  0  0  0  0
  138.8530   73.7840  223.0870 H   0  0  0  0  0  0  0  0  0  0  0  0
  140.7231   74.6714  220.9360 H   0  0  0  0  0  0  0  0  0  0  0  0
  139.0138   74.3026  220.4500 H   0  0  0  0  0  0  0  0  0  0  0  0
  138.9373   77.6733  219.5172 H   0  0  0  0  0  0  0  0  0  0  0  0
  138.9522   78.8941  220.7996 H   0  0  0  0  0  0  0  0  0  0  0  0
  141.0101   79.7501  219.9902 H   0  0  0  0  0  0  0  0  0  0  0  0
  139.8000   78.8860  218.1060 H   0  0  0  0  0  0  0  0  0  0  0  0
  141.9649   76.8353  219.6363 H   0  0  0  0  0  0  0  0  0  0  0  0
  142.9285   78.1503  220.2066 H   0  0  0  0  0  0  0  0  0  0  0  0
  141.8884   76.7624  222.2375 H   0  0  0  0  0  0  0  0  0  0  0  0
  139.3684   78.7288  223.1127 H   0  0  0  0  0  0  0  0  0  0  0  0
  139.5633   80.8294  224.3853 H   0  0  0  0  0  0  0  0  0  0  0  0
  141.7325   82.0803  224.4125 H   0  0  0  0  0  0  0  0  0  0  0  0
  143.6445   81.1523  223.1302 H   0  0  0  0  0  0  0  0  0  0  0  0
  143.4374   79.0663  221.8724 H   0  0  0  0  0  0  0  0  0  0  0  0
  139.1790   70.0763  222.3593 H   0  0  0  0  0  0  0  0  0  0  0  0
  138.8980   68.5368  224.2943 H   0  0  0  0  0  0  0  0  0  0  0  0
  139.2420   68.0087  226.6895 H   0  0  0  0  0  0  0  0  0  0  0  0
  141.3018   70.9426  229.0821 H   0  0  0  0  0  0  0  0  0  0  0  0
  141.5505   72.4411  227.1134 H   0  0  0  0  0  0  0  0  0  0  0  0
  1  2  2  0
  2  3  1  0
  3  4  1  0
  4  5  1  0
  5  6  2  0
  5  7  1  0
  7  8  1  0
  8  9  1  0
  9 10  1  0
  9 11  1  0
 11 12  1  0
 12 13  1  0
 13 14  2  0
 14 15  1  0
 15 16  2  0
 16 17  1  0
 17 18  2  0
  2 19  1  0
 19 20  2  0
 20 21  1  0
 21 22  2  0
 22 23  1  0
 23 24  2  0
 24 25  1  0
 24 26  1  0
 26 27  2  0
 27 28  1  0
 28 29  2  0
 12  7  1  0
 18 13  1  0
 29 19  1  0
 28 22  1  0
  3 30  1  0
  4 31  1  0
  4 32  1  0
  8 33  1  0
  8 34  1  0
  9 35  1  1
 10 36  1  0
 11 37  1  0
 11 38  1  0
 12 39  1  1
 14 40  1  0
 15 41  1  0
 16 42  1  0
 17 43  1  0
 18 44  1  0
 20 45  1  0
 21 46  1  0
 23 47  1  0
 26 48  1  0
 27 49  1  0
M  END
>  <smiles>  (14) 
O=C(NCC(=O)N1C[C@H](O)C[C@H]1c1ccccc1)c1ccc2cc(F)ccc2n1

>  <score_type>  (14) 
oracle

>  <origin>  (14) 
autodockgpu

>  <m_score__min__energy>  (14) 
-8.6600000000000001

>  <m_primary>  (14) 
energy

>  <rmsd>  (14) 
2.1575732347424066

>  <m_score__min__rmsd>  (14) 
2.1575732347424066

>  <meeko>  (14) 
{"free_energy": -8.58, "intermolecular_energy": -10.37, "internal_energy": -1.32, "cluster_size": 37, "cluster_id": 1, "rank_in_cluster": 15}

>  <energy>  (14) 
-8.6

>  <cluster_rmsd>  (14) 
1.4

>  <cluster>  (14) 
1

$$$$

     RDKit          3D

 49 52  0  0  0  0  0  0  0  0999 V2000
  141.2010   72.1510  221.3750 O   0  0  0  0  0  0  0  0  0  0  0  0
  140.3830   72.4500  222.3080 C   0  0  0  0  0  0  0  0  0  0  0  0
  139.6260   73.6390  222.2580 N   0  0  0  0  0  0  0  0  0  0  0  0
  139.7180   74.5890  221.1690 C   0  0  0  0  0  0  0  0  0  0  0  0
  140.8380   75.5410  221.3570 C   0  0  0  0  0  0  0  0  0  0  0  0
  140.9610   76.2890  222.3590 O   0  0  0  0  0  0  0  0  0  0  0  0
  141.8310   75.6130  220.3450 N   0  0  0  0  0  0  0  0  0  0  0  0
  142.7630   76.7240  220.0950 C   0  0  0  0  0  0  0  0  0  0  0  0
  143.1650   76.6090  218.6380 C   0  0  2  0  0  0  0  0  0  0  0  0
  142.9850   77.8230  217.9850 O   0  0  0  0  0  0  0  0  0  0  0  0
  142.2160   75.5410  218.1130 C   0  0  0  0  0  0  0  0  0  0  0  0
  142.1750   74.6330  219.3220 C   0  0  1  0  0  0  0  0  0  0  0  0
  143.4940   74.0450  219.5340 C   0  0  0  0  0  0  0  0  0  0  0  0
  144.3490   73.5880  218.5620 C   0  0  0  0  0  0  0  0  0  0  0  0
  145.5940   73.0420  218.8440 C   0  0  0  0  0  0  0  0  0  0  0  0
  146.0220   72.9400  220.1560 C   0  0  0  0  0  0  0  0  0  0  0  0
  145.1740   73.3940  221.1420 C   0  0  0  0  0  0  0  0  0  0  0  0
  143.9460   73.9320  220.8470 C   0  0  0  0  0  0  0  0  0  0  0  0
  140.2200   71.5460  223.4560 C   0  0  0  0  0  0  0  0  0  0  0  0
  139.6030   70.3180  223.3090 C   0  0  0  0  0  0  0  0  0  0  0  0
  139.4680   69.4900  224.4240 C   0  0  0  0  0  0  0  0  0  0  0  0
  139.9370   69.8630  225.6720 C   0  0  0  0  0  0  0  0  0  0  0  0
  139.8120   69.0520  226.7860 C   0  0  0  0  0  0  0  0  0  0  0  0
  140.3170   69.5220  227.9980 C   0  0  0  0  0  0  0  0  0  0  0  0
  140.2030   68.7380  229.1040 F   0  0  0  0  0  0  0  0  0  0  0  0
  140.9220   70.7640  228.0570 C   0  0  0  0  0  0  0  0  0  0  0  0
  141.0480   71.5760  226.9450 C   0  0  0  0  0  0  0  0  0  0  0  0
  140.5440   71.1000  225.7530 C   0  0  0  0  0  0  0  0  0  0  0  0
  140.6710   71.8970  224.6730 N   0  0  0  0  0  0  0  0  0  0  0  0
  138.9680   73.8330  223.0520 H   0  0  0  0  0  0  0  0  0  0  0  0
  139.8736   74.0385  220.2295 H   0  0  0  0  0  0  0  0  0  0  0  0
  138.7820   75.1662  221.1412 H   0  0  0  0  0  0  0  0  0  0  0  0
  142.2673   77.6883  220.2802 H   0  0  0  0  0  0  0  0  0  0  0  0
  143.6376   76.6751  220.7604 H   0  0  0  0  0  0  0  0  0  0  0  0
  144.2236   76.3517  218.4856 H   0  0  0  0  0  0  0  0  0  0  0  0
  143.5160   78.4910  218.5240 H   0  0  0  0  0  0  0  0  0  0  0  0
  141.2244   75.9534  217.8749 H   0  0  0  0  0  0  0  0  0  0  0  0
  142.5249   75.0589  217.1738 H   0  0  0  0  0  0  0  0  0  0  0  0
  141.4890   73.7744  219.2750 H   0  0  0  0  0  0  0  0  0  0  0  0
  144.0329   73.6577  217.5107 H   0  0  0  0  0  0  0  0  0  0  0  0
  146.2394   72.6909  218.0254 H   0  0  0  0  0  0  0  0  0  0  0  0
  147.0046   72.5116  220.4028 H   0  0  0  0  0  0  0  0  0  0  0  0
  145.4891   73.3236  222.1935 H   0  0  0  0  0  0  0  0  0  0  0  0
  143.3029   74.2826  221.6677 H   0  0  0  0  0  0  0  0  0  0  0  0
  139.2238   69.9980  222.3272 H   0  0  0  0  0  0  0  0  0  0  0  0
  138.9751   68.5135  224.3081 H   0  0  0  0  0  0  0  0  0  0  0  0
  139.3288   68.0662  226.7177 H   0  0  0  0  0  0  0  0  0  0  0  0
  141.3163   71.1179  229.0210 H   0  0  0  0  0  0  0  0  0  0  0  0
  141.5310   72.5622  227.0087 H   0  0  0  0  0  0  0  0  0  0  0  0
  1  2  2  0
  2  3  1  0
  3  4  1  0
  4  5  1  0
  5  6  2  0
  5  7  1  0
  7  8  1  0
  8  9  1  0
  9 10  1  0
  9 11  1  0
 11 12  1  0
 12 13  1  0
 13 14  2  0
 14 15  1  0
 15 16  2  0
 16 17  1  0
 17 18  2  0
  2 19  1  0
 19 20  2  0
 20 21  1  0
 21 22  2  0
 22 23  1  0
 23 24  2  0
 24 25  1  0
 24 26  1  0
 26 27  2  0
 27 28  1  0
 28 29  2  0
 12  7  1  0
 18 13  1  0
 29 19  1  0
 28 22  1  0
  3 30  1  0
  4 31  1  0
  4 32  1  0
  8 33  1  0
  8 34  1  0
  9 35  1  1
 10 36  1  0
 11 37  1  0
 11 38  1  0
 12 39  1  6
 14 40  1  0
 15 41  1  0
 16 42  1  0
 17 43  1  0
 18 44  1  0
 20 45  1  0
 21 46  1  0
 23 47  1  0
 26 48  1  0
 27 49  1  0
M  END
>  <smiles>  (15) 
O=C(NCC(=O)N1C[C@H](O)C[C@H]1c1ccccc1)c1ccc2cc(F)ccc2n1

>  <score_type>  (15) 
oracle

>  <origin>  (15) 
autodockgpu

>  <m_score__min__energy>  (15) 
-8.6600000000000001

>  <m_primary>  (15) 
energy

>  <rmsd>  (15) 
2.3591081828507807

>  <m_score__min__rmsd>  (15) 
2.3591081828507807

>  <meeko>  (15) 
{"free_energy": -8.34, "intermolecular_energy": -10.13, "internal_energy": -1.54, "cluster_size": 10, "cluster_id": 2, "rank_in_cluster": 5}

>  <energy>  (15) 
-8.58

>  <cluster_rmsd>  (15) 
1.41

>  <cluster>  (15) 
1

$$$$

     RDKit          3D

 49 52  0  0  0  0  0  0  0  0999 V2000
  141.3070   72.1800  221.4140 O   0  0  0  0  0  0  0  0  0  0  0  0
  140.4000   72.4370  222.2750 C   0  0  0  0  0  0  0  0  0  0  0  0
  139.5680   73.5670  222.1390 N   0  0  0  0  0  0  0  0  0  0  0  0
  139.6750   74.5010  221.0370 C   0  0  0  0  0  0  0  0  0  0  0  0
  140.7450   75.5000  221.2600 C   0  0  0  0  0  0  0  0  0  0  0  0
  140.7960   76.2620  222.2590 O   0  0  0  0  0  0  0  0  0  0  0  0
  141.7750   75.6060  220.2880 N   0  0  0  0  0  0  0  0  0  0  0  0
  142.7020   76.7320  220.0990 C   0  0  0  0  0  0  0  0  0  0  0  0
  143.1610   76.6550  218.6560 C   0  0  2  0  0  0  0  0  0  0  0  0
  142.9910   77.8820  218.0230 O   0  0  0  0  0  0  0  0  0  0  0  0
  142.2450   75.5890  218.0720 C   0  0  0  0  0  0  0  0  0  0  0  0
  142.1700   74.6540  219.2580 C   0  0  1  0  0  0  0  0  0  0  0  0
  143.4860   74.0760  219.5070 C   0  0  0  0  0  0  0  0  0  0  0  0
  144.3710   73.6260  218.5590 C   0  0  0  0  0  0  0  0  0  0  0  0
  145.6120   73.0890  218.8760 C   0  0  0  0  0  0  0  0  0  0  0  0
  146.0040   72.9890  220.1990 C   0  0  0  0  0  0  0  0  0  0  0  0
  145.1250   73.4360  221.1610 C   0  0  0  0  0  0  0  0  0  0  0  0
  143.9020   73.9650  220.8320 C   0  0  0  0  0  0  0  0  0  0  0  0
  140.2140   71.5460  223.4300 C   0  0  0  0  0  0  0  0  0  0  0  0
  139.5740   70.3280  223.2890 C   0  0  0  0  0  0  0  0  0  0  0  0
  139.4180   69.5130  224.4100 C   0  0  0  0  0  0  0  0  0  0  0  0
  139.8870   69.8880  225.6580 C   0  0  0  0  0  0  0  0  0  0  0  0
  139.7400   69.0880  226.7780 C   0  0  0  0  0  0  0  0  0  0  0  0
  140.2480   69.5580  227.9890 C   0  0  0  0  0  0  0  0  0  0  0  0
  140.1130   68.7860  229.1010 F   0  0  0  0  0  0  0  0  0  0  0  0
  140.8770   70.7900  228.0410 C   0  0  0  0  0  0  0  0  0  0  0  0
  141.0240   71.5890  226.9230 C   0  0  0  0  0  0  0  0  0  0  0  0
  140.5170   71.1130  225.7320 C   0  0  0  0  0  0  0  0  0  0  0  0
  140.6650   71.8980  224.6460 N   0  0  0  0  0  0  0  0  0  0  0  0
  138.8390   73.7290  222.8770 H   0  0  0  0  0  0  0  0  0  0  0  0
  139.8979   73.9409  220.1169 H   0  0  0  0  0  0  0  0  0  0  0  0
  138.7193   75.0390  220.9529 H   0  0  0  0  0  0  0  0  0  0  0  0
  142.1880   77.6863  220.2866 H   0  0  0  0  0  0  0  0  0  0  0  0
  143.5510   76.6774  220.7962 H   0  0  0  0  0  0  0  0  0  0  0  0
  144.2277   76.4135  218.5386 H   0  0  0  0  0  0  0  0  0  0  0  0
  143.5460   78.5320  218.5610 H   0  0  0  0  0  0  0  0  0  0  0  0
  141.2581   75.9957  217.8061 H   0  0  0  0  0  0  0  0  0  0  0  0
  142.5941   75.1317  217.1344 H   0  0  0  0  0  0  0  0  0  0  0  0
  141.4972   73.7886  219.1658 H   0  0  0  0  0  0  0  0  0  0  0  0
  144.0840   73.6939  217.4993 H   0  0  0  0  0  0  0  0  0  0  0  0
  146.2828   72.7434  218.0756 H   0  0  0  0  0  0  0  0  0  0  0  0
  146.9825   72.5677  220.4730 H   0  0  0  0  0  0  0  0  0  0  0  0
  145.4109   73.3671  222.2210 H   0  0  0  0  0  0  0  0  0  0  0  0
  143.2335   74.3100  221.6346 H   0  0  0  0  0  0  0  0  0  0  0  0
  139.1939   70.0071  222.3079 H   0  0  0  0  0  0  0  0  0  0  0  0
  138.9079   68.5447  224.2998 H   0  0  0  0  0  0  0  0  0  0  0  0
  139.2379   68.1113  226.7149 H   0  0  0  0  0  0  0  0  0  0  0  0
  141.2729   71.1448  229.0040 H   0  0  0  0  0  0  0  0  0  0  0  0
  141.5257   72.5662  226.9808 H   0  0  0  0  0  0  0  0  0  0  0  0
  1  2  2  0
  2  3  1  0
  3  4  1  0
  4  5  1  0
  5  6  2  0
  5  7  1  0
  7  8  1  0
  8  9  1  0
  9 10  1  0
  9 11  1  0
 11 12  1  0
 12 13  1  0
 13 14  2  0
 14 15  1  0
 15 16  2  0
 16 17  1  0
 17 18  2  0
  2 19  1  0
 19 20  2  0
 20 21  1  0
 21 22  2  0
 22 23  1  0
 23 24  2  0
 24 25  1  0
 24 26  1  0
 26 27  2  0
 27 28  1  0
 28 29  2  0
 12  7  1  0
 18 13  1  0
 29 19  1  0
 28 22  1  0
  3 30  1  0
  4 31  1  0
  4 32  1  0
  8 33  1  0
  8 34  1  0
  9 35  1  1
 10 36  1  0
 11 37  1  0
 11 38  1  0
 12 39  1  6
 14 40  1  0
 15 41  1  0
 16 42  1  0
 17 43  1  0
 18 44  1  0
 20 45  1  0
 21 46  1  0
 23 47  1  0
 26 48  1  0
 27 49  1  0
M  END
>  <smiles>  (16) 
O=C(NCC(=O)N1C[C@H](O)C[C@H]1c1ccccc1)c1ccc2cc(F)ccc2n1

>  <score_type>  (16) 
oracle

>  <origin>  (16) 
autodockgpu

>  <m_score__min__energy>  (16) 
-8.6600000000000001

>  <m_primary>  (16) 
energy

>  <rmsd>  (16) 
2.3438075204656297

>  <m_score__min__rmsd>  (16) 
2.3438075204656297

>  <meeko>  (16) 
{"free_energy": -8.35, "intermolecular_energy": -10.14, "internal_energy": -1.52, "cluster_size": 10, "cluster_id": 2, "rank_in_cluster": 3}

>  <energy>  (16) 
-8.57

>  <cluster_rmsd>  (16) 
1.59

>  <cluster>  (16) 
1

$$$$

     RDKit          3D

 49 52  0  0  0  0  0  0  0  0999 V2000
  141.4750   72.3970  221.6930 O   0  0  0  0  0  0  0  0  0  0  0  0
  140.4700   72.5460  222.4660 C   0  0  0  0  0  0  0  0  0  0  0  0
  139.5580   73.6040  222.2760 N   0  0  0  0  0  0  0  0  0  0  0  0
  139.6880   74.5800  221.2130 C   0  0  0  0  0  0  0  0  0  0  0  0
  140.8620   75.4610  221.4110 C   0  0  0  0  0  0  0  0  0  0  0  0
  141.0450   76.1650  222.4360 O   0  0  0  0  0  0  0  0  0  0  0  0
  141.8390   75.5140  220.3830 N   0  0  0  0  0  0  0  0  0  0  0  0
  142.6630   76.6730  220.0030 C   0  0  0  0  0  0  0  0  0  0  0  0
  143.0670   76.4400  218.5600 C   0  0  2  0  0  0  0  0  0  0  0  0
  142.7710   77.5550  217.7840 O   0  0  0  0  0  0  0  0  0  0  0  0
  142.2170   75.2400  218.1660 C   0  0  0  0  0  0  0  0  0  0  0  0
  142.2670   74.4660  219.4640 C   0  0  1  0  0  0  0  0  0  0  0  0
  143.6360   74.0270  219.7180 C   0  0  0  0  0  0  0  0  0  0  0  0
  144.3140   74.1230  220.9070 C   0  0  0  0  0  0  0  0  0  0  0  0
  145.6200   73.6780  221.0720 C   0  0  0  0  0  0  0  0  0  0  0  0
  146.2940   73.1070  220.0070 C   0  0  0  0  0  0  0  0  0  0  0  0
  145.6240   73.0050  218.8080 C   0  0  0  0  0  0  0  0  0  0  0  0
  144.3340   73.4500  218.6600 C   0  0  0  0  0  0  0  0  0  0  0  0
  140.2540   71.6040  223.5740 C   0  0  0  0  0  0  0  0  0  0  0  0
  139.5940   70.4060  223.3670 C   0  0  0  0  0  0  0  0  0  0  0  0
  139.4090   69.5410  224.4460 C   0  0  0  0  0  0  0  0  0  0  0  0
  139.8690   69.8470  225.7160 C   0  0  0  0  0  0  0  0  0  0  0  0
  139.6930   68.9980  226.7940 C   0  0  0  0  0  0  0  0  0  0  0  0
  140.1940   69.4000  228.0320 C   0  0  0  0  0  0  0  0  0  0  0  0
  140.0310   68.5780  229.1040 F   0  0  0  0  0  0  0  0  0  0  0  0
  140.8430   70.6160  228.1510 C   0  0  0  0  0  0  0  0  0  0  0  0
  141.0190   71.4650  227.0750 C   0  0  0  0  0  0  0  0  0  0  0  0
  140.5190   71.0560  225.8570 C   0  0  0  0  0  0  0  0  0  0  0  0
  140.6950   71.8890  224.8110 N   0  0  0  0  0  0  0  0  0  0  0  0
  138.7490   73.6780  222.9420 H   0  0  0  0  0  0  0  0  0  0  0  0
  139.7989   74.0500  220.2555 H   0  0  0  0  0  0  0  0  0  0  0  0
  138.7858   75.2093  221.2165 H   0  0  0  0  0  0  0  0  0  0  0  0
  142.0809   77.6021  220.0922 H   0  0  0  0  0  0  0  0  0  0  0  0
  143.5415   76.7759  220.6569 H   0  0  0  0  0  0  0  0  0  0  0  0
  144.1442   76.2662  218.4203 H   0  0  0  0  0  0  0  0  0  0  0  0
  142.1280   77.2210  217.0800 H   0  0  0  0  0  0  0  0  0  0  0  0
  141.1902   75.5329  217.9015 H   0  0  0  0  0  0  0  0  0  0  0  0
  142.5633   74.6906  217.2782 H   0  0  0  0  0  0  0  0  0  0  0  0
  141.6636   73.5478  219.5175 H   0  0  0  0  0  0  0  0  0  0  0  0
  143.8001   74.5729  221.7692 H   0  0  0  0  0  0  0  0  0  0  0  0
  146.1173   73.7795  222.0479 H   0  0  0  0  0  0  0  0  0  0  0  0
  147.3280   72.7474  220.1141 H   0  0  0  0  0  0  0  0  0  0  0  0
  146.1367   72.5546  217.9453 H   0  0  0  0  0  0  0  0  0  0  0  0
  143.8398   73.3485  217.6825 H   0  0  0  0  0  0  0  0  0  0  0  0
  139.2208   70.1395  222.3672 H   0  0  0  0  0  0  0  0  0  0  0  0
  138.8828   68.5888  224.2833 H   0  0  0  0  0  0  0  0  0  0  0  0
  139.1737   68.0352  226.6783 H   0  0  0  0  0  0  0  0  0  0  0  0
  141.2319   70.9170  229.1349 H   0  0  0  0  0  0  0  0  0  0  0  0
  141.5374   72.4288  227.1859 H   0  0  0  0  0  0  0  0  0  0  0  0
  1  2  2  0
  2  3  1  0
  3  4  1  0
  4  5  1  0
  5  6  2  0
  5  7  1  0
  7  8  1  0
  8  9  1  0
  9 10  1  0
  9 11  1  0
 11 12  1  0
 12 13  1  0
 13 14  2  0
 14 15  1  0
 15 16  2  0
 16 17  1  0
 17 18  2  0
  2 19  1  0
 19 20  2  0
 20 21  1  0
 21 22  2  0
 22 23  1  0
 23 24  2  0
 24 25  1  0
 24 26  1  0
 26 27  2  0
 27 28  1  0
 28 29  2  0
 12  7  1  0
 18 13  1  0
 29 19  1  0
 28 22  1  0
  3 30  1  0
  4 31  1  0
  4 32  1  0
  8 33  1  0
  8 34  1  0
  9 35  1  1
 10 36  1  0
 11 37  1  0
 11 38  1  0
 12 39  1  6
 14 40  1  0
 15 41  1  0
 16 42  1  0
 17 43  1  0
 18 44  1  0
 20 45  1  0
 21 46  1  0
 23 47  1  0
 26 48  1  0
 27 49  1  0
M  END
>  <smiles>  (17) 
O=C(NCC(=O)N1C[C@H](O)C[C@H]1c1ccccc1)c1ccc2cc(F)ccc2n1

>  <score_type>  (17) 
oracle

>  <origin>  (17) 
autodockgpu

>  <m_score__min__energy>  (17) 
-8.6600000000000001

>  <m_primary>  (17) 
energy

>  <rmsd>  (17) 
2.3809757494318675

>  <m_score__min__rmsd>  (17) 
2.3809757494318675

>  <meeko>  (17) 
{"free_energy": -8.1, "intermolecular_energy": -9.89, "internal_energy": -1.48, "cluster_size": 10, "cluster_id": 2, "rank_in_cluster": 9}

>  <energy>  (17) 
-8.57

>  <cluster_rmsd>  (17) 
1.41

>  <cluster>  (17) 
1

$$$$

     RDKit          3D

 49 52  0  0  0  0  0  0  0  0999 V2000
  141.3310   72.3540  221.6000 O   0  0  0  0  0  0  0  0  0  0  0  0
  140.3970   72.5470  222.4500 C   0  0  0  0  0  0  0  0  0  0  0  0
  139.5370   73.6580  222.3440 N   0  0  0  0  0  0  0  0  0  0  0  0
  139.6440   74.6440  221.2880 C   0  0  0  0  0  0  0  0  0  0  0  0
  139.2370   75.9930  221.7470 C   0  0  0  0  0  0  0  0  0  0  0  0
  138.2700   76.2090  222.5200 O   0  0  0  0  0  0  0  0  0  0  0  0
  139.9850   77.1090  221.2860 N   0  0  0  0  0  0  0  0  0  0  0  0
  139.5440   78.1360  220.3300 C   0  0  0  0  0  0  0  0  0  0  0  0
  140.8100   78.7110  219.7250 C   0  0  2  0  0  0  0  0  0  0  0  0
  140.7390   78.6950  218.3360 O   0  0  0  0  0  0  0  0  0  0  0  0
  141.8850   77.7670  220.2440 C   0  0  0  0  0  0  0  0  0  0  0  0
  141.3410   77.5140  221.6320 C   0  0  1  0  0  0  0  0  0  0  0  0
  141.3740   78.7540  222.4020 C   0  0  0  0  0  0  0  0  0  0  0  0
  140.3330   79.2990  223.1110 C   0  0  0  0  0  0  0  0  0  0  0  0
  140.4430   80.4860  223.8240 C   0  0  0  0  0  0  0  0  0  0  0  0
  141.6430   81.1730  223.8410 C   0  0  0  0  0  0  0  0  0  0  0  0
  142.6960   80.6370  223.1330 C   0  0  0  0  0  0  0  0  0  0  0  0
  142.5730   79.4630  222.4330 C   0  0  0  0  0  0  0  0  0  0  0  0
  140.2090   71.5980  223.5580 C   0  0  0  0  0  0  0  0  0  0  0  0
  139.5550   70.3970  223.3590 C   0  0  0  0  0  0  0  0  0  0  0  0
  139.3980   69.5250  224.4370 C   0  0  0  0  0  0  0  0  0  0  0  0
  139.8810   69.8300  225.6990 C   0  0  0  0  0  0  0  0  0  0  0  0
  139.7330   68.9750  226.7770 C   0  0  0  0  0  0  0  0  0  0  0  0
  140.2550   69.3760  228.0070 C   0  0  0  0  0  0  0  0  0  0  0  0
  140.1190   68.5480  229.0780 F   0  0  0  0  0  0  0  0  0  0  0  0
  140.8970   70.5960  228.1180 C   0  0  0  0  0  0  0  0  0  0  0  0
  141.0450   71.4510  227.0420 C   0  0  0  0  0  0  0  0  0  0  0  0
  140.5240   71.0420  225.8320 C   0  0  0  0  0  0  0  0  0  0  0  0
  140.6730   71.8820  224.7870 N   0  0  0  0  0  0  0  0  0  0  0  0
  138.7860   73.7660  223.0700 H   0  0  0  0  0  0  0  0  0  0  0  0
  140.6883   74.6854  220.9448 H   0  0  0  0  0  0  0  0  0  0  0  0
  138.9696   74.3440  220.4724 H   0  0  0  0  0  0  0  0  0  0  0  0
  138.9160   77.6857  219.5471 H   0  0  0  0  0  0  0  0  0  0  0  0
  138.9418   78.9140  220.8220 H   0  0  0  0  0  0  0  0  0  0  0  0
  140.9965   79.7612  219.9937 H   0  0  0  0  0  0  0  0  0  0  0  0
  139.8020   78.3840  218.1270 H   0  0  0  0  0  0  0  0  0  0  0  0
  141.9419   76.8428  219.6502 H   0  0  0  0  0  0  0  0  0  0  0  0
  142.9121   78.1590  220.2065 H   0  0  0  0  0  0  0  0  0  0  0  0
  141.8826   76.7846  222.2522 H   0  0  0  0  0  0  0  0  0  0  0  0
  139.3675   78.7719  223.1148 H   0  0  0  0  0  0  0  0  0  0  0  0
  139.5759   80.8793  224.3749 H   0  0  0  0  0  0  0  0  0  0  0  0
  141.7528   82.1140  224.4000 H   0  0  0  0  0  0  0  0  0  0  0  0
  143.6615   81.1641  223.1285 H   0  0  0  0  0  0  0  0  0  0  0  0
  143.4419   79.0723  221.8832 H   0  0  0  0  0  0  0  0  0  0  0  0
  139.1640   70.1323  222.3655 H   0  0  0  0  0  0  0  0  0  0  0  0
  138.8764   68.5693  224.2804 H   0  0  0  0  0  0  0  0  0  0  0  0
  139.2193   68.0085  226.6674 H   0  0  0  0  0  0  0  0  0  0  0  0
  141.3034   70.8959  229.0952 H   0  0  0  0  0  0  0  0  0  0  0  0
  141.5576   72.4186  227.1464 H   0  0  0  0  0  0  0  0  0  0  0  0
  1  2  2  0
  2  3  1  0
  3  4  1  0
  4  5  1  0
  5  6  2  0
  5  7  1  0
  7  8  1  0
  8  9  1  0
  9 10  1  0
  9 11  1  0
 11 12  1  0
 12 13  1  0
 13 14  2  0
 14 15  1  0
 15 16  2  0
 16 17  1  0
 17 18  2  0
  2 19  1  0
 19 20  2  0
 20 21  1  0
 21 22  2  0
 22 23  1  0
 23 24  2  0
 24 25  1  0
 24 26  1  0
 26 27  2  0
 27 28  1  0
 28 29  2  0
 12  7  1  0
 18 13  1  0
 29 19  1  0
 28 22  1  0
  3 30  1  0
  4 31  1  0
  4 32  1  0
  8 33  1  0
  8 34  1  0
  9 35  1  1
 10 36  1  0
 11 37  1  0
 11 38  1  0
 12 39  1  1
 14 40  1  0
 15 41  1  0
 16 42  1  0
 17 43  1  0
 18 44  1  0
 20 45  1  0
 21 46  1  0
 23 47  1  0
 26 48  1  0
 27 49  1  0
M  END
>  <smiles>  (18) 
O=C(NCC(=O)N1C[C@H](O)C[C@H]1c1ccccc1)c1ccc2cc(F)ccc2n1

>  <score_type>  (18) 
oracle

>  <origin>  (18) 
autodockgpu

>  <m_score__min__energy>  (18) 
-8.6600000000000001

>  <m_primary>  (18) 
energy

>  <rmsd>  (18) 
2.1709726287418922

>  <m_score__min__rmsd>  (18) 
2.1709726287418922

>  <meeko>  (18) 
{"free_energy": -8.6, "intermolecular_energy": -10.39, "internal_energy": -1.32, "cluster_size": 37, "cluster_id": 1, "rank_in_cluster": 14}

>  <energy>  (18) 
-8.56

>  <cluster_rmsd>  (18) 
1.56

>  <cluster>  (18) 
1

$$$$

     RDKit          3D

 49 52  0  0  0  0  0  0  0  0999 V2000
  141.3790   72.2600  221.4770 O   0  0  0  0  0  0  0  0  0  0  0  0
  140.4370   72.4810  222.3100 C   0  0  0  0  0  0  0  0  0  0  0  0
  139.5720   73.5830  222.1520 N   0  0  0  0  0  0  0  0  0  0  0  0
  139.6840   74.5260  221.0580 C   0  0  0  0  0  0  0  0  0  0  0  0
  140.7550   75.5220  221.2930 C   0  0  0  0  0  0  0  0  0  0  0  0
  140.8010   76.2790  222.2950 O   0  0  0  0  0  0  0  0  0  0  0  0
  141.7920   75.6280  220.3290 N   0  0  0  0  0  0  0  0  0  0  0  0
  142.6830   76.7780  220.1090 C   0  0  0  0  0  0  0  0  0  0  0  0
  143.1600   76.6650  218.6740 C   0  0  2  0  0  0  0  0  0  0  0  0
  142.9560   77.8620  217.9960 O   0  0  0  0  0  0  0  0  0  0  0  0
  142.2860   75.5490  218.1190 C   0  0  0  0  0  0  0  0  0  0  0  0
  142.2290   74.6540  219.3370 C   0  0  1  0  0  0  0  0  0  0  0  0
  143.5620   74.1300  219.6200 C   0  0  0  0  0  0  0  0  0  0  0  0
  144.1950   74.1300  220.8380 C   0  0  0  0  0  0  0  0  0  0  0  0
  145.4680   73.6080  221.0290 C   0  0  0  0  0  0  0  0  0  0  0  0
  146.1550   73.0550  219.9630 C   0  0  0  0  0  0  0  0  0  0  0  0
  145.5310   73.0490  218.7350 C   0  0  0  0  0  0  0  0  0  0  0  0
  144.2730   73.5680  218.5610 C   0  0  0  0  0  0  0  0  0  0  0  0
  140.2440   71.5770  223.4530 C   0  0  0  0  0  0  0  0  0  0  0  0
  139.6070   70.3600  223.2950 C   0  0  0  0  0  0  0  0  0  0  0  0
  139.4440   69.5320  224.4060 C   0  0  0  0  0  0  0  0  0  0  0  0
  139.9040   69.8940  225.6610 C   0  0  0  0  0  0  0  0  0  0  0  0
  139.7510   69.0830  226.7720 C   0  0  0  0  0  0  0  0  0  0  0  0
  140.2500   69.5400  227.9900 C   0  0  0  0  0  0  0  0  0  0  0  0
  140.1080   68.7560  229.0930 F   0  0  0  0  0  0  0  0  0  0  0  0
  140.8760   70.7720  228.0600 C   0  0  0  0  0  0  0  0  0  0  0  0
  141.0310   71.5830  226.9520 C   0  0  0  0  0  0  0  0  0  0  0  0
  140.5320   71.1190  225.7530 C   0  0  0  0  0  0  0  0  0  0  0  0
  140.6870   71.9160  224.6760 N   0  0  0  0  0  0  0  0  0  0  0  0
  138.8150   73.7160  222.8670 H   0  0  0  0  0  0  0  0  0  0  0  0
  139.9093   73.9733  220.1340 H   0  0  0  0  0  0  0  0  0  0  0  0
  138.7293   75.0660  220.9751 H   0  0  0  0  0  0  0  0  0  0  0  0
  142.1353   77.7204  220.2571 H   0  0  0  0  0  0  0  0  0  0  0  0
  143.5256   76.7774  220.8161 H   0  0  0  0  0  0  0  0  0  0  0  0
  144.2353   76.4551  218.5761 H   0  0  0  0  0  0  0  0  0  0  0  0
  143.5000   78.5450  218.5030 H   0  0  0  0  0  0  0  0  0  0  0  0
  141.2892   75.9129  217.8292 H   0  0  0  0  0  0  0  0  0  0  0  0
  142.6602   75.0711  217.2016 H   0  0  0  0  0  0  0  0  0  0  0  0
  141.5862   73.7640  219.2686 H   0  0  0  0  0  0  0  0  0  0  0  0
  143.6702   74.5632  221.7023 H   0  0  0  0  0  0  0  0  0  0  0  0
  145.9296   73.6343  222.0271 H   0  0  0  0  0  0  0  0  0  0  0  0
  147.1635   72.6351  220.0915 H   0  0  0  0  0  0  0  0  0  0  0  0
  146.0556   72.6163  217.8704 H   0  0  0  0  0  0  0  0  0  0  0  0
  143.8143   73.5399  217.5616 H   0  0  0  0  0  0  0  0  0  0  0  0
  139.2342   70.0492  222.3079 H   0  0  0  0  0  0  0  0  0  0  0  0
  138.9358   68.5644  224.2816 H   0  0  0  0  0  0  0  0  0  0  0  0
  139.2503   68.1065  226.6957 H   0  0  0  0  0  0  0  0  0  0  0  0
  141.2632   71.1173  229.0300 H   0  0  0  0  0  0  0  0  0  0  0  0
  141.5323   72.5595  227.0234 H   0  0  0  0  0  0  0  0  0  0  0  0
  1  2  2  0
  2  3  1  0
  3  4  1  0
  4  5  1  0
  5  6  2  0
  5  7  1  0
  7  8  1  0
  8  9  1  0
  9 10  1  0
  9 11  1  0
 11 12  1  0
 12 13  1  0
 13 14  2  0
 14 15  1  0
 15 16  2  0
 16 17  1  0
 17 18  2  0
  2 19  1  0
 19 20  2  0
 20 21  1  0
 21 22  2  0
 22 23  1  0
 23 24  2  0
 24 25  1  0
 24 26  1  0
 26 27  2  0
 27 28  1  0
 28 29  2  0
 12  7  1  0
 18 13  1  0
 29 19  1  0
 28 22  1  0
  3 30  1  0
  4 31  1  0
  4 32  1  0
  8 33  1  0
  8 34  1  0
  9 35  1  1
 10 36  1  0
 11 37  1  0
 11 38  1  0
 12 39  1  6
 14 40  1  0
 15 41  1  0
 16 42  1  0
 17 43  1  0
 18 44  1  0
 20 45  1  0
 21 46  1  0
 23 47  1  0
 26 48  1  0
 27 49  1  0
M  END
>  <smiles>  (19) 
O=C(NCC(=O)N1C[C@H](O)C[C@H]1c1ccccc1)c1ccc2cc(F)ccc2n1

>  <score_type>  (19) 
oracle

>  <origin>  (19) 
autodockgpu

>  <m_score__min__energy>  (19) 
-8.6600000000000001

>  <m_primary>  (19) 
energy

>  <rmsd>  (19) 
2.3608176648482915

>  <m_score__min__rmsd>  (19) 
2.3608176648482915

>  <meeko>  (19) 
{"free_energy": -8.38, "intermolecular_energy": -10.17, "internal_energy": -1.5, "cluster_size": 10, "cluster_id": 2, "rank_in_cluster": 1}

>  <energy>  (19) 
-8.55

>  <cluster_rmsd>  (19) 
1.43

>  <cluster>  (19) 
1

$$$$

     RDKit          3D

 49 52  0  0  0  0  0  0  0  0999 V2000
  140.3060   71.8560  221.0340 O   0  0  0  0  0  0  0  0  0  0  0  0
  139.9660   72.3050  222.1800 C   0  0  0  0  0  0  0  0  0  0  0  0
  139.5950   73.6540  222.3510 N   0  0  0  0  0  0  0  0  0  0  0  0
  139.5700   74.6110  221.2640 C   0  0  0  0  0  0  0  0  0  0  0  0
  139.2660   75.9810  221.7400 C   0  0  0  0  0  0  0  0  0  0  0  0
  138.3430   76.2540  222.5480 O   0  0  0  0  0  0  0  0  0  0  0  0
  140.0650   77.0500  221.2540 N   0  0  0  0  0  0  0  0  0  0  0  0
  139.6750   78.0690  220.2680 C   0  0  0  0  0  0  0  0  0  0  0  0
  140.9680   78.5710  219.6550 C   0  0  2  0  0  0  0  0  0  0  0  0
  140.9030   78.5210  218.2670 O   0  0  0  0  0  0  0  0  0  0  0  0
  141.9980   77.5940  220.2050 C   0  0  0  0  0  0  0  0  0  0  0  0
  141.4360   77.4030  221.5960 C   0  0  1  0  0  0  0  0  0  0  0  0
  141.5210   78.6600  222.3330 C   0  0  0  0  0  0  0  0  0  0  0  0
  142.5860   79.5260  222.3470 C   0  0  0  0  0  0  0  0  0  0  0  0
  142.5890   80.7100  223.0740 C   0  0  0  0  0  0  0  0  0  0  0  0
  141.4840   81.0600  223.8290 C   0  0  0  0  0  0  0  0  0  0  0  0
  140.4090   80.1990  223.8240 C   0  0  0  0  0  0  0  0  0  0  0  0
  140.4190   79.0330  223.1010 C   0  0  0  0  0  0  0  0  0  0  0  0
  139.9600   71.4070  223.3450 C   0  0  0  0  0  0  0  0  0  0  0  0
  139.5560   70.0910  223.2230 C   0  0  0  0  0  0  0  0  0  0  0  0
  139.5640   69.2730  224.3540 C   0  0  0  0  0  0  0  0  0  0  0  0
  139.9680   69.7430  225.5920 C   0  0  0  0  0  0  0  0  0  0  0  0
  139.9830   68.9420  226.7220 C   0  0  0  0  0  0  0  0  0  0  0  0
  140.4060   69.5120  227.9220 C   0  0  0  0  0  0  0  0  0  0  0  0
  140.4270   68.7410  229.0420 F   0  0  0  0  0  0  0  0  0  0  0  0
  140.7960   70.8390  227.9550 C   0  0  0  0  0  0  0  0  0  0  0  0
  140.7820   71.6390  226.8280 C   0  0  0  0  0  0  0  0  0  0  0  0
  140.3600   71.0640  225.6480 C   0  0  0  0  0  0  0  0  0  0  0  0
  140.3500   71.8510  224.5530 N   0  0  0  0  0  0  0  0  0  0  0  0
  139.3240   73.9680  223.3150 H   0  0  0  0  0  0  0  0  0  0  0  0
  140.5538   74.6158  220.7719 H   0  0  0  0  0  0  0  0  0  0  0  0
  138.7772   74.3101  220.5634 H   0  0  0  0  0  0  0  0  0  0  0  0
  139.0314   77.6257  219.4939 H   0  0  0  0  0  0  0  0  0  0  0  0
  139.1059   78.8861  220.7354 H   0  0  0  0  0  0  0  0  0  0  0  0
  141.1995   79.6188  219.8968 H   0  0  0  0  0  0  0  0  0  0  0  0
  140.9140   79.4870  217.9710 H   0  0  0  0  0  0  0  0  0  0  0  0
  142.0165   76.6526  219.6362 H   0  0  0  0  0  0  0  0  0  0  0  0
  143.0418   77.9385  220.1631 H   0  0  0  0  0  0  0  0  0  0  0  0
  141.9415   76.6666  222.2380 H   0  0  0  0  0  0  0  0  0  0  0  0
  143.4778   79.2709  221.7556 H   0  0  0  0  0  0  0  0  0  0  0  0
  143.4696   81.3687  223.0492 H   0  0  0  0  0  0  0  0  0  0  0  0
  141.4646   81.9924  224.4123 H   0  0  0  0  0  0  0  0  0  0  0  0
  139.5176   80.4533  224.4162 H   0  0  0  0  0  0  0  0  0  0  0  0
  139.5365   78.3769  223.1280 H   0  0  0  0  0  0  0  0  0  0  0  0
  139.2330   69.6942  222.2493 H   0  0  0  0  0  0  0  0  0  0  0  0
  139.2403   68.2260  224.2590 H   0  0  0  0  0  0  0  0  0  0  0  0
  139.6707   67.8884  226.6741 H   0  0  0  0  0  0  0  0  0  0  0  0
  141.1283   71.2718  228.9101 H   0  0  0  0  0  0  0  0  0  0  0  0
  141.0951   72.6926  226.8708 H   0  0  0  0  0  0  0  0  0  0  0  0
  1  2  2  0
  2  3  1  0
  3  4  1  0
  4  5  1  0
  5  6  2  0
  5  7  1  0
  7  8  1  0
  8  9  1  0
  9 10  1  0
  9 11  1  0
 11 12  1  0
 12 13  1  0
 13 14  2  0
 14 15  1  0
 15 16  2  0
 16 17  1  0
 17 18  2  0
  2 19  1  0
 19 20  2  0
 20 21  1  0
 21 22  2  0
 22 23  1  0
 23 24  2  0
 24 25  1  0
 24 26  1  0
 26 27  2  0
 27 28  1  0
 28 29  2  0
 12  7  1  0
 18 13  1  0
 29 19  1  0
 28 22  1  0
  3 30  1  0
  4 31  1  0
  4 32  1  0
  8 33  1  0
  8 34  1  0
  9 35  1  6
 10 36  1  0
 11 37  1  0
 11 38  1  0
 12 39  1  1
 14 40  1  0
 15 41  1  0
 16 42  1  0
 17 43  1  0
 18 44  1  0
 20 45  1  0
 21 46  1  0
 23 47  1  0
 26 48  1  0
 27 49  1  0
M  END
>  <smiles>  (20) 
O=C(NCC(=O)N1C[C@H](O)C[C@H]1c1ccccc1)c1ccc2cc(F)ccc2n1

>  <score_type>  (20) 
oracle

>  <origin>  (20) 
autodockgpu

>  <m_score__min__energy>  (20) 
-8.6600000000000001

>  <m_primary>  (20) 
energy

>  <rmsd>  (20) 
2.056001029571025

>  <m_score__min__rmsd>  (20) 
2.056001029571025

>  <meeko>  (20) 
{"free_energy": -8.25, "intermolecular_energy": -10.04, "internal_energy": -1.4, "cluster_size": 37, "cluster_id": 1, "rank_in_cluster": 32}

>  <energy>  (20) 
-8.55

>  <cluster_rmsd>  (20) 
1.45

>  <cluster>  (20) 
1

$$$$

     RDKit          3D

 49 52  0  0  0  0  0  0  0  0999 V2000
  141.4040   72.4550  221.5490 O   0  0  0  0  0  0  0  0  0  0  0  0
  140.4780   72.6400  222.4080 C   0  0  0  0  0  0  0  0  0  0  0  0
  139.6420   73.7740  222.3420 N   0  0  0  0  0  0  0  0  0  0  0  0
  139.7680   74.7910  221.3190 C   0  0  0  0  0  0  0  0  0  0  0  0
  139.0120   76.0180  221.6620 C   0  0  0  0  0  0  0  0  0  0  0  0
  137.9350   76.0200  222.3110 O   0  0  0  0  0  0  0  0  0  0  0  0
  139.5340   77.2670  221.2330 N   0  0  0  0  0  0  0  0  0  0  0  0
  138.7830   78.5140  221.0180 C   0  0  0  0  0  0  0  0  0  0  0  0
  139.6040   79.3280  220.0370 C   0  0  2  0  0  0  0  0  0  0  0  0
  138.8160   79.7470  218.9710 O   0  0  0  0  0  0  0  0  0  0  0  0
  140.6710   78.3380  219.5930 C   0  0  0  0  0  0  0  0  0  0  0  0
  140.9080   77.6270  220.9060 C   0  0  1  0  0  0  0  0  0  0  0  0
  141.4850   78.5600  221.8690 C   0  0  0  0  0  0  0  0  0  0  0  0
  142.1950   79.6970  221.5760 C   0  0  0  0  0  0  0  0  0  0  0  0
  142.7110   80.5400  222.5530 C   0  0  0  0  0  0  0  0  0  0  0  0
  142.5180   80.2460  223.8910 C   0  0  0  0  0  0  0  0  0  0  0  0
  141.8070   79.1070  224.1980 C   0  0  0  0  0  0  0  0  0  0  0  0
  141.3030   78.2840  223.2230 C   0  0  0  0  0  0  0  0  0  0  0  0
  140.2720   71.6610  223.4850 C   0  0  0  0  0  0  0  0  0  0  0  0
  139.6390   70.4570  223.2370 C   0  0  0  0  0  0  0  0  0  0  0  0
  139.4630   69.5550  224.2870 C   0  0  0  0  0  0  0  0  0  0  0  0
  139.9080   69.8320  225.5690 C   0  0  0  0  0  0  0  0  0  0  0  0
  139.7420   68.9460  226.6200 C   0  0  0  0  0  0  0  0  0  0  0  0
  140.2250   69.3200  227.8730 C   0  0  0  0  0  0  0  0  0  0  0  0
  140.0710   68.4620  228.9180 F   0  0  0  0  0  0  0  0  0  0  0  0
  140.8490   70.5450  228.0340 C   0  0  0  0  0  0  0  0  0  0  0  0
  141.0160   71.4300  226.9850 C   0  0  0  0  0  0  0  0  0  0  0  0
  140.5320   71.0480  225.7510 C   0  0  0  0  0  0  0  0  0  0  0  0
  140.6990   71.9170  224.7330 N   0  0  0  0  0  0  0  0  0  0  0  0
  138.8970   73.8750  223.0750 H   0  0  0  0  0  0  0  0  0  0  0  0
  140.8310   75.0492  221.2036 H   0  0  0  0  0  0  0  0  0  0  0  0
  139.3537   74.3862  220.3838 H   0  0  0  0  0  0  0  0  0  0  0  0
  137.7903   78.2954  220.5976 H   0  0  0  0  0  0  0  0  0  0  0  0
  138.6235   79.0577  221.9608 H   0  0  0  0  0  0  0  0  0  0  0  0
  140.0271   80.2489  220.4647 H   0  0  0  0  0  0  0  0  0  0  0  0
  137.9060   79.9240  219.3720 H   0  0  0  0  0  0  0  0  0  0  0  0
  140.2990   77.6536  218.8163 H   0  0  0  0  0  0  0  0  0  0  0  0
  141.5646   78.7854  219.1332 H   0  0  0  0  0  0  0  0  0  0  0  0
  141.6036   76.7750  220.8906 H   0  0  0  0  0  0  0  0  0  0  0  0
  142.3635   79.9530  220.5195 H   0  0  0  0  0  0  0  0  0  0  0  0
  143.2724   81.4403  222.2627 H   0  0  0  0  0  0  0  0  0  0  0  0
  142.9180   80.8984  224.6812 H   0  0  0  0  0  0  0  0  0  0  0  0
  141.6386   78.8501  225.2543 H   0  0  0  0  0  0  0  0  0  0  0  0
  140.7418   77.3847  223.5169 H   0  0  0  0  0  0  0  0  0  0  0  0
  139.2793   70.2137  222.2264 H   0  0  0  0  0  0  0  0  0  0  0  0
  138.9571   68.5980  224.0913 H   0  0  0  0  0  0  0  0  0  0  0  0
  139.2442   67.9765  226.4707 H   0  0  0  0  0  0  0  0  0  0  0  0
  141.2245   70.8237  229.0297 H   0  0  0  0  0  0  0  0  0  0  0  0
  141.5148   72.3998  227.1286 H   0  0  0  0  0  0  0  0  0  0  0  0
  1  2  2  0
  2  3  1  0
  3  4  1  0
  4  5  1  0
  5  6  2  0
  5  7  1  0
  7  8  1  0
  8  9  1  0
  9 10  1  0
  9 11  1  0
 11 12  1  0
 12 13  1  0
 13 14  2  0
 14 15  1  0
 15 16  2  0
 16 17  1  0
 17 18  2  0
  2 19  1  0
 19 20  2  0
 20 21  1  0
 21 22  2  0
 22 23  1  0
 23 24  2  0
 24 25  1  0
 24 26  1  0
 26 27  2  0
 27 28  1  0
 28 29  2  0
 12  7  1  0
 18 13  1  0
 29 19  1  0
 28 22  1  0
  3 30  1  0
  4 31  1  0
  4 32  1  0
  8 33  1  0
  8 34  1  0
  9 35  1  1
 10 36  1  0
 11 37  1  0
 11 38  1  0
 12 39  1  6
 14 40  1  0
 15 41  1  0
 16 42  1  0
 17 43  1  0
 18 44  1  0
 20 45  1  0
 21 46  1  0
 23 47  1  0
 26 48  1  0
 27 49  1  0
M  END
>  <smiles>  (21) 
O=C(NCC(=O)N1C[C@H](O)C[C@H]1c1ccccc1)c1ccc2cc(F)ccc2n1

>  <score_type>  (21) 
oracle

>  <origin>  (21) 
autodockgpu

>  <m_score__min__energy>  (21) 
-8.6600000000000001

>  <m_primary>  (21) 
energy

>  <rmsd>  (21) 
2.32087965006609

>  <m_score__min__rmsd>  (21) 
2.32087965006609

>  <meeko>  (21) 
{"free_energy": -8.32, "intermolecular_energy": -10.11, "internal_energy": -1.38, "cluster_size": 37, "cluster_id": 1, "rank_in_cluster": 31}

>  <energy>  (21) 
-8.55

>  <cluster_rmsd>  (21) 
0.32

>  <cluster>  (21) 
1

$$$$

     RDKit          3D

 49 52  0  0  0  0  0  0  0  0999 V2000
  141.3200   72.4070  221.6300 O   0  0  0  0  0  0  0  0  0  0  0  0
  140.3690   72.5560  222.4690 C   0  0  0  0  0  0  0  0  0  0  0  0
  139.4600   73.6270  222.3530 N   0  0  0  0  0  0  0  0  0  0  0  0
  139.5340   74.6170  221.2980 C   0  0  0  0  0  0  0  0  0  0  0  0
  139.2020   75.9750  221.7880 C   0  0  0  0  0  0  0  0  0  0  0  0
  138.2710   76.2210  222.5960 O   0  0  0  0  0  0  0  0  0  0  0  0
  139.9810   77.0650  221.3170 N   0  0  0  0  0  0  0  0  0  0  0  0
  139.5850   78.0710  220.3200 C   0  0  0  0  0  0  0  0  0  0  0  0
  140.8770   78.6080  219.7360 C   0  0  2  0  0  0  0  0  0  0  0  0
  140.8450   78.5540  218.3470 O   0  0  0  0  0  0  0  0  0  0  0  0
  141.9210   77.6610  220.3120 C   0  0  0  0  0  0  0  0  0  0  0  0
  141.3340   77.4570  221.6900 C   0  0  1  0  0  0  0  0  0  0  0  0
  141.3660   78.7180  222.4260 C   0  0  0  0  0  0  0  0  0  0  0  0
  140.3270   79.2800  223.1240 C   0  0  0  0  0  0  0  0  0  0  0  0
  140.4370   80.4860  223.8040 C   0  0  0  0  0  0  0  0  0  0  0  0
  141.6360   81.1770  223.7960 C   0  0  0  0  0  0  0  0  0  0  0  0
  142.6860   80.6240  223.0980 C   0  0  0  0  0  0  0  0  0  0  0  0
  142.5630   79.4310  222.4310 C   0  0  0  0  0  0  0  0  0  0  0  0
  140.2110   71.6000  223.5750 C   0  0  0  0  0  0  0  0  0  0  0  0
  139.5780   70.3870  223.3790 C   0  0  0  0  0  0  0  0  0  0  0  0
  139.4490   69.5090  224.4550 C   0  0  0  0  0  0  0  0  0  0  0  0
  139.9400   69.8180  225.7130 C   0  0  0  0  0  0  0  0  0  0  0  0
  139.8210   68.9560  226.7890 C   0  0  0  0  0  0  0  0  0  0  0  0
  140.3490   69.3620  228.0140 C   0  0  0  0  0  0  0  0  0  0  0  0
  140.2410   68.5280  229.0840 F   0  0  0  0  0  0  0  0  0  0  0  0
  140.9690   70.5940  228.1230 C   0  0  0  0  0  0  0  0  0  0  0  0
  141.0900   71.4550  227.0490 C   0  0  0  0  0  0  0  0  0  0  0  0
  140.5630   71.0420  225.8440 C   0  0  0  0  0  0  0  0  0  0  0  0
  140.6840   71.8880  224.8000 N   0  0  0  0  0  0  0  0  0  0  0  0
  138.6970   73.7010  223.0700 H   0  0  0  0  0  0  0  0  0  0  0  0
  140.5557   74.6263  220.8905 H   0  0  0  0  0  0  0  0  0  0  0  0
  138.8001   74.3456  220.5249 H   0  0  0  0  0  0  0  0  0  0  0  0
  138.9721   77.6085  219.5323 H   0  0  0  0  0  0  0  0  0  0  0  0
  138.9823   78.8724  220.7722 H   0  0  0  0  0  0  0  0  0  0  0  0
  141.0739   79.6622  219.9806 H   0  0  0  0  0  0  0  0  0  0  0  0
  141.7980   78.7230  218.0570 H   0  0  0  0  0  0  0  0  0  0  0  0
  141.9784   76.7194  219.7462 H   0  0  0  0  0  0  0  0  0  0  0  0
  142.9554   78.0346  220.2928 H   0  0  0  0  0  0  0  0  0  0  0  0
  141.8458   76.7368  222.3453 H   0  0  0  0  0  0  0  0  0  0  0  0
  139.3627   78.7512  223.1460 H   0  0  0  0  0  0  0  0  0  0  0  0
  139.5716   80.8917  224.3486 H   0  0  0  0  0  0  0  0  0  0  0  0
  141.7461   82.1334  224.3281 H   0  0  0  0  0  0  0  0  0  0  0  0
  143.6501   81.1530  223.0743 H   0  0  0  0  0  0  0  0  0  0  0  0
  143.4302   79.0280  221.8873 H   0  0  0  0  0  0  0  0  0  0  0  0
  139.1817   70.1180  222.3887 H   0  0  0  0  0  0  0  0  0  0  0  0
  138.9434   68.5444  224.3004 H   0  0  0  0  0  0  0  0  0  0  0  0
  139.3249   67.9801  226.6812 H   0  0  0  0  0  0  0  0  0  0  0  0
  141.3793   70.8983  229.0972 H   0  0  0  0  0  0  0  0  0  0  0  0
  141.5870   72.4310  227.1515 H   0  0  0  0  0  0  0  0  0  0  0  0
  1  2  2  0
  2  3  1  0
  3  4  1  0
  4  5  1  0
  5  6  2  0
  5  7  1  0
  7  8  1  0
  8  9  1  0
  9 10  1  0
  9 11  1  0
 11 12  1  0
 12 13  1  0
 13 14  2  0
 14 15  1  0
 15 16  2  0
 16 17  1  0
 17 18  2  0
  2 19  1  0
 19 20  2  0
 20 21  1  0
 21 22  2  0
 22 23  1  0
 23 24  2  0
 24 25  1  0
 24 26  1  0
 26 27  2  0
 27 28  1  0
 28 29  2  0
 12  7  1  0
 18 13  1  0
 29 19  1  0
 28 22  1  0
  3 30  1  0
  4 31  1  0
  4 32  1  0
  8 33  1  0
  8 34  1  0
  9 35  1  6
 10 36  1  0
 11 37  1  0
 11 38  1  0
 12 39  1  1
 14 40  1  0
 15 41  1  0
 16 42  1  0
 17 43  1  0
 18 44  1  0
 20 45  1  0
 21 46  1  0
 23 47  1  0
 26 48  1  0
 27 49  1  0
M  END
>  <smiles>  (22) 
O=C(NCC(=O)N1C[C@H](O)C[C@H]1c1ccccc1)c1ccc2cc(F)ccc2n1

>  <score_type>  (22) 
oracle

>  <origin>  (22) 
autodockgpu

>  <m_score__min__energy>  (22) 
-8.6600000000000001

>  <m_primary>  (22) 
energy

>  <rmsd>  (22) 
2.151498280913385

>  <m_score__min__rmsd>  (22) 
2.151498280913385

>  <meeko>  (22) 
{"free_energy": -8.62, "intermolecular_energy": -10.41, "internal_energy": -1.29, "cluster_size": 37, "cluster_id": 1, "rank_in_cluster": 6}

>  <energy>  (22) 
-8.53

>  <cluster_rmsd>  (22) 
1.43

>  <cluster>  (22) 
1

$$$$

     RDKit          3D

 49 52  0  0  0  0  0  0  0  0999 V2000
  141.2490   72.5440  221.6400 O   0  0  0  0  0  0  0  0  0  0  0  0
  140.2760   72.6220  222.4620 C   0  0  0  0  0  0  0  0  0  0  0  0
  139.3100   73.6430  222.3500 N   0  0  0  0  0  0  0  0  0  0  0  0
  139.3480   74.6570  221.3160 C   0  0  0  0  0  0  0  0  0  0  0  0
  139.1020   76.0130  221.8610 C   0  0  0  0  0  0  0  0  0  0  0  0
  138.2220   76.2750  222.7200 O   0  0  0  0  0  0  0  0  0  0  0  0
  139.9080   77.0810  221.3860 N   0  0  0  0  0  0  0  0  0  0  0  0
  139.5420   78.0850  220.3760 C   0  0  0  0  0  0  0  0  0  0  0  0
  140.8500   78.5880  219.7960 C   0  0  2  0  0  0  0  0  0  0  0  0
  140.8260   78.5210  218.4080 O   0  0  0  0  0  0  0  0  0  0  0  0
  141.8680   77.6250  220.3890 C   0  0  0  0  0  0  0  0  0  0  0  0
  141.2670   77.4470  221.7650 C   0  0  1  0  0  0  0  0  0  0  0  0
  141.3220   78.7140  222.4880 C   0  0  0  0  0  0  0  0  0  0  0  0
  140.2860   79.3120  223.1620 C   0  0  0  0  0  0  0  0  0  0  0  0
  140.4170   80.5220  223.8310 C   0  0  0  0  0  0  0  0  0  0  0  0
  141.6350   81.1790  223.8390 C   0  0  0  0  0  0  0  0  0  0  0  0
  142.6830   80.5890  223.1660 C   0  0  0  0  0  0  0  0  0  0  0  0
  142.5380   79.3930  222.5090 C   0  0  0  0  0  0  0  0  0  0  0  0
  140.1530   71.6360  223.5460 C   0  0  0  0  0  0  0  0  0  0  0  0
  139.5610   70.4070  223.3220 C   0  0  0  0  0  0  0  0  0  0  0  0
  139.4640   69.5000  224.3780 C   0  0  0  0  0  0  0  0  0  0  0  0
  139.9450   69.7970  225.6420 C   0  0  0  0  0  0  0  0  0  0  0  0
  139.8560   68.9060  226.6980 C   0  0  0  0  0  0  0  0  0  0  0  0
  140.3720   69.3010  227.9320 C   0  0  0  0  0  0  0  0  0  0  0  0
  140.2940   68.4390  228.9820 F   0  0  0  0  0  0  0  0  0  0  0  0
  140.9500   70.5510  228.0690 C   0  0  0  0  0  0  0  0  0  0  0  0
  141.0390   71.4410  227.0150 C   0  0  0  0  0  0  0  0  0  0  0  0
  140.5250   71.0380  225.8010 C   0  0  0  0  0  0  0  0  0  0  0  0
  140.6160   71.9110  224.7770 N   0  0  0  0  0  0  0  0  0  0  0  0
  138.5310   73.6590  223.0540 H   0  0  0  0  0  0  0  0  0  0  0  0
  140.3386   74.6403  220.8381 H   0  0  0  0  0  0  0  0  0  0  0  0
  138.5529   74.4326  220.5897 H   0  0  0  0  0  0  0  0  0  0  0  0
  138.9250   77.6279  219.5884 H   0  0  0  0  0  0  0  0  0  0  0  0
  138.9540   78.9041  220.8157 H   0  0  0  0  0  0  0  0  0  0  0  0
  141.0688   79.6400  220.0313 H   0  0  0  0  0  0  0  0  0  0  0  0
  141.5070   77.8140  218.1690 H   0  0  0  0  0  0  0  0  0  0  0  0
  141.9090   76.6768  219.8329 H   0  0  0  0  0  0  0  0  0  0  0  0
  142.9103   77.9762  220.3741 H   0  0  0  0  0  0  0  0  0  0  0  0
  141.7578   76.7220  222.4310 H   0  0  0  0  0  0  0  0  0  0  0  0
  139.3074   78.8097  223.1726 H   0  0  0  0  0  0  0  0  0  0  0  0
  139.5532   80.9579  224.3542 H   0  0  0  0  0  0  0  0  0  0  0  0
  141.7620   82.1375  224.3636 H   0  0  0  0  0  0  0  0  0  0  0  0
  143.6621   81.0903  223.1552 H   0  0  0  0  0  0  0  0  0  0  0  0
  143.4034   78.9598  221.9861 H   0  0  0  0  0  0  0  0  0  0  0  0
  139.1722   70.1479  222.3262 H   0  0  0  0  0  0  0  0  0  0  0  0
  138.9924   68.5220  224.2014 H   0  0  0  0  0  0  0  0  0  0  0  0
  139.3926   67.9169  226.5677 H   0  0  0  0  0  0  0  0  0  0  0  0
  141.3520   70.8462  229.0494 H   0  0  0  0  0  0  0  0  0  0  0  0
  141.5015   72.4312  227.1400 H   0  0  0  0  0  0  0  0  0  0  0  0
  1  2  2  0
  2  3  1  0
  3  4  1  0
  4  5  1  0
  5  6  2  0
  5  7  1  0
  7  8  1  0
  8  9  1  0
  9 10  1  0
  9 11  1  0
 11 12  1  0
 12 13  1  0
 13 14  2  0
 14 15  1  0
 15 16  2  0
 16 17  1  0
 17 18  2  0
  2 19  1  0
 19 20  2  0
 20 21  1  0
 21 22  2  0
 22 23  1  0
 23 24  2  0
 24 25  1  0
 24 26  1  0
 26 27  2  0
 27 28  1  0
 28 29  2  0
 12  7  1  0
 18 13  1  0
 29 19  1  0
 28 22  1  0
  3 30  1  0
  4 31  1  0
  4 32  1  0
  8 33  1  0
  8 34  1  0
  9 35  1  6
 10 36  1  0
 11 37  1  0
 11 38  1  0
 12 39  1  1
 14 40  1  0
 15 41  1  0
 16 42  1  0
 17 43  1  0
 18 44  1  0
 20 45  1  0
 21 46  1  0
 23 47  1  0
 26 48  1  0
 27 49  1  0
M  END
>  <smiles>  (23) 
O=C(NCC(=O)N1C[C@H](O)C[C@H]1c1ccccc1)c1ccc2cc(F)ccc2n1

>  <score_type>  (23) 
oracle

>  <origin>  (23) 
autodockgpu

>  <m_score__min__energy>  (23) 
-8.6600000000000001

>  <m_primary>  (23) 
energy

>  <rmsd>  (23) 
2.1544630037572707

>  <m_score__min__rmsd>  (23) 
2.1544630037572707

>  <meeko>  (23) 
{"free_energy": -8.6, "intermolecular_energy": -10.39, "internal_energy": -1.26, "cluster_size": 37, "cluster_id": 1, "rank_in_cluster": 11}

>  <energy>  (23) 
-8.5

>  <cluster_rmsd>  (23) 
1.52

>  <cluster>  (23) 
1

$$$$

     RDKit          3D

 49 52  0  0  0  0  0  0  0  0999 V2000
  138.3250   71.8020  222.6780 O   0  0  0  0  0  0  0  0  0  0  0  0
  138.8630   70.6480  222.5780 C   0  0  0  0  0  0  0  0  0  0  0  0
  139.1520   70.0890  221.3170 N   0  0  0  0  0  0  0  0  0  0  0  0
  138.8670   70.7640  220.0670 C   0  0  0  0  0  0  0  0  0  0  0  0
  140.0840   71.3640  219.4720 C   0  0  0  0  0  0  0  0  0  0  0  0
  140.6430   70.9310  218.4330 O   0  0  0  0  0  0  0  0  0  0  0  0
  140.6530   72.4950  220.1130 N   0  0  0  0  0  0  0  0  0  0  0  0
  140.5870   72.8290  221.5440 C   0  0  0  0  0  0  0  0  0  0  0  0
  140.7850   74.3300  221.6300 C   0  0  2  0  0  0  0  0  0  0  0  0
  139.7750   74.9140  222.3860 O   0  0  0  0  0  0  0  0  0  0  0  0
  140.7160   74.7590  220.1720 C   0  0  0  0  0  0  0  0  0  0  0  0
  141.4290   73.5860  219.5370 C   0  0  1  0  0  0  0  0  0  0  0  0
  142.8230   73.5690  219.9700 C   0  0  0  0  0  0  0  0  0  0  0  0
  143.5560   72.4600  220.3100 C   0  0  0  0  0  0  0  0  0  0  0  0
  144.8850   72.5250  220.7120 C   0  0  0  0  0  0  0  0  0  0  0  0
  145.5250   73.7490  220.7830 C   0  0  0  0  0  0  0  0  0  0  0  0
  144.8000   74.8700  220.4450 C   0  0  0  0  0  0  0  0  0  0  0  0
  143.4880   74.7910  220.0500 C   0  0  0  0  0  0  0  0  0  0  0  0
  139.1910   69.8860  223.7920 C   0  0  0  0  0  0  0  0  0  0  0  0
  138.9030   68.5360  223.8800 C   0  0  0  0  0  0  0  0  0  0  0  0
  139.2300   67.8500  225.0500 C   0  0  0  0  0  0  0  0  0  0  0  0
  139.8360   68.4820  226.1220 C   0  0  0  0  0  0  0  0  0  0  0  0
  140.1670   67.8140  227.2890 C   0  0  0  0  0  0  0  0  0  0  0  0
  140.7740   68.5420  228.3110 C   0  0  0  0  0  0  0  0  0  0  0  0
  141.1070   67.9020  229.4640 F   0  0  0  0  0  0  0  0  0  0  0  0
  141.0280   69.8910  228.1390 C   0  0  0  0  0  0  0  0  0  0  0  0
  140.6990   70.5600  226.9750 C   0  0  0  0  0  0  0  0  0  0  0  0
  140.0980   69.8280  225.9720 C   0  0  0  0  0  0  0  0  0  0  0  0
  139.7790   70.4880  224.8400 N   0  0  0  0  0  0  0  0  0  0  0  0
  139.5950   69.1370  221.2940 H   0  0  0  0  0  0  0  0  0  0  0  0
  138.4465   70.0359  219.3577 H   0  0  0  0  0  0  0  0  0  0  0  0
  138.1533   71.5753  220.2732 H   0  0  0  0  0  0  0  0  0  0  0  0
  139.6073   72.5480  221.9577 H   0  0  0  0  0  0  0  0  0  0  0  0
  141.3510   72.2872  222.1208 H   0  0  0  0  0  0  0  0  0  0  0  0
  141.7233   74.6292  222.1200 H   0  0  0  0  0  0  0  0  0  0  0  0
  139.2180   74.1400  222.7190 H   0  0  0  0  0  0  0  0  0  0  0  0
  139.6782   74.8493  219.8188 H   0  0  0  0  0  0  0  0  0  0  0  0
  141.1480   75.7464  219.9519 H   0  0  0  0  0  0  0  0  0  0  0  0
  141.4774   73.5708  218.4382 H   0  0  0  0  0  0  0  0  0  0  0  0
  143.0697   71.4745  220.2622 H   0  0  0  0  0  0  0  0  0  0  0  0
  145.4270   71.6042  220.9733 H   0  0  0  0  0  0  0  0  0  0  0  0
  146.5761   73.8244  221.0984 H   0  0  0  0  0  0  0  0  0  0  0  0
  145.2858   75.8558  220.4929 H   0  0  0  0  0  0  0  0  0  0  0  0
  142.9487   75.7139  219.7905 H   0  0  0  0  0  0  0  0  0  0  0  0
  138.4235   68.0114  223.0404 H   0  0  0  0  0  0  0  0  0  0  0  0
  138.9998   66.7768  225.1226 H   0  0  0  0  0  0  0  0  0  0  0  0
  139.9571   66.7406  227.4060 H   0  0  0  0  0  0  0  0  0  0  0  0
  141.5078   70.4500  228.9559 H   0  0  0  0  0  0  0  0  0  0  0  0
  140.9081   71.6331  226.8534 H   0  0  0  0  0  0  0  0  0  0  0  0
  1  2  2  0
  2  3  1  0
  3  4  1  0
  4  5  1  0
  5  6  2  0
  5  7  1  0
  7  8  1  0
  8  9  1  0
  9 10  1  0
  9 11  1  0
 11 12  1  0
 12 13  1  0
 13 14  2  0
 14 15  1  0
 15 16  2  0
 16 17  1  0
 17 18  2  0
  2 19  1  0
 19 20  2  0
 20 21  1  0
 21 22  2  0
 22 23  1  0
 23 24  2  0
 24 25  1  0
 24 26  1  0
 26 27  2  0
 27 28  1  0
 28 29  2  0
 12  7  1  0
 18 13  1  0
 29 19  1  0
 28 22  1  0
  3 30  1  0
  4 31  1  0
  4 32  1  0
  8 33  1  0
  8 34  1  0
  9 35  1  1
 10 36  1  0
 11 37  1  0
 11 38  1  0
 12 39  1  6
 14 40  1  0
 15 41  1  0
 16 42  1  0
 17 43  1  0
 18 44  1  0
 20 45  1  0
 21 46  1  0
 23 47  1  0
 26 48  1  0
 27 49  1  0
M  END
>  <smiles>  (24) 
O=C(NCC(=O)N1C[C@H](O)C[C@H]1c1ccccc1)c1ccc2cc(F)ccc2n1

>  <score_type>  (24) 
oracle

>  <origin>  (24) 
autodockgpu

>  <m_score__min__energy>  (24) 
-8.6600000000000001

>  <m_primary>  (24) 
energy

>  <rmsd>  (24) 
2.8801737313700717

>  <m_score__min__rmsd>  (24) 
2.8801737313700717

>  <meeko>  (24) 
{"free_energy": -7.43, "intermolecular_energy": -9.22, "internal_energy": -1.46, "cluster_size": 1, "cluster_id": 4, "rank_in_cluster": 1}

>  <energy>  (24) 
-8.49

>  <cluster_rmsd>  (24) 
0.94

>  <cluster>  (24) 
1

$$$$

     RDKit          3D

 49 52  0  0  0  0  0  0  0  0999 V2000
  141.3580   72.2060  221.4770 O   0  0  0  0  0  0  0  0  0  0  0  0
  140.4210   72.4130  222.3180 C   0  0  0  0  0  0  0  0  0  0  0  0
  139.5440   73.5070  222.1750 N   0  0  0  0  0  0  0  0  0  0  0  0
  139.6370   74.4580  221.0870 C   0  0  0  0  0  0  0  0  0  0  0  0
  140.7100   75.4540  221.3120 C   0  0  0  0  0  0  0  0  0  0  0  0
  140.7580   76.2200  222.3080 O   0  0  0  0  0  0  0  0  0  0  0  0
  141.7470   75.5510  220.3470 N   0  0  0  0  0  0  0  0  0  0  0  0
  142.6590   76.6860  220.1380 C   0  0  0  0  0  0  0  0  0  0  0  0
  143.1310   76.5800  218.7010 C   0  0  2  0  0  0  0  0  0  0  0  0
  142.9490   77.7880  218.0370 O   0  0  0  0  0  0  0  0  0  0  0  0
  142.2350   75.4870  218.1360 C   0  0  0  0  0  0  0  0  0  0  0  0
  142.1630   74.5800  219.3430 C   0  0  1  0  0  0  0  0  0  0  0  0
  143.4860   74.0270  219.6170 C   0  0  0  0  0  0  0  0  0  0  0  0
  144.1250   74.0090  220.8320 C   0  0  0  0  0  0  0  0  0  0  0  0
  145.3880   73.4590  221.0150 C   0  0  0  0  0  0  0  0  0  0  0  0
  146.0580   72.8970  219.9430 C   0  0  0  0  0  0  0  0  0  0  0  0
  145.4280   72.9090  218.7180 C   0  0  0  0  0  0  0  0  0  0  0  0
  144.1800   73.4560  218.5530 C   0  0  0  0  0  0  0  0  0  0  0  0
  140.2460   71.4990  223.4570 C   0  0  0  0  0  0  0  0  0  0  0  0
  139.6060   70.2840  223.2990 C   0  0  0  0  0  0  0  0  0  0  0  0
  139.4610   69.4460  224.4060 C   0  0  0  0  0  0  0  0  0  0  0  0
  139.9410   69.7980  225.6560 C   0  0  0  0  0  0  0  0  0  0  0  0
  139.8040   68.9770  226.7620 C   0  0  0  0  0  0  0  0  0  0  0  0
  140.3230   69.4250  227.9770 C   0  0  0  0  0  0  0  0  0  0  0  0
  140.1980   68.6310  229.0750 F   0  0  0  0  0  0  0  0  0  0  0  0
  140.9500   70.6560  228.0470 C   0  0  0  0  0  0  0  0  0  0  0  0
  141.0870   71.4770  226.9430 C   0  0  0  0  0  0  0  0  0  0  0  0
  140.5700   71.0220  225.7480 C   0  0  0  0  0  0  0  0  0  0  0  0
  140.7070   71.8290  224.6760 N   0  0  0  0  0  0  0  0  0  0  0  0
  138.7910   73.6280  222.8960 H   0  0  0  0  0  0  0  0  0  0  0  0
  139.8482   73.9125  220.1554 H   0  0  0  0  0  0  0  0  0  0  0  0
  138.6803   74.9971  221.0237 H   0  0  0  0  0  0  0  0  0  0  0  0
  142.1295   77.6369  220.2978 H   0  0  0  0  0  0  0  0  0  0  0  0
  143.5028   76.6615  220.8433 H   0  0  0  0  0  0  0  0  0  0  0  0
  144.2019   76.3508  218.5982 H   0  0  0  0  0  0  0  0  0  0  0  0
  143.5200   78.4520  218.5410 H   0  0  0  0  0  0  0  0  0  0  0  0
  141.2448   75.8731  217.8524 H   0  0  0  0  0  0  0  0  0  0  0  0
  142.5986   75.0122  217.2128 H   0  0  0  0  0  0  0  0  0  0  0  0
  141.5029   73.7035  219.2659 H   0  0  0  0  0  0  0  0  0  0  0  0
  143.6138   74.4501  221.7004 H   0  0  0  0  0  0  0  0  0  0  0  0
  145.8545   73.4705  222.0111 H   0  0  0  0  0  0  0  0  0  0  0  0
  147.0584   72.4562  220.0645 H   0  0  0  0  0  0  0  0  0  0  0  0
  145.9387   72.4685  217.8490 H   0  0  0  0  0  0  0  0  0  0  0  0
  143.7164   73.4431  217.5555 H   0  0  0  0  0  0  0  0  0  0  0  0
  139.2167   69.9819  222.3155 H   0  0  0  0  0  0  0  0  0  0  0  0
  138.9512   68.4792  224.2817 H   0  0  0  0  0  0  0  0  0  0  0  0
  139.3015   68.0015  226.6853 H   0  0  0  0  0  0  0  0  0  0  0  0
  141.3531   70.9930  229.0134 H   0  0  0  0  0  0  0  0  0  0  0  0
  141.5881   72.4536  227.0148 H   0  0  0  0  0  0  0  0  0  0  0  0
  1  2  2  0
  2  3  1  0
  3  4  1  0
  4  5  1  0
  5  6  2  0
  5  7  1  0
  7  8  1  0
  8  9  1  0
  9 10  1  0
  9 11  1  0
 11 12  1  0
 12 13  1  0
 13 14  2  0
 14 15  1  0
 15 16  2  0
 16 17  1  0
 17 18  2  0
  2 19  1  0
 19 20  2  0
 20 21  1  0
 21 22  2  0
 22 23  1  0
 23 24  2  0
 24 25  1  0
 24 26  1  0
 26 27  2  0
 27 28  1  0
 28 29  2  0
 12  7  1  0
 18 13  1  0
 29 19  1  0
 28 22  1  0
  3 30  1  0
  4 31  1  0
  4 32  1  0
  8 33  1  0
  8 34  1  0
  9 35  1  1
 10 36  1  0
 11 37  1  0
 11 38  1  0
 12 39  1  6
 14 40  1  0
 15 41  1  0
 16 42  1  0
 17 43  1  0
 18 44  1  0
 20 45  1  0
 21 46  1  0
 23 47  1  0
 26 48  1  0
 27 49  1  0
M  END
>  <smiles>  (25) 
O=C(NCC(=O)N1C[C@H](O)C[C@H]1c1ccccc1)c1ccc2cc(F)ccc2n1

>  <score_type>  (25) 
oracle

>  <origin>  (25) 
autodockgpu

>  <m_score__min__energy>  (25) 
-8.6600000000000001

>  <m_primary>  (25) 
energy

>  <rmsd>  (25) 
2.3327499020117592

>  <m_score__min__rmsd>  (25) 
2.3327499020117592

>  <meeko>  (25) 
{"free_energy": -8.31, "intermolecular_energy": -10.1, "internal_energy": -1.51, "cluster_size": 10, "cluster_id": 2, "rank_in_cluster": 8}

>  <energy>  (25) 
-8.48

>  <cluster_rmsd>  (25) 
1.44

>  <cluster>  (25) 
1

$$$$

     RDKit          3D

 49 52  0  0  0  0  0  0  0  0999 V2000
  141.3770   72.4260  221.6360 O   0  0  0  0  0  0  0  0  0  0  0  0
  140.4150   72.5830  222.4600 C   0  0  0  0  0  0  0  0  0  0  0  0
  139.5210   73.6650  222.3340 N   0  0  0  0  0  0  0  0  0  0  0  0
  139.6240   74.6590  221.2850 C   0  0  0  0  0  0  0  0  0  0  0  0
  139.2950   76.0180  221.7760 C   0  0  0  0  0  0  0  0  0  0  0  0
  138.3860   76.2620  222.6090 O   0  0  0  0  0  0  0  0  0  0  0  0
  140.0500   77.1110  221.2740 N   0  0  0  0  0  0  0  0  0  0  0  0
  139.6020   78.1290  220.3110 C   0  0  0  0  0  0  0  0  0  0  0  0
  140.8610   78.6680  219.6620 C   0  0  2  0  0  0  0  0  0  0  0  0
  140.7510   78.6290  218.2760 O   0  0  0  0  0  0  0  0  0  0  0  0
  141.9330   77.7130  220.1680 C   0  0  0  0  0  0  0  0  0  0  0  0
  141.4230   77.4960  221.5750 C   0  0  1  0  0  0  0  0  0  0  0  0
  141.5000   78.7480  222.3210 C   0  0  0  0  0  0  0  0  0  0  0  0
  142.5560   79.6250  222.3330 C   0  0  0  0  0  0  0  0  0  0  0  0
  142.5530   80.8030  223.0690 C   0  0  0  0  0  0  0  0  0  0  0  0
  141.4500   81.1360  223.8350 C   0  0  0  0  0  0  0  0  0  0  0  0
  140.3840   80.2640  223.8320 C   0  0  0  0  0  0  0  0  0  0  0  0
  140.4010   79.1040  223.1000 C   0  0  0  0  0  0  0  0  0  0  0  0
  140.2280   71.6240  223.5590 C   0  0  0  0  0  0  0  0  0  0  0  0
  139.5750   70.4230  223.3480 C   0  0  0  0  0  0  0  0  0  0  0  0
  139.4190   69.5410  224.4180 C   0  0  0  0  0  0  0  0  0  0  0  0
  139.9020   69.8340  225.6820 C   0  0  0  0  0  0  0  0  0  0  0  0
  139.7550   68.9690  226.7530 C   0  0  0  0  0  0  0  0  0  0  0  0
  140.2770   69.3580  227.9860 C   0  0  0  0  0  0  0  0  0  0  0  0
  140.1430   68.5200  229.0490 F   0  0  0  0  0  0  0  0  0  0  0  0
  140.9180   70.5780  228.1090 C   0  0  0  0  0  0  0  0  0  0  0  0
  141.0660   71.4430  227.0410 C   0  0  0  0  0  0  0  0  0  0  0  0
  140.5450   71.0460  225.8270 C   0  0  0  0  0  0  0  0  0  0  0  0
  140.6920   71.8960  224.7900 N   0  0  0  0  0  0  0  0  0  0  0  0
  138.7470   73.7450  223.0400 H   0  0  0  0  0  0  0  0  0  0  0  0
  140.6532   74.6608  220.8968 H   0  0  0  0  0  0  0  0  0  0  0  0
  138.9028   74.3979  220.4965 H   0  0  0  0  0  0  0  0  0  0  0  0
  138.9446   77.6767  219.5539 H   0  0  0  0  0  0  0  0  0  0  0  0
  139.0279   78.9272  220.8043 H   0  0  0  0  0  0  0  0  0  0  0  0
  141.0747   79.7188  219.9071 H   0  0  0  0  0  0  0  0  0  0  0  0
  140.0710   77.9070  218.0880 H   0  0  0  0  0  0  0  0  0  0  0  0
  141.9560   76.7773  219.5901 H   0  0  0  0  0  0  0  0  0  0  0  0
  142.9659   78.0842  220.0944 H   0  0  0  0  0  0  0  0  0  0  0  0
  141.9684   76.7677  222.1932 H   0  0  0  0  0  0  0  0  0  0  0  0
  143.4453   79.3838  221.7322 H   0  0  0  0  0  0  0  0  0  0  0  0
  143.4269   81.4706  223.0429 H   0  0  0  0  0  0  0  0  0  0  0  0
  141.4254   82.0639  224.4252 H   0  0  0  0  0  0  0  0  0  0  0  0
  139.4946   80.5043  224.4330 H   0  0  0  0  0  0  0  0  0  0  0  0
  139.5256   78.4386  223.1287 H   0  0  0  0  0  0  0  0  0  0  0  0
  139.1846   70.1671  222.3519 H   0  0  0  0  0  0  0  0  0  0  0  0
  138.8979   68.5865  224.2526 H   0  0  0  0  0  0  0  0  0  0  0  0
  139.2416   68.0034  226.6347 H   0  0  0  0  0  0  0  0  0  0  0  0
  141.3233   70.8693  229.0892 H   0  0  0  0  0  0  0  0  0  0  0  0
  141.5788   72.4095  227.1547 H   0  0  0  0  0  0  0  0  0  0  0  0
  1  2  2  0
  2  3  1  0
  3  4  1  0
  4  5  1  0
  5  6  2  0
  5  7  1  0
  7  8  1  0
  8  9  1  0
  9 10  1  0
  9 11  1  0
 11 12  1  0
 12 13  1  0
 13 14  2  0
 14 15  1  0
 15 16  2  0
 16 17  1  0
 17 18  2  0
  2 19  1  0
 19 20  2  0
 20 21  1  0
 21 22  2  0
 22 23  1  0
 23 24  2  0
 24 25  1  0
 24 26  1  0
 26 27  2  0
 27 28  1  0
 28 29  2  0
 12  7  1  0
 18 13  1  0
 29 19  1  0
 28 22  1  0
  3 30  1  0
  4 31  1  0
  4 32  1  0
  8 33  1  0
  8 34  1  0
  9 35  1  1
 10 36  1  0
 11 37  1  0
 11 38  1  0
 12 39  1  1
 14 40  1  0
 15 41  1  0
 16 42  1  0
 17 43  1  0
 18 44  1  0
 20 45  1  0
 21 46  1  0
 23 47  1  0
 26 48  1  0
 27 49  1  0
M  END
>  <smiles>  (26) 
O=C(NCC(=O)N1C[C@H](O)C[C@H]1c1ccccc1)c1ccc2cc(F)ccc2n1

>  <score_type>  (26) 
oracle

>  <origin>  (26) 
autodockgpu

>  <m_score__min__energy>  (26) 
-8.6600000000000001

>  <m_primary>  (26) 
energy

>  <rmsd>  (26) 
2.1586674581345844

>  <m_score__min__rmsd>  (26) 
2.1586674581345844

>  <meeko>  (26) 
{"free_energy": -8.55, "intermolecular_energy": -10.34, "internal_energy": -1.29, "cluster_size": 37, "cluster_id": 1, "rank_in_cluster": 19}

>  <energy>  (26) 
-8.43

>  <cluster_rmsd>  (26) 
1.56

>  <cluster>  (26) 
1

$$$$

     RDKit          3D

 49 52  0  0  0  0  0  0  0  0999 V2000
  138.7700   71.2490  221.3690 O   0  0  0  0  0  0  0  0  0  0  0  0
  139.2320   71.7020  222.4700 C   0  0  0  0  0  0  0  0  0  0  0  0
  139.5610   73.0650  222.6140 N   0  0  0  0  0  0  0  0  0  0  0  0
  139.4030   74.0340  221.5490 C   0  0  0  0  0  0  0  0  0  0  0  0
  140.4710   75.0600  221.5720 C   0  0  0  0  0  0  0  0  0  0  0  0
  141.7000   74.7940  221.5860 O   0  0  0  0  0  0  0  0  0  0  0  0
  140.0850   76.4270  221.5790 N   0  0  0  0  0  0  0  0  0  0  0  0
  138.8910   77.0060  222.2130 C   0  0  0  0  0  0  0  0  0  0  0  0
  138.6100   78.2970  221.4680 C   0  0  2  0  0  0  0  0  0  0  0  0
  137.2850   78.3410  221.0510 O   0  0  0  0  0  0  0  0  0  0  0  0
  139.5690   78.2160  220.2890 C   0  0  0  0  0  0  0  0  0  0  0  0
  140.7530   77.5750  220.9780 C   0  0  1  0  0  0  0  0  0  0  0  0
  141.2910   78.4920  221.9770 C   0  0  0  0  0  0  0  0  0  0  0  0
  141.4560   78.2340  223.3150 C   0  0  0  0  0  0  0  0  0  0  0  0
  141.9810   79.1620  224.2060 C   0  0  0  0  0  0  0  0  0  0  0  0
  142.3650   80.4120  223.7550 C   0  0  0  0  0  0  0  0  0  0  0  0
  142.2040   80.6840  222.4140 C   0  0  0  0  0  0  0  0  0  0  0  0
  141.6840   79.7570  221.5460 C   0  0  0  0  0  0  0  0  0  0  0  0
  139.4260   70.7940  223.6110 C   0  0  0  0  0  0  0  0  0  0  0  0
  139.0160   69.4750  223.5440 C   0  0  0  0  0  0  0  0  0  0  0  0
  139.2190   68.6470  224.6490 C   0  0  0  0  0  0  0  0  0  0  0  0
  139.8200   69.1090  225.8070 C   0  0  0  0  0  0  0  0  0  0  0  0
  140.0280   68.2990  226.9100 C   0  0  0  0  0  0  0  0  0  0  0  0
  140.6420   68.8610  228.0290 C   0  0  0  0  0  0  0  0  0  0  0  0
  140.8550   68.0800  229.1220 F   0  0  0  0  0  0  0  0  0  0  0  0
  141.0220   70.1910  228.0110 C   0  0  0  0  0  0  0  0  0  0  0  0
  140.8150   71.0010  226.9100 C   0  0  0  0  0  0  0  0  0  0  0  0
  140.2070   70.4330  225.8110 C   0  0  0  0  0  0  0  0  0  0  0  0
  140.0080   71.2300  224.7410 N   0  0  0  0  0  0  0  0  0  0  0  0
  139.9360   73.3820  223.5420 H   0  0  0  0  0  0  0  0  0  0  0  0
  139.4352   73.5089  220.5829 H   0  0  0  0  0  0  0  0  0  0  0  0
  138.4384   74.5431  221.6920 H   0  0  0  0  0  0  0  0  0  0  0  0
  138.0376   76.3180  222.1218 H   0  0  0  0  0  0  0  0  0  0  0  0
  139.0504   77.1854  223.2865 H   0  0  0  0  0  0  0  0  0  0  0  0
  138.7534   79.2036  222.0742 H   0  0  0  0  0  0  0  0  0  0  0  0
  137.2970   77.9860  220.1050 H   0  0  0  0  0  0  0  0  0  0  0  0
  139.1731   77.5845  219.4800 H   0  0  0  0  0  0  0  0  0  0  0  0
  139.7788   79.1726  219.7880 H   0  0  0  0  0  0  0  0  0  0  0  0
  141.6138   77.3136  220.3450 H   0  0  0  0  0  0  0  0  0  0  0  0
  141.1589   77.2472  223.6996 H   0  0  0  0  0  0  0  0  0  0  0  0
  142.0912   78.9028  225.2693 H   0  0  0  0  0  0  0  0  0  0  0  0
  142.7838   81.1619  224.4423 H   0  0  0  0  0  0  0  0  0  0  0  0
  142.5002   81.6708  222.0287 H   0  0  0  0  0  0  0  0  0  0  0  0
  141.5748   80.0194  220.4834 H   0  0  0  0  0  0  0  0  0  0  0  0
  138.5373   69.0845  222.6339 H   0  0  0  0  0  0  0  0  0  0  0  0
  138.8922   67.5979  224.5982 H   0  0  0  0  0  0  0  0  0  0  0  0
  139.7182   67.2435  226.9041 H   0  0  0  0  0  0  0  0  0  0  0  0
  141.5049   70.6182  228.9022 H   0  0  0  0  0  0  0  0  0  0  0  0
  141.1233   72.0569  226.9109 H   0  0  0  0  0  0  0  0  0  0  0  0
  1  2  2  0
  2  3  1  0
  3  4  1  0
  4  5  1  0
  5  6  2  0
  5  7  1  0
  7  8  1  0
  8  9  1  0
  9 10  1  0
  9 11  1  0
 11 12  1  0
 12 13  1  0
 13 14  2  0
 14 15  1  0
 15 16  2  0
 16 17  1  0
 17 18  2  0
  2 19  1  0
 19 20  2  0
 20 21  1  0
 21 22  2  0
 22 23  1  0
 23 24  2  0
 24 25  1  0
 24 26  1  0
 26 27  2  0
 27 28  1  0
 28 29  2  0
 12  7  1  0
 18 13  1  0
 29 19  1  0
 28 22  1  0
  3 30  1  0
  4 31  1  0
  4 32  1  0
  8 33  1  0
  8 34  1  0
  9 35  1  1
 10 36  1  0
 11 37  1  0
 11 38  1  0
 12 39  1  6
 14 40  1  0
 15 41  1  0
 16 42  1  0
 17 43  1  0
 18 44  1  0
 20 45  1  0
 21 46  1  0
 23 47  1  0
 26 48  1  0
 27 49  1  0
M  END
>  <smiles>  (27) 
O=C(NCC(=O)N1C[C@H](O)C[C@H]1c1ccccc1)c1ccc2cc(F)ccc2n1

>  <score_type>  (27) 
oracle

>  <origin>  (27) 
autodockgpu

>  <m_score__min__energy>  (27) 
-8.6600000000000001

>  <m_primary>  (27) 
energy

>  <rmsd>  (27) 
2.164799347306104

>  <m_score__min__rmsd>  (27) 
2.164799347306104

>  <meeko>  (27) 
{"free_energy": -8.17, "intermolecular_energy": -9.96, "internal_energy": -1.4, "cluster_size": 37, "cluster_id": 1, "rank_in_cluster": 35}

>  <energy>  (27) 
-8.43

>  <cluster_rmsd>  (27) 
1.48

>  <cluster>  (27) 
1

$$$$

     RDKit          3D

 49 52  0  0  0  0  0  0  0  0999 V2000
  139.7710   71.7900  221.0410 O   0  0  0  0  0  0  0  0  0  0  0  0
  139.7330   72.2940  222.2130 C   0  0  0  0  0  0  0  0  0  0  0  0
  139.5870   73.6830  222.4010 N   0  0  0  0  0  0  0  0  0  0  0  0
  139.4710   74.6230  221.3050 C   0  0  0  0  0  0  0  0  0  0  0  0
  139.1610   75.9910  221.7790 C   0  0  0  0  0  0  0  0  0  0  0  0
  138.2130   76.2660  222.5580 O   0  0  0  0  0  0  0  0  0  0  0  0
  139.9830   77.0580  221.3280 N   0  0  0  0  0  0  0  0  0  0  0  0
  139.6450   78.0670  220.3120 C   0  0  0  0  0  0  0  0  0  0  0  0
  140.9690   78.5660  219.7670 C   0  0  2  0  0  0  0  0  0  0  0  0
  140.9790   78.5040  218.3780 O   0  0  0  0  0  0  0  0  0  0  0  0
  141.9690   77.5970  220.3810 C   0  0  0  0  0  0  0  0  0  0  0  0
  141.3330   77.4180  221.7410 C   0  0  1  0  0  0  0  0  0  0  0  0
  141.3750   78.6820  222.4700 C   0  0  0  0  0  0  0  0  0  0  0  0
  140.3360   79.2610  223.1550 C   0  0  0  0  0  0  0  0  0  0  0  0
  140.4550   80.4700  223.8290 C   0  0  0  0  0  0  0  0  0  0  0  0
  141.6630   81.1450  223.8290 C   0  0  0  0  0  0  0  0  0  0  0  0
  142.7130   80.5740  223.1440 C   0  0  0  0  0  0  0  0  0  0  0  0
  142.5810   79.3790  222.4830 C   0  0  0  0  0  0  0  0  0  0  0  0
  139.8430   71.4190  223.3900 C   0  0  0  0  0  0  0  0  0  0  0  0
  139.4660   70.0900  223.3220 C   0  0  0  0  0  0  0  0  0  0  0  0
  139.5860   69.2950  224.4620 C   0  0  0  0  0  0  0  0  0  0  0  0
  140.0730   69.7980  225.6570 C   0  0  0  0  0  0  0  0  0  0  0  0
  140.1980   69.0200  226.7950 C   0  0  0  0  0  0  0  0  0  0  0  0
  140.6990   69.6230  227.9480 C   0  0  0  0  0  0  0  0  0  0  0  0
  140.8290   68.8740  229.0760 F   0  0  0  0  0  0  0  0  0  0  0  0
  141.0530   70.9600  227.9280 C   0  0  0  0  0  0  0  0  0  0  0  0
  140.9290   71.7380  226.7920 C   0  0  0  0  0  0  0  0  0  0  0  0
  140.4320   71.1300  225.6590 C   0  0  0  0  0  0  0  0  0  0  0  0
  140.3140   71.8950  224.5550 N   0  0  0  0  0  0  0  0  0  0  0  0
  139.5620   74.0430  223.3880 H   0  0  0  0  0  0  0  0  0  0  0  0
  140.4226   74.6451  220.7537 H   0  0  0  0  0  0  0  0  0  0  0  0
  138.6448   74.2916  220.6587 H   0  0  0  0  0  0  0  0  0  0  0  0
  139.0460   77.6148  219.5078 H   0  0  0  0  0  0  0  0  0  0  0  0
  139.0488   78.8868  220.7390 H   0  0  0  0  0  0  0  0  0  0  0  0
  141.1861   79.6161  220.0123 H   0  0  0  0  0  0  0  0  0  0  0  0
  141.6060   77.7440  218.1550 H   0  0  0  0  0  0  0  0  0  0  0  0
  142.0199   76.6503  219.8231 H   0  0  0  0  0  0  0  0  0  0  0  0
  143.0130   77.9434  220.3923 H   0  0  0  0  0  0  0  0  0  0  0  0
  141.8047   76.6893  222.4167 H   0  0  0  0  0  0  0  0  0  0  0  0
  139.3650   78.7443  223.1710 H   0  0  0  0  0  0  0  0  0  0  0  0
  139.5896   80.8904  224.3623 H   0  0  0  0  0  0  0  0  0  0  0  0
  141.7806   82.1029  224.3569 H   0  0  0  0  0  0  0  0  0  0  0  0
  143.6841   81.0904  223.1265 H   0  0  0  0  0  0  0  0  0  0  0  0
  143.4482   78.9613  221.9506 H   0  0  0  0  0  0  0  0  0  0  0  0
  139.0777   69.6666  222.3839 H   0  0  0  0  0  0  0  0  0  0  0  0
  139.2852   68.2382  224.4103 H   0  0  0  0  0  0  0  0  0  0  0  0
  139.9108   67.9582  226.7899 H   0  0  0  0  0  0  0  0  0  0  0  0
  141.4463   71.4196  228.8467 H   0  0  0  0  0  0  0  0  0  0  0  0
  141.2155   72.8000  226.7922 H   0  0  0  0  0  0  0  0  0  0  0  0
  1  2  2  0
  2  3  1  0
  3  4  1  0
  4  5  1  0
  5  6  2  0
  5  7  1  0
  7  8  1  0
  8  9  1  0
  9 10  1  0
  9 11  1  0
 11 12  1  0
 12 13  1  0
 13 14  2  0
 14 15  1  0
 15 16  2  0
 16 17  1  0
 17 18  2  0
  2 19  1  0
 19 20  2  0
 20 21  1  0
 21 22  2  0
 22 23  1  0
 23 24  2  0
 24 25  1  0
 24 26  1  0
 26 27  2  0
 27 28  1  0
 28 29  2  0
 12  7  1  0
 18 13  1  0
 29 19  1  0
 28 22  1  0
  3 30  1  0
  4 31  1  0
  4 32  1  0
  8 33  1  0
  8 34  1  0
  9 35  1  6
 10 36  1  0
 11 37  1  0
 11 38  1  0
 12 39  1  1
 14 40  1  0
 15 41  1  0
 16 42  1  0
 17 43  1  0
 18 44  1  0
 20 45  1  0
 21 46  1  0
 23 47  1  0
 26 48  1  0
 27 49  1  0
M  END
>  <smiles>  (28) 
O=C(NCC(=O)N1C[C@H](O)C[C@H]1c1ccccc1)c1ccc2cc(F)ccc2n1

>  <score_type>  (28) 
oracle

>  <origin>  (28) 
autodockgpu

>  <m_score__min__energy>  (28) 
-8.6600000000000001

>  <m_primary>  (28) 
energy

>  <rmsd>  (28) 
2.083093474752563

>  <m_score__min__rmsd>  (28) 
2.083093474752563

>  <meeko>  (28) 
{"free_energy": -8.21, "intermolecular_energy": -10.0, "internal_energy": -1.42, "cluster_size": 37, "cluster_id": 1, "rank_in_cluster": 34}

>  <energy>  (28) 
-8.38

>  <cluster_rmsd>  (28) 
1.13

>  <cluster>  (28) 
1

$$$$

     RDKit          3D

 49 52  0  0  0  0  0  0  0  0999 V2000
  139.4540   71.3890  221.0760 O   0  0  0  0  0  0  0  0  0  0  0  0
  139.5420   71.8990  222.2430 C   0  0  0  0  0  0  0  0  0  0  0  0
  139.5450   73.2960  222.4270 N   0  0  0  0  0  0  0  0  0  0  0  0
  139.4500   74.2380  221.3310 C   0  0  0  0  0  0  0  0  0  0  0  0
  140.5910   75.1830  221.3120 C   0  0  0  0  0  0  0  0  0  0  0  0
  141.7940   74.8300  221.3920 O   0  0  0  0  0  0  0  0  0  0  0  0
  140.3090   76.5700  221.1970 N   0  0  0  0  0  0  0  0  0  0  0  0
  139.0360   77.2430  221.4960 C   0  0  0  0  0  0  0  0  0  0  0  0
  139.0410   78.5220  220.6820 C   0  0  2  0  0  0  0  0  0  0  0  0
  137.8710   78.6340  219.9390 O   0  0  0  0  0  0  0  0  0  0  0  0
  140.2600   78.3430  219.7880 C   0  0  0  0  0  0  0  0  0  0  0  0
  141.1840   77.6540  220.7670 C   0  0  1  0  0  0  0  0  0  0  0  0
  141.5130   78.5690  221.8550 C   0  0  0  0  0  0  0  0  0  0  0  0
  141.4840   78.2830  223.1980 C   0  0  0  0  0  0  0  0  0  0  0  0
  141.8150   79.2110  224.1770 C   0  0  0  0  0  0  0  0  0  0  0  0
  142.1950   80.4910  223.8140 C   0  0  0  0  0  0  0  0  0  0  0  0
  142.2270   80.7920  222.4710 C   0  0  0  0  0  0  0  0  0  0  0  0
  141.8980   79.8640  221.5140 C   0  0  0  0  0  0  0  0  0  0  0  0
  139.6420   71.0220  223.4200 C   0  0  0  0  0  0  0  0  0  0  0  0
  139.2210   69.7060  223.3610 C   0  0  0  0  0  0  0  0  0  0  0  0
  139.3330   68.9080  224.4990 C   0  0  0  0  0  0  0  0  0  0  0  0
  139.8560   69.3960  225.6850 C   0  0  0  0  0  0  0  0  0  0  0  0
  139.9740   68.6150  226.8220 C   0  0  0  0  0  0  0  0  0  0  0  0
  140.5130   69.2030  227.9660 C   0  0  0  0  0  0  0  0  0  0  0  0
  140.6370   68.4510  229.0930 F   0  0  0  0  0  0  0  0  0  0  0  0
  140.9110   70.5270  227.9380 C   0  0  0  0  0  0  0  0  0  0  0  0
  140.7940   71.3080  226.8030 C   0  0  0  0  0  0  0  0  0  0  0  0
  140.2580   70.7150  225.6790 C   0  0  0  0  0  0  0  0  0  0  0  0
  140.1480   71.4830  224.5760 N   0  0  0  0  0  0  0  0  0  0  0  0
  139.6190   73.6600  223.4090 H   0  0  0  0  0  0  0  0  0  0  0  0
  139.4350   73.6800  220.3832 H   0  0  0  0  0  0  0  0  0  0  0  0
  138.5271   74.8217  221.4632 H   0  0  0  0  0  0  0  0  0  0  0  0
  138.1884   76.6061  221.2028 H   0  0  0  0  0  0  0  0  0  0  0  0
  138.9309   77.4491  222.5714 H   0  0  0  0  0  0  0  0  0  0  0  0
  139.0867   79.4376  221.2899 H   0  0  0  0  0  0  0  0  0  0  0  0
  137.5590   77.6840  219.8010 H   0  0  0  0  0  0  0  0  0  0  0  0
  140.0403   77.7104  218.9154 H   0  0  0  0  0  0  0  0  0  0  0  0
  140.6544   79.2675  219.3411 H   0  0  0  0  0  0  0  0  0  0  0  0
  142.1572   77.3191  220.3788 H   0  0  0  0  0  0  0  0  0  0  0  0
  141.1848   77.2724  223.5128 H   0  0  0  0  0  0  0  0  0  0  0  0
  141.7751   78.9288  225.2394 H   0  0  0  0  0  0  0  0  0  0  0  0
  142.4622   81.2419  224.5721 H   0  0  0  0  0  0  0  0  0  0  0  0
  142.5242   81.8032  222.1561 H   0  0  0  0  0  0  0  0  0  0  0  0
  141.9393   80.1498  220.4526 H   0  0  0  0  0  0  0  0  0  0  0  0
  138.8039   69.2948  222.4299 H   0  0  0  0  0  0  0  0  0  0  0  0
  138.9966   67.8617  224.4535 H   0  0  0  0  0  0  0  0  0  0  0  0
  139.6525   67.5630  226.8231 H   0  0  0  0  0  0  0  0  0  0  0  0
  141.3349   70.9739  228.8493 H   0  0  0  0  0  0  0  0  0  0  0  0
  141.1155   72.3600  226.7967 H   0  0  0  0  0  0  0  0  0  0  0  0
  1  2  2  0
  2  3  1  0
  3  4  1  0
  4  5  1  0
  5  6  2  0
  5  7  1  0
  7  8  1  0
  8  9  1  0
  9 10  1  0
  9 11  1  0
 11 12  1  0
 12 13  1  0
 13 14  2  0
 14 15  1  0
 15 16  2  0
 16 17  1  0
 17 18  2  0
  2 19  1  0
 19 20  2  0
 20 21  1  0
 21 22  2  0
 22 23  1  0
 23 24  2  0
 24 25  1  0
 24 26  1  0
 26 27  2  0
 27 28  1  0
 28 29  2  0
 12  7  1  0
 18 13  1  0
 29 19  1  0
 28 22  1  0
  3 30  1  0
  4 31  1  0
  4 32  1  0
  8 33  1  0
  8 34  1  0
  9 35  1  1
 10 36  1  0
 11 37  1  0
 11 38  1  0
 12 39  1  6
 14 40  1  0
 15 41  1  0
 16 42  1  0
 17 43  1  0
 18 44  1  0
 20 45  1  0
 21 46  1  0
 23 47  1  0
 26 48  1  0
 27 49  1  0
M  END
>  <smiles>  (29) 
O=C(NCC(=O)N1C[C@H](O)C[C@H]1c1ccccc1)c1ccc2cc(F)ccc2n1

>  <score_type>  (29) 
oracle

>  <origin>  (29) 
autodockgpu

>  <m_score__min__energy>  (29) 
-8.6600000000000001

>  <m_primary>  (29) 
energy

>  <rmsd>  (29) 
1.9385230492277636

>  <m_score__min__rmsd>  (29) 
1.9385230492277636

>  <meeko>  (29) 
{"free_energy": -8.16, "intermolecular_energy": -9.95, "internal_energy": -1.37, "cluster_size": 37, "cluster_id": 1, "rank_in_cluster": 36}

>  <energy>  (29) 
-8.36

>  <cluster_rmsd>  (29) 
1.1

>  <cluster>  (29) 
1

$$$$

     RDKit          3D

 49 52  0  0  0  0  0  0  0  0999 V2000
  141.3510   72.4030  221.5990 O   0  0  0  0  0  0  0  0  0  0  0  0
  140.4100   72.5710  222.4460 C   0  0  0  0  0  0  0  0  0  0  0  0
  139.5340   73.6700  222.3500 N   0  0  0  0  0  0  0  0  0  0  0  0
  139.6300   74.6700  221.3070 C   0  0  0  0  0  0  0  0  0  0  0  0
  139.2430   76.0160  221.7920 C   0  0  0  0  0  0  0  0  0  0  0  0
  138.3020   76.2270  222.5980 O   0  0  0  0  0  0  0  0  0  0  0  0
  139.9800   77.1340  221.3190 N   0  0  0  0  0  0  0  0  0  0  0  0
  139.5170   78.1640  220.3760 C   0  0  0  0  0  0  0  0  0  0  0  0
  140.7690   78.7420  219.7450 C   0  0  2  0  0  0  0  0  0  0  0  0
  140.6670   78.7320  218.3590 O   0  0  0  0  0  0  0  0  0  0  0  0
  141.8560   77.7970  220.2360 C   0  0  0  0  0  0  0  0  0  0  0  0
  141.3440   77.5390  221.6350 C   0  0  1  0  0  0  0  0  0  0  0  0
  141.3930   78.7750  222.4090 C   0  0  0  0  0  0  0  0  0  0  0  0
  140.3590   79.3330  223.1200 C   0  0  0  0  0  0  0  0  0  0  0  0
  140.4850   80.5160  223.8370 C   0  0  0  0  0  0  0  0  0  0  0  0
  141.6950   81.1870  223.8550 C   0  0  0  0  0  0  0  0  0  0  0  0
  142.7400   80.6380  223.1450 C   0  0  0  0  0  0  0  0  0  0  0  0
  142.6010   79.4680  222.4410 C   0  0  0  0  0  0  0  0  0  0  0  0
  140.2330   71.6070  223.5420 C   0  0  0  0  0  0  0  0  0  0  0  0
  139.5910   70.4010  223.3280 C   0  0  0  0  0  0  0  0  0  0  0  0
  139.4430   69.5140  224.3950 C   0  0  0  0  0  0  0  0  0  0  0  0
  139.9220   69.8080  225.6600 C   0  0  0  0  0  0  0  0  0  0  0  0
  139.7830   68.9370  226.7270 C   0  0  0  0  0  0  0  0  0  0  0  0
  140.3010   69.3270  227.9620 C   0  0  0  0  0  0  0  0  0  0  0  0
  140.1740   68.4850  229.0220 F   0  0  0  0  0  0  0  0  0  0  0  0
  140.9300   70.5530  228.0890 C   0  0  0  0  0  0  0  0  0  0  0  0
  141.0700   71.4230  227.0240 C   0  0  0  0  0  0  0  0  0  0  0  0
  140.5530   71.0250  225.8090 C   0  0  0  0  0  0  0  0  0  0  0  0
  140.6940   71.8790  224.7750 N   0  0  0  0  0  0  0  0  0  0  0  0
  138.7780   73.7580  223.0740 H   0  0  0  0  0  0  0  0  0  0  0  0
  140.6682   74.7076  220.9454 H   0  0  0  0  0  0  0  0  0  0  0  0
  138.9380   74.3873  220.5001 H   0  0  0  0  0  0  0  0  0  0  0  0
  138.8722   77.7157  219.6058 H   0  0  0  0  0  0  0  0  0  0  0  0
  138.9252   78.9399  220.8837 H   0  0  0  0  0  0  0  0  0  0  0  0
  140.9610   79.7912  220.0137 H   0  0  0  0  0  0  0  0  0  0  0  0
  141.6200   78.6930  218.0270 H   0  0  0  0  0  0  0  0  0  0  0  0
  141.8998   76.8749  219.6379 H   0  0  0  0  0  0  0  0  0  0  0  0
  142.8818   78.1898  220.1764 H   0  0  0  0  0  0  0  0  0  0  0  0
  141.9009   76.8079  222.2394 H   0  0  0  0  0  0  0  0  0  0  0  0
  139.3862   78.8195  223.1218 H   0  0  0  0  0  0  0  0  0  0  0  0
  139.6237   80.9190  224.3900 H   0  0  0  0  0  0  0  0  0  0  0  0
  141.8180   82.1251  224.4161 H   0  0  0  0  0  0  0  0  0  0  0  0
  143.7128   81.1515  223.1422 H   0  0  0  0  0  0  0  0  0  0  0  0
  143.4642   79.0680  221.8888 H   0  0  0  0  0  0  0  0  0  0  0  0
  139.2027   70.1447  222.3312 H   0  0  0  0  0  0  0  0  0  0  0  0
  138.9316   68.5548  224.2262 H   0  0  0  0  0  0  0  0  0  0  0  0
  139.2793   67.9668  226.6046 H   0  0  0  0  0  0  0  0  0  0  0  0
  141.3321   70.8450  229.0704 H   0  0  0  0  0  0  0  0  0  0  0  0
  141.5737   72.3939  227.1409 H   0  0  0  0  0  0  0  0  0  0  0  0
  1  2  2  0
  2  3  1  0
  3  4  1  0
  4  5  1  0
  5  6  2  0
  5  7  1  0
  7  8  1  0
  8  9  1  0
  9 10  1  0
  9 11  1  0
 11 12  1  0
 12 13  1  0
 13 14  2  0
 14 15  1  0
 15 16  2  0
 16 17  1  0
 17 18  2  0
  2 19  1  0
 19 20  2  0
 20 21  1  0
 21 22  2  0
 22 23  1  0
 23 24  2  0
 24 25  1  0
 24 26  1  0
 26 27  2  0
 27 28  1  0
 28 29  2  0
 12  7  1  0
 18 13  1  0
 29 19  1  0
 28 22  1  0
  3 30  1  0
  4 31  1  0
  4 32  1  0
  8 33  1  0
  8 34  1  0
  9 35  1  1
 10 36  1  0
 11 37  1  0
 11 38  1  0
 12 39  1  1
 14 40  1  0
 15 41  1  0
 16 42  1  0
 17 43  1  0
 18 44  1  0
 20 45  1  0
 21 46  1  0
 23 47  1  0
 26 48  1  0
 27 49  1  0
M  END
>  <smiles>  (30) 
O=C(NCC(=O)N1C[C@H](O)C[C@H]1c1ccccc1)c1ccc2cc(F)ccc2n1

>  <score_type>  (30) 
oracle

>  <origin>  (30) 
autodockgpu

>  <m_score__min__energy>  (30) 
-8.6600000000000001

>  <m_primary>  (30) 
energy

>  <rmsd>  (30) 
2.181666608143436

>  <m_score__min__rmsd>  (30) 
2.181666608143436

>  <meeko>  (30) 
{"free_energy": -8.63, "intermolecular_energy": -10.42, "internal_energy": -1.3, "cluster_size": 37, "cluster_id": 1, "rank_in_cluster": 4}

>  <energy>  (30) 
-8.32

>  <cluster_rmsd>  (30) 
1.58

>  <cluster>  (30) 
1

$$$$

     RDKit          3D

 49 52  0  0  0  0  0  0  0  0999 V2000
  141.3340   72.2920  221.5190 O   0  0  0  0  0  0  0  0  0  0  0  0
  140.4030   72.5150  222.3630 C   0  0  0  0  0  0  0  0  0  0  0  0
  139.5600   73.6370  222.2350 N   0  0  0  0  0  0  0  0  0  0  0  0
  139.6830   74.6010  221.1610 C   0  0  0  0  0  0  0  0  0  0  0  0
  140.8340   75.5110  221.3620 C   0  0  0  0  0  0  0  0  0  0  0  0
  140.9920   76.2270  222.3830 O   0  0  0  0  0  0  0  0  0  0  0  0
  141.8190   75.5790  220.3420 N   0  0  0  0  0  0  0  0  0  0  0  0
  142.7410   76.6940  220.0740 C   0  0  0  0  0  0  0  0  0  0  0  0
  143.1330   76.5670  218.6150 C   0  0  2  0  0  0  0  0  0  0  0  0
  142.9390   77.7730  217.9510 O   0  0  0  0  0  0  0  0  0  0  0  0
  142.1860   75.4880  218.1080 C   0  0  0  0  0  0  0  0  0  0  0  0
  142.1610   74.5920  219.3260 C   0  0  1  0  0  0  0  0  0  0  0  0
  143.4860   74.0150  219.5340 C   0  0  0  0  0  0  0  0  0  0  0  0
  144.3330   73.5470  218.5590 C   0  0  0  0  0  0  0  0  0  0  0  0
  145.5840   73.0120  218.8370 C   0  0  0  0  0  0  0  0  0  0  0  0
  146.0260   72.9340  220.1460 C   0  0  0  0  0  0  0  0  0  0  0  0
  145.1860   73.3980  221.1330 C   0  0  0  0  0  0  0  0  0  0  0  0
  143.9520   73.9240  220.8440 C   0  0  0  0  0  0  0  0  0  0  0  0
  140.1990   71.5910  223.4890 C   0  0  0  0  0  0  0  0  0  0  0  0
  139.5420   70.3880  223.3090 C   0  0  0  0  0  0  0  0  0  0  0  0
  139.3700   69.5400  224.4030 C   0  0  0  0  0  0  0  0  0  0  0  0
  139.8410   69.8690  225.6630 C   0  0  0  0  0  0  0  0  0  0  0  0
  139.6780   69.0380  226.7580 C   0  0  0  0  0  0  0  0  0  0  0  0
  140.1880   69.4620  227.9840 C   0  0  0  0  0  0  0  0  0  0  0  0
  140.0380   68.6580  229.0710 F   0  0  0  0  0  0  0  0  0  0  0  0
  140.8340   70.6820  228.0760 C   0  0  0  0  0  0  0  0  0  0  0  0
  140.9980   71.5130  226.9840 C   0  0  0  0  0  0  0  0  0  0  0  0
  140.4880   71.0820  225.7780 C   0  0  0  0  0  0  0  0  0  0  0  0
  140.6510   71.8980  224.7170 N   0  0  0  0  0  0  0  0  0  0  0  0
  138.8100   73.7710  222.9590 H   0  0  0  0  0  0  0  0  0  0  0  0
  139.8188   74.0607  220.2125 H   0  0  0  0  0  0  0  0  0  0  0  0
  138.7671   75.2099  221.1442 H   0  0  0  0  0  0  0  0  0  0  0  0
  142.2397   77.6566  220.2532 H   0  0  0  0  0  0  0  0  0  0  0  0
  143.6208   76.6582  220.7333 H   0  0  0  0  0  0  0  0  0  0  0  0
  144.1921   76.3152  218.4574 H   0  0  0  0  0  0  0  0  0  0  0  0
  143.4540   78.4540  218.4910 H   0  0  0  0  0  0  0  0  0  0  0  0
  141.1899   75.8920  217.8743 H   0  0  0  0  0  0  0  0  0  0  0  0
  142.4897   74.9987  217.1708 H   0  0  0  0  0  0  0  0  0  0  0  0
  141.4804   73.7285  219.2922 H   0  0  0  0  0  0  0  0  0  0  0  0
  144.0054   73.5984  217.5102 H   0  0  0  0  0  0  0  0  0  0  0  0
  146.2228   72.6507  218.0176 H   0  0  0  0  0  0  0  0  0  0  0  0
  147.0139   72.5159  220.3893 H   0  0  0  0  0  0  0  0  0  0  0  0
  145.5129   73.3457  222.1820 H   0  0  0  0  0  0  0  0  0  0  0  0
  143.3153   74.2825  221.6663 H   0  0  0  0  0  0  0  0  0  0  0  0
  139.1604   70.1037  222.3173 H   0  0  0  0  0  0  0  0  0  0  0  0
  138.8457   68.5835  224.2610 H   0  0  0  0  0  0  0  0  0  0  0  0
  139.1612   68.0716  226.6634 H   0  0  0  0  0  0  0  0  0  0  0  0
  141.2304   71.0013  229.0512 H   0  0  0  0  0  0  0  0  0  0  0  0
  141.5149   72.4798  227.0736 H   0  0  0  0  0  0  0  0  0  0  0  0
  1  2  2  0
  2  3  1  0
  3  4  1  0
  4  5  1  0
  5  6  2  0
  5  7  1  0
  7  8  1  0
  8  9  1  0
  9 10  1  0
  9 11  1  0
 11 12  1  0
 12 13  1  0
 13 14  2  0
 14 15  1  0
 15 16  2  0
 16 17  1  0
 17 18  2  0
  2 19  1  0
 19 20  2  0
 20 21  1  0
 21 22  2  0
 22 23  1  0
 23 24  2  0
 24 25  1  0
 24 26  1  0
 26 27  2  0
 27 28  1  0
 28 29  2  0
 12  7  1  0
 18 13  1  0
 29 19  1  0
 28 22  1  0
  3 30  1  0
  4 31  1  0
  4 32  1  0
  8 33  1  0
  8 34  1  0
  9 35  1  1
 10 36  1  0
 11 37  1  0
 11 38  1  0
 12 39  1  6
 14 40  1  0
 15 41  1  0
 16 42  1  0
 17 43  1  0
 18 44  1  0
 20 45  1  0
 21 46  1  0
 23 47  1  0
 26 48  1  0
 27 49  1  0
M  END
>  <smiles>  (31) 
O=C(NCC(=O)N1C[C@H](O)C[C@H]1c1ccccc1)c1ccc2cc(F)ccc2n1

>  <score_type>  (31) 
oracle

>  <origin>  (31) 
autodockgpu

>  <m_score__min__energy>  (31) 
-8.6600000000000001

>  <m_primary>  (31) 
energy

>  <rmsd>  (31) 
2.362500998850535

>  <m_score__min__rmsd>  (31) 
2.362500998850535

>  <meeko>  (31) 
{"free_energy": -8.35, "intermolecular_energy": -10.14, "internal_energy": -1.52, "cluster_size": 10, "cluster_id": 2, "rank_in_cluster": 4}

>  <energy>  (31) 
-8.32

>  <cluster_rmsd>  (31) 
1.0

>  <cluster>  (31) 
1

$$$$

     RDKit          3D

 49 52  0  0  0  0  0  0  0  0999 V2000
  141.3220   72.4470  221.5960 O   0  0  0  0  0  0  0  0  0  0  0  0
  140.3750   72.5820  222.4420 C   0  0  0  0  0  0  0  0  0  0  0  0
  139.4650   73.6540  222.3480 N   0  0  0  0  0  0  0  0  0  0  0  0
  139.5330   74.6610  221.3080 C   0  0  0  0  0  0  0  0  0  0  0  0
  139.2210   76.0130  221.8260 C   0  0  0  0  0  0  0  0  0  0  0  0
  138.3190   76.2510  222.6690 O   0  0  0  0  0  0  0  0  0  0  0  0
  139.9850   77.1080  221.3420 N   0  0  0  0  0  0  0  0  0  0  0  0
  139.5590   78.1240  220.3680 C   0  0  0  0  0  0  0  0  0  0  0  0
  140.8330   78.6660  219.7490 C   0  0  2  0  0  0  0  0  0  0  0  0
  140.7570   78.6250  218.3610 O   0  0  0  0  0  0  0  0  0  0  0  0
  141.8940   77.7130  220.2820 C   0  0  0  0  0  0  0  0  0  0  0  0
  141.3500   77.4960  221.6770 C   0  0  1  0  0  0  0  0  0  0  0  0
  141.4060   78.7490  222.4230 C   0  0  0  0  0  0  0  0  0  0  0  0
  140.3730   79.3310  223.1160 C   0  0  0  0  0  0  0  0  0  0  0  0
  140.5060   80.5290  223.8070 C   0  0  0  0  0  0  0  0  0  0  0  0
  141.7220   81.1900  223.8170 C   0  0  0  0  0  0  0  0  0  0  0  0
  142.7650   80.6170  223.1240 C   0  0  0  0  0  0  0  0  0  0  0  0
  142.6200   79.4330  222.4460 C   0  0  0  0  0  0  0  0  0  0  0  0
  140.2230   71.6080  223.5330 C   0  0  0  0  0  0  0  0  0  0  0  0
  139.6060   70.3900  223.3160 C   0  0  0  0  0  0  0  0  0  0  0  0
  139.4830   69.4950  224.3790 C   0  0  0  0  0  0  0  0  0  0  0  0
  139.9630   69.7910  225.6430 C   0  0  0  0  0  0  0  0  0  0  0  0
  139.8490   68.9120  226.7060 C   0  0  0  0  0  0  0  0  0  0  0  0
  140.3650   69.3070  227.9400 C   0  0  0  0  0  0  0  0  0  0  0  0
  140.2620   68.4560  228.9960 F   0  0  0  0  0  0  0  0  0  0  0  0
  140.9690   70.5450  228.0700 C   0  0  0  0  0  0  0  0  0  0  0  0
  141.0850   71.4230  227.0090 C   0  0  0  0  0  0  0  0  0  0  0  0
  140.5690   71.0210  225.7950 C   0  0  0  0  0  0  0  0  0  0  0  0
  140.6860   71.8840  224.7650 N   0  0  0  0  0  0  0  0  0  0  0  0
  138.7050   73.7160  223.0700 H   0  0  0  0  0  0  0  0  0  0  0  0
  140.5487   74.6678  220.8857 H   0  0  0  0  0  0  0  0  0  0  0  0
  138.7858   74.4094  220.5409 H   0  0  0  0  0  0  0  0  0  0  0  0
  138.9213   77.6697  219.5953 H   0  0  0  0  0  0  0  0  0  0  0  0
  138.9715   78.9213  220.8467 H   0  0  0  0  0  0  0  0  0  0  0  0
  141.0384   79.7176  219.9980 H   0  0  0  0  0  0  0  0  0  0  0  0
  139.8080   78.8910  218.1440 H   0  0  0  0  0  0  0  0  0  0  0  0
  141.9327   76.7769  219.7056 H   0  0  0  0  0  0  0  0  0  0  0  0
  142.9277   78.0860  220.2335 H   0  0  0  0  0  0  0  0  0  0  0  0
  141.8813   76.7695  222.3094 H   0  0  0  0  0  0  0  0  0  0  0  0
  139.3959   78.8257  223.1244 H   0  0  0  0  0  0  0  0  0  0  0  0
  139.6453   80.9519  224.3459 H   0  0  0  0  0  0  0  0  0  0  0  0
  141.8506   82.1386  224.3588 H   0  0  0  0  0  0  0  0  0  0  0  0
  143.7418   81.1227  223.1137 H   0  0  0  0  0  0  0  0  0  0  0  0
  143.4827   79.0136  221.9077 H   0  0  0  0  0  0  0  0  0  0  0  0
  139.2179   70.1305  222.3200 H   0  0  0  0  0  0  0  0  0  0  0  0
  138.9905   68.5264  224.2077 H   0  0  0  0  0  0  0  0  0  0  0  0
  139.3661   67.9316  226.5813 H   0  0  0  0  0  0  0  0  0  0  0  0
  141.3703   70.8403  229.0507 H   0  0  0  0  0  0  0  0  0  0  0  0
  141.5696   72.4033  227.1281 H   0  0  0  0  0  0  0  0  0  0  0  0
  1  2  2  0
  2  3  1  0
  3  4  1  0
  4  5  1  0
  5  6  2  0
  5  7  1  0
  7  8  1  0
  8  9  1  0
  9 10  1  0
  9 11  1  0
 11 12  1  0
 12 13  1  0
 13 14  2  0
 14 15  1  0
 15 16  2  0
 16 17  1  0
 17 18  2  0
  2 19  1  0
 19 20  2  0
 20 21  1  0
 21 22  2  0
 22 23  1  0
 23 24  2  0
 24 25  1  0
 24 26  1  0
 26 27  2  0
 27 28  1  0
 28 29  2  0
 12  7  1  0
 18 13  1  0
 29 19  1  0
 28 22  1  0
  3 30  1  0
  4 31  1  0
  4 32  1  0
  8 33  1  0
  8 34  1  0
  9 35  1  6
 10 36  1  0
 11 37  1  0
 11 38  1  0
 12 39  1  1
 14 40  1  0
 15 41  1  0
 16 42  1  0
 17 43  1  0
 18 44  1  0
 20 45  1  0
 21 46  1  0
 23 47  1  0
 26 48  1  0
 27 49  1  0
M  END
>  <smiles>  (32) 
O=C(NCC(=O)N1C[C@H](O)C[C@H]1c1ccccc1)c1ccc2cc(F)ccc2n1

>  <score_type>  (32) 
oracle

>  <origin>  (32) 
autodockgpu

>  <m_score__min__energy>  (32) 
-8.6600000000000001

>  <m_primary>  (32) 
energy

>  <rmsd>  (32) 
2.1646892782263527

>  <m_score__min__rmsd>  (32) 
2.1646892782263527

>  <meeko>  (32) 
{"free_energy": -8.6, "intermolecular_energy": -10.39, "internal_energy": -1.28, "cluster_size": 37, "cluster_id": 1, "rank_in_cluster": 10}

>  <energy>  (32) 
-8.25

>  <cluster_rmsd>  (32) 
1.55

>  <cluster>  (32) 
1

$$$$

     RDKit          3D

 49 52  0  0  0  0  0  0  0  0999 V2000
  141.3260   72.1890  221.4100 O   0  0  0  0  0  0  0  0  0  0  0  0
  140.5180   72.5100  222.3450 C   0  0  0  0  0  0  0  0  0  0  0  0
  139.8390   73.7450  222.3250 N   0  0  0  0  0  0  0  0  0  0  0  0
  140.0020   74.7210  221.2670 C   0  0  0  0  0  0  0  0  0  0  0  0
  139.2620   75.9730  221.5500 C   0  0  0  0  0  0  0  0  0  0  0  0
  138.1740   76.0180  222.1770 O   0  0  0  0  0  0  0  0  0  0  0  0
  139.8140   77.1950  221.0850 N   0  0  0  0  0  0  0  0  0  0  0  0
  139.0770   78.3860  220.6360 C   0  0  0  0  0  0  0  0  0  0  0  0
  140.0200   79.1370  219.7160 C   0  0  2  0  0  0  0  0  0  0  0  0
  139.3980   79.4230  218.5060 O   0  0  0  0  0  0  0  0  0  0  0  0
  141.1670   78.1520  219.5400 C   0  0  0  0  0  0  0  0  0  0  0  0
  141.2130   77.5760  220.9380 C   0  0  1  0  0  0  0  0  0  0  0  0
  141.6100   78.6170  221.8810 C   0  0  0  0  0  0  0  0  0  0  0  0
  142.1820   79.8250  221.5680 C   0  0  0  0  0  0  0  0  0  0  0  0
  142.5300   80.7680  222.5260 C   0  0  0  0  0  0  0  0  0  0  0  0
  142.3040   80.5080  223.8660 C   0  0  0  0  0  0  0  0  0  0  0  0
  141.7320   79.2990  224.1940 C   0  0  0  0  0  0  0  0  0  0  0  0
  141.3920   78.3760  223.2360 C   0  0  0  0  0  0  0  0  0  0  0  0
  140.2870   71.5830  223.4630 C   0  0  0  0  0  0  0  0  0  0  0  0
  139.6420   70.3770  223.2610 C   0  0  0  0  0  0  0  0  0  0  0  0
  139.4420   69.5260  224.3490 C   0  0  0  0  0  0  0  0  0  0  0  0
  139.8740   69.8560  225.6230 C   0  0  0  0  0  0  0  0  0  0  0  0
  139.6830   69.0220  226.7110 C   0  0  0  0  0  0  0  0  0  0  0  0
  140.1550   69.4470  227.9520 C   0  0  0  0  0  0  0  0  0  0  0  0
  139.9770   68.6400  229.0330 F   0  0  0  0  0  0  0  0  0  0  0  0
  140.7920   70.6700  228.0660 C   0  0  0  0  0  0  0  0  0  0  0  0
  140.9830   71.5040  226.9800 C   0  0  0  0  0  0  0  0  0  0  0  0
  140.5110   71.0720  225.7580 C   0  0  0  0  0  0  0  0  0  0  0  0
  140.7010   71.8910  224.7040 N   0  0  0  0  0  0  0  0  0  0  0  0
  139.1860   73.9570  223.1200 H   0  0  0  0  0  0  0  0  0  0  0  0
  141.0714   74.9562  221.1621 H   0  0  0  0  0  0  0  0  0  0  0  0
  139.5976   74.2887  220.3398 H   0  0  0  0  0  0  0  0  0  0  0  0
  138.1672   78.0906  220.0928 H   0  0  0  0  0  0  0  0  0  0  0  0
  138.7609   79.0090  221.4857 H   0  0  0  0  0  0  0  0  0  0  0  0
  140.3480   80.1102  220.1101 H   0  0  0  0  0  0  0  0  0  0  0  0
  138.4350   79.1510  218.6370 H   0  0  0  0  0  0  0  0  0  0  0  0
  140.9374   77.3842  218.7865 H   0  0  0  0  0  0  0  0  0  0  0  0
  142.1104   78.5890  219.1808 H   0  0  0  0  0  0  0  0  0  0  0  0
  141.9224   76.7538  221.1131 H   0  0  0  0  0  0  0  0  0  0  0  0
  142.3735   80.0566  220.5098 H   0  0  0  0  0  0  0  0  0  0  0  0
  142.9852   81.7214  222.2197 H   0  0  0  0  0  0  0  0  0  0  0  0
  142.5716   81.2407  224.6415 H   0  0  0  0  0  0  0  0  0  0  0  0
  141.5423   79.0664  225.2523 H   0  0  0  0  0  0  0  0  0  0  0  0
  140.9367   77.4237  223.5455 H   0  0  0  0  0  0  0  0  0  0  0  0
  139.2917   70.0924  222.2579 H   0  0  0  0  0  0  0  0  0  0  0  0
  138.9272   68.5669  224.1904 H   0  0  0  0  0  0  0  0  0  0  0  0
  139.1742   68.0531  226.5998 H   0  0  0  0  0  0  0  0  0  0  0  0
  141.1584   70.9891  229.0529 H   0  0  0  0  0  0  0  0  0  0  0  0
  141.4913   72.4737  227.0862 H   0  0  0  0  0  0  0  0  0  0  0  0
  1  2  2  0
  2  3  1  0
  3  4  1  0
  4  5  1  0
  5  6  2  0
  5  7  1  0
  7  8  1  0
  8  9  1  0
  9 10  1  0
  9 11  1  0
 11 12  1  0
 12 13  1  0
 13 14  2  0
 14 15  1  0
 15 16  2  0
 16 17  1  0
 17 18  2  0
  2 19  1  0
 19 20  2  0
 20 21  1  0
 21 22  2  0
 22 23  1  0
 23 24  2  0
 24 25  1  0
 24 26  1  0
 26 27  2  0
 27 28  1  0
 28 29  2  0
 12  7  1  0
 18 13  1  0
 29 19  1  0
 28 22  1  0
  3 30  1  0
  4 31  1  0
  4 32  1  0
  8 33  1  0
  8 34  1  0
  9 35  1  1
 10 36  1  0
 11 37  1  0
 11 38  1  0
 12 39  1  6
 14 40  1  0
 15 41  1  0
 16 42  1  0
 17 43  1  0
 18 44  1  0
 20 45  1  0
 21 46  1  0
 23 47  1  0
 26 48  1  0
 27 49  1  0
M  END
>  <smiles>  (33) 
O=C(NCC(=O)N1C[C@H](O)C[C@H]1c1ccccc1)c1ccc2cc(F)ccc2n1

>  <score_type>  (33) 
oracle

>  <origin>  (33) 
autodockgpu

>  <m_score__min__energy>  (33) 
-8.6600000000000001

>  <m_primary>  (33) 
energy

>  <rmsd>  (33) 
2.215618322846763

>  <m_score__min__rmsd>  (33) 
2.215618322846763

>  <meeko>  (33) 
{"free_energy": -8.36, "intermolecular_energy": -10.15, "internal_energy": -1.3, "cluster_size": 37, "cluster_id": 1, "rank_in_cluster": 29}

>  <energy>  (33) 
-8.24

>  <cluster_rmsd>  (33) 
0.89

>  <cluster>  (33) 
1

$$$$

     RDKit          3D

 49 52  0  0  0  0  0  0  0  0999 V2000
  141.2330   72.3800  221.7190 O   0  0  0  0  0  0  0  0  0  0  0  0
  140.2370   72.4530  222.5150 C   0  0  0  0  0  0  0  0  0  0  0  0
  139.2450   73.4410  222.3490 N   0  0  0  0  0  0  0  0  0  0  0  0
  139.2790   74.4250  221.2860 C   0  0  0  0  0  0  0  0  0  0  0  0
  140.3900   75.3890  221.4600 C   0  0  0  0  0  0  0  0  0  0  0  0
  141.5950   75.0550  221.5840 O   0  0  0  0  0  0  0  0  0  0  0  0
  140.0750   76.7740  221.4870 N   0  0  0  0  0  0  0  0  0  0  0  0
  138.8990   77.4030  222.1070 C   0  0  0  0  0  0  0  0  0  0  0  0
  138.7030   78.7210  221.3840 C   0  0  2  0  0  0  0  0  0  0  0  0
  137.3910   78.8430  220.9380 O   0  0  0  0  0  0  0  0  0  0  0  0
  139.6830   78.6130  220.2240 C   0  0  0  0  0  0  0  0  0  0  0  0
  140.8150   77.8970  220.9250 C   0  0  1  0  0  0  0  0  0  0  0  0
  141.3780   78.7650  221.9550 C   0  0  0  0  0  0  0  0  0  0  0  0
  141.4870   78.4760  223.2930 C   0  0  0  0  0  0  0  0  0  0  0  0
  142.0390   79.3570  224.2140 C   0  0  0  0  0  0  0  0  0  0  0  0
  142.5110   80.5880  223.7960 C   0  0  0  0  0  0  0  0  0  0  0  0
  142.4070   80.8900  222.4560 C   0  0  0  0  0  0  0  0  0  0  0  0
  141.8580   80.0100  221.5570 C   0  0  0  0  0  0  0  0  0  0  0  0
  140.1160   71.4960  223.6250 C   0  0  0  0  0  0  0  0  0  0  0  0
  139.5270   70.2600  223.4330 C   0  0  0  0  0  0  0  0  0  0  0  0
  139.4310   69.3810  224.5130 C   0  0  0  0  0  0  0  0  0  0  0  0
  139.9120   69.7120  225.7680 C   0  0  0  0  0  0  0  0  0  0  0  0
  139.8250   68.8490  226.8480 C   0  0  0  0  0  0  0  0  0  0  0  0
  140.3400   69.2780  228.0710 C   0  0  0  0  0  0  0  0  0  0  0  0
  140.2630   68.4440  229.1430 F   0  0  0  0  0  0  0  0  0  0  0  0
  140.9150   70.5320  228.1750 C   0  0  0  0  0  0  0  0  0  0  0  0
  141.0030   71.3940  227.0980 C   0  0  0  0  0  0  0  0  0  0  0  0
  140.4900   70.9580  225.8940 C   0  0  0  0  0  0  0  0  0  0  0  0
  140.5790   71.8040  224.8480 N   0  0  0  0  0  0  0  0  0  0  0  0
  138.4490   73.4530  223.0330 H   0  0  0  0  0  0  0  0  0  0  0  0
  139.4063   73.9056  220.3247 H   0  0  0  0  0  0  0  0  0  0  0  0
  138.3336   74.9867  221.3115 H   0  0  0  0  0  0  0  0  0  0  0  0
  138.0129   76.7631  221.9830 H   0  0  0  0  0  0  0  0  0  0  0  0
  139.0435   77.5525  223.1872 H   0  0  0  0  0  0  0  0  0  0  0  0
  138.8796   79.6061  222.0128 H   0  0  0  0  0  0  0  0  0  0  0  0
  137.3870   78.4200  220.0210 H   0  0  0  0  0  0  0  0  0  0  0  0
  139.2730   78.0196  219.3935 H   0  0  0  0  0  0  0  0  0  0  0  0
  139.9539   79.5667  219.7476 H   0  0  0  0  0  0  0  0  0  0  0  0
  141.6750   77.6030  220.3054 H   0  0  0  0  0  0  0  0  0  0  0  0
  141.1206   77.5028  223.6516 H   0  0  0  0  0  0  0  0  0  0  0  0
  142.1008   79.0757  225.2756 H   0  0  0  0  0  0  0  0  0  0  0  0
  142.9535   81.3003  224.5079 H   0  0  0  0  0  0  0  0  0  0  0  0
  142.7739   81.8628  222.0967 H   0  0  0  0  0  0  0  0  0  0  0  0
  141.7957   80.2952  220.4965 H   0  0  0  0  0  0  0  0  0  0  0  0
  139.1398   69.9736  222.4440 H   0  0  0  0  0  0  0  0  0  0  0  0
  138.9602   68.3983  224.3627 H   0  0  0  0  0  0  0  0  0  0  0  0
  139.3638   67.8557  226.7442 H   0  0  0  0  0  0  0  0  0  0  0  0
  141.3156   70.8540  229.1475 H   0  0  0  0  0  0  0  0  0  0  0  0
  141.4637   72.3879  227.1971 H   0  0  0  0  0  0  0  0  0  0  0  0
  1  2  2  0
  2  3  1  0
  3  4  1  0
  4  5  1  0
  5  6  2  0
  5  7  1  0
  7  8  1  0
  8  9  1  0
  9 10  1  0
  9 11  1  0
 11 12  1  0
 12 13  1  0
 13 14  2  0
 14 15  1  0
 15 16  2  0
 16 17  1  0
 17 18  2  0
  2 19  1  0
 19 20  2  0
 20 21  1  0
 21 22  2  0
 22 23  1  0
 23 24  2  0
 24 25  1  0
 24 26  1  0
 26 27  2  0
 27 28  1  0
 28 29  2  0
 12  7  1  0
 18 13  1  0
 29 19  1  0
 28 22  1  0
  3 30  1  0
  4 31  1  0
  4 32  1  0
  8 33  1  0
  8 34  1  0
  9 35  1  1
 10 36  1  0
 11 37  1  0
 11 38  1  0
 12 39  1  6
 14 40  1  0
 15 41  1  0
 16 42  1  0
 17 43  1  0
 18 44  1  0
 20 45  1  0
 21 46  1  0
 23 47  1  0
 26 48  1  0
 27 49  1  0
M  END
>  <smiles>  (34) 
O=C(NCC(=O)N1C[C@H](O)C[C@H]1c1ccccc1)c1ccc2cc(F)ccc2n1

>  <score_type>  (34) 
oracle

>  <origin>  (34) 
autodockgpu

>  <m_score__min__energy>  (34) 
-8.6600000000000001

>  <m_primary>  (34) 
energy

>  <rmsd>  (34) 
2.324038539378971

>  <m_score__min__rmsd>  (34) 
2.324038539378971

>  <meeko>  (34) 
{"free_energy": -8.65, "intermolecular_energy": -10.44, "internal_energy": -1.05, "cluster_size": 37, "cluster_id": 1, "rank_in_cluster": 2}

>  <energy>  (34) 
-8.21

>  <cluster_rmsd>  (34) 
1.62

>  <cluster>  (34) 
1

$$$$

     RDKit          3D

 49 52  0  0  0  0  0  0  0  0999 V2000
  141.3340   72.5170  221.7810 O   0  0  0  0  0  0  0  0  0  0  0  0
  140.3080   72.5550  222.5410 C   0  0  0  0  0  0  0  0  0  0  0  0
  139.2920   73.5110  222.3420 N   0  0  0  0  0  0  0  0  0  0  0  0
  139.3330   74.5010  221.2850 C   0  0  0  0  0  0  0  0  0  0  0  0
  140.4030   75.5020  221.5050 C   0  0  0  0  0  0  0  0  0  0  0  0
  141.6210   75.2130  221.6180 O   0  0  0  0  0  0  0  0  0  0  0  0
  140.0310   76.8690  221.5950 N   0  0  0  0  0  0  0  0  0  0  0  0
  138.8930   77.4310  222.3380 C   0  0  0  0  0  0  0  0  0  0  0  0
  138.5690   78.7520  221.6680 C   0  0  2  0  0  0  0  0  0  0  0  0
  137.2170   78.8210  221.3520 O   0  0  0  0  0  0  0  0  0  0  0  0
  139.4370   78.7120  220.4180 C   0  0  0  0  0  0  0  0  0  0  0  0
  140.6630   78.0360  220.9910 C   0  0  1  0  0  0  0  0  0  0  0  0
  141.2830   78.9100  221.9820 C   0  0  0  0  0  0  0  0  0  0  0  0
  141.6000   78.5770  223.2760 C   0  0  0  0  0  0  0  0  0  0  0  0
  142.1940   79.4670  224.1620 C   0  0  0  0  0  0  0  0  0  0  0  0
  142.4920   80.7550  223.7520 C   0  0  0  0  0  0  0  0  0  0  0  0
  142.1770   81.1010  222.4570 C   0  0  0  0  0  0  0  0  0  0  0  0
  141.5910   80.2110  221.5920 C   0  0  0  0  0  0  0  0  0  0  0  0
  140.1770   71.5880  223.6410 C   0  0  0  0  0  0  0  0  0  0  0  0
  139.5660   70.3640  223.4410 C   0  0  0  0  0  0  0  0  0  0  0  0
  139.4620   69.4770  224.5120 C   0  0  0  0  0  0  0  0  0  0  0  0
  139.9540   69.7870  225.7680 C   0  0  0  0  0  0  0  0  0  0  0  0
  139.8590   68.9150  226.8400 C   0  0  0  0  0  0  0  0  0  0  0  0
  140.3870   69.3240  228.0640 C   0  0  0  0  0  0  0  0  0  0  0  0
  140.3020   68.4800  229.1290 F   0  0  0  0  0  0  0  0  0  0  0  0
  140.9830   70.5670  228.1780 C   0  0  0  0  0  0  0  0  0  0  0  0
  141.0800   71.4380  227.1090 C   0  0  0  0  0  0  0  0  0  0  0  0
  140.5530   71.0220  225.9040 C   0  0  0  0  0  0  0  0  0  0  0  0
  140.6510   71.8770  224.8650 N   0  0  0  0  0  0  0  0  0  0  0  0
  138.4710   73.4950  222.9960 H   0  0  0  0  0  0  0  0  0  0  0  0
  139.5148   73.9911  220.3274 H   0  0  0  0  0  0  0  0  0  0  0  0
  138.3686   75.0300  221.2766 H   0  0  0  0  0  0  0  0  0  0  0  0
  138.0287   76.7528  222.2840 H   0  0  0  0  0  0  0  0  0  0  0  0
  139.1342   77.5672  223.4026 H   0  0  0  0  0  0  0  0  0  0  0  0
  138.7649   79.6324  222.2978 H   0  0  0  0  0  0  0  0  0  0  0  0
  137.1820   78.7800  220.3440 H   0  0  0  0  0  0  0  0  0  0  0  0
  138.9760   78.1161  219.6165 H   0  0  0  0  0  0  0  0  0  0  0  0
  139.6181   79.6864  219.9408 H   0  0  0  0  0  0  0  0  0  0  0  0
  141.4716   77.7938  220.2857 H   0  0  0  0  0  0  0  0  0  0  0  0
  141.3733   77.5594  223.6269 H   0  0  0  0  0  0  0  0  0  0  0  0
  142.4273   79.1484  225.1887 H   0  0  0  0  0  0  0  0  0  0  0  0
  142.9634   81.4761  224.4360 H   0  0  0  0  0  0  0  0  0  0  0  0
  142.4013   82.1191  222.1060 H   0  0  0  0  0  0  0  0  0  0  0  0
  141.3591   80.5330  220.5661 H   0  0  0  0  0  0  0  0  0  0  0  0
  139.1678   70.0939  222.4518 H   0  0  0  0  0  0  0  0  0  0  0  0
  138.9752   68.5033  224.3541 H   0  0  0  0  0  0  0  0  0  0  0  0
  139.3817   67.9302  226.7291 H   0  0  0  0  0  0  0  0  0  0  0  0
  141.3934   70.8726  229.1517 H   0  0  0  0  0  0  0  0  0  0  0  0
  141.5581   72.4230  227.2149 H   0  0  0  0  0  0  0  0  0  0  0  0
  1  2  2  0
  2  3  1  0
  3  4  1  0
  4  5  1  0
  5  6  2  0
  5  7  1  0
  7  8  1  0
  8  9  1  0
  9 10  1  0
  9 11  1  0
 11 12  1  0
 12 13  1  0
 13 14  2  0
 14 15  1  0
 15 16  2  0
 16 17  1  0
 17 18  2  0
  2 19  1  0
 19 20  2  0
 20 21  1  0
 21 22  2  0
 22 23  1  0
 23 24  2  0
 24 25  1  0
 24 26  1  0
 26 27  2  0
 27 28  1  0
 28 29  2  0
 12  7  1  0
 18 13  1  0
 29 19  1  0
 28 22  1  0
  3 30  1  0
  4 31  1  0
  4 32  1  0
  8 33  1  0
  8 34  1  0
  9 35  1  1
 10 36  1  0
 11 37  1  0
 11 38  1  0
 12 39  1  6
 14 40  1  0
 15 41  1  0
 16 42  1  0
 17 43  1  0
 18 44  1  0
 20 45  1  0
 21 46  1  0
 23 47  1  0
 26 48  1  0
 27 49  1  0
M  END
>  <smiles>  (35) 
O=C(NCC(=O)N1C[C@H](O)C[C@H]1c1ccccc1)c1ccc2cc(F)ccc2n1

>  <score_type>  (35) 
oracle

>  <origin>  (35) 
autodockgpu

>  <m_score__min__energy>  (35) 
-8.6600000000000001

>  <m_primary>  (35) 
energy

>  <rmsd>  (35) 
2.4636295590568533

>  <m_score__min__rmsd>  (35) 
2.4636295590568533

>  <meeko>  (35) 
{"free_energy": -8.66, "intermolecular_energy": -10.45, "internal_energy": -1.08, "cluster_size": 37, "cluster_id": 1, "rank_in_cluster": 1}

>  <energy>  (35) 
-8.17

>  <cluster_rmsd>  (35) 
0.85

>  <cluster>  (35) 
1

$$$$

     RDKit          3D

 49 52  0  0  0  0  0  0  0  0999 V2000
  138.9580   75.3660  219.8420 O   0  0  0  0  0  0  0  0  0  0  0  0
  139.4100   74.7590  220.8710 C   0  0  0  0  0  0  0  0  0  0  0  0
  138.7690   74.8720  222.1210 N   0  0  0  0  0  0  0  0  0  0  0  0
  137.5760   75.6670  222.3290 C   0  0  0  0  0  0  0  0  0  0  0  0
  137.8890   77.1070  222.4760 C   0  0  0  0  0  0  0  0  0  0  0  0
  137.1050   77.9470  222.9850 O   0  0  0  0  0  0  0  0  0  0  0  0
  139.1500   77.5680  222.0130 N   0  0  0  0  0  0  0  0  0  0  0  0
  139.4700   78.0720  220.6690 C   0  0  0  0  0  0  0  0  0  0  0  0
  140.9610   77.8620  220.4910 C   0  0  2  0  0  0  0  0  0  0  0  0
  141.2220   77.1910  219.3020 O   0  0  0  0  0  0  0  0  0  0  0  0
  141.3260   77.0200  221.7050 C   0  0  0  0  0  0  0  0  0  0  0  0
  140.4160   77.6580  222.7300 C   0  0  1  0  0  0  0  0  0  0  0  0
  140.8300   79.0390  222.9580 C   0  0  0  0  0  0  0  0  0  0  0  0
  140.0200   80.1460  222.9350 C   0  0  0  0  0  0  0  0  0  0  0  0
  140.4900   81.4330  223.1660 C   0  0  0  0  0  0  0  0  0  0  0  0
  141.8310   81.6410  223.4340 C   0  0  0  0  0  0  0  0  0  0  0  0
  142.6560   80.5370  223.4580 C   0  0  0  0  0  0  0  0  0  0  0  0
  142.1770   79.2720  223.2290 C   0  0  0  0  0  0  0  0  0  0  0  0
  140.6170   73.9260  220.7570 C   0  0  0  0  0  0  0  0  0  0  0  0
  140.5560   72.5600  220.9580 C   0  0  0  0  0  0  0  0  0  0  0  0
  141.7250   71.8060  220.8410 C   0  0  0  0  0  0  0  0  0  0  0  0
  142.9410   72.3890  220.5280 C   0  0  0  0  0  0  0  0  0  0  0  0
  144.1080   71.6540  220.4080 C   0  0  0  0  0  0  0  0  0  0  0  0
  145.2820   72.3360  220.0910 C   0  0  0  0  0  0  0  0  0  0  0  0
  146.4380   71.6300  219.9680 F   0  0  0  0  0  0  0  0  0  0  0  0
  145.2530   73.7070  219.9050 C   0  0  0  0  0  0  0  0  0  0  0  0
  144.0890   74.4420  220.0240 C   0  0  0  0  0  0  0  0  0  0  0  0
  142.9360   73.7550  220.3400 C   0  0  0  0  0  0  0  0  0  0  0  0
  141.8030   74.4790  220.4540 N   0  0  0  0  0  0  0  0  0  0  0  0
  139.1840   74.3500  222.9320 H   0  0  0  0  0  0  0  0  0  0  0  0
  136.9063   75.5352  221.4664 H   0  0  0  0  0  0  0  0  0  0  0  0
  137.0977   75.3260  223.2591 H   0  0  0  0  0  0  0  0  0  0  0  0
  138.9107   77.5102  219.9064 H   0  0  0  0  0  0  0  0  0  0  0  0
  139.1952   79.1314  220.5588 H   0  0  0  0  0  0  0  0  0  0  0  0
  141.5392   78.7957  220.4289 H   0  0  0  0  0  0  0  0  0  0  0  0
  140.9450   76.2350  219.4760 H   0  0  0  0  0  0  0  0  0  0  0  0
  141.0913   75.9562  221.5528 H   0  0  0  0  0  0  0  0  0  0  0  0
  142.3945   77.0117  221.9664 H   0  0  0  0  0  0  0  0  0  0  0  0
  140.3992   77.2015  223.7307 H   0  0  0  0  0  0  0  0  0  0  0  0
  138.9492   80.0084  222.7240 H   0  0  0  0  0  0  0  0  0  0  0  0
  139.7961   82.2860  223.1358 H   0  0  0  0  0  0  0  0  0  0  0  0
  142.2248   82.6509  223.6212 H   0  0  0  0  0  0  0  0  0  0  0  0
  143.7274   80.6740  223.6664 H   0  0  0  0  0  0  0  0  0  0  0  0
  142.8731   78.4209  223.2601 H   0  0  0  0  0  0  0  0  0  0  0  0
  139.6008   72.0743  221.2064 H   0  0  0  0  0  0  0  0  0  0  0  0
  141.6787   70.7188  221.0019 H   0  0  0  0  0  0  0  0  0  0  0  0
  144.1090   70.5643  220.5583 H   0  0  0  0  0  0  0  0  0  0  0  0
  146.1880   74.2292  219.6540 H   0  0  0  0  0  0  0  0  0  0  0  0
  144.0825   75.5315  219.8727 H   0  0  0  0  0  0  0  0  0  0  0  0
  1  2  2  0
  2  3  1  0
  3  4  1  0
  4  5  1  0
  5  6  2  0
  5  7  1  0
  7  8  1  0
  8  9  1  0
  9 10  1  0
  9 11  1  0
 11 12  1  0
 12 13  1  0
 13 14  2  0
 14 15  1  0
 15 16  2  0
 16 17  1  0
 17 18  2  0
  2 19  1  0
 19 20  2  0
 20 21  1  0
 21 22  2  0
 22 23  1  0
 23 24  2  0
 24 25  1  0
 24 26  1  0
 26 27  2  0
 27 28  1  0
 28 29  2  0
 12  7  1  0
 18 13  1  0
 29 19  1  0
 28 22  1  0
  3 30  1  0
  4 31  1  0
  4 32  1  0
  8 33  1  0
  8 34  1  0
  9 35  1  6
 10 36  1  0
 11 37  1  0
 11 38  1  0
 12 39  1  1
 14 40  1  0
 15 41  1  0
 16 42  1  0
 17 43  1  0
 18 44  1  0
 20 45  1  0
 21 46  1  0
 23 47  1  0
 26 48  1  0
 27 49  1  0
M  END
>  <smiles>  (36) 
O=C(NCC(=O)N1C[C@H](O)C[C@H]1c1ccccc1)c1ccc2cc(F)ccc2n1

>  <score_type>  (36) 
oracle

>  <origin>  (36) 
autodockgpu

>  <m_score__min__energy>  (36) 
-8.6600000000000001

>  <m_primary>  (36) 
energy

>  <rmsd>  (36) 
5.6354158468381295

>  <m_score__min__rmsd>  (36) 
5.6354158468381295

>  <meeko>  (36) 
{"free_energy": -6.25, "intermolecular_energy": -8.03, "internal_energy": -2.93, "cluster_size": 1, "cluster_id": 5, "rank_in_cluster": 1}

>  <energy>  (36) 
-8.16

>  <cluster_rmsd>  (36) 
0.79

>  <cluster>  (36) 
1

$$$$

     RDKit          3D

 49 52  0  0  0  0  0  0  0  0999 V2000
  141.3640   72.2500  221.4730 O   0  0  0  0  0  0  0  0  0  0  0  0
  140.4380   72.4730  222.3230 C   0  0  0  0  0  0  0  0  0  0  0  0
  139.5850   73.5870  222.1920 N   0  0  0  0  0  0  0  0  0  0  0  0
  139.6910   74.5420  221.1080 C   0  0  0  0  0  0  0  0  0  0  0  0
  140.7970   75.5030  221.3230 C   0  0  0  0  0  0  0  0  0  0  0  0
  140.9010   76.2380  222.3370 O   0  0  0  0  0  0  0  0  0  0  0  0
  141.8020   75.6010  220.3240 N   0  0  0  0  0  0  0  0  0  0  0  0
  142.7200   76.7280  220.0990 C   0  0  0  0  0  0  0  0  0  0  0  0
  143.1420   76.6360  218.6450 C   0  0  2  0  0  0  0  0  0  0  0  0
  142.9520   77.8560  218.0040 O   0  0  0  0  0  0  0  0  0  0  0  0
  142.2130   75.5620  218.0970 C   0  0  0  0  0  0  0  0  0  0  0  0
  142.1720   74.6390  219.2940 C   0  0  1  0  0  0  0  0  0  0  0  0
  143.4960   74.0670  219.5150 C   0  0  0  0  0  0  0  0  0  0  0  0
  144.3660   73.6290  218.5480 C   0  0  0  0  0  0  0  0  0  0  0  0
  145.6160   73.0980  218.8380 C   0  0  0  0  0  0  0  0  0  0  0  0
  146.0320   72.9900  220.1540 C   0  0  0  0  0  0  0  0  0  0  0  0
  145.1680   73.4250  221.1340 C   0  0  0  0  0  0  0  0  0  0  0  0
  143.9360   73.9490  220.8320 C   0  0  0  0  0  0  0  0  0  0  0  0
  140.2510   71.5580  223.4590 C   0  0  0  0  0  0  0  0  0  0  0  0
  139.6170   70.3400  223.2920 C   0  0  0  0  0  0  0  0  0  0  0  0
  139.4600   69.5020  224.3960 C   0  0  0  0  0  0  0  0  0  0  0  0
  139.9230   69.8540  225.6520 C   0  0  0  0  0  0  0  0  0  0  0  0
  139.7750   69.0310  226.7560 C   0  0  0  0  0  0  0  0  0  0  0  0
  140.2770   69.4790  227.9770 C   0  0  0  0  0  0  0  0  0  0  0  0
  140.1410   68.6840  229.0730 F   0  0  0  0  0  0  0  0  0  0  0  0
  140.8990   70.7120  228.0570 C   0  0  0  0  0  0  0  0  0  0  0  0
  141.0480   71.5340  226.9550 C   0  0  0  0  0  0  0  0  0  0  0  0
  140.5470   71.0800  225.7540 C   0  0  0  0  0  0  0  0  0  0  0  0
  140.6960   71.8870  224.6840 N   0  0  0  0  0  0  0  0  0  0  0  0
  138.8400   73.7210  222.9200 H   0  0  0  0  0  0  0  0  0  0  0  0
  139.8716   73.9964  220.1701 H   0  0  0  0  0  0  0  0  0  0  0  0
  138.7504   75.1104  221.0621 H   0  0  0  0  0  0  0  0  0  0  0  0
  142.2077   77.6827  220.2891 H   0  0  0  0  0  0  0  0  0  0  0  0
  143.5868   76.6842  220.7748 H   0  0  0  0  0  0  0  0  0  0  0  0
  144.2058   76.3953  218.5020 H   0  0  0  0  0  0  0  0  0  0  0  0
  143.6020   78.4880  218.4490 H   0  0  0  0  0  0  0  0  0  0  0  0
  141.2184   75.9639  217.8536 H   0  0  0  0  0  0  0  0  0  0  0  0
  142.5379   75.0957  217.1552 H   0  0  0  0  0  0  0  0  0  0  0  0
  141.4996   73.7710  219.2281 H   0  0  0  0  0  0  0  0  0  0  0  0
  144.0588   73.7020  217.4943 H   0  0  0  0  0  0  0  0  0  0  0  0
  146.2748   72.7636  218.0230 H   0  0  0  0  0  0  0  0  0  0  0  0
  147.0173   72.5717  220.4077 H   0  0  0  0  0  0  0  0  0  0  0  0
  145.4737   73.3505  222.1880 H   0  0  0  0  0  0  0  0  0  0  0  0
  143.2801   74.2839  221.6491 H   0  0  0  0  0  0  0  0  0  0  0  0
  139.2422   70.0368  222.3033 H   0  0  0  0  0  0  0  0  0  0  0  0
  138.9540   68.5342  224.2647 H   0  0  0  0  0  0  0  0  0  0  0  0
  139.2767   68.0539  226.6720 H   0  0  0  0  0  0  0  0  0  0  0  0
  141.2878   71.0496  229.0290 H   0  0  0  0  0  0  0  0  0  0  0  0
  141.5466   72.5113  227.0338 H   0  0  0  0  0  0  0  0  0  0  0  0
  1  2  2  0
  2  3  1  0
  3  4  1  0
  4  5  1  0
  5  6  2  0
  5  7  1  0
  7  8  1  0
  8  9  1  0
  9 10  1  0
  9 11  1  0
 11 12  1  0
 12 13  1  0
 13 14  2  0
 14 15  1  0
 15 16  2  0
 16 17  1  0
 17 18  2  0
  2 19  1  0
 19 20  2  0
 20 21  1  0
 21 22  2  0
 22 23  1  0
 23 24  2  0
 24 25  1  0
 24 26  1  0
 26 27  2  0
 27 28  1  0
 28 29  2  0
 12  7  1  0
 18 13  1  0
 29 19  1  0
 28 22  1  0
  3 30  1  0
  4 31  1  0
  4 32  1  0
  8 33  1  0
  8 34  1  0
  9 35  1  1
 10 36  1  0
 11 37  1  0
 11 38  1  0
 12 39  1  6
 14 40  1  0
 15 41  1  0
 16 42  1  0
 17 43  1  0
 18 44  1  0
 20 45  1  0
 21 46  1  0
 23 47  1  0
 26 48  1  0
 27 49  1  0
M  END
>  <smiles>  (37) 
O=C(NCC(=O)N1C[C@H](O)C[C@H]1c1ccccc1)c1ccc2cc(F)ccc2n1

>  <score_type>  (37) 
oracle

>  <origin>  (37) 
autodockgpu

>  <m_score__min__energy>  (37) 
-8.6600000000000001

>  <m_primary>  (37) 
energy

>  <rmsd>  (37) 
2.352565150125014

>  <m_score__min__rmsd>  (37) 
2.352565150125014

>  <meeko>  (37) 
{"free_energy": -8.36, "intermolecular_energy": -10.15, "internal_energy": -1.52, "cluster_size": 10, "cluster_id": 2, "rank_in_cluster": 2}

>  <energy>  (37) 
-7.85

>  <cluster_rmsd>  (37) 
1.15

>  <cluster>  (37) 
1

$$$$

     RDKit          3D

 49 52  0  0  0  0  0  0  0  0999 V2000
  141.3260   72.2520  221.5370 O   0  0  0  0  0  0  0  0  0  0  0  0
  140.4320   72.4930  222.4160 C   0  0  0  0  0  0  0  0  0  0  0  0
  139.6260   73.6460  222.3350 N   0  0  0  0  0  0  0  0  0  0  0  0
  139.7470   74.6230  221.2720 C   0  0  0  0  0  0  0  0  0  0  0  0
  139.3240   75.9730  221.7100 C   0  0  0  0  0  0  0  0  0  0  0  0
  138.3320   76.1920  222.4500 O   0  0  0  0  0  0  0  0  0  0  0  0
  140.0840   77.0880  221.2670 N   0  0  0  0  0  0  0  0  0  0  0  0
  139.6770   78.1030  220.2830 C   0  0  0  0  0  0  0  0  0  0  0  0
  140.9640   78.6780  219.7230 C   0  0  2  0  0  0  0  0  0  0  0  0
  140.9480   78.6480  218.3330 O   0  0  0  0  0  0  0  0  0  0  0  0
  142.0220   77.7440  220.2940 C   0  0  0  0  0  0  0  0  0  0  0  0
  141.4240   77.5030  221.6620 C   0  0  1  0  0  0  0  0  0  0  0  0
  141.4210   78.7510  222.4200 C   0  0  0  0  0  0  0  0  0  0  0  0
  140.3720   79.2610  223.1440 C   0  0  0  0  0  0  0  0  0  0  0  0
  140.4480   80.4580  223.8440 C   0  0  0  0  0  0  0  0  0  0  0  0
  141.6190   81.1940  223.8300 C   0  0  0  0  0  0  0  0  0  0  0  0
  142.6790   80.6940  223.1060 C   0  0  0  0  0  0  0  0  0  0  0  0
  142.5900   79.5090  222.4200 C   0  0  0  0  0  0  0  0  0  0  0  0
  140.2340   71.5580  223.5340 C   0  0  0  0  0  0  0  0  0  0  0  0
  139.5650   70.3630  223.3480 C   0  0  0  0  0  0  0  0  0  0  0  0
  139.3990   69.5040  224.4350 C   0  0  0  0  0  0  0  0  0  0  0  0
  139.8860   69.8160  225.6930 C   0  0  0  0  0  0  0  0  0  0  0  0
  139.7290   68.9730  226.7810 C   0  0  0  0  0  0  0  0  0  0  0  0
  140.2580   69.3800  228.0050 C   0  0  0  0  0  0  0  0  0  0  0  0
  140.1130   68.5650  229.0850 F   0  0  0  0  0  0  0  0  0  0  0  0
  140.9150   70.5940  228.1040 C   0  0  0  0  0  0  0  0  0  0  0  0
  141.0720   71.4360  227.0190 C   0  0  0  0  0  0  0  0  0  0  0  0
  140.5450   71.0220  225.8140 C   0  0  0  0  0  0  0  0  0  0  0  0
  140.7030   71.8490  224.7600 N   0  0  0  0  0  0  0  0  0  0  0  0
  138.9060   73.7940  223.0850 H   0  0  0  0  0  0  0  0  0  0  0  0
  140.7973   74.6674  220.9480 H   0  0  0  0  0  0  0  0  0  0  0  0
  139.0895   74.3114  220.4470 H   0  0  0  0  0  0  0  0  0  0  0  0
  139.0830   77.6414  219.4804 H   0  0  0  0  0  0  0  0  0  0  0  0
  139.0521   78.8831  220.7422 H   0  0  0  0  0  0  0  0  0  0  0  0
  141.1355   79.7316  219.9884 H   0  0  0  0  0  0  0  0  0  0  0  0
  141.9120   78.5200  218.0640 H   0  0  0  0  0  0  0  0  0  0  0  0
  142.1063   76.8140  219.7126 H   0  0  0  0  0  0  0  0  0  0  0  0
  143.0482   78.1401  220.2930 H   0  0  0  0  0  0  0  0  0  0  0  0
  141.9438   76.7825  222.3106 H   0  0  0  0  0  0  0  0  0  0  0  0
  139.4286   78.6960  223.1709 H   0  0  0  0  0  0  0  0  0  0  0  0
  139.5770   80.8208  224.4095 H   0  0  0  0  0  0  0  0  0  0  0  0
  141.7009   82.1446  224.3774 H   0  0  0  0  0  0  0  0  0  0  0  0
  143.6219   81.2598  223.0771 H   0  0  0  0  0  0  0  0  0  0  0  0
  143.4631   79.1486  221.8562 H   0  0  0  0  0  0  0  0  0  0  0  0
  139.1693   70.0931  222.3578 H   0  0  0  0  0  0  0  0  0  0  0  0
  138.8665   68.5527  224.2884 H   0  0  0  0  0  0  0  0  0  0  0  0
  139.2031   68.0119  226.6822 H   0  0  0  0  0  0  0  0  0  0  0  0
  141.3257   70.8989  229.0779 H   0  0  0  0  0  0  0  0  0  0  0  0
  141.5966   72.3982  227.1132 H   0  0  0  0  0  0  0  0  0  0  0  0
  1  2  2  0
  2  3  1  0
  3  4  1  0
  4  5  1  0
  5  6  2  0
  5  7  1  0
  7  8  1  0
  8  9  1  0
  9 10  1  0
  9 11  1  0
 11 12  1  0
 12 13  1  0
 13 14  2  0
 14 15  1  0
 15 16  2  0
 16 17  1  0
 17 18  2  0
  2 19  1  0
 19 20  2  0
 20 21  1  0
 21 22  2  0
 22 23  1  0
 23 24  2  0
 24 25  1  0
 24 26  1  0
 26 27  2  0
 27 28  1  0
 28 29  2  0
 12  7  1  0
 18 13  1  0
 29 19  1  0
 28 22  1  0
  3 30  1  0
  4 31  1  0
  4 32  1  0
  8 33  1  0
  8 34  1  0
  9 35  1  6
 10 36  1  0
 11 37  1  0
 11 38  1  0
 12 39  1  1
 14 40  1  0
 15 41  1  0
 16 42  1  0
 17 43  1  0
 18 44  1  0
 20 45  1  0
 21 46  1  0
 23 47  1  0
 26 48  1  0
 27 49  1  0
M  END
>  <smiles>  (38) 
O=C(NCC(=O)N1C[C@H](O)C[C@H]1c1ccccc1)c1ccc2cc(F)ccc2n1

>  <score_type>  (38) 
oracle

>  <origin>  (38) 
autodockgpu

>  <m_score__min__energy>  (38) 
-8.6600000000000001

>  <m_primary>  (38) 
energy

>  <rmsd>  (38) 
2.178719479433873

>  <m_score__min__rmsd>  (38) 
2.178719479433873

>  <meeko>  (38) 
{"free_energy": -8.57, "intermolecular_energy": -10.36, "internal_energy": -1.32, "cluster_size": 37, "cluster_id": 1, "rank_in_cluster": 16}

>  <energy>  (38) 
-8.38

>  <cluster_rmsd>  (38) 
0.0

>  <cluster>  (38) 
2

$$$$

     RDKit          3D

 49 52  0  0  0  0  0  0  0  0999 V2000
  141.0500   72.1450  221.3400 O   0  0  0  0  0  0  0  0  0  0  0  0
  140.2560   72.4230  222.3000 C   0  0  0  0  0  0  0  0  0  0  0  0
  139.4640   73.5880  222.2740 N   0  0  0  0  0  0  0  0  0  0  0  0
  139.4900   74.5380  221.1810 C   0  0  0  0  0  0  0  0  0  0  0  0
  140.7500   75.3160  221.1530 C   0  0  0  0  0  0  0  0  0  0  0  0
  141.8880   74.8150  221.3380 O   0  0  0  0  0  0  0  0  0  0  0  0
  140.6690   76.7120  220.9040 N   0  0  0  0  0  0  0  0  0  0  0  0
  139.4460   77.5130  220.7400 C   0  0  0  0  0  0  0  0  0  0  0  0
  139.8520   78.7290  219.9300 C   0  0  2  0  0  0  0  0  0  0  0  0
  139.0060   78.8930  218.8390 O   0  0  0  0  0  0  0  0  0  0  0  0
  141.2690   78.3830  219.4970 C   0  0  0  0  0  0  0  0  0  0  0  0
  141.7450   77.6830  220.7500 C   0  0  1  0  0  0  0  0  0  0  0  0
  141.7960   78.6380  221.8530 C   0  0  0  0  0  0  0  0  0  0  0  0
  141.4870   78.3830  223.1650 C   0  0  0  0  0  0  0  0  0  0  0  0
  141.5630   79.3470  224.1620 C   0  0  0  0  0  0  0  0  0  0  0  0
  141.9660   80.6330  223.8490 C   0  0  0  0  0  0  0  0  0  0  0  0
  142.2790   80.9030  222.5350 C   0  0  0  0  0  0  0  0  0  0  0  0
  142.1990   79.9390  221.5610 C   0  0  0  0  0  0  0  0  0  0  0  0
  140.1600   71.5170  223.4550 C   0  0  0  0  0  0  0  0  0  0  0  0
  139.5850   70.2660  223.3280 C   0  0  0  0  0  0  0  0  0  0  0  0
  139.5130   69.4380  224.4490 C   0  0  0  0  0  0  0  0  0  0  0  0
  140.0030   69.8330  225.6820 C   0  0  0  0  0  0  0  0  0  0  0  0
  139.9390   69.0220  226.8020 C   0  0  0  0  0  0  0  0  0  0  0  0
  140.4610   69.5140  227.9970 C   0  0  0  0  0  0  0  0  0  0  0  0
  140.4070   68.7310  229.1080 F   0  0  0  0  0  0  0  0  0  0  0  0
  141.0200   70.7790  228.0360 C   0  0  0  0  0  0  0  0  0  0  0  0
  141.0850   71.5900  226.9190 C   0  0  0  0  0  0  0  0  0  0  0  0
  140.5650   71.0910  225.7430 C   0  0  0  0  0  0  0  0  0  0  0  0
  140.6320   71.8890  224.6570 N   0  0  0  0  0  0  0  0  0  0  0  0
  138.8280   73.7660  223.0910 H   0  0  0  0  0  0  0  0  0  0  0  0
  139.3892   73.9907  220.2321 H   0  0  0  0  0  0  0  0  0  0  0  0
  138.6579   75.2432  221.3235 H   0  0  0  0  0  0  0  0  0  0  0  0
  138.6788   76.9349  220.2041 H   0  0  0  0  0  0  0  0  0  0  0  0
  139.0171   77.7994  221.7116 H   0  0  0  0  0  0  0  0  0  0  0  0
  139.7948   79.6763  220.4863 H   0  0  0  0  0  0  0  0  0  0  0  0
  138.9490   77.9790  218.4130 H   0  0  0  0  0  0  0  0  0  0  0  0
  141.2801   77.7146  218.6234 H   0  0  0  0  0  0  0  0  0  0  0  0
  141.8829   79.2367  219.1740 H   0  0  0  0  0  0  0  0  0  0  0  0
  142.7503   77.2378  220.7178 H   0  0  0  0  0  0  0  0  0  0  0  0
  141.1641   77.3681  223.4402 H   0  0  0  0  0  0  0  0  0  0  0  0
  141.3031   79.0884  225.1991 H   0  0  0  0  0  0  0  0  0  0  0  0
  142.0341   81.4124  224.6222 H   0  0  0  0  0  0  0  0  0  0  0  0
  142.6015   81.9178  222.2589 H   0  0  0  0  0  0  0  0  0  0  0  0
  142.4595   80.2003  220.5247 H   0  0  0  0  0  0  0  0  0  0  0  0
  139.1904   69.9286  222.3582 H   0  0  0  0  0  0  0  0  0  0  0  0
  139.0539   68.4433  224.3501 H   0  0  0  0  0  0  0  0  0  0  0  0
  139.4896   68.0193  226.7504 H   0  0  0  0  0  0  0  0  0  0  0  0
  141.4263   71.1516  228.9879 H   0  0  0  0  0  0  0  0  0  0  0  0
  141.5335   72.5933  226.9659 H   0  0  0  0  0  0  0  0  0  0  0  0
  1  2  2  0
  2  3  1  0
  3  4  1  0
  4  5  1  0
  5  6  2  0
  5  7  1  0
  7  8  1  0
  8  9  1  0
  9 10  1  0
  9 11  1  0
 11 12  1  0
 12 13  1  0
 13 14  2  0
 14 15  1  0
 15 16  2  0
 16 17  1  0
 17 18  2  0
  2 19  1  0
 19 20  2  0
 20 21  1  0
 21 22  2  0
 22 23  1  0
 23 24  2  0
 24 25  1  0
 24 26  1  0
 26 27  2  0
 27 28  1  0
 28 29  2  0
 12  7  1  0
 18 13  1  0
 29 19  1  0
 28 22  1  0
  3 30  1  0
  4 31  1  0
  4 32  1  0
  8 33  1  0
  8 34  1  0
  9 35  1  1
 10 36  1  0
 11 37  1  0
 11 38  1  0
 12 39  1  6
 14 40  1  0
 15 41  1  0
 16 42  1  0
 17 43  1  0
 18 44  1  0
 20 45  1  0
 21 46  1  0
 23 47  1  0
 26 48  1  0
 27 49  1  0
M  END
>  <smiles>  (39) 
O=C(NCC(=O)N1C[C@H](O)C[C@H]1c1ccccc1)c1ccc2cc(F)ccc2n1

>  <score_type>  (39) 
oracle

>  <origin>  (39) 
autodockgpu

>  <m_score__min__energy>  (39) 
-8.6600000000000001

>  <m_primary>  (39) 
energy

>  <rmsd>  (39) 
1.9375831170027142

>  <m_score__min__rmsd>  (39) 
1.9375831170027142

>  <meeko>  (39) 
{"free_energy": -8.49, "intermolecular_energy": -10.28, "internal_energy": -1.14, "cluster_size": 37, "cluster_id": 1, "rank_in_cluster": 24}

>  <energy>  (39) 
-8.36

>  <cluster_rmsd>  (39) 
0.12

>  <cluster>  (39) 
2

$$$$

     RDKit          3D

 49 52  0  0  0  0  0  0  0  0999 V2000
  141.2470   72.8170  221.9280 O   0  0  0  0  0  0  0  0  0  0  0  0
  140.1630   72.6830  222.5900 C   0  0  0  0  0  0  0  0  0  0  0  0
  139.0450   73.4990  222.3260 N   0  0  0  0  0  0  0  0  0  0  0  0
  139.0400   74.5290  221.3070 C   0  0  0  0  0  0  0  0  0  0  0  0
  138.8900   75.8830  221.8890 C   0  0  0  0  0  0  0  0  0  0  0  0
  138.0460   76.1770  222.7730 O   0  0  0  0  0  0  0  0  0  0  0  0
  139.7500   76.9110  221.4210 N   0  0  0  0  0  0  0  0  0  0  0  0
  139.4670   77.8880  220.3590 C   0  0  0  0  0  0  0  0  0  0  0  0
  140.8170   78.3340  219.8330 C   0  0  2  0  0  0  0  0  0  0  0  0
  140.8650   78.2170  218.4480 O   0  0  0  0  0  0  0  0  0  0  0  0
  141.7750   77.3650  220.5130 C   0  0  0  0  0  0  0  0  0  0  0  0
  141.0970   77.2540  221.8600 C   0  0  1  0  0  0  0  0  0  0  0  0
  141.1500   78.5440  222.5410 C   0  0  0  0  0  0  0  0  0  0  0  0
  140.1090   79.1720  223.1780 C   0  0  0  0  0  0  0  0  0  0  0  0
  140.2390   80.4030  223.8080 C   0  0  0  0  0  0  0  0  0  0  0  0
  141.4610   81.0510  223.8120 C   0  0  0  0  0  0  0  0  0  0  0  0
  142.5140   80.4320  223.1760 C   0  0  0  0  0  0  0  0  0  0  0  0
  142.3710   79.2150  222.5570 C   0  0  0  0  0  0  0  0  0  0  0  0
  140.0710   71.6620  223.6440 C   0  0  0  0  0  0  0  0  0  0  0  0
  139.4530   70.4490  223.4050 C   0  0  0  0  0  0  0  0  0  0  0  0
  139.3880   69.5080  224.4330 C   0  0  0  0  0  0  0  0  0  0  0  0
  139.9260   69.7550  225.6850 C   0  0  0  0  0  0  0  0  0  0  0  0
  139.8690   68.8310  226.7140 C   0  0  0  0  0  0  0  0  0  0  0  0
  140.4410   69.1780  227.9370 C   0  0  0  0  0  0  0  0  0  0  0  0
  140.3950   68.2820  228.9600 F   0  0  0  0  0  0  0  0  0  0  0  0
  141.0420   70.4150  228.0920 C   0  0  0  0  0  0  0  0  0  0  0  0
  141.0990   71.3380  227.0650 C   0  0  0  0  0  0  0  0  0  0  0  0
  140.5290   70.9830  225.8600 C   0  0  0  0  0  0  0  0  0  0  0  0
  140.5900   71.8900  224.8630 N   0  0  0  0  0  0  0  0  0  0  0  0
  138.1790   73.3440  222.9000 H   0  0  0  0  0  0  0  0  0  0  0  0
  139.9884   74.4840  220.7516 H   0  0  0  0  0  0  0  0  0  0  0  0
  138.1819   74.3469  220.6433 H   0  0  0  0  0  0  0  0  0  0  0  0
  138.8791   77.4201  219.5556 H   0  0  0  0  0  0  0  0  0  0  0  0
  138.8809   78.7380  220.7384 H   0  0  0  0  0  0  0  0  0  0  0  0
  141.0527   79.3877  220.0431 H   0  0  0  0  0  0  0  0  0  0  0  0
  140.0790   77.6300  218.2090 H   0  0  0  0  0  0  0  0  0  0  0  0
  141.8176   76.3965  219.9933 H   0  0  0  0  0  0  0  0  0  0  0  0
  142.8266   77.6865  220.5415 H   0  0  0  0  0  0  0  0  0  0  0  0
  141.5310   76.5410  222.5765 H   0  0  0  0  0  0  0  0  0  0  0  0
  139.1264   78.6776  223.1901 H   0  0  0  0  0  0  0  0  0  0  0  0
  139.3708   80.8622  224.3034 H   0  0  0  0  0  0  0  0  0  0  0  0
  141.5872   82.0259  224.3055 H   0  0  0  0  0  0  0  0  0  0  0  0
  143.4966   80.9262  223.1636 H   0  0  0  0  0  0  0  0  0  0  0  0
  143.2410   78.7588  222.0620 H   0  0  0  0  0  0  0  0  0  0  0  0
  139.0187   70.2288  222.4186 H   0  0  0  0  0  0  0  0  0  0  0  0
  138.8956   68.5428  224.2438 H   0  0  0  0  0  0  0  0  0  0  0  0
  139.3870   67.8526  226.5711 H   0  0  0  0  0  0  0  0  0  0  0  0
  141.4887   70.6718  229.0639 H   0  0  0  0  0  0  0  0  0  0  0  0
  141.5801   72.3175  227.2031 H   0  0  0  0  0  0  0  0  0  0  0  0
  1  2  2  0
  2  3  1  0
  3  4  1  0
  4  5  1  0
  5  6  2  0
  5  7  1  0
  7  8  1  0
  8  9  1  0
  9 10  1  0
  9 11  1  0
 11 12  1  0
 12 13  1  0
 13 14  2  0
 14 15  1  0
 15 16  2  0
 16 17  1  0
 17 18  2  0
  2 19  1  0
 19 20  2  0
 20 21  1  0
 21 22  2  0
 22 23  1  0
 23 24  2  0
 24 25  1  0
 24 26  1  0
 26 27  2  0
 27 28  1  0
 28 29  2  0
 12  7  1  0
 18 13  1  0
 29 19  1  0
 28 22  1  0
  3 30  1  0
  4 31  1  0
  4 32  1  0
  8 33  1  0
  8 34  1  0
  9 35  1  6
 10 36  1  0
 11 37  1  0
 11 38  1  0
 12 39  1  1
 14 40  1  0
 15 41  1  0
 16 42  1  0
 17 43  1  0
 18 44  1  0
 20 45  1  0
 21 46  1  0
 23 47  1  0
 26 48  1  0
 27 49  1  0
M  END
>  <smiles>  (40) 
O=C(NCC(=O)N1C[C@H](O)C[C@H]1c1ccccc1)c1ccc2cc(F)ccc2n1

>  <score_type>  (40) 
oracle

>  <origin>  (40) 
autodockgpu

>  <m_score__min__energy>  (40) 
-8.6600000000000001

>  <m_primary>  (40) 
energy

>  <rmsd>  (40) 
2.103387041525369

>  <m_score__min__rmsd>  (40) 
2.103387041525369

>  <meeko>  (40) 
{"free_energy": -8.53, "intermolecular_energy": -10.32, "internal_energy": -1.24, "cluster_size": 37, "cluster_id": 1, "rank_in_cluster": 22}

>  <energy>  (40) 
-8.35

>  <cluster_rmsd>  (40) 
0.13

>  <cluster>  (40) 
2

$$$$

     RDKit          3D

 49 52  0  0  0  0  0  0  0  0999 V2000
  141.3070   72.8130  221.8870 O   0  0  0  0  0  0  0  0  0  0  0  0
  140.2360   72.6970  222.5720 C   0  0  0  0  0  0  0  0  0  0  0  0
  139.1370   73.5530  222.3530 N   0  0  0  0  0  0  0  0  0  0  0  0
  139.1390   74.6040  221.3570 C   0  0  0  0  0  0  0  0  0  0  0  0
  139.0020   75.9460  221.9670 C   0  0  0  0  0  0  0  0  0  0  0  0
  138.1940   76.2170  222.8910 O   0  0  0  0  0  0  0  0  0  0  0  0
  139.8310   76.9910  221.4800 N   0  0  0  0  0  0  0  0  0  0  0  0
  139.5010   77.9690  220.4330 C   0  0  0  0  0  0  0  0  0  0  0  0
  140.8280   78.4400  219.8700 C   0  0  2  0  0  0  0  0  0  0  0  0
  140.8360   78.3320  218.4840 O   0  0  0  0  0  0  0  0  0  0  0  0
  141.8210   77.4830  220.5140 C   0  0  0  0  0  0  0  0  0  0  0  0
  141.1850   77.3520  221.8810 C   0  0  1  0  0  0  0  0  0  0  0  0
  141.2380   78.6390  222.5680 C   0  0  0  0  0  0  0  0  0  0  0  0
  140.1980   79.2630  223.2090 C   0  0  0  0  0  0  0  0  0  0  0  0
  140.3280   80.4910  223.8460 C   0  0  0  0  0  0  0  0  0  0  0  0
  141.5500   81.1400  223.8510 C   0  0  0  0  0  0  0  0  0  0  0  0
  142.6020   80.5250  223.2100 C   0  0  0  0  0  0  0  0  0  0  0  0
  142.4590   79.3110  222.5860 C   0  0  0  0  0  0  0  0  0  0  0  0
  140.1390   71.6580  223.6080 C   0  0  0  0  0  0  0  0  0  0  0  0
  139.5640   70.4320  223.3300 C   0  0  0  0  0  0  0  0  0  0  0  0
  139.4920   69.4730  224.3410 C   0  0  0  0  0  0  0  0  0  0  0  0
  139.9810   69.7150  225.6130 C   0  0  0  0  0  0  0  0  0  0  0  0
  139.9170   68.7730  226.6260 C   0  0  0  0  0  0  0  0  0  0  0  0
  140.4390   69.1160  227.8720 C   0  0  0  0  0  0  0  0  0  0  0  0
  140.3840   68.2030  228.8800 F   0  0  0  0  0  0  0  0  0  0  0  0
  140.9980   70.3660  228.0650 C   0  0  0  0  0  0  0  0  0  0  0  0
  141.0640   71.3080  227.0550 C   0  0  0  0  0  0  0  0  0  0  0  0
  140.5440   70.9560  225.8270 C   0  0  0  0  0  0  0  0  0  0  0  0
  140.6110   71.8800  224.8470 N   0  0  0  0  0  0  0  0  0  0  0  0
  138.2820   73.4110  222.9460 H   0  0  0  0  0  0  0  0  0  0  0  0
  140.0859   74.5625  220.7988 H   0  0  0  0  0  0  0  0  0  0  0  0
  138.2778   74.4435  220.6917 H   0  0  0  0  0  0  0  0  0  0  0  0
  138.8972   77.4961  219.6445 H   0  0  0  0  0  0  0  0  0  0  0  0
  138.9128   78.8072  220.8347 H   0  0  0  0  0  0  0  0  0  0  0  0
  141.0532   79.4960  220.0803 H   0  0  0  0  0  0  0  0  0  0  0  0
  140.2840   77.5100  218.2830 H   0  0  0  0  0  0  0  0  0  0  0  0
  141.8637   76.5187  219.9865 H   0  0  0  0  0  0  0  0  0  0  0  0
  142.8676   77.8216  220.5134 H   0  0  0  0  0  0  0  0  0  0  0  0
  141.6510   76.6412  222.5793 H   0  0  0  0  0  0  0  0  0  0  0  0
  139.2156   78.7683  223.2192 H   0  0  0  0  0  0  0  0  0  0  0  0
  139.4605   80.9467  224.3457 H   0  0  0  0  0  0  0  0  0  0  0  0
  141.6765   82.1125  224.3492 H   0  0  0  0  0  0  0  0  0  0  0  0
  143.5841   81.0203  223.1977 H   0  0  0  0  0  0  0  0  0  0  0  0
  143.3288   78.8575  222.0882 H   0  0  0  0  0  0  0  0  0  0  0  0
  139.1690   70.2156  222.3264 H   0  0  0  0  0  0  0  0  0  0  0  0
  139.0338   68.4975  224.1210 H   0  0  0  0  0  0  0  0  0  0  0  0
  139.4678   67.7840  226.4526 H   0  0  0  0  0  0  0  0  0  0  0  0
  141.4039   70.6195  229.0555 H   0  0  0  0  0  0  0  0  0  0  0  0
  141.5130   72.2979  227.2240 H   0  0  0  0  0  0  0  0  0  0  0  0
  1  2  2  0
  2  3  1  0
  3  4  1  0
  4  5  1  0
  5  6  2  0
  5  7  1  0
  7  8  1  0
  8  9  1  0
  9 10  1  0
  9 11  1  0
 11 12  1  0
 12 13  1  0
 13 14  2  0
 14 15  1  0
 15 16  2  0
 16 17  1  0
 17 18  2  0
  2 19  1  0
 19 20  2  0
 20 21  1  0
 21 22  2  0
 22 23  1  0
 23 24  2  0
 24 25  1  0
 24 26  1  0
 26 27  2  0
 27 28  1  0
 28 29  2  0
 12  7  1  0
 18 13  1  0
 29 19  1  0
 28 22  1  0
  3 30  1  0
  4 31  1  0
  4 32  1  0
  8 33  1  0
  8 34  1  0
  9 35  1  6
 10 36  1  0
 11 37  1  0
 11 38  1  0
 12 39  1  1
 14 40  1  0
 15 41  1  0
 16 42  1  0
 17 43  1  0
 18 44  1  0
 20 45  1  0
 21 46  1  0
 23 47  1  0
 26 48  1  0
 27 49  1  0
M  END
>  <smiles>  (41) 
O=C(NCC(=O)N1C[C@H](O)C[C@H]1c1ccccc1)c1ccc2cc(F)ccc2n1

>  <score_type>  (41) 
oracle

>  <origin>  (41) 
autodockgpu

>  <m_score__min__energy>  (41) 
-8.6600000000000001

>  <m_primary>  (41) 
energy

>  <rmsd>  (41) 
2.145937863917769

>  <m_score__min__rmsd>  (41) 
2.145937863917769

>  <meeko>  (41) 
{"free_energy": -8.55, "intermolecular_energy": -10.34, "internal_energy": -1.24, "cluster_size": 37, "cluster_id": 1, "rank_in_cluster": 20}

>  <energy>  (41) 
-8.35

>  <cluster_rmsd>  (41) 
0.14

>  <cluster>  (41) 
2

$$$$

     RDKit          3D

 49 52  0  0  0  0  0  0  0  0999 V2000
  141.1680   72.2180  221.5410 O   0  0  0  0  0  0  0  0  0  0  0  0
  140.2570   72.3900  222.4180 C   0  0  0  0  0  0  0  0  0  0  0  0
  139.3570   73.4710  222.3280 N   0  0  0  0  0  0  0  0  0  0  0  0
  139.3950   74.4460  221.2570 C   0  0  0  0  0  0  0  0  0  0  0  0
  140.5630   75.3500  221.3730 C   0  0  0  0  0  0  0  0  0  0  0  0
  141.7390   74.9540  221.5750 O   0  0  0  0  0  0  0  0  0  0  0  0
  140.3420   76.7470  221.2490 N   0  0  0  0  0  0  0  0  0  0  0  0
  139.0960   77.4760  221.5340 C   0  0  0  0  0  0  0  0  0  0  0  0
  139.1630   78.7490  220.7130 C   0  0  2  0  0  0  0  0  0  0  0  0
  138.0040   78.9060  219.9610 O   0  0  0  0  0  0  0  0  0  0  0  0
  140.3790   78.5120  219.8290 C   0  0  0  0  0  0  0  0  0  0  0  0
  141.2650   77.7900  220.8190 C   0  0  1  0  0  0  0  0  0  0  0  0
  141.6250   78.6970  221.9040 C   0  0  0  0  0  0  0  0  0  0  0  0
  141.4960   78.4510  223.2480 C   0  0  0  0  0  0  0  0  0  0  0  0
  141.8650   79.3680  224.2240 C   0  0  0  0  0  0  0  0  0  0  0  0
  142.3910   80.5930  223.8570 C   0  0  0  0  0  0  0  0  0  0  0  0
  142.5250   80.8530  222.5110 C   0  0  0  0  0  0  0  0  0  0  0  0
  142.1560   79.9380  221.5580 C   0  0  0  0  0  0  0  0  0  0  0  0
  140.1390   71.4510  223.5430 C   0  0  0  0  0  0  0  0  0  0  0  0
  139.5400   70.2160  223.3760 C   0  0  0  0  0  0  0  0  0  0  0  0
  139.4470   69.3550  224.4690 C   0  0  0  0  0  0  0  0  0  0  0  0
  139.9400   69.7010  225.7160 C   0  0  0  0  0  0  0  0  0  0  0  0
  139.8560   68.8560  226.8090 C   0  0  0  0  0  0  0  0  0  0  0  0
  140.3830   69.3010  228.0210 C   0  0  0  0  0  0  0  0  0  0  0  0
  140.3090   68.4840  229.1070 F   0  0  0  0  0  0  0  0  0  0  0  0
  140.9670   70.5520  228.1020 C   0  0  0  0  0  0  0  0  0  0  0  0
  141.0520   71.3970  227.0110 C   0  0  0  0  0  0  0  0  0  0  0  0
  140.5270   70.9460  225.8180 C   0  0  0  0  0  0  0  0  0  0  0  0
  140.6130   71.7750  224.7580 N   0  0  0  0  0  0  0  0  0  0  0  0
  138.6270   73.5630  223.0780 H   0  0  0  0  0  0  0  0  0  0  0  0
  139.4503   73.9154  220.2950 H   0  0  0  0  0  0  0  0  0  0  0  0
  138.4831   75.0579  221.3210 H   0  0  0  0  0  0  0  0  0  0  0  0
  138.2242   76.8745  221.2371 H   0  0  0  0  0  0  0  0  0  0  0  0
  138.9909   77.6924  222.6074 H   0  0  0  0  0  0  0  0  0  0  0  0
  139.2448   79.6656  221.3157 H   0  0  0  0  0  0  0  0  0  0  0  0
  138.3160   78.9190  219.0000 H   0  0  0  0  0  0  0  0  0  0  0  0
  140.1383   77.8839  218.9586 H   0  0  0  0  0  0  0  0  0  0  0  0
  140.8162   79.4157  219.3793 H   0  0  0  0  0  0  0  0  0  0  0  0
  142.2256   77.4112  220.4399 H   0  0  0  0  0  0  0  0  0  0  0  0
  141.0814   77.4833  223.5670 H   0  0  0  0  0  0  0  0  0  0  0  0
  141.7388   79.1198  225.2882 H   0  0  0  0  0  0  0  0  0  0  0  0
  142.6917   81.3334  224.6129 H   0  0  0  0  0  0  0  0  0  0  0  0
  142.9392   81.8207  222.1916 H   0  0  0  0  0  0  0  0  0  0  0  0
  142.2824   80.1900  220.4947 H   0  0  0  0  0  0  0  0  0  0  0  0
  139.1425   69.9169  222.3949 H   0  0  0  0  0  0  0  0  0  0  0  0
  138.9686   68.3733  224.3369 H   0  0  0  0  0  0  0  0  0  0  0  0
  139.3880   67.8641  226.7243 H   0  0  0  0  0  0  0  0  0  0  0  0
  141.3775   70.8858  229.0664 H   0  0  0  0  0  0  0  0  0  0  0  0
  141.5197   72.3894  227.0913 H   0  0  0  0  0  0  0  0  0  0  0  0
  1  2  2  0
  2  3  1  0
  3  4  1  0
  4  5  1  0
  5  6  2  0
  5  7  1  0
  7  8  1  0
  8  9  1  0
  9 10  1  0
  9 11  1  0
 11 12  1  0
 12 13  1  0
 13 14  2  0
 14 15  1  0
 15 16  2  0
 16 17  1  0
 17 18  2  0
  2 19  1  0
 19 20  2  0
 20 21  1  0
 21 22  2  0
 22 23  1  0
 23 24  2  0
 24 25  1  0
 24 26  1  0
 26 27  2  0
 27 28  1  0
 28 29  2  0
 12  7  1  0
 18 13  1  0
 29 19  1  0
 28 22  1  0
  3 30  1  0
  4 31  1  0
  4 32  1  0
  8 33  1  0
  8 34  1  0
  9 35  1  1
 10 36  1  0
 11 37  1  0
 11 38  1  0
 12 39  1  6
 14 40  1  0
 15 41  1  0
 16 42  1  0
 17 43  1  0
 18 44  1  0
 20 45  1  0
 21 46  1  0
 23 47  1  0
 26 48  1  0
 27 49  1  0
M  END
>  <smiles>  (42) 
O=C(NCC(=O)N1C[C@H](O)C[C@H]1c1ccccc1)c1ccc2cc(F)ccc2n1

>  <score_type>  (42) 
oracle

>  <origin>  (42) 
autodockgpu

>  <m_score__min__energy>  (42) 
-8.6600000000000001

>  <m_primary>  (42) 
energy

>  <rmsd>  (42) 
2.111490969678541

>  <m_score__min__rmsd>  (42) 
2.111490969678541

>  <meeko>  (42) 
{"free_energy": -8.6, "intermolecular_energy": -10.39, "internal_energy": -1.11, "cluster_size": 37, "cluster_id": 1, "rank_in_cluster": 12}

>  <energy>  (42) 
-8.34

>  <cluster_rmsd>  (42) 
0.14

>  <cluster>  (42) 
2

$$$$

     RDKit          3D

 49 52  0  0  0  0  0  0  0  0999 V2000
  141.4740   72.3250  221.5880 O   0  0  0  0  0  0  0  0  0  0  0  0
  140.4790   72.5090  222.3670 C   0  0  0  0  0  0  0  0  0  0  0  0
  139.5840   73.5780  222.1610 N   0  0  0  0  0  0  0  0  0  0  0  0
  139.7210   74.5270  221.0760 C   0  0  0  0  0  0  0  0  0  0  0  0
  140.8340   75.4770  221.3080 C   0  0  0  0  0  0  0  0  0  0  0  0
  140.9560   76.1740  222.3460 O   0  0  0  0  0  0  0  0  0  0  0  0
  141.8230   75.6080  220.2970 N   0  0  0  0  0  0  0  0  0  0  0  0
  142.6630   76.7840  220.0280 C   0  0  0  0  0  0  0  0  0  0  0  0
  143.0800   76.6730  218.5740 C   0  0  2  0  0  0  0  0  0  0  0  0
  142.8060   77.8560  217.8960 O   0  0  0  0  0  0  0  0  0  0  0  0
  142.2200   75.5230  218.0680 C   0  0  0  0  0  0  0  0  0  0  0  0
  142.2480   74.6390  219.2950 C   0  0  1  0  0  0  0  0  0  0  0  0
  143.6090   74.1620  219.5220 C   0  0  0  0  0  0  0  0  0  0  0  0
  144.4990   73.7510  218.5610 C   0  0  0  0  0  0  0  0  0  0  0  0
  145.7830   73.3120  218.8580 C   0  0  0  0  0  0  0  0  0  0  0  0
  146.2150   73.2760  220.1720 C   0  0  0  0  0  0  0  0  0  0  0  0
  145.3310   73.6850  221.1450 C   0  0  0  0  0  0  0  0  0  0  0  0
  144.0650   74.1170  220.8380 C   0  0  0  0  0  0  0  0  0  0  0  0
  140.2570   71.5950  223.4970 C   0  0  0  0  0  0  0  0  0  0  0  0
  139.5710   70.4070  223.3240 C   0  0  0  0  0  0  0  0  0  0  0  0
  139.3810   69.5690  224.4230 C   0  0  0  0  0  0  0  0  0  0  0  0
  139.8620   69.8930  225.6810 C   0  0  0  0  0  0  0  0  0  0  0  0
  139.6820   69.0710  226.7800 C   0  0  0  0  0  0  0  0  0  0  0  0
  140.2060   69.4890  228.0020 C   0  0  0  0  0  0  0  0  0  0  0  0
  140.0380   68.6940  229.0940 F   0  0  0  0  0  0  0  0  0  0  0  0
  140.8810   70.6940  228.0880 C   0  0  0  0  0  0  0  0  0  0  0  0
  141.0620   71.5150  226.9910 C   0  0  0  0  0  0  0  0  0  0  0  0
  140.5380   71.0910  225.7880 C   0  0  0  0  0  0  0  0  0  0  0  0
  140.7190   71.8980  224.7230 N   0  0  0  0  0  0  0  0  0  0  0  0
  138.7830   73.6800  222.8320 H   0  0  0  0  0  0  0  0  0  0  0  0
  139.9130   73.9756  220.1438 H   0  0  0  0  0  0  0  0  0  0  0  0
  138.7879   75.1057  221.0104 H   0  0  0  0  0  0  0  0  0  0  0  0
  142.0905   77.7088  220.1923 H   0  0  0  0  0  0  0  0  0  0  0  0
  143.5355   76.8187  220.6969 H   0  0  0  0  0  0  0  0  0  0  0  0
  144.1564   76.4981  218.4299 H   0  0  0  0  0  0  0  0  0  0  0  0
  143.6740   78.1050  217.4430 H   0  0  0  0  0  0  0  0  0  0  0  0
  141.1995   75.8506  217.8204 H   0  0  0  0  0  0  0  0  0  0  0  0
  142.5684   75.0487  217.1386 H   0  0  0  0  0  0  0  0  0  0  0  0
  141.6333   73.7273  219.2635 H   0  0  0  0  0  0  0  0  0  0  0  0
  144.1810   73.7702  217.5082 H   0  0  0  0  0  0  0  0  0  0  0  0
  146.4563   72.9930  218.0487 H   0  0  0  0  0  0  0  0  0  0  0  0
  147.2279   72.9331  220.4298 H   0  0  0  0  0  0  0  0  0  0  0  0
  145.6483   73.6650  222.1981 H   0  0  0  0  0  0  0  0  0  0  0  0
  143.3945   74.4352  221.6499 H   0  0  0  0  0  0  0  0  0  0  0  0
  139.1808   70.1268  222.3344 H   0  0  0  0  0  0  0  0  0  0  0  0
  138.8339   68.6245  224.2868 H   0  0  0  0  0  0  0  0  0  0  0  0
  139.1418   68.1168  226.6916 H   0  0  0  0  0  0  0  0  0  0  0  0
  141.2866   71.0086  229.0609 H   0  0  0  0  0  0  0  0  0  0  0  0
  141.6028   72.4692  227.0743 H   0  0  0  0  0  0  0  0  0  0  0  0
  1  2  2  0
  2  3  1  0
  3  4  1  0
  4  5  1  0
  5  6  2  0
  5  7  1  0
  7  8  1  0
  8  9  1  0
  9 10  1  0
  9 11  1  0
 11 12  1  0
 12 13  1  0
 13 14  2  0
 14 15  1  0
 15 16  2  0
 16 17  1  0
 17 18  2  0
  2 19  1  0
 19 20  2  0
 20 21  1  0
 21 22  2  0
 22 23  1  0
 23 24  2  0
 24 25  1  0
 24 26  1  0
 26 27  2  0
 27 28  1  0
 28 29  2  0
 12  7  1  0
 18 13  1  0
 29 19  1  0
 28 22  1  0
  3 30  1  0
  4 31  1  0
  4 32  1  0
  8 33  1  0
  8 34  1  0
  9 35  1  1
 10 36  1  0
 11 37  1  0
 11 38  1  0
 12 39  1  6
 14 40  1  0
 15 41  1  0
 16 42  1  0
 17 43  1  0
 18 44  1  0
 20 45  1  0
 21 46  1  0
 23 47  1  0
 26 48  1  0
 27 49  1  0
M  END
>  <smiles>  (43) 
O=C(NCC(=O)N1C[C@H](O)C[C@H]1c1ccccc1)c1ccc2cc(F)ccc2n1

>  <score_type>  (43) 
oracle

>  <origin>  (43) 
autodockgpu

>  <m_score__min__energy>  (43) 
-8.6600000000000001

>  <m_primary>  (43) 
energy

>  <rmsd>  (43) 
2.360120757151061

>  <m_score__min__rmsd>  (43) 
2.360120757151061

>  <meeko>  (43) 
{"free_energy": -8.34, "intermolecular_energy": -10.13, "internal_energy": -1.48, "cluster_size": 10, "cluster_id": 2, "rank_in_cluster": 6}

>  <energy>  (43) 
-8.34

>  <cluster_rmsd>  (43) 
0.25

>  <cluster>  (43) 
2

$$$$

     RDKit          3D

 49 52  0  0  0  0  0  0  0  0999 V2000
  140.4780   71.9300  221.0540 O   0  0  0  0  0  0  0  0  0  0  0  0
  140.0370   72.3440  222.1780 C   0  0  0  0  0  0  0  0  0  0  0  0
  139.5750   73.6670  222.3340 N   0  0  0  0  0  0  0  0  0  0  0  0
  139.5660   74.6340  221.2560 C   0  0  0  0  0  0  0  0  0  0  0  0
  139.2140   75.9920  221.7340 C   0  0  0  0  0  0  0  0  0  0  0  0
  138.2630   76.2340  222.5200 O   0  0  0  0  0  0  0  0  0  0  0  0
  139.9960   77.0850  221.2770 N   0  0  0  0  0  0  0  0  0  0  0  0
  139.6020   78.1060  220.2940 C   0  0  0  0  0  0  0  0  0  0  0  0
  140.8950   78.6460  219.7150 C   0  0  2  0  0  0  0  0  0  0  0  0
  140.8600   78.6110  218.3250 O   0  0  0  0  0  0  0  0  0  0  0  0
  141.9360   77.6880  220.2760 C   0  0  0  0  0  0  0  0  0  0  0  0
  141.3510   77.4680  221.6530 C   0  0  1  0  0  0  0  0  0  0  0  0
  141.3890   78.7180  222.4050 C   0  0  0  0  0  0  0  0  0  0  0  0
  140.3420   79.2940  223.0800 C   0  0  0  0  0  0  0  0  0  0  0  0
  140.4580   80.4890  223.7780 C   0  0  0  0  0  0  0  0  0  0  0  0
  141.6710   81.1540  223.8140 C   0  0  0  0  0  0  0  0  0  0  0  0
  142.7290   80.5870  223.1390 C   0  0  0  0  0  0  0  0  0  0  0  0
  142.6000   79.4050  222.4530 C   0  0  0  0  0  0  0  0  0  0  0  0
  140.0060   71.4340  223.3320 C   0  0  0  0  0  0  0  0  0  0  0  0
  139.5630   70.1310  223.1960 C   0  0  0  0  0  0  0  0  0  0  0  0
  139.5500   69.3000  224.3160 C   0  0  0  0  0  0  0  0  0  0  0  0
  139.9700   69.7430  225.5590 C   0  0  0  0  0  0  0  0  0  0  0  0
  139.9630   68.9290  226.6790 C   0  0  0  0  0  0  0  0  0  0  0  0
  140.4060   69.4720  227.8850 C   0  0  0  0  0  0  0  0  0  0  0  0
  140.4060   68.6870  228.9960 F   0  0  0  0  0  0  0  0  0  0  0  0
  140.8340   70.7860  227.9330 C   0  0  0  0  0  0  0  0  0  0  0  0
  140.8420   71.6000  226.8150 C   0  0  0  0  0  0  0  0  0  0  0  0
  140.4010   71.0510  225.6300 C   0  0  0  0  0  0  0  0  0  0  0  0
  140.4120   71.8510  224.5440 N   0  0  0  0  0  0  0  0  0  0  0  0
  139.2230   73.9530  223.2810 H   0  0  0  0  0  0  0  0  0  0  0  0
  140.5660   74.6661  220.7988 H   0  0  0  0  0  0  0  0  0  0  0  0
  138.8053   74.3223  220.5251 H   0  0  0  0  0  0  0  0  0  0  0  0
  138.9861   77.6564  219.5012 H   0  0  0  0  0  0  0  0  0  0  0  0
  139.0031   78.9035  220.7580 H   0  0  0  0  0  0  0  0  0  0  0  0
  141.0965   79.6960  219.9735 H   0  0  0  0  0  0  0  0  0  0  0  0
  141.4030   77.7970  218.0710 H   0  0  0  0  0  0  0  0  0  0  0  0
  141.9886   76.7537  219.6978 H   0  0  0  0  0  0  0  0  0  0  0  0
  142.9718   78.0579  220.2595 H   0  0  0  0  0  0  0  0  0  0  0  0
  141.8614   76.7378  222.2982 H   0  0  0  0  0  0  0  0  0  0  0  0
  139.3664   78.7859  223.0676 H   0  0  0  0  0  0  0  0  0  0  0  0
  139.5858   80.9068  224.3021 H   0  0  0  0  0  0  0  0  0  0  0  0
  141.7859   82.1010  224.3618 H   0  0  0  0  0  0  0  0  0  0  0  0
  143.7044   81.0953  223.1499 H   0  0  0  0  0  0  0  0  0  0  0  0
  143.4736   78.9904  221.9287 H   0  0  0  0  0  0  0  0  0  0  0  0
  139.2258   69.7554  222.2186 H   0  0  0  0  0  0  0  0  0  0  0  0
  139.1963   68.2639  224.2090 H   0  0  0  0  0  0  0  0  0  0  0  0
  139.6186   67.8860  226.6195 H   0  0  0  0  0  0  0  0  0  0  0  0
  141.1797   71.1977  228.8927 H   0  0  0  0  0  0  0  0  0  0  0  0
  141.1863   72.6433  226.8692 H   0  0  0  0  0  0  0  0  0  0  0  0
  1  2  2  0
  2  3  1  0
  3  4  1  0
  4  5  1  0
  5  6  2  0
  5  7  1  0
  7  8  1  0
  8  9  1  0
  9 10  1  0
  9 11  1  0
 11 12  1  0
 12 13  1  0
 13 14  2  0
 14 15  1  0
 15 16  2  0
 16 17  1  0
 17 18  2  0
  2 19  1  0
 19 20  2  0
 20 21  1  0
 21 22  2  0
 22 23  1  0
 23 24  2  0
 24 25  1  0
 24 26  1  0
 26 27  2  0
 27 28  1  0
 28 29  2  0
 12  7  1  0
 18 13  1  0
 29 19  1  0
 28 22  1  0
  3 30  1  0
  4 31  1  0
  4 32  1  0
  8 33  1  0
  8 34  1  0
  9 35  1  6
 10 36  1  0
 11 37  1  0
 11 38  1  0
 12 39  1  1
 14 40  1  0
 15 41  1  0
 16 42  1  0
 17 43  1  0
 18 44  1  0
 20 45  1  0
 21 46  1  0
 23 47  1  0
 26 48  1  0
 27 49  1  0
M  END
>  <smiles>  (44) 
O=C(NCC(=O)N1C[C@H](O)C[C@H]1c1ccccc1)c1ccc2cc(F)ccc2n1

>  <score_type>  (44) 
oracle

>  <origin>  (44) 
autodockgpu

>  <m_score__min__energy>  (44) 
-8.6600000000000001

>  <m_primary>  (44) 
energy

>  <rmsd>  (44) 
2.087117101181088

>  <m_score__min__rmsd>  (44) 
2.087117101181088

>  <meeko>  (44) 
{"free_energy": -8.32, "intermolecular_energy": -10.11, "internal_energy": -1.39, "cluster_size": 37, "cluster_id": 1, "rank_in_cluster": 30}

>  <energy>  (44) 
-8.33

>  <cluster_rmsd>  (44) 
0.25

>  <cluster>  (44) 
2

$$$$

     RDKit          3D

 49 52  0  0  0  0  0  0  0  0999 V2000
  141.1420   72.1350  221.4050 O   0  0  0  0  0  0  0  0  0  0  0  0
  140.3050   72.3920  222.3340 C   0  0  0  0  0  0  0  0  0  0  0  0
  139.4990   73.5470  222.2860 N   0  0  0  0  0  0  0  0  0  0  0  0
  139.5580   74.5080  221.2040 C   0  0  0  0  0  0  0  0  0  0  0  0
  140.5630   75.5660  221.4570 C   0  0  0  0  0  0  0  0  0  0  0  0
  141.7990   75.3540  221.5390 O   0  0  0  0  0  0  0  0  0  0  0  0
  140.1040   76.9000  221.6170 N   0  0  0  0  0  0  0  0  0  0  0  0
  138.9600   77.3530  222.4240 C   0  0  0  0  0  0  0  0  0  0  0  0
  138.5220   78.6730  221.8220 C   0  0  2  0  0  0  0  0  0  0  0  0
  137.1570   78.6620  221.5590 O   0  0  0  0  0  0  0  0  0  0  0  0
  139.3420   78.7430  220.5410 C   0  0  0  0  0  0  0  0  0  0  0  0
  140.6310   78.1310  221.0410 C   0  0  1  0  0  0  0  0  0  0  0  0
  141.2290   79.0050  222.0450 C   0  0  0  0  0  0  0  0  0  0  0  0
  141.6450   78.6380  223.3010 C   0  0  0  0  0  0  0  0  0  0  0  0
  142.2090   79.5320  224.2020 C   0  0  0  0  0  0  0  0  0  0  0  0
  142.3740   80.8590  223.8480 C   0  0  0  0  0  0  0  0  0  0  0  0
  141.9600   81.2410  222.5910 C   0  0  0  0  0  0  0  0  0  0  0  0
  141.4040   80.3460  221.7110 C   0  0  0  0  0  0  0  0  0  0  0  0
  140.1730   71.4730  223.4750 C   0  0  0  0  0  0  0  0  0  0  0  0
  139.5590   70.2430  223.3270 C   0  0  0  0  0  0  0  0  0  0  0  0
  139.4540   69.4020  224.4350 C   0  0  0  0  0  0  0  0  0  0  0  0
  139.9500   69.7640  225.6760 C   0  0  0  0  0  0  0  0  0  0  0  0
  139.8540   68.9380  226.7840 C   0  0  0  0  0  0  0  0  0  0  0  0
  140.3850   69.3970  227.9890 C   0  0  0  0  0  0  0  0  0  0  0  0
  140.2990   68.5990  229.0880 F   0  0  0  0  0  0  0  0  0  0  0  0
  140.9850   70.6420  228.0490 C   0  0  0  0  0  0  0  0  0  0  0  0
  141.0820   71.4660  226.9440 C   0  0  0  0  0  0  0  0  0  0  0  0
  140.5520   71.0020  225.7580 C   0  0  0  0  0  0  0  0  0  0  0  0
  140.6500   71.8120  224.6840 N   0  0  0  0  0  0  0  0  0  0  0  0
  138.8280   73.7080  223.0770 H   0  0  0  0  0  0  0  0  0  0  0  0
  139.8226   73.9815  220.2751 H   0  0  0  0  0  0  0  0  0  0  0  0
  138.5719   74.9883  221.1215 H   0  0  0  0  0  0  0  0  0  0  0  0
  138.1419   76.6194  222.3733 H   0  0  0  0  0  0  0  0  0  0  0  0
  139.2328   77.4639  223.4838 H   0  0  0  0  0  0  0  0  0  0  0  0
  138.6825   79.5393  222.4806 H   0  0  0  0  0  0  0  0  0  0  0  0
  136.9740   77.7490  221.1680 H   0  0  0  0  0  0  0  0  0  0  0  0
  138.8918   78.1492  219.7318 H   0  0  0  0  0  0  0  0  0  0  0  0
  139.4384   79.7457  220.0992 H   0  0  0  0  0  0  0  0  0  0  0  0
  141.4260   77.9736  220.2972 H   0  0  0  0  0  0  0  0  0  0  0  0
  141.5262   77.5883  223.6076 H   0  0  0  0  0  0  0  0  0  0  0  0
  142.5244   79.1848  225.1970 H   0  0  0  0  0  0  0  0  0  0  0  0
  142.8199   81.5834  224.5455 H   0  0  0  0  0  0  0  0  0  0  0  0
  142.0780   82.2908  222.2843 H   0  0  0  0  0  0  0  0  0  0  0  0
  141.0888   80.6966  220.7172 H   0  0  0  0  0  0  0  0  0  0  0  0
  139.1594   69.9323  222.3504 H   0  0  0  0  0  0  0  0  0  0  0  0
  138.9636   68.4242  224.3196 H   0  0  0  0  0  0  0  0  0  0  0  0
  139.3738   67.9507  226.7154 H   0  0  0  0  0  0  0  0  0  0  0  0
  141.3985   70.9874  229.0080 H   0  0  0  0  0  0  0  0  0  0  0  0
  141.5630   72.4532  227.0076 H   0  0  0  0  0  0  0  0  0  0  0  0
  1  2  2  0
  2  3  1  0
  3  4  1  0
  4  5  1  0
  5  6  2  0
  5  7  1  0
  7  8  1  0
  8  9  1  0
  9 10  1  0
  9 11  1  0
 11 12  1  0
 12 13  1  0
 13 14  2  0
 14 15  1  0
 15 16  2  0
 16 17  1  0
 17 18  2  0
  2 19  1  0
 19 20  2  0
 20 21  1  0
 21 22  2  0
 22 23  1  0
 23 24  2  0
 24 25  1  0
 24 26  1  0
 26 27  2  0
 27 28  1  0
 28 29  2  0
 12  7  1  0
 18 13  1  0
 29 19  1  0
 28 22  1  0
  3 30  1  0
  4 31  1  0
  4 32  1  0
  8 33  1  0
  8 34  1  0
  9 35  1  1
 10 36  1  0
 11 37  1  0
 11 38  1  0
 12 39  1  6
 14 40  1  0
 15 41  1  0
 16 42  1  0
 17 43  1  0
 18 44  1  0
 20 45  1  0
 21 46  1  0
 23 47  1  0
 26 48  1  0
 27 49  1  0
M  END
>  <smiles>  (45) 
O=C(NCC(=O)N1C[C@H](O)C[C@H]1c1ccccc1)c1ccc2cc(F)ccc2n1

>  <score_type>  (45) 
oracle

>  <origin>  (45) 
autodockgpu

>  <m_score__min__energy>  (45) 
-8.6600000000000001

>  <m_primary>  (45) 
energy

>  <rmsd>  (45) 
2.492569321584313

>  <m_score__min__rmsd>  (45) 
2.492569321584313

>  <meeko>  (45) 
{"free_energy": -8.55, "intermolecular_energy": -10.34, "internal_energy": -1.13, "cluster_size": 37, "cluster_id": 1, "rank_in_cluster": 21}

>  <energy>  (45) 
-8.31

>  <cluster_rmsd>  (45) 
0.11

>  <cluster>  (45) 
2

$$$$

     RDKit          3D

 49 52  0  0  0  0  0  0  0  0999 V2000
  141.4300   72.5320  221.6610 O   0  0  0  0  0  0  0  0  0  0  0  0
  140.4480   72.6420  222.4690 C   0  0  0  0  0  0  0  0  0  0  0  0
  139.5340   73.7100  222.3600 N   0  0  0  0  0  0  0  0  0  0  0  0
  139.6380   74.7410  221.3470 C   0  0  0  0  0  0  0  0  0  0  0  0
  139.0120   76.0100  221.7830 C   0  0  0  0  0  0  0  0  0  0  0  0
  138.0270   76.0760  222.5620 O   0  0  0  0  0  0  0  0  0  0  0  0
  139.5550   77.2270  221.2920 N   0  0  0  0  0  0  0  0  0  0  0  0
  138.8210   78.4650  220.9860 C   0  0  0  0  0  0  0  0  0  0  0  0
  139.6710   79.2120  219.9760 C   0  0  2  0  0  0  0  0  0  0  0  0
  138.9100   79.5730  218.8700 O   0  0  0  0  0  0  0  0  0  0  0  0
  140.7370   78.1880  219.6150 C   0  0  0  0  0  0  0  0  0  0  0  0
  140.9390   77.5540  220.9740 C   0  0  1  0  0  0  0  0  0  0  0  0
  141.5040   78.5380  221.8920 C   0  0  0  0  0  0  0  0  0  0  0  0
  142.2000   79.6700  221.5450 C   0  0  0  0  0  0  0  0  0  0  0  0
  142.7060   80.5630  222.4810 C   0  0  0  0  0  0  0  0  0  0  0  0
  142.5170   80.3300  223.8320 C   0  0  0  0  0  0  0  0  0  0  0  0
  141.8220   79.1970  224.1930 C   0  0  0  0  0  0  0  0  0  0  0  0
  141.3270   78.3230  223.2570 C   0  0  0  0  0  0  0  0  0  0  0  0
  140.2580   71.6430  223.5310 C   0  0  0  0  0  0  0  0  0  0  0  0
  139.6210   70.4440  223.2710 C   0  0  0  0  0  0  0  0  0  0  0  0
  139.4610   69.5240  224.3070 C   0  0  0  0  0  0  0  0  0  0  0  0
  139.9260   69.7770  225.5860 C   0  0  0  0  0  0  0  0  0  0  0  0
  139.7750   68.8720  226.6240 C   0  0  0  0  0  0  0  0  0  0  0  0
  140.2780   69.2230  227.8760 C   0  0  0  0  0  0  0  0  0  0  0  0
  140.1400   68.3470  228.9070 F   0  0  0  0  0  0  0  0  0  0  0  0
  140.9050   70.4440  228.0500 C   0  0  0  0  0  0  0  0  0  0  0  0
  141.0560   71.3480  227.0150 C   0  0  0  0  0  0  0  0  0  0  0  0
  140.5530   70.9890  225.7820 C   0  0  0  0  0  0  0  0  0  0  0  0
  140.7050   71.8760  224.7770 N   0  0  0  0  0  0  0  0  0  0  0  0
  138.7440   73.7500  223.0510 H   0  0  0  0  0  0  0  0  0  0  0  0
  140.7016   74.9241  221.1341 H   0  0  0  0  0  0  0  0  0  0  0  0
  139.1079   74.3907  220.4491 H   0  0  0  0  0  0  0  0  0  0  0  0
  137.8355   78.2298  220.5576 H   0  0  0  0  0  0  0  0  0  0  0  0
  138.6466   79.0658  221.8908 H   0  0  0  0  0  0  0  0  0  0  0  0
  140.0941   80.1531  220.3572 H   0  0  0  0  0  0  0  0  0  0  0  0
  139.4400   80.3020  218.4150 H   0  0  0  0  0  0  0  0  0  0  0  0
  140.3746   77.4618  218.8725 H   0  0  0  0  0  0  0  0  0  0  0  0
  141.6446   78.5992  219.1490 H   0  0  0  0  0  0  0  0  0  0  0  0
  141.6261   76.6965  221.0243 H   0  0  0  0  0  0  0  0  0  0  0  0
  142.3642   79.8789  220.4776 H   0  0  0  0  0  0  0  0  0  0  0  0
  143.2568   81.4552  222.1484 H   0  0  0  0  0  0  0  0  0  0  0  0
  142.9077   81.0246  224.5902 H   0  0  0  0  0  0  0  0  0  0  0  0
  141.6591   78.9866  225.2603 H   0  0  0  0  0  0  0  0  0  0  0  0
  140.7773   77.4314  223.5930 H   0  0  0  0  0  0  0  0  0  0  0  0
  139.2458   70.2188  222.2618 H   0  0  0  0  0  0  0  0  0  0  0  0
  138.9512   68.5711  224.1020 H   0  0  0  0  0  0  0  0  0  0  0  0
  139.2735   67.9059  226.4652 H   0  0  0  0  0  0  0  0  0  0  0  0
  141.2962   70.7040  229.0446 H   0  0  0  0  0  0  0  0  0  0  0  0
  141.5573   72.3150  227.1687 H   0  0  0  0  0  0  0  0  0  0  0  0
  1  2  2  0
  2  3  1  0
  3  4  1  0
  4  5  1  0
  5  6  2  0
  5  7  1  0
  7  8  1  0
  8  9  1  0
  9 10  1  0
  9 11  1  0
 11 12  1  0
 12 13  1  0
 13 14  2  0
 14 15  1  0
 15 16  2  0
 16 17  1  0
 17 18  2  0
  2 19  1  0
 19 20  2  0
 20 21  1  0
 21 22  2  0
 22 23  1  0
 23 24  2  0
 24 25  1  0
 24 26  1  0
 26 27  2  0
 27 28  1  0
 28 29  2  0
 12  7  1  0
 18 13  1  0
 29 19  1  0
 28 22  1  0
  3 30  1  0
  4 31  1  0
  4 32  1  0
  8 33  1  0
  8 34  1  0
  9 35  1  1
 10 36  1  0
 11 37  1  0
 11 38  1  0
 12 39  1  6
 14 40  1  0
 15 41  1  0
 16 42  1  0
 17 43  1  0
 18 44  1  0
 20 45  1  0
 21 46  1  0
 23 47  1  0
 26 48  1  0
 27 49  1  0
M  END
>  <smiles>  (46) 
O=C(NCC(=O)N1C[C@H](O)C[C@H]1c1ccccc1)c1ccc2cc(F)ccc2n1

>  <score_type>  (46) 
oracle

>  <origin>  (46) 
autodockgpu

>  <m_score__min__energy>  (46) 
-8.6600000000000001

>  <m_primary>  (46) 
energy

>  <rmsd>  (46) 
2.273072291225771

>  <m_score__min__rmsd>  (46) 
2.273072291225771

>  <meeko>  (46) 
{"free_energy": -8.38, "intermolecular_energy": -10.17, "internal_energy": -1.34, "cluster_size": 37, "cluster_id": 1, "rank_in_cluster": 28}

>  <energy>  (46) 
-8.1

>  <cluster_rmsd>  (46) 
0.47

>  <cluster>  (46) 
2

$$$$

     RDKit          3D

 49 52  0  0  0  0  0  0  0  0999 V2000
  141.3640   72.3820  221.6960 O   0  0  0  0  0  0  0  0  0  0  0  0
  140.3890   72.5410  222.5040 C   0  0  0  0  0  0  0  0  0  0  0  0
  139.4890   73.6160  222.3540 N   0  0  0  0  0  0  0  0  0  0  0  0
  139.6000   74.5990  221.2960 C   0  0  0  0  0  0  0  0  0  0  0  0
  139.2810   75.9640  221.7740 C   0  0  0  0  0  0  0  0  0  0  0  0
  138.3590   76.2250  222.5880 O   0  0  0  0  0  0  0  0  0  0  0  0
  140.0620   77.0440  221.2840 N   0  0  0  0  0  0  0  0  0  0  0  0
  139.6540   78.0570  220.2990 C   0  0  0  0  0  0  0  0  0  0  0  0
  140.9370   78.5760  219.6800 C   0  0  2  0  0  0  0  0  0  0  0  0
  140.8650   78.5250  218.2920 O   0  0  0  0  0  0  0  0  0  0  0  0
  141.9820   77.6140  220.2250 C   0  0  0  0  0  0  0  0  0  0  0  0
  141.4310   77.4160  221.6190 C   0  0  1  0  0  0  0  0  0  0  0  0
  141.5020   78.6750  222.3550 C   0  0  0  0  0  0  0  0  0  0  0  0
  142.5590   79.5500  222.3710 C   0  0  0  0  0  0  0  0  0  0  0  0
  142.5490   80.7350  223.0970 C   0  0  0  0  0  0  0  0  0  0  0  0
  141.4390   81.0760  223.8480 C   0  0  0  0  0  0  0  0  0  0  0  0
  140.3710   80.2050  223.8410 C   0  0  0  0  0  0  0  0  0  0  0  0
  140.3950   79.0390  223.1190 C   0  0  0  0  0  0  0  0  0  0  0  0
  140.1930   71.5920  223.6100 C   0  0  0  0  0  0  0  0  0  0  0  0
  139.5160   70.4030  223.4130 C   0  0  0  0  0  0  0  0  0  0  0  0
  139.3520   69.5310  224.4890 C   0  0  0  0  0  0  0  0  0  0  0  0
  139.8500   69.8220  225.7480 C   0  0  0  0  0  0  0  0  0  0  0  0
  139.6960   68.9660  226.8240 C   0  0  0  0  0  0  0  0  0  0  0  0
  140.2350   69.3530  228.0510 C   0  0  0  0  0  0  0  0  0  0  0  0
  140.0940   68.5230  229.1200 F   0  0  0  0  0  0  0  0  0  0  0  0
  140.9000   70.5610  228.1610 C   0  0  0  0  0  0  0  0  0  0  0  0
  141.0550   71.4170  227.0870 C   0  0  0  0  0  0  0  0  0  0  0  0
  140.5170   71.0220  225.8800 C   0  0  0  0  0  0  0  0  0  0  0  0
  140.6720   71.8630  224.8360 N   0  0  0  0  0  0  0  0  0  0  0  0
  138.7040   73.6970  223.0470 H   0  0  0  0  0  0  0  0  0  0  0  0
  140.6294   74.5895  220.9085 H   0  0  0  0  0  0  0  0  0  0  0  0
  138.8775   74.3360  220.5094 H   0  0  0  0  0  0  0  0  0  0  0  0
  139.0131   77.6045  219.5280 H   0  0  0  0  0  0  0  0  0  0  0  0
  139.0760   78.8667  220.7685 H   0  0  0  0  0  0  0  0  0  0  0  0
  141.1563   79.6267  219.9205 H   0  0  0  0  0  0  0  0  0  0  0  0
  141.6350   79.0950  217.9700 H   0  0  0  0  0  0  0  0  0  0  0  0
  142.0100   76.6726  219.6567 H   0  0  0  0  0  0  0  0  0  0  0  0
  143.0207   77.9729  220.1773 H   0  0  0  0  0  0  0  0  0  0  0  0
  141.9505   76.6873  222.2586 H   0  0  0  0  0  0  0  0  0  0  0  0
  143.4547   79.3022  221.7826 H   0  0  0  0  0  0  0  0  0  0  0  0
  143.4238   81.4015  223.0743 H   0  0  0  0  0  0  0  0  0  0  0  0
  141.4096   82.0089  224.4301 H   0  0  0  0  0  0  0  0  0  0  0  0
  139.4754   80.4515  224.4302 H   0  0  0  0  0  0  0  0  0  0  0  0
  139.5186   78.3747  223.1437 H   0  0  0  0  0  0  0  0  0  0  0  0
  139.1125   70.1483  222.4219 H   0  0  0  0  0  0  0  0  0  0  0  0
  138.8119   68.5855  224.3332 H   0  0  0  0  0  0  0  0  0  0  0  0
  139.1645   68.0091  226.7152 H   0  0  0  0  0  0  0  0  0  0  0  0
  141.3195   70.8500  229.1359 H   0  0  0  0  0  0  0  0  0  0  0  0
  141.5860   72.3747  227.1907 H   0  0  0  0  0  0  0  0  0  0  0  0
  1  2  2  0
  2  3  1  0
  3  4  1  0
  4  5  1  0
  5  6  2  0
  5  7  1  0
  7  8  1  0
  8  9  1  0
  9 10  1  0
  9 11  1  0
 11 12  1  0
 12 13  1  0
 13 14  2  0
 14 15  1  0
 15 16  2  0
 16 17  1  0
 17 18  2  0
  2 19  1  0
 19 20  2  0
 20 21  1  0
 21 22  2  0
 22 23  1  0
 23 24  2  0
 24 25  1  0
 24 26  1  0
 26 27  2  0
 27 28  1  0
 28 29  2  0
 12  7  1  0
 18 13  1  0
 29 19  1  0
 28 22  1  0
  3 30  1  0
  4 31  1  0
  4 32  1  0
  8 33  1  0
  8 34  1  0
  9 35  1  6
 10 36  1  0
 11 37  1  0
 11 38  1  0
 12 39  1  1
 14 40  1  0
 15 41  1  0
 16 42  1  0
 17 43  1  0
 18 44  1  0
 20 45  1  0
 21 46  1  0
 23 47  1  0
 26 48  1  0
 27 49  1  0
M  END
>  <smiles>  (47) 
O=C(NCC(=O)N1C[C@H](O)C[C@H]1c1ccccc1)c1ccc2cc(F)ccc2n1

>  <score_type>  (47) 
oracle

>  <origin>  (47) 
autodockgpu

>  <m_score__min__energy>  (47) 
-8.6600000000000001

>  <m_primary>  (47) 
energy

>  <rmsd>  (47) 
2.1432766312567897

>  <m_score__min__rmsd>  (47) 
2.1432766312567897

>  <meeko>  (47) 
{"free_energy": -8.56, "intermolecular_energy": -10.35, "internal_energy": -1.28, "cluster_size": 37, "cluster_id": 1, "rank_in_cluster": 18}

>  <energy>  (47) 
-8.06

>  <cluster_rmsd>  (47) 
0.39

>  <cluster>  (47) 
2

$$$$

     RDKit          3D

 49 52  0  0  0  0  0  0  0  0999 V2000
  141.1250   72.9550  222.0530 O   0  0  0  0  0  0  0  0  0  0  0  0
  140.0320   72.6920  222.6580 C   0  0  0  0  0  0  0  0  0  0  0  0
  138.8430   73.3820  222.3450 N   0  0  0  0  0  0  0  0  0  0  0  0
  138.7720   74.4180  221.3360 C   0  0  0  0  0  0  0  0  0  0  0  0
  138.7830   75.7740  221.9320 C   0  0  0  0  0  0  0  0  0  0  0  0
  138.0090   76.1420  222.8510 O   0  0  0  0  0  0  0  0  0  0  0  0
  139.7240   76.7150  221.4370 N   0  0  0  0  0  0  0  0  0  0  0  0
  139.5350   77.6520  220.3180 C   0  0  0  0  0  0  0  0  0  0  0  0
  140.9250   77.9760  219.8080 C   0  0  2  0  0  0  0  0  0  0  0  0
  140.9980   77.7840  218.4330 O   0  0  0  0  0  0  0  0  0  0  0  0
  141.7970   76.9820  220.5620 C   0  0  0  0  0  0  0  0  0  0  0  0
  141.0810   76.9880  221.8940 C   0  0  1  0  0  0  0  0  0  0  0  0
  141.2070   78.3050  222.5100 C   0  0  0  0  0  0  0  0  0  0  0  0
  142.3200   79.1080  222.4960 C   0  0  0  0  0  0  0  0  0  0  0  0
  142.3620   80.3560  223.1040 C   0  0  0  0  0  0  0  0  0  0  0  0
  141.2460   80.8410  223.7630 C   0  0  0  0  0  0  0  0  0  0  0  0
  140.1220   80.0450  223.7850 C   0  0  0  0  0  0  0  0  0  0  0  0
  140.0950   78.8140  223.1790 C   0  0  0  0  0  0  0  0  0  0  0  0
  140.0050   71.6540  223.6990 C   0  0  0  0  0  0  0  0  0  0  0  0
  139.4710   70.4050  223.4410 C   0  0  0  0  0  0  0  0  0  0  0  0
  139.4640   69.4480  224.4570 C   0  0  0  0  0  0  0  0  0  0  0  0
  139.9790   69.7150  225.7140 C   0  0  0  0  0  0  0  0  0  0  0  0
  139.9800   68.7750  226.7310 C   0  0  0  0  0  0  0  0  0  0  0  0
  140.5210   69.1440  227.9620 C   0  0  0  0  0  0  0  0  0  0  0  0
  140.5310   68.2330  228.9730 F   0  0  0  0  0  0  0  0  0  0  0  0
  141.0360   70.4160  228.1350 C   0  0  0  0  0  0  0  0  0  0  0  0
  141.0370   71.3550  227.1210 C   0  0  0  0  0  0  0  0  0  0  0  0
  140.4970   70.9780  225.9090 C   0  0  0  0  0  0  0  0  0  0  0  0
  140.5010   71.8990  224.9240 N   0  0  0  0  0  0  0  0  0  0  0  0
  137.9740   73.1230  222.8750 H   0  0  0  0  0  0  0  0  0  0  0  0
  139.6367   74.3186  220.6633 H   0  0  0  0  0  0  0  0  0  0  0  0
  137.8260   74.2950  220.7884 H   0  0  0  0  0  0  0  0  0  0  0  0
  138.9356   77.1833  219.5236 H   0  0  0  0  0  0  0  0  0  0  0  0
  139.0002   78.5589  220.6367 H   0  0  0  0  0  0  0  0  0  0  0  0
  141.2283   79.0207  219.9714 H   0  0  0  0  0  0  0  0  0  0  0  0
  141.6770   78.4590  218.1110 H   0  0  0  0  0  0  0  0  0  0  0  0
  141.7851   75.9868  220.0935 H   0  0  0  0  0  0  0  0  0  0  0  0
  142.8672   77.2328  220.6030 H   0  0  0  0  0  0  0  0  0  0  0  0
  141.4476   76.2854  222.6569 H   0  0  0  0  0  0  0  0  0  0  0  0
  143.2210   78.7462  221.9790 H   0  0  0  0  0  0  0  0  0  0  0  0
  143.2815   80.9583  223.0618 H   0  0  0  0  0  0  0  0  0  0  0  0
  141.2561   81.8265  224.2516 H   0  0  0  0  0  0  0  0  0  0  0  0
  139.2211   80.4061  224.3027 H   0  0  0  0  0  0  0  0  0  0  0  0
  139.1737   78.2145  223.2222 H   0  0  0  0  0  0  0  0  0  0  0  0
  139.0576   70.1689  222.4493 H   0  0  0  0  0  0  0  0  0  0  0  0
  139.0377   68.4546  224.2534 H   0  0  0  0  0  0  0  0  0  0  0  0
  139.5666   67.7680  226.5725 H   0  0  0  0  0  0  0  0  0  0  0  0
  141.4591   70.6895  229.1128 H   0  0  0  0  0  0  0  0  0  0  0  0
  141.4517   72.3623  227.2742 H   0  0  0  0  0  0  0  0  0  0  0  0
  1  2  2  0
  2  3  1  0
  3  4  1  0
  4  5  1  0
  5  6  2  0
  5  7  1  0
  7  8  1  0
  8  9  1  0
  9 10  1  0
  9 11  1  0
 11 12  1  0
 12 13  1  0
 13 14  2  0
 14 15  1  0
 15 16  2  0
 16 17  1  0
 17 18  2  0
  2 19  1  0
 19 20  2  0
 20 21  1  0
 21 22  2  0
 22 23  1  0
 23 24  2  0
 24 25  1  0
 24 26  1  0
 26 27  2  0
 27 28  1  0
 28 29  2  0
 12  7  1  0
 18 13  1  0
 29 19  1  0
 28 22  1  0
  3 30  1  0
  4 31  1  0
  4 32  1  0
  8 33  1  0
  8 34  1  0
  9 35  1  6
 10 36  1  0
 11 37  1  0
 11 38  1  0
 12 39  1  1
 14 40  1  0
 15 41  1  0
 16 42  1  0
 17 43  1  0
 18 44  1  0
 20 45  1  0
 21 46  1  0
 23 47  1  0
 26 48  1  0
 27 49  1  0
M  END
>  <smiles>  (48) 
O=C(NCC(=O)N1C[C@H](O)C[C@H]1c1ccccc1)c1ccc2cc(F)ccc2n1

>  <score_type>  (48) 
oracle

>  <origin>  (48) 
autodockgpu

>  <m_score__min__energy>  (48) 
-8.6600000000000001

>  <m_primary>  (48) 
energy

>  <rmsd>  (48) 
2.0351588745232014

>  <m_score__min__rmsd>  (48) 
2.0351588745232014

>  <meeko>  (48) 
{"free_energy": -8.43, "intermolecular_energy": -10.22, "internal_energy": -1.25, "cluster_size": 37, "cluster_id": 1, "rank_in_cluster": 26}

>  <energy>  (48) 
-7.93

>  <cluster_rmsd>  (48) 
0.0

>  <cluster>  (48) 
3

$$$$

     RDKit          3D

 49 52  0  0  0  0  0  0  0  0999 V2000
  141.3890   72.2450  221.5030 O   0  0  0  0  0  0  0  0  0  0  0  0
  140.4370   72.4710  222.3220 C   0  0  0  0  0  0  0  0  0  0  0  0
  139.5800   73.5780  222.1520 N   0  0  0  0  0  0  0  0  0  0  0  0
  139.7130   74.5210  221.0600 C   0  0  0  0  0  0  0  0  0  0  0  0
  140.8150   75.4840  221.2910 C   0  0  0  0  0  0  0  0  0  0  0  0
  140.9200   76.1950  222.3220 O   0  0  0  0  0  0  0  0  0  0  0  0
  141.8120   75.6130  220.2880 N   0  0  0  0  0  0  0  0  0  0  0  0
  142.6660   76.7830  220.0330 C   0  0  0  0  0  0  0  0  0  0  0  0
  143.0910   76.6790  218.5810 C   0  0  2  0  0  0  0  0  0  0  0  0
  142.8330   77.8700  217.9110 O   0  0  0  0  0  0  0  0  0  0  0  0
  142.2230   75.5420  218.0610 C   0  0  0  0  0  0  0  0  0  0  0  0
  142.2340   74.6480  219.2800 C   0  0  1  0  0  0  0  0  0  0  0  0
  143.5880   74.1560  219.5130 C   0  0  0  0  0  0  0  0  0  0  0  0
  144.4830   73.7500  218.5550 C   0  0  0  0  0  0  0  0  0  0  0  0
  145.7610   73.2950  218.8560 C   0  0  0  0  0  0  0  0  0  0  0  0
  146.1800   73.2370  220.1730 C   0  0  0  0  0  0  0  0  0  0  0  0
  145.2910   73.6410  221.1450 C   0  0  0  0  0  0  0  0  0  0  0  0
  144.0320   74.0880  220.8320 C   0  0  0  0  0  0  0  0  0  0  0  0
  140.2220   71.5680  223.4620 C   0  0  0  0  0  0  0  0  0  0  0  0
  139.5440   70.3740  223.3030 C   0  0  0  0  0  0  0  0  0  0  0  0
  139.3610   69.5460  224.4110 C   0  0  0  0  0  0  0  0  0  0  0  0
  139.8420   69.8870  225.6640 C   0  0  0  0  0  0  0  0  0  0  0  0
  139.6690   69.0750  226.7720 C   0  0  0  0  0  0  0  0  0  0  0  0
  140.1910   69.5100  227.9900 C   0  0  0  0  0  0  0  0  0  0  0  0
  140.0310   68.7250  229.0890 F   0  0  0  0  0  0  0  0  0  0  0  0
  140.8580   70.7200  228.0610 C   0  0  0  0  0  0  0  0  0  0  0  0
  141.0320   71.5310  226.9550 C   0  0  0  0  0  0  0  0  0  0  0  0
  140.5100   71.0900  225.7580 C   0  0  0  0  0  0  0  0  0  0  0  0
  140.6830   71.8870  224.6840 N   0  0  0  0  0  0  0  0  0  0  0  0
  138.8130   73.7150  222.8550 H   0  0  0  0  0  0  0  0  0  0  0  0
  139.9156   73.9648  220.1328 H   0  0  0  0  0  0  0  0  0  0  0  0
  138.7743   75.0896  220.9851 H   0  0  0  0  0  0  0  0  0  0  0  0
  142.1019   77.7123  220.2009 H   0  0  0  0  0  0  0  0  0  0  0  0
  143.5347   76.8036  220.7075 H   0  0  0  0  0  0  0  0  0  0  0  0
  144.1664   76.4943  218.4419 H   0  0  0  0  0  0  0  0  0  0  0  0
  143.6910   78.0860  217.4230 H   0  0  0  0  0  0  0  0  0  0  0  0
  141.2075   75.8819  217.8097 H   0  0  0  0  0  0  0  0  0  0  0  0
  142.5729   75.0716  217.1302 H   0  0  0  0  0  0  0  0  0  0  0  0
  141.6105   73.7429  219.2358 H   0  0  0  0  0  0  0  0  0  0  0  0
  144.1743   73.7865  217.4998 H   0  0  0  0  0  0  0  0  0  0  0  0
  146.4385   72.9814  218.0481 H   0  0  0  0  0  0  0  0  0  0  0  0
  147.1873   72.8809  220.4350 H   0  0  0  0  0  0  0  0  0  0  0  0
  145.5988   73.6042  222.2004 H   0  0  0  0  0  0  0  0  0  0  0  0
  143.3567   74.4003  221.6422 H   0  0  0  0  0  0  0  0  0  0  0  0
  139.1543   70.0808  222.3170 H   0  0  0  0  0  0  0  0  0  0  0  0
  138.8199   68.5965  224.2858 H   0  0  0  0  0  0  0  0  0  0  0  0
  139.1361   68.1159  226.6940 H   0  0  0  0  0  0  0  0  0  0  0  0
  141.2634   71.0477  229.0297 H   0  0  0  0  0  0  0  0  0  0  0  0
  141.5658   72.4901  227.0274 H   0  0  0  0  0  0  0  0  0  0  0  0
  1  2  2  0
  2  3  1  0
  3  4  1  0
  4  5  1  0
  5  6  2  0
  5  7  1  0
  7  8  1  0
  8  9  1  0
  9 10  1  0
  9 11  1  0
 11 12  1  0
 12 13  1  0
 13 14  2  0
 14 15  1  0
 15 16  2  0
 16 17  1  0
 17 18  2  0
  2 19  1  0
 19 20  2  0
 20 21  1  0
 21 22  2  0
 22 23  1  0
 23 24  2  0
 24 25  1  0
 24 26  1  0
 26 27  2  0
 27 28  1  0
 28 29  2  0
 12  7  1  0
 18 13  1  0
 29 19  1  0
 28 22  1  0
  3 30  1  0
  4 31  1  0
  4 32  1  0
  8 33  1  0
  8 34  1  0
  9 35  1  1
 10 36  1  0
 11 37  1  0
 11 38  1  0
 12 39  1  6
 14 40  1  0
 15 41  1  0
 16 42  1  0
 17 43  1  0
 18 44  1  0
 20 45  1  0
 21 46  1  0
 23 47  1  0
 26 48  1  0
 27 49  1  0
M  END
>  <smiles>  (49) 
O=C(NCC(=O)N1C[C@H](O)C[C@H]1c1ccccc1)c1ccc2cc(F)ccc2n1

>  <score_type>  (49) 
oracle

>  <origin>  (49) 
autodockgpu

>  <m_score__min__energy>  (49) 
-8.6600000000000001

>  <m_primary>  (49) 
energy

>  <rmsd>  (49) 
2.3487684613552857

>  <m_score__min__rmsd>  (49) 
2.3487684613552857

>  <meeko>  (49) 
{"free_energy": -8.33, "intermolecular_energy": -10.12, "internal_energy": -1.49, "cluster_size": 10, "cluster_id": 2, "rank_in_cluster": 7}

>  <energy>  (49) 
-7.43

>  <cluster_rmsd>  (49) 
0.0

>  <cluster>  (49) 
4

$$$$

     RDKit          3D

 49 52  0  0  0  0  0  0  0  0999 V2000
  140.2470   72.6400  220.7550 O   0  0  0  0  0  0  0  0  0  0  0  0
  139.9850   72.9990  221.9520 C   0  0  0  0  0  0  0  0  0  0  0  0
  139.7220   74.3480  222.2640 N   0  0  0  0  0  0  0  0  0  0  0  0
  139.7270   75.4050  221.2740 C   0  0  0  0  0  0  0  0  0  0  0  0
  141.0150   76.1360  221.2520 C   0  0  0  0  0  0  0  0  0  0  0  0
  142.0730   75.6770  220.7540 O   0  0  0  0  0  0  0  0  0  0  0  0
  141.0570   77.4340  221.8280 N   0  0  0  0  0  0  0  0  0  0  0  0
  141.6830   78.6360  221.2570 C   0  0  0  0  0  0  0  0  0  0  0  0
  141.9900   79.5430  222.4330 C   0  0  2  0  0  0  0  0  0  0  0  0
  143.3180   79.9530  222.4000 O   0  0  0  0  0  0  0  0  0  0  0  0
  141.7080   78.6440  223.6290 C   0  0  0  0  0  0  0  0  0  0  0  0
  140.5070   77.8960  223.0960 C   0  0  1  0  0  0  0  0  0  0  0  0
  139.3950   78.8240  222.9160 C   0  0  0  0  0  0  0  0  0  0  0  0
  138.5020   78.8320  221.8730 C   0  0  0  0  0  0  0  0  0  0  0  0
  137.4630   79.7500  221.7730 C   0  0  0  0  0  0  0  0  0  0  0  0
  137.2950   80.7120  222.7530 C   0  0  0  0  0  0  0  0  0  0  0  0
  138.1850   80.7150  223.8050 C   0  0  0  0  0  0  0  0  0  0  0  0
  139.2060   79.8020  223.8900 C   0  0  0  0  0  0  0  0  0  0  0  0
  139.9560   71.9950  223.0270 C   0  0  0  0  0  0  0  0  0  0  0  0
  139.3880   70.7520  222.8200 C   0  0  0  0  0  0  0  0  0  0  0  0
  139.3810   69.8290  223.8670 C   0  0  0  0  0  0  0  0  0  0  0  0
  139.9280   70.1240  225.1040 C   0  0  0  0  0  0  0  0  0  0  0  0
  139.9290   69.2180  226.1510 C   0  0  0  0  0  0  0  0  0  0  0  0
  140.5050   69.6130  227.3580 C   0  0  0  0  0  0  0  0  0  0  0  0
  140.5150   68.7360  228.3980 F   0  0  0  0  0  0  0  0  0  0  0  0
  141.0530   70.8770  227.4790 C   0  0  0  0  0  0  0  0  0  0  0  0
  141.0530   71.7830  226.4340 C   0  0  0  0  0  0  0  0  0  0  0  0
  140.4800   71.3800  225.2470 C   0  0  0  0  0  0  0  0  0  0  0  0
  140.4840   72.2690  224.2320 N   0  0  0  0  0  0  0  0  0  0  0  0
  139.5110   74.5850  223.2650 H   0  0  0  0  0  0  0  0  0  0  0  0
  139.5518   74.9636  220.2818 H   0  0  0  0  0  0  0  0  0  0  0  0
  138.9337   76.1206  221.5358 H   0  0  0  0  0  0  0  0  0  0  0  0
  142.6094   78.3699  220.7269 H   0  0  0  0  0  0  0  0  0  0  0  0
  141.0219   79.1286  220.5288 H   0  0  0  0  0  0  0  0  0  0  0  0
  141.4003   80.4715  222.4472 H   0  0  0  0  0  0  0  0  0  0  0  0
  143.8250   79.1670  222.0180 H   0  0  0  0  0  0  0  0  0  0  0  0
  142.5501   77.9696  223.8439 H   0  0  0  0  0  0  0  0  0  0  0  0
  141.5497   79.1677  224.5833 H   0  0  0  0  0  0  0  0  0  0  0  0
  140.1022   77.0925  223.7289 H   0  0  0  0  0  0  0  0  0  0  0  0
  138.6139   78.0775  221.0804 H   0  0  0  0  0  0  0  0  0  0  0  0
  136.7751   79.7116  220.9155 H   0  0  0  0  0  0  0  0  0  0  0  0
  136.4799   81.4483  222.6945 H   0  0  0  0  0  0  0  0  0  0  0  0
  138.0741   81.4694  224.5978 H   0  0  0  0  0  0  0  0  0  0  0  0
  139.8923   79.8434  224.7486 H   0  0  0  0  0  0  0  0  0  0  0  0
  138.9483   70.4942  221.8452 H   0  0  0  0  0  0  0  0  0  0  0  0
  138.9283   68.8397  223.7047 H   0  0  0  0  0  0  0  0  0  0  0  0
  139.4887   68.2168  226.0342 H   0  0  0  0  0  0  0  0  0  0  0  0
  141.5038   71.1716  228.4382 H   0  0  0  0  0  0  0  0  0  0  0  0
  141.4927   72.7851  226.5457 H   0  0  0  0  0  0  0  0  0  0  0  0
  1  2  2  0
  2  3  1  0
  3  4  1  0
  4  5  1  0
  5  6  2  0
  5  7  1  0
  7  8  1  0
  8  9  1  0
  9 10  1  0
  9 11  1  0
 11 12  1  0
 12 13  1  0
 13 14  2  0
 14 15  1  0
 15 16  2  0
 16 17  1  0
 17 18  2  0
  2 19  1  0
 19 20  2  0
 20 21  1  0
 21 22  2  0
 22 23  1  0
 23 24  2  0
 24 25  1  0
 24 26  1  0
 26 27  2  0
 27 28  1  0
 28 29  2  0
 12  7  1  0
 18 13  1  0
 29 19  1  0
 28 22  1  0
  3 30  1  0
  4 31  1  0
  4 32  1  0
  8 33  1  0
  8 34  1  0
  9 35  1  1
 10 36  1  0
 11 37  1  0
 11 38  1  0
 12 39  1  1
 14 40  1  0
 15 41  1  0
 16 42  1  0
 17 43  1  0
 18 44  1  0
 20 45  1  0
 21 46  1  0
 23 47  1  0
 26 48  1  0
 27 49  1  0
M  END
>  <smiles>  (50) 
O=C(NCC(=O)N1C[C@H](O)C[C@H]1c1ccccc1)c1ccc2cc(F)ccc2n1

>  <score_type>  (50) 
oracle

>  <origin>  (50) 
autodockgpu

>  <m_score__min__energy>  (50) 
-8.6600000000000001

>  <m_primary>  (50) 
energy

>  <rmsd>  (50) 
3.292953085059587

>  <m_score__min__rmsd>  (50) 
3.292953085059587

>  <meeko>  (50) 
{"free_energy": -7.93, "intermolecular_energy": -9.72, "internal_energy": -1.33, "cluster_size": 1, "cluster_id": 3, "rank_in_cluster": 1}

>  <energy>  (50) 
-6.25

>  <cluster_rmsd>  (50) 
0.0

>  <cluster>  (50) 
5

$$$$
