
     RDKit          3D

 39 41  0  0  0  0  0  0  0  0999 V2000
  140.4520   79.0870  223.8370 N   0  0  0  0  0  0  0  0  0  0  0  0
  140.9840   78.7270  222.8830 C   0  0  0  0  0  0  0  0  0  0  0  0
  141.6540   78.3000  221.6850 C   0  0  2  0  0  0  0  0  0  0  0  0
  141.3730   79.1960  220.4950 C   0  0  0  0  0  0  0  0  0  0  0  0
  141.8260   78.3330  219.3310 C   0  0  0  0  0  0  0  0  0  0  0  0
  141.9040   76.9010  219.8720 C   0  0  0  0  0  0  0  0  0  0  0  0
  141.2340   77.0220  221.1750 N   0  0  0  0  0  0  0  0  0  0  0  0
  140.3940   76.0120  221.6810 C   0  0  0  0  0  0  0  0  0  0  0  0
  139.7320   76.2770  222.7200 O   0  0  0  0  0  0  0  0  0  0  0  0
  140.2310   74.6640  221.0870 C   0  0  0  0  0  0  0  0  0  0  0  0
  140.0270   73.7430  222.2180 N   0  0  0  0  0  0  0  0  0  0  0  0
  140.4590   72.3900  222.1660 C   0  0  0  0  0  0  0  0  0  0  0  0
  141.0360   71.8780  221.1740 O   0  0  0  0  0  0  0  0  0  0  0  0
  140.2180   71.5320  223.3440 C   0  0  0  0  0  0  0  0  0  0  0  0
  139.5370   70.3440  223.2320 C   0  0  0  0  0  0  0  0  0  0  0  0
  139.3260   69.5620  224.3580 C   0  0  0  0  0  0  0  0  0  0  0  0
  139.8030   69.9840  225.5730 C   0  0  0  0  0  0  0  0  0  0  0  0
  139.6110   69.2280  226.7170 C   0  0  0  0  0  0  0  0  0  0  0  0
  140.0810   69.6400  227.9290 C   0  0  0  0  0  0  0  0  0  0  0  0
  139.8990   68.9130  229.0470 F   0  0  0  0  0  0  0  0  0  0  0  0
  140.7710   70.8390  228.0580 C   0  0  0  0  0  0  0  0  0  0  0  0
  140.9500   71.5760  226.9040 C   0  0  0  0  0  0  0  0  0  0  0  0
  140.4820   71.1740  225.6700 C   0  0  0  0  0  0  0  0  0  0  0  0
  140.6600   71.8910  224.5650 N   0  0  0  0  0  0  0  0  0  0  0  0
  142.7003   78.3002  222.0245 H   0  0  0  0  0  0  0  0  0  0  0  0
  140.3022   79.4363  220.4205 H   0  0  0  0  0  0  0  0  0  0  0  0
  141.8802   80.1707  220.5462 H   0  0  0  0  0  0  0  0  0  0  0  0
  141.0999   78.3912  218.5068 H   0  0  0  0  0  0  0  0  0  0  0  0
  142.7962   78.6675  218.9351 H   0  0  0  0  0  0  0  0  0  0  0  0
  141.3726   76.1972  219.2145 H   0  0  0  0  0  0  0  0  0  0  0  0
  142.9302   76.5104  219.9387 H   0  0  0  0  0  0  0  0  0  0  0  0
  139.3591   74.6448  220.4166 H   0  0  0  0  0  0  0  0  0  0  0  0
  141.1091   74.3788  220.4890 H   0  0  0  0  0  0  0  0  0  0  0  0
  139.5500   74.0690  223.1030 H   0  0  0  0  0  0  0  0  0  0  0  0
  139.1603   70.0141  222.2526 H   0  0  0  0  0  0  0  0  0  0  0  0
  138.7802   68.6104  224.2773 H   0  0  0  0  0  0  0  0  0  0  0  0
  139.0675   68.2742  226.6467 H   0  0  0  0  0  0  0  0  0  0  0  0
  141.1550   71.1835  229.0295 H   0  0  0  0  0  0  0  0  0  0  0  0
  141.4924   72.5305  226.9720 H   0  0  0  0  0  0  0  0  0  0  0  0
  1  2  3  0
  2  3  1  0
  3  4  1  0
  4  5  1  0
  5  6  1  0
  6  7  1  0
  7  8  1  0
  8  9  2  0
  8 10  1  0
 10 11  1  0
 11 12  1  0
 12 13  2  0
 12 14  1  0
 14 15  2  0
 15 16  1  0
 16 17  2  0
 17 18  1  0
 18 19  2  0
 19 20  1  0
 19 21  1  0
 21 22  2  0
 22 23  1  0
 23 24  2  0
  7  3  1  0
 24 14  1  0
 23 17  1  0
  3 25  1  1
  4 26  1  0
  4 27  1  0
  5 28  1  0
  5 29  1  0
  6 30  1  0
  6 31  1  0
 10 32  1  0
 10 33  1  0
 11 34  1  0
 15 35  1  0
 16 36  1  0
 18 37  1  0
 21 38  1  0
 22 39  1  0
M  END
>  <smiles>  (1) 
N#C[C@@H]1CCCN1C(=O)CNC(=O)c1ccc2cc(F)ccc2n1

>  <score_type>  (1) 
oracle

>  <origin>  (1) 
autodockgpu

>  <m_score__min__energy>  (1) 
-7.2999999999999998

>  <m_primary>  (1) 
energy

>  <rmsd>  (1) 
2.2066867527243366

>  <m_score__min__rmsd>  (1) 
2.2066867527243366

>  <meeko>  (1) 
{"free_energy": -6.97, "intermolecular_energy": -8.46, "internal_energy": -1.38, "cluster_size": 10, "cluster_id": 2, "rank_in_cluster": 2}

>  <energy>  (1) 
-7.3

>  <cluster_rmsd>  (1) 
0.0

>  <cluster>  (1) 
1

$$$$

     RDKit          3D

 39 41  0  0  0  0  0  0  0  0999 V2000
  141.2380   78.8280  223.7290 N   0  0  0  0  0  0  0  0  0  0  0  0
  141.4510   78.5170  222.6430 C   0  0  0  0  0  0  0  0  0  0  0  0
  141.7400   78.1230  221.2920 C   0  0  2  0  0  0  0  0  0  0  0  0
  141.1840   79.0850  220.2600 C   0  0  0  0  0  0  0  0  0  0  0  0
  141.2530   78.2620  218.9860 C   0  0  0  0  0  0  0  0  0  0  0  0
  141.4080   76.8030  219.4330 C   0  0  0  0  0  0  0  0  0  0  0  0
  141.1330   76.8870  220.8740 N   0  0  0  0  0  0  0  0  0  0  0  0
  140.4180   75.8860  221.5590 C   0  0  0  0  0  0  0  0  0  0  0  0
  140.0450   76.1440  222.7350 O   0  0  0  0  0  0  0  0  0  0  0  0
  140.0730   74.5570  221.0040 C   0  0  0  0  0  0  0  0  0  0  0  0
  139.9270   73.6580  222.1610 N   0  0  0  0  0  0  0  0  0  0  0  0
  140.2360   72.2730  222.0750 C   0  0  0  0  0  0  0  0  0  0  0  0
  140.6480   71.7120  221.0280 O   0  0  0  0  0  0  0  0  0  0  0  0
  140.0640   71.4400  223.2830 C   0  0  0  0  0  0  0  0  0  0  0  0
  139.4820   70.1970  223.2140 C   0  0  0  0  0  0  0  0  0  0  0  0
  139.3350   69.4410  224.3670 C   0  0  0  0  0  0  0  0  0  0  0  0
  139.7740   69.9430  225.5660 C   0  0  0  0  0  0  0  0  0  0  0  0
  139.6430   69.2150  226.7370 C   0  0  0  0  0  0  0  0  0  0  0  0
  140.0760   69.7070  227.9320 C   0  0  0  0  0  0  0  0  0  0  0  0
  139.9530   69.0070  229.0760 F   0  0  0  0  0  0  0  0  0  0  0  0
  140.6660   70.9620  228.0180 C   0  0  0  0  0  0  0  0  0  0  0  0
  140.7860   71.6690  226.8380 C   0  0  0  0  0  0  0  0  0  0  0  0
  140.3530   71.1870  225.6200 C   0  0  0  0  0  0  0  0  0  0  0  0
  140.4730   71.8770  224.4900 N   0  0  0  0  0  0  0  0  0  0  0  0
  142.8381   78.0678  221.3260 H   0  0  0  0  0  0  0  0  0  0  0  0
  140.1478   79.3685  220.4962 H   0  0  0  0  0  0  0  0  0  0  0  0
  141.7329   80.0365  220.2018 H   0  0  0  0  0  0  0  0  0  0  0  0
  140.3303   78.3863  218.4002 H   0  0  0  0  0  0  0  0  0  0  0  0
  142.0903   78.5786  218.3467 H   0  0  0  0  0  0  0  0  0  0  0  0
  140.6811   76.1515  218.9259 H   0  0  0  0  0  0  0  0  0  0  0  0
  142.3918   76.3716  219.1964 H   0  0  0  0  0  0  0  0  0  0  0  0
  139.1295   74.6114  220.4411 H   0  0  0  0  0  0  0  0  0  0  0  0
  140.8472   74.1974  220.3102 H   0  0  0  0  0  0  0  0  0  0  0  0
  139.5870   74.0230  223.0930 H   0  0  0  0  0  0  0  0  0  0  0  0
  139.1340   69.8033  222.2476 H   0  0  0  0  0  0  0  0  0  0  0  0
  138.8695   68.4454  224.3207 H   0  0  0  0  0  0  0  0  0  0  0  0
  139.1794   68.2181  226.7018 H   0  0  0  0  0  0  0  0  0  0  0  0
  141.0191   71.3710  228.9761 H   0  0  0  0  0  0  0  0  0  0  0  0
  141.2498   72.6659  226.8707 H   0  0  0  0  0  0  0  0  0  0  0  0
  1  2  3  0
  2  3  1  0
  3  4  1  0
  4  5  1  0
  5  6  1  0
  6  7  1  0
  7  8  1  0
  8  9  2  0
  8 10  1  0
 10 11  1  0
 11 12  1  0
 12 13  2  0
 12 14  1  0
 14 15  2  0
 15 16  1  0
 16 17  2  0
 17 18  1  0
 18 19  2  0
 19 20  1  0
 19 21  1  0
 21 22  2  0
 22 23  1  0
 23 24  2  0
  7  3  1  0
 24 14  1  0
 23 17  1  0
  3 25  1  1
  4 26  1  0
  4 27  1  0
  5 28  1  0
  5 29  1  0
  6 30  1  0
  6 31  1  0
 10 32  1  0
 10 33  1  0
 11 34  1  0
 15 35  1  0
 16 36  1  0
 18 37  1  0
 21 38  1  0
 22 39  1  0
M  END
>  <smiles>  (2) 
N#C[C@@H]1CCCN1C(=O)CNC(=O)c1ccc2cc(F)ccc2n1

>  <score_type>  (2) 
oracle

>  <origin>  (2) 
autodockgpu

>  <m_score__min__energy>  (2) 
-7.2999999999999998

>  <m_primary>  (2) 
energy

>  <rmsd>  (2) 
1.9640480264855846

>  <m_score__min__rmsd>  (2) 
1.9640480264855846

>  <meeko>  (2) 
{"free_energy": -6.73, "intermolecular_energy": -8.22, "internal_energy": -1.49, "cluster_size": 10, "cluster_id": 2, "rank_in_cluster": 9}

>  <energy>  (2) 
-7.29

>  <cluster_rmsd>  (2) 
0.02

>  <cluster>  (2) 
1

$$$$

     RDKit          3D

 39 41  0  0  0  0  0  0  0  0999 V2000
  139.2020   67.4100  225.5700 N   0  0  0  0  0  0  0  0  0  0  0  0
  139.8010   68.3250  225.9250 C   0  0  0  0  0  0  0  0  0  0  0  0
  140.5320   69.4840  226.3580 C   0  0  2  0  0  0  0  0  0  0  0  0
  140.0660   70.0150  227.6990 C   0  0  0  0  0  0  0  0  0  0  0  0
  140.6730   71.4070  227.7210 C   0  0  0  0  0  0  0  0  0  0  0  0
  141.0430   71.7280  226.2680 C   0  0  0  0  0  0  0  0  0  0  0  0
  140.3740   70.6490  225.5280 N   0  0  0  0  0  0  0  0  0  0  0  0
  139.7600   70.8660  224.2800 C   0  0  0  0  0  0  0  0  0  0  0  0
  140.2750   71.7350  223.5260 O   0  0  0  0  0  0  0  0  0  0  0  0
  138.5570   70.1540  223.7880 C   0  0  0  0  0  0  0  0  0  0  0  0
  137.4050   70.8180  224.4190 N   0  0  0  0  0  0  0  0  0  0  0  0
  136.2040   70.1150  224.7090 C   0  0  0  0  0  0  0  0  0  0  0  0
  136.0280   68.8970  224.4550 O   0  0  0  0  0  0  0  0  0  0  0  0
  135.0940   70.8550  225.3440 C   0  0  0  0  0  0  0  0  0  0  0  0
  134.0660   70.1950  225.9720 C   0  0  0  0  0  0  0  0  0  0  0  0
  133.0380   70.9200  226.5590 C   0  0  0  0  0  0  0  0  0  0  0  0
  133.0630   72.2900  226.5060 C   0  0  0  0  0  0  0  0  0  0  0  0
  132.0540   73.0460  227.0800 C   0  0  0  0  0  0  0  0  0  0  0  0
  132.0700   74.4080  227.0320 C   0  0  0  0  0  0  0  0  0  0  0  0
  131.0940   75.1510  227.5870 F   0  0  0  0  0  0  0  0  0  0  0  0
  133.1030   75.0890  226.4010 C   0  0  0  0  0  0  0  0  0  0  0  0
  134.0970   74.3160  225.8340 C   0  0  0  0  0  0  0  0  0  0  0  0
  134.0970   72.9370  225.8740 C   0  0  0  0  0  0  0  0  0  0  0  0
  135.0590   72.2020  225.3250 N   0  0  0  0  0  0  0  0  0  0  0  0
  141.5597   69.0918  226.3506 H   0  0  0  0  0  0  0  0  0  0  0  0
  138.9681   70.0577  227.7514 H   0  0  0  0  0  0  0  0  0  0  0  0
  140.3674   69.3882  228.5512 H   0  0  0  0  0  0  0  0  0  0  0  0
  139.9424   72.1369  228.0998 H   0  0  0  0  0  0  0  0  0  0  0  0
  141.5518   71.4536  228.3809 H   0  0  0  0  0  0  0  0  0  0  0  0
  140.6591   72.7142  225.9679 H   0  0  0  0  0  0  0  0  0  0  0  0
  142.1275   71.7768  226.0904 H   0  0  0  0  0  0  0  0  0  0  0  0
  138.4892   70.2303  222.6927 H   0  0  0  0  0  0  0  0  0  0  0  0
  138.5919   69.0836  224.0392 H   0  0  0  0  0  0  0  0  0  0  0  0
  137.4420   71.8430  224.6750 H   0  0  0  0  0  0  0  0  0  0  0  0
  134.0574   69.0957  226.0096 H   0  0  0  0  0  0  0  0  0  0  0  0
  132.2100   70.3997  227.0626 H   0  0  0  0  0  0  0  0  0  0  0  0
  131.2212   72.5356  227.5859 H   0  0  0  0  0  0  0  0  0  0  0  0
  133.1281   76.1878  226.3552 H   0  0  0  0  0  0  0  0  0  0  0  0
  134.9294   74.8246  225.3257 H   0  0  0  0  0  0  0  0  0  0  0  0
  1  2  3  0
  2  3  1  0
  3  4  1  0
  4  5  1  0
  5  6  1  0
  6  7  1  0
  7  8  1  0
  8  9  2  0
  8 10  1  0
 10 11  1  0
 11 12  1  0
 12 13  2  0
 12 14  1  0
 14 15  2  0
 15 16  1  0
 16 17  2  0
 17 18  1  0
 18 19  2  0
 19 20  1  0
 19 21  1  0
 21 22  2  0
 22 23  1  0
 23 24  2  0
  7  3  1  0
 24 14  1  0
 23 17  1  0
  3 25  1  1
  4 26  1  0
  4 27  1  0
  5 28  1  0
  5 29  1  0
  6 30  1  0
  6 31  1  0
 10 32  1  0
 10 33  1  0
 11 34  1  0
 15 35  1  0
 16 36  1  0
 18 37  1  0
 21 38  1  0
 22 39  1  0
M  END
>  <smiles>  (3) 
N#C[C@@H]1CCCN1C(=O)CNC(=O)c1ccc2cc(F)ccc2n1

>  <score_type>  (3) 
oracle

>  <origin>  (3) 
autodockgpu

>  <m_score__min__energy>  (3) 
-7.2999999999999998

>  <m_primary>  (3) 
energy

>  <rmsd>  (3) 
8.181117645661175

>  <m_score__min__rmsd>  (3) 
8.181117645661175

>  <meeko>  (3) 
{"free_energy": -6.9, "intermolecular_energy": -8.39, "internal_energy": -1.37, "cluster_size": 3, "cluster_id": 3, "rank_in_cluster": 1}

>  <energy>  (3) 
-7.29

>  <cluster_rmsd>  (3) 
0.09

>  <cluster>  (3) 
1

$$$$

     RDKit          3D

 39 41  0  0  0  0  0  0  0  0999 V2000
  139.1900   67.5170  225.3440 N   0  0  0  0  0  0  0  0  0  0  0  0
  139.7770   68.4140  225.7620 C   0  0  0  0  0  0  0  0  0  0  0  0
  140.5310   69.5220  226.2780 C   0  0  2  0  0  0  0  0  0  0  0  0
  140.1650   69.8770  227.7060 C   0  0  0  0  0  0  0  0  0  0  0  0
  140.7620   71.2660  227.8540 C   0  0  0  0  0  0  0  0  0  0  0  0
  141.0190   71.7690  226.4290 C   0  0  0  0  0  0  0  0  0  0  0  0
  140.3020   70.7770  225.6130 N   0  0  0  0  0  0  0  0  0  0  0  0
  139.5930   71.1360  224.4510 C   0  0  0  0  0  0  0  0  0  0  0  0
  138.3880   71.4780  224.5920 O   0  0  0  0  0  0  0  0  0  0  0  0
  140.1530   71.1400  223.0800 C   0  0  0  0  0  0  0  0  0  0  0  0
  140.3430   72.5560  222.7220 N   0  0  0  0  0  0  0  0  0  0  0  0
  141.1460   72.9450  221.6150 C   0  0  0  0  0  0  0  0  0  0  0  0
  141.7480   72.1330  220.8680 O   0  0  0  0  0  0  0  0  0  0  0  0
  141.2850   74.3870  221.3220 C   0  0  0  0  0  0  0  0  0  0  0  0
  142.0610   74.8300  220.2800 C   0  0  0  0  0  0  0  0  0  0  0  0
  142.1710   76.1910  220.0320 C   0  0  0  0  0  0  0  0  0  0  0  0
  141.4980   77.0790  220.8330 C   0  0  0  0  0  0  0  0  0  0  0  0
  141.5850   78.4440  220.6150 C   0  0  0  0  0  0  0  0  0  0  0  0
  140.9210   79.3340  221.4060 C   0  0  0  0  0  0  0  0  0  0  0  0
  140.9980   80.6620  221.2020 F   0  0  0  0  0  0  0  0  0  0  0  0
  140.1310   78.9010  222.4630 C   0  0  0  0  0  0  0  0  0  0  0  0
  140.0610   77.5360  222.6630 C   0  0  0  0  0  0  0  0  0  0  0  0
  140.7260   76.6210  221.8720 C   0  0  0  0  0  0  0  0  0  0  0  0
  140.6510   75.3100  222.0730 N   0  0  0  0  0  0  0  0  0  0  0  0
  141.5577   69.1505  226.1446 H   0  0  0  0  0  0  0  0  0  0  0  0
  139.0740   69.8948  227.8455 H   0  0  0  0  0  0  0  0  0  0  0  0
  140.5352   69.1556  228.4493 H   0  0  0  0  0  0  0  0  0  0  0  0
  140.0569   71.9318  228.3731 H   0  0  0  0  0  0  0  0  0  0  0  0
  141.6880   71.2456  228.4474 H   0  0  0  0  0  0  0  0  0  0  0  0
  140.6070   72.7783  226.2823 H   0  0  0  0  0  0  0  0  0  0  0  0
  142.0865   71.8570  226.1785 H   0  0  0  0  0  0  0  0  0  0  0  0
  141.1157   70.6082  223.0590 H   0  0  0  0  0  0  0  0  0  0  0  0
  139.4836   70.6318  222.3704 H   0  0  0  0  0  0  0  0  0  0  0  0
  139.8840   73.3240  223.2840 H   0  0  0  0  0  0  0  0  0  0  0  0
  142.5941   74.1084  219.6435 H   0  0  0  0  0  0  0  0  0  0  0  0
  142.7924   76.5549  219.2004 H   0  0  0  0  0  0  0  0  0  0  0  0
  142.2033   78.8181  219.7857 H   0  0  0  0  0  0  0  0  0  0  0  0
  139.5890   79.6085  223.1077 H   0  0  0  0  0  0  0  0  0  0  0  0
  139.4452   77.1598  223.4932 H   0  0  0  0  0  0  0  0  0  0  0  0
  1  2  3  0
  2  3  1  0
  3  4  1  0
  4  5  1  0
  5  6  1  0
  6  7  1  0
  7  8  1  0
  8  9  2  0
  8 10  1  0
 10 11  1  0
 11 12  1  0
 12 13  2  0
 12 14  1  0
 14 15  2  0
 15 16  1  0
 16 17  2  0
 17 18  1  0
 18 19  2  0
 19 20  1  0
 19 21  1  0
 21 22  2  0
 22 23  1  0
 23 24  2  0
  7  3  1  0
 24 14  1  0
 23 17  1  0
  3 25  1  1
  4 26  1  0
  4 27  1  0
  5 28  1  0
  5 29  1  0
  6 30  1  0
  6 31  1  0
 10 32  1  0
 10 33  1  0
 11 34  1  0
 15 35  1  0
 16 36  1  0
 18 37  1  0
 21 38  1  0
 22 39  1  0
M  END
>  <smiles>  (4) 
N#C[C@@H]1CCCN1C(=O)CNC(=O)c1ccc2cc(F)ccc2n1

>  <score_type>  (4) 
oracle

>  <origin>  (4) 
autodockgpu

>  <m_score__min__energy>  (4) 
-7.2999999999999998

>  <m_primary>  (4) 
energy

>  <rmsd>  (4) 
8.853382147652129

>  <m_score__min__rmsd>  (4) 
8.853382147652129

>  <meeko>  (4) 
{"free_energy": -7.18, "intermolecular_energy": -8.67, "internal_energy": -1.37, "cluster_size": 37, "cluster_id": 1, "rank_in_cluster": 19}

>  <energy>  (4) 
-7.29

>  <cluster_rmsd>  (4) 
0.16

>  <cluster>  (4) 
1

$$$$

     RDKit          3D

 39 41  0  0  0  0  0  0  0  0999 V2000
  140.7430   79.0160  223.8160 N   0  0  0  0  0  0  0  0  0  0  0  0
  141.1900   78.6700  222.8150 C   0  0  0  0  0  0  0  0  0  0  0  0
  141.7440   78.2600  221.5540 C   0  0  2  0  0  0  0  0  0  0  0  0
  141.3390   79.1610  220.4050 C   0  0  0  0  0  0  0  0  0  0  0  0
  141.6850   78.3120  219.1940 C   0  0  0  0  0  0  0  0  0  0  0  0
  141.8310   76.8770  219.7140 C   0  0  0  0  0  0  0  0  0  0  0  0
  141.2910   76.9800  221.0770 N   0  0  0  0  0  0  0  0  0  0  0  0
  140.5150   75.9570  221.6540 C   0  0  0  0  0  0  0  0  0  0  0  0
  139.9520   76.2080  222.7540 O   0  0  0  0  0  0  0  0  0  0  0  0
  140.3130   74.6110  221.0700 C   0  0  0  0  0  0  0  0  0  0  0  0
  140.0720   73.7060  222.2070 N   0  0  0  0  0  0  0  0  0  0  0  0
  140.4920   72.3480  222.1820 C   0  0  0  0  0  0  0  0  0  0  0  0
  141.0880   71.8170  221.2110 O   0  0  0  0  0  0  0  0  0  0  0  0
  140.2130   71.5070  223.3640 C   0  0  0  0  0  0  0  0  0  0  0  0
  139.4810   70.3490  223.2580 C   0  0  0  0  0  0  0  0  0  0  0  0
  139.2360   69.5820  224.3870 C   0  0  0  0  0  0  0  0  0  0  0  0
  139.7300   69.9900  225.6010 C   0  0  0  0  0  0  0  0  0  0  0  0
  139.5050   69.2490  226.7490 C   0  0  0  0  0  0  0  0  0  0  0  0
  139.9910   69.6470  227.9590 C   0  0  0  0  0  0  0  0  0  0  0  0
  139.7780   68.9340  229.0810 F   0  0  0  0  0  0  0  0  0  0  0  0
  140.7330   70.8150  228.0830 C   0  0  0  0  0  0  0  0  0  0  0  0
  140.9440   71.5380  226.9250 C   0  0  0  0  0  0  0  0  0  0  0  0
  140.4590   71.1500  225.6920 C   0  0  0  0  0  0  0  0  0  0  0  0
  140.6690   71.8530  224.5850 N   0  0  0  0  0  0  0  0  0  0  0  0
  142.8184   78.2705  221.7897 H   0  0  0  0  0  0  0  0  0  0  0  0
  140.2636   79.3898  220.4375 H   0  0  0  0  0  0  0  0  0  0  0  0
  141.8390   80.1407  220.4148 H   0  0  0  0  0  0  0  0  0  0  0  0
  140.8809   78.3677  218.4455 H   0  0  0  0  0  0  0  0  0  0  0  0
  142.6076   78.6606  218.7069 H   0  0  0  0  0  0  0  0  0  0  0  0
  141.2454   76.1717  219.1060 H   0  0  0  0  0  0  0  0  0  0  0  0
  142.8632   76.4986  219.6771 H   0  0  0  0  0  0  0  0  0  0  0  0
  139.4454   74.6142  220.3938 H   0  0  0  0  0  0  0  0  0  0  0  0
  141.1855   74.2930  220.4804 H   0  0  0  0  0  0  0  0  0  0  0  0
  139.5770   74.0470  223.0760 H   0  0  0  0  0  0  0  0  0  0  0  0
  139.0904   70.0312  222.2800 H   0  0  0  0  0  0  0  0  0  0  0  0
  138.6504   68.6540  224.3103 H   0  0  0  0  0  0  0  0  0  0  0  0
  138.9214   68.3189  226.6832 H   0  0  0  0  0  0  0  0  0  0  0  0
  141.1318   71.1468  229.0530 H   0  0  0  0  0  0  0  0  0  0  0  0
  141.5271   72.4686  226.9884 H   0  0  0  0  0  0  0  0  0  0  0  0
  1  2  3  0
  2  3  1  0
  3  4  1  0
  4  5  1  0
  5  6  1  0
  6  7  1  0
  7  8  1  0
  8  9  2  0
  8 10  1  0
 10 11  1  0
 11 12  1  0
 12 13  2  0
 12 14  1  0
 14 15  2  0
 15 16  1  0
 16 17  2  0
 17 18  1  0
 18 19  2  0
 19 20  1  0
 19 21  1  0
 21 22  2  0
 22 23  1  0
 23 24  2  0
  7  3  1  0
 24 14  1  0
 23 17  1  0
  3 25  1  1
  4 26  1  0
  4 27  1  0
  5 28  1  0
  5 29  1  0
  6 30  1  0
  6 31  1  0
 10 32  1  0
 10 33  1  0
 11 34  1  0
 15 35  1  0
 16 36  1  0
 18 37  1  0
 21 38  1  0
 22 39  1  0
M  END
>  <smiles>  (5) 
N#C[C@@H]1CCCN1C(=O)CNC(=O)c1ccc2cc(F)ccc2n1

>  <score_type>  (5) 
oracle

>  <origin>  (5) 
autodockgpu

>  <m_score__min__energy>  (5) 
-7.2999999999999998

>  <m_primary>  (5) 
energy

>  <rmsd>  (5) 
2.1681764505504773

>  <m_score__min__rmsd>  (5) 
2.1681764505504773

>  <meeko>  (5) 
{"free_energy": -6.91, "intermolecular_energy": -8.4, "internal_energy": -1.41, "cluster_size": 10, "cluster_id": 2, "rank_in_cluster": 7}

>  <energy>  (5) 
-7.29

>  <cluster_rmsd>  (5) 
0.16

>  <cluster>  (5) 
1

$$$$

     RDKit          3D

 39 41  0  0  0  0  0  0  0  0999 V2000
  141.2940   71.5760  228.3720 N   0  0  0  0  0  0  0  0  0  0  0  0
  140.7880   70.6500  227.9150 C   0  0  0  0  0  0  0  0  0  0  0  0
  140.1480   69.5070  227.3250 C   0  0  2  0  0  0  0  0  0  0  0  0
  141.0450   68.2870  227.2660 C   0  0  0  0  0  0  0  0  0  0  0  0
  140.3170   67.4020  226.2700 C   0  0  0  0  0  0  0  0  0  0  0  0
  139.3440   68.3200  225.5210 C   0  0  0  0  0  0  0  0  0  0  0  0
  139.7910   69.6570  225.9390 N   0  0  0  0  0  0  0  0  0  0  0  0
  139.8050   70.7520  225.0540 C   0  0  0  0  0  0  0  0  0  0  0  0
  139.9800   71.8960  225.5530 O   0  0  0  0  0  0  0  0  0  0  0  0
  139.6270   70.6610  223.5860 C   0  0  0  0  0  0  0  0  0  0  0  0
  140.0510   71.9630  223.0440 N   0  0  0  0  0  0  0  0  0  0  0  0
  140.7220   72.0690  221.7950 C   0  0  0  0  0  0  0  0  0  0  0  0
  141.0050   71.0840  221.0670 O   0  0  0  0  0  0  0  0  0  0  0  0
  141.1130   73.4130  221.3210 C   0  0  0  0  0  0  0  0  0  0  0  0
  141.8890   73.5740  220.2000 C   0  0  0  0  0  0  0  0  0  0  0  0
  142.2390   74.8500  219.7820 C   0  0  0  0  0  0  0  0  0  0  0  0
  141.8030   75.9380  220.4950 C   0  0  0  0  0  0  0  0  0  0  0  0
  142.1330   77.2260  220.1070 C   0  0  0  0  0  0  0  0  0  0  0  0
  141.7040   78.3130  220.8100 C   0  0  0  0  0  0  0  0  0  0  0  0
  142.0190   79.5680  220.4400 F   0  0  0  0  0  0  0  0  0  0  0  0
  140.9180   78.1650  221.9450 C   0  0  0  0  0  0  0  0  0  0  0  0
  140.6020   76.8720  222.3140 C   0  0  0  0  0  0  0  0  0  0  0  0
  141.0270   75.7610  221.6150 C   0  0  0  0  0  0  0  0  0  0  0  0
  140.7170   74.5210  221.9780 N   0  0  0  0  0  0  0  0  0  0  0  0
  139.2717   69.4018  227.9816 H   0  0  0  0  0  0  0  0  0  0  0  0
  142.0511   68.5486  226.9063 H   0  0  0  0  0  0  0  0  0  0  0  0
  141.2074   67.8105  228.2440 H   0  0  0  0  0  0  0  0  0  0  0  0
  141.0320   66.9486  225.5677 H   0  0  0  0  0  0  0  0  0  0  0  0
  139.7880   66.5794  226.7735 H   0  0  0  0  0  0  0  0  0  0  0  0
  139.4337   68.1922  224.4321 H   0  0  0  0  0  0  0  0  0  0  0  0
  138.2863   68.1186  225.7460 H   0  0  0  0  0  0  0  0  0  0  0  0
  140.2513   69.8542  223.1746 H   0  0  0  0  0  0  0  0  0  0  0  0
  138.5840   70.4343  223.3200 H   0  0  0  0  0  0  0  0  0  0  0  0
  139.8650   72.8580  223.5740 H   0  0  0  0  0  0  0  0  0  0  0  0
  142.2321   72.6946  219.6352 H   0  0  0  0  0  0  0  0  0  0  0  0
  142.8614   74.9882  218.8856 H   0  0  0  0  0  0  0  0  0  0  0  0
  142.7549   77.3754  219.2120 H   0  0  0  0  0  0  0  0  0  0  0  0
  140.5650   79.0332  222.5209 H   0  0  0  0  0  0  0  0  0  0  0  0
  139.9810   76.7206  223.2092 H   0  0  0  0  0  0  0  0  0  0  0  0
  1  2  3  0
  2  3  1  0
  3  4  1  0
  4  5  1  0
  5  6  1  0
  6  7  1  0
  7  8  1  0
  8  9  2  0
  8 10  1  0
 10 11  1  0
 11 12  1  0
 12 13  2  0
 12 14  1  0
 14 15  2  0
 15 16  1  0
 16 17  2  0
 17 18  1  0
 18 19  2  0
 19 20  1  0
 19 21  1  0
 21 22  2  0
 22 23  1  0
 23 24  2  0
  7  3  1  0
 24 14  1  0
 23 17  1  0
  3 25  1  1
  4 26  1  0
  4 27  1  0
  5 28  1  0
  5 29  1  0
  6 30  1  0
  6 31  1  0
 10 32  1  0
 10 33  1  0
 11 34  1  0
 15 35  1  0
 16 36  1  0
 18 37  1  0
 21 38  1  0
 22 39  1  0
M  END
>  <smiles>  (6) 
N#C[C@@H]1CCCN1C(=O)CNC(=O)c1ccc2cc(F)ccc2n1

>  <score_type>  (6) 
oracle

>  <origin>  (6) 
autodockgpu

>  <m_score__min__energy>  (6) 
-7.2999999999999998

>  <m_primary>  (6) 
energy

>  <rmsd>  (6) 
8.84597775451777

>  <m_score__min__rmsd>  (6) 
8.84597775451777

>  <meeko>  (6) 
{"free_energy": -6.87, "intermolecular_energy": -8.36, "internal_energy": -1.71, "cluster_size": 37, "cluster_id": 1, "rank_in_cluster": 36}

>  <energy>  (6) 
-7.28

>  <cluster_rmsd>  (6) 
1.51

>  <cluster>  (6) 
1

$$$$

     RDKit          3D

 39 41  0  0  0  0  0  0  0  0999 V2000
  141.2150   71.7430  228.4950 N   0  0  0  0  0  0  0  0  0  0  0  0
  140.6510   70.8830  227.9830 C   0  0  0  0  0  0  0  0  0  0  0  0
  139.9540   69.7910  227.3590 C   0  0  2  0  0  0  0  0  0  0  0  0
  140.6890   68.4710  227.4790 C   0  0  0  0  0  0  0  0  0  0  0  0
  139.9930   67.6200  226.4310 C   0  0  0  0  0  0  0  0  0  0  0  0
  139.2530   68.6020  225.5140 C   0  0  0  0  0  0  0  0  0  0  0  0
  139.8070   69.8980  225.9320 N   0  0  0  0  0  0  0  0  0  0  0  0
  140.0780   70.9280  225.0100 C   0  0  0  0  0  0  0  0  0  0  0  0
  140.7290   71.9220  225.4300 O   0  0  0  0  0  0  0  0  0  0  0  0
  139.6540   70.9320  223.5910 C   0  0  0  0  0  0  0  0  0  0  0  0
  140.0790   72.2310  223.0430 N   0  0  0  0  0  0  0  0  0  0  0  0
  140.6750   72.3410  221.7570 C   0  0  0  0  0  0  0  0  0  0  0  0
  140.8870   71.3610  220.9990 O   0  0  0  0  0  0  0  0  0  0  0  0
  141.0720   73.6820  221.2810 C   0  0  0  0  0  0  0  0  0  0  0  0
  141.7950   73.8420  220.1240 C   0  0  0  0  0  0  0  0  0  0  0  0
  142.1530   75.1150  219.7050 C   0  0  0  0  0  0  0  0  0  0  0  0
  141.7770   76.2020  220.4520 C   0  0  0  0  0  0  0  0  0  0  0  0
  142.1160   77.4880  220.0630 C   0  0  0  0  0  0  0  0  0  0  0  0
  141.7470   78.5740  220.7990 C   0  0  0  0  0  0  0  0  0  0  0  0
  142.0710   79.8270  220.4300 F   0  0  0  0  0  0  0  0  0  0  0  0
  141.0150   78.4290  221.9710 C   0  0  0  0  0  0  0  0  0  0  0  0
  140.6890   77.1380  222.3400 C   0  0  0  0  0  0  0  0  0  0  0  0
  141.0540   76.0280  221.6070 C   0  0  0  0  0  0  0  0  0  0  0  0
  140.7350   74.7900  221.9700 N   0  0  0  0  0  0  0  0  0  0  0  0
  138.9916   69.8322  227.8902 H   0  0  0  0  0  0  0  0  0  0  0  0
  141.7588   68.5881  227.2515 H   0  0  0  0  0  0  0  0  0  0  0  0
  140.6586   68.0389  228.4901 H   0  0  0  0  0  0  0  0  0  0  0  0
  140.7313   67.0420  225.8559 H   0  0  0  0  0  0  0  0  0  0  0  0
  139.3017   66.8987  226.8912 H   0  0  0  0  0  0  0  0  0  0  0  0
  139.4699   68.3989  224.4549 H   0  0  0  0  0  0  0  0  0  0  0  0
  138.1578   68.5432  225.5976 H   0  0  0  0  0  0  0  0  0  0  0  0
  140.1395   70.1097  223.0449 H   0  0  0  0  0  0  0  0  0  0  0  0
  138.5673   70.7909  223.4953 H   0  0  0  0  0  0  0  0  0  0  0  0
  139.9500   73.1220  223.5970 H   0  0  0  0  0  0  0  0  0  0  0  0
  142.0892   72.9632  219.5314 H   0  0  0  0  0  0  0  0  0  0  0  0
  142.7339   75.2515  218.7809 H   0  0  0  0  0  0  0  0  0  0  0  0
  142.6957   77.6356  219.1399 H   0  0  0  0  0  0  0  0  0  0  0  0
  140.7107   79.2972  222.5740 H   0  0  0  0  0  0  0  0  0  0  0  0
  140.1102   76.9881  223.2633 H   0  0  0  0  0  0  0  0  0  0  0  0
  1  2  3  0
  2  3  1  0
  3  4  1  0
  4  5  1  0
  5  6  1  0
  6  7  1  0
  7  8  1  0
  8  9  2  0
  8 10  1  0
 10 11  1  0
 11 12  1  0
 12 13  2  0
 12 14  1  0
 14 15  2  0
 15 16  1  0
 16 17  2  0
 17 18  1  0
 18 19  2  0
 19 20  1  0
 19 21  1  0
 21 22  2  0
 22 23  1  0
 23 24  2  0
  7  3  1  0
 24 14  1  0
 23 17  1  0
  3 25  1  1
  4 26  1  0
  4 27  1  0
  5 28  1  0
  5 29  1  0
  6 30  1  0
  6 31  1  0
 10 32  1  0
 10 33  1  0
 11 34  1  0
 15 35  1  0
 16 36  1  0
 18 37  1  0
 21 38  1  0
 22 39  1  0
M  END
>  <smiles>  (7) 
N#C[C@@H]1CCCN1C(=O)CNC(=O)c1ccc2cc(F)ccc2n1

>  <score_type>  (7) 
oracle

>  <origin>  (7) 
autodockgpu

>  <m_score__min__energy>  (7) 
-7.2999999999999998

>  <m_primary>  (7) 
energy

>  <rmsd>  (7) 
8.890572954545753

>  <m_score__min__rmsd>  (7) 
8.890572954545753

>  <meeko>  (7) 
{"free_energy": -7.16, "intermolecular_energy": -8.65, "internal_energy": -1.55, "cluster_size": 37, "cluster_id": 1, "rank_in_cluster": 27}

>  <energy>  (7) 
-7.27

>  <cluster_rmsd>  (7) 
0.16

>  <cluster>  (7) 
1

$$$$

     RDKit          3D

 39 41  0  0  0  0  0  0  0  0999 V2000
  139.1810   67.3890  226.0140 N   0  0  0  0  0  0  0  0  0  0  0  0
  139.7890   68.3580  226.1270 C   0  0  0  0  0  0  0  0  0  0  0  0
  140.5470   69.5740  226.2430 C   0  0  2  0  0  0  0  0  0  0  0  0
  140.4060   70.2350  227.6000 C   0  0  0  0  0  0  0  0  0  0  0  0
  140.9300   71.6350  227.3300 C   0  0  0  0  0  0  0  0  0  0  0  0
  140.9070   71.8070  225.8070 C   0  0  0  0  0  0  0  0  0  0  0  0
  140.1280   70.6390  225.3710 N   0  0  0  0  0  0  0  0  0  0  0  0
  139.2110   70.7070  224.3060 C   0  0  0  0  0  0  0  0  0  0  0  0
  137.9840   70.7010  224.5980 O   0  0  0  0  0  0  0  0  0  0  0  0
  139.5760   70.7810  222.8720 C   0  0  0  0  0  0  0  0  0  0  0  0
  139.8600   72.2000  222.5980 N   0  0  0  0  0  0  0  0  0  0  0  0
  140.8560   72.5950  221.6630 C   0  0  0  0  0  0  0  0  0  0  0  0
  141.5600   71.7860  221.0090 O   0  0  0  0  0  0  0  0  0  0  0  0
  141.0780   74.0390  221.4450 C   0  0  0  0  0  0  0  0  0  0  0  0
  142.0250   74.4870  220.5570 C   0  0  0  0  0  0  0  0  0  0  0  0
  142.2100   75.8500  220.3750 C   0  0  0  0  0  0  0  0  0  0  0  0
  141.4410   76.7360  221.0860 C   0  0  0  0  0  0  0  0  0  0  0  0
  141.5980   78.1030  220.9300 C   0  0  0  0  0  0  0  0  0  0  0  0
  140.8380   78.9910  221.6330 C   0  0  0  0  0  0  0  0  0  0  0  0
  140.9840   80.3220  221.4890 F   0  0  0  0  0  0  0  0  0  0  0  0
  139.8760   78.5530  222.5340 C   0  0  0  0  0  0  0  0  0  0  0  0
  139.7380   77.1860  222.6740 C   0  0  0  0  0  0  0  0  0  0  0  0
  140.4980   76.2740  221.9710 C   0  0  0  0  0  0  0  0  0  0  0  0
  140.3560   74.9600  222.1130 N   0  0  0  0  0  0  0  0  0  0  0  0
  141.5581   69.2075  226.0118 H   0  0  0  0  0  0  0  0  0  0  0  0
  139.3555   70.2580  227.9254 H   0  0  0  0  0  0  0  0  0  0  0  0
  140.9416   69.7103  228.4049 H   0  0  0  0  0  0  0  0  0  0  0  0
  140.2831   72.3845  227.8093 H   0  0  0  0  0  0  0  0  0  0  0  0
  141.9431   71.7719  227.7362 H   0  0  0  0  0  0  0  0  0  0  0  0
  140.4114   72.7461  225.5197 H   0  0  0  0  0  0  0  0  0  0  0  0
  141.9083   71.8620  225.3550 H   0  0  0  0  0  0  0  0  0  0  0  0
  140.4669   70.1674  222.6722 H   0  0  0  0  0  0  0  0  0  0  0  0
  138.7675   70.4008  222.2303 H   0  0  0  0  0  0  0  0  0  0  0  0
  139.3270   72.9660  223.0940 H   0  0  0  0  0  0  0  0  0  0  0  0
  142.6351   73.7672  219.9916 H   0  0  0  0  0  0  0  0  0  0  0  0
  142.9671   76.2171  219.6664 H   0  0  0  0  0  0  0  0  0  0  0  0
  142.3520   78.4809  220.2238 H   0  0  0  0  0  0  0  0  0  0  0  0
  139.2560   79.2585  223.1066 H   0  0  0  0  0  0  0  0  0  0  0  0
  138.9855   76.8058  223.3805 H   0  0  0  0  0  0  0  0  0  0  0  0
  1  2  3  0
  2  3  1  0
  3  4  1  0
  4  5  1  0
  5  6  1  0
  6  7  1  0
  7  8  1  0
  8  9  2  0
  8 10  1  0
 10 11  1  0
 11 12  1  0
 12 13  2  0
 12 14  1  0
 14 15  2  0
 15 16  1  0
 16 17  2  0
 17 18  1  0
 18 19  2  0
 19 20  1  0
 19 21  1  0
 21 22  2  0
 22 23  1  0
 23 24  2  0
  7  3  1  0
 24 14  1  0
 23 17  1  0
  3 25  1  6
  4 26  1  0
  4 27  1  0
  5 28  1  0
  5 29  1  0
  6 30  1  0
  6 31  1  0
 10 32  1  0
 10 33  1  0
 11 34  1  0
 15 35  1  0
 16 36  1  0
 18 37  1  0
 21 38  1  0
 22 39  1  0
M  END
>  <smiles>  (8) 
N#C[C@@H]1CCCN1C(=O)CNC(=O)c1ccc2cc(F)ccc2n1

>  <score_type>  (8) 
oracle

>  <origin>  (8) 
autodockgpu

>  <m_score__min__energy>  (8) 
-7.2999999999999998

>  <m_primary>  (8) 
energy

>  <rmsd>  (8) 
8.547821794668245

>  <m_score__min__rmsd>  (8) 
8.547821794668245

>  <meeko>  (8) 
{"free_energy": -7.23, "intermolecular_energy": -8.72, "internal_energy": -1.36, "cluster_size": 37, "cluster_id": 1, "rank_in_cluster": 11}

>  <energy>  (8) 
-7.27

>  <cluster_rmsd>  (8) 
0.07

>  <cluster>  (8) 
1

$$$$

     RDKit          3D

 39 41  0  0  0  0  0  0  0  0999 V2000
  139.1900   67.4430  225.7100 N   0  0  0  0  0  0  0  0  0  0  0  0
  139.7960   68.3770  225.9980 C   0  0  0  0  0  0  0  0  0  0  0  0
  140.5410   69.5560  226.3410 C   0  0  2  0  0  0  0  0  0  0  0  0
  140.2530   70.0560  227.7430 C   0  0  0  0  0  0  0  0  0  0  0  0
  140.8090   71.4680  227.7000 C   0  0  0  0  0  0  0  0  0  0  0  0
  140.9580   71.8190  226.2150 C   0  0  0  0  0  0  0  0  0  0  0  0
  140.2280   70.7230  225.5610 N   0  0  0  0  0  0  0  0  0  0  0  0
  139.4350   70.9320  224.4160 C   0  0  0  0  0  0  0  0  0  0  0  0
  138.2040   71.1370  224.5940 O   0  0  0  0  0  0  0  0  0  0  0  0
  139.9360   70.9270  223.0220 C   0  0  0  0  0  0  0  0  0  0  0  0
  140.1480   72.3380  222.6600 N   0  0  0  0  0  0  0  0  0  0  0  0
  141.0670   72.7190  221.6440 C   0  0  0  0  0  0  0  0  0  0  0  0
  141.7600   71.9020  220.9870 O   0  0  0  0  0  0  0  0  0  0  0  0
  141.2200   74.1570  221.3410 C   0  0  0  0  0  0  0  0  0  0  0  0
  142.0860   74.5910  220.3670 C   0  0  0  0  0  0  0  0  0  0  0  0
  142.2070   75.9480  220.1070 C   0  0  0  0  0  0  0  0  0  0  0  0
  141.4560   76.8430  220.8270 C   0  0  0  0  0  0  0  0  0  0  0  0
  141.5500   78.2050  220.5940 C   0  0  0  0  0  0  0  0  0  0  0  0
  140.8080   79.1010  221.3050 C   0  0  0  0  0  0  0  0  0  0  0  0
  140.8930   80.4270  221.0860 F   0  0  0  0  0  0  0  0  0  0  0  0
  139.9280   78.6770  222.2920 C   0  0  0  0  0  0  0  0  0  0  0  0
  139.8510   77.3160  222.5080 C   0  0  0  0  0  0  0  0  0  0  0  0
  140.5940   76.3940  221.7980 C   0  0  0  0  0  0  0  0  0  0  0  0
  140.5120   75.0860  222.0130 N   0  0  0  0  0  0  0  0  0  0  0  0
  141.5696   69.2003  226.1816 H   0  0  0  0  0  0  0  0  0  0  0  0
  139.1730   70.0588  227.9515 H   0  0  0  0  0  0  0  0  0  0  0  0
  140.6940   69.4315  228.5339 H   0  0  0  0  0  0  0  0  0  0  0  0
  140.1153   72.1669  228.1901 H   0  0  0  0  0  0  0  0  0  0  0  0
  141.7709   71.5383  228.2289 H   0  0  0  0  0  0  0  0  0  0  0  0
  140.5012   72.7936  225.9879 H   0  0  0  0  0  0  0  0  0  0  0  0
  142.0037   71.9106  225.8861 H   0  0  0  0  0  0  0  0  0  0  0  0
  140.8825   70.3701  222.9584 H   0  0  0  0  0  0  0  0  0  0  0  0
  139.2234   70.4397  222.3403 H   0  0  0  0  0  0  0  0  0  0  0  0
  139.6180   73.1090  223.1510 H   0  0  0  0  0  0  0  0  0  0  0  0
  142.6817   73.8645  219.7950 H   0  0  0  0  0  0  0  0  0  0  0  0
  142.8994   76.3040  219.3299 H   0  0  0  0  0  0  0  0  0  0  0  0
  142.2383   78.5719  219.8184 H   0  0  0  0  0  0  0  0  0  0  0  0
  139.3231   79.3895  222.8721 H   0  0  0  0  0  0  0  0  0  0  0  0
  139.1638   76.9477  223.2840 H   0  0  0  0  0  0  0  0  0  0  0  0
  1  2  3  0
  2  3  1  0
  3  4  1  0
  4  5  1  0
  5  6  1  0
  6  7  1  0
  7  8  1  0
  8  9  2  0
  8 10  1  0
 10 11  1  0
 11 12  1  0
 12 13  2  0
 12 14  1  0
 14 15  2  0
 15 16  1  0
 16 17  2  0
 17 18  1  0
 18 19  2  0
 19 20  1  0
 19 21  1  0
 21 22  2  0
 22 23  1  0
 23 24  2  0
  7  3  1  0
 24 14  1  0
 23 17  1  0
  3 25  1  1
  4 26  1  0
  4 27  1  0
  5 28  1  0
  5 29  1  0
  6 30  1  0
  6 31  1  0
 10 32  1  0
 10 33  1  0
 11 34  1  0
 15 35  1  0
 16 36  1  0
 18 37  1  0
 21 38  1  0
 22 39  1  0
M  END
>  <smiles>  (9) 
N#C[C@@H]1CCCN1C(=O)CNC(=O)c1ccc2cc(F)ccc2n1

>  <score_type>  (9) 
oracle

>  <origin>  (9) 
autodockgpu

>  <m_score__min__energy>  (9) 
-7.2999999999999998

>  <m_primary>  (9) 
energy

>  <rmsd>  (9) 
8.74409827015921

>  <m_score__min__rmsd>  (9) 
8.74409827015921

>  <meeko>  (9) 
{"free_energy": -7.29, "intermolecular_energy": -8.78, "internal_energy": -1.35, "cluster_size": 37, "cluster_id": 1, "rank_in_cluster": 4}

>  <energy>  (9) 
-7.26

>  <cluster_rmsd>  (9) 
0.09

>  <cluster>  (9) 
1

$$$$

     RDKit          3D

 39 41  0  0  0  0  0  0  0  0999 V2000
  141.0770   71.8830  228.4090 N   0  0  0  0  0  0  0  0  0  0  0  0
  140.5830   70.9770  227.9030 C   0  0  0  0  0  0  0  0  0  0  0  0
  139.9520   69.8400  227.2900 C   0  0  2  0  0  0  0  0  0  0  0  0
  140.7130   68.5470  227.5110 C   0  0  0  0  0  0  0  0  0  0  0  0
  140.1010   67.6330  226.4650 C   0  0  0  0  0  0  0  0  0  0  0  0
  139.3900   68.5530  225.4640 C   0  0  0  0  0  0  0  0  0  0  0  0
  139.8860   69.8810  225.8540 N   0  0  0  0  0  0  0  0  0  0  0  0
  140.1830   70.8770  224.9030 C   0  0  0  0  0  0  0  0  0  0  0  0
  141.0590   71.7280  225.2130 O   0  0  0  0  0  0  0  0  0  0  0  0
  139.5450   71.0000  223.5730 C   0  0  0  0  0  0  0  0  0  0  0  0
  139.9910   72.2920  223.0250 N   0  0  0  0  0  0  0  0  0  0  0  0
  140.6810   72.3790  221.7850 C   0  0  0  0  0  0  0  0  0  0  0  0
  140.9630   71.3850  221.0710 O   0  0  0  0  0  0  0  0  0  0  0  0
  141.0940   73.7140  221.3060 C   0  0  0  0  0  0  0  0  0  0  0  0
  141.8540   73.8600  220.1710 C   0  0  0  0  0  0  0  0  0  0  0  0
  142.2250   75.1280  219.7480 C   0  0  0  0  0  0  0  0  0  0  0  0
  141.8250   76.2250  220.4690 C   0  0  0  0  0  0  0  0  0  0  0  0
  142.1770   77.5050  220.0760 C   0  0  0  0  0  0  0  0  0  0  0  0
  141.7840   78.6010  220.7860 C   0  0  0  0  0  0  0  0  0  0  0  0
  142.1210   79.8490  220.4130 F   0  0  0  0  0  0  0  0  0  0  0  0
  141.0150   78.4690  221.9350 C   0  0  0  0  0  0  0  0  0  0  0  0
  140.6760   77.1840  222.3090 C   0  0  0  0  0  0  0  0  0  0  0  0
  141.0650   76.0640  221.6020 C   0  0  0  0  0  0  0  0  0  0  0  0
  140.7340   74.8310  221.9700 N   0  0  0  0  0  0  0  0  0  0  0  0
  138.9595   69.8768  227.7629 H   0  0  0  0  0  0  0  0  0  0  0  0
  141.7909   68.6841  227.3395 H   0  0  0  0  0  0  0  0  0  0  0  0
  140.6354   68.1584  228.5372 H   0  0  0  0  0  0  0  0  0  0  0  0
  140.8859   67.0516  225.9591 H   0  0  0  0  0  0  0  0  0  0  0  0
  139.4027   66.9134  226.9174 H   0  0  0  0  0  0  0  0  0  0  0  0
  139.6726   68.3101  224.4291 H   0  0  0  0  0  0  0  0  0  0  0  0
  138.2936   68.4672  225.4880 H   0  0  0  0  0  0  0  0  0  0  0  0
  139.8654   70.1763  222.9181 H   0  0  0  0  0  0  0  0  0  0  0  0
  138.4486   70.9514  223.6468 H   0  0  0  0  0  0  0  0  0  0  0  0
  139.8070   73.1940  223.5450 H   0  0  0  0  0  0  0  0  0  0  0  0
  142.1675   72.9741  219.5993 H   0  0  0  0  0  0  0  0  0  0  0  0
  142.8353   75.2532  218.8414 H   0  0  0  0  0  0  0  0  0  0  0  0
  142.7872   77.6410  219.1710 H   0  0  0  0  0  0  0  0  0  0  0  0
  140.6923   79.3443  222.5178 H   0  0  0  0  0  0  0  0  0  0  0  0
  140.0664   77.0460  223.2142 H   0  0  0  0  0  0  0  0  0  0  0  0
  1  2  3  0
  2  3  1  0
  3  4  1  0
  4  5  1  0
  5  6  1  0
  6  7  1  0
  7  8  1  0
  8  9  2  0
  8 10  1  0
 10 11  1  0
 11 12  1  0
 12 13  2  0
 12 14  1  0
 14 15  2  0
 15 16  1  0
 16 17  2  0
 17 18  1  0
 18 19  2  0
 19 20  1  0
 19 21  1  0
 21 22  2  0
 22 23  1  0
 23 24  2  0
  7  3  1  0
 24 14  1  0
 23 17  1  0
  3 25  1  1
  4 26  1  0
  4 27  1  0
  5 28  1  0
  5 29  1  0
  6 30  1  0
  6 31  1  0
 10 32  1  0
 10 33  1  0
 11 34  1  0
 15 35  1  0
 16 36  1  0
 18 37  1  0
 21 38  1  0
 22 39  1  0
M  END
>  <smiles>  (10) 
N#C[C@@H]1CCCN1C(=O)CNC(=O)c1ccc2cc(F)ccc2n1

>  <score_type>  (10) 
oracle

>  <origin>  (10) 
autodockgpu

>  <m_score__min__energy>  (10) 
-7.2999999999999998

>  <m_primary>  (10) 
energy

>  <rmsd>  (10) 
8.887696528393551

>  <m_score__min__rmsd>  (10) 
8.887696528393551

>  <meeko>  (10) 
{"free_energy": -7.28, "intermolecular_energy": -8.77, "internal_energy": -1.39, "cluster_size": 37, "cluster_id": 1, "rank_in_cluster": 6}

>  <energy>  (10) 
-7.24

>  <cluster_rmsd>  (10) 
1.54

>  <cluster>  (10) 
1

$$$$

     RDKit          3D

 39 41  0  0  0  0  0  0  0  0999 V2000
  141.3690   71.4990  228.4600 N   0  0  0  0  0  0  0  0  0  0  0  0
  140.8020   70.6340  227.9580 C   0  0  0  0  0  0  0  0  0  0  0  0
  140.1120   69.5370  227.3360 C   0  0  2  0  0  0  0  0  0  0  0  0
  140.9220   68.2550  227.3230 C   0  0  0  0  0  0  0  0  0  0  0  0
  140.1830   67.4200  226.2920 C   0  0  0  0  0  0  0  0  0  0  0  0
  139.3170   68.4030  225.4950 C   0  0  0  0  0  0  0  0  0  0  0  0
  139.8380   69.7060  225.9340 N   0  0  0  0  0  0  0  0  0  0  0  0
  139.9740   70.7930  225.0500 C   0  0  0  0  0  0  0  0  0  0  0  0
  140.3660   71.8880  225.5370 O   0  0  0  0  0  0  0  0  0  0  0  0
  139.6900   70.7500  223.5970 C   0  0  0  0  0  0  0  0  0  0  0  0
  140.1070   72.0560  223.0610 N   0  0  0  0  0  0  0  0  0  0  0  0
  140.7120   72.1790  221.7800 C   0  0  0  0  0  0  0  0  0  0  0  0
  140.9370   71.2060  221.0170 O   0  0  0  0  0  0  0  0  0  0  0  0
  141.1010   73.5260  221.3160 C   0  0  0  0  0  0  0  0  0  0  0  0
  141.8710   73.6970  220.1910 C   0  0  0  0  0  0  0  0  0  0  0  0
  142.2200   74.9760  219.7820 C   0  0  0  0  0  0  0  0  0  0  0  0
  141.7880   76.0580  220.5060 C   0  0  0  0  0  0  0  0  0  0  0  0
  142.1160   77.3490  220.1270 C   0  0  0  0  0  0  0  0  0  0  0  0
  141.6920   78.4300  220.8410 C   0  0  0  0  0  0  0  0  0  0  0  0
  142.0060   79.6880  220.4810 F   0  0  0  0  0  0  0  0  0  0  0  0
  140.9120   78.2730  221.9800 C   0  0  0  0  0  0  0  0  0  0  0  0
  140.5970   76.9780  222.3400 C   0  0  0  0  0  0  0  0  0  0  0  0
  141.0180   75.8720  221.6290 C   0  0  0  0  0  0  0  0  0  0  0  0
  140.7090   74.6290  221.9840 N   0  0  0  0  0  0  0  0  0  0  0  0
  139.1981   69.4979  227.9469 H   0  0  0  0  0  0  0  0  0  0  0  0
  141.9609   68.4426  227.0141 H   0  0  0  0  0  0  0  0  0  0  0  0
  141.0010   67.7722  228.3082 H   0  0  0  0  0  0  0  0  0  0  0  0
  140.8977   66.9137  225.6266 H   0  0  0  0  0  0  0  0  0  0  0  0
  139.5720   66.6391  226.7685 H   0  0  0  0  0  0  0  0  0  0  0  0
  139.4511   68.2646  224.4120 H   0  0  0  0  0  0  0  0  0  0  0  0
  138.2377   68.2793  225.6673 H   0  0  0  0  0  0  0  0  0  0  0  0
  140.2626   69.9410  223.1198 H   0  0  0  0  0  0  0  0  0  0  0  0
  138.6250   70.5566  223.4011 H   0  0  0  0  0  0  0  0  0  0  0  0
  139.9670   72.9420  223.6200 H   0  0  0  0  0  0  0  0  0  0  0  0
  142.2098   72.8224  219.6163 H   0  0  0  0  0  0  0  0  0  0  0  0
  142.8384   75.1212  218.8840 H   0  0  0  0  0  0  0  0  0  0  0  0
  142.7325   77.5056  219.2296 H   0  0  0  0  0  0  0  0  0  0  0  0
  140.5632   79.1367  222.5652 H   0  0  0  0  0  0  0  0  0  0  0  0
  139.9805   76.8196  223.2371 H   0  0  0  0  0  0  0  0  0  0  0  0
  1  2  3  0
  2  3  1  0
  3  4  1  0
  4  5  1  0
  5  6  1  0
  6  7  1  0
  7  8  1  0
  8  9  2  0
  8 10  1  0
 10 11  1  0
 11 12  1  0
 12 13  2  0
 12 14  1  0
 14 15  2  0
 15 16  1  0
 16 17  2  0
 17 18  1  0
 18 19  2  0
 19 20  1  0
 19 21  1  0
 21 22  2  0
 22 23  1  0
 23 24  2  0
  7  3  1  0
 24 14  1  0
 23 17  1  0
  3 25  1  1
  4 26  1  0
  4 27  1  0
  5 28  1  0
  5 29  1  0
  6 30  1  0
  6 31  1  0
 10 32  1  0
 10 33  1  0
 11 34  1  0
 15 35  1  0
 16 36  1  0
 18 37  1  0
 21 38  1  0
 22 39  1  0
M  END
>  <smiles>  (11) 
N#C[C@@H]1CCCN1C(=O)CNC(=O)c1ccc2cc(F)ccc2n1

>  <score_type>  (11) 
oracle

>  <origin>  (11) 
autodockgpu

>  <m_score__min__energy>  (11) 
-7.2999999999999998

>  <m_primary>  (11) 
energy

>  <rmsd>  (11) 
8.8774651337652

>  <m_score__min__rmsd>  (11) 
8.8774651337652

>  <meeko>  (11) 
{"free_energy": -7.01, "intermolecular_energy": -8.5, "internal_energy": -1.66, "cluster_size": 37, "cluster_id": 1, "rank_in_cluster": 34}

>  <energy>  (11) 
-7.23

>  <cluster_rmsd>  (11) 
0.29

>  <cluster>  (11) 
1

$$$$

     RDKit          3D

 39 41  0  0  0  0  0  0  0  0999 V2000
  139.2000   67.4990  225.3540 N   0  0  0  0  0  0  0  0  0  0  0  0
  139.8030   68.3930  225.7530 C   0  0  0  0  0  0  0  0  0  0  0  0
  140.5420   69.5110  226.2710 C   0  0  2  0  0  0  0  0  0  0  0  0
  140.1710   69.8580  227.7000 C   0  0  0  0  0  0  0  0  0  0  0  0
  140.7500   71.2540  227.8510 C   0  0  0  0  0  0  0  0  0  0  0  0
  140.9980   71.7640  226.4260 C   0  0  0  0  0  0  0  0  0  0  0  0
  140.2960   70.7640  225.6090 N   0  0  0  0  0  0  0  0  0  0  0  0
  139.5810   71.1150  224.4470 C   0  0  0  0  0  0  0  0  0  0  0  0
  138.3760   71.4550  224.5910 O   0  0  0  0  0  0  0  0  0  0  0  0
  140.1360   71.1140  223.0740 C   0  0  0  0  0  0  0  0  0  0  0  0
  140.3190   72.5280  222.7070 N   0  0  0  0  0  0  0  0  0  0  0  0
  141.1350   72.9160  221.6100 C   0  0  0  0  0  0  0  0  0  0  0  0
  141.7570   72.1040  220.8800 O   0  0  0  0  0  0  0  0  0  0  0  0
  141.2640   74.3560  221.3070 C   0  0  0  0  0  0  0  0  0  0  0  0
  142.0470   74.7980  220.2680 C   0  0  0  0  0  0  0  0  0  0  0  0
  142.1470   76.1580  220.0110 C   0  0  0  0  0  0  0  0  0  0  0  0
  141.4610   77.0470  220.7990 C   0  0  0  0  0  0  0  0  0  0  0  0
  141.5380   78.4110  220.5700 C   0  0  0  0  0  0  0  0  0  0  0  0
  140.8590   79.3020  221.3480 C   0  0  0  0  0  0  0  0  0  0  0  0
  140.9280   80.6290  221.1350 F   0  0  0  0  0  0  0  0  0  0  0  0
  140.0640   78.8700  222.4020 C   0  0  0  0  0  0  0  0  0  0  0  0
  140.0030   77.5060  222.6120 C   0  0  0  0  0  0  0  0  0  0  0  0
  140.6820   76.5910  221.8340 C   0  0  0  0  0  0  0  0  0  0  0  0
  140.6160   75.2800  222.0450 N   0  0  0  0  0  0  0  0  0  0  0  0
  141.5737   69.1540  226.1363 H   0  0  0  0  0  0  0  0  0  0  0  0
  139.0799   69.8614  227.8393 H   0  0  0  0  0  0  0  0  0  0  0  0
  140.5502   69.1397  228.4418 H   0  0  0  0  0  0  0  0  0  0  0  0
  140.0371   71.9092  228.3730 H   0  0  0  0  0  0  0  0  0  0  0  0
  141.6771   71.2443  228.4430 H   0  0  0  0  0  0  0  0  0  0  0  0
  140.5706   72.7673  226.2819 H   0  0  0  0  0  0  0  0  0  0  0  0
  142.0638   71.8685  226.1748 H   0  0  0  0  0  0  0  0  0  0  0  0
  141.1008   70.5860  223.0525 H   0  0  0  0  0  0  0  0  0  0  0  0
  139.4657   70.5994  222.3698 H   0  0  0  0  0  0  0  0  0  0  0  0
  139.8430   73.2970  223.2550 H   0  0  0  0  0  0  0  0  0  0  0  0
  142.5926   74.0764  219.6422 H   0  0  0  0  0  0  0  0  0  0  0  0
  142.7718   76.5206  219.1814 H   0  0  0  0  0  0  0  0  0  0  0  0
  142.1602   78.7836  219.7429 H   0  0  0  0  0  0  0  0  0  0  0  0
  139.5112   79.5779  223.0370 H   0  0  0  0  0  0  0  0  0  0  0  0
  139.3830   77.1312  223.4397 H   0  0  0  0  0  0  0  0  0  0  0  0
  1  2  3  0
  2  3  1  0
  3  4  1  0
  4  5  1  0
  5  6  1  0
  6  7  1  0
  7  8  1  0
  8  9  2  0
  8 10  1  0
 10 11  1  0
 11 12  1  0
 12 13  2  0
 12 14  1  0
 14 15  2  0
 15 16  1  0
 16 17  2  0
 17 18  1  0
 18 19  2  0
 19 20  1  0
 19 21  1  0
 21 22  2  0
 22 23  1  0
 23 24  2  0
  7  3  1  0
 24 14  1  0
 23 17  1  0
  3 25  1  1
  4 26  1  0
  4 27  1  0
  5 28  1  0
  5 29  1  0
  6 30  1  0
  6 31  1  0
 10 32  1  0
 10 33  1  0
 11 34  1  0
 15 35  1  0
 16 36  1  0
 18 37  1  0
 21 38  1  0
 22 39  1  0
M  END
>  <smiles>  (12) 
N#C[C@@H]1CCCN1C(=O)CNC(=O)c1ccc2cc(F)ccc2n1

>  <score_type>  (12) 
oracle

>  <origin>  (12) 
autodockgpu

>  <m_score__min__energy>  (12) 
-7.2999999999999998

>  <m_primary>  (12) 
energy

>  <rmsd>  (12) 
8.851492015765546

>  <m_score__min__rmsd>  (12) 
8.851492015765546

>  <meeko>  (12) 
{"free_energy": -7.17, "intermolecular_energy": -8.66, "internal_energy": -1.37, "cluster_size": 37, "cluster_id": 1, "rank_in_cluster": 23}

>  <energy>  (12) 
-7.22

>  <cluster_rmsd>  (12) 
0.14

>  <cluster>  (12) 
1

$$$$

     RDKit          3D

 39 41  0  0  0  0  0  0  0  0999 V2000
  141.1600   71.7200  228.4560 N   0  0  0  0  0  0  0  0  0  0  0  0
  140.6230   70.8310  227.9640 C   0  0  0  0  0  0  0  0  0  0  0  0
  139.9570   69.7290  227.3270 C   0  0  2  0  0  0  0  0  0  0  0  0
  140.7170   68.4230  227.4500 C   0  0  0  0  0  0  0  0  0  0  0  0
  140.0520   67.5640  226.3890 C   0  0  0  0  0  0  0  0  0  0  0  0
  139.3030   68.5350  225.4680 C   0  0  0  0  0  0  0  0  0  0  0  0
  139.8260   69.8400  225.8990 N   0  0  0  0  0  0  0  0  0  0  0  0
  140.0860   70.8800  224.9860 C   0  0  0  0  0  0  0  0  0  0  0  0
  140.7270   71.8770  225.4130 O   0  0  0  0  0  0  0  0  0  0  0  0
  139.6630   70.8910  223.5660 C   0  0  0  0  0  0  0  0  0  0  0  0
  140.0850   72.1940  223.0260 N   0  0  0  0  0  0  0  0  0  0  0  0
  140.6740   72.3140  221.7380 C   0  0  0  0  0  0  0  0  0  0  0  0
  140.8810   71.3400  220.9710 O   0  0  0  0  0  0  0  0  0  0  0  0
  141.0680   73.6590  221.2690 C   0  0  0  0  0  0  0  0  0  0  0  0
  141.7790   73.8280  220.1070 C   0  0  0  0  0  0  0  0  0  0  0  0
  142.1340   75.1040  219.6950 C   0  0  0  0  0  0  0  0  0  0  0  0
  141.7680   76.1860  220.4560 C   0  0  0  0  0  0  0  0  0  0  0  0
  142.1050   77.4740  220.0760 C   0  0  0  0  0  0  0  0  0  0  0  0
  141.7450   78.5540  220.8260 C   0  0  0  0  0  0  0  0  0  0  0  0
  142.0680   79.8100  220.4640 F   0  0  0  0  0  0  0  0  0  0  0  0
  141.0250   78.3990  222.0040 C   0  0  0  0  0  0  0  0  0  0  0  0
  140.7010   77.1060  222.3630 C   0  0  0  0  0  0  0  0  0  0  0  0
  141.0560   76.0010  221.6170 C   0  0  0  0  0  0  0  0  0  0  0  0
  140.7390   74.7610  221.9720 N   0  0  0  0  0  0  0  0  0  0  0  0
  138.9876   69.7481  227.8465 H   0  0  0  0  0  0  0  0  0  0  0  0
  141.7871   68.5627  227.2371 H   0  0  0  0  0  0  0  0  0  0  0  0
  140.6822   67.9851  228.4585 H   0  0  0  0  0  0  0  0  0  0  0  0
  140.8093   67.0047  225.8201 H   0  0  0  0  0  0  0  0  0  0  0  0
  139.3701   66.8261  226.8369 H   0  0  0  0  0  0  0  0  0  0  0  0
  139.5363   68.3416  224.4106 H   0  0  0  0  0  0  0  0  0  0  0  0
  138.2083   68.4536  225.5381 H   0  0  0  0  0  0  0  0  0  0  0  0
  140.1511   70.0732  223.0156 H   0  0  0  0  0  0  0  0  0  0  0  0
  138.5768   70.7476  223.4684 H   0  0  0  0  0  0  0  0  0  0  0  0
  139.9590   73.0810  223.5880 H   0  0  0  0  0  0  0  0  0  0  0  0
  142.0664   72.9539  219.5042 H   0  0  0  0  0  0  0  0  0  0  0  0
  142.7045   75.2476  218.7655 H   0  0  0  0  0  0  0  0  0  0  0  0
  142.6757   77.6293  219.1486 H   0  0  0  0  0  0  0  0  0  0  0  0
  140.7285   79.2617  222.6187 H   0  0  0  0  0  0  0  0  0  0  0  0
  140.1311   76.9488  223.2906 H   0  0  0  0  0  0  0  0  0  0  0  0
  1  2  3  0
  2  3  1  0
  3  4  1  0
  4  5  1  0
  5  6  1  0
  6  7  1  0
  7  8  1  0
  8  9  2  0
  8 10  1  0
 10 11  1  0
 11 12  1  0
 12 13  2  0
 12 14  1  0
 14 15  2  0
 15 16  1  0
 16 17  2  0
 17 18  1  0
 18 19  2  0
 19 20  1  0
 19 21  1  0
 21 22  2  0
 22 23  1  0
 23 24  2  0
  7  3  1  0
 24 14  1  0
 23 17  1  0
  3 25  1  1
  4 26  1  0
  4 27  1  0
  5 28  1  0
  5 29  1  0
  6 30  1  0
  6 31  1  0
 10 32  1  0
 10 33  1  0
 11 34  1  0
 15 35  1  0
 16 36  1  0
 18 37  1  0
 21 38  1  0
 22 39  1  0
M  END
>  <smiles>  (13) 
N#C[C@@H]1CCCN1C(=O)CNC(=O)c1ccc2cc(F)ccc2n1

>  <score_type>  (13) 
oracle

>  <origin>  (13) 
autodockgpu

>  <m_score__min__energy>  (13) 
-7.2999999999999998

>  <m_primary>  (13) 
energy

>  <rmsd>  (13) 
8.88575798838165

>  <m_score__min__rmsd>  (13) 
8.88575798838165

>  <meeko>  (13) 
{"free_energy": -7.16, "intermolecular_energy": -8.66, "internal_energy": -1.55, "cluster_size": 37, "cluster_id": 1, "rank_in_cluster": 25}

>  <energy>  (13) 
-7.21

>  <cluster_rmsd>  (13) 
0.54

>  <cluster>  (13) 
1

$$$$

     RDKit          3D

 39 41  0  0  0  0  0  0  0  0999 V2000
  139.2000   67.4600  225.6970 N   0  0  0  0  0  0  0  0  0  0  0  0
  139.8120   68.3930  225.9720 C   0  0  0  0  0  0  0  0  0  0  0  0
  140.5780   69.5660  226.2930 C   0  0  2  0  0  0  0  0  0  0  0  0
  140.3330   70.0690  227.7020 C   0  0  0  0  0  0  0  0  0  0  0  0
  140.9010   71.4760  227.6430 C   0  0  0  0  0  0  0  0  0  0  0  0
  141.0100   71.8250  226.1540 C   0  0  0  0  0  0  0  0  0  0  0  0
  140.2520   70.7360  225.5210 N   0  0  0  0  0  0  0  0  0  0  0  0
  139.4290   70.9510  224.3990 C   0  0  0  0  0  0  0  0  0  0  0  0
  138.2020   71.1470  224.6120 O   0  0  0  0  0  0  0  0  0  0  0  0
  139.8940   70.9640  222.9930 C   0  0  0  0  0  0  0  0  0  0  0  0
  140.1110   72.3790  222.6490 N   0  0  0  0  0  0  0  0  0  0  0  0
  141.0480   72.7700  221.6530 C   0  0  0  0  0  0  0  0  0  0  0  0
  141.7530   71.9600  221.0010 O   0  0  0  0  0  0  0  0  0  0  0  0
  141.2050   74.2110  221.3670 C   0  0  0  0  0  0  0  0  0  0  0  0
  142.0230   74.6500  220.3550 C   0  0  0  0  0  0  0  0  0  0  0  0
  142.1500   76.0100  220.1120 C   0  0  0  0  0  0  0  0  0  0  0  0
  141.4520   76.9020  220.8870 C   0  0  0  0  0  0  0  0  0  0  0  0
  141.5540   78.2670  220.6720 C   0  0  0  0  0  0  0  0  0  0  0  0
  140.8650   79.1600  221.4370 C   0  0  0  0  0  0  0  0  0  0  0  0
  140.9570   80.4880  221.2370 F   0  0  0  0  0  0  0  0  0  0  0  0
  140.0330   78.7310  222.4640 C   0  0  0  0  0  0  0  0  0  0  0  0
  139.9480   77.3670  222.6600 C   0  0  0  0  0  0  0  0  0  0  0  0
  140.6380   76.4480  221.8950 C   0  0  0  0  0  0  0  0  0  0  0  0
  140.5480   75.1370  222.0920 N   0  0  0  0  0  0  0  0  0  0  0  0
  141.5988   69.2018  226.1050 H   0  0  0  0  0  0  0  0  0  0  0  0
  139.2591   70.0820  227.9398 H   0  0  0  0  0  0  0  0  0  0  0  0
  140.7894   69.4406  228.4810 H   0  0  0  0  0  0  0  0  0  0  0  0
  140.2284   72.1815  228.1528 H   0  0  0  0  0  0  0  0  0  0  0  0
  141.8783   71.5376  228.1441 H   0  0  0  0  0  0  0  0  0  0  0  0
  140.5556   72.8036  225.9399 H   0  0  0  0  0  0  0  0  0  0  0  0
  142.0467   71.9067  225.7954 H   0  0  0  0  0  0  0  0  0  0  0  0
  140.8328   70.3990  222.8959 H   0  0  0  0  0  0  0  0  0  0  0  0
  139.1594   70.4949  222.3219 H   0  0  0  0  0  0  0  0  0  0  0  0
  139.5720   73.1450  223.1380 H   0  0  0  0  0  0  0  0  0  0  0  0
  142.5758   73.9255  219.7389 H   0  0  0  0  0  0  0  0  0  0  0  0
  142.8047   76.3704  219.3049 H   0  0  0  0  0  0  0  0  0  0  0  0
  142.2050   78.6378  219.8666 H   0  0  0  0  0  0  0  0  0  0  0  0
  139.4713   79.4413  223.0884 H   0  0  0  0  0  0  0  0  0  0  0  0
  139.2984   76.9941  223.4655 H   0  0  0  0  0  0  0  0  0  0  0  0
  1  2  3  0
  2  3  1  0
  3  4  1  0
  4  5  1  0
  5  6  1  0
  6  7  1  0
  7  8  1  0
  8  9  2  0
  8 10  1  0
 10 11  1  0
 11 12  1  0
 12 13  2  0
 12 14  1  0
 14 15  2  0
 15 16  1  0
 16 17  2  0
 17 18  1  0
 18 19  2  0
 19 20  1  0
 19 21  1  0
 21 22  2  0
 22 23  1  0
 23 24  2  0
  7  3  1  0
 24 14  1  0
 23 17  1  0
  3 25  1  1
  4 26  1  0
  4 27  1  0
  5 28  1  0
  5 29  1  0
  6 30  1  0
  6 31  1  0
 10 32  1  0
 10 33  1  0
 11 34  1  0
 15 35  1  0
 16 36  1  0
 18 37  1  0
 21 38  1  0
 22 39  1  0
M  END
>  <smiles>  (14) 
N#C[C@@H]1CCCN1C(=O)CNC(=O)c1ccc2cc(F)ccc2n1

>  <score_type>  (14) 
oracle

>  <origin>  (14) 
autodockgpu

>  <m_score__min__energy>  (14) 
-7.2999999999999998

>  <m_primary>  (14) 
energy

>  <rmsd>  (14) 
8.719446068143181

>  <m_score__min__rmsd>  (14) 
8.719446068143181

>  <meeko>  (14) 
{"free_energy": -7.29, "intermolecular_energy": -8.78, "internal_energy": -1.35, "cluster_size": 37, "cluster_id": 1, "rank_in_cluster": 3}

>  <energy>  (14) 
-7.2

>  <cluster_rmsd>  (14) 
1.5

>  <cluster>  (14) 
1

$$$$

     RDKit          3D

 39 41  0  0  0  0  0  0  0  0999 V2000
  141.1480   71.7160  228.4700 N   0  0  0  0  0  0  0  0  0  0  0  0
  140.6090   70.8340  227.9660 C   0  0  0  0  0  0  0  0  0  0  0  0
  139.9510   69.7340  227.3160 C   0  0  2  0  0  0  0  0  0  0  0  0
  140.7230   68.4340  227.4210 C   0  0  0  0  0  0  0  0  0  0  0  0
  140.0630   67.5820  226.3510 C   0  0  0  0  0  0  0  0  0  0  0  0
  139.3040   68.5570  225.4440 C   0  0  0  0  0  0  0  0  0  0  0  0
  139.8150   69.8610  225.8900 N   0  0  0  0  0  0  0  0  0  0  0  0
  140.0640   70.9150  224.9890 C   0  0  0  0  0  0  0  0  0  0  0  0
  140.7390   71.8910  225.4140 O   0  0  0  0  0  0  0  0  0  0  0  0
  139.5930   70.9630  223.5850 C   0  0  0  0  0  0  0  0  0  0  0  0
  140.0450   72.2570  223.0480 N   0  0  0  0  0  0  0  0  0  0  0  0
  140.6200   72.3690  221.7530 C   0  0  0  0  0  0  0  0  0  0  0  0
  140.7880   71.3950  220.9770 O   0  0  0  0  0  0  0  0  0  0  0  0
  141.0460   73.7050  221.2880 C   0  0  0  0  0  0  0  0  0  0  0  0
  141.7900   73.8570  220.1440 C   0  0  0  0  0  0  0  0  0  0  0  0
  142.1750   75.1260  219.7350 C   0  0  0  0  0  0  0  0  0  0  0  0
  141.8050   76.2170  220.4810 C   0  0  0  0  0  0  0  0  0  0  0  0
  142.1720   77.4970  220.1030 C   0  0  0  0  0  0  0  0  0  0  0  0
  141.8100   78.5870  220.8380 C   0  0  0  0  0  0  0  0  0  0  0  0
  142.1610   79.8360  220.4790 F   0  0  0  0  0  0  0  0  0  0  0  0
  141.0580   78.4490  221.9980 C   0  0  0  0  0  0  0  0  0  0  0  0
  140.7050   77.1630  222.3560 C   0  0  0  0  0  0  0  0  0  0  0  0
  141.0620   76.0490  221.6240 C   0  0  0  0  0  0  0  0  0  0  0  0
  140.7170   74.8160  221.9770 N   0  0  0  0  0  0  0  0  0  0  0  0
  138.9826   69.7385  227.8376 H   0  0  0  0  0  0  0  0  0  0  0  0
  141.7913   68.5861  227.2072 H   0  0  0  0  0  0  0  0  0  0  0  0
  140.6949   67.9834  228.4241 H   0  0  0  0  0  0  0  0  0  0  0  0
  140.8238   67.0362  225.7737 H   0  0  0  0  0  0  0  0  0  0  0  0
  139.3886   66.8329  226.7913 H   0  0  0  0  0  0  0  0  0  0  0  0
  139.5374   68.3790  224.3839 H   0  0  0  0  0  0  0  0  0  0  0  0
  138.2102   68.4645  225.5151 H   0  0  0  0  0  0  0  0  0  0  0  0
  140.0305   70.1357  223.0069 H   0  0  0  0  0  0  0  0  0  0  0  0
  138.4994   70.8619  223.5238 H   0  0  0  0  0  0  0  0  0  0  0  0
  139.9520   73.1430  223.6180 H   0  0  0  0  0  0  0  0  0  0  0  0
  142.0800   72.9755  219.5534 H   0  0  0  0  0  0  0  0  0  0  0  0
  142.7719   75.2564  218.8203 H   0  0  0  0  0  0  0  0  0  0  0  0
  142.7687   77.6380  219.1897 H   0  0  0  0  0  0  0  0  0  0  0  0
  140.7591   79.3196  222.6003 H   0  0  0  0  0  0  0  0  0  0  0  0
  140.1098   77.0194  223.2699 H   0  0  0  0  0  0  0  0  0  0  0  0
  1  2  3  0
  2  3  1  0
  3  4  1  0
  4  5  1  0
  5  6  1  0
  6  7  1  0
  7  8  1  0
  8  9  2  0
  8 10  1  0
 10 11  1  0
 11 12  1  0
 12 13  2  0
 12 14  1  0
 14 15  2  0
 15 16  1  0
 16 17  2  0
 17 18  1  0
 18 19  2  0
 19 20  1  0
 19 21  1  0
 21 22  2  0
 22 23  1  0
 23 24  2  0
  7  3  1  0
 24 14  1  0
 23 17  1  0
  3 25  1  1
  4 26  1  0
  4 27  1  0
  5 28  1  0
  5 29  1  0
  6 30  1  0
  6 31  1  0
 10 32  1  0
 10 33  1  0
 11 34  1  0
 15 35  1  0
 16 36  1  0
 18 37  1  0
 21 38  1  0
 22 39  1  0
M  END
>  <smiles>  (15) 
N#C[C@@H]1CCCN1C(=O)CNC(=O)c1ccc2cc(F)ccc2n1

>  <score_type>  (15) 
oracle

>  <origin>  (15) 
autodockgpu

>  <m_score__min__energy>  (15) 
-7.2999999999999998

>  <m_primary>  (15) 
energy

>  <rmsd>  (15) 
8.881060051406239

>  <m_score__min__rmsd>  (15) 
8.881060051406239

>  <meeko>  (15) 
{"free_energy": -7.18, "intermolecular_energy": -8.67, "internal_energy": -1.55, "cluster_size": 37, "cluster_id": 1, "rank_in_cluster": 20}

>  <energy>  (15) 
-7.19

>  <cluster_rmsd>  (15) 
0.48

>  <cluster>  (15) 
1

$$$$

     RDKit          3D

 39 41  0  0  0  0  0  0  0  0999 V2000
  141.1390   71.7780  228.4590 N   0  0  0  0  0  0  0  0  0  0  0  0
  140.6030   70.8920  227.9580 C   0  0  0  0  0  0  0  0  0  0  0  0
  139.9540   69.7820  227.3170 C   0  0  2  0  0  0  0  0  0  0  0  0
  140.7190   68.4810  227.4640 C   0  0  0  0  0  0  0  0  0  0  0  0
  140.0770   67.6100  226.3980 C   0  0  0  0  0  0  0  0  0  0  0  0
  139.3400   68.5700  225.4560 C   0  0  0  0  0  0  0  0  0  0  0  0
  139.8480   69.8810  225.8860 N   0  0  0  0  0  0  0  0  0  0  0  0
  140.1190   70.9150  224.9690 C   0  0  0  0  0  0  0  0  0  0  0  0
  140.8060   71.8880  225.3830 O   0  0  0  0  0  0  0  0  0  0  0  0
  139.6590   70.9470  223.5620 C   0  0  0  0  0  0  0  0  0  0  0  0
  140.0810   72.2520  223.0250 N   0  0  0  0  0  0  0  0  0  0  0  0
  140.6820   72.3720  221.7430 C   0  0  0  0  0  0  0  0  0  0  0  0
  140.9010   71.3990  220.9790 O   0  0  0  0  0  0  0  0  0  0  0  0
  141.0760   73.7180  221.2770 C   0  0  0  0  0  0  0  0  0  0  0  0
  141.7990   73.8880  220.1210 C   0  0  0  0  0  0  0  0  0  0  0  0
  142.1530   75.1660  219.7120 C   0  0  0  0  0  0  0  0  0  0  0  0
  141.7750   76.2470  220.4680 C   0  0  0  0  0  0  0  0  0  0  0  0
  142.1110   77.5360  220.0900 C   0  0  0  0  0  0  0  0  0  0  0  0
  141.7400   78.6150  220.8350 C   0  0  0  0  0  0  0  0  0  0  0  0
  142.0620   79.8720  220.4760 F   0  0  0  0  0  0  0  0  0  0  0  0
  141.0090   78.4590  222.0060 C   0  0  0  0  0  0  0  0  0  0  0  0
  140.6860   77.1650  222.3640 C   0  0  0  0  0  0  0  0  0  0  0  0
  141.0530   76.0610  221.6220 C   0  0  0  0  0  0  0  0  0  0  0  0
  140.7370   74.8200  221.9760 N   0  0  0  0  0  0  0  0  0  0  0  0
  138.9750   69.8003  227.8182 H   0  0  0  0  0  0  0  0  0  0  0  0
  141.7919   68.6248  227.2688 H   0  0  0  0  0  0  0  0  0  0  0  0
  140.6690   68.0508  228.4752 H   0  0  0  0  0  0  0  0  0  0  0  0
  140.8470   67.0499  225.8472 H   0  0  0  0  0  0  0  0  0  0  0  0
  139.3907   66.8724  226.8395 H   0  0  0  0  0  0  0  0  0  0  0  0
  139.5936   68.3697  224.4046 H   0  0  0  0  0  0  0  0  0  0  0  0
  138.2446   68.4833  225.5070 H   0  0  0  0  0  0  0  0  0  0  0  0
  140.1232   70.1303  222.9897 H   0  0  0  0  0  0  0  0  0  0  0  0
  138.5690   70.8166  223.4920 H   0  0  0  0  0  0  0  0  0  0  0  0
  139.9460   73.1380  223.5850 H   0  0  0  0  0  0  0  0  0  0  0  0
  142.0961   73.0145  219.5221 H   0  0  0  0  0  0  0  0  0  0  0  0
  142.7325   75.3114  218.7884 H   0  0  0  0  0  0  0  0  0  0  0  0
  142.6902   77.6925  219.1680 H   0  0  0  0  0  0  0  0  0  0  0  0
  140.7033   79.3215  222.6164 H   0  0  0  0  0  0  0  0  0  0  0  0
  140.1076   77.0065  223.2862 H   0  0  0  0  0  0  0  0  0  0  0  0
  1  2  3  0
  2  3  1  0
  3  4  1  0
  4  5  1  0
  5  6  1  0
  6  7  1  0
  7  8  1  0
  8  9  2  0
  8 10  1  0
 10 11  1  0
 11 12  1  0
 12 13  2  0
 12 14  1  0
 14 15  2  0
 15 16  1  0
 16 17  2  0
 17 18  1  0
 18 19  2  0
 19 20  1  0
 19 21  1  0
 21 22  2  0
 22 23  1  0
 23 24  2  0
  7  3  1  0
 24 14  1  0
 23 17  1  0
  3 25  1  1
  4 26  1  0
  4 27  1  0
  5 28  1  0
  5 29  1  0
  6 30  1  0
  6 31  1  0
 10 32  1  0
 10 33  1  0
 11 34  1  0
 15 35  1  0
 16 36  1  0
 18 37  1  0
 21 38  1  0
 22 39  1  0
M  END
>  <smiles>  (16) 
N#C[C@@H]1CCCN1C(=O)CNC(=O)c1ccc2cc(F)ccc2n1

>  <score_type>  (16) 
oracle

>  <origin>  (16) 
autodockgpu

>  <m_score__min__energy>  (16) 
-7.2999999999999998

>  <m_primary>  (16) 
energy

>  <rmsd>  (16) 
8.889710197175575

>  <m_score__min__rmsd>  (16) 
8.889710197175575

>  <meeko>  (16) 
{"free_energy": -7.19, "intermolecular_energy": -8.69, "internal_energy": -1.53, "cluster_size": 37, "cluster_id": 1, "rank_in_cluster": 17}

>  <energy>  (16) 
-7.19

>  <cluster_rmsd>  (16) 
1.5

>  <cluster>  (16) 
1

$$$$

     RDKit          3D

 39 41  0  0  0  0  0  0  0  0999 V2000
  139.2030   67.4510  225.7170 N   0  0  0  0  0  0  0  0  0  0  0  0
  139.8150   68.3950  225.9530 C   0  0  0  0  0  0  0  0  0  0  0  0
  140.5950   69.5610  226.2640 C   0  0  2  0  0  0  0  0  0  0  0  0
  140.3630   70.0730  227.6730 C   0  0  0  0  0  0  0  0  0  0  0  0
  140.9440   71.4740  227.6040 C   0  0  0  0  0  0  0  0  0  0  0  0
  141.0490   71.8150  226.1130 C   0  0  0  0  0  0  0  0  0  0  0  0
  140.2770   70.7310  225.4890 N   0  0  0  0  0  0  0  0  0  0  0  0
  139.4500   70.9500  224.3700 C   0  0  0  0  0  0  0  0  0  0  0  0
  138.2190   71.1170  224.5850 O   0  0  0  0  0  0  0  0  0  0  0  0
  139.9150   70.9960  222.9650 C   0  0  0  0  0  0  0  0  0  0  0  0
  140.1310   72.4190  222.6540 N   0  0  0  0  0  0  0  0  0  0  0  0
  141.0350   72.8320  221.6370 C   0  0  0  0  0  0  0  0  0  0  0  0
  141.7100   72.0380  220.9370 O   0  0  0  0  0  0  0  0  0  0  0  0
  141.1930   74.2800  221.3870 C   0  0  0  0  0  0  0  0  0  0  0  0
  142.0510   74.7460  220.4210 C   0  0  0  0  0  0  0  0  0  0  0  0
  142.1770   76.1120  220.2120 C   0  0  0  0  0  0  0  0  0  0  0  0
  141.4390   76.9830  220.9730 C   0  0  0  0  0  0  0  0  0  0  0  0
  141.5390   78.3520  220.7910 C   0  0  0  0  0  0  0  0  0  0  0  0
  140.8100   79.2250  221.5430 C   0  0  0  0  0  0  0  0  0  0  0  0
  140.9010   80.5570  221.3740 F   0  0  0  0  0  0  0  0  0  0  0  0
  139.9380   78.7680  222.5240 C   0  0  0  0  0  0  0  0  0  0  0  0
  139.8550   77.4000  222.6880 C   0  0  0  0  0  0  0  0  0  0  0  0
  140.5850   76.5020  221.9360 C   0  0  0  0  0  0  0  0  0  0  0  0
  140.4980   75.1870  222.1020 N   0  0  0  0  0  0  0  0  0  0  0  0
  141.6107   69.1853  226.0714 H   0  0  0  0  0  0  0  0  0  0  0  0
  139.2907   70.0973  227.9171 H   0  0  0  0  0  0  0  0  0  0  0  0
  140.8179   69.4439  228.4523 H   0  0  0  0  0  0  0  0  0  0  0  0
  140.2807   72.1884  228.1137 H   0  0  0  0  0  0  0  0  0  0  0  0
  141.9244   71.5284  228.0998 H   0  0  0  0  0  0  0  0  0  0  0  0
  140.6034   72.7972  225.8966 H   0  0  0  0  0  0  0  0  0  0  0  0
  142.0846   71.8845  225.7488 H   0  0  0  0  0  0  0  0  0  0  0  0
  140.8542   70.4341  222.8549 H   0  0  0  0  0  0  0  0  0  0  0  0
  139.1808   70.5420  222.2831 H   0  0  0  0  0  0  0  0  0  0  0  0
  139.6160   73.1740  223.1840 H   0  0  0  0  0  0  0  0  0  0  0  0
  142.6363   74.0387  219.8151 H   0  0  0  0  0  0  0  0  0  0  0  0
  142.8635   76.4937  219.4419 H   0  0  0  0  0  0  0  0  0  0  0  0
  142.2217   78.7439  220.0227 H   0  0  0  0  0  0  0  0  0  0  0  0
  139.3444   79.4610  223.1383 H   0  0  0  0  0  0  0  0  0  0  0  0
  139.1732   77.0060  223.4561 H   0  0  0  0  0  0  0  0  0  0  0  0
  1  2  3  0
  2  3  1  0
  3  4  1  0
  4  5  1  0
  5  6  1  0
  6  7  1  0
  7  8  1  0
  8  9  2  0
  8 10  1  0
 10 11  1  0
 11 12  1  0
 12 13  2  0
 12 14  1  0
 14 15  2  0
 15 16  1  0
 16 17  2  0
 17 18  1  0
 18 19  2  0
 19 20  1  0
 19 21  1  0
 21 22  2  0
 22 23  1  0
 23 24  2  0
  7  3  1  0
 24 14  1  0
 23 17  1  0
  3 25  1  1
  4 26  1  0
  4 27  1  0
  5 28  1  0
  5 29  1  0
  6 30  1  0
  6 31  1  0
 10 32  1  0
 10 33  1  0
 11 34  1  0
 15 35  1  0
 16 36  1  0
 18 37  1  0
 21 38  1  0
 22 39  1  0
M  END
>  <smiles>  (17) 
N#C[C@@H]1CCCN1C(=O)CNC(=O)c1ccc2cc(F)ccc2n1

>  <score_type>  (17) 
oracle

>  <origin>  (17) 
autodockgpu

>  <m_score__min__energy>  (17) 
-7.2999999999999998

>  <m_primary>  (17) 
energy

>  <rmsd>  (17) 
8.719910695060669

>  <m_score__min__rmsd>  (17) 
8.719910695060669

>  <meeko>  (17) 
{"free_energy": -7.3, "intermolecular_energy": -8.79, "internal_energy": -1.35, "cluster_size": 37, "cluster_id": 1, "rank_in_cluster": 1}

>  <energy>  (17) 
-7.19

>  <cluster_rmsd>  (17) 
1.49

>  <cluster>  (17) 
1

$$$$

     RDKit          3D

 39 41  0  0  0  0  0  0  0  0999 V2000
  139.1790   67.3990  225.3490 N   0  0  0  0  0  0  0  0  0  0  0  0
  139.7180   68.3040  225.8100 C   0  0  0  0  0  0  0  0  0  0  0  0
  140.4130   69.4240  226.3810 C   0  0  2  0  0  0  0  0  0  0  0  0
  139.8160   69.8880  227.6950 C   0  0  0  0  0  0  0  0  0  0  0  0
  140.4330   71.2660  227.8580 C   0  0  0  0  0  0  0  0  0  0  0  0
  140.9550   71.6620  226.4720 C   0  0  0  0  0  0  0  0  0  0  0  0
  140.3550   70.6360  225.6070 N   0  0  0  0  0  0  0  0  0  0  0  0
  139.8750   70.9320  224.3170 C   0  0  0  0  0  0  0  0  0  0  0  0
  140.4940   71.8110  223.6580 O   0  0  0  0  0  0  0  0  0  0  0  0
  138.7020   70.2930  223.6770 C   0  0  0  0  0  0  0  0  0  0  0  0
  137.5170   70.8730  224.3300 N   0  0  0  0  0  0  0  0  0  0  0  0
  136.3520   70.0990  224.5860 C   0  0  0  0  0  0  0  0  0  0  0  0
  136.2390   68.8850  224.2830 O   0  0  0  0  0  0  0  0  0  0  0  0
  135.2050   70.7560  225.2460 C   0  0  0  0  0  0  0  0  0  0  0  0
  134.2470   70.0250  225.9050 C   0  0  0  0  0  0  0  0  0  0  0  0
  133.1830   70.6730  226.5140 C   0  0  0  0  0  0  0  0  0  0  0  0
  133.1000   72.0410  226.4530 C   0  0  0  0  0  0  0  0  0  0  0  0
  132.0510   72.7210  227.0490 C   0  0  0  0  0  0  0  0  0  0  0  0
  131.9610   74.0800  226.9930 C   0  0  0  0  0  0  0  0  0  0  0  0
  130.9460   74.7500  227.5690 F   0  0  0  0  0  0  0  0  0  0  0  0
  132.9230   74.8340  226.3310 C   0  0  0  0  0  0  0  0  0  0  0  0
  133.9580   74.1350  225.7430 C   0  0  0  0  0  0  0  0  0  0  0  0
  134.0650   72.7600  225.7900 C   0  0  0  0  0  0  0  0  0  0  0  0
  135.0660   72.0970  225.2210 N   0  0  0  0  0  0  0  0  0  0  0  0
  141.4314   69.0152  226.4570 H   0  0  0  0  0  0  0  0  0  0  0  0
  138.7191   69.9464  227.6363 H   0  0  0  0  0  0  0  0  0  0  0  0
  140.0201   69.2101  228.5369 H   0  0  0  0  0  0  0  0  0  0  0  0
  139.6753   71.9859  228.2011 H   0  0  0  0  0  0  0  0  0  0  0  0
  141.2397   71.2603  228.6058 H   0  0  0  0  0  0  0  0  0  0  0  0
  140.6142   72.6693  226.1907 H   0  0  0  0  0  0  0  0  0  0  0  0
  142.0524   71.7040  226.4099 H   0  0  0  0  0  0  0  0  0  0  0  0
  138.6891   70.5107  222.5988 H   0  0  0  0  0  0  0  0  0  0  0  0
  138.7284   69.1990  223.7887 H   0  0  0  0  0  0  0  0  0  0  0  0
  137.5020   71.8870  224.6260 H   0  0  0  0  0  0  0  0  0  0  0  0
  134.3235   68.9286  225.9496 H   0  0  0  0  0  0  0  0  0  0  0  0
  132.4110   70.0942  227.0423 H   0  0  0  0  0  0  0  0  0  0  0  0
  131.2733   72.1519  227.5793 H   0  0  0  0  0  0  0  0  0  0  0  0
  132.8627   75.9311  226.2784 H   0  0  0  0  0  0  0  0  0  0  0  0
  134.7359   74.7021  225.2107 H   0  0  0  0  0  0  0  0  0  0  0  0
  1  2  3  0
  2  3  1  0
  3  4  1  0
  4  5  1  0
  5  6  1  0
  6  7  1  0
  7  8  1  0
  8  9  2  0
  8 10  1  0
 10 11  1  0
 11 12  1  0
 12 13  2  0
 12 14  1  0
 14 15  2  0
 15 16  1  0
 16 17  2  0
 17 18  1  0
 18 19  2  0
 19 20  1  0
 19 21  1  0
 21 22  2  0
 22 23  1  0
 23 24  2  0
  7  3  1  0
 24 14  1  0
 23 17  1  0
  3 25  1  1
  4 26  1  0
  4 27  1  0
  5 28  1  0
  5 29  1  0
  6 30  1  0
  6 31  1  0
 10 32  1  0
 10 33  1  0
 11 34  1  0
 15 35  1  0
 16 36  1  0
 18 37  1  0
 21 38  1  0
 22 39  1  0
M  END
>  <smiles>  (18) 
N#C[C@@H]1CCCN1C(=O)CNC(=O)c1ccc2cc(F)ccc2n1

>  <score_type>  (18) 
oracle

>  <origin>  (18) 
autodockgpu

>  <m_score__min__energy>  (18) 
-7.2999999999999998

>  <m_primary>  (18) 
energy

>  <rmsd>  (18) 
8.17383018759933

>  <m_score__min__rmsd>  (18) 
8.17383018759933

>  <meeko>  (18) 
{"free_energy": -6.83, "intermolecular_energy": -8.33, "internal_energy": -1.4, "cluster_size": 3, "cluster_id": 3, "rank_in_cluster": 3}

>  <energy>  (18) 
-7.19

>  <cluster_rmsd>  (18) 
0.4

>  <cluster>  (18) 
1

$$$$

     RDKit          3D

 39 41  0  0  0  0  0  0  0  0999 V2000
  141.2200   71.6450  228.5030 N   0  0  0  0  0  0  0  0  0  0  0  0
  140.6680   70.7820  227.9800 C   0  0  0  0  0  0  0  0  0  0  0  0
  139.9680   69.6970  227.3490 C   0  0  2  0  0  0  0  0  0  0  0  0
  140.7170   68.3810  227.4280 C   0  0  0  0  0  0  0  0  0  0  0  0
  140.0070   67.5460  226.3760 C   0  0  0  0  0  0  0  0  0  0  0  0
  139.2400   68.5390  225.4950 C   0  0  0  0  0  0  0  0  0  0  0  0
  139.7920   69.8310  225.9270 N   0  0  0  0  0  0  0  0  0  0  0  0
  140.0350   70.8820  225.0220 C   0  0  0  0  0  0  0  0  0  0  0  0
  140.6440   71.8940  225.4610 O   0  0  0  0  0  0  0  0  0  0  0  0
  139.6290   70.8880  223.5970 C   0  0  0  0  0  0  0  0  0  0  0  0
  140.0670   72.1850  223.0550 N   0  0  0  0  0  0  0  0  0  0  0  0
  140.6560   72.2950  221.7650 C   0  0  0  0  0  0  0  0  0  0  0  0
  140.8500   71.3180  221.0000 O   0  0  0  0  0  0  0  0  0  0  0  0
  141.0660   73.6340  221.2950 C   0  0  0  0  0  0  0  0  0  0  0  0
  141.8030   73.7900  220.1460 C   0  0  0  0  0  0  0  0  0  0  0  0
  142.1730   75.0610  219.7320 C   0  0  0  0  0  0  0  0  0  0  0  0
  141.7960   76.1500  220.4760 C   0  0  0  0  0  0  0  0  0  0  0  0
  142.1480   77.4340  220.0920 C   0  0  0  0  0  0  0  0  0  0  0  0
  141.7780   78.5220  220.8260 C   0  0  0  0  0  0  0  0  0  0  0  0
  142.1150   79.7730  220.4610 F   0  0  0  0  0  0  0  0  0  0  0  0
  141.0340   78.3800  221.9900 C   0  0  0  0  0  0  0  0  0  0  0  0
  140.6950   77.0920  222.3530 C   0  0  0  0  0  0  0  0  0  0  0  0
  141.0600   75.9790  221.6230 C   0  0  0  0  0  0  0  0  0  0  0  0
  140.7290   74.7430  221.9820 N   0  0  0  0  0  0  0  0  0  0  0  0
  139.0161   69.7190  227.8998 H   0  0  0  0  0  0  0  0  0  0  0  0
  141.7811   68.5120  227.1822 H   0  0  0  0  0  0  0  0  0  0  0  0
  140.7107   67.9281  228.4304 H   0  0  0  0  0  0  0  0  0  0  0  0
  140.7386   66.9870  225.7741 H   0  0  0  0  0  0  0  0  0  0  0  0
  139.3313   66.8093  226.8350 H   0  0  0  0  0  0  0  0  0  0  0  0
  139.4360   68.3588  224.4277 H   0  0  0  0  0  0  0  0  0  0  0  0
  138.1473   68.4691  225.6004 H   0  0  0  0  0  0  0  0  0  0  0  0
  140.1176   70.0636  223.0570 H   0  0  0  0  0  0  0  0  0  0  0  0
  138.5430   70.7518  223.4872 H   0  0  0  0  0  0  0  0  0  0  0  0
  139.9530   73.0740  223.6150 H   0  0  0  0  0  0  0  0  0  0  0  0
  142.0986   72.9097  219.5563 H   0  0  0  0  0  0  0  0  0  0  0  0
  142.7642   75.1947  218.8141 H   0  0  0  0  0  0  0  0  0  0  0  0
  142.7386   77.5787  219.1753 H   0  0  0  0  0  0  0  0  0  0  0  0
  140.7304   79.2492  222.5919 H   0  0  0  0  0  0  0  0  0  0  0  0
  140.1047   76.9455  223.2695 H   0  0  0  0  0  0  0  0  0  0  0  0
  1  2  3  0
  2  3  1  0
  3  4  1  0
  4  5  1  0
  5  6  1  0
  6  7  1  0
  7  8  1  0
  8  9  2  0
  8 10  1  0
 10 11  1  0
 11 12  1  0
 12 13  2  0
 12 14  1  0
 14 15  2  0
 15 16  1  0
 16 17  2  0
 17 18  1  0
 18 19  2  0
 19 20  1  0
 19 21  1  0
 21 22  2  0
 22 23  1  0
 23 24  2  0
  7  3  1  0
 24 14  1  0
 23 17  1  0
  3 25  1  1
  4 26  1  0
  4 27  1  0
  5 28  1  0
  5 29  1  0
  6 30  1  0
  6 31  1  0
 10 32  1  0
 10 33  1  0
 11 34  1  0
 15 35  1  0
 16 36  1  0
 18 37  1  0
 21 38  1  0
 22 39  1  0
M  END
>  <smiles>  (19) 
N#C[C@@H]1CCCN1C(=O)CNC(=O)c1ccc2cc(F)ccc2n1

>  <score_type>  (19) 
oracle

>  <origin>  (19) 
autodockgpu

>  <m_score__min__energy>  (19) 
-7.2999999999999998

>  <m_primary>  (19) 
energy

>  <rmsd>  (19) 
8.882748782683555

>  <m_score__min__rmsd>  (19) 
8.882748782683555

>  <meeko>  (19) 
{"free_energy": -7.14, "intermolecular_energy": -8.63, "internal_energy": -1.57, "cluster_size": 37, "cluster_id": 1, "rank_in_cluster": 28}

>  <energy>  (19) 
-7.18

>  <cluster_rmsd>  (19) 
0.25

>  <cluster>  (19) 
1

$$$$

     RDKit          3D

 39 41  0  0  0  0  0  0  0  0999 V2000
  139.1940   67.4520  225.7140 N   0  0  0  0  0  0  0  0  0  0  0  0
  139.8190   68.3860  225.9560 C   0  0  0  0  0  0  0  0  0  0  0  0
  140.5900   69.5550  226.2810 C   0  0  2  0  0  0  0  0  0  0  0  0
  140.3440   70.0570  227.6900 C   0  0  0  0  0  0  0  0  0  0  0  0
  140.9200   71.4610  227.6350 C   0  0  0  0  0  0  0  0  0  0  0  0
  141.0360   71.8110  226.1470 C   0  0  0  0  0  0  0  0  0  0  0  0
  140.2740   70.7270  225.5100 N   0  0  0  0  0  0  0  0  0  0  0  0
  139.4560   70.9490  224.3850 C   0  0  0  0  0  0  0  0  0  0  0  0
  138.2250   71.1230  224.5920 O   0  0  0  0  0  0  0  0  0  0  0  0
  139.9300   70.9910  222.9830 C   0  0  0  0  0  0  0  0  0  0  0  0
  140.1470   72.4130  222.6690 N   0  0  0  0  0  0  0  0  0  0  0  0
  141.0460   72.8240  221.6460 C   0  0  0  0  0  0  0  0  0  0  0  0
  141.7150   72.0260  220.9420 O   0  0  0  0  0  0  0  0  0  0  0  0
  141.2050   74.2700  221.3930 C   0  0  0  0  0  0  0  0  0  0  0  0
  142.0620   74.7340  220.4250 C   0  0  0  0  0  0  0  0  0  0  0  0
  142.1890   76.0990  220.2130 C   0  0  0  0  0  0  0  0  0  0  0  0
  141.4540   76.9720  220.9740 C   0  0  0  0  0  0  0  0  0  0  0  0
  141.5560   78.3410  220.7900 C   0  0  0  0  0  0  0  0  0  0  0  0
  140.8300   79.2160  221.5420 C   0  0  0  0  0  0  0  0  0  0  0  0
  140.9220   80.5480  221.3700 F   0  0  0  0  0  0  0  0  0  0  0  0
  139.9590   78.7630  222.5250 C   0  0  0  0  0  0  0  0  0  0  0  0
  139.8740   77.3940  222.6920 C   0  0  0  0  0  0  0  0  0  0  0  0
  140.6020   76.4940  221.9390 C   0  0  0  0  0  0  0  0  0  0  0  0
  140.5120   75.1790  222.1080 N   0  0  0  0  0  0  0  0  0  0  0  0
  141.6093   69.1854  226.0954 H   0  0  0  0  0  0  0  0  0  0  0  0
  139.2695   70.0756  227.9250 H   0  0  0  0  0  0  0  0  0  0  0  0
  140.7948   69.4248  228.4692 H   0  0  0  0  0  0  0  0  0  0  0  0
  140.2495   72.1696  228.1433 H   0  0  0  0  0  0  0  0  0  0  0  0
  141.8958   71.5167  228.1397 H   0  0  0  0  0  0  0  0  0  0  0  0
  140.5879   72.7924  225.9325 H   0  0  0  0  0  0  0  0  0  0  0  0
  142.0744   71.8872  225.7920 H   0  0  0  0  0  0  0  0  0  0  0  0
  140.8703   70.4294  222.8807 H   0  0  0  0  0  0  0  0  0  0  0  0
  139.2006   70.5344  222.2978 H   0  0  0  0  0  0  0  0  0  0  0  0
  139.6370   73.1700  223.2010 H   0  0  0  0  0  0  0  0  0  0  0  0
  142.6460   74.0251  219.8196 H   0  0  0  0  0  0  0  0  0  0  0  0
  142.8740   76.4784  219.4404 H   0  0  0  0  0  0  0  0  0  0  0  0
  142.2380   78.7308  220.0200 H   0  0  0  0  0  0  0  0  0  0  0  0
  139.3675   79.4583  223.1387 H   0  0  0  0  0  0  0  0  0  0  0  0
  139.1934   77.0020  223.4621 H   0  0  0  0  0  0  0  0  0  0  0  0
  1  2  3  0
  2  3  1  0
  3  4  1  0
  4  5  1  0
  5  6  1  0
  6  7  1  0
  7  8  1  0
  8  9  2  0
  8 10  1  0
 10 11  1  0
 11 12  1  0
 12 13  2  0
 12 14  1  0
 14 15  2  0
 15 16  1  0
 16 17  2  0
 17 18  1  0
 18 19  2  0
 19 20  1  0
 19 21  1  0
 21 22  2  0
 22 23  1  0
 23 24  2  0
  7  3  1  0
 24 14  1  0
 23 17  1  0
  3 25  1  1
  4 26  1  0
  4 27  1  0
  5 28  1  0
  5 29  1  0
  6 30  1  0
  6 31  1  0
 10 32  1  0
 10 33  1  0
 11 34  1  0
 15 35  1  0
 16 36  1  0
 18 37  1  0
 21 38  1  0
 22 39  1  0
M  END
>  <smiles>  (20) 
N#C[C@@H]1CCCN1C(=O)CNC(=O)c1ccc2cc(F)ccc2n1

>  <score_type>  (20) 
oracle

>  <origin>  (20) 
autodockgpu

>  <m_score__min__energy>  (20) 
-7.2999999999999998

>  <m_primary>  (20) 
energy

>  <rmsd>  (20) 
8.727033093632581

>  <m_score__min__rmsd>  (20) 
8.727033093632581

>  <meeko>  (20) 
{"free_energy": -7.29, "intermolecular_energy": -8.79, "internal_energy": -1.34, "cluster_size": 37, "cluster_id": 1, "rank_in_cluster": 2}

>  <energy>  (20) 
-7.18

>  <cluster_rmsd>  (20) 
1.49

>  <cluster>  (20) 
1

$$$$

     RDKit          3D

 39 41  0  0  0  0  0  0  0  0999 V2000
  139.2230   67.4870  225.4260 N   0  0  0  0  0  0  0  0  0  0  0  0
  139.8170   68.3980  225.8000 C   0  0  0  0  0  0  0  0  0  0  0  0
  140.5740   69.5210  226.2800 C   0  0  2  0  0  0  0  0  0  0  0  0
  140.1970   69.9340  227.6890 C   0  0  0  0  0  0  0  0  0  0  0  0
  140.8020   71.3230  227.7880 C   0  0  0  0  0  0  0  0  0  0  0  0
  141.0760   71.7690  226.3470 C   0  0  0  0  0  0  0  0  0  0  0  0
  140.3610   70.7500  225.5640 N   0  0  0  0  0  0  0  0  0  0  0  0
  139.6650   71.0680  224.3810 C   0  0  0  0  0  0  0  0  0  0  0  0
  138.4080   71.1260  224.4480 O   0  0  0  0  0  0  0  0  0  0  0  0
  140.2970   71.3360  223.0690 C   0  0  0  0  0  0  0  0  0  0  0  0
  140.0940   72.7710  222.8050 N   0  0  0  0  0  0  0  0  0  0  0  0
  140.7370   73.4290  221.7210 C   0  0  0  0  0  0  0  0  0  0  0  0
  141.5150   72.8560  220.9170 O   0  0  0  0  0  0  0  0  0  0  0  0
  140.4780   74.8700  221.5240 C   0  0  0  0  0  0  0  0  0  0  0  0
  139.6740   75.3170  220.5040 C   0  0  0  0  0  0  0  0  0  0  0  0
  139.4520   76.6770  220.3460 C   0  0  0  0  0  0  0  0  0  0  0  0
  140.0390   77.5620  221.2150 C   0  0  0  0  0  0  0  0  0  0  0  0
  139.8390   78.9270  221.0870 C   0  0  0  0  0  0  0  0  0  0  0  0
  140.4180   79.8140  221.9450 C   0  0  0  0  0  0  0  0  0  0  0  0
  140.2300   81.1410  221.8300 F   0  0  0  0  0  0  0  0  0  0  0  0
  141.2330   79.3780  222.9820 C   0  0  0  0  0  0  0  0  0  0  0  0
  141.4190   78.0130  223.0900 C   0  0  0  0  0  0  0  0  0  0  0  0
  140.8400   77.1010  222.2300 C   0  0  0  0  0  0  0  0  0  0  0  0
  141.0260   75.7910  222.3430 N   0  0  0  0  0  0  0  0  0  0  0  0
  141.5993   69.1376  226.1717 H   0  0  0  0  0  0  0  0  0  0  0  0
  139.1049   69.9645  227.8171 H   0  0  0  0  0  0  0  0  0  0  0  0
  140.5550   69.2399  228.4636 H   0  0  0  0  0  0  0  0  0  0  0  0
  140.0967   72.0132  228.2740 H   0  0  0  0  0  0  0  0  0  0  0  0
  141.7225   71.3193  228.3902 H   0  0  0  0  0  0  0  0  0  0  0  0
  140.6715   72.7741  226.1570 H   0  0  0  0  0  0  0  0  0  0  0  0
  142.1463   71.8416  226.1037 H   0  0  0  0  0  0  0  0  0  0  0  0
  141.3713   71.1029  223.1077 H   0  0  0  0  0  0  0  0  0  0  0  0
  139.8564   70.7145  222.2755 H   0  0  0  0  0  0  0  0  0  0  0  0
  139.4600   73.3510  223.4200 H   0  0  0  0  0  0  0  0  0  0  0  0
  139.2074   74.5983  219.8142 H   0  0  0  0  0  0  0  0  0  0  0  0
  138.8106   77.0431  219.5308 H   0  0  0  0  0  0  0  0  0  0  0  0
  139.1990   79.3032  220.2753 H   0  0  0  0  0  0  0  0  0  0  0  0
  141.7060   80.0831  223.6813 H   0  0  0  0  0  0  0  0  0  0  0  0
  142.0594   77.6346  223.9004 H   0  0  0  0  0  0  0  0  0  0  0  0
  1  2  3  0
  2  3  1  0
  3  4  1  0
  4  5  1  0
  5  6  1  0
  6  7  1  0
  7  8  1  0
  8  9  2  0
  8 10  1  0
 10 11  1  0
 11 12  1  0
 12 13  2  0
 12 14  1  0
 14 15  2  0
 15 16  1  0
 16 17  2  0
 17 18  1  0
 18 19  2  0
 19 20  1  0
 19 21  1  0
 21 22  2  0
 22 23  1  0
 23 24  2  0
  7  3  1  0
 24 14  1  0
 23 17  1  0
  3 25  1  1
  4 26  1  0
  4 27  1  0
  5 28  1  0
  5 29  1  0
  6 30  1  0
  6 31  1  0
 10 32  1  0
 10 33  1  0
 11 34  1  0
 15 35  1  0
 16 36  1  0
 18 37  1  0
 21 38  1  0
 22 39  1  0
M  END
>  <smiles>  (21) 
N#C[C@@H]1CCCN1C(=O)CNC(=O)c1ccc2cc(F)ccc2n1

>  <score_type>  (21) 
oracle

>  <origin>  (21) 
autodockgpu

>  <m_score__min__energy>  (21) 
-7.2999999999999998

>  <m_primary>  (21) 
energy

>  <rmsd>  (21) 
8.828827616069455

>  <m_score__min__rmsd>  (21) 
8.828827616069455

>  <meeko>  (21) 
{"free_energy": -7.0, "intermolecular_energy": -8.49, "internal_energy": -1.06, "cluster_size": 37, "cluster_id": 1, "rank_in_cluster": 35}

>  <energy>  (21) 
-7.18

>  <cluster_rmsd>  (21) 
1.5

>  <cluster>  (21) 
1

$$$$

     RDKit          3D

 39 41  0  0  0  0  0  0  0  0999 V2000
  141.3580   71.5140  228.5120 N   0  0  0  0  0  0  0  0  0  0  0  0
  140.8180   70.6400  227.9960 C   0  0  0  0  0  0  0  0  0  0  0  0
  140.1560   69.5320  227.3650 C   0  0  2  0  0  0  0  0  0  0  0  0
  140.9990   68.2720  227.3390 C   0  0  0  0  0  0  0  0  0  0  0  0
  140.2810   67.4270  226.3010 C   0  0  0  0  0  0  0  0  0  0  0  0
  139.3890   68.3940  225.5130 C   0  0  0  0  0  0  0  0  0  0  0  0
  139.8760   69.7060  225.9640 N   0  0  0  0  0  0  0  0  0  0  0  0
  139.9830   70.8050  225.0900 C   0  0  0  0  0  0  0  0  0  0  0  0
  140.4630   71.8720  225.5600 O   0  0  0  0  0  0  0  0  0  0  0  0
  139.5740   70.8030  223.6670 C   0  0  0  0  0  0  0  0  0  0  0  0
  140.0240   72.0900  223.1120 N   0  0  0  0  0  0  0  0  0  0  0  0
  140.6100   72.1830  221.8200 C   0  0  0  0  0  0  0  0  0  0  0  0
  140.7890   71.1970  221.0610 O   0  0  0  0  0  0  0  0  0  0  0  0
  141.0340   73.5130  221.3360 C   0  0  0  0  0  0  0  0  0  0  0  0
  141.7900   73.6480  220.1970 C   0  0  0  0  0  0  0  0  0  0  0  0
  142.1730   74.9110  219.7710 C   0  0  0  0  0  0  0  0  0  0  0  0
  141.7890   76.0140  220.4920 C   0  0  0  0  0  0  0  0  0  0  0  0
  142.1530   77.2890  220.0960 C   0  0  0  0  0  0  0  0  0  0  0  0
  141.7770   78.3900  220.8070 C   0  0  0  0  0  0  0  0  0  0  0  0
  142.1260   79.6340  220.4300 F   0  0  0  0  0  0  0  0  0  0  0  0
  141.0130   78.2690  221.9610 C   0  0  0  0  0  0  0  0  0  0  0  0
  140.6620   76.9870  222.3380 C   0  0  0  0  0  0  0  0  0  0  0  0
  141.0340   75.8630  221.6300 C   0  0  0  0  0  0  0  0  0  0  0  0
  140.6910   74.6340  222.0010 N   0  0  0  0  0  0  0  0  0  0  0  0
  139.2441   69.4642  227.9765 H   0  0  0  0  0  0  0  0  0  0  0  0
  142.0322   68.4897  227.0307 H   0  0  0  0  0  0  0  0  0  0  0  0
  141.0916   67.7824  228.3197 H   0  0  0  0  0  0  0  0  0  0  0  0
  141.0082   66.9453  225.6307 H   0  0  0  0  0  0  0  0  0  0  0  0
  139.6909   66.6264  226.7710 H   0  0  0  0  0  0  0  0  0  0  0  0
  139.5263   68.2691  224.4288 H   0  0  0  0  0  0  0  0  0  0  0  0
  138.3133   68.2404  225.6841 H   0  0  0  0  0  0  0  0  0  0  0  0
  140.0526   69.9687  223.1333 H   0  0  0  0  0  0  0  0  0  0  0  0
  138.4863   70.6777  223.5613 H   0  0  0  0  0  0  0  0  0  0  0  0
  139.9230   72.9850  223.6660 H   0  0  0  0  0  0  0  0  0  0  0  0
  142.0904   72.7577  219.6250 H   0  0  0  0  0  0  0  0  0  0  0  0
  142.7804   75.0280  218.8614 H   0  0  0  0  0  0  0  0  0  0  0  0
  142.7593   77.4172  219.1872 H   0  0  0  0  0  0  0  0  0  0  0  0
  140.7035   79.1486  222.5445 H   0  0  0  0  0  0  0  0  0  0  0  0
  140.0564   76.8562  223.2469 H   0  0  0  0  0  0  0  0  0  0  0  0
  1  2  3  0
  2  3  1  0
  3  4  1  0
  4  5  1  0
  5  6  1  0
  6  7  1  0
  7  8  1  0
  8  9  2  0
  8 10  1  0
 10 11  1  0
 11 12  1  0
 12 13  2  0
 12 14  1  0
 14 15  2  0
 15 16  1  0
 16 17  2  0
 17 18  1  0
 18 19  2  0
 19 20  1  0
 19 21  1  0
 21 22  2  0
 22 23  1  0
 23 24  2  0
  7  3  1  0
 24 14  1  0
 23 17  1  0
  3 25  1  1
  4 26  1  0
  4 27  1  0
  5 28  1  0
  5 29  1  0
  6 30  1  0
  6 31  1  0
 10 32  1  0
 10 33  1  0
 11 34  1  0
 15 35  1  0
 16 36  1  0
 18 37  1  0
 21 38  1  0
 22 39  1  0
M  END
>  <smiles>  (22) 
N#C[C@@H]1CCCN1C(=O)CNC(=O)c1ccc2cc(F)ccc2n1

>  <score_type>  (22) 
oracle

>  <origin>  (22) 
autodockgpu

>  <m_score__min__energy>  (22) 
-7.2999999999999998

>  <m_primary>  (22) 
energy

>  <rmsd>  (22) 
8.86773238705283

>  <m_score__min__rmsd>  (22) 
8.86773238705283

>  <meeko>  (22) 
{"free_energy": -7.05, "intermolecular_energy": -8.54, "internal_energy": -1.61, "cluster_size": 37, "cluster_id": 1, "rank_in_cluster": 32}

>  <energy>  (22) 
-7.18

>  <cluster_rmsd>  (22) 
1.51

>  <cluster>  (22) 
1

$$$$

     RDKit          3D

 39 41  0  0  0  0  0  0  0  0999 V2000
  139.1780   67.4570  225.4550 N   0  0  0  0  0  0  0  0  0  0  0  0
  139.7710   68.3840  225.7880 C   0  0  0  0  0  0  0  0  0  0  0  0
  140.5210   69.5300  226.2240 C   0  0  2  0  0  0  0  0  0  0  0  0
  140.2220   69.9260  227.6570 C   0  0  0  0  0  0  0  0  0  0  0  0
  140.7870   71.3340  227.7240 C   0  0  0  0  0  0  0  0  0  0  0  0
  140.9530   71.7930  226.2710 C   0  0  0  0  0  0  0  0  0  0  0  0
  140.2220   70.7540  225.5300 N   0  0  0  0  0  0  0  0  0  0  0  0
  139.4420   71.0520  224.3960 C   0  0  0  0  0  0  0  0  0  0  0  0
  138.2280   71.3340  224.5880 O   0  0  0  0  0  0  0  0  0  0  0  0
  139.9370   71.0590  223.0000 C   0  0  0  0  0  0  0  0  0  0  0  0
  140.1400   72.4730  222.6470 N   0  0  0  0  0  0  0  0  0  0  0  0
  141.0690   72.8670  221.6450 C   0  0  0  0  0  0  0  0  0  0  0  0
  141.7790   72.0600  220.9940 O   0  0  0  0  0  0  0  0  0  0  0  0
  141.2120   74.3070  221.3490 C   0  0  0  0  0  0  0  0  0  0  0  0
  142.0300   74.7490  220.3370 C   0  0  0  0  0  0  0  0  0  0  0  0
  142.1430   76.1080  220.0860 C   0  0  0  0  0  0  0  0  0  0  0  0
  141.4330   76.9980  220.8520 C   0  0  0  0  0  0  0  0  0  0  0  0
  141.5210   78.3620  220.6280 C   0  0  0  0  0  0  0  0  0  0  0  0
  140.8200   79.2540  221.3850 C   0  0  0  0  0  0  0  0  0  0  0  0
  140.8990   80.5810  221.1760 F   0  0  0  0  0  0  0  0  0  0  0  0
  139.9880   78.8220  222.4110 C   0  0  0  0  0  0  0  0  0  0  0  0
  139.9160   77.4590  222.6160 C   0  0  0  0  0  0  0  0  0  0  0  0
  140.6190   76.5420  221.8600 C   0  0  0  0  0  0  0  0  0  0  0  0
  140.5430   75.2320  222.0660 N   0  0  0  0  0  0  0  0  0  0  0  0
  141.5491   69.1809  226.0475 H   0  0  0  0  0  0  0  0  0  0  0  0
  139.1400   69.9204  227.8551 H   0  0  0  0  0  0  0  0  0  0  0  0
  140.6512   69.2415  228.4035 H   0  0  0  0  0  0  0  0  0  0  0  0
  140.0926   71.9994  228.2579 H   0  0  0  0  0  0  0  0  0  0  0  0
  141.7440   71.3584  228.2658 H   0  0  0  0  0  0  0  0  0  0  0  0
  140.5051   72.7851  226.1128 H   0  0  0  0  0  0  0  0  0  0  0  0
  142.0025   71.9008  225.9598 H   0  0  0  0  0  0  0  0  0  0  0  0
  140.8861   70.5075  222.9285 H   0  0  0  0  0  0  0  0  0  0  0  0
  139.2241   70.5725  222.3180 H   0  0  0  0  0  0  0  0  0  0  0  0
  139.5960   73.2380  223.1330 H   0  0  0  0  0  0  0  0  0  0  0  0
  142.5934   74.0268  219.7279 H   0  0  0  0  0  0  0  0  0  0  0  0
  142.7969   76.4699  219.2789 H   0  0  0  0  0  0  0  0  0  0  0  0
  142.1705   78.7340  219.8219 H   0  0  0  0  0  0  0  0  0  0  0  0
  139.4160   79.5303  223.0283 H   0  0  0  0  0  0  0  0  0  0  0  0
  139.2667   77.0848  223.4212 H   0  0  0  0  0  0  0  0  0  0  0  0
  1  2  3  0
  2  3  1  0
  3  4  1  0
  4  5  1  0
  5  6  1  0
  6  7  1  0
  7  8  1  0
  8  9  2  0
  8 10  1  0
 10 11  1  0
 11 12  1  0
 12 13  2  0
 12 14  1  0
 14 15  2  0
 15 16  1  0
 16 17  2  0
 17 18  1  0
 18 19  2  0
 19 20  1  0
 19 21  1  0
 21 22  2  0
 22 23  1  0
 23 24  2  0
  7  3  1  0
 24 14  1  0
 23 17  1  0
  3 25  1  1
  4 26  1  0
  4 27  1  0
  5 28  1  0
  5 29  1  0
  6 30  1  0
  6 31  1  0
 10 32  1  0
 10 33  1  0
 11 34  1  0
 15 35  1  0
 16 36  1  0
 18 37  1  0
 21 38  1  0
 22 39  1  0
M  END
>  <smiles>  (23) 
N#C[C@@H]1CCCN1C(=O)CNC(=O)c1ccc2cc(F)ccc2n1

>  <score_type>  (23) 
oracle

>  <origin>  (23) 
autodockgpu

>  <m_score__min__energy>  (23) 
-7.2999999999999998

>  <m_primary>  (23) 
energy

>  <rmsd>  (23) 
8.783225322885707

>  <m_score__min__rmsd>  (23) 
8.783225322885707

>  <meeko>  (23) 
{"free_energy": -7.22, "intermolecular_energy": -8.72, "internal_energy": -1.36, "cluster_size": 37, "cluster_id": 1, "rank_in_cluster": 12}

>  <energy>  (23) 
-7.17

>  <cluster_rmsd>  (23) 
0.23

>  <cluster>  (23) 
1

$$$$

     RDKit          3D

 39 41  0  0  0  0  0  0  0  0999 V2000
  139.2020   67.3930  225.3370 N   0  0  0  0  0  0  0  0  0  0  0  0
  139.7730   68.2900  225.7720 C   0  0  0  0  0  0  0  0  0  0  0  0
  140.4720   69.4280  226.3040 C   0  0  2  0  0  0  0  0  0  0  0  0
  139.9530   69.8640  227.6600 C   0  0  0  0  0  0  0  0  0  0  0  0
  140.5380   71.2600  227.7930 C   0  0  0  0  0  0  0  0  0  0  0  0
  140.9510   71.6810  226.3780 C   0  0  0  0  0  0  0  0  0  0  0  0
  140.3230   70.6430  225.5470 N   0  0  0  0  0  0  0  0  0  0  0  0
  139.7470   70.9330  224.2950 C   0  0  0  0  0  0  0  0  0  0  0  0
  140.2800   71.8490  223.6120 O   0  0  0  0  0  0  0  0  0  0  0  0
  138.5660   70.2470  223.7230 C   0  0  0  0  0  0  0  0  0  0  0  0
  137.3890   70.8690  224.3520 N   0  0  0  0  0  0  0  0  0  0  0  0
  136.2170   70.1210  224.6470 C   0  0  0  0  0  0  0  0  0  0  0  0
  136.0890   68.8960  224.3990 O   0  0  0  0  0  0  0  0  0  0  0  0
  135.0800   70.8200  225.2810 C   0  0  0  0  0  0  0  0  0  0  0  0
  134.0520   70.1230  225.8660 C   0  0  0  0  0  0  0  0  0  0  0  0
  132.9990   70.8100  226.4520 C   0  0  0  0  0  0  0  0  0  0  0  0
  132.9980   72.1820  226.4420 C   0  0  0  0  0  0  0  0  0  0  0  0
  131.9630   72.9000  227.0170 C   0  0  0  0  0  0  0  0  0  0  0  0
  131.9540   74.2630  227.0100 C   0  0  0  0  0  0  0  0  0  0  0  0
  130.9530   74.9700  227.5670 F   0  0  0  0  0  0  0  0  0  0  0  0
  132.9870   74.9830  226.4220 C   0  0  0  0  0  0  0  0  0  0  0  0
  134.0070   74.2460  225.8540 C   0  0  0  0  0  0  0  0  0  0  0  0
  134.0330   72.8660  225.8520 C   0  0  0  0  0  0  0  0  0  0  0  0
  135.0200   72.1670  225.3020 N   0  0  0  0  0  0  0  0  0  0  0  0
  141.5053   69.0509  226.3057 H   0  0  0  0  0  0  0  0  0  0  0  0
  138.8534   69.8889  227.6772 H   0  0  0  0  0  0  0  0  0  0  0  0
  140.2350   69.1868  228.4797 H   0  0  0  0  0  0  0  0  0  0  0  0
  139.7842   71.9538  228.1936 H   0  0  0  0  0  0  0  0  0  0  0  0
  141.3939   71.2743  228.4838 H   0  0  0  0  0  0  0  0  0  0  0  0
  140.5620   72.6795  226.1299 H   0  0  0  0  0  0  0  0  0  0  0  0
  142.0398   71.7564  226.2408 H   0  0  0  0  0  0  0  0  0  0  0  0
  138.5345   70.3864  222.6323 H   0  0  0  0  0  0  0  0  0  0  0  0
  138.5986   69.1641  223.9134 H   0  0  0  0  0  0  0  0  0  0  0  0
  137.3870   71.8960  224.6030 H   0  0  0  0  0  0  0  0  0  0  0  0
  134.0633   69.0231  225.8700 H   0  0  0  0  0  0  0  0  0  0  0  0
  132.1708   70.2588  226.9213 H   0  0  0  0  0  0  0  0  0  0  0  0
  131.1301   72.3588  227.4896 H   0  0  0  0  0  0  0  0  0  0  0  0
  132.9918   76.0829  226.4097 H   0  0  0  0  0  0  0  0  0  0  0  0
  134.8401   74.7853  225.3796 H   0  0  0  0  0  0  0  0  0  0  0  0
  1  2  3  0
  2  3  1  0
  3  4  1  0
  4  5  1  0
  5  6  1  0
  6  7  1  0
  7  8  1  0
  8  9  2  0
  8 10  1  0
 10 11  1  0
 11 12  1  0
 12 13  2  0
 12 14  1  0
 14 15  2  0
 15 16  1  0
 16 17  2  0
 17 18  1  0
 18 19  2  0
 19 20  1  0
 19 21  1  0
 21 22  2  0
 22 23  1  0
 23 24  2  0
  7  3  1  0
 24 14  1  0
 23 17  1  0
  3 25  1  1
  4 26  1  0
  4 27  1  0
  5 28  1  0
  5 29  1  0
  6 30  1  0
  6 31  1  0
 10 32  1  0
 10 33  1  0
 11 34  1  0
 15 35  1  0
 16 36  1  0
 18 37  1  0
 21 38  1  0
 22 39  1  0
M  END
>  <smiles>  (24) 
N#C[C@@H]1CCCN1C(=O)CNC(=O)c1ccc2cc(F)ccc2n1

>  <score_type>  (24) 
oracle

>  <origin>  (24) 
autodockgpu

>  <m_score__min__energy>  (24) 
-7.2999999999999998

>  <m_primary>  (24) 
energy

>  <rmsd>  (24) 
8.20071179843908

>  <m_score__min__rmsd>  (24) 
8.20071179843908

>  <meeko>  (24) 
{"free_energy": -6.86, "intermolecular_energy": -8.36, "internal_energy": -1.41, "cluster_size": 3, "cluster_id": 3, "rank_in_cluster": 2}

>  <energy>  (24) 
-7.17

>  <cluster_rmsd>  (24) 
1.5

>  <cluster>  (24) 
1

$$$$

     RDKit          3D

 39 41  0  0  0  0  0  0  0  0999 V2000
  141.0880   71.8250  228.4650 N   0  0  0  0  0  0  0  0  0  0  0  0
  140.5870   70.9170  227.9680 C   0  0  0  0  0  0  0  0  0  0  0  0
  139.9550   69.7970  227.3280 C   0  0  2  0  0  0  0  0  0  0  0  0
  140.7320   68.5050  227.4870 C   0  0  0  0  0  0  0  0  0  0  0  0
  140.1080   67.6220  226.4200 C   0  0  0  0  0  0  0  0  0  0  0  0
  139.3700   68.5700  225.4670 C   0  0  0  0  0  0  0  0  0  0  0  0
  139.8600   69.8880  225.8950 N   0  0  0  0  0  0  0  0  0  0  0  0
  140.1290   70.9200  224.9760 C   0  0  0  0  0  0  0  0  0  0  0  0
  140.8410   71.8800  225.3760 O   0  0  0  0  0  0  0  0  0  0  0  0
  139.6370   70.9650  223.5790 C   0  0  0  0  0  0  0  0  0  0  0  0
  140.0700   72.2630  223.0370 N   0  0  0  0  0  0  0  0  0  0  0  0
  140.6560   72.3760  221.7460 C   0  0  0  0  0  0  0  0  0  0  0  0
  140.8510   71.3990  220.9800 O   0  0  0  0  0  0  0  0  0  0  0  0
  141.0620   73.7160  221.2750 C   0  0  0  0  0  0  0  0  0  0  0  0
  141.7880   73.8750  220.1200 C   0  0  0  0  0  0  0  0  0  0  0  0
  142.1540   75.1480  219.7060 C   0  0  0  0  0  0  0  0  0  0  0  0
  141.7840   76.2350  220.4570 C   0  0  0  0  0  0  0  0  0  0  0  0
  142.1320   77.5190  220.0730 C   0  0  0  0  0  0  0  0  0  0  0  0
  141.7690   78.6060  220.8130 C   0  0  0  0  0  0  0  0  0  0  0  0
  142.1020   79.8580  220.4490 F   0  0  0  0  0  0  0  0  0  0  0  0
  141.0350   78.4600  221.9830 C   0  0  0  0  0  0  0  0  0  0  0  0
  140.7000   77.1710  222.3470 C   0  0  0  0  0  0  0  0  0  0  0  0
  141.0590   76.0600  221.6100 C   0  0  0  0  0  0  0  0  0  0  0  0
  140.7310   74.8240  221.9680 N   0  0  0  0  0  0  0  0  0  0  0  0
  138.9721   69.8073  227.8218 H   0  0  0  0  0  0  0  0  0  0  0  0
  141.8049   68.6592  227.2998 H   0  0  0  0  0  0  0  0  0  0  0  0
  140.6780   68.0790  228.4997 H   0  0  0  0  0  0  0  0  0  0  0  0
  140.8882   67.0668  225.8788 H   0  0  0  0  0  0  0  0  0  0  0  0
  139.4254   66.8797  226.8593 H   0  0  0  0  0  0  0  0  0  0  0  0
  139.6354   68.3674  224.4189 H   0  0  0  0  0  0  0  0  0  0  0  0
  138.2751   68.4722  225.5086 H   0  0  0  0  0  0  0  0  0  0  0  0
  140.0730   70.1420  222.9937 H   0  0  0  0  0  0  0  0  0  0  0  0
  138.5435   70.8545  223.5336 H   0  0  0  0  0  0  0  0  0  0  0  0
  139.9550   73.1510  223.5980 H   0  0  0  0  0  0  0  0  0  0  0  0
  142.0783   72.9964  219.5252 H   0  0  0  0  0  0  0  0  0  0  0  0
  142.7363   75.2845  218.7828 H   0  0  0  0  0  0  0  0  0  0  0  0
  142.7139   77.6657  219.1511 H   0  0  0  0  0  0  0  0  0  0  0  0
  140.7356   79.3277  222.5892 H   0  0  0  0  0  0  0  0  0  0  0  0
  140.1188   77.0219  223.2690 H   0  0  0  0  0  0  0  0  0  0  0  0
  1  2  3  0
  2  3  1  0
  3  4  1  0
  4  5  1  0
  5  6  1  0
  6  7  1  0
  7  8  1  0
  8  9  2  0
  8 10  1  0
 10 11  1  0
 11 12  1  0
 12 13  2  0
 12 14  1  0
 14 15  2  0
 15 16  1  0
 16 17  2  0
 17 18  1  0
 18 19  2  0
 19 20  1  0
 19 21  1  0
 21 22  2  0
 22 23  1  0
 23 24  2  0
  7  3  1  0
 24 14  1  0
 23 17  1  0
  3 25  1  1
  4 26  1  0
  4 27  1  0
  5 28  1  0
  5 29  1  0
  6 30  1  0
  6 31  1  0
 10 32  1  0
 10 33  1  0
 11 34  1  0
 15 35  1  0
 16 36  1  0
 18 37  1  0
 21 38  1  0
 22 39  1  0
M  END
>  <smiles>  (25) 
N#C[C@@H]1CCCN1C(=O)CNC(=O)c1ccc2cc(F)ccc2n1

>  <score_type>  (25) 
oracle

>  <origin>  (25) 
autodockgpu

>  <m_score__min__energy>  (25) 
-7.2999999999999998

>  <m_primary>  (25) 
energy

>  <rmsd>  (25) 
8.890794721382505

>  <m_score__min__rmsd>  (25) 
8.890794721382505

>  <meeko>  (25) 
{"free_energy": -7.2, "intermolecular_energy": -8.7, "internal_energy": -1.52, "cluster_size": 37, "cluster_id": 1, "rank_in_cluster": 14}

>  <energy>  (25) 
-7.16

>  <cluster_rmsd>  (25) 
1.49

>  <cluster>  (25) 
1

$$$$

     RDKit          3D

 39 41  0  0  0  0  0  0  0  0999 V2000
  140.0550   79.0870  223.8220 N   0  0  0  0  0  0  0  0  0  0  0  0
  140.6920   78.7550  222.9250 C   0  0  0  0  0  0  0  0  0  0  0  0
  141.4700   78.3230  221.7960 C   0  0  2  0  0  0  0  0  0  0  0  0
  141.2700   79.1920  220.5690 C   0  0  0  0  0  0  0  0  0  0  0  0
  141.8380   78.3200  219.4630 C   0  0  0  0  0  0  0  0  0  0  0  0
  141.9030   76.9000  220.0370 C   0  0  0  0  0  0  0  0  0  0  0  0
  141.1230   77.0270  221.2770 N   0  0  0  0  0  0  0  0  0  0  0  0
  140.2670   76.0050  221.7300 C   0  0  0  0  0  0  0  0  0  0  0  0
  139.5270   76.2670  222.7170 O   0  0  0  0  0  0  0  0  0  0  0  0
  140.1710   74.6510  221.1390 C   0  0  0  0  0  0  0  0  0  0  0  0
  139.9830   73.7260  222.2690 N   0  0  0  0  0  0  0  0  0  0  0  0
  140.4070   72.3700  222.2030 C   0  0  0  0  0  0  0  0  0  0  0  0
  140.9640   71.8600  221.1990 O   0  0  0  0  0  0  0  0  0  0  0  0
  140.1820   71.5080  223.3810 C   0  0  0  0  0  0  0  0  0  0  0  0
  139.5380   70.3000  223.2670 C   0  0  0  0  0  0  0  0  0  0  0  0
  139.3420   69.5140  224.3930 C   0  0  0  0  0  0  0  0  0  0  0  0
  139.7970   69.9530  225.6110 C   0  0  0  0  0  0  0  0  0  0  0  0
  139.6180   69.1950  226.7560 C   0  0  0  0  0  0  0  0  0  0  0  0
  140.0660   69.6240  227.9700 C   0  0  0  0  0  0  0  0  0  0  0  0
  139.8970   68.8950  229.0890 F   0  0  0  0  0  0  0  0  0  0  0  0
  140.7190   70.8430  228.1020 C   0  0  0  0  0  0  0  0  0  0  0  0
  140.8850   71.5830  226.9470 C   0  0  0  0  0  0  0  0  0  0  0  0
  140.4380   71.1640  225.7100 C   0  0  0  0  0  0  0  0  0  0  0  0
  140.6030   71.8830  224.6060 N   0  0  0  0  0  0  0  0  0  0  0  0
  142.4836   78.3535  222.2221 H   0  0  0  0  0  0  0  0  0  0  0  0
  140.2041   79.4057  220.4009 H   0  0  0  0  0  0  0  0  0  0  0  0
  141.7497   80.1791  220.6437 H   0  0  0  0  0  0  0  0  0  0  0  0
  141.1819   78.3460  218.5805 H   0  0  0  0  0  0  0  0  0  0  0  0
  142.8298   78.6710  219.1419 H   0  0  0  0  0  0  0  0  0  0  0  0
  141.4452   76.1718  219.3513 H   0  0  0  0  0  0  0  0  0  0  0  0
  142.9287   76.5363  220.1972 H   0  0  0  0  0  0  0  0  0  0  0  0
  139.3138   74.5940  220.4520 H   0  0  0  0  0  0  0  0  0  0  0  0
  141.0716   74.4002  220.5593 H   0  0  0  0  0  0  0  0  0  0  0  0
  139.5230   74.0490  223.1640 H   0  0  0  0  0  0  0  0  0  0  0  0
  139.1787   69.9570  222.2855 H   0  0  0  0  0  0  0  0  0  0  0  0
  138.8258   68.5462  224.3103 H   0  0  0  0  0  0  0  0  0  0  0  0
  139.1031   68.2256  226.6844 H   0  0  0  0  0  0  0  0  0  0  0  0
  141.0850   71.2007  229.0757 H   0  0  0  0  0  0  0  0  0  0  0  0
  141.3984   72.5533  227.0166 H   0  0  0  0  0  0  0  0  0  0  0  0
  1  2  3  0
  2  3  1  0
  3  4  1  0
  4  5  1  0
  5  6  1  0
  6  7  1  0
  7  8  1  0
  8  9  2  0
  8 10  1  0
 10 11  1  0
 11 12  1  0
 12 13  2  0
 12 14  1  0
 14 15  2  0
 15 16  1  0
 16 17  2  0
 17 18  1  0
 18 19  2  0
 19 20  1  0
 19 21  1  0
 21 22  2  0
 22 23  1  0
 23 24  2  0
  7  3  1  0
 24 14  1  0
 23 17  1  0
  3 25  1  1
  4 26  1  0
  4 27  1  0
  5 28  1  0
  5 29  1  0
  6 30  1  0
  6 31  1  0
 10 32  1  0
 10 33  1  0
 11 34  1  0
 15 35  1  0
 16 36  1  0
 18 37  1  0
 21 38  1  0
 22 39  1  0
M  END
>  <smiles>  (26) 
N#C[C@@H]1CCCN1C(=O)CNC(=O)c1ccc2cc(F)ccc2n1

>  <score_type>  (26) 
oracle

>  <origin>  (26) 
autodockgpu

>  <m_score__min__energy>  (26) 
-7.2999999999999998

>  <m_primary>  (26) 
energy

>  <rmsd>  (26) 
2.2166361249978213

>  <m_score__min__rmsd>  (26) 
2.2166361249978213

>  <meeko>  (26) 
{"free_energy": -6.95, "intermolecular_energy": -8.44, "internal_energy": -1.37, "cluster_size": 10, "cluster_id": 2, "rank_in_cluster": 4}

>  <energy>  (26) 
-7.16

>  <cluster_rmsd>  (26) 
0.46

>  <cluster>  (26) 
1

$$$$

     RDKit          3D

 39 41  0  0  0  0  0  0  0  0999 V2000
  141.2660   71.5390  228.4680 N   0  0  0  0  0  0  0  0  0  0  0  0
  140.6900   70.6910  227.9480 C   0  0  0  0  0  0  0  0  0  0  0  0
  139.9790   69.6140  227.3150 C   0  0  2  0  0  0  0  0  0  0  0  0
  140.7300   68.2980  227.3590 C   0  0  0  0  0  0  0  0  0  0  0  0
  139.9990   67.4780  226.3100 C   0  0  0  0  0  0  0  0  0  0  0  0
  139.2130   68.4830  225.4600 C   0  0  0  0  0  0  0  0  0  0  0  0
  139.7720   69.7690  225.9000 N   0  0  0  0  0  0  0  0  0  0  0  0
  139.9950   70.8330  225.0050 C   0  0  0  0  0  0  0  0  0  0  0  0
  140.5230   71.8790  225.4700 O   0  0  0  0  0  0  0  0  0  0  0  0
  139.6540   70.8180  223.5640 C   0  0  0  0  0  0  0  0  0  0  0  0
  140.0820   72.1220  223.0300 N   0  0  0  0  0  0  0  0  0  0  0  0
  140.6770   72.2440  221.7450 C   0  0  0  0  0  0  0  0  0  0  0  0
  140.8850   71.2730  220.9750 O   0  0  0  0  0  0  0  0  0  0  0  0
  141.0770   73.5890  221.2830 C   0  0  0  0  0  0  0  0  0  0  0  0
  141.8140   73.7590  220.1360 C   0  0  0  0  0  0  0  0  0  0  0  0
  142.1740   75.0360  219.7310 C   0  0  0  0  0  0  0  0  0  0  0  0
  141.7870   76.1170  220.4810 C   0  0  0  0  0  0  0  0  0  0  0  0
  142.1280   77.4060  220.1060 C   0  0  0  0  0  0  0  0  0  0  0  0
  141.7480   78.4860  220.8460 C   0  0  0  0  0  0  0  0  0  0  0  0
  142.0750   79.7420  220.4900 F   0  0  0  0  0  0  0  0  0  0  0  0
  141.0030   78.3310  222.0080 C   0  0  0  0  0  0  0  0  0  0  0  0
  140.6750   77.0370  222.3620 C   0  0  0  0  0  0  0  0  0  0  0  0
  141.0500   75.9330  221.6260 C   0  0  0  0  0  0  0  0  0  0  0  0
  140.7290   74.6920  221.9760 N   0  0  0  0  0  0  0  0  0  0  0  0
  139.0391   69.6264  227.8863 H   0  0  0  0  0  0  0  0  0  0  0  0
  141.7887   68.4336  227.0931 H   0  0  0  0  0  0  0  0  0  0  0  0
  140.7447   67.8304  228.3545 H   0  0  0  0  0  0  0  0  0  0  0  0
  140.7183   66.9287  225.6847 H   0  0  0  0  0  0  0  0  0  0  0  0
  139.3336   66.7339  226.7721 H   0  0  0  0  0  0  0  0  0  0  0  0
  139.3874   68.3192  224.3863 H   0  0  0  0  0  0  0  0  0  0  0  0
  138.1228   68.4099  225.5867 H   0  0  0  0  0  0  0  0  0  0  0  0
  140.1877   70.0026  223.0538 H   0  0  0  0  0  0  0  0  0  0  0  0
  138.5778   70.6529  223.4072 H   0  0  0  0  0  0  0  0  0  0  0  0
  139.9560   73.0060  223.5950 H   0  0  0  0  0  0  0  0  0  0  0  0
  142.1176   72.8853  219.5407 H   0  0  0  0  0  0  0  0  0  0  0  0
  142.7656   75.1805  218.8149 H   0  0  0  0  0  0  0  0  0  0  0  0
  142.7184   77.5617  219.1910 H   0  0  0  0  0  0  0  0  0  0  0  0
  140.6906   79.1938  222.6146 H   0  0  0  0  0  0  0  0  0  0  0  0
  140.0851   76.8792  223.2769 H   0  0  0  0  0  0  0  0  0  0  0  0
  1  2  3  0
  2  3  1  0
  3  4  1  0
  4  5  1  0
  5  6  1  0
  6  7  1  0
  7  8  1  0
  8  9  2  0
  8 10  1  0
 10 11  1  0
 11 12  1  0
 12 13  2  0
 12 14  1  0
 14 15  2  0
 15 16  1  0
 16 17  2  0
 17 18  1  0
 18 19  2  0
 19 20  1  0
 19 21  1  0
 21 22  2  0
 22 23  1  0
 23 24  2  0
  7  3  1  0
 24 14  1  0
 23 17  1  0
  3 25  1  1
  4 26  1  0
  4 27  1  0
  5 28  1  0
  5 29  1  0
  6 30  1  0
  6 31  1  0
 10 32  1  0
 10 33  1  0
 11 34  1  0
 15 35  1  0
 16 36  1  0
 18 37  1  0
 21 38  1  0
 22 39  1  0
M  END
>  <smiles>  (27) 
N#C[C@@H]1CCCN1C(=O)CNC(=O)c1ccc2cc(F)ccc2n1

>  <score_type>  (27) 
oracle

>  <origin>  (27) 
autodockgpu

>  <m_score__min__energy>  (27) 
-7.2999999999999998

>  <m_primary>  (27) 
energy

>  <rmsd>  (27) 
8.875771785774809

>  <m_score__min__rmsd>  (27) 
8.875771785774809

>  <meeko>  (27) 
{"free_energy": -7.08, "intermolecular_energy": -8.58, "internal_energy": -1.62, "cluster_size": 37, "cluster_id": 1, "rank_in_cluster": 31}

>  <energy>  (27) 
-7.16

>  <cluster_rmsd>  (27) 
1.5

>  <cluster>  (27) 
1

$$$$

     RDKit          3D

 39 41  0  0  0  0  0  0  0  0999 V2000
  141.8310   78.2700  223.8530 N   0  0  0  0  0  0  0  0  0  0  0  0
  141.4550   78.3190  222.7670 C   0  0  0  0  0  0  0  0  0  0  0  0
  140.9900   78.3550  221.4080 C   0  0  2  0  0  0  0  0  0  0  0  0
  140.0520   79.5140  221.1310 C   0  0  0  0  0  0  0  0  0  0  0  0
  139.4080   79.0990  219.8200 C   0  0  0  0  0  0  0  0  0  0  0  0
  139.6710   77.5950  219.6780 C   0  0  0  0  0  0  0  0  0  0  0  0
  140.1740   77.2380  221.0130 N   0  0  0  0  0  0  0  0  0  0  0  0
  139.8420   76.0200  221.6360 C   0  0  0  0  0  0  0  0  0  0  0  0
  139.2040   76.0810  222.7220 O   0  0  0  0  0  0  0  0  0  0  0  0
  140.1860   74.6770  221.1160 C   0  0  0  0  0  0  0  0  0  0  0  0
  139.9630   73.7390  222.2300 N   0  0  0  0  0  0  0  0  0  0  0  0
  140.5520   72.4450  222.2460 C   0  0  0  0  0  0  0  0  0  0  0  0
  141.2920   72.0030  221.3320 O   0  0  0  0  0  0  0  0  0  0  0  0
  140.2800   71.5660  223.4020 C   0  0  0  0  0  0  0  0  0  0  0  0
  139.5640   70.4020  223.2580 C   0  0  0  0  0  0  0  0  0  0  0  0
  139.3250   69.6000  224.3640 C   0  0  0  0  0  0  0  0  0  0  0  0
  139.8090   69.9780  225.5910 C   0  0  0  0  0  0  0  0  0  0  0  0
  139.5890   69.2000  226.7160 C   0  0  0  0  0  0  0  0  0  0  0  0
  140.0660   69.5690  227.9390 C   0  0  0  0  0  0  0  0  0  0  0  0
  139.8580   68.8200  229.0380 F   0  0  0  0  0  0  0  0  0  0  0  0
  140.7910   70.7430  228.1000 C   0  0  0  0  0  0  0  0  0  0  0  0
  140.9970   71.5020  226.9650 C   0  0  0  0  0  0  0  0  0  0  0  0
  140.5220   71.1440  225.7190 C   0  0  0  0  0  0  0  0  0  0  0  0
  140.7260   71.8830  224.6340 N   0  0  0  0  0  0  0  0  0  0  0  0
  141.9463   78.3963  220.8660 H   0  0  0  0  0  0  0  0  0  0  0  0
  139.3015   79.6191  221.9283 H   0  0  0  0  0  0  0  0  0  0  0  0
  140.5574   80.4899  221.0853 H   0  0  0  0  0  0  0  0  0  0  0  0
  138.3263   79.2972  219.8458 H   0  0  0  0  0  0  0  0  0  0  0  0
  139.8224   79.6626  218.9711 H   0  0  0  0  0  0  0  0  0  0  0  0
  138.7456   77.0492  219.4418 H   0  0  0  0  0  0  0  0  0  0  0  0
  140.3664   77.3442  218.8634 H   0  0  0  0  0  0  0  0  0  0  0  0
  139.5386   74.4197  220.2647 H   0  0  0  0  0  0  0  0  0  0  0  0
  141.2259   74.6380  220.7594 H   0  0  0  0  0  0  0  0  0  0  0  0
  139.3550   74.0080  223.0510 H   0  0  0  0  0  0  0  0  0  0  0  0
  139.1819   70.1075  222.2694 H   0  0  0  0  0  0  0  0  0  0  0  0
  138.7514   68.6674  224.2583 H   0  0  0  0  0  0  0  0  0  0  0  0
  139.0175   68.2649  226.6207 H   0  0  0  0  0  0  0  0  0  0  0  0
  141.1809   71.0520  229.0811 H   0  0  0  0  0  0  0  0  0  0  0  0
  141.5676   72.4378  227.0581 H   0  0  0  0  0  0  0  0  0  0  0  0
  1  2  3  0
  2  3  1  0
  3  4  1  0
  4  5  1  0
  5  6  1  0
  6  7  1  0
  7  8  1  0
  8  9  2  0
  8 10  1  0
 10 11  1  0
 11 12  1  0
 12 13  2  0
 12 14  1  0
 14 15  2  0
 15 16  1  0
 16 17  2  0
 17 18  1  0
 18 19  2  0
 19 20  1  0
 19 21  1  0
 21 22  2  0
 22 23  1  0
 23 24  2  0
  7  3  1  0
 24 14  1  0
 23 17  1  0
  3 25  1  6
  4 26  1  0
  4 27  1  0
  5 28  1  0
  5 29  1  0
  6 30  1  0
  6 31  1  0
 10 32  1  0
 10 33  1  0
 11 34  1  0
 15 35  1  0
 16 36  1  0
 18 37  1  0
 21 38  1  0
 22 39  1  0
M  END
>  <smiles>  (28) 
N#C[C@@H]1CCCN1C(=O)CNC(=O)c1ccc2cc(F)ccc2n1

>  <score_type>  (28) 
oracle

>  <origin>  (28) 
autodockgpu

>  <m_score__min__energy>  (28) 
-7.2999999999999998

>  <m_primary>  (28) 
energy

>  <rmsd>  (28) 
2.3014445798707337

>  <m_score__min__rmsd>  (28) 
2.3014445798707337

>  <meeko>  (28) 
{"free_energy": -6.49, "intermolecular_energy": -7.98, "internal_energy": -1.54, "cluster_size": 10, "cluster_id": 2, "rank_in_cluster": 10}

>  <energy>  (28) 
-7.14

>  <cluster_rmsd>  (28) 
1.5

>  <cluster>  (28) 
1

$$$$

     RDKit          3D

 39 41  0  0  0  0  0  0  0  0999 V2000
  140.5050   79.0520  223.8180 N   0  0  0  0  0  0  0  0  0  0  0  0
  141.0380   78.7010  222.8610 C   0  0  0  0  0  0  0  0  0  0  0  0
  141.6850   78.2730  221.6520 C   0  0  2  0  0  0  0  0  0  0  0  0
  141.3790   79.1670  220.4650 C   0  0  0  0  0  0  0  0  0  0  0  0
  141.8110   78.3020  219.2940 C   0  0  0  0  0  0  0  0  0  0  0  0
  141.9030   76.8710  219.8360 C   0  0  0  0  0  0  0  0  0  0  0  0
  141.2580   76.9940  221.1520 N   0  0  0  0  0  0  0  0  0  0  0  0
  140.4300   75.9830  221.6760 C   0  0  0  0  0  0  0  0  0  0  0  0
  139.7850   76.2500  222.7260 O   0  0  0  0  0  0  0  0  0  0  0  0
  140.2610   74.6330  221.0910 C   0  0  0  0  0  0  0  0  0  0  0  0
  140.0360   73.7220  222.2260 N   0  0  0  0  0  0  0  0  0  0  0  0
  140.4720   72.3690  222.1960 C   0  0  0  0  0  0  0  0  0  0  0  0
  141.0690   71.8480  221.2210 O   0  0  0  0  0  0  0  0  0  0  0  0
  140.2080   71.5210  223.3770 C   0  0  0  0  0  0  0  0  0  0  0  0
  139.4980   70.3510  223.2690 C   0  0  0  0  0  0  0  0  0  0  0  0
  139.2670   69.5780  224.3980 C   0  0  0  0  0  0  0  0  0  0  0  0
  139.7540   69.9930  225.6120 C   0  0  0  0  0  0  0  0  0  0  0  0
  139.5420   69.2470  226.7590 C   0  0  0  0  0  0  0  0  0  0  0  0
  140.0210   69.6520  227.9700 C   0  0  0  0  0  0  0  0  0  0  0  0
  139.8210   68.9340  229.0900 F   0  0  0  0  0  0  0  0  0  0  0  0
  140.7410   70.8340  228.0950 C   0  0  0  0  0  0  0  0  0  0  0  0
  140.9390   71.5620  226.9380 C   0  0  0  0  0  0  0  0  0  0  0  0
  140.4620   71.1670  225.7050 C   0  0  0  0  0  0  0  0  0  0  0  0
  140.6580   71.8750  224.5980 N   0  0  0  0  0  0  0  0  0  0  0  0
  142.7375   78.2754  221.9718 H   0  0  0  0  0  0  0  0  0  0  0  0
  140.3065   79.4053  220.4108 H   0  0  0  0  0  0  0  0  0  0  0  0
  141.8852   80.1428  220.5043 H   0  0  0  0  0  0  0  0  0  0  0  0
  141.0686   78.3568  218.4841 H   0  0  0  0  0  0  0  0  0  0  0  0
  142.7726   78.6378  218.8787 H   0  0  0  0  0  0  0  0  0  0  0  0
  141.3604   76.1646  219.1906 H   0  0  0  0  0  0  0  0  0  0  0  0
  142.9310   76.4824  219.8832 H   0  0  0  0  0  0  0  0  0  0  0  0
  139.3964   74.6169  220.4112 H   0  0  0  0  0  0  0  0  0  0  0  0
  141.1431   74.3353  220.5052 H   0  0  0  0  0  0  0  0  0  0  0  0
  139.5410   74.0550  223.0990 H   0  0  0  0  0  0  0  0  0  0  0  0
  139.1134   70.0273  222.2906 H   0  0  0  0  0  0  0  0  0  0  0  0
  138.6979   68.6398  224.3205 H   0  0  0  0  0  0  0  0  0  0  0  0
  138.9747   68.3069  226.6920 H   0  0  0  0  0  0  0  0  0  0  0  0
  141.1331   71.1724  229.0654 H   0  0  0  0  0  0  0  0  0  0  0  0
  141.5048   72.5031  227.0028 H   0  0  0  0  0  0  0  0  0  0  0  0
  1  2  3  0
  2  3  1  0
  3  4  1  0
  4  5  1  0
  5  6  1  0
  6  7  1  0
  7  8  1  0
  8  9  2  0
  8 10  1  0
 10 11  1  0
 11 12  1  0
 12 13  2  0
 12 14  1  0
 14 15  2  0
 15 16  1  0
 16 17  2  0
 17 18  1  0
 18 19  2  0
 19 20  1  0
 19 21  1  0
 21 22  2  0
 22 23  1  0
 23 24  2  0
  7  3  1  0
 24 14  1  0
 23 17  1  0
  3 25  1  1
  4 26  1  0
  4 27  1  0
  5 28  1  0
  5 29  1  0
  6 30  1  0
  6 31  1  0
 10 32  1  0
 10 33  1  0
 11 34  1  0
 15 35  1  0
 16 36  1  0
 18 37  1  0
 21 38  1  0
 22 39  1  0
M  END
>  <smiles>  (29) 
N#C[C@@H]1CCCN1C(=O)CNC(=O)c1ccc2cc(F)ccc2n1

>  <score_type>  (29) 
oracle

>  <origin>  (29) 
autodockgpu

>  <m_score__min__energy>  (29) 
-7.2999999999999998

>  <m_primary>  (29) 
energy

>  <rmsd>  (29) 
2.1956213124899886

>  <m_score__min__rmsd>  (29) 
2.1956213124899886

>  <meeko>  (29) 
{"free_energy": -6.97, "intermolecular_energy": -8.46, "internal_energy": -1.39, "cluster_size": 10, "cluster_id": 2, "rank_in_cluster": 3}

>  <energy>  (29) 
-7.13

>  <cluster_rmsd>  (29) 
1.48

>  <cluster>  (29) 
1

$$$$

     RDKit          3D

 39 41  0  0  0  0  0  0  0  0999 V2000
  139.2050   67.4090  225.7350 N   0  0  0  0  0  0  0  0  0  0  0  0
  139.7990   68.3280  226.0860 C   0  0  0  0  0  0  0  0  0  0  0  0
  140.5540   69.4780  226.5020 C   0  0  2  0  0  0  0  0  0  0  0  0
  140.1860   69.9590  227.8920 C   0  0  0  0  0  0  0  0  0  0  0  0
  140.7840   71.3550  227.9170 C   0  0  0  0  0  0  0  0  0  0  0  0
  141.0420   71.7300  226.4530 C   0  0  0  0  0  0  0  0  0  0  0  0
  140.3260   70.6690  225.7280 N   0  0  0  0  0  0  0  0  0  0  0  0
  139.6180   70.9240  224.5380 C   0  0  0  0  0  0  0  0  0  0  0  0
  138.3690   71.0690  224.6280 O   0  0  0  0  0  0  0  0  0  0  0  0
  140.2280   71.0310  223.1920 C   0  0  0  0  0  0  0  0  0  0  0  0
  140.2560   72.4680  222.8720 N   0  0  0  0  0  0  0  0  0  0  0  0
  141.0920   72.9880  221.8460 C   0  0  0  0  0  0  0  0  0  0  0  0
  141.8600   72.2820  221.1450 O   0  0  0  0  0  0  0  0  0  0  0  0
  141.0610   74.4420  221.5860 C   0  0  0  0  0  0  0  0  0  0  0  0
  141.9260   75.0250  220.6920 C   0  0  0  0  0  0  0  0  0  0  0  0
  141.8700   76.3930  220.4720 C   0  0  0  0  0  0  0  0  0  0  0  0
  140.9490   77.1500  221.1500 C   0  0  0  0  0  0  0  0  0  0  0  0
  140.8660   78.5190  220.9550 C   0  0  0  0  0  0  0  0  0  0  0  0
  139.9530   79.2790  221.6250 C   0  0  0  0  0  0  0  0  0  0  0  0
  139.8640   80.6090  221.4420 F   0  0  0  0  0  0  0  0  0  0  0  0
  139.0720   78.7040  222.5320 C   0  0  0  0  0  0  0  0  0  0  0  0
  139.1740   77.3380  222.7110 C   0  0  0  0  0  0  0  0  0  0  0  0
  140.0900   76.5540  222.0420 C   0  0  0  0  0  0  0  0  0  0  0  0
  140.1800   75.2400  222.2220 N   0  0  0  0  0  0  0  0  0  0  0  0
  141.5807   69.0957  226.4031 H   0  0  0  0  0  0  0  0  0  0  0  0
  139.0948   69.9900  228.0275 H   0  0  0  0  0  0  0  0  0  0  0  0
  140.5544   69.3063  228.6971 H   0  0  0  0  0  0  0  0  0  0  0  0
  140.0792   72.0646  228.3749 H   0  0  0  0  0  0  0  0  0  0  0  0
  141.7097   71.3864  228.5103 H   0  0  0  0  0  0  0  0  0  0  0  0
  140.6296   72.7221  226.2171 H   0  0  0  0  0  0  0  0  0  0  0  0
  142.1096   71.7963  226.1964 H   0  0  0  0  0  0  0  0  0  0  0  0
  141.2489   70.6216  223.2014 H   0  0  0  0  0  0  0  0  0  0  0  0
  139.6556   70.4628  222.4440 H   0  0  0  0  0  0  0  0  0  0  0  0
  139.6510   73.1540  223.4010 H   0  0  0  0  0  0  0  0  0  0  0  0
  142.6604   74.4088  220.1526 H   0  0  0  0  0  0  0  0  0  0  0  0
  142.5596   76.8678  219.7585 H   0  0  0  0  0  0  0  0  0  0  0  0
  141.5515   79.0037  220.2442 H   0  0  0  0  0  0  0  0  0  0  0  0
  138.3313   79.3053  223.0795 H   0  0  0  0  0  0  0  0  0  0  0  0
  138.4905   76.8516  223.4225 H   0  0  0  0  0  0  0  0  0  0  0  0
  1  2  3  0
  2  3  1  0
  3  4  1  0
  4  5  1  0
  5  6  1  0
  6  7  1  0
  7  8  1  0
  8  9  2  0
  8 10  1  0
 10 11  1  0
 11 12  1  0
 12 13  2  0
 12 14  1  0
 14 15  2  0
 15 16  1  0
 16 17  2  0
 17 18  1  0
 18 19  2  0
 19 20  1  0
 19 21  1  0
 21 22  2  0
 22 23  1  0
 23 24  2  0
  7  3  1  0
 24 14  1  0
 23 17  1  0
  3 25  1  1
  4 26  1  0
  4 27  1  0
  5 28  1  0
  5 29  1  0
  6 30  1  0
  6 31  1  0
 10 32  1  0
 10 33  1  0
 11 34  1  0
 15 35  1  0
 16 36  1  0
 18 37  1  0
 21 38  1  0
 22 39  1  0
M  END
>  <smiles>  (30) 
N#C[C@@H]1CCCN1C(=O)CNC(=O)c1ccc2cc(F)ccc2n1

>  <score_type>  (30) 
oracle

>  <origin>  (30) 
autodockgpu

>  <m_score__min__energy>  (30) 
-7.2999999999999998

>  <m_primary>  (30) 
energy

>  <rmsd>  (30) 
8.858267576816194

>  <m_score__min__rmsd>  (30) 
8.858267576816194

>  <meeko>  (30) 
{"free_energy": -7.19, "intermolecular_energy": -8.69, "internal_energy": -1.36, "cluster_size": 37, "cluster_id": 1, "rank_in_cluster": 15}

>  <energy>  (30) 
-7.11

>  <cluster_rmsd>  (30) 
1.5

>  <cluster>  (30) 
1

$$$$

     RDKit          3D

 39 41  0  0  0  0  0  0  0  0999 V2000
  141.0850   71.7840  228.4920 N   0  0  0  0  0  0  0  0  0  0  0  0
  140.5690   70.9020  227.9660 C   0  0  0  0  0  0  0  0  0  0  0  0
  139.9370   69.7840  227.3220 C   0  0  2  0  0  0  0  0  0  0  0  0
  140.7200   68.4930  227.4680 C   0  0  0  0  0  0  0  0  0  0  0  0
  140.0920   67.6150  226.3990 C   0  0  0  0  0  0  0  0  0  0  0  0
  139.3430   68.5670  225.4580 C   0  0  0  0  0  0  0  0  0  0  0  0
  139.8320   69.8840  225.8910 N   0  0  0  0  0  0  0  0  0  0  0  0
  140.0900   70.9230  224.9760 C   0  0  0  0  0  0  0  0  0  0  0  0
  140.7700   71.9010  225.3900 O   0  0  0  0  0  0  0  0  0  0  0  0
  139.6240   70.9550  223.5710 C   0  0  0  0  0  0  0  0  0  0  0  0
  140.0570   72.2540  223.0280 N   0  0  0  0  0  0  0  0  0  0  0  0
  140.6550   72.3640  221.7430 C   0  0  0  0  0  0  0  0  0  0  0  0
  140.8620   71.3860  220.9820 O   0  0  0  0  0  0  0  0  0  0  0  0
  141.0600   73.7050  221.2720 C   0  0  0  0  0  0  0  0  0  0  0  0
  141.7870   73.8640  220.1170 C   0  0  0  0  0  0  0  0  0  0  0  0
  142.1520   75.1360  219.7020 C   0  0  0  0  0  0  0  0  0  0  0  0
  141.7790   76.2240  220.4520 C   0  0  0  0  0  0  0  0  0  0  0  0
  142.1260   77.5080  220.0680 C   0  0  0  0  0  0  0  0  0  0  0  0
  141.7610   78.5950  220.8060 C   0  0  0  0  0  0  0  0  0  0  0  0
  142.0930   79.8470  220.4420 F   0  0  0  0  0  0  0  0  0  0  0  0
  141.0260   78.4500  221.9760 C   0  0  0  0  0  0  0  0  0  0  0  0
  140.6920   77.1600  222.3400 C   0  0  0  0  0  0  0  0  0  0  0  0
  141.0530   76.0490  221.6040 C   0  0  0  0  0  0  0  0  0  0  0  0
  140.7270   74.8120  221.9640 N   0  0  0  0  0  0  0  0  0  0  0  0
  138.9571   69.7877  227.8218 H   0  0  0  0  0  0  0  0  0  0  0  0
  141.7912   68.6521  227.2750 H   0  0  0  0  0  0  0  0  0  0  0  0
  140.6742   68.0603  228.4783 H   0  0  0  0  0  0  0  0  0  0  0  0
  140.8706   67.0670  225.8482 H   0  0  0  0  0  0  0  0  0  0  0  0
  139.4157   66.8666  226.8377 H   0  0  0  0  0  0  0  0  0  0  0  0
  139.6007   68.3723  224.4065 H   0  0  0  0  0  0  0  0  0  0  0  0
  138.2489   68.4651  225.5076 H   0  0  0  0  0  0  0  0  0  0  0  0
  140.0773   70.1318  222.9993 H   0  0  0  0  0  0  0  0  0  0  0  0
  138.5324   70.8354  223.5062 H   0  0  0  0  0  0  0  0  0  0  0  0
  139.9320   73.1430  223.5850 H   0  0  0  0  0  0  0  0  0  0  0  0
  142.0787   72.9851  219.5233 H   0  0  0  0  0  0  0  0  0  0  0  0
  142.7355   75.2722  218.7795 H   0  0  0  0  0  0  0  0  0  0  0  0
  142.7092   77.6547  219.1469 H   0  0  0  0  0  0  0  0  0  0  0  0
  140.7255   79.3178  222.5814 H   0  0  0  0  0  0  0  0  0  0  0  0
  140.1099   77.0106  223.2613 H   0  0  0  0  0  0  0  0  0  0  0  0
  1  2  3  0
  2  3  1  0
  3  4  1  0
  4  5  1  0
  5  6  1  0
  6  7  1  0
  7  8  1  0
  8  9  2  0
  8 10  1  0
 10 11  1  0
 11 12  1  0
 12 13  2  0
 12 14  1  0
 14 15  2  0
 15 16  1  0
 16 17  2  0
 17 18  1  0
 18 19  2  0
 19 20  1  0
 19 21  1  0
 21 22  2  0
 22 23  1  0
 23 24  2  0
  7  3  1  0
 24 14  1  0
 23 17  1  0
  3 25  1  1
  4 26  1  0
  4 27  1  0
  5 28  1  0
  5 29  1  0
  6 30  1  0
  6 31  1  0
 10 32  1  0
 10 33  1  0
 11 34  1  0
 15 35  1  0
 16 36  1  0
 18 37  1  0
 21 38  1  0
 22 39  1  0
M  END
>  <smiles>  (31) 
N#C[C@@H]1CCCN1C(=O)CNC(=O)c1ccc2cc(F)ccc2n1

>  <score_type>  (31) 
oracle

>  <origin>  (31) 
autodockgpu

>  <m_score__min__energy>  (31) 
-7.2999999999999998

>  <m_primary>  (31) 
energy

>  <rmsd>  (31) 
8.88628646284127

>  <m_score__min__rmsd>  (31) 
8.88628646284127

>  <meeko>  (31) 
{"free_energy": -7.17, "intermolecular_energy": -8.66, "internal_energy": -1.53, "cluster_size": 37, "cluster_id": 1, "rank_in_cluster": 24}

>  <energy>  (31) 
-7.08

>  <cluster_rmsd>  (31) 
1.48

>  <cluster>  (31) 
1

$$$$

     RDKit          3D

 39 41  0  0  0  0  0  0  0  0999 V2000
  139.2000   67.4000  225.8980 N   0  0  0  0  0  0  0  0  0  0  0  0
  139.8060   68.3620  226.0650 C   0  0  0  0  0  0  0  0  0  0  0  0
  140.5860   69.5520  226.2730 C   0  0  2  0  0  0  0  0  0  0  0  0
  140.4130   70.1410  227.6600 C   0  0  0  0  0  0  0  0  0  0  0  0
  140.9740   71.5410  227.4850 C   0  0  0  0  0  0  0  0  0  0  0  0
  141.0070   71.7970  225.9730 C   0  0  0  0  0  0  0  0  0  0  0  0
  140.2190   70.6720  225.4490 N   0  0  0  0  0  0  0  0  0  0  0  0
  139.3390   70.8190  224.3590 C   0  0  0  0  0  0  0  0  0  0  0  0
  138.1090   70.9100  224.6180 O   0  0  0  0  0  0  0  0  0  0  0  0
  139.7480   70.8720  222.9370 C   0  0  0  0  0  0  0  0  0  0  0  0
  140.0000   72.2920  222.6380 N   0  0  0  0  0  0  0  0  0  0  0  0
  140.9520   72.6920  221.6610 C   0  0  0  0  0  0  0  0  0  0  0  0
  141.6430   71.8870  220.9880 O   0  0  0  0  0  0  0  0  0  0  0  0
  141.1430   74.1370  221.4200 C   0  0  0  0  0  0  0  0  0  0  0  0
  142.0410   74.5900  220.4850 C   0  0  0  0  0  0  0  0  0  0  0  0
  142.1980   75.9540  220.2840 C   0  0  0  0  0  0  0  0  0  0  0  0
  141.4500   76.8360  221.0230 C   0  0  0  0  0  0  0  0  0  0  0  0
  141.5810   78.2040  220.8480 C   0  0  0  0  0  0  0  0  0  0  0  0
  140.8420   79.0870  221.5780 C   0  0  0  0  0  0  0  0  0  0  0  0
  140.9620   80.4180  221.4160 F   0  0  0  0  0  0  0  0  0  0  0  0
  139.9300   78.6440  222.5280 C   0  0  0  0  0  0  0  0  0  0  0  0
  139.8180   77.2770  222.6850 C   0  0  0  0  0  0  0  0  0  0  0  0
  140.5570   76.3680  221.9550 C   0  0  0  0  0  0  0  0  0  0  0  0
  140.4400   75.0540  222.1140 N   0  0  0  0  0  0  0  0  0  0  0  0
  141.5963   69.1757  226.0549 H   0  0  0  0  0  0  0  0  0  0  0  0
  139.3528   70.1696  227.9520 H   0  0  0  0  0  0  0  0  0  0  0  0
  140.9104   69.5613  228.4516 H   0  0  0  0  0  0  0  0  0  0  0  0
  140.3264   72.2774  227.9833 H   0  0  0  0  0  0  0  0  0  0  0  0
  141.9752   71.6326  227.9312 H   0  0  0  0  0  0  0  0  0  0  0  0
  140.5411   72.7613  225.7217 H   0  0  0  0  0  0  0  0  0  0  0  0
  142.0239   71.8546  225.5575 H   0  0  0  0  0  0  0  0  0  0  0  0
  140.6622   70.2806  222.7802 H   0  0  0  0  0  0  0  0  0  0  0  0
  138.9716   70.4541  222.2793 H   0  0  0  0  0  0  0  0  0  0  0  0
  139.4740   73.0540  223.1470 H   0  0  0  0  0  0  0  0  0  0  0  0
  142.6340   73.8738  219.8972 H   0  0  0  0  0  0  0  0  0  0  0  0
  142.9163   76.3254  219.5383 H   0  0  0  0  0  0  0  0  0  0  0  0
  142.2962   78.5858  220.1045 H   0  0  0  0  0  0  0  0  0  0  0  0
  139.3284   79.3460  223.1241 H   0  0  0  0  0  0  0  0  0  0  0  0
  139.1043   76.8931  223.4288 H   0  0  0  0  0  0  0  0  0  0  0  0
  1  2  3  0
  2  3  1  0
  3  4  1  0
  4  5  1  0
  5  6  1  0
  6  7  1  0
  7  8  1  0
  8  9  2  0
  8 10  1  0
 10 11  1  0
 11 12  1  0
 12 13  2  0
 12 14  1  0
 14 15  2  0
 15 16  1  0
 16 17  2  0
 17 18  1  0
 18 19  2  0
 19 20  1  0
 19 21  1  0
 21 22  2  0
 22 23  1  0
 23 24  2  0
  7  3  1  0
 24 14  1  0
 23 17  1  0
  3 25  1  6
  4 26  1  0
  4 27  1  0
  5 28  1  0
  5 29  1  0
  6 30  1  0
  6 31  1  0
 10 32  1  0
 10 33  1  0
 11 34  1  0
 15 35  1  0
 16 36  1  0
 18 37  1  0
 21 38  1  0
 22 39  1  0
M  END
>  <smiles>  (32) 
N#C[C@@H]1CCCN1C(=O)CNC(=O)c1ccc2cc(F)ccc2n1

>  <score_type>  (32) 
oracle

>  <origin>  (32) 
autodockgpu

>  <m_score__min__energy>  (32) 
-7.2999999999999998

>  <m_primary>  (32) 
energy

>  <rmsd>  (32) 
8.636673441774585

>  <m_score__min__rmsd>  (32) 
8.636673441774585

>  <meeko>  (32) 
{"free_energy": -7.27, "intermolecular_energy": -8.76, "internal_energy": -1.35, "cluster_size": 37, "cluster_id": 1, "rank_in_cluster": 7}

>  <energy>  (32) 
-7.05

>  <cluster_rmsd>  (32) 
1.51

>  <cluster>  (32) 
1

$$$$

     RDKit          3D

 39 41  0  0  0  0  0  0  0  0999 V2000
  139.2000   67.4070  225.5870 N   0  0  0  0  0  0  0  0  0  0  0  0
  139.8030   68.3410  225.8780 C   0  0  0  0  0  0  0  0  0  0  0  0
  140.5630   69.4980  226.2630 C   0  0  2  0  0  0  0  0  0  0  0  0
  140.2800   69.9500  227.6830 C   0  0  0  0  0  0  0  0  0  0  0  0
  140.8540   71.3560  227.6920 C   0  0  0  0  0  0  0  0  0  0  0  0
  141.0080   71.7590  226.2200 C   0  0  0  0  0  0  0  0  0  0  0  0
  140.2640   70.6970  225.5260 N   0  0  0  0  0  0  0  0  0  0  0  0
  139.4740   70.9570  224.3900 C   0  0  0  0  0  0  0  0  0  0  0  0
  138.2490   71.1860  224.5780 O   0  0  0  0  0  0  0  0  0  0  0  0
  139.9720   70.9800  222.9950 C   0  0  0  0  0  0  0  0  0  0  0  0
  140.1740   72.3990  222.6580 N   0  0  0  0  0  0  0  0  0  0  0  0
  141.0870   72.8030  221.6460 C   0  0  0  0  0  0  0  0  0  0  0  0
  141.7830   72.0030  220.9720 O   0  0  0  0  0  0  0  0  0  0  0  0
  141.2310   74.2470  221.3690 C   0  0  0  0  0  0  0  0  0  0  0  0
  142.0870   74.7040  220.3970 C   0  0  0  0  0  0  0  0  0  0  0  0
  142.1990   76.0660  220.1620 C   0  0  0  0  0  0  0  0  0  0  0  0
  141.4490   76.9440  220.9030 C   0  0  0  0  0  0  0  0  0  0  0  0
  141.5350   78.3110  220.6950 C   0  0  0  0  0  0  0  0  0  0  0  0
  140.7940   79.1900  221.4270 C   0  0  0  0  0  0  0  0  0  0  0  0
  140.8710   80.5190  221.2330 F   0  0  0  0  0  0  0  0  0  0  0  0
  139.9230   78.7430  222.4130 C   0  0  0  0  0  0  0  0  0  0  0  0
  139.8540   77.3770  222.6040 C   0  0  0  0  0  0  0  0  0  0  0  0
  140.5970   76.4730  221.8720 C   0  0  0  0  0  0  0  0  0  0  0  0
  140.5230   75.1600  222.0630 N   0  0  0  0  0  0  0  0  0  0  0  0
  141.5873   69.1363  226.0900 H   0  0  0  0  0  0  0  0  0  0  0  0
  139.1999   69.9587  227.8911 H   0  0  0  0  0  0  0  0  0  0  0  0
  140.7124   69.2914  228.4507 H   0  0  0  0  0  0  0  0  0  0  0  0
  140.1689   72.0453  228.2074 H   0  0  0  0  0  0  0  0  0  0  0  0
  141.8164   71.3950  228.2233 H   0  0  0  0  0  0  0  0  0  0  0  0
  140.5639   72.7470  226.0287 H   0  0  0  0  0  0  0  0  0  0  0  0
  142.0549   71.8488  225.8946 H   0  0  0  0  0  0  0  0  0  0  0  0
  140.9219   70.4305  222.9194 H   0  0  0  0  0  0  0  0  0  0  0  0
  139.2612   70.5001  222.3061 H   0  0  0  0  0  0  0  0  0  0  0  0
  139.6410   73.1580  223.1650 H   0  0  0  0  0  0  0  0  0  0  0  0
  142.6820   73.9916  219.8067 H   0  0  0  0  0  0  0  0  0  0  0  0
  142.8843   76.4399  219.3870 H   0  0  0  0  0  0  0  0  0  0  0  0
  142.2165   78.6955  219.9219 H   0  0  0  0  0  0  0  0  0  0  0  0
  139.3192   79.4415  223.0109 H   0  0  0  0  0  0  0  0  0  0  0  0
  139.1737   76.9906  223.3772 H   0  0  0  0  0  0  0  0  0  0  0  0
  1  2  3  0
  2  3  1  0
  3  4  1  0
  4  5  1  0
  5  6  1  0
  6  7  1  0
  7  8  1  0
  8  9  2  0
  8 10  1  0
 10 11  1  0
 11 12  1  0
 12 13  2  0
 12 14  1  0
 14 15  2  0
 15 16  1  0
 16 17  2  0
 17 18  1  0
 18 19  2  0
 19 20  1  0
 19 21  1  0
 21 22  2  0
 22 23  1  0
 23 24  2  0
  7  3  1  0
 24 14  1  0
 23 17  1  0
  3 25  1  1
  4 26  1  0
  4 27  1  0
  5 28  1  0
  5 29  1  0
  6 30  1  0
  6 31  1  0
 10 32  1  0
 10 33  1  0
 11 34  1  0
 15 35  1  0
 16 36  1  0
 18 37  1  0
 21 38  1  0
 22 39  1  0
M  END
>  <smiles>  (33) 
N#C[C@@H]1CCCN1C(=O)CNC(=O)c1ccc2cc(F)ccc2n1

>  <score_type>  (33) 
oracle

>  <origin>  (33) 
autodockgpu

>  <m_score__min__energy>  (33) 
-7.2999999999999998

>  <m_primary>  (33) 
energy

>  <rmsd>  (33) 
8.762641136945657

>  <m_score__min__rmsd>  (33) 
8.762641136945657

>  <meeko>  (33) 
{"free_energy": -7.26, "intermolecular_energy": -8.75, "internal_energy": -1.35, "cluster_size": 37, "cluster_id": 1, "rank_in_cluster": 9}

>  <energy>  (33) 
-7.02

>  <cluster_rmsd>  (33) 
1.46

>  <cluster>  (33) 
1

$$$$

     RDKit          3D

 39 41  0  0  0  0  0  0  0  0999 V2000
  139.2000   67.4250  225.6690 N   0  0  0  0  0  0  0  0  0  0  0  0
  139.7990   68.3420  226.0210 C   0  0  0  0  0  0  0  0  0  0  0  0
  140.5520   69.4920  226.4380 C   0  0  2  0  0  0  0  0  0  0  0  0
  140.2030   69.9560  227.8390 C   0  0  0  0  0  0  0  0  0  0  0  0
  140.7930   71.3550  227.8690 C   0  0  0  0  0  0  0  0  0  0  0  0
  141.0260   71.7470  226.4050 C   0  0  0  0  0  0  0  0  0  0  0  0
  140.3050   70.6900  225.6800 N   0  0  0  0  0  0  0  0  0  0  0  0
  139.5770   70.9520  224.5040 C   0  0  0  0  0  0  0  0  0  0  0  0
  138.3340   71.1240  224.6200 O   0  0  0  0  0  0  0  0  0  0  0  0
  140.1600   71.0400  223.1450 C   0  0  0  0  0  0  0  0  0  0  0  0
  140.2200   72.4750  222.8190 N   0  0  0  0  0  0  0  0  0  0  0  0
  141.0790   72.9740  221.8030 C   0  0  0  0  0  0  0  0  0  0  0  0
  141.8420   72.2520  221.1150 O   0  0  0  0  0  0  0  0  0  0  0  0
  141.0780   74.4280  221.5370 C   0  0  0  0  0  0  0  0  0  0  0  0
  141.9420   74.9860  220.6270 C   0  0  0  0  0  0  0  0  0  0  0  0
  141.9160   76.3540  220.4010 C   0  0  0  0  0  0  0  0  0  0  0  0
  141.0240   77.1360  221.0910 C   0  0  0  0  0  0  0  0  0  0  0  0
  140.9710   78.5050  220.8910 C   0  0  0  0  0  0  0  0  0  0  0  0
  140.0880   79.2900  221.5720 C   0  0  0  0  0  0  0  0  0  0  0  0
  140.0280   80.6210  221.3850 F   0  0  0  0  0  0  0  0  0  0  0  0
  139.2080   78.7400  222.4960 C   0  0  0  0  0  0  0  0  0  0  0  0
  139.2800   77.3730  222.6800 C   0  0  0  0  0  0  0  0  0  0  0  0
  140.1660   76.5640  221.9990 C   0  0  0  0  0  0  0  0  0  0  0  0
  140.2270   75.2500  222.1830 N   0  0  0  0  0  0  0  0  0  0  0  0
  141.5793   69.1171  226.3196 H   0  0  0  0  0  0  0  0  0  0  0  0
  139.1139   69.9789  227.9920 H   0  0  0  0  0  0  0  0  0  0  0  0
  140.5877   69.2971  228.6314 H   0  0  0  0  0  0  0  0  0  0  0  0
  140.0913   72.0556  228.3452 H   0  0  0  0  0  0  0  0  0  0  0  0
  141.7278   71.3857  228.4480 H   0  0  0  0  0  0  0  0  0  0  0  0
  140.6044   72.7392  226.1861 H   0  0  0  0  0  0  0  0  0  0  0  0
  142.0891   71.8221  226.1326 H   0  0  0  0  0  0  0  0  0  0  0  0
  141.1695   70.6033  223.1336 H   0  0  0  0  0  0  0  0  0  0  0  0
  139.5557   70.4860  222.4116 H   0  0  0  0  0  0  0  0  0  0  0  0
  139.6200   73.1740  223.3380 H   0  0  0  0  0  0  0  0  0  0  0  0
  142.6526   74.3498  220.0790 H   0  0  0  0  0  0  0  0  0  0  0  0
  142.6051   76.8088  219.6742 H   0  0  0  0  0  0  0  0  0  0  0  0
  141.6563   78.9697  220.1668 H   0  0  0  0  0  0  0  0  0  0  0  0
  138.4908   79.3614  223.0524 H   0  0  0  0  0  0  0  0  0  0  0  0
  138.5972   76.9063  223.4053 H   0  0  0  0  0  0  0  0  0  0  0  0
  1  2  3  0
  2  3  1  0
  3  4  1  0
  4  5  1  0
  5  6  1  0
  6  7  1  0
  7  8  1  0
  8  9  2  0
  8 10  1  0
 10 11  1  0
 11 12  1  0
 12 13  2  0
 12 14  1  0
 14 15  2  0
 15 16  1  0
 16 17  2  0
 17 18  1  0
 18 19  2  0
 19 20  1  0
 19 21  1  0
 21 22  2  0
 22 23  1  0
 23 24  2  0
  7  3  1  0
 24 14  1  0
 23 17  1  0
  3 25  1  1
  4 26  1  0
  4 27  1  0
  5 28  1  0
  5 29  1  0
  6 30  1  0
  6 31  1  0
 10 32  1  0
 10 33  1  0
 11 34  1  0
 15 35  1  0
 16 36  1  0
 18 37  1  0
 21 38  1  0
 22 39  1  0
M  END
>  <smiles>  (34) 
N#C[C@@H]1CCCN1C(=O)CNC(=O)c1ccc2cc(F)ccc2n1

>  <score_type>  (34) 
oracle

>  <origin>  (34) 
autodockgpu

>  <m_score__min__energy>  (34) 
-7.2999999999999998

>  <m_primary>  (34) 
energy

>  <rmsd>  (34) 
8.844027791484073

>  <m_score__min__rmsd>  (34) 
8.844027791484073

>  <meeko>  (34) 
{"free_energy": -7.19, "intermolecular_energy": -8.68, "internal_energy": -1.36, "cluster_size": 37, "cluster_id": 1, "rank_in_cluster": 18}

>  <energy>  (34) 
-7.01

>  <cluster_rmsd>  (34) 
1.48

>  <cluster>  (34) 
1

$$$$

     RDKit          3D

 39 41  0  0  0  0  0  0  0  0999 V2000
  141.2170   71.6140  228.5160 N   0  0  0  0  0  0  0  0  0  0  0  0
  140.6890   70.7410  227.9850 C   0  0  0  0  0  0  0  0  0  0  0  0
  140.0350   69.6350  227.3400 C   0  0  2  0  0  0  0  0  0  0  0  0
  140.8470   68.3560  227.3870 C   0  0  0  0  0  0  0  0  0  0  0  0
  140.1670   67.5060  226.3280 C   0  0  0  0  0  0  0  0  0  0  0  0
  139.3440   68.4770  225.4730 C   0  0  0  0  0  0  0  0  0  0  0  0
  139.8380   69.7860  225.9230 N   0  0  0  0  0  0  0  0  0  0  0  0
  140.0200   70.8640  225.0350 C   0  0  0  0  0  0  0  0  0  0  0  0
  140.5890   71.8940  225.4850 O   0  0  0  0  0  0  0  0  0  0  0  0
  139.5920   70.8780  223.6170 C   0  0  0  0  0  0  0  0  0  0  0  0
  140.0410   72.1700  223.0700 N   0  0  0  0  0  0  0  0  0  0  0  0
  140.6300   72.2700  221.7800 C   0  0  0  0  0  0  0  0  0  0  0  0
  140.8150   71.2890  221.0170 O   0  0  0  0  0  0  0  0  0  0  0  0
  141.0520   73.6040  221.3040 C   0  0  0  0  0  0  0  0  0  0  0  0
  141.7980   73.7490  220.1600 C   0  0  0  0  0  0  0  0  0  0  0  0
  142.1790   75.0150  219.7410 C   0  0  0  0  0  0  0  0  0  0  0  0
  141.8030   76.1110  220.4760 C   0  0  0  0  0  0  0  0  0  0  0  0
  142.1660   77.3900  220.0880 C   0  0  0  0  0  0  0  0  0  0  0  0
  141.7970   78.4850  220.8130 C   0  0  0  0  0  0  0  0  0  0  0  0
  142.1440   79.7320  220.4430 F   0  0  0  0  0  0  0  0  0  0  0  0
  141.0430   78.3540  221.9720 C   0  0  0  0  0  0  0  0  0  0  0  0
  140.6940   77.0700  222.3400 C   0  0  0  0  0  0  0  0  0  0  0  0
  141.0580   75.9510  221.6190 C   0  0  0  0  0  0  0  0  0  0  0  0
  140.7170   74.7190  221.9830 N   0  0  0  0  0  0  0  0  0  0  0  0
  139.0889   69.6013  227.9001 H   0  0  0  0  0  0  0  0  0  0  0  0
  141.9007   68.5428  227.1325 H   0  0  0  0  0  0  0  0  0  0  0  0
  140.8735   67.8857  228.3811 H   0  0  0  0  0  0  0  0  0  0  0  0
  140.9179   66.9933  225.7089 H   0  0  0  0  0  0  0  0  0  0  0  0
  139.5327   66.7293  226.7801 H   0  0  0  0  0  0  0  0  0  0  0  0
  139.5369   68.3255  224.4007 H   0  0  0  0  0  0  0  0  0  0  0  0
  138.2571   68.3529  225.5881 H   0  0  0  0  0  0  0  0  0  0  0  0
  140.0599   70.0473  223.0683 H   0  0  0  0  0  0  0  0  0  0  0  0
  138.5026   70.7578  223.5238 H   0  0  0  0  0  0  0  0  0  0  0  0
  139.9350   73.0610  223.6280 H   0  0  0  0  0  0  0  0  0  0  0  0
  142.0925   72.8635  219.5777 H   0  0  0  0  0  0  0  0  0  0  0  0
  142.7778   75.1395  218.8267 H   0  0  0  0  0  0  0  0  0  0  0  0
  142.7649   77.5258  219.1754 H   0  0  0  0  0  0  0  0  0  0  0  0
  140.7395   79.2285  222.5663 H   0  0  0  0  0  0  0  0  0  0  0  0
  140.0962   76.9320  223.2530 H   0  0  0  0  0  0  0  0  0  0  0  0
  1  2  3  0
  2  3  1  0
  3  4  1  0
  4  5  1  0
  5  6  1  0
  6  7  1  0
  7  8  1  0
  8  9  2  0
  8 10  1  0
 10 11  1  0
 11 12  1  0
 12 13  2  0
 12 14  1  0
 14 15  2  0
 15 16  1  0
 16 17  2  0
 17 18  1  0
 18 19  2  0
 19 20  1  0
 19 21  1  0
 21 22  2  0
 22 23  1  0
 23 24  2  0
  7  3  1  0
 24 14  1  0
 23 17  1  0
  3 25  1  1
  4 26  1  0
  4 27  1  0
  5 28  1  0
  5 29  1  0
  6 30  1  0
  6 31  1  0
 10 32  1  0
 10 33  1  0
 11 34  1  0
 15 35  1  0
 16 36  1  0
 18 37  1  0
 21 38  1  0
 22 39  1  0
M  END
>  <smiles>  (35) 
N#C[C@@H]1CCCN1C(=O)CNC(=O)c1ccc2cc(F)ccc2n1

>  <score_type>  (35) 
oracle

>  <origin>  (35) 
autodockgpu

>  <m_score__min__energy>  (35) 
-7.2999999999999998

>  <m_primary>  (35) 
energy

>  <rmsd>  (35) 
8.87516370749001

>  <m_score__min__rmsd>  (35) 
8.87516370749001

>  <meeko>  (35) 
{"free_energy": -7.11, "intermolecular_energy": -8.6, "internal_energy": -1.59, "cluster_size": 37, "cluster_id": 1, "rank_in_cluster": 30}

>  <energy>  (35) 
-7.0

>  <cluster_rmsd>  (35) 
0.94

>  <cluster>  (35) 
1

$$$$

     RDKit          3D

 39 41  0  0  0  0  0  0  0  0999 V2000
  140.5030   79.0370  223.7990 N   0  0  0  0  0  0  0  0  0  0  0  0
  141.0470   78.6900  222.8470 C   0  0  0  0  0  0  0  0  0  0  0  0
  141.7040   78.2500  221.6480 C   0  0  2  0  0  0  0  0  0  0  0  0
  141.4210   79.1410  220.4540 C   0  0  0  0  0  0  0  0  0  0  0  0
  141.8580   78.2670  219.2910 C   0  0  0  0  0  0  0  0  0  0  0  0
  141.9300   76.8380  219.8420 C   0  0  0  0  0  0  0  0  0  0  0  0
  141.2710   76.9720  221.1490 N   0  0  0  0  0  0  0  0  0  0  0  0
  140.4280   75.9710  221.6680 C   0  0  0  0  0  0  0  0  0  0  0  0
  139.7770   76.2480  222.7110 O   0  0  0  0  0  0  0  0  0  0  0  0
  140.2490   74.6220  221.0840 C   0  0  0  0  0  0  0  0  0  0  0  0
  140.0420   73.7100  222.2210 N   0  0  0  0  0  0  0  0  0  0  0  0
  140.4700   72.3550  222.1790 C   0  0  0  0  0  0  0  0  0  0  0  0
  141.0460   71.8340  221.1920 O   0  0  0  0  0  0  0  0  0  0  0  0
  140.2250   71.5060  223.3640 C   0  0  0  0  0  0  0  0  0  0  0  0
  139.5190   70.3320  223.2640 C   0  0  0  0  0  0  0  0  0  0  0  0
  139.3050   69.5590  224.3960 C   0  0  0  0  0  0  0  0  0  0  0  0
  139.8040   69.9760  225.6040 C   0  0  0  0  0  0  0  0  0  0  0  0
  139.6100   69.2290  226.7530 C   0  0  0  0  0  0  0  0  0  0  0  0
  140.1030   69.6360  227.9580 C   0  0  0  0  0  0  0  0  0  0  0  0
  139.9190   68.9170  229.0810 F   0  0  0  0  0  0  0  0  0  0  0  0
  140.8190   70.8210  228.0740 C   0  0  0  0  0  0  0  0  0  0  0  0
  140.9990   71.5490  226.9150 C   0  0  0  0  0  0  0  0  0  0  0  0
  140.5080   71.1520  225.6880 C   0  0  0  0  0  0  0  0  0  0  0  0
  140.6880   71.8620  224.5790 N   0  0  0  0  0  0  0  0  0  0  0  0
  142.7526   78.2438  221.9802 H   0  0  0  0  0  0  0  0  0  0  0  0
  140.3516   79.3896  220.3863 H   0  0  0  0  0  0  0  0  0  0  0  0
  141.9368   80.1117  220.4952 H   0  0  0  0  0  0  0  0  0  0  0  0
  141.1253   78.3249  218.4726 H   0  0  0  0  0  0  0  0  0  0  0  0
  142.8269   78.5918  218.8839 H   0  0  0  0  0  0  0  0  0  0  0  0
  141.3888   76.1334  219.1935 H   0  0  0  0  0  0  0  0  0  0  0  0
  142.9540   76.4412  219.9039 H   0  0  0  0  0  0  0  0  0  0  0  0
  139.3735   74.6072  220.4182 H   0  0  0  0  0  0  0  0  0  0  0  0
  141.1214   74.3247  220.4835 H   0  0  0  0  0  0  0  0  0  0  0  0
  139.5650   74.0430  223.1030 H   0  0  0  0  0  0  0  0  0  0  0  0
  139.1248   70.0060  222.2902 H   0  0  0  0  0  0  0  0  0  0  0  0
  138.7392   68.6183  224.3254 H   0  0  0  0  0  0  0  0  0  0  0  0
  139.0459   68.2865  226.6931 H   0  0  0  0  0  0  0  0  0  0  0  0
  141.2216   71.1615  229.0394 H   0  0  0  0  0  0  0  0  0  0  0  0
  141.5618   72.4924  226.9724 H   0  0  0  0  0  0  0  0  0  0  0  0
  1  2  3  0
  2  3  1  0
  3  4  1  0
  4  5  1  0
  5  6  1  0
  6  7  1  0
  7  8  1  0
  8  9  2  0
  8 10  1  0
 10 11  1  0
 11 12  1  0
 12 13  2  0
 12 14  1  0
 14 15  2  0
 15 16  1  0
 16 17  2  0
 17 18  1  0
 18 19  2  0
 19 20  1  0
 19 21  1  0
 21 22  2  0
 22 23  1  0
 23 24  2  0
  7  3  1  0
 24 14  1  0
 23 17  1  0
  3 25  1  1
  4 26  1  0
  4 27  1  0
  5 28  1  0
  5 29  1  0
  6 30  1  0
  6 31  1  0
 10 32  1  0
 10 33  1  0
 11 34  1  0
 15 35  1  0
 16 36  1  0
 18 37  1  0
 21 38  1  0
 22 39  1  0
M  END
>  <smiles>  (36) 
N#C[C@@H]1CCCN1C(=O)CNC(=O)c1ccc2cc(F)ccc2n1

>  <score_type>  (36) 
oracle

>  <origin>  (36) 
autodockgpu

>  <m_score__min__energy>  (36) 
-7.2999999999999998

>  <m_primary>  (36) 
energy

>  <rmsd>  (36) 
2.184752774903928

>  <m_score__min__rmsd>  (36) 
2.184752774903928

>  <meeko>  (36) 
{"free_energy": -6.97, "intermolecular_energy": -8.46, "internal_energy": -1.38, "cluster_size": 10, "cluster_id": 2, "rank_in_cluster": 1}

>  <energy>  (36) 
-6.87

>  <cluster_rmsd>  (36) 
1.48

>  <cluster>  (36) 
1

$$$$

     RDKit          3D

 39 41  0  0  0  0  0  0  0  0999 V2000
  139.1940   67.3900  226.0030 N   0  0  0  0  0  0  0  0  0  0  0  0
  139.8200   68.3220  226.2490 C   0  0  0  0  0  0  0  0  0  0  0  0
  140.5840   69.5020  226.5480 C   0  0  2  0  0  0  0  0  0  0  0  0
  140.2540   70.0970  227.9020 C   0  0  0  0  0  0  0  0  0  0  0  0
  140.8510   71.4890  227.7950 C   0  0  0  0  0  0  0  0  0  0  0  0
  141.0690   71.7400  226.2980 C   0  0  0  0  0  0  0  0  0  0  0  0
  140.3350   70.6250  225.6830 N   0  0  0  0  0  0  0  0  0  0  0  0
  139.5940   70.7800  224.4960 C   0  0  0  0  0  0  0  0  0  0  0  0
  138.3380   70.8110  224.5970 O   0  0  0  0  0  0  0  0  0  0  0  0
  140.1780   70.9070  223.1400 C   0  0  0  0  0  0  0  0  0  0  0  0
  140.1980   72.3480  222.8390 N   0  0  0  0  0  0  0  0  0  0  0  0
  141.0220   72.8840  221.8120 C   0  0  0  0  0  0  0  0  0  0  0  0
  141.7850   72.1910  221.0930 O   0  0  0  0  0  0  0  0  0  0  0  0
  140.9830   74.3420  221.5720 C   0  0  0  0  0  0  0  0  0  0  0  0
  141.8680   74.9460  220.7140 C   0  0  0  0  0  0  0  0  0  0  0  0
  141.8060   76.3170  220.5110 C   0  0  0  0  0  0  0  0  0  0  0  0
  140.8550   77.0550  221.1720 C   0  0  0  0  0  0  0  0  0  0  0  0
  140.7640   78.4250  220.9940 C   0  0  0  0  0  0  0  0  0  0  0  0
  139.8230   79.1660  221.6460 C   0  0  0  0  0  0  0  0  0  0  0  0
  139.7260   80.4980  221.4800 F   0  0  0  0  0  0  0  0  0  0  0  0
  138.9210   78.5690  222.5170 C   0  0  0  0  0  0  0  0  0  0  0  0
  139.0310   77.2020  222.6800 C   0  0  0  0  0  0  0  0  0  0  0  0
  139.9770   76.4370  222.0280 C   0  0  0  0  0  0  0  0  0  0  0  0
  140.0740   75.1220  222.1920 N   0  0  0  0  0  0  0  0  0  0  0  0
  141.6080   69.1113  226.4542 H   0  0  0  0  0  0  0  0  0  0  0  0
  139.1669   70.1407  228.0642 H   0  0  0  0  0  0  0  0  0  0  0  0
  140.6450   69.5128  228.7481 H   0  0  0  0  0  0  0  0  0  0  0  0
  140.1582   72.2353  228.2110 H   0  0  0  0  0  0  0  0  0  0  0  0
  141.7922   71.5687  228.3587 H   0  0  0  0  0  0  0  0  0  0  0  0
  140.6500   72.7098  225.9916 H   0  0  0  0  0  0  0  0  0  0  0  0
  142.1294   71.7821  226.0084 H   0  0  0  0  0  0  0  0  0  0  0  0
  141.1995   70.4992  223.1243 H   0  0  0  0  0  0  0  0  0  0  0  0
  139.5919   70.3484  222.3954 H   0  0  0  0  0  0  0  0  0  0  0  0
  139.5960   73.0240  223.3830 H   0  0  0  0  0  0  0  0  0  0  0  0
  142.6245   74.3445  220.1887 H   0  0  0  0  0  0  0  0  0  0  0  0
  142.5127   76.8088  219.8263 H   0  0  0  0  0  0  0  0  0  0  0  0
  141.4661   78.9267  220.3118 H   0  0  0  0  0  0  0  0  0  0  0  0
  138.1578   79.1551  223.0499 H   0  0  0  0  0  0  0  0  0  0  0  0
  138.3307   76.6984  223.3626 H   0  0  0  0  0  0  0  0  0  0  0  0
  1  2  3  0
  2  3  1  0
  3  4  1  0
  4  5  1  0
  5  6  1  0
  6  7  1  0
  7  8  1  0
  8  9  2  0
  8 10  1  0
 10 11  1  0
 11 12  1  0
 12 13  2  0
 12 14  1  0
 14 15  2  0
 15 16  1  0
 16 17  2  0
 17 18  1  0
 18 19  2  0
 19 20  1  0
 19 21  1  0
 21 22  2  0
 22 23  1  0
 23 24  2  0
  7  3  1  0
 24 14  1  0
 23 17  1  0
  3 25  1  1
  4 26  1  0
  4 27  1  0
  5 28  1  0
  5 29  1  0
  6 30  1  0
  6 31  1  0
 10 32  1  0
 10 33  1  0
 11 34  1  0
 15 35  1  0
 16 36  1  0
 18 37  1  0
 21 38  1  0
 22 39  1  0
M  END
>  <smiles>  (37) 
N#C[C@@H]1CCCN1C(=O)CNC(=O)c1ccc2cc(F)ccc2n1

>  <score_type>  (37) 
oracle

>  <origin>  (37) 
autodockgpu

>  <m_score__min__energy>  (37) 
-7.2999999999999998

>  <m_primary>  (37) 
energy

>  <rmsd>  (37) 
8.789403701627213

>  <m_score__min__rmsd>  (37) 
8.789403701627213

>  <meeko>  (37) 
{"free_energy": -7.21, "intermolecular_energy": -8.7, "internal_energy": -1.33, "cluster_size": 37, "cluster_id": 1, "rank_in_cluster": 13}

>  <energy>  (37) 
-6.48

>  <cluster_rmsd>  (37) 
1.25

>  <cluster>  (37) 
1

$$$$

     RDKit          3D

 39 41  0  0  0  0  0  0  0  0999 V2000
  141.0160   78.9330  223.8440 N   0  0  0  0  0  0  0  0  0  0  0  0
  141.3490   78.6240  222.7880 C   0  0  0  0  0  0  0  0  0  0  0  0
  141.7530   78.2570  221.4590 C   0  0  2  0  0  0  0  0  0  0  0  0
  141.2560   79.2220  220.4000 C   0  0  0  0  0  0  0  0  0  0  0  0
  141.4450   78.4200  219.1230 C   0  0  0  0  0  0  0  0  0  0  0  0
  141.6000   76.9590  219.5610 C   0  0  0  0  0  0  0  0  0  0  0  0
  141.2110   77.0140  220.9780 N   0  0  0  0  0  0  0  0  0  0  0  0
  140.4690   75.9860  221.5900 C   0  0  0  0  0  0  0  0  0  0  0  0
  139.9480   76.2380  222.7100 O   0  0  0  0  0  0  0  0  0  0  0  0
  140.2560   74.6350  221.0210 C   0  0  0  0  0  0  0  0  0  0  0  0
  140.0330   73.7400  222.1690 N   0  0  0  0  0  0  0  0  0  0  0  0
  140.4430   72.3790  222.1460 C   0  0  0  0  0  0  0  0  0  0  0  0
  141.0160   71.8380  221.1670 O   0  0  0  0  0  0  0  0  0  0  0  0
  140.1830   71.5490  223.3400 C   0  0  0  0  0  0  0  0  0  0  0  0
  139.4360   70.3990  223.2580 C   0  0  0  0  0  0  0  0  0  0  0  0
  139.2090   69.6420  224.3980 C   0  0  0  0  0  0  0  0  0  0  0  0
  139.7360   70.0510  225.5970 C   0  0  0  0  0  0  0  0  0  0  0  0
  139.5300   69.3200  226.7550 C   0  0  0  0  0  0  0  0  0  0  0  0
  140.0500   69.7190  227.9500 C   0  0  0  0  0  0  0  0  0  0  0  0
  139.8550   69.0160  229.0810 F   0  0  0  0  0  0  0  0  0  0  0  0
  140.8070   70.8790  228.0490 C   0  0  0  0  0  0  0  0  0  0  0  0
  140.9990   71.5930  226.8820 C   0  0  0  0  0  0  0  0  0  0  0  0
  140.4810   71.2030  225.6640 C   0  0  0  0  0  0  0  0  0  0  0  0
  140.6720   71.8970  224.5470 N   0  0  0  0  0  0  0  0  0  0  0  0
  142.8461   78.2261  221.5783 H   0  0  0  0  0  0  0  0  0  0  0  0
  140.1978   79.4774  220.5579 H   0  0  0  0  0  0  0  0  0  0  0  0
  141.7840   80.1870  220.3983 H   0  0  0  0  0  0  0  0  0  0  0  0
  140.5683   78.5318  218.4681 H   0  0  0  0  0  0  0  0  0  0  0  0
  142.3218   78.7659  218.5559 H   0  0  0  0  0  0  0  0  0  0  0  0
  140.9311   76.2987  218.9896 H   0  0  0  0  0  0  0  0  0  0  0  0
  142.6097   76.5545  219.3967 H   0  0  0  0  0  0  0  0  0  0  0  0
  139.3774   74.6335  220.3592 H   0  0  0  0  0  0  0  0  0  0  0  0
  141.1184   74.3111  220.4199 H   0  0  0  0  0  0  0  0  0  0  0  0
  139.5570   74.0910  223.0450 H   0  0  0  0  0  0  0  0  0  0  0  0
  139.0192   70.0795  222.2914 H   0  0  0  0  0  0  0  0  0  0  0  0
  138.6109   68.7206  224.3412 H   0  0  0  0  0  0  0  0  0  0  0  0
  138.9335   68.3969  226.7094 H   0  0  0  0  0  0  0  0  0  0  0  0
  141.2319   71.2122  229.0073 H   0  0  0  0  0  0  0  0  0  0  0  0
  141.5937   72.5173  226.9259 H   0  0  0  0  0  0  0  0  0  0  0  0
  1  2  3  0
  2  3  1  0
  3  4  1  0
  4  5  1  0
  5  6  1  0
  6  7  1  0
  7  8  1  0
  8  9  2  0
  8 10  1  0
 10 11  1  0
 11 12  1  0
 12 13  2  0
 12 14  1  0
 14 15  2  0
 15 16  1  0
 16 17  2  0
 17 18  1  0
 18 19  2  0
 19 20  1  0
 19 21  1  0
 21 22  2  0
 22 23  1  0
 23 24  2  0
  7  3  1  0
 24 14  1  0
 23 17  1  0
  3 25  1  1
  4 26  1  0
  4 27  1  0
  5 28  1  0
  5 29  1  0
  6 30  1  0
  6 31  1  0
 10 32  1  0
 10 33  1  0
 11 34  1  0
 15 35  1  0
 16 36  1  0
 18 37  1  0
 21 38  1  0
 22 39  1  0
M  END
>  <smiles>  (38) 
N#C[C@@H]1CCCN1C(=O)CNC(=O)c1ccc2cc(F)ccc2n1

>  <score_type>  (38) 
oracle

>  <origin>  (38) 
autodockgpu

>  <m_score__min__energy>  (38) 
-7.2999999999999998

>  <m_primary>  (38) 
energy

>  <rmsd>  (38) 
2.1380402174939515

>  <m_score__min__rmsd>  (38) 
2.1380402174939515

>  <meeko>  (38) 
{"free_energy": -6.89, "intermolecular_energy": -8.38, "internal_energy": -1.42, "cluster_size": 10, "cluster_id": 2, "rank_in_cluster": 8}

>  <energy>  (38) 
-6.97

>  <cluster_rmsd>  (38) 
0.0

>  <cluster>  (38) 
2

$$$$

     RDKit          3D

 39 41  0  0  0  0  0  0  0  0999 V2000
  140.2770   79.1090  223.7050 N   0  0  0  0  0  0  0  0  0  0  0  0
  140.8430   78.7120  222.7860 C   0  0  0  0  0  0  0  0  0  0  0  0
  141.5630   78.2360  221.6370 C   0  0  2  0  0  0  0  0  0  0  0  0
  141.3280   79.0790  220.3990 C   0  0  0  0  0  0  0  0  0  0  0  0
  141.8310   78.1680  219.2920 C   0  0  0  0  0  0  0  0  0  0  0  0
  141.8920   76.7610  219.8980 C   0  0  0  0  0  0  0  0  0  0  0  0
  141.1680   76.9350  221.1660 N   0  0  0  0  0  0  0  0  0  0  0  0
  140.3120   75.9440  221.6810 C   0  0  0  0  0  0  0  0  0  0  0  0
  139.6580   76.2280  222.7210 O   0  0  0  0  0  0  0  0  0  0  0  0
  140.1220   74.5960  221.0970 C   0  0  0  0  0  0  0  0  0  0  0  0
  139.9600   73.6770  222.2360 N   0  0  0  0  0  0  0  0  0  0  0  0
  140.3430   72.3110  222.1530 C   0  0  0  0  0  0  0  0  0  0  0  0
  140.8390   71.7840  221.1260 O   0  0  0  0  0  0  0  0  0  0  0  0
  140.1480   71.4560  223.3420 C   0  0  0  0  0  0  0  0  0  0  0  0
  139.5500   70.2230  223.2430 C   0  0  0  0  0  0  0  0  0  0  0  0
  139.3810   69.4450  224.3790 C   0  0  0  0  0  0  0  0  0  0  0  0
  139.8170   69.9170  225.5910 C   0  0  0  0  0  0  0  0  0  0  0  0
  139.6640   69.1670  226.7460 C   0  0  0  0  0  0  0  0  0  0  0  0
  140.0940   69.6280  227.9550 C   0  0  0  0  0  0  0  0  0  0  0  0
  139.9510   68.9060  229.0820 F   0  0  0  0  0  0  0  0  0  0  0  0
  140.7020   70.8710  228.0710 C   0  0  0  0  0  0  0  0  0  0  0  0
  140.8420   71.6020  226.9080 C   0  0  0  0  0  0  0  0  0  0  0  0
  140.4130   71.1510  225.6760 C   0  0  0  0  0  0  0  0  0  0  0  0
  140.5530   71.8620  224.5620 N   0  0  0  0  0  0  0  0  0  0  0  0
  142.5945   78.2547  222.0187 H   0  0  0  0  0  0  0  0  0  0  0  0
  140.2604   79.3109  220.2708 H   0  0  0  0  0  0  0  0  0  0  0  0
  141.8297   80.0575  220.4286 H   0  0  0  0  0  0  0  0  0  0  0  0
  141.1385   78.1865  218.4375 H   0  0  0  0  0  0  0  0  0  0  0  0
  142.8152   78.4901  218.9210 H   0  0  0  0  0  0  0  0  0  0  0  0
  141.3909   76.0263  219.2506 H   0  0  0  0  0  0  0  0  0  0  0  0
  142.9160   76.3794  220.0239 H   0  0  0  0  0  0  0  0  0  0  0  0
  139.2244   74.5783  220.4615 H   0  0  0  0  0  0  0  0  0  0  0  0
  140.9754   74.3074  220.4658 H   0  0  0  0  0  0  0  0  0  0  0  0
  139.5500   74.0140  223.1500 H   0  0  0  0  0  0  0  0  0  0  0  0
  139.2062   69.8537  222.2655 H   0  0  0  0  0  0  0  0  0  0  0  0
  138.9013   68.4576  224.3085 H   0  0  0  0  0  0  0  0  0  0  0  0
  139.1853   68.1784  226.6863 H   0  0  0  0  0  0  0  0  0  0  0  0
  141.0542   71.2539  229.0402 H   0  0  0  0  0  0  0  0  0  0  0  0
  141.3185   72.5917  226.9661 H   0  0  0  0  0  0  0  0  0  0  0  0
  1  2  3  0
  2  3  1  0
  3  4  1  0
  4  5  1  0
  5  6  1  0
  6  7  1  0
  7  8  1  0
  8  9  2  0
  8 10  1  0
 10 11  1  0
 11 12  1  0
 12 13  2  0
 12 14  1  0
 14 15  2  0
 15 16  1  0
 16 17  2  0
 17 18  1  0
 18 19  2  0
 19 20  1  0
 19 21  1  0
 21 22  2  0
 22 23  1  0
 23 24  2  0
  7  3  1  0
 24 14  1  0
 23 17  1  0
  3 25  1  1
  4 26  1  0
  4 27  1  0
  5 28  1  0
  5 29  1  0
  6 30  1  0
  6 31  1  0
 10 32  1  0
 10 33  1  0
 11 34  1  0
 15 35  1  0
 16 36  1  0
 18 37  1  0
 21 38  1  0
 22 39  1  0
M  END
>  <smiles>  (39) 
N#C[C@@H]1CCCN1C(=O)CNC(=O)c1ccc2cc(F)ccc2n1

>  <score_type>  (39) 
oracle

>  <origin>  (39) 
autodockgpu

>  <m_score__min__energy>  (39) 
-7.2999999999999998

>  <m_primary>  (39) 
energy

>  <rmsd>  (39) 
2.1143765746986958

>  <m_score__min__rmsd>  (39) 
2.1143765746986958

>  <meeko>  (39) 
{"free_energy": -6.92, "intermolecular_energy": -8.41, "internal_energy": -1.4, "cluster_size": 10, "cluster_id": 2, "rank_in_cluster": 5}

>  <energy>  (39) 
-6.97

>  <cluster_rmsd>  (39) 
0.06

>  <cluster>  (39) 
2

$$$$

     RDKit          3D

 39 41  0  0  0  0  0  0  0  0999 V2000
  139.1950   67.4150  225.5880 N   0  0  0  0  0  0  0  0  0  0  0  0
  139.7970   68.3190  225.9650 C   0  0  0  0  0  0  0  0  0  0  0  0
  140.5370   69.4640  226.4200 C   0  0  2  0  0  0  0  0  0  0  0  0
  140.1780   69.8810  227.8320 C   0  0  0  0  0  0  0  0  0  0  0  0
  140.7530   71.2850  227.9080 C   0  0  0  0  0  0  0  0  0  0  0  0
  140.9880   71.7230  226.4570 C   0  0  0  0  0  0  0  0  0  0  0  0
  140.2810   70.6810  225.6970 N   0  0  0  0  0  0  0  0  0  0  0  0
  139.5550   70.9720  224.5260 C   0  0  0  0  0  0  0  0  0  0  0  0
  138.3160   71.1690  224.6480 O   0  0  0  0  0  0  0  0  0  0  0  0
  140.1350   71.0610  223.1660 C   0  0  0  0  0  0  0  0  0  0  0  0
  140.1800   72.4960  222.8370 N   0  0  0  0  0  0  0  0  0  0  0  0
  141.0510   73.0050  221.8350 C   0  0  0  0  0  0  0  0  0  0  0  0
  141.8390   72.2910  221.1650 O   0  0  0  0  0  0  0  0  0  0  0  0
  141.0340   74.4570  221.5640 C   0  0  0  0  0  0  0  0  0  0  0  0
  141.8820   75.0190  220.6420 C   0  0  0  0  0  0  0  0  0  0  0  0
  141.8410   76.3870  220.4110 C   0  0  0  0  0  0  0  0  0  0  0  0
  140.9500   77.1630  221.1080 C   0  0  0  0  0  0  0  0  0  0  0  0
  140.8810   78.5310  220.9030 C   0  0  0  0  0  0  0  0  0  0  0  0
  139.9990   79.3100  221.5910 C   0  0  0  0  0  0  0  0  0  0  0  0
  139.9240   80.6400  221.3990 F   0  0  0  0  0  0  0  0  0  0  0  0
  139.1340   78.7560  222.5260 C   0  0  0  0  0  0  0  0  0  0  0  0
  139.2200   77.3900  222.7140 C   0  0  0  0  0  0  0  0  0  0  0  0
  140.1070   76.5870  222.0270 C   0  0  0  0  0  0  0  0  0  0  0  0
  140.1820   75.2740  222.2160 N   0  0  0  0  0  0  0  0  0  0  0  0
  141.5688   69.1038  226.2951 H   0  0  0  0  0  0  0  0  0  0  0  0
  139.0881   69.8878  227.9809 H   0  0  0  0  0  0  0  0  0  0  0  0
  140.5669   69.2021  228.6052 H   0  0  0  0  0  0  0  0  0  0  0  0
  140.0418   71.9634  228.4019 H   0  0  0  0  0  0  0  0  0  0  0  0
  141.6846   71.3085  228.4925 H   0  0  0  0  0  0  0  0  0  0  0  0
  140.5571   72.7169  226.2661 H   0  0  0  0  0  0  0  0  0  0  0  0
  142.0514   71.8168  226.1918 H   0  0  0  0  0  0  0  0  0  0  0  0
  141.1487   70.6342  223.1541 H   0  0  0  0  0  0  0  0  0  0  0  0
  139.5358   70.4986  222.4348 H   0  0  0  0  0  0  0  0  0  0  0  0
  139.5600   73.1880  223.3400 H   0  0  0  0  0  0  0  0  0  0  0  0
  142.5918   74.3870  220.0881 H   0  0  0  0  0  0  0  0  0  0  0  0
  142.5177   76.8454  219.6748 H   0  0  0  0  0  0  0  0  0  0  0  0
  141.5529   78.9993  220.1687 H   0  0  0  0  0  0  0  0  0  0  0  0
  138.4174   79.3731  223.0878 H   0  0  0  0  0  0  0  0  0  0  0  0
  138.5484   76.9196  223.4473 H   0  0  0  0  0  0  0  0  0  0  0  0
  1  2  3  0
  2  3  1  0
  3  4  1  0
  4  5  1  0
  5  6  1  0
  6  7  1  0
  7  8  1  0
  8  9  2  0
  8 10  1  0
 10 11  1  0
 11 12  1  0
 12 13  2  0
 12 14  1  0
 14 15  2  0
 15 16  1  0
 16 17  2  0
 17 18  1  0
 18 19  2  0
 19 20  1  0
 19 21  1  0
 21 22  2  0
 22 23  1  0
 23 24  2  0
  7  3  1  0
 24 14  1  0
 23 17  1  0
  3 25  1  1
  4 26  1  0
  4 27  1  0
  5 28  1  0
  5 29  1  0
  6 30  1  0
  6 31  1  0
 10 32  1  0
 10 33  1  0
 11 34  1  0
 15 35  1  0
 16 36  1  0
 18 37  1  0
 21 38  1  0
 22 39  1  0
M  END
>  <smiles>  (40) 
N#C[C@@H]1CCCN1C(=O)CNC(=O)c1ccc2cc(F)ccc2n1

>  <score_type>  (40) 
oracle

>  <origin>  (40) 
autodockgpu

>  <m_score__min__energy>  (40) 
-7.2999999999999998

>  <m_primary>  (40) 
energy

>  <rmsd>  (40) 
8.860585245185865

>  <m_score__min__rmsd>  (40) 
8.860585245185865

>  <meeko>  (40) 
{"free_energy": -7.16, "intermolecular_energy": -8.65, "internal_energy": -1.38, "cluster_size": 37, "cluster_id": 1, "rank_in_cluster": 26}

>  <energy>  (40) 
-6.97

>  <cluster_rmsd>  (40) 
0.05

>  <cluster>  (40) 
2

$$$$

     RDKit          3D

 39 41  0  0  0  0  0  0  0  0999 V2000
  141.2460   72.2640  227.1640 N   0  0  0  0  0  0  0  0  0  0  0  0
  140.7000   71.2600  227.0390 C   0  0  0  0  0  0  0  0  0  0  0  0
  139.9960   70.0160  226.8900 C   0  0  2  0  0  0  0  0  0  0  0  0
  140.9100   68.8070  226.9290 C   0  0  0  0  0  0  0  0  0  0  0  0
  140.0230   67.7170  226.3540 C   0  0  0  0  0  0  0  0  0  0  0  0
  138.8760   68.4390  225.6380 C   0  0  0  0  0  0  0  0  0  0  0  0
  139.3470   69.8320  225.6190 N   0  0  0  0  0  0  0  0  0  0  0  0
  139.1270   70.6820  224.5180 C   0  0  0  0  0  0  0  0  0  0  0  0
  138.1600   71.4870  224.5940 O   0  0  0  0  0  0  0  0  0  0  0  0
  139.9410   70.7000  223.2810 C   0  0  0  0  0  0  0  0  0  0  0  0
  140.0820   72.1170  222.9080 N   0  0  0  0  0  0  0  0  0  0  0  0
  140.9900   72.5360  221.8970 C   0  0  0  0  0  0  0  0  0  0  0  0
  141.7320   71.7520  221.2540 O   0  0  0  0  0  0  0  0  0  0  0  0
  141.0710   73.9770  221.5820 C   0  0  0  0  0  0  0  0  0  0  0  0
  141.9720   74.4560  220.6620 C   0  0  0  0  0  0  0  0  0  0  0  0
  142.0230   75.8150  220.3890 C   0  0  0  0  0  0  0  0  0  0  0  0
  141.1680   76.6670  221.0410 C   0  0  0  0  0  0  0  0  0  0  0  0
  141.1910   78.0300  220.7940 C   0  0  0  0  0  0  0  0  0  0  0  0
  140.3460   78.8840  221.4380 C   0  0  0  0  0  0  0  0  0  0  0  0
  140.3600   80.2090  221.2040 F   0  0  0  0  0  0  0  0  0  0  0  0
  139.4290   78.4150  222.3700 C   0  0  0  0  0  0  0  0  0  0  0  0
  139.4240   77.0540  222.6010 C   0  0  0  0  0  0  0  0  0  0  0  0
  140.2720   76.1750  221.9590 C   0  0  0  0  0  0  0  0  0  0  0  0
  140.2600   74.8660  222.1890 N   0  0  0  0  0  0  0  0  0  0  0  0
  139.2843   70.0822  227.7261 H   0  0  0  0  0  0  0  0  0  0  0  0
  141.8044   68.9627  226.3078 H   0  0  0  0  0  0  0  0  0  0  0  0
  141.2973   68.5780  227.9327 H   0  0  0  0  0  0  0  0  0  0  0  0
  140.5896   67.0994  225.6416 H   0  0  0  0  0  0  0  0  0  0  0  0
  139.6477   67.0462  227.1409 H   0  0  0  0  0  0  0  0  0  0  0  0
  138.7363   68.0516  224.6180 H   0  0  0  0  0  0  0  0  0  0  0  0
  137.8998   68.3104  226.1285 H   0  0  0  0  0  0  0  0  0  0  0  0
  140.9290   70.2537  223.4672 H   0  0  0  0  0  0  0  0  0  0  0  0
  139.4659   70.1175  222.4779 H   0  0  0  0  0  0  0  0  0  0  0  0
  139.5080   72.8640  223.3860 H   0  0  0  0  0  0  0  0  0  0  0  0
  142.6512   73.7635  220.1432 H   0  0  0  0  0  0  0  0  0  0  0  0
  142.7433   76.2065  219.6556 H   0  0  0  0  0  0  0  0  0  0  0  0
  141.9070   78.4319  220.0620 H   0  0  0  0  0  0  0  0  0  0  0  0
  138.7420   79.0934  222.8970 H   0  0  0  0  0  0  0  0  0  0  0  0
  138.7088   76.6504  223.3329 H   0  0  0  0  0  0  0  0  0  0  0  0
  1  2  3  0
  2  3  1  0
  3  4  1  0
  4  5  1  0
  5  6  1  0
  6  7  1  0
  7  8  1  0
  8  9  2  0
  8 10  1  0
 10 11  1  0
 11 12  1  0
 12 13  2  0
 12 14  1  0
 14 15  2  0
 15 16  1  0
 16 17  2  0
 17 18  1  0
 18 19  2  0
 19 20  1  0
 19 21  1  0
 21 22  2  0
 22 23  1  0
 23 24  2  0
  7  3  1  0
 24 14  1  0
 23 17  1  0
  3 25  1  1
  4 26  1  0
  4 27  1  0
  5 28  1  0
  5 29  1  0
  6 30  1  0
  6 31  1  0
 10 32  1  0
 10 33  1  0
 11 34  1  0
 15 35  1  0
 16 36  1  0
 18 37  1  0
 21 38  1  0
 22 39  1  0
M  END
>  <smiles>  (41) 
N#C[C@@H]1CCCN1C(=O)CNC(=O)c1ccc2cc(F)ccc2n1

>  <score_type>  (41) 
oracle

>  <origin>  (41) 
autodockgpu

>  <m_score__min__energy>  (41) 
-7.2999999999999998

>  <m_primary>  (41) 
energy

>  <rmsd>  (41) 
8.790543723041749

>  <m_score__min__rmsd>  (41) 
8.790543723041749

>  <meeko>  (41) 
{"free_energy": -6.48, "intermolecular_energy": -7.97, "internal_energy": -1.79, "cluster_size": 37, "cluster_id": 1, "rank_in_cluster": 37}

>  <energy>  (41) 
-6.95

>  <cluster_rmsd>  (41) 
0.17

>  <cluster>  (41) 
2

$$$$

     RDKit          3D

 39 41  0  0  0  0  0  0  0  0999 V2000
  141.3120   72.1870  227.9620 N   0  0  0  0  0  0  0  0  0  0  0  0
  140.7250   71.2430  227.6690 C   0  0  0  0  0  0  0  0  0  0  0  0
  139.9810   70.0760  227.2830 C   0  0  2  0  0  0  0  0  0  0  0  0
  140.6430   68.7810  227.7100 C   0  0  0  0  0  0  0  0  0  0  0  0
  139.9190   67.7540  226.8580 C   0  0  0  0  0  0  0  0  0  0  0  0
  139.2450   68.5430  225.7280 C   0  0  0  0  0  0  0  0  0  0  0  0
  139.8610   69.8710  225.8640 N   0  0  0  0  0  0  0  0  0  0  0  0
  140.1990   70.6570  224.7460 C   0  0  0  0  0  0  0  0  0  0  0  0
  141.3620   71.1420  224.7100 O   0  0  0  0  0  0  0  0  0  0  0  0
  139.2940   70.9570  223.6120 C   0  0  0  0  0  0  0  0  0  0  0  0
  139.7650   72.2300  223.0420 N   0  0  0  0  0  0  0  0  0  0  0  0
  140.6580   72.2680  221.9360 C   0  0  0  0  0  0  0  0  0  0  0  0
  141.1120   71.2430  221.3680 O   0  0  0  0  0  0  0  0  0  0  0  0
  141.0820   73.5870  221.4220 C   0  0  0  0  0  0  0  0  0  0  0  0
  141.8800   73.6950  220.3100 C   0  0  0  0  0  0  0  0  0  0  0  0
  142.2600   74.9490  219.8540 C   0  0  0  0  0  0  0  0  0  0  0  0
  141.8320   76.0690  220.5200 C   0  0  0  0  0  0  0  0  0  0  0  0
  142.1920   77.3360  220.0930 C   0  0  0  0  0  0  0  0  0  0  0  0
  141.7710   78.4540  220.7490 C   0  0  0  0  0  0  0  0  0  0  0  0
  142.1160   79.6900  220.3420 F   0  0  0  0  0  0  0  0  0  0  0  0
  140.9630   78.3610  221.8760 C   0  0  0  0  0  0  0  0  0  0  0  0
  140.6180   77.0880  222.2840 C   0  0  0  0  0  0  0  0  0  0  0  0
  141.0340   75.9450  221.6320 C   0  0  0  0  0  0  0  0  0  0  0  0
  140.6950   74.7250  222.0330 N   0  0  0  0  0  0  0  0  0  0  0  0
  139.0145   70.2808  227.7666 H   0  0  0  0  0  0  0  0  0  0  0  0
  141.7208   68.7928  227.4904 H   0  0  0  0  0  0  0  0  0  0  0  0
  140.5744   68.5855  228.7903 H   0  0  0  0  0  0  0  0  0  0  0  0
  140.6343   67.0282  226.4437 H   0  0  0  0  0  0  0  0  0  0  0  0
  139.1840   67.1866  227.4478 H   0  0  0  0  0  0  0  0  0  0  0  0
  139.4659   68.0999  224.7457 H   0  0  0  0  0  0  0  0  0  0  0  0
  138.1471   68.5573  225.7943 H   0  0  0  0  0  0  0  0  0  0  0  0
  139.3480   70.1577  222.8583 H   0  0  0  0  0  0  0  0  0  0  0  0
  138.2464   71.0259  223.9402 H   0  0  0  0  0  0  0  0  0  0  0  0
  139.4480   73.1550  223.4430 H   0  0  0  0  0  0  0  0  0  0  0  0
  142.2169   72.7905  219.7825 H   0  0  0  0  0  0  0  0  0  0  0  0
  142.9001   75.0443  218.9645 H   0  0  0  0  0  0  0  0  0  0  0  0
  142.8319   77.4426  219.2047 H   0  0  0  0  0  0  0  0  0  0  0  0
  140.6164   79.2551  222.4149 H   0  0  0  0  0  0  0  0  0  0  0  0
  139.9796   76.9793  223.1732 H   0  0  0  0  0  0  0  0  0  0  0  0
  1  2  3  0
  2  3  1  0
  3  4  1  0
  4  5  1  0
  5  6  1  0
  6  7  1  0
  7  8  1  0
  8  9  2  0
  8 10  1  0
 10 11  1  0
 11 12  1  0
 12 13  2  0
 12 14  1  0
 14 15  2  0
 15 16  1  0
 16 17  2  0
 17 18  1  0
 18 19  2  0
 19 20  1  0
 19 21  1  0
 21 22  2  0
 22 23  1  0
 23 24  2  0
  7  3  1  0
 24 14  1  0
 23 17  1  0
  3 25  1  1
  4 26  1  0
  4 27  1  0
  5 28  1  0
  5 29  1  0
  6 30  1  0
  6 31  1  0
 10 32  1  0
 10 33  1  0
 11 34  1  0
 15 35  1  0
 16 36  1  0
 18 37  1  0
 21 38  1  0
 22 39  1  0
M  END
>  <smiles>  (42) 
N#C[C@@H]1CCCN1C(=O)CNC(=O)c1ccc2cc(F)ccc2n1

>  <score_type>  (42) 
oracle

>  <origin>  (42) 
autodockgpu

>  <m_score__min__energy>  (42) 
-7.2999999999999998

>  <m_primary>  (42) 
energy

>  <rmsd>  (42) 
8.855567339054515

>  <m_score__min__rmsd>  (42) 
8.855567339054515

>  <meeko>  (42) 
{"free_energy": -7.24, "intermolecular_energy": -8.73, "internal_energy": -1.29, "cluster_size": 37, "cluster_id": 1, "rank_in_cluster": 10}

>  <energy>  (42) 
-6.92

>  <cluster_rmsd>  (42) 
0.13

>  <cluster>  (42) 
2

$$$$

     RDKit          3D

 39 41  0  0  0  0  0  0  0  0999 V2000
  141.2070   71.6350  228.4560 N   0  0  0  0  0  0  0  0  0  0  0  0
  140.6520   70.7550  227.9660 C   0  0  0  0  0  0  0  0  0  0  0  0
  139.9530   69.6700  227.3340 C   0  0  2  0  0  0  0  0  0  0  0  0
  140.7020   68.3540  227.4130 C   0  0  0  0  0  0  0  0  0  0  0  0
  139.9930   67.5190  226.3620 C   0  0  0  0  0  0  0  0  0  0  0  0
  139.2270   68.5120  225.4800 C   0  0  0  0  0  0  0  0  0  0  0  0
  139.7780   69.8040  225.9130 N   0  0  0  0  0  0  0  0  0  0  0  0
  140.0210   70.8550  225.0070 C   0  0  0  0  0  0  0  0  0  0  0  0
  140.6050   71.8790  225.4540 O   0  0  0  0  0  0  0  0  0  0  0  0
  139.6430   70.8480  223.5750 C   0  0  0  0  0  0  0  0  0  0  0  0
  140.0630   72.1530  223.0370 N   0  0  0  0  0  0  0  0  0  0  0  0
  140.6460   72.2760  221.7460 C   0  0  0  0  0  0  0  0  0  0  0  0
  140.8470   71.3040  220.9750 O   0  0  0  0  0  0  0  0  0  0  0  0
  141.0390   73.6220  221.2800 C   0  0  0  0  0  0  0  0  0  0  0  0
  141.7750   73.7910  220.1330 C   0  0  0  0  0  0  0  0  0  0  0  0
  142.1290   75.0680  219.7230 C   0  0  0  0  0  0  0  0  0  0  0  0
  141.7360   76.1500  220.4690 C   0  0  0  0  0  0  0  0  0  0  0  0
  142.0710   77.4390  220.0900 C   0  0  0  0  0  0  0  0  0  0  0  0
  141.6850   78.5200  220.8260 C   0  0  0  0  0  0  0  0  0  0  0  0
  142.0050   79.7770  220.4660 F   0  0  0  0  0  0  0  0  0  0  0  0
  140.9390   78.3650  221.9880 C   0  0  0  0  0  0  0  0  0  0  0  0
  140.6180   77.0710  222.3470 C   0  0  0  0  0  0  0  0  0  0  0  0
  141.0000   75.9660  221.6140 C   0  0  0  0  0  0  0  0  0  0  0  0
  140.6850   74.7250  221.9690 N   0  0  0  0  0  0  0  0  0  0  0  0
  139.0008   69.6919  227.8844 H   0  0  0  0  0  0  0  0  0  0  0  0
  141.7661   68.4852  227.1672 H   0  0  0  0  0  0  0  0  0  0  0  0
  140.6954   67.9012  228.4155 H   0  0  0  0  0  0  0  0  0  0  0  0
  140.7247   66.9593  225.7609 H   0  0  0  0  0  0  0  0  0  0  0  0
  139.3168   66.7827  226.8209 H   0  0  0  0  0  0  0  0  0  0  0  0
  139.4246   68.3320  224.4130 H   0  0  0  0  0  0  0  0  0  0  0  0
  138.1342   68.4418  225.5838 H   0  0  0  0  0  0  0  0  0  0  0  0
  140.1600   70.0329  223.0474 H   0  0  0  0  0  0  0  0  0  0  0  0
  138.5626   70.6877  223.4446 H   0  0  0  0  0  0  0  0  0  0  0  0
  139.9410   73.0380  223.6020 H   0  0  0  0  0  0  0  0  0  0  0  0
  142.0829   72.9164  219.5412 H   0  0  0  0  0  0  0  0  0  0  0  0
  142.7203   75.2119  218.8067 H   0  0  0  0  0  0  0  0  0  0  0  0
  142.6615   77.5943  219.1750 H   0  0  0  0  0  0  0  0  0  0  0  0
  140.6207   79.2284  222.5906 H   0  0  0  0  0  0  0  0  0  0  0  0
  140.0288   76.9131  223.2624 H   0  0  0  0  0  0  0  0  0  0  0  0
  1  2  3  0
  2  3  1  0
  3  4  1  0
  4  5  1  0
  5  6  1  0
  6  7  1  0
  7  8  1  0
  8  9  2  0
  8 10  1  0
 10 11  1  0
 11 12  1  0
 12 13  2  0
 12 14  1  0
 14 15  2  0
 15 16  1  0
 16 17  2  0
 17 18  1  0
 18 19  2  0
 19 20  1  0
 19 21  1  0
 21 22  2  0
 22 23  1  0
 23 24  2  0
  7  3  1  0
 24 14  1  0
 23 17  1  0
  3 25  1  1
  4 26  1  0
  4 27  1  0
  5 28  1  0
  5 29  1  0
  6 30  1  0
  6 31  1  0
 10 32  1  0
 10 33  1  0
 11 34  1  0
 15 35  1  0
 16 36  1  0
 18 37  1  0
 21 38  1  0
 22 39  1  0
M  END
>  <smiles>  (43) 
N#C[C@@H]1CCCN1C(=O)CNC(=O)c1ccc2cc(F)ccc2n1

>  <score_type>  (43) 
oracle

>  <origin>  (43) 
autodockgpu

>  <m_score__min__energy>  (43) 
-7.2999999999999998

>  <m_primary>  (43) 
energy

>  <rmsd>  (43) 
8.883391591493345

>  <m_score__min__rmsd>  (43) 
8.883391591493345

>  <meeko>  (43) 
{"free_energy": -7.13, "intermolecular_energy": -8.62, "internal_energy": -1.59, "cluster_size": 37, "cluster_id": 1, "rank_in_cluster": 29}

>  <energy>  (43) 
-6.91

>  <cluster_rmsd>  (43) 
0.13

>  <cluster>  (43) 
2

$$$$

     RDKit          3D

 39 41  0  0  0  0  0  0  0  0999 V2000
  141.2590   71.5090  228.4270 N   0  0  0  0  0  0  0  0  0  0  0  0
  140.7160   70.6310  227.9220 C   0  0  0  0  0  0  0  0  0  0  0  0
  140.0160   69.5480  227.2870 C   0  0  2  0  0  0  0  0  0  0  0  0
  140.7950   68.2480  227.3010 C   0  0  0  0  0  0  0  0  0  0  0  0
  140.0640   67.4250  226.2550 C   0  0  0  0  0  0  0  0  0  0  0  0
  139.2430   68.4240  225.4310 C   0  0  0  0  0  0  0  0  0  0  0  0
  139.7820   69.7160  225.8780 N   0  0  0  0  0  0  0  0  0  0  0  0
  139.9670   70.7960  224.9930 C   0  0  0  0  0  0  0  0  0  0  0  0
  140.3840   71.8800  225.4830 O   0  0  0  0  0  0  0  0  0  0  0  0
  139.7080   70.7550  223.5350 C   0  0  0  0  0  0  0  0  0  0  0  0
  140.1120   72.0710  223.0130 N   0  0  0  0  0  0  0  0  0  0  0  0
  140.7320   72.2120  221.7410 C   0  0  0  0  0  0  0  0  0  0  0  0
  140.9840   71.2480  220.9760 O   0  0  0  0  0  0  0  0  0  0  0  0
  141.1050   73.5690  221.2900 C   0  0  0  0  0  0  0  0  0  0  0  0
  141.8530   73.7610  220.1540 C   0  0  0  0  0  0  0  0  0  0  0  0
  142.1880   75.0470  219.7580 C   0  0  0  0  0  0  0  0  0  0  0  0
  141.7640   76.1160  220.5070 C   0  0  0  0  0  0  0  0  0  0  0  0
  142.0790   77.4140  220.1420 C   0  0  0  0  0  0  0  0  0  0  0  0
  141.6630   78.4820  220.8810 C   0  0  0  0  0  0  0  0  0  0  0  0
  141.9640   79.7470  220.5340 F   0  0  0  0  0  0  0  0  0  0  0  0
  140.9060   78.3040  222.0310 C   0  0  0  0  0  0  0  0  0  0  0  0
  140.6040   77.0010  222.3770 C   0  0  0  0  0  0  0  0  0  0  0  0
  141.0170   75.9090  221.6410 C   0  0  0  0  0  0  0  0  0  0  0  0
  140.7210   74.6590  221.9830 N   0  0  0  0  0  0  0  0  0  0  0  0
  139.0857   69.5341  227.8738 H   0  0  0  0  0  0  0  0  0  0  0  0
  141.8458   68.4096  227.0186 H   0  0  0  0  0  0  0  0  0  0  0  0
  140.8366   67.7687  228.2902 H   0  0  0  0  0  0  0  0  0  0  0  0
  140.7838   66.8985  225.6111 H   0  0  0  0  0  0  0  0  0  0  0  0
  139.4225   66.6611  226.7187 H   0  0  0  0  0  0  0  0  0  0  0  0
  139.4028   68.2773  224.3526 H   0  0  0  0  0  0  0  0  0  0  0  0
  138.1568   68.3262  225.5749 H   0  0  0  0  0  0  0  0  0  0  0  0
  140.3021   69.9582  223.0637 H   0  0  0  0  0  0  0  0  0  0  0  0
  138.6500   70.5441  223.3199 H   0  0  0  0  0  0  0  0  0  0  0  0
  139.9490   72.9510  223.5750 H   0  0  0  0  0  0  0  0  0  0  0  0
  142.1854   72.8969  219.5600 H   0  0  0  0  0  0  0  0  0  0  0  0
  142.7887   75.2090  218.8509 H   0  0  0  0  0  0  0  0  0  0  0  0
  142.6780   77.5876  219.2359 H   0  0  0  0  0  0  0  0  0  0  0  0
  140.5641   79.1568  222.6358 H   0  0  0  0  0  0  0  0  0  0  0  0
  140.0054   76.8254  223.2830 H   0  0  0  0  0  0  0  0  0  0  0  0
  1  2  3  0
  2  3  1  0
  3  4  1  0
  4  5  1  0
  5  6  1  0
  6  7  1  0
  7  8  1  0
  8  9  2  0
  8 10  1  0
 10 11  1  0
 11 12  1  0
 12 13  2  0
 12 14  1  0
 14 15  2  0
 15 16  1  0
 16 17  2  0
 17 18  1  0
 18 19  2  0
 19 20  1  0
 19 21  1  0
 21 22  2  0
 22 23  1  0
 23 24  2  0
  7  3  1  0
 24 14  1  0
 23 17  1  0
  3 25  1  1
  4 26  1  0
  4 27  1  0
  5 28  1  0
  5 29  1  0
  6 30  1  0
  6 31  1  0
 10 32  1  0
 10 33  1  0
 11 34  1  0
 15 35  1  0
 16 36  1  0
 18 37  1  0
 21 38  1  0
 22 39  1  0
M  END
>  <smiles>  (44) 
N#C[C@@H]1CCCN1C(=O)CNC(=O)c1ccc2cc(F)ccc2n1

>  <score_type>  (44) 
oracle

>  <origin>  (44) 
autodockgpu

>  <m_score__min__energy>  (44) 
-7.2999999999999998

>  <m_primary>  (44) 
energy

>  <rmsd>  (44) 
8.873945541828176

>  <m_score__min__rmsd>  (44) 
8.873945541828176

>  <meeko>  (44) 
{"free_energy": -7.02, "intermolecular_energy": -8.51, "internal_energy": -1.66, "cluster_size": 37, "cluster_id": 1, "rank_in_cluster": 33}

>  <energy>  (44) 
-6.91

>  <cluster_rmsd>  (44) 
0.11

>  <cluster>  (44) 
2

$$$$

     RDKit          3D

 39 41  0  0  0  0  0  0  0  0999 V2000
  140.7490   71.8730  228.5050 N   0  0  0  0  0  0  0  0  0  0  0  0
  140.3670   70.9270  227.9750 C   0  0  0  0  0  0  0  0  0  0  0  0
  139.8680   69.7550  227.3100 C   0  0  2  0  0  0  0  0  0  0  0  0
  140.7160   68.5230  227.5610 C   0  0  0  0  0  0  0  0  0  0  0  0
  140.2440   67.5810  226.4670 C   0  0  0  0  0  0  0  0  0  0  0  0
  139.5240   68.4590  225.4360 C   0  0  0  0  0  0  0  0  0  0  0  0
  139.8860   69.8150  225.8730 N   0  0  0  0  0  0  0  0  0  0  0  0
  140.1590   70.8490  224.9560 C   0  0  0  0  0  0  0  0  0  0  0  0
  140.9530   71.7550  225.3260 O   0  0  0  0  0  0  0  0  0  0  0  0
  139.5830   70.9520  223.5950 C   0  0  0  0  0  0  0  0  0  0  0  0
  140.0280   72.2510  223.0630 N   0  0  0  0  0  0  0  0  0  0  0  0
  140.5950   72.3720  221.7650 C   0  0  0  0  0  0  0  0  0  0  0  0
  140.7640   71.4030  220.9830 O   0  0  0  0  0  0  0  0  0  0  0  0
  141.0140   73.7120  221.3050 C   0  0  0  0  0  0  0  0  0  0  0  0
  141.7600   73.8720  220.1630 C   0  0  0  0  0  0  0  0  0  0  0  0
  142.1380   75.1440  219.7590 C   0  0  0  0  0  0  0  0  0  0  0  0
  141.7600   76.2310  220.5070 C   0  0  0  0  0  0  0  0  0  0  0  0
  142.1190   77.5150  220.1340 C   0  0  0  0  0  0  0  0  0  0  0  0
  141.7480   78.6000  220.8720 C   0  0  0  0  0  0  0  0  0  0  0  0
  142.0930   79.8520  220.5170 F   0  0  0  0  0  0  0  0  0  0  0  0
  140.9940   78.4540  222.0290 C   0  0  0  0  0  0  0  0  0  0  0  0
  140.6480   77.1650  222.3820 C   0  0  0  0  0  0  0  0  0  0  0  0
  141.0150   76.0550  221.6480 C   0  0  0  0  0  0  0  0  0  0  0  0
  140.6760   74.8190  221.9970 N   0  0  0  0  0  0  0  0  0  0  0  0
  138.8489   69.7051  227.7211 H   0  0  0  0  0  0  0  0  0  0  0  0
  141.7877   68.7486  227.4582 H   0  0  0  0  0  0  0  0  0  0  0  0
  140.6079   68.1114  228.5754 H   0  0  0  0  0  0  0  0  0  0  0  0
  141.1024   67.0727  226.0035 H   0  0  0  0  0  0  0  0  0  0  0  0
  139.5797   66.8003  226.8660 H   0  0  0  0  0  0  0  0  0  0  0  0
  139.8882   68.2580  224.4177 H   0  0  0  0  0  0  0  0  0  0  0  0
  138.4387   68.2856  225.3906 H   0  0  0  0  0  0  0  0  0  0  0  0
  139.9521   70.1326  222.9608 H   0  0  0  0  0  0  0  0  0  0  0  0
  138.4856   70.8797  223.6155 H   0  0  0  0  0  0  0  0  0  0  0  0
  139.9340   73.1330  223.6370 H   0  0  0  0  0  0  0  0  0  0  0  0
  142.0568   72.9940  219.5705 H   0  0  0  0  0  0  0  0  0  0  0  0
  142.7362   75.2805  218.8460 H   0  0  0  0  0  0  0  0  0  0  0  0
  142.7166   77.6632  219.2224 H   0  0  0  0  0  0  0  0  0  0  0  0
  140.6882   79.3209  222.6332 H   0  0  0  0  0  0  0  0  0  0  0  0
  140.0503   77.0150  223.2932 H   0  0  0  0  0  0  0  0  0  0  0  0
  1  2  3  0
  2  3  1  0
  3  4  1  0
  4  5  1  0
  5  6  1  0
  6  7  1  0
  7  8  1  0
  8  9  2  0
  8 10  1  0
 10 11  1  0
 11 12  1  0
 12 13  2  0
 12 14  1  0
 14 15  2  0
 15 16  1  0
 16 17  2  0
 17 18  1  0
 18 19  2  0
 19 20  1  0
 19 21  1  0
 21 22  2  0
 22 23  1  0
 23 24  2  0
  7  3  1  0
 24 14  1  0
 23 17  1  0
  3 25  1  1
  4 26  1  0
  4 27  1  0
  5 28  1  0
  5 29  1  0
  6 30  1  0
  6 31  1  0
 10 32  1  0
 10 33  1  0
 11 34  1  0
 15 35  1  0
 16 36  1  0
 18 37  1  0
 21 38  1  0
 22 39  1  0
M  END
>  <smiles>  (45) 
N#C[C@@H]1CCCN1C(=O)CNC(=O)c1ccc2cc(F)ccc2n1

>  <score_type>  (45) 
oracle

>  <origin>  (45) 
autodockgpu

>  <m_score__min__energy>  (45) 
-7.2999999999999998

>  <m_primary>  (45) 
energy

>  <rmsd>  (45) 
8.894174409882663

>  <m_score__min__rmsd>  (45) 
8.894174409882663

>  <meeko>  (45) 
{"free_energy": -7.18, "intermolecular_energy": -8.67, "internal_energy": -1.49, "cluster_size": 37, "cluster_id": 1, "rank_in_cluster": 22}

>  <energy>  (45) 
-6.89

>  <cluster_rmsd>  (45) 
0.21

>  <cluster>  (45) 
2

$$$$

     RDKit          3D

 39 41  0  0  0  0  0  0  0  0999 V2000
  139.2130   67.4220  225.7260 N   0  0  0  0  0  0  0  0  0  0  0  0
  139.8250   68.3610  225.9840 C   0  0  0  0  0  0  0  0  0  0  0  0
  140.5730   69.5480  226.2940 C   0  0  2  0  0  0  0  0  0  0  0  0
  140.3180   70.0630  227.6960 C   0  0  0  0  0  0  0  0  0  0  0  0
  140.8660   71.4770  227.6230 C   0  0  0  0  0  0  0  0  0  0  0  0
  140.9750   71.8100  226.1310 C   0  0  0  0  0  0  0  0  0  0  0  0
  140.2340   70.7040  225.5080 N   0  0  0  0  0  0  0  0  0  0  0  0
  139.4110   70.8960  224.3810 C   0  0  0  0  0  0  0  0  0  0  0  0
  138.1810   71.0760  224.5880 O   0  0  0  0  0  0  0  0  0  0  0  0
  139.8800   70.8990  222.9760 C   0  0  0  0  0  0  0  0  0  0  0  0
  140.1100   72.3110  222.6270 N   0  0  0  0  0  0  0  0  0  0  0  0
  141.0250   72.6880  221.6060 C   0  0  0  0  0  0  0  0  0  0  0  0
  141.6990   71.8680  220.9340 O   0  0  0  0  0  0  0  0  0  0  0  0
  141.1960   74.1270  221.3160 C   0  0  0  0  0  0  0  0  0  0  0  0
  142.0330   74.5560  220.3160 C   0  0  0  0  0  0  0  0  0  0  0  0
  142.1720   75.9140  220.0690 C   0  0  0  0  0  0  0  0  0  0  0  0
  141.4690   76.8150  220.8290 C   0  0  0  0  0  0  0  0  0  0  0  0
  141.5830   78.1770  220.6110 C   0  0  0  0  0  0  0  0  0  0  0  0
  140.8880   79.0790  221.3610 C   0  0  0  0  0  0  0  0  0  0  0  0
  140.9930   80.4050  221.1570 F   0  0  0  0  0  0  0  0  0  0  0  0
  140.0380   78.6590  222.3770 C   0  0  0  0  0  0  0  0  0  0  0  0
  139.9400   77.2960  222.5770 C   0  0  0  0  0  0  0  0  0  0  0  0
  140.6350   76.3700  221.8270 C   0  0  0  0  0  0  0  0  0  0  0  0
  140.5340   75.0610  222.0280 N   0  0  0  0  0  0  0  0  0  0  0  0
  141.5992   69.1956  226.1130 H   0  0  0  0  0  0  0  0  0  0  0  0
  139.2435   70.0634  227.9314 H   0  0  0  0  0  0  0  0  0  0  0  0
  140.7817   69.4498  228.4827 H   0  0  0  0  0  0  0  0  0  0  0  0
  140.1817   72.1786  228.1224 H   0  0  0  0  0  0  0  0  0  0  0  0
  141.8405   71.5585  228.1267 H   0  0  0  0  0  0  0  0  0  0  0  0
  140.5082   72.7799  225.9042 H   0  0  0  0  0  0  0  0  0  0  0  0
  142.0117   71.9013  225.7748 H   0  0  0  0  0  0  0  0  0  0  0  0
  140.8142   70.3256  222.8838 H   0  0  0  0  0  0  0  0  0  0  0  0
  139.1435   70.4332  222.3047 H   0  0  0  0  0  0  0  0  0  0  0  0
  139.5960   73.0840  223.1310 H   0  0  0  0  0  0  0  0  0  0  0  0
  142.5916   73.8254  219.7126 H   0  0  0  0  0  0  0  0  0  0  0  0
  142.8408   76.2661  219.2698 H   0  0  0  0  0  0  0  0  0  0  0  0
  142.2494   78.5400  219.8146 H   0  0  0  0  0  0  0  0  0  0  0  0
  139.4722   79.3755  222.9906 H   0  0  0  0  0  0  0  0  0  0  0  0
  139.2750   76.9308  223.3735 H   0  0  0  0  0  0  0  0  0  0  0  0
  1  2  3  0
  2  3  1  0
  3  4  1  0
  4  5  1  0
  5  6  1  0
  6  7  1  0
  7  8  1  0
  8  9  2  0
  8 10  1  0
 10 11  1  0
 11 12  1  0
 12 13  2  0
 12 14  1  0
 14 15  2  0
 15 16  1  0
 16 17  2  0
 17 18  1  0
 18 19  2  0
 19 20  1  0
 19 21  1  0
 21 22  2  0
 22 23  1  0
 23 24  2  0
  7  3  1  0
 24 14  1  0
 23 17  1  0
  3 25  1  1
  4 26  1  0
  4 27  1  0
  5 28  1  0
  5 29  1  0
  6 30  1  0
  6 31  1  0
 10 32  1  0
 10 33  1  0
 11 34  1  0
 15 35  1  0
 16 36  1  0
 18 37  1  0
 21 38  1  0
 22 39  1  0
M  END
>  <smiles>  (46) 
N#C[C@@H]1CCCN1C(=O)CNC(=O)c1ccc2cc(F)ccc2n1

>  <score_type>  (46) 
oracle

>  <origin>  (46) 
autodockgpu

>  <m_score__min__energy>  (46) 
-7.2999999999999998

>  <m_primary>  (46) 
energy

>  <rmsd>  (46) 
8.704080832075435

>  <m_score__min__rmsd>  (46) 
8.704080832075435

>  <meeko>  (46) 
{"free_energy": -7.29, "intermolecular_energy": -8.78, "internal_energy": -1.35, "cluster_size": 37, "cluster_id": 1, "rank_in_cluster": 5}

>  <energy>  (46) 
-6.73

>  <cluster_rmsd>  (46) 
0.33

>  <cluster>  (46) 
2

$$$$

     RDKit          3D

 39 41  0  0  0  0  0  0  0  0999 V2000
  139.1830   67.4740  225.7940 N   0  0  0  0  0  0  0  0  0  0  0  0
  139.8110   68.4150  226.0010 C   0  0  0  0  0  0  0  0  0  0  0  0
  140.5900   69.5890  226.2830 C   0  0  2  0  0  0  0  0  0  0  0  0
  140.3700   70.1250  227.6840 C   0  0  0  0  0  0  0  0  0  0  0  0
  140.9460   71.5270  227.5850 C   0  0  0  0  0  0  0  0  0  0  0  0
  141.0360   71.8410  226.0860 C   0  0  0  0  0  0  0  0  0  0  0  0
  140.2610   70.7430  225.4900 N   0  0  0  0  0  0  0  0  0  0  0  0
  139.4220   70.9390  224.3760 C   0  0  0  0  0  0  0  0  0  0  0  0
  138.1910   71.0950  224.5990 O   0  0  0  0  0  0  0  0  0  0  0  0
  139.8750   70.9740  222.9660 C   0  0  0  0  0  0  0  0  0  0  0  0
  140.0830   72.3950  222.6400 N   0  0  0  0  0  0  0  0  0  0  0  0
  141.0390   72.8070  221.6720 C   0  0  0  0  0  0  0  0  0  0  0  0
  141.7700   72.0130  221.0290 O   0  0  0  0  0  0  0  0  0  0  0  0
  141.1850   74.2530  221.4030 C   0  0  0  0  0  0  0  0  0  0  0  0
  142.0590   74.7150  220.4500 C   0  0  0  0  0  0  0  0  0  0  0  0
  142.1730   76.0780  220.2220 C   0  0  0  0  0  0  0  0  0  0  0  0
  141.4070   76.9520  220.9520 C   0  0  0  0  0  0  0  0  0  0  0  0
  141.4940   78.3190  220.7510 C   0  0  0  0  0  0  0  0  0  0  0  0
  140.7370   79.1940  221.4720 C   0  0  0  0  0  0  0  0  0  0  0  0
  140.8140   80.5240  221.2840 F   0  0  0  0  0  0  0  0  0  0  0  0
  139.8470   78.7420  222.4380 C   0  0  0  0  0  0  0  0  0  0  0  0
  139.7770   77.3750  222.6220 C   0  0  0  0  0  0  0  0  0  0  0  0
  140.5360   76.4750  221.9020 C   0  0  0  0  0  0  0  0  0  0  0  0
  140.4610   75.1610  222.0870 N   0  0  0  0  0  0  0  0  0  0  0  0
  141.6052   69.2135  226.0874 H   0  0  0  0  0  0  0  0  0  0  0  0
  139.3000   70.1504  227.9379 H   0  0  0  0  0  0  0  0  0  0  0  0
  140.8345   69.5111  228.4697 H   0  0  0  0  0  0  0  0  0  0  0  0
  140.2851   72.2484  228.0878 H   0  0  0  0  0  0  0  0  0  0  0  0
  141.9306   71.5939  228.0710 H   0  0  0  0  0  0  0  0  0  0  0  0
  140.5855   72.8177  225.8556 H   0  0  0  0  0  0  0  0  0  0  0  0
  142.0678   71.9069  225.7105 H   0  0  0  0  0  0  0  0  0  0  0  0
  140.8154   70.4146  222.8530 H   0  0  0  0  0  0  0  0  0  0  0  0
  139.1367   70.5112  222.2947 H   0  0  0  0  0  0  0  0  0  0  0  0
  139.5220   73.1500  223.1230 H   0  0  0  0  0  0  0  0  0  0  0  0
  142.6670   74.0059  219.8691 H   0  0  0  0  0  0  0  0  0  0  0  0
  142.8723   76.4560  219.4616 H   0  0  0  0  0  0  0  0  0  0  0  0
  142.1895   78.7078  219.9926 H   0  0  0  0  0  0  0  0  0  0  0  0
  139.2298   79.4370  223.0261 H   0  0  0  0  0  0  0  0  0  0  0  0
  139.0820   76.9843  223.3798 H   0  0  0  0  0  0  0  0  0  0  0  0
  1  2  3  0
  2  3  1  0
  3  4  1  0
  4  5  1  0
  5  6  1  0
  6  7  1  0
  7  8  1  0
  8  9  2  0
  8 10  1  0
 10 11  1  0
 11 12  1  0
 12 13  2  0
 12 14  1  0
 14 15  2  0
 15 16  1  0
 16 17  2  0
 17 18  1  0
 18 19  2  0
 19 20  1  0
 19 21  1  0
 21 22  2  0
 22 23  1  0
 23 24  2  0
  7  3  1  0
 24 14  1  0
 23 17  1  0
  3 25  1  1
  4 26  1  0
  4 27  1  0
  5 28  1  0
  5 29  1  0
  6 30  1  0
  6 31  1  0
 10 32  1  0
 10 33  1  0
 11 34  1  0
 15 35  1  0
 16 36  1  0
 18 37  1  0
 21 38  1  0
 22 39  1  0
M  END
>  <smiles>  (47) 
N#C[C@@H]1CCCN1C(=O)CNC(=O)c1ccc2cc(F)ccc2n1

>  <score_type>  (47) 
oracle

>  <origin>  (47) 
autodockgpu

>  <m_score__min__energy>  (47) 
-7.2999999999999998

>  <m_primary>  (47) 
energy

>  <rmsd>  (47) 
8.710302298592367

>  <m_score__min__rmsd>  (47) 
8.710302298592367

>  <meeko>  (47) 
{"free_energy": -7.27, "intermolecular_energy": -8.76, "internal_energy": -1.35, "cluster_size": 37, "cluster_id": 1, "rank_in_cluster": 8}

>  <energy>  (47) 
-6.49

>  <cluster_rmsd>  (47) 
0.84

>  <cluster>  (47) 
2

$$$$

     RDKit          3D

 39 41  0  0  0  0  0  0  0  0999 V2000
  141.0770   71.8210  228.4930 N   0  0  0  0  0  0  0  0  0  0  0  0
  140.5770   70.9300  227.9670 C   0  0  0  0  0  0  0  0  0  0  0  0
  139.9450   69.8070  227.3310 C   0  0  2  0  0  0  0  0  0  0  0  0
  140.7180   68.5140  227.5010 C   0  0  0  0  0  0  0  0  0  0  0  0
  140.0960   67.6260  226.4380 C   0  0  0  0  0  0  0  0  0  0  0  0
  139.3640   68.5690  225.4760 C   0  0  0  0  0  0  0  0  0  0  0  0
  139.8560   69.8890  225.8970 N   0  0  0  0  0  0  0  0  0  0  0  0
  140.1310   70.9150  224.9720 C   0  0  0  0  0  0  0  0  0  0  0  0
  140.8560   71.8680  225.3660 O   0  0  0  0  0  0  0  0  0  0  0  0
  139.6320   70.9600  223.5780 C   0  0  0  0  0  0  0  0  0  0  0  0
  140.0570   72.2600  223.0350 N   0  0  0  0  0  0  0  0  0  0  0  0
  140.6510   72.3750  221.7480 C   0  0  0  0  0  0  0  0  0  0  0  0
  140.8590   71.3980  220.9850 O   0  0  0  0  0  0  0  0  0  0  0  0
  141.0480   73.7170  221.2770 C   0  0  0  0  0  0  0  0  0  0  0  0
  141.7710   73.8810  220.1210 C   0  0  0  0  0  0  0  0  0  0  0  0
  142.1290   75.1550  219.7060 C   0  0  0  0  0  0  0  0  0  0  0  0
  141.7540   76.2410  220.4570 C   0  0  0  0  0  0  0  0  0  0  0  0
  142.0940   77.5270  220.0730 C   0  0  0  0  0  0  0  0  0  0  0  0
  141.7260   78.6110  220.8140 C   0  0  0  0  0  0  0  0  0  0  0  0
  142.0510   79.8650  220.4490 F   0  0  0  0  0  0  0  0  0  0  0  0
  140.9940   78.4620  221.9850 C   0  0  0  0  0  0  0  0  0  0  0  0
  140.6680   77.1700  222.3490 C   0  0  0  0  0  0  0  0  0  0  0  0
  141.0320   76.0620  221.6120 C   0  0  0  0  0  0  0  0  0  0  0  0
  140.7120   74.8230  221.9710 N   0  0  0  0  0  0  0  0  0  0  0  0
  138.9603   69.8230  227.8209 H   0  0  0  0  0  0  0  0  0  0  0  0
  141.7920   68.6643  227.3167 H   0  0  0  0  0  0  0  0  0  0  0  0
  140.6591   68.0947  228.5163 H   0  0  0  0  0  0  0  0  0  0  0  0
  140.8769   67.0652  225.9034 H   0  0  0  0  0  0  0  0  0  0  0  0
  139.4098   66.8885  226.8797 H   0  0  0  0  0  0  0  0  0  0  0  0
  139.6327   68.3586  224.4303 H   0  0  0  0  0  0  0  0  0  0  0  0
  138.2688   68.4742  225.5142 H   0  0  0  0  0  0  0  0  0  0  0  0
  140.0682   70.1393  222.9896 H   0  0  0  0  0  0  0  0  0  0  0  0
  138.5387   70.8456  223.5383 H   0  0  0  0  0  0  0  0  0  0  0  0
  139.9310   73.1490  223.5940 H   0  0  0  0  0  0  0  0  0  0  0  0
  142.0654   73.0041  219.5257 H   0  0  0  0  0  0  0  0  0  0  0  0
  142.7092   75.2941  218.7818 H   0  0  0  0  0  0  0  0  0  0  0  0
  142.6735   77.6776  219.1502 H   0  0  0  0  0  0  0  0  0  0  0  0
  140.6897   79.3280  222.5911 H   0  0  0  0  0  0  0  0  0  0  0  0
  140.0896   77.0170  223.2721 H   0  0  0  0  0  0  0  0  0  0  0  0
  1  2  3  0
  2  3  1  0
  3  4  1  0
  4  5  1  0
  5  6  1  0
  6  7  1  0
  7  8  1  0
  8  9  2  0
  8 10  1  0
 10 11  1  0
 11 12  1  0
 12 13  2  0
 12 14  1  0
 14 15  2  0
 15 16  1  0
 16 17  2  0
 17 18  1  0
 18 19  2  0
 19 20  1  0
 19 21  1  0
 21 22  2  0
 22 23  1  0
 23 24  2  0
  7  3  1  0
 24 14  1  0
 23 17  1  0
  3 25  1  1
  4 26  1  0
  4 27  1  0
  5 28  1  0
  5 29  1  0
  6 30  1  0
  6 31  1  0
 10 32  1  0
 10 33  1  0
 11 34  1  0
 15 35  1  0
 16 36  1  0
 18 37  1  0
 21 38  1  0
 22 39  1  0
M  END
>  <smiles>  (48) 
N#C[C@@H]1CCCN1C(=O)CNC(=O)c1ccc2cc(F)ccc2n1

>  <score_type>  (48) 
oracle

>  <origin>  (48) 
autodockgpu

>  <m_score__min__energy>  (48) 
-7.2999999999999998

>  <m_primary>  (48) 
energy

>  <rmsd>  (48) 
8.891865868542252

>  <m_score__min__rmsd>  (48) 
8.891865868542252

>  <meeko>  (48) 
{"free_energy": -7.19, "intermolecular_energy": -8.69, "internal_energy": -1.51, "cluster_size": 37, "cluster_id": 1, "rank_in_cluster": 16}

>  <energy>  (48) 
-6.9

>  <cluster_rmsd>  (48) 
0.0

>  <cluster>  (48) 
3

$$$$

     RDKit          3D

 39 41  0  0  0  0  0  0  0  0999 V2000
  141.1420   71.7200  228.4750 N   0  0  0  0  0  0  0  0  0  0  0  0
  140.6230   70.8260  227.9730 C   0  0  0  0  0  0  0  0  0  0  0  0
  139.9710   69.7220  227.3250 C   0  0  2  0  0  0  0  0  0  0  0  0
  140.7550   68.4280  227.4220 C   0  0  0  0  0  0  0  0  0  0  0  0
  140.0950   67.5730  226.3540 C   0  0  0  0  0  0  0  0  0  0  0  0
  139.3210   68.5440  225.4540 C   0  0  0  0  0  0  0  0  0  0  0  0
  139.8250   69.8510  225.9000 N   0  0  0  0  0  0  0  0  0  0  0  0
  140.0590   70.9090  225.0000 C   0  0  0  0  0  0  0  0  0  0  0  0
  140.7190   71.8950  225.4260 O   0  0  0  0  0  0  0  0  0  0  0  0
  139.5900   70.9510  223.5960 C   0  0  0  0  0  0  0  0  0  0  0  0
  140.0420   72.2430  223.0540 N   0  0  0  0  0  0  0  0  0  0  0  0
  140.6200   72.3480  221.7590 C   0  0  0  0  0  0  0  0  0  0  0  0
  140.7900   71.3710  220.9870 O   0  0  0  0  0  0  0  0  0  0  0  0
  141.0470   73.6820  221.2890 C   0  0  0  0  0  0  0  0  0  0  0  0
  141.7940   73.8290  220.1450 C   0  0  0  0  0  0  0  0  0  0  0  0
  142.1790   75.0960  219.7320 C   0  0  0  0  0  0  0  0  0  0  0  0
  141.8070   76.1900  220.4700 C   0  0  0  0  0  0  0  0  0  0  0  0
  142.1740   77.4690  220.0870 C   0  0  0  0  0  0  0  0  0  0  0  0
  141.8090   78.5630  220.8160 C   0  0  0  0  0  0  0  0  0  0  0  0
  142.1600   79.8100  220.4510 F   0  0  0  0  0  0  0  0  0  0  0  0
  141.0530   78.4300  221.9740 C   0  0  0  0  0  0  0  0  0  0  0  0
  140.6990   77.1460  222.3370 C   0  0  0  0  0  0  0  0  0  0  0  0
  141.0600   76.0280  221.6120 C   0  0  0  0  0  0  0  0  0  0  0  0
  140.7140   74.7970  221.9710 N   0  0  0  0  0  0  0  0  0  0  0  0
  139.0060   69.7168  227.8530 H   0  0  0  0  0  0  0  0  0  0  0  0
  141.8205   68.5896  227.2016 H   0  0  0  0  0  0  0  0  0  0  0  0
  140.7374   67.9748  228.4241 H   0  0  0  0  0  0  0  0  0  0  0  0
  140.8566   67.0353  225.7702 H   0  0  0  0  0  0  0  0  0  0  0  0
  139.4299   66.8171  226.7970 H   0  0  0  0  0  0  0  0  0  0  0  0
  139.5483   68.3704  224.3918 H   0  0  0  0  0  0  0  0  0  0  0  0
  138.2285   68.4424  225.5321 H   0  0  0  0  0  0  0  0  0  0  0  0
  140.0286   70.1215  223.0218 H   0  0  0  0  0  0  0  0  0  0  0  0
  138.4965   70.8492  223.5340 H   0  0  0  0  0  0  0  0  0  0  0  0
  139.9480   73.1310  223.6190 H   0  0  0  0  0  0  0  0  0  0  0  0
  142.0856   72.9450  219.5588 H   0  0  0  0  0  0  0  0  0  0  0  0
  142.7787   75.2222  218.8185 H   0  0  0  0  0  0  0  0  0  0  0  0
  142.7731   77.6061  219.1747 H   0  0  0  0  0  0  0  0  0  0  0  0
  140.7518   79.3033  222.5712 H   0  0  0  0  0  0  0  0  0  0  0  0
  140.0998   77.0068  223.2489 H   0  0  0  0  0  0  0  0  0  0  0  0
  1  2  3  0
  2  3  1  0
  3  4  1  0
  4  5  1  0
  5  6  1  0
  6  7  1  0
  7  8  1  0
  8  9  2  0
  8 10  1  0
 10 11  1  0
 11 12  1  0
 12 13  2  0
 12 14  1  0
 14 15  2  0
 15 16  1  0
 16 17  2  0
 17 18  1  0
 18 19  2  0
 19 20  1  0
 19 21  1  0
 21 22  2  0
 22 23  1  0
 23 24  2  0
  7  3  1  0
 24 14  1  0
 23 17  1  0
  3 25  1  1
  4 26  1  0
  4 27  1  0
  5 28  1  0
  5 29  1  0
  6 30  1  0
  6 31  1  0
 10 32  1  0
 10 33  1  0
 11 34  1  0
 15 35  1  0
 16 36  1  0
 18 37  1  0
 21 38  1  0
 22 39  1  0
M  END
>  <smiles>  (49) 
N#C[C@@H]1CCCN1C(=O)CNC(=O)c1ccc2cc(F)ccc2n1

>  <score_type>  (49) 
oracle

>  <origin>  (49) 
autodockgpu

>  <m_score__min__energy>  (49) 
-7.2999999999999998

>  <m_primary>  (49) 
energy

>  <rmsd>  (49) 
8.881239777977642

>  <m_score__min__rmsd>  (49) 
8.881239777977642

>  <meeko>  (49) 
{"free_energy": -7.18, "intermolecular_energy": -8.67, "internal_energy": -1.55, "cluster_size": 37, "cluster_id": 1, "rank_in_cluster": 21}

>  <energy>  (49) 
-6.86

>  <cluster_rmsd>  (49) 
0.14

>  <cluster>  (49) 
3

$$$$

     RDKit          3D

 39 41  0  0  0  0  0  0  0  0999 V2000
  140.4070   79.1570  223.5630 N   0  0  0  0  0  0  0  0  0  0  0  0
  140.9740   78.7670  222.6430 C   0  0  0  0  0  0  0  0  0  0  0  0
  141.6660   78.2610  221.4890 C   0  0  2  0  0  0  0  0  0  0  0  0
  141.3970   79.0680  220.2340 C   0  0  0  0  0  0  0  0  0  0  0  0
  141.8740   78.1290  219.1400 C   0  0  0  0  0  0  0  0  0  0  0  0
  141.9540   76.7390  219.7840 C   0  0  0  0  0  0  0  0  0  0  0  0
  141.2630   76.9470  221.0640 N   0  0  0  0  0  0  0  0  0  0  0  0
  140.4220   75.9680  221.6280 C   0  0  0  0  0  0  0  0  0  0  0  0
  139.8450   76.2570  222.7110 O   0  0  0  0  0  0  0  0  0  0  0  0
  140.1670   74.6290  221.0490 C   0  0  0  0  0  0  0  0  0  0  0  0
  140.0000   73.7160  222.1910 N   0  0  0  0  0  0  0  0  0  0  0  0
  140.4050   72.3550  222.1250 C   0  0  0  0  0  0  0  0  0  0  0  0
  140.9260   71.8290  221.1100 O   0  0  0  0  0  0  0  0  0  0  0  0
  140.2030   71.5050  223.3170 C   0  0  0  0  0  0  0  0  0  0  0  0
  139.5720   70.2880  223.2250 C   0  0  0  0  0  0  0  0  0  0  0  0
  139.3980   69.5150  224.3630 C   0  0  0  0  0  0  0  0  0  0  0  0
  139.8600   69.9750  225.5710 C   0  0  0  0  0  0  0  0  0  0  0  0
  139.7030   69.2300  226.7270 C   0  0  0  0  0  0  0  0  0  0  0  0
  140.1590   69.6800  227.9310 C   0  0  0  0  0  0  0  0  0  0  0  0
  140.0120   68.9630  229.0600 F   0  0  0  0  0  0  0  0  0  0  0  0
  140.7990   70.9080  228.0390 C   0  0  0  0  0  0  0  0  0  0  0  0
  140.9430   71.6340  226.8740 C   0  0  0  0  0  0  0  0  0  0  0  0
  140.4890   71.1940  225.6470 C   0  0  0  0  0  0  0  0  0  0  0  0
  140.6330   71.9020  224.5320 N   0  0  0  0  0  0  0  0  0  0  0  0
  142.7066   78.2933  221.8441 H   0  0  0  0  0  0  0  0  0  0  0  0
  140.3257   79.2935  220.1269 H   0  0  0  0  0  0  0  0  0  0  0  0
  141.8968   80.0478  220.2236 H   0  0  0  0  0  0  0  0  0  0  0  0
  141.1600   78.1224  218.3033 H   0  0  0  0  0  0  0  0  0  0  0  0
  142.8472   78.4428  218.7346 H   0  0  0  0  0  0  0  0  0  0  0  0
  141.4382   75.9855  219.1707 H   0  0  0  0  0  0  0  0  0  0  0  0
  142.9818   76.3630  219.8942 H   0  0  0  0  0  0  0  0  0  0  0  0
  139.2534   74.6455  220.4366 H   0  0  0  0  0  0  0  0  0  0  0  0
  140.9927   74.3094  220.3962 H   0  0  0  0  0  0  0  0  0  0  0  0
  139.5700   74.0530  223.0960 H   0  0  0  0  0  0  0  0  0  0  0  0
  139.2061   69.9281  222.2521 H   0  0  0  0  0  0  0  0  0  0  0  0
  138.8932   68.5398  224.2982 H   0  0  0  0  0  0  0  0  0  0  0  0
  139.1994   68.2535  226.6734 H   0  0  0  0  0  0  0  0  0  0  0  0
  141.1720   71.2827  229.0036 H   0  0  0  0  0  0  0  0  0  0  0  0
  141.4444   72.6117  226.9259 H   0  0  0  0  0  0  0  0  0  0  0  0
  1  2  3  0
  2  3  1  0
  3  4  1  0
  4  5  1  0
  5  6  1  0
  6  7  1  0
  7  8  1  0
  8  9  2  0
  8 10  1  0
 10 11  1  0
 11 12  1  0
 12 13  2  0
 12 14  1  0
 14 15  2  0
 15 16  1  0
 16 17  2  0
 17 18  1  0
 18 19  2  0
 19 20  1  0
 19 21  1  0
 21 22  2  0
 22 23  1  0
 23 24  2  0
  7  3  1  0
 24 14  1  0
 23 17  1  0
  3 25  1  1
  4 26  1  0
  4 27  1  0
  5 28  1  0
  5 29  1  0
  6 30  1  0
  6 31  1  0
 10 32  1  0
 10 33  1  0
 11 34  1  0
 15 35  1  0
 16 36  1  0
 18 37  1  0
 21 38  1  0
 22 39  1  0
M  END
>  <smiles>  (50) 
N#C[C@@H]1CCCN1C(=O)CNC(=O)c1ccc2cc(F)ccc2n1

>  <score_type>  (50) 
oracle

>  <origin>  (50) 
autodockgpu

>  <m_score__min__energy>  (50) 
-7.2999999999999998

>  <m_primary>  (50) 
energy

>  <rmsd>  (50) 
2.1076064951661846

>  <m_score__min__rmsd>  (50) 
2.1076064951661846

>  <meeko>  (50) 
{"free_energy": -6.91, "intermolecular_energy": -8.4, "internal_energy": -1.4, "cluster_size": 10, "cluster_id": 2, "rank_in_cluster": 6}

>  <energy>  (50) 
-6.83

>  <cluster_rmsd>  (50) 
0.24

>  <cluster>  (50) 
3

$$$$
