
     RDKit          3D

 53 56  0  0  0  0  0  0  0  0999 V2000
  138.7140   70.8720  221.5300 O   0  0  0  0  0  0  0  0  0  0  0  0
  139.1880   71.5490  222.4780 C   0  0  0  0  0  0  0  0  0  0  0  0
  139.4680   72.9320  222.4060 N   0  0  0  0  0  0  0  0  0  0  0  0
  139.2190   73.6680  221.2060 C   0  0  0  0  0  0  0  0  0  0  0  0
  140.0790   74.8790  221.1920 C   0  0  0  0  0  0  0  0  0  0  0  0
  141.0940   74.8480  221.9620 O   0  0  0  0  0  0  0  0  0  0  0  0
  139.7990   76.0060  220.3750 N   0  0  0  0  0  0  0  0  0  0  0  0
  138.9420   75.9490  219.2110 C   0  0  0  0  0  0  0  0  0  0  0  0
  138.3760   77.3470  219.1690 C   0  0  2  0  0  0  0  0  0  0  0  0
  137.8860   77.7140  217.9370 O   0  0  0  0  0  0  0  0  0  0  0  0
  139.6100   78.1670  219.5800 C   0  0  0  0  0  0  0  0  0  0  0  0
  140.3220   77.3330  220.5940 C   0  0  1  0  0  0  0  0  0  0  0  0
  140.1260   77.8070  221.9810 C   0  0  0  0  0  0  0  0  0  0  0  0
  139.3460   77.3000  222.8080 O   0  0  0  0  0  0  0  0  0  0  0  0
  140.8920   78.9340  222.3990 N   0  0  0  0  0  0  0  0  0  0  0  0
  141.8650   79.7070  221.6340 C   0  0  0  0  0  0  0  0  0  0  0  0
  142.9580   80.0110  222.6080 C   0  0  0  0  0  0  0  0  0  0  0  0
  142.2390   80.1920  223.9040 C   0  0  0  0  0  0  0  0  0  0  0  0
  140.8790   79.5910  223.7150 C   0  0  0  0  0  0  0  0  0  0  0  0
  139.4690   70.8550  223.7410 C   0  0  0  0  0  0  0  0  0  0  0  0
  139.1830   69.5080  223.9020 C   0  0  0  0  0  0  0  0  0  0  0  0
  139.4290   68.8180  225.0650 C   0  0  0  0  0  0  0  0  0  0  0  0
  139.9930   69.5430  226.1120 C   0  0  0  0  0  0  0  0  0  0  0  0
  140.2430   68.8760  227.2730 C   0  0  0  0  0  0  0  0  0  0  0  0
  140.8040   69.5760  228.3260 C   0  0  0  0  0  0  0  0  0  0  0  0
  141.1030   70.9320  228.1970 C   0  0  0  0  0  0  0  0  0  0  0  0
  140.8270   71.5670  226.9870 C   0  0  0  0  0  0  0  0  0  0  0  0
  140.2680   70.8670  225.9360 C   0  0  0  0  0  0  0  0  0  0  0  0
  140.0110   71.4880  224.7910 N   0  0  0  0  0  0  0  0  0  0  0  0
  139.8650   73.4140  223.2500 H   0  0  0  0  0  0  0  0  0  0  0  0
  139.4525   73.0401  220.3335 H   0  0  0  0  0  0  0  0  0  0  0  0
  138.1604   73.9644  221.1656 H   0  0  0  0  0  0  0  0  0  0  0  0
  139.5180   75.7236  218.3014 H   0  0  0  0  0  0  0  0  0  0  0  0
  138.1755   75.1617  219.2628 H   0  0  0  0  0  0  0  0  0  0  0  0
  137.4947   77.4827  219.8131 H   0  0  0  0  0  0  0  0  0  0  0  0
  137.1690   78.3650  218.0670 H   0  0  0  0  0  0  0  0  0  0  0  0
  140.2573   78.3504  218.7097 H   0  0  0  0  0  0  0  0  0  0  0  0
  139.3306   79.1513  219.9839 H   0  0  0  0  0  0  0  0  0  0  0  0
  141.4144   77.3787  220.4734 H   0  0  0  0  0  0  0  0  0  0  0  0
  142.2510   79.1176  220.7893 H   0  0  0  0  0  0  0  0  0  0  0  0
  141.4260   80.6188  221.2029 H   0  0  0  0  0  0  0  0  0  0  0  0
  143.6720   79.1764  222.6691 H   0  0  0  0  0  0  0  0  0  0  0  0
  143.5494   80.8935  222.3224 H   0  0  0  0  0  0  0  0  0  0  0  0
  142.7754   79.6748  224.7132 H   0  0  0  0  0  0  0  0  0  0  0  0
  142.1728   81.2546  224.1808 H   0  0  0  0  0  0  0  0  0  0  0  0
  140.6761   78.8538  224.5058 H   0  0  0  0  0  0  0  0  0  0  0  0
  140.0936   80.3594  223.7683 H   0  0  0  0  0  0  0  0  0  0  0  0
  138.7367   68.9641  223.0564 H   0  0  0  0  0  0  0  0  0  0  0  0
  139.1926   67.7483  225.1638 H   0  0  0  0  0  0  0  0  0  0  0  0
  140.0046   67.8066  227.3709 H   0  0  0  0  0  0  0  0  0  0  0  0
  141.0161   69.0586  229.2733 H   0  0  0  0  0  0  0  0  0  0  0  0
  141.5481   71.4899  229.0340 H   0  0  0  0  0  0  0  0  0  0  0  0
  141.0567   72.6362  226.8683 H   0  0  0  0  0  0  0  0  0  0  0  0
  1  2  2  0
  2  3  1  0
  3  4  1  0
  4  5  1  0
  5  6  2  0
  5  7  1  0
  7  8  1  0
  8  9  1  0
  9 10  1  0
  9 11  1  0
 11 12  1  0
 12 13  1  0
 13 14  2  0
 13 15  1  0
 15 16  1  0
 16 17  1  0
 17 18  1  0
 18 19  1  0
  2 20  1  0
 20 21  2  0
 21 22  1  0
 22 23  2  0
 23 24  1  0
 24 25  2  0
 25 26  1  0
 26 27  2  0
 27 28  1  0
 28 29  2  0
 12  7  1  0
 19 15  1  0
 29 20  1  0
 28 23  1  0
  3 30  1  0
  4 31  1  0
  4 32  1  0
  8 33  1  0
  8 34  1  0
  9 35  1  1
 10 36  1  0
 11 37  1  0
 11 38  1  0
 12 39  1  6
 16 40  1  0
 16 41  1  0
 17 42  1  0
 17 43  1  0
 18 44  1  0
 18 45  1  0
 19 46  1  0
 19 47  1  0
 21 48  1  0
 22 49  1  0
 24 50  1  0
 25 51  1  0
 26 52  1  0
 27 53  1  0
M  END
>  <smiles>  (1) 
O=C(NCC(=O)N1C[C@H](O)C[C@H]1C(=O)N1CCCC1)c1ccc2ccccc2n1

>  <score_type>  (1) 
oracle

>  <origin>  (1) 
autodockgpu

>  <m_score__min__energy>  (1) 
-8.4900000000000002

>  <m_primary>  (1) 
energy

>  <rmsd>  (1) 
2.0766507533651453

>  <m_score__min__rmsd>  (1) 
2.0766507533651453

>  <meeko>  (1) 
{"free_energy": -7.6, "intermolecular_energy": -9.39, "internal_energy": -2.05, "cluster_size": 39, "cluster_id": 1, "rank_in_cluster": 27}

>  <energy>  (1) 
-8.49

>  <cluster_rmsd>  (1) 
0.0

>  <cluster>  (1) 
1

$$$$

     RDKit          3D

 53 56  0  0  0  0  0  0  0  0999 V2000
  140.3720   71.1740  221.2270 O   0  0  0  0  0  0  0  0  0  0  0  0
  140.1890   71.9140  222.2270 C   0  0  0  0  0  0  0  0  0  0  0  0
  140.0250   73.3160  222.1610 N   0  0  0  0  0  0  0  0  0  0  0  0
  140.0600   73.9980  220.9060 C   0  0  0  0  0  0  0  0  0  0  0  0
  140.9080   75.2110  221.0360 C   0  0  0  0  0  0  0  0  0  0  0  0
  140.9790   75.7150  222.2040 O   0  0  0  0  0  0  0  0  0  0  0  0
  141.6010   75.7820  219.9360 N   0  0  0  0  0  0  0  0  0  0  0  0
  141.4830   77.1740  219.5610 C   0  0  0  0  0  0  0  0  0  0  0  0
  142.8330   77.4490  218.9450 C   0  0  2  0  0  0  0  0  0  0  0  0
  142.8530   78.5430  218.1110 O   0  0  0  0  0  0  0  0  0  0  0  0
  143.0770   76.1310  218.1930 C   0  0  0  0  0  0  0  0  0  0  0  0
  142.4960   75.0630  219.0620 C   0  0  1  0  0  0  0  0  0  0  0  0
  143.5190   74.2890  219.7980 C   0  0  0  0  0  0  0  0  0  0  0  0
  144.3140   74.7630  220.6310 O   0  0  0  0  0  0  0  0  0  0  0  0
  143.5980   72.8920  219.5280 N   0  0  0  0  0  0  0  0  0  0  0  0
  142.7940   72.0960  218.6050 C   0  0  0  0  0  0  0  0  0  0  0  0
  142.5540   70.8090  219.3250 C   0  0  0  0  0  0  0  0  0  0  0  0
  143.8140   70.5920  220.0960 C   0  0  0  0  0  0  0  0  0  0  0  0
  144.5210   71.9130  220.1230 C   0  0  0  0  0  0  0  0  0  0  0  0
  140.1420   71.2770  223.5500 C   0  0  0  0  0  0  0  0  0  0  0  0
  139.5750   70.0240  223.7260 C   0  0  0  0  0  0  0  0  0  0  0  0
  139.5100   69.3910  224.9440 C   0  0  0  0  0  0  0  0  0  0  0  0
  140.0500   70.0730  226.0310 C   0  0  0  0  0  0  0  0  0  0  0  0
  139.9940   69.4620  227.2470 C   0  0  0  0  0  0  0  0  0  0  0  0
  140.5250   70.1210  228.3400 C   0  0  0  0  0  0  0  0  0  0  0  0
  141.1020   71.3830  228.1960 C   0  0  0  0  0  0  0  0  0  0  0  0
  141.1340   71.9650  226.9310 C   0  0  0  0  0  0  0  0  0  0  0  0
  140.6040   71.3050  225.8390 C   0  0  0  0  0  0  0  0  0  0  0  0
  140.6430   71.8750  224.6400 N   0  0  0  0  0  0  0  0  0  0  0  0
  139.8770   73.8520  223.0510 H   0  0  0  0  0  0  0  0  0  0  0  0
  140.4822   73.3339  220.1374 H   0  0  0  0  0  0  0  0  0  0  0  0
  139.0402   74.2881  220.6131 H   0  0  0  0  0  0  0  0  0  0  0  0
  140.6731   77.3242  218.8320 H   0  0  0  0  0  0  0  0  0  0  0  0
  141.2349   77.8399  220.4007 H   0  0  0  0  0  0  0  0  0  0  0  0
  143.6063   77.7113  219.6820 H   0  0  0  0  0  0  0  0  0  0  0  0
  143.6950   78.5420  217.6150 H   0  0  0  0  0  0  0  0  0  0  0  0
  142.5736   76.1473  217.2151 H   0  0  0  0  0  0  0  0  0  0  0  0
  144.1468   75.9631  217.9995 H   0  0  0  0  0  0  0  0  0  0  0  0
  141.9793   74.2887  218.4760 H   0  0  0  0  0  0  0  0  0  0  0  0
  141.8418   72.6010  218.3851 H   0  0  0  0  0  0  0  0  0  0  0  0
  143.2969   71.9449  217.6384 H   0  0  0  0  0  0  0  0  0  0  0  0
  141.6904   70.8933  220.0011 H   0  0  0  0  0  0  0  0  0  0  0  0
  142.3236   69.9768  218.6435 H   0  0  0  0  0  0  0  0  0  0  0  0
  143.5826   70.2625  221.1196 H   0  0  0  0  0  0  0  0  0  0  0  0
  144.4378   69.8131  219.6331 H   0  0  0  0  0  0  0  0  0  0  0  0
  144.7589   72.1957  221.1591 H   0  0  0  0  0  0  0  0  0  0  0  0
  145.4683   71.8691  219.5656 H   0  0  0  0  0  0  0  0  0  0  0  0
  139.1566   69.5113  222.8473 H   0  0  0  0  0  0  0  0  0  0  0  0
  139.0544   68.3959  225.0545 H   0  0  0  0  0  0  0  0  0  0  0  0
  139.5370   68.4675  227.3567 H   0  0  0  0  0  0  0  0  0  0  0  0
  140.4923   69.6463  229.3318 H   0  0  0  0  0  0  0  0  0  0  0  0
  141.5238   71.9086  229.0653 H   0  0  0  0  0  0  0  0  0  0  0  0
  141.5855   72.9595  226.8001 H   0  0  0  0  0  0  0  0  0  0  0  0
  1  2  2  0
  2  3  1  0
  3  4  1  0
  4  5  1  0
  5  6  2  0
  5  7  1  0
  7  8  1  0
  8  9  1  0
  9 10  1  0
  9 11  1  0
 11 12  1  0
 12 13  1  0
 13 14  2  0
 13 15  1  0
 15 16  1  0
 16 17  1  0
 17 18  1  0
 18 19  1  0
  2 20  1  0
 20 21  2  0
 21 22  1  0
 22 23  2  0
 23 24  1  0
 24 25  2  0
 25 26  1  0
 26 27  2  0
 27 28  1  0
 28 29  2  0
 12  7  1  0
 19 15  1  0
 29 20  1  0
 28 23  1  0
  3 30  1  0
  4 31  1  0
  4 32  1  0
  8 33  1  0
  8 34  1  0
  9 35  1  1
 10 36  1  0
 11 37  1  0
 11 38  1  0
 12 39  1  6
 16 40  1  0
 16 41  1  0
 17 42  1  0
 17 43  1  0
 18 44  1  0
 18 45  1  0
 19 46  1  0
 19 47  1  0
 21 48  1  0
 22 49  1  0
 24 50  1  0
 25 51  1  0
 26 52  1  0
 27 53  1  0
M  END
>  <smiles>  (2) 
O=C(NCC(=O)N1C[C@H](O)C[C@H]1C(=O)N1CCCC1)c1ccc2ccccc2n1

>  <score_type>  (2) 
oracle

>  <origin>  (2) 
autodockgpu

>  <m_score__min__energy>  (2) 
-8.4900000000000002

>  <m_primary>  (2) 
energy

>  <rmsd>  (2) 
4.707507276223976

>  <m_score__min__rmsd>  (2) 
4.707507276223976

>  <meeko>  (2) 
{"free_energy": -7.35, "intermolecular_energy": -9.14, "internal_energy": -2.4, "cluster_size": 39, "cluster_id": 1, "rank_in_cluster": 34}

>  <energy>  (2) 
-8.4

>  <cluster_rmsd>  (2) 
0.4

>  <cluster>  (2) 
1

$$$$

     RDKit          3D

 53 56  0  0  0  0  0  0  0  0999 V2000
  140.4500   71.0370  221.1920 O   0  0  0  0  0  0  0  0  0  0  0  0
  140.2860   71.8240  222.1580 C   0  0  0  0  0  0  0  0  0  0  0  0
  140.1940   73.2290  222.0340 N   0  0  0  0  0  0  0  0  0  0  0  0
  140.2850   73.8580  220.7530 C   0  0  0  0  0  0  0  0  0  0  0  0
  140.8760   75.2100  220.9180 C   0  0  0  0  0  0  0  0  0  0  0  0
  140.7680   75.7250  222.0790 O   0  0  0  0  0  0  0  0  0  0  0  0
  141.5220   75.8980  219.8570 N   0  0  0  0  0  0  0  0  0  0  0  0
  141.2640   77.2840  219.5370 C   0  0  0  0  0  0  0  0  0  0  0  0
  142.5870   77.7250  218.9600 C   0  0  2  0  0  0  0  0  0  0  0  0
  142.5050   78.8510  218.1730 O   0  0  0  0  0  0  0  0  0  0  0  0
  142.9810   76.4730  218.1600 C   0  0  0  0  0  0  0  0  0  0  0  0
  142.5030   75.3140  218.9720 C   0  0  1  0  0  0  0  0  0  0  0  0
  143.5890   74.6210  219.6970 C   0  0  0  0  0  0  0  0  0  0  0  0
  144.3980   75.1680  220.4700 O   0  0  0  0  0  0  0  0  0  0  0  0
  143.7190   73.2170  219.4890 N   0  0  0  0  0  0  0  0  0  0  0  0
  142.9110   72.3440  218.6420 C   0  0  0  0  0  0  0  0  0  0  0  0
  142.7590   71.0840  219.4310 C   0  0  0  0  0  0  0  0  0  0  0  0
  144.0600   70.9580  220.1540 C   0  0  0  0  0  0  0  0  0  0  0  0
  144.7090   72.3080  220.0870 C   0  0  0  0  0  0  0  0  0  0  0  0
  140.1850   71.2440  223.5040 C   0  0  0  0  0  0  0  0  0  0  0  0
  139.5700   70.0200  223.7160 C   0  0  0  0  0  0  0  0  0  0  0  0
  139.4520   69.4400  224.9560 C   0  0  0  0  0  0  0  0  0  0  0  0
  139.9890   70.1480  226.0280 C   0  0  0  0  0  0  0  0  0  0  0  0
  139.8810   69.5890  227.2660 C   0  0  0  0  0  0  0  0  0  0  0  0
  140.4080   70.2750  228.3450 C   0  0  0  0  0  0  0  0  0  0  0  0
  141.0320   71.5090  228.1660 C   0  0  0  0  0  0  0  0  0  0  0  0
  141.1160   72.0370  226.8790 C   0  0  0  0  0  0  0  0  0  0  0  0
  140.5900   71.3500  225.8010 C   0  0  0  0  0  0  0  0  0  0  0  0
  140.6790   71.8690  224.5820 N   0  0  0  0  0  0  0  0  0  0  0  0
  140.0570   73.8070  222.8990 H   0  0  0  0  0  0  0  0  0  0  0  0
  140.9235   73.2549  220.0908 H   0  0  0  0  0  0  0  0  0  0  0  0
  139.2821   73.9430  220.3092 H   0  0  0  0  0  0  0  0  0  0  0  0
  140.4543   77.3796  218.7986 H   0  0  0  0  0  0  0  0  0  0  0  0
  140.9340   77.8837  220.3981 H   0  0  0  0  0  0  0  0  0  0  0  0
  143.3170   78.0348  219.7223 H   0  0  0  0  0  0  0  0  0  0  0  0
  143.3260   78.9230  217.6470 H   0  0  0  0  0  0  0  0  0  0  0  0
  142.4943   76.4781  217.1736 H   0  0  0  0  0  0  0  0  0  0  0  0
  144.0655   76.4270  217.9819 H   0  0  0  0  0  0  0  0  0  0  0  0
  142.0814   74.5154  218.3439 H   0  0  0  0  0  0  0  0  0  0  0  0
  141.9289   72.7976  218.4426 H   0  0  0  0  0  0  0  0  0  0  0  0
  143.3777   72.1673  217.6617 H   0  0  0  0  0  0  0  0  0  0  0  0
  141.9224   71.1644  220.1406 H   0  0  0  0  0  0  0  0  0  0  0  0
  142.5364   70.2109  218.8000 H   0  0  0  0  0  0  0  0  0  0  0  0
  143.8877   70.6694  221.2014 H   0  0  0  0  0  0  0  0  0  0  0  0
  144.6970   70.1843  219.7005 H   0  0  0  0  0  0  0  0  0  0  0  0
  144.9787   72.6508  221.0969 H   0  0  0  0  0  0  0  0  0  0  0  0
  145.6325   72.2767  219.4902 H   0  0  0  0  0  0  0  0  0  0  0  0
  139.1557   69.4862  222.8480 H   0  0  0  0  0  0  0  0  0  0  0  0
  138.9588   68.4666  225.0947 H   0  0  0  0  0  0  0  0  0  0  0  0
  139.3868   68.6160  227.4038 H   0  0  0  0  0  0  0  0  0  0  0  0
  140.3342   69.8431  229.3540 H   0  0  0  0  0  0  0  0  0  0  0  0
  141.4500   72.0554  229.0243 H   0  0  0  0  0  0  0  0  0  0  0  0
  141.6053   73.0092  226.7196 H   0  0  0  0  0  0  0  0  0  0  0  0
  1  2  2  0
  2  3  1  0
  3  4  1  0
  4  5  1  0
  5  6  2  0
  5  7  1  0
  7  8  1  0
  8  9  1  0
  9 10  1  0
  9 11  1  0
 11 12  1  0
 12 13  1  0
 13 14  2  0
 13 15  1  0
 15 16  1  0
 16 17  1  0
 17 18  1  0
 18 19  1  0
  2 20  1  0
 20 21  2  0
 21 22  1  0
 22 23  2  0
 23 24  1  0
 24 25  2  0
 25 26  1  0
 26 27  2  0
 27 28  1  0
 28 29  2  0
 12  7  1  0
 19 15  1  0
 29 20  1  0
 28 23  1  0
  3 30  1  0
  4 31  1  0
  4 32  1  0
  8 33  1  0
  8 34  1  0
  9 35  1  1
 10 36  1  0
 11 37  1  0
 11 38  1  0
 12 39  1  6
 16 40  1  0
 16 41  1  0
 17 42  1  0
 17 43  1  0
 18 44  1  0
 18 45  1  0
 19 46  1  0
 19 47  1  0
 21 48  1  0
 22 49  1  0
 24 50  1  0
 25 51  1  0
 26 52  1  0
 27 53  1  0
M  END
>  <smiles>  (3) 
O=C(NCC(=O)N1C[C@H](O)C[C@H]1C(=O)N1CCCC1)c1ccc2ccccc2n1

>  <score_type>  (3) 
oracle

>  <origin>  (3) 
autodockgpu

>  <m_score__min__energy>  (3) 
-8.4900000000000002

>  <m_primary>  (3) 
energy

>  <rmsd>  (3) 
4.600524432338018

>  <m_score__min__rmsd>  (3) 
4.600524432338018

>  <meeko>  (3) 
{"free_energy": -7.29, "intermolecular_energy": -9.08, "internal_energy": -2.51, "cluster_size": 39, "cluster_id": 1, "rank_in_cluster": 35}

>  <energy>  (3) 
-8.37

>  <cluster_rmsd>  (3) 
0.45

>  <cluster>  (3) 
1

$$$$

     RDKit          3D

 53 56  0  0  0  0  0  0  0  0999 V2000
  139.4320   70.8970  221.3800 O   0  0  0  0  0  0  0  0  0  0  0  0
  139.5780   71.5710  222.4310 C   0  0  0  0  0  0  0  0  0  0  0  0
  139.6380   72.9830  222.4700 N   0  0  0  0  0  0  0  0  0  0  0  0
  139.5320   73.7530  221.2710 C   0  0  0  0  0  0  0  0  0  0  0  0
  140.1650   75.0790  221.4880 C   0  0  0  0  0  0  0  0  0  0  0  0
  139.6820   75.7740  222.4410 O   0  0  0  0  0  0  0  0  0  0  0  0
  141.2400   75.5530  220.6910 N   0  0  0  0  0  0  0  0  0  0  0  0
  141.8800   74.7550  219.6680 C   0  0  0  0  0  0  0  0  0  0  0  0
  142.3350   75.8090  218.6880 C   0  0  2  0  0  0  0  0  0  0  0  0
  143.3460   75.3930  217.8520 O   0  0  0  0  0  0  0  0  0  0  0  0
  142.7850   76.9190  219.6500 C   0  0  0  0  0  0  0  0  0  0  0  0
  141.8260   76.8680  220.7950 C   0  0  1  0  0  0  0  0  0  0  0  0
  140.8190   77.9500  220.7610 C   0  0  0  0  0  0  0  0  0  0  0  0
  139.8150   77.9730  220.0240 O   0  0  0  0  0  0  0  0  0  0  0  0
  141.0180   79.0520  221.6420 N   0  0  0  0  0  0  0  0  0  0  0  0
  142.1010   79.2710  222.5960 C   0  0  0  0  0  0  0  0  0  0  0  0
  141.4370   79.8730  223.7920 C   0  0  0  0  0  0  0  0  0  0  0  0
  140.3470   80.7120  223.2100 C   0  0  0  0  0  0  0  0  0  0  0  0
  140.1680   80.2430  221.7980 C   0  0  0  0  0  0  0  0  0  0  0  0
  139.6950   70.8420  223.7010 C   0  0  0  0  0  0  0  0  0  0  0  0
  139.3090   69.5150  223.8070 C   0  0  0  0  0  0  0  0  0  0  0  0
  139.4000   68.7940  224.9740 C   0  0  0  0  0  0  0  0  0  0  0  0
  139.9090   69.4650  226.0820 C   0  0  0  0  0  0  0  0  0  0  0  0
  140.0060   68.7670  227.2480 C   0  0  0  0  0  0  0  0  0  0  0  0
  140.5090   69.4140  228.3620 C   0  0  0  0  0  0  0  0  0  0  0  0
  140.9060   70.7490  228.2890 C   0  0  0  0  0  0  0  0  0  0  0  0
  140.7860   71.4180  227.0720 C   0  0  0  0  0  0  0  0  0  0  0  0
  140.2840   70.7700  225.9600 C   0  0  0  0  0  0  0  0  0  0  0  0
  140.1760   71.4240  224.8090 N   0  0  0  0  0  0  0  0  0  0  0  0
  139.7620   73.4600  223.3970 H   0  0  0  0  0  0  0  0  0  0  0  0
  140.0449   73.2297  220.4505 H   0  0  0  0  0  0  0  0  0  0  0  0
  138.4721   73.8865  221.0086 H   0  0  0  0  0  0  0  0  0  0  0  0
  142.7332   74.1926  220.0751 H   0  0  0  0  0  0  0  0  0  0  0  0
  141.2237   73.9912  219.2255 H   0  0  0  0  0  0  0  0  0  0  0  0
  141.5558   76.1073  217.9711 H   0  0  0  0  0  0  0  0  0  0  0  0
  144.1970   75.7120  218.2100 H   0  0  0  0  0  0  0  0  0  0  0  0
  143.8112   76.7322  219.9994 H   0  0  0  0  0  0  0  0  0  0  0  0
  142.7869   77.9052  219.1628 H   0  0  0  0  0  0  0  0  0  0  0  0
  142.3257   77.0308  221.7613 H   0  0  0  0  0  0  0  0  0  0  0  0
  142.5847   78.3187  222.8591 H   0  0  0  0  0  0  0  0  0  0  0  0
  142.8904   79.9192  222.1879 H   0  0  0  0  0  0  0  0  0  0  0  0
  141.0230   79.0909  224.4455 H   0  0  0  0  0  0  0  0  0  0  0  0
  142.1318   80.4525  224.4176 H   0  0  0  0  0  0  0  0  0  0  0  0
  139.4153   80.5749  223.7785 H   0  0  0  0  0  0  0  0  0  0  0  0
  140.6003   81.7817  223.2483 H   0  0  0  0  0  0  0  0  0  0  0  0
  139.1147   79.9848  221.6141 H   0  0  0  0  0  0  0  0  0  0  0  0
  140.4476   81.0279  221.0798 H   0  0  0  0  0  0  0  0  0  0  0  0
  138.9100   69.0138  222.9128 H   0  0  0  0  0  0  0  0  0  0  0  0
  139.0866   67.7410  225.0292 H   0  0  0  0  0  0  0  0  0  0  0  0
  139.6918   67.7142  227.3021 H   0  0  0  0  0  0  0  0  0  0  0  0
  140.5968   68.8707  229.3144 H   0  0  0  0  0  0  0  0  0  0  0  0
  141.3061   71.2641  229.1748 H   0  0  0  0  0  0  0  0  0  0  0  0
  141.0938   72.4714  226.9964 H   0  0  0  0  0  0  0  0  0  0  0  0
  1  2  2  0
  2  3  1  0
  3  4  1  0
  4  5  1  0
  5  6  2  0
  5  7  1  0
  7  8  1  0
  8  9  1  0
  9 10  1  0
  9 11  1  0
 11 12  1  0
 12 13  1  0
 13 14  2  0
 13 15  1  0
 15 16  1  0
 16 17  1  0
 17 18  1  0
 18 19  1  0
  2 20  1  0
 20 21  2  0
 21 22  1  0
 22 23  2  0
 23 24  1  0
 24 25  2  0
 25 26  1  0
 26 27  2  0
 27 28  1  0
 28 29  2  0
 12  7  1  0
 19 15  1  0
 29 20  1  0
 28 23  1  0
  3 30  1  0
  4 31  1  0
  4 32  1  0
  8 33  1  0
  8 34  1  0
  9 35  1  6
 10 36  1  0
 11 37  1  0
 11 38  1  0
 12 39  1  1
 16 40  1  0
 16 41  1  0
 17 42  1  0
 17 43  1  0
 18 44  1  0
 18 45  1  0
 19 46  1  0
 19 47  1  0
 21 48  1  0
 22 49  1  0
 24 50  1  0
 25 51  1  0
 26 52  1  0
 27 53  1  0
M  END
>  <smiles>  (4) 
O=C(NCC(=O)N1C[C@H](O)C[C@H]1C(=O)N1CCCC1)c1ccc2ccccc2n1

>  <score_type>  (4) 
oracle

>  <origin>  (4) 
autodockgpu

>  <m_score__min__energy>  (4) 
-8.4900000000000002

>  <m_primary>  (4) 
energy

>  <rmsd>  (4) 
1.8727716787136366

>  <m_score__min__rmsd>  (4) 
1.8727716787136366

>  <meeko>  (4) 
{"free_energy": -7.95, "intermolecular_energy": -9.74, "internal_energy": -1.81, "cluster_size": 39, "cluster_id": 1, "rank_in_cluster": 17}

>  <energy>  (4) 
-8.36

>  <cluster_rmsd>  (4) 
0.45

>  <cluster>  (4) 
1

$$$$

     RDKit          3D

 53 56  0  0  0  0  0  0  0  0999 V2000
  137.3430   70.4200  221.9560 O   0  0  0  0  0  0  0  0  0  0  0  0
  137.9860   71.1060  222.7900 C   0  0  0  0  0  0  0  0  0  0  0  0
  138.1330   72.5100  222.7210 N   0  0  0  0  0  0  0  0  0  0  0  0
  137.5360   73.2570  221.6580 C   0  0  0  0  0  0  0  0  0  0  0  0
  137.7490   74.7060  221.9040 C   0  0  0  0  0  0  0  0  0  0  0  0
  136.7660   75.3310  222.4210 O   0  0  0  0  0  0  0  0  0  0  0  0
  138.9670   75.3650  221.5890 N   0  0  0  0  0  0  0  0  0  0  0  0
  139.2300   76.7470  221.9250 C   0  0  0  0  0  0  0  0  0  0  0  0
  140.7290   76.7470  222.1000 C   0  0  2  0  0  0  0  0  0  0  0  0
  141.3040   77.9930  221.9860 O   0  0  0  0  0  0  0  0  0  0  0  0
  141.1490   75.7990  220.9660 C   0  0  0  0  0  0  0  0  0  0  0  0
  140.0810   74.7560  220.9030 C   0  0  1  0  0  0  0  0  0  0  0  0
  140.4880   73.4660  221.5020 C   0  0  0  0  0  0  0  0  0  0  0  0
  140.7060   73.2750  222.7130 O   0  0  0  0  0  0  0  0  0  0  0  0
  140.6430   72.3580  220.6190 N   0  0  0  0  0  0  0  0  0  0  0  0
  140.4540   72.3140  219.1730 C   0  0  0  0  0  0  0  0  0  0  0  0
  139.7990   70.9950  218.9160 C   0  0  0  0  0  0  0  0  0  0  0  0
  140.4070   70.0910  219.9370 C   0  0  0  0  0  0  0  0  0  0  0  0
  141.0370   70.9830  220.9640 C   0  0  0  0  0  0  0  0  0  0  0  0
  138.6250   70.4020  223.9090 C   0  0  0  0  0  0  0  0  0  0  0  0
  138.6080   69.0180  223.9920 C   0  0  0  0  0  0  0  0  0  0  0  0
  139.1930   68.3170  225.0200 C   0  0  0  0  0  0  0  0  0  0  0  0
  139.8230   69.0690  226.0070 C   0  0  0  0  0  0  0  0  0  0  0  0
  140.4080   68.3930  227.0340 C   0  0  0  0  0  0  0  0  0  0  0  0
  141.0400   69.1200  228.0260 C   0  0  0  0  0  0  0  0  0  0  0  0
  141.0760   70.5130  227.9720 C   0  0  0  0  0  0  0  0  0  0  0  0
  140.4620   71.1570  226.9000 C   0  0  0  0  0  0  0  0  0  0  0  0
  139.8310   70.4300  225.9090 C   0  0  0  0  0  0  0  0  0  0  0  0
  139.2500   71.0600  224.8950 N   0  0  0  0  0  0  0  0  0  0  0  0
  138.6890   73.0000  223.4640 H   0  0  0  0  0  0  0  0  0  0  0  0
  138.0006   72.9733  220.7021 H   0  0  0  0  0  0  0  0  0  0  0  0
  136.4579   73.0428  221.6140 H   0  0  0  0  0  0  0  0  0  0  0  0
  138.9224   77.4215  221.1123 H   0  0  0  0  0  0  0  0  0  0  0  0
  138.6800   77.1010  222.8094 H   0  0  0  0  0  0  0  0  0  0  0  0
  141.0533   76.4382  223.1047 H   0  0  0  0  0  0  0  0  0  0  0  0
  142.2750   77.8900  222.0050 H   0  0  0  0  0  0  0  0  0  0  0  0
  141.2113   76.3438  220.0124 H   0  0  0  0  0  0  0  0  0  0  0  0
  142.1403   75.3582  221.1480 H   0  0  0  0  0  0  0  0  0  0  0  0
  139.8363   74.4775  219.8674 H   0  0  0  0  0  0  0  0  0  0  0  0
  139.8073   73.1395  218.8410 H   0  0  0  0  0  0  0  0  0  0  0  0
  141.4022   72.4215  218.6258 H   0  0  0  0  0  0  0  0  0  0  0  0
  138.7098   71.0649  219.0533 H   0  0  0  0  0  0  0  0  0  0  0  0
  139.9510   70.6377  217.8868 H   0  0  0  0  0  0  0  0  0  0  0  0
  139.6315   69.4638  220.4010 H   0  0  0  0  0  0  0  0  0  0  0  0
  141.1480   69.4160  219.4839 H   0  0  0  0  0  0  0  0  0  0  0  0
  140.6717   70.7235  221.9686 H   0  0  0  0  0  0  0  0  0  0  0  0
  142.1314   70.8719  220.9708 H   0  0  0  0  0  0  0  0  0  0  0  0
  138.1013   68.4528  223.1959 H   0  0  0  0  0  0  0  0  0  0  0  0
  139.1645   67.2181  225.0602 H   0  0  0  0  0  0  0  0  0  0  0  0
  140.3786   67.2941  227.0736 H   0  0  0  0  0  0  0  0  0  0  0  0
  141.5188   68.5947  228.8655 H   0  0  0  0  0  0  0  0  0  0  0  0
  141.5793   71.0920  228.7603 H   0  0  0  0  0  0  0  0  0  0  0  0
  140.4798   72.2553  226.8420 H   0  0  0  0  0  0  0  0  0  0  0  0
  1  2  2  0
  2  3  1  0
  3  4  1  0
  4  5  1  0
  5  6  2  0
  5  7  1  0
  7  8  1  0
  8  9  1  0
  9 10  1  0
  9 11  1  0
 11 12  1  0
 12 13  1  0
 13 14  2  0
 13 15  1  0
 15 16  1  0
 16 17  1  0
 17 18  1  0
 18 19  1  0
  2 20  1  0
 20 21  2  0
 21 22  1  0
 22 23  2  0
 23 24  1  0
 24 25  2  0
 25 26  1  0
 26 27  2  0
 27 28  1  0
 28 29  2  0
 12  7  1  0
 19 15  1  0
 29 20  1  0
 28 23  1  0
  3 30  1  0
  4 31  1  0
  4 32  1  0
  8 33  1  0
  8 34  1  0
  9 35  1  1
 10 36  1  0
 11 37  1  0
 11 38  1  0
 12 39  1  6
 16 40  1  0
 16 41  1  0
 17 42  1  0
 17 43  1  0
 18 44  1  0
 18 45  1  0
 19 46  1  0
 19 47  1  0
 21 48  1  0
 22 49  1  0
 24 50  1  0
 25 51  1  0
 26 52  1  0
 27 53  1  0
M  END
>  <smiles>  (5) 
O=C(NCC(=O)N1C[C@H](O)C[C@H]1C(=O)N1CCCC1)c1ccc2ccccc2n1

>  <score_type>  (5) 
oracle

>  <origin>  (5) 
autodockgpu

>  <m_score__min__energy>  (5) 
-8.4900000000000002

>  <m_primary>  (5) 
energy

>  <rmsd>  (5) 
4.805421798237344

>  <m_score__min__rmsd>  (5) 
4.805421798237344

>  <meeko>  (5) 
{"free_energy": -6.81, "intermolecular_energy": -8.6, "internal_energy": -2.84, "cluster_size": 1, "cluster_id": 5, "rank_in_cluster": 1}

>  <energy>  (5) 
-8.29

>  <cluster_rmsd>  (5) 
0.4

>  <cluster>  (5) 
1

$$$$

     RDKit          3D

 53 56  0  0  0  0  0  0  0  0999 V2000
  140.6920   71.3560  221.3190 O   0  0  0  0  0  0  0  0  0  0  0  0
  140.2840   72.0330  222.2970 C   0  0  0  0  0  0  0  0  0  0  0  0
  139.9370   73.4010  222.2280 N   0  0  0  0  0  0  0  0  0  0  0  0
  140.0350   74.1200  220.9970 C   0  0  0  0  0  0  0  0  0  0  0  0
  140.8230   75.3590  221.2200 C   0  0  0  0  0  0  0  0  0  0  0  0
  140.7830   75.8370  222.4010 O   0  0  0  0  0  0  0  0  0  0  0  0
  141.5760   75.9830  220.1900 N   0  0  0  0  0  0  0  0  0  0  0  0
  141.9890   75.2980  218.9850 C   0  0  0  0  0  0  0  0  0  0  0  0
  142.0370   76.4270  217.9840 C   0  0  2  0  0  0  0  0  0  0  0  0
  142.8140   76.1600  216.8800 O   0  0  0  0  0  0  0  0  0  0  0  0
  142.6150   77.5550  218.8540 C   0  0  0  0  0  0  0  0  0  0  0  0
  142.0230   77.3550  220.2110 C   0  0  1  0  0  0  0  0  0  0  0  0
  140.9350   78.3090  220.5190 C   0  0  0  0  0  0  0  0  0  0  0  0
  139.8410   78.3630  219.9280 O   0  0  0  0  0  0  0  0  0  0  0  0
  141.1630   79.2360  221.5770 N   0  0  0  0  0  0  0  0  0  0  0  0
  142.3460   79.3830  222.4200 C   0  0  0  0  0  0  0  0  0  0  0  0
  141.8070   79.6690  223.7840 C   0  0  0  0  0  0  0  0  0  0  0  0
  140.5820   80.4810  223.5190 C   0  0  0  0  0  0  0  0  0  0  0  0
  140.2480   80.2760  222.0730 C   0  0  0  0  0  0  0  0  0  0  0  0
  140.1600   71.3550  223.5940 C   0  0  0  0  0  0  0  0  0  0  0  0
  139.5230   70.1300  223.7090 C   0  0  0  0  0  0  0  0  0  0  0  0
  139.3830   69.4600  224.9010 C   0  0  0  0  0  0  0  0  0  0  0  0
  139.9220   70.0760  226.0280 C   0  0  0  0  0  0  0  0  0  0  0  0
  139.7940   69.4280  227.2190 C   0  0  0  0  0  0  0  0  0  0  0  0
  140.3220   70.0210  228.3510 C   0  0  0  0  0  0  0  0  0  0  0  0
  140.9690   71.2540  228.2700 C   0  0  0  0  0  0  0  0  0  0  0  0
  141.0730   71.8750  227.0270 C   0  0  0  0  0  0  0  0  0  0  0  0
  140.5460   71.2810  225.8970 C   0  0  0  0  0  0  0  0  0  0  0  0
  140.6550   71.8880  224.7200 N   0  0  0  0  0  0  0  0  0  0  0  0
  139.6060   73.8850  223.0990 H   0  0  0  0  0  0  0  0  0  0  0  0
  140.5369   73.4947  220.2440 H   0  0  0  0  0  0  0  0  0  0  0  0
  139.0282   74.3803  220.6384 H   0  0  0  0  0  0  0  0  0  0  0  0
  142.9774   74.8314  219.1091 H   0  0  0  0  0  0  0  0  0  0  0  0
  141.3222   74.4735  218.6925 H   0  0  0  0  0  0  0  0  0  0  0  0
  141.0621   76.6503  217.5262 H   0  0  0  0  0  0  0  0  0  0  0  0
  143.0330   77.0060  216.4420 H   0  0  0  0  0  0  0  0  0  0  0  0
  143.7117   77.4828  218.8985 H   0  0  0  0  0  0  0  0  0  0  0  0
  142.3758   78.5483  218.4465 H   0  0  0  0  0  0  0  0  0  0  0  0
  142.7510   77.5480  221.0128 H   0  0  0  0  0  0  0  0  0  0  0  0
  142.9376   78.4556  222.4233 H   0  0  0  0  0  0  0  0  0  0  0  0
  143.0157   80.1788  222.0620 H   0  0  0  0  0  0  0  0  0  0  0  0
  141.5531   78.7362  224.3087 H   0  0  0  0  0  0  0  0  0  0  0  0
  142.5316   80.1892  224.4276 H   0  0  0  0  0  0  0  0  0  0  0  0
  139.7523   80.1375  224.1542 H   0  0  0  0  0  0  0  0  0  0  0  0
  140.7501   81.5445  223.7442 H   0  0  0  0  0  0  0  0  0  0  0  0
  139.2041   79.9459  221.9671 H   0  0  0  0  0  0  0  0  0  0  0  0
  140.3598   81.2097  221.5023 H   0  0  0  0  0  0  0  0  0  0  0  0
  139.1081   69.6701  222.8000 H   0  0  0  0  0  0  0  0  0  0  0  0
  138.8719   68.4879  224.9617 H   0  0  0  0  0  0  0  0  0  0  0  0
  139.2827   68.4559  227.2790 H   0  0  0  0  0  0  0  0  0  0  0  0
  140.2310   69.5159  229.3239 H   0  0  0  0  0  0  0  0  0  0  0  0
  141.3890   71.7270  229.1699 H   0  0  0  0  0  0  0  0  0  0  0  0
  141.5798   72.8478  226.9449 H   0  0  0  0  0  0  0  0  0  0  0  0
  1  2  2  0
  2  3  1  0
  3  4  1  0
  4  5  1  0
  5  6  2  0
  5  7  1  0
  7  8  1  0
  8  9  1  0
  9 10  1  0
  9 11  1  0
 11 12  1  0
 12 13  1  0
 13 14  2  0
 13 15  1  0
 15 16  1  0
 16 17  1  0
 17 18  1  0
 18 19  1  0
  2 20  1  0
 20 21  2  0
 21 22  1  0
 22 23  2  0
 23 24  1  0
 24 25  2  0
 25 26  1  0
 26 27  2  0
 27 28  1  0
 28 29  2  0
 12  7  1  0
 19 15  1  0
 29 20  1  0
 28 23  1  0
  3 30  1  0
  4 31  1  0
  4 32  1  0
  8 33  1  0
  8 34  1  0
  9 35  1  6
 10 36  1  0
 11 37  1  0
 11 38  1  0
 12 39  1  1
 16 40  1  0
 16 41  1  0
 17 42  1  0
 17 43  1  0
 18 44  1  0
 18 45  1  0
 19 46  1  0
 19 47  1  0
 21 48  1  0
 22 49  1  0
 24 50  1  0
 25 51  1  0
 26 52  1  0
 27 53  1  0
M  END
>  <smiles>  (6) 
O=C(NCC(=O)N1C[C@H](O)C[C@H]1C(=O)N1CCCC1)c1ccc2ccccc2n1

>  <score_type>  (6) 
oracle

>  <origin>  (6) 
autodockgpu

>  <m_score__min__energy>  (6) 
-8.4900000000000002

>  <m_primary>  (6) 
energy

>  <rmsd>  (6) 
2.0057069374863095

>  <m_score__min__rmsd>  (6) 
2.0057069374863095

>  <meeko>  (6) 
{"free_energy": -8.05, "intermolecular_energy": -9.84, "internal_energy": -1.86, "cluster_size": 39, "cluster_id": 1, "rank_in_cluster": 14}

>  <energy>  (6) 
-8.25

>  <cluster_rmsd>  (6) 
0.4

>  <cluster>  (6) 
1

$$$$

     RDKit          3D

 53 56  0  0  0  0  0  0  0  0999 V2000
  138.4680   75.2540  221.9540 O   0  0  0  0  0  0  0  0  0  0  0  0
  139.6630   75.6340  222.0500 C   0  0  0  0  0  0  0  0  0  0  0  0
  140.7830   74.8100  221.8000 N   0  0  0  0  0  0  0  0  0  0  0  0
  140.6150   73.4460  221.4090 C   0  0  0  0  0  0  0  0  0  0  0  0
  141.5720   73.1320  220.3170 C   0  0  0  0  0  0  0  0  0  0  0  0
  141.0670   72.6070  219.2710 O   0  0  0  0  0  0  0  0  0  0  0  0
  142.9630   73.3950  220.4210 N   0  0  0  0  0  0  0  0  0  0  0  0
  143.9280   72.4040  220.8440 C   0  0  0  0  0  0  0  0  0  0  0  0
  145.1720   72.8430  220.1100 C   0  0  2  0  0  0  0  0  0  0  0  0
  146.3400   72.3640  220.6560 O   0  0  0  0  0  0  0  0  0  0  0  0
  145.0490   74.3710  220.2290 C   0  0  0  0  0  0  0  0  0  0  0  0
  143.5870   74.6630  220.1240 C   0  0  1  0  0  0  0  0  0  0  0  0
  143.1930   75.2020  218.8050 C   0  0  0  0  0  0  0  0  0  0  0  0
  143.2480   74.5770  217.7290 O   0  0  0  0  0  0  0  0  0  0  0  0
  142.7150   76.5440  218.7660 N   0  0  0  0  0  0  0  0  0  0  0  0
  142.5560   77.4850  219.8710 C   0  0  0  0  0  0  0  0  0  0  0  0
  141.2780   78.2030  219.5760 C   0  0  0  0  0  0  0  0  0  0  0  0
  141.2600   78.2990  218.0860 C   0  0  0  0  0  0  0  0  0  0  0  0
  142.2650   77.3050  217.5900 C   0  0  0  0  0  0  0  0  0  0  0  0
  139.9080   77.0260  222.4490 C   0  0  0  0  0  0  0  0  0  0  0  0
  138.8610   77.9010  222.6930 C   0  0  0  0  0  0  0  0  0  0  0  0
  139.0440   79.2110  223.0680 C   0  0  0  0  0  0  0  0  0  0  0  0
  140.3600   79.6430  223.1990 C   0  0  0  0  0  0  0  0  0  0  0  0
  140.5620   80.9380  223.5690 C   0  0  0  0  0  0  0  0  0  0  0  0
  141.8610   81.3890  223.7050 C   0  0  0  0  0  0  0  0  0  0  0  0
  142.9380   80.5350  223.4680 C   0  0  0  0  0  0  0  0  0  0  0  0
  142.6780   79.2190  223.0910 C   0  0  0  0  0  0  0  0  0  0  0  0
  141.3780   78.7690  222.9560 C   0  0  0  0  0  0  0  0  0  0  0  0
  141.1490   77.5120  222.5950 N   0  0  0  0  0  0  0  0  0  0  0  0
  141.7450   75.2150  221.9070 H   0  0  0  0  0  0  0  0  0  0  0  0
  140.8099   72.7894  222.2697 H   0  0  0  0  0  0  0  0  0  0  0  0
  139.5853   73.2855  221.0569 H   0  0  0  0  0  0  0  0  0  0  0  0
  144.0766   72.4306  221.9336 H   0  0  0  0  0  0  0  0  0  0  0  0
  143.6259   71.3693  220.6248 H   0  0  0  0  0  0  0  0  0  0  0  0
  145.2308   72.4625  219.0796 H   0  0  0  0  0  0  0  0  0  0  0  0
  146.1400   71.9830  221.5340 H   0  0  0  0  0  0  0  0  0  0  0  0
  145.4410   74.7140  221.1979 H   0  0  0  0  0  0  0  0  0  0  0  0
  145.6258   74.8890  219.4486 H   0  0  0  0  0  0  0  0  0  0  0  0
  143.2732   75.4586  220.8157 H   0  0  0  0  0  0  0  0  0  0  0  0
  142.4881   76.9499  220.8297 H   0  0  0  0  0  0  0  0  0  0  0  0
  143.4098   78.1731  219.9583 H   0  0  0  0  0  0  0  0  0  0  0  0
  140.4131   77.6305  219.9424 H   0  0  0  0  0  0  0  0  0  0  0  0
  141.2188   79.1857  220.0666 H   0  0  0  0  0  0  0  0  0  0  0  0
  140.2593   78.0541  217.7003 H   0  0  0  0  0  0  0  0  0  0  0  0
  141.5029   79.3170  217.7474 H   0  0  0  0  0  0  0  0  0  0  0  0
  141.8015   76.6302  216.8552 H   0  0  0  0  0  0  0  0  0  0  0  0
  143.1090   77.8063  217.0937 H   0  0  0  0  0  0  0  0  0  0  0  0
  137.8320   77.5286  222.5810 H   0  0  0  0  0  0  0  0  0  0  0  0
  138.1935   79.8831  223.2549 H   0  0  0  0  0  0  0  0  0  0  0  0
  139.7108   81.6094  223.7553 H   0  0  0  0  0  0  0  0  0  0  0  0
  142.0475   82.4313  224.0030 H   0  0  0  0  0  0  0  0  0  0  0  0
  143.9723   80.8933  223.5766 H   0  0  0  0  0  0  0  0  0  0  0  0
  143.5151   78.5317  222.8990 H   0  0  0  0  0  0  0  0  0  0  0  0
  1  2  2  0
  2  3  1  0
  3  4  1  0
  4  5  1  0
  5  6  2  0
  5  7  1  0
  7  8  1  0
  8  9  1  0
  9 10  1  0
  9 11  1  0
 11 12  1  0
 12 13  1  0
 13 14  2  0
 13 15  1  0
 15 16  1  0
 16 17  1  0
 17 18  1  0
 18 19  1  0
  2 20  1  0
 20 21  2  0
 21 22  1  0
 22 23  2  0
 23 24  1  0
 24 25  2  0
 25 26  1  0
 26 27  2  0
 27 28  1  0
 28 29  2  0
 12  7  1  0
 19 15  1  0
 29 20  1  0
 28 23  1  0
  3 30  1  0
  4 31  1  0
  4 32  1  0
  8 33  1  0
  8 34  1  0
  9 35  1  6
 10 36  1  0
 11 37  1  0
 11 38  1  0
 12 39  1  1
 16 40  1  0
 16 41  1  0
 17 42  1  0
 17 43  1  0
 18 44  1  0
 18 45  1  0
 19 46  1  0
 19 47  1  0
 21 48  1  0
 22 49  1  0
 24 50  1  0
 25 51  1  0
 26 52  1  0
 27 53  1  0
M  END
>  <smiles>  (7) 
O=C(NCC(=O)N1C[C@H](O)C[C@H]1C(=O)N1CCCC1)c1ccc2ccccc2n1

>  <score_type>  (7) 
oracle

>  <origin>  (7) 
autodockgpu

>  <m_score__min__energy>  (7) 
-8.4900000000000002

>  <m_primary>  (7) 
energy

>  <rmsd>  (7) 
7.129202026284987

>  <m_score__min__rmsd>  (7) 
7.129202026284987

>  <meeko>  (7) 
{"free_energy": -6.98, "intermolecular_energy": -8.77, "internal_energy": -2.58, "cluster_size": 7, "cluster_id": 3, "rank_in_cluster": 4}

>  <energy>  (7) 
-8.17

>  <cluster_rmsd>  (7) 
1.17

>  <cluster>  (7) 
1

$$$$

     RDKit          3D

 53 56  0  0  0  0  0  0  0  0999 V2000
  139.8330   71.3840  221.0930 O   0  0  0  0  0  0  0  0  0  0  0  0
  139.8670   72.0740  222.1440 C   0  0  0  0  0  0  0  0  0  0  0  0
  139.9000   73.4870  222.1690 N   0  0  0  0  0  0  0  0  0  0  0  0
  139.8960   74.2400  220.9550 C   0  0  0  0  0  0  0  0  0  0  0  0
  140.7330   75.4540  221.1340 C   0  0  0  0  0  0  0  0  0  0  0  0
  141.0420   75.7410  222.3370 O   0  0  0  0  0  0  0  0  0  0  0  0
  141.1680   76.2520  220.0430 N   0  0  0  0  0  0  0  0  0  0  0  0
  140.6610   77.5810  219.7820 C   0  0  0  0  0  0  0  0  0  0  0  0
  141.8420   78.2420  219.1140 C   0  0  2  0  0  0  0  0  0  0  0  0
  141.5110   79.3480  218.3660 O   0  0  0  0  0  0  0  0  0  0  0  0
  142.3670   77.0830  218.2520 C   0  0  0  0  0  0  0  0  0  0  0  0
  142.1540   75.8500  219.0690 C   0  0  1  0  0  0  0  0  0  0  0  0
  143.3960   75.3370  219.6860 C   0  0  0  0  0  0  0  0  0  0  0  0
  144.3200   76.0430  220.1320 O   0  0  0  0  0  0  0  0  0  0  0  0
  143.5430   73.9220  219.7740 N   0  0  0  0  0  0  0  0  0  0  0  0
  142.6200   72.8820  219.3300 C   0  0  0  0  0  0  0  0  0  0  0  0
  142.6890   71.8340  220.3940 C   0  0  0  0  0  0  0  0  0  0  0  0
  144.1140   71.8730  220.8390 C   0  0  0  0  0  0  0  0  0  0  0  0
  144.6740   73.1690  220.3390 C   0  0  0  0  0  0  0  0  0  0  0  0
  139.8720   71.3620  223.4290 C   0  0  0  0  0  0  0  0  0  0  0  0
  139.2990   70.1070  223.5600 C   0  0  0  0  0  0  0  0  0  0  0  0
  139.2810   69.4050  224.7420 C   0  0  0  0  0  0  0  0  0  0  0  0
  139.8780   70.0190  225.8390 C   0  0  0  0  0  0  0  0  0  0  0  0
  139.8700   69.3400  227.0200 C   0  0  0  0  0  0  0  0  0  0  0  0
  140.4570   69.9300  228.1230 C   0  0  0  0  0  0  0  0  0  0  0  0
  141.0420   71.1920  228.0260 C   0  0  0  0  0  0  0  0  0  0  0  0
  141.0240   71.8460  226.7950 C   0  0  0  0  0  0  0  0  0  0  0  0
  140.4370   71.2540  225.6930 C   0  0  0  0  0  0  0  0  0  0  0  0
  140.4290   71.8920  224.5280 N   0  0  0  0  0  0  0  0  0  0  0  0
  139.9270   73.9770  223.0970 H   0  0  0  0  0  0  0  0  0  0  0  0
  140.3064   73.6264  220.1395 H   0  0  0  0  0  0  0  0  0  0  0  0
  138.8660   74.5334  220.7040 H   0  0  0  0  0  0  0  0  0  0  0  0
  139.7883   77.5516  219.1130 H   0  0  0  0  0  0  0  0  0  0  0  0
  140.3095   78.1063  220.6823 H   0  0  0  0  0  0  0  0  0  0  0  0
  142.5724   78.6579  219.8236 H   0  0  0  0  0  0  0  0  0  0  0  0
  142.3210   79.6850  217.9340 H   0  0  0  0  0  0  0  0  0  0  0  0
  141.8054   77.0207  217.3082 H   0  0  0  0  0  0  0  0  0  0  0  0
  143.4258   77.2188  217.9863 H   0  0  0  0  0  0  0  0  0  0  0  0
  141.8180   75.0003  218.4565 H   0  0  0  0  0  0  0  0  0  0  0  0
  141.5985   73.2809  219.2440 H   0  0  0  0  0  0  0  0  0  0  0  0
  142.8846   72.4864  218.3383 H   0  0  0  0  0  0  0  0  0  0  0  0
  142.0116   72.0752  221.2264 H   0  0  0  0  0  0  0  0  0  0  0  0
  142.3823   70.8408  220.0340 H   0  0  0  0  0  0  0  0  0  0  0  0
  144.1717   71.8312  221.9367 H   0  0  0  0  0  0  0  0  0  0  0  0
  144.6794   71.0148  220.4469 H   0  0  0  0  0  0  0  0  0  0  0  0
  145.1290   73.7314  221.1677 H   0  0  0  0  0  0  0  0  0  0  0  0
  145.4562   72.9998  219.5843 H   0  0  0  0  0  0  0  0  0  0  0  0
  138.8352   69.6495  222.6737 H   0  0  0  0  0  0  0  0  0  0  0  0
  138.8187   68.4097  224.8167 H   0  0  0  0  0  0  0  0  0  0  0  0
  139.4069   68.3450  227.0938 H   0  0  0  0  0  0  0  0  0  0  0  0
  140.4629   69.3992  229.0865 H   0  0  0  0  0  0  0  0  0  0  0  0
  141.5087   71.6625  228.9039 H   0  0  0  0  0  0  0  0  0  0  0  0
  141.4811   72.8420  226.7001 H   0  0  0  0  0  0  0  0  0  0  0  0
  1  2  2  0
  2  3  1  0
  3  4  1  0
  4  5  1  0
  5  6  2  0
  5  7  1  0
  7  8  1  0
  8  9  1  0
  9 10  1  0
  9 11  1  0
 11 12  1  0
 12 13  1  0
 13 14  2  0
 13 15  1  0
 15 16  1  0
 16 17  1  0
 17 18  1  0
 18 19  1  0
  2 20  1  0
 20 21  2  0
 21 22  1  0
 22 23  2  0
 23 24  1  0
 24 25  2  0
 25 26  1  0
 26 27  2  0
 27 28  1  0
 28 29  2  0
 12  7  1  0
 19 15  1  0
 29 20  1  0
 28 23  1  0
  3 30  1  0
  4 31  1  0
  4 32  1  0
  8 33  1  0
  8 34  1  0
  9 35  1  1
 10 36  1  0
 11 37  1  0
 11 38  1  0
 12 39  1  6
 16 40  1  0
 16 41  1  0
 17 42  1  0
 17 43  1  0
 18 44  1  0
 18 45  1  0
 19 46  1  0
 19 47  1  0
 21 48  1  0
 22 49  1  0
 24 50  1  0
 25 51  1  0
 26 52  1  0
 27 53  1  0
M  END
>  <smiles>  (8) 
O=C(NCC(=O)N1C[C@H](O)C[C@H]1C(=O)N1CCCC1)c1ccc2ccccc2n1

>  <score_type>  (8) 
oracle

>  <origin>  (8) 
autodockgpu

>  <m_score__min__energy>  (8) 
-8.4900000000000002

>  <m_primary>  (8) 
energy

>  <rmsd>  (8) 
4.183004752156185

>  <m_score__min__rmsd>  (8) 
4.183004752156185

>  <meeko>  (8) 
{"free_energy": -7.09, "intermolecular_energy": -8.88, "internal_energy": -2.59, "cluster_size": 39, "cluster_id": 1, "rank_in_cluster": 38}

>  <energy>  (8) 
-8.13

>  <cluster_rmsd>  (8) 
0.47

>  <cluster>  (8) 
1

$$$$

     RDKit          3D

 53 56  0  0  0  0  0  0  0  0999 V2000
  138.5750   75.6000  222.0640 O   0  0  0  0  0  0  0  0  0  0  0  0
  139.7780   75.9680  222.0730 C   0  0  0  0  0  0  0  0  0  0  0  0
  140.8610   75.1530  221.6730 N   0  0  0  0  0  0  0  0  0  0  0  0
  140.6430   73.8160  221.2190 C   0  0  0  0  0  0  0  0  0  0  0  0
  141.6500   73.4860  220.1780 C   0  0  0  0  0  0  0  0  0  0  0  0
  141.1840   73.0500  219.0740 O   0  0  0  0  0  0  0  0  0  0  0  0
  143.0460   73.6430  220.3860 N   0  0  0  0  0  0  0  0  0  0  0  0
  143.9020   72.5750  220.8520 C   0  0  0  0  0  0  0  0  0  0  0  0
  145.2240   72.9340  220.2180 C   0  0  2  0  0  0  0  0  0  0  0  0
  146.3120   72.3590  220.8340 O   0  0  0  0  0  0  0  0  0  0  0  0
  145.2050   74.4640  220.3650 C   0  0  0  0  0  0  0  0  0  0  0  0
  143.7800   74.8660  220.1640 C   0  0  1  0  0  0  0  0  0  0  0  0
  143.5230   75.4580  218.8340 C   0  0  0  0  0  0  0  0  0  0  0  0
  143.8550   74.9500  217.7470 O   0  0  0  0  0  0  0  0  0  0  0  0
  142.8420   76.7090  218.7990 N   0  0  0  0  0  0  0  0  0  0  0  0
  142.3510   77.5100  219.9170 C   0  0  0  0  0  0  0  0  0  0  0  0
  141.0380   78.0490  219.4490 C   0  0  0  0  0  0  0  0  0  0  0  0
  141.2470   78.2780  217.9880 C   0  0  0  0  0  0  0  0  0  0  0  0
  142.4700   77.4980  217.6140 C   0  0  0  0  0  0  0  0  0  0  0  0
  140.0730   77.3320  222.5280 C   0  0  0  0  0  0  0  0  0  0  0  0
  139.0590   78.2110  222.8750 C   0  0  0  0  0  0  0  0  0  0  0  0
  139.2890   79.4960  223.3060 C   0  0  0  0  0  0  0  0  0  0  0  0
  140.6190   79.8980  223.3850 C   0  0  0  0  0  0  0  0  0  0  0  0
  140.8670   81.1680  223.8090 C   0  0  0  0  0  0  0  0  0  0  0  0
  142.1820   81.5880  223.8950 C   0  0  0  0  0  0  0  0  0  0  0  0
  143.2260   80.7290  223.5530 C   0  0  0  0  0  0  0  0  0  0  0  0
  142.9180   79.4390  223.1240 C   0  0  0  0  0  0  0  0  0  0  0  0
  141.6040   79.0200  223.0400 C   0  0  0  0  0  0  0  0  0  0  0  0
  141.3300   77.7870  222.6290 N   0  0  0  0  0  0  0  0  0  0  0  0
  141.8340   75.5470  221.7140 H   0  0  0  0  0  0  0  0  0  0  0  0
  140.7446   73.1189  222.0638 H   0  0  0  0  0  0  0  0  0  0  0  0
  139.6311   73.7283  220.7968 H   0  0  0  0  0  0  0  0  0  0  0  0
  143.9733   72.5699  221.9497 H   0  0  0  0  0  0  0  0  0  0  0  0
  143.5415   71.5699  220.5877 H   0  0  0  0  0  0  0  0  0  0  0  0
  145.3286   72.5698  219.1853 H   0  0  0  0  0  0  0  0  0  0  0  0
  146.0160   71.9500  221.6710 H   0  0  0  0  0  0  0  0  0  0  0  0
  145.5499   74.7583  221.3672 H   0  0  0  0  0  0  0  0  0  0  0  0
  145.8732   74.9522  219.6403 H   0  0  0  0  0  0  0  0  0  0  0  0
  143.4753   75.6697  220.8504 H   0  0  0  0  0  0  0  0  0  0  0  0
  142.2170   76.8854  220.8125 H   0  0  0  0  0  0  0  0  0  0  0  0
  143.0533   78.3091  220.1968 H   0  0  0  0  0  0  0  0  0  0  0  0
  140.2319   77.3203  219.6200 H   0  0  0  0  0  0  0  0  0  0  0  0
  140.7381   78.9621  219.9840 H   0  0  0  0  0  0  0  0  0  0  0  0
  140.3772   77.9202  217.4176 H   0  0  0  0  0  0  0  0  0  0  0  0
  141.3693   79.3478  217.7632 H   0  0  0  0  0  0  0  0  0  0  0  0
  142.2509   76.8311  216.7671 H   0  0  0  0  0  0  0  0  0  0  0  0
  143.2889   78.1656  217.3079 H   0  0  0  0  0  0  0  0  0  0  0  0
  138.0181   77.8629  222.8018 H   0  0  0  0  0  0  0  0  0  0  0  0
  138.4639   80.1720  223.5747 H   0  0  0  0  0  0  0  0  0  0  0  0
  140.0413   81.8437  224.0767 H   0  0  0  0  0  0  0  0  0  0  0  0
  142.4065   82.6093  224.2364 H   0  0  0  0  0  0  0  0  0  0  0  0
  144.2719   81.0628  223.6204 H   0  0  0  0  0  0  0  0  0  0  0  0
  143.7287   78.7480  222.8497 H   0  0  0  0  0  0  0  0  0  0  0  0
  1  2  2  0
  2  3  1  0
  3  4  1  0
  4  5  1  0
  5  6  2  0
  5  7  1  0
  7  8  1  0
  8  9  1  0
  9 10  1  0
  9 11  1  0
 11 12  1  0
 12 13  1  0
 13 14  2  0
 13 15  1  0
 15 16  1  0
 16 17  1  0
 17 18  1  0
 18 19  1  0
  2 20  1  0
 20 21  2  0
 21 22  1  0
 22 23  2  0
 23 24  1  0
 24 25  2  0
 25 26  1  0
 26 27  2  0
 27 28  1  0
 28 29  2  0
 12  7  1  0
 19 15  1  0
 29 20  1  0
 28 23  1  0
  3 30  1  0
  4 31  1  0
  4 32  1  0
  8 33  1  0
  8 34  1  0
  9 35  1  6
 10 36  1  0
 11 37  1  0
 11 38  1  0
 12 39  1  1
 16 40  1  0
 16 41  1  0
 17 42  1  0
 17 43  1  0
 18 44  1  0
 18 45  1  0
 19 46  1  0
 19 47  1  0
 21 48  1  0
 22 49  1  0
 24 50  1  0
 25 51  1  0
 26 52  1  0
 27 53  1  0
M  END
>  <smiles>  (9) 
O=C(NCC(=O)N1C[C@H](O)C[C@H]1C(=O)N1CCCC1)c1ccc2ccccc2n1

>  <score_type>  (9) 
oracle

>  <origin>  (9) 
autodockgpu

>  <m_score__min__energy>  (9) 
-8.4900000000000002

>  <m_primary>  (9) 
energy

>  <rmsd>  (9) 
7.26323119666335

>  <m_score__min__rmsd>  (9) 
7.26323119666335

>  <meeko>  (9) 
{"free_energy": -7.19, "intermolecular_energy": -8.98, "internal_energy": -2.54, "cluster_size": 7, "cluster_id": 3, "rank_in_cluster": 3}

>  <energy>  (9) 
-8.13

>  <cluster_rmsd>  (9) 
1.11

>  <cluster>  (9) 
1

$$$$

     RDKit          3D

 53 56  0  0  0  0  0  0  0  0999 V2000
  140.0340   71.3700  221.1420 O   0  0  0  0  0  0  0  0  0  0  0  0
  139.9050   72.0490  222.1930 C   0  0  0  0  0  0  0  0  0  0  0  0
  139.7270   73.4510  222.2180 N   0  0  0  0  0  0  0  0  0  0  0  0
  139.6830   74.2050  221.0040 C   0  0  0  0  0  0  0  0  0  0  0  0
  140.6100   75.3600  221.1170 C   0  0  0  0  0  0  0  0  0  0  0  0
  141.1170   75.5540  222.2700 O   0  0  0  0  0  0  0  0  0  0  0  0
  140.9200   76.2020  220.0170 N   0  0  0  0  0  0  0  0  0  0  0  0
  140.2290   77.4450  219.7510 C   0  0  0  0  0  0  0  0  0  0  0  0
  141.3010   78.2590  219.0670 C   0  0  2  0  0  0  0  0  0  0  0  0
  140.8130   79.3030  218.3150 O   0  0  0  0  0  0  0  0  0  0  0  0
  141.9760   77.1780  218.2080 C   0  0  0  0  0  0  0  0  0  0  0  0
  141.9440   75.9340  219.0350 C   0  0  1  0  0  0  0  0  0  0  0  0
  143.2510   75.6050  219.6440 C   0  0  0  0  0  0  0  0  0  0  0  0
  144.0770   76.4370  220.0630 O   0  0  0  0  0  0  0  0  0  0  0  0
  143.5860   74.2240  219.7570 N   0  0  0  0  0  0  0  0  0  0  0  0
  142.8060   73.0610  219.3470 C   0  0  0  0  0  0  0  0  0  0  0  0
  143.0270   72.0550  220.4300 C   0  0  0  0  0  0  0  0  0  0  0  0
  144.4390   72.2920  220.8530 C   0  0  0  0  0  0  0  0  0  0  0  0
  144.8150   73.6410  220.3200 C   0  0  0  0  0  0  0  0  0  0  0  0
  139.9410   71.3370  223.4770 C   0  0  0  0  0  0  0  0  0  0  0  0
  139.4800   70.0340  223.5910 C   0  0  0  0  0  0  0  0  0  0  0  0
  139.4940   69.3300  224.7710 C   0  0  0  0  0  0  0  0  0  0  0  0
  140.0040   69.9910  225.8850 C   0  0  0  0  0  0  0  0  0  0  0  0
  140.0260   69.3100  227.0640 C   0  0  0  0  0  0  0  0  0  0  0  0
  140.5290   69.9470  228.1830 C   0  0  0  0  0  0  0  0  0  0  0  0
  141.0000   71.2570  228.1020 C   0  0  0  0  0  0  0  0  0  0  0  0
  140.9550   71.9100  226.8720 C   0  0  0  0  0  0  0  0  0  0  0  0
  140.4540   71.2720  225.7540 C   0  0  0  0  0  0  0  0  0  0  0  0
  140.4180   71.9100  224.5900 N   0  0  0  0  0  0  0  0  0  0  0  0
  139.6270   73.9330  223.1450 H   0  0  0  0  0  0  0  0  0  0  0  0
  139.9902   73.5668  220.1624 H   0  0  0  0  0  0  0  0  0  0  0  0
  138.6591   74.5666  220.8286 H   0  0  0  0  0  0  0  0  0  0  0  0
  139.3636   77.2879  219.0904 H   0  0  0  0  0  0  0  0  0  0  0  0
  139.8144   77.9236  220.6505 H   0  0  0  0  0  0  0  0  0  0  0  0
  141.9721   78.7782  219.7670 H   0  0  0  0  0  0  0  0  0  0  0  0
  141.5230   79.6180  217.7220 H   0  0  0  0  0  0  0  0  0  0  0  0
  141.4211   77.0304  217.2698 H   0  0  0  0  0  0  0  0  0  0  0  0
  143.0032   77.4584  217.9318 H   0  0  0  0  0  0  0  0  0  0  0  0
  141.7242   75.0413  218.4310 H   0  0  0  0  0  0  0  0  0  0  0  0
  141.7393   73.3177  219.2677 H   0  0  0  0  0  0  0  0  0  0  0  0
  143.1099   72.6831  218.3596 H   0  0  0  0  0  0  0  0  0  0  0  0
  142.3337   72.2220  221.2675 H   0  0  0  0  0  0  0  0  0  0  0  0
  142.8510   71.0225  220.0940 H   0  0  0  0  0  0  0  0  0  0  0  0
  144.5152   72.2809  221.9503 H   0  0  0  0  0  0  0  0  0  0  0  0
  145.1090   71.5086  220.4690 H   0  0  0  0  0  0  0  0  0  0  0  0
  145.2004   74.2764  221.1310 H   0  0  0  0  0  0  0  0  0  0  0  0
  145.6040   73.5623  219.5576 H   0  0  0  0  0  0  0  0  0  0  0  0
  139.0834   69.5394  222.6921 H   0  0  0  0  0  0  0  0  0  0  0  0
  139.1213   68.2969  224.8322 H   0  0  0  0  0  0  0  0  0  0  0  0
  139.6523   68.2772  227.1245 H   0  0  0  0  0  0  0  0  0  0  0  0
  140.5580   69.4158  229.1458 H   0  0  0  0  0  0  0  0  0  0  0  0
  141.3994   71.7651  228.9921 H   0  0  0  0  0  0  0  0  0  0  0  0
  141.3221   72.9437  226.7905 H   0  0  0  0  0  0  0  0  0  0  0  0
  1  2  2  0
  2  3  1  0
  3  4  1  0
  4  5  1  0
  5  6  2  0
  5  7  1  0
  7  8  1  0
  8  9  1  0
  9 10  1  0
  9 11  1  0
 11 12  1  0
 12 13  1  0
 13 14  2  0
 13 15  1  0
 15 16  1  0
 16 17  1  0
 17 18  1  0
 18 19  1  0
  2 20  1  0
 20 21  2  0
 21 22  1  0
 22 23  2  0
 23 24  1  0
 24 25  2  0
 25 26  1  0
 26 27  2  0
 27 28  1  0
 28 29  2  0
 12  7  1  0
 19 15  1  0
 29 20  1  0
 28 23  1  0
  3 30  1  0
  4 31  1  0
  4 32  1  0
  8 33  1  0
  8 34  1  0
  9 35  1  1
 10 36  1  0
 11 37  1  0
 11 38  1  0
 12 39  1  6
 16 40  1  0
 16 41  1  0
 17 42  1  0
 17 43  1  0
 18 44  1  0
 18 45  1  0
 19 46  1  0
 19 47  1  0
 21 48  1  0
 22 49  1  0
 24 50  1  0
 25 51  1  0
 26 52  1  0
 27 53  1  0
M  END
>  <smiles>  (10) 
O=C(NCC(=O)N1C[C@H](O)C[C@H]1C(=O)N1CCCC1)c1ccc2ccccc2n1

>  <score_type>  (10) 
oracle

>  <origin>  (10) 
autodockgpu

>  <m_score__min__energy>  (10) 
-8.4900000000000002

>  <m_primary>  (10) 
energy

>  <rmsd>  (10) 
4.024329444796583

>  <m_score__min__rmsd>  (10) 
4.024329444796583

>  <meeko>  (10) 
{"free_energy": -7.21, "intermolecular_energy": -9.0, "internal_energy": -2.41, "cluster_size": 39, "cluster_id": 1, "rank_in_cluster": 37}

>  <energy>  (10) 
-8.13

>  <cluster_rmsd>  (10) 
0.61

>  <cluster>  (10) 
1

$$$$

     RDKit          3D

 53 56  0  0  0  0  0  0  0  0999 V2000
  140.7540   71.1220  221.2950 O   0  0  0  0  0  0  0  0  0  0  0  0
  140.3980   71.8510  222.2550 C   0  0  0  0  0  0  0  0  0  0  0  0
  140.1900   73.2460  222.1600 N   0  0  0  0  0  0  0  0  0  0  0  0
  140.3800   73.9320  220.9200 C   0  0  0  0  0  0  0  0  0  0  0  0
  141.0570   75.2270  221.1810 C   0  0  0  0  0  0  0  0  0  0  0  0
  140.8580   75.7360  222.3330 O   0  0  0  0  0  0  0  0  0  0  0  0
  141.8780   75.8690  220.2160 N   0  0  0  0  0  0  0  0  0  0  0  0
  142.4840   75.1740  219.1020 C   0  0  0  0  0  0  0  0  0  0  0  0
  142.5640   76.2610  218.0590 C   0  0  2  0  0  0  0  0  0  0  0  0
  143.4860   76.0170  217.0680 O   0  0  0  0  0  0  0  0  0  0  0  0
  142.9440   77.4670  218.9330 C   0  0  0  0  0  0  0  0  0  0  0  0
  142.2110   77.2740  220.2200 C   0  0  1  0  0  0  0  0  0  0  0  0
  141.0240   78.1450  220.3530 C   0  0  0  0  0  0  0  0  0  0  0  0
  140.0450   78.1450  219.5830 O   0  0  0  0  0  0  0  0  0  0  0  0
  141.0040   79.0560  221.4490 N   0  0  0  0  0  0  0  0  0  0  0  0
  142.0130   79.2560  222.4850 C   0  0  0  0  0  0  0  0  0  0  0  0
  141.2310   79.4680  223.7410 C   0  0  0  0  0  0  0  0  0  0  0  0
  140.0160   80.2060  223.2830 C   0  0  0  0  0  0  0  0  0  0  0  0
  139.9480   80.0200  221.7970 C   0  0  0  0  0  0  0  0  0  0  0  0
  140.1860   71.2110  223.5590 C   0  0  0  0  0  0  0  0  0  0  0  0
  139.5340   69.9920  223.6660 C   0  0  0  0  0  0  0  0  0  0  0  0
  139.3130   69.3570  224.8640 C   0  0  0  0  0  0  0  0  0  0  0  0
  139.7810   70.0010  226.0060 C   0  0  0  0  0  0  0  0  0  0  0  0
  139.5720   69.3870  227.2040 C   0  0  0  0  0  0  0  0  0  0  0  0
  140.0290   70.0080  228.3510 C   0  0  0  0  0  0  0  0  0  0  0  0
  140.6890   71.2350  228.2790 C   0  0  0  0  0  0  0  0  0  0  0  0
  140.8780   71.8210  227.0290 C   0  0  0  0  0  0  0  0  0  0  0  0
  140.4210   71.1990  225.8830 C   0  0  0  0  0  0  0  0  0  0  0  0
  140.6100   71.7730  224.7000 N   0  0  0  0  0  0  0  0  0  0  0  0
  139.8930   73.7740  223.0170 H   0  0  0  0  0  0  0  0  0  0  0  0
  141.0023   73.3191  220.2514 H   0  0  0  0  0  0  0  0  0  0  0  0
  139.4055   74.1125  220.4428 H   0  0  0  0  0  0  0  0  0  0  0  0
  143.4836   74.7962  219.3628 H   0  0  0  0  0  0  0  0  0  0  0  0
  141.9224   74.2865  218.7749 H   0  0  0  0  0  0  0  0  0  0  0  0
  141.6365   76.3826  217.4803 H   0  0  0  0  0  0  0  0  0  0  0  0
  144.3770   76.0000  217.4680 H   0  0  0  0  0  0  0  0  0  0  0  0
  144.0297   77.4878  219.1084 H   0  0  0  0  0  0  0  0  0  0  0  0
  142.6789   78.4197  218.4513 H   0  0  0  0  0  0  0  0  0  0  0  0
  142.8206   77.5600  221.0898 H   0  0  0  0  0  0  0  0  0  0  0  0
  142.6579   78.3694  222.5746 H   0  0  0  0  0  0  0  0  0  0  0  0
  142.6774   80.1035  222.2606 H   0  0  0  0  0  0  0  0  0  0  0  0
  140.9562   78.5063  224.1987 H   0  0  0  0  0  0  0  0  0  0  0  0
  141.7979   80.0159  224.5081 H   0  0  0  0  0  0  0  0  0  0  0  0
  139.1158   79.7918  223.7606 H   0  0  0  0  0  0  0  0  0  0  0  0
  140.0698   81.2714  223.5512 H   0  0  0  0  0  0  0  0  0  0  0  0
  138.9627   79.6255  221.5079 H   0  0  0  0  0  0  0  0  0  0  0  0
  140.0904   80.9745  221.2692 H   0  0  0  0  0  0  0  0  0  0  0  0
  139.1756   69.5089  222.7450 H   0  0  0  0  0  0  0  0  0  0  0  0
  138.7929   68.3892  224.9181 H   0  0  0  0  0  0  0  0  0  0  0  0
  139.0516   68.4194  227.2572 H   0  0  0  0  0  0  0  0  0  0  0  0
  139.8710   69.5306  229.3293 H   0  0  0  0  0  0  0  0  0  0  0  0
  141.0531   71.7302  229.1913 H   0  0  0  0  0  0  0  0  0  0  0  0
  141.3962   72.7884  226.9538 H   0  0  0  0  0  0  0  0  0  0  0  0
  1  2  2  0
  2  3  1  0
  3  4  1  0
  4  5  1  0
  5  6  2  0
  5  7  1  0
  7  8  1  0
  8  9  1  0
  9 10  1  0
  9 11  1  0
 11 12  1  0
 12 13  1  0
 13 14  2  0
 13 15  1  0
 15 16  1  0
 16 17  1  0
 17 18  1  0
 18 19  1  0
  2 20  1  0
 20 21  2  0
 21 22  1  0
 22 23  2  0
 23 24  1  0
 24 25  2  0
 25 26  1  0
 26 27  2  0
 27 28  1  0
 28 29  2  0
 12  7  1  0
 19 15  1  0
 29 20  1  0
 28 23  1  0
  3 30  1  0
  4 31  1  0
  4 32  1  0
  8 33  1  0
  8 34  1  0
  9 35  1  6
 10 36  1  0
 11 37  1  0
 11 38  1  0
 12 39  1  1
 16 40  1  0
 16 41  1  0
 17 42  1  0
 17 43  1  0
 18 44  1  0
 18 45  1  0
 19 46  1  0
 19 47  1  0
 21 48  1  0
 22 49  1  0
 24 50  1  0
 25 51  1  0
 26 52  1  0
 27 53  1  0
M  END
>  <smiles>  (11) 
O=C(NCC(=O)N1C[C@H](O)C[C@H]1C(=O)N1CCCC1)c1ccc2ccccc2n1

>  <score_type>  (11) 
oracle

>  <origin>  (11) 
autodockgpu

>  <m_score__min__energy>  (11) 
-8.4900000000000002

>  <m_primary>  (11) 
energy

>  <rmsd>  (11) 
2.13201632089981

>  <m_score__min__rmsd>  (11) 
2.13201632089981

>  <meeko>  (11) 
{"free_energy": -8.13, "intermolecular_energy": -9.92, "internal_energy": -2.0, "cluster_size": 39, "cluster_id": 1, "rank_in_cluster": 10}

>  <energy>  (11) 
-8.1

>  <cluster_rmsd>  (11) 
0.83

>  <cluster>  (11) 
1

$$$$

     RDKit          3D

 53 56  0  0  0  0  0  0  0  0999 V2000
  138.3760   70.6050  221.7560 O   0  0  0  0  0  0  0  0  0  0  0  0
  138.9170   71.2470  222.6920 C   0  0  0  0  0  0  0  0  0  0  0  0
  139.2270   72.6250  222.6370 N   0  0  0  0  0  0  0  0  0  0  0  0
  138.9310   73.3960  221.4710 C   0  0  0  0  0  0  0  0  0  0  0  0
  139.8180   74.5870  221.4380 C   0  0  0  0  0  0  0  0  0  0  0  0
  140.7400   74.6160  222.3180 O   0  0  0  0  0  0  0  0  0  0  0  0
  139.6590   75.6340  220.4930 N   0  0  0  0  0  0  0  0  0  0  0  0
  138.9100   75.4860  219.2640 C   0  0  0  0  0  0  0  0  0  0  0  0
  138.4070   76.8900  219.0320 C   0  0  2  0  0  0  0  0  0  0  0  0
  138.0460   77.1440  217.7290 O   0  0  0  0  0  0  0  0  0  0  0  0
  139.6310   77.7080  219.4740 C   0  0  0  0  0  0  0  0  0  0  0  0
  140.2150   76.9590  220.6280 C   0  0  1  0  0  0  0  0  0  0  0  0
  139.9130   77.5780  221.9370 C   0  0  0  0  0  0  0  0  0  0  0  0
  139.0290   77.1930  222.7250 O   0  0  0  0  0  0  0  0  0  0  0  0
  140.6980   78.7030  222.3230 N   0  0  0  0  0  0  0  0  0  0  0  0
  141.7840   79.3480  221.5910 C   0  0  0  0  0  0  0  0  0  0  0  0
  142.7930   79.6950  222.6370 C   0  0  0  0  0  0  0  0  0  0  0  0
  141.9640   80.0380  223.8310 C   0  0  0  0  0  0  0  0  0  0  0  0
  140.5960   79.4870  223.5630 C   0  0  0  0  0  0  0  0  0  0  0  0
  139.2490   70.5150  223.9210 C   0  0  0  0  0  0  0  0  0  0  0  0
  138.9630   69.1650  224.0550 C   0  0  0  0  0  0  0  0  0  0  0  0
  139.2550   68.4410  225.1860 C   0  0  0  0  0  0  0  0  0  0  0  0
  139.8670   69.1320  226.2280 C   0  0  0  0  0  0  0  0  0  0  0  0
  140.1640   68.4320  227.3570 C   0  0  0  0  0  0  0  0  0  0  0  0
  140.7740   69.0980  228.4040 C   0  0  0  0  0  0  0  0  0  0  0  0
  141.0750   70.4560  228.3020 C   0  0  0  0  0  0  0  0  0  0  0  0
  140.7500   71.1270  227.1240 C   0  0  0  0  0  0  0  0  0  0  0  0
  140.1420   70.4600  226.0780 C   0  0  0  0  0  0  0  0  0  0  0  0
  139.8390   71.1160  224.9640 N   0  0  0  0  0  0  0  0  0  0  0  0
  139.6800   73.0770  223.4700 H   0  0  0  0  0  0  0  0  0  0  0  0
  139.1012   72.7849  220.5723 H   0  0  0  0  0  0  0  0  0  0  0  0
  137.8794   73.7176  221.4964 H   0  0  0  0  0  0  0  0  0  0  0  0
  139.5569   75.1519  218.4395 H   0  0  0  0  0  0  0  0  0  0  0  0
  138.1109   74.7321  219.3197 H   0  0  0  0  0  0  0  0  0  0  0  0
  137.4776   77.1187  219.5741 H   0  0  0  0  0  0  0  0  0  0  0  0
  138.7230   77.7210  217.3240 H   0  0  0  0  0  0  0  0  0  0  0  0
  140.3608   77.7816  218.6543 H   0  0  0  0  0  0  0  0  0  0  0  0
  139.3565   78.7365  219.7514 H   0  0  0  0  0  0  0  0  0  0  0  0
  141.3148   76.9572  220.6063 H   0  0  0  0  0  0  0  0  0  0  0  0
  142.2150   78.6590  220.8497 H   0  0  0  0  0  0  0  0  0  0  0  0
  141.4421   80.2322  221.0330 H   0  0  0  0  0  0  0  0  0  0  0  0
  143.4490   78.8377  222.8485 H   0  0  0  0  0  0  0  0  0  0  0  0
  143.4584   80.5157  222.3309 H   0  0  0  0  0  0  0  0  0  0  0  0
  142.3896   79.5786  224.7353 H   0  0  0  0  0  0  0  0  0  0  0  0
  141.9326   81.1248  223.9982 H   0  0  0  0  0  0  0  0  0  0  0  0
  140.2761   78.8425  224.3950 H   0  0  0  0  0  0  0  0  0  0  0  0
  139.8543   80.2933  223.4643 H   0  0  0  0  0  0  0  0  0  0  0  0
  138.4782   68.6476  223.2140 H   0  0  0  0  0  0  0  0  0  0  0  0
  139.0172   67.3698  225.2639 H   0  0  0  0  0  0  0  0  0  0  0  0
  139.9243   67.3612  227.4346 H   0  0  0  0  0  0  0  0  0  0  0  0
  141.0241   68.5519  229.3256 H   0  0  0  0  0  0  0  0  0  0  0  0
  141.5593   70.9872  229.1347 H   0  0  0  0  0  0  0  0  0  0  0  0
  140.9800   72.1983  227.0264 H   0  0  0  0  0  0  0  0  0  0  0  0
  1  2  2  0
  2  3  1  0
  3  4  1  0
  4  5  1  0
  5  6  2  0
  5  7  1  0
  7  8  1  0
  8  9  1  0
  9 10  1  0
  9 11  1  0
 11 12  1  0
 12 13  1  0
 13 14  2  0
 13 15  1  0
 15 16  1  0
 16 17  1  0
 17 18  1  0
 18 19  1  0
  2 20  1  0
 20 21  2  0
 21 22  1  0
 22 23  2  0
 23 24  1  0
 24 25  2  0
 25 26  1  0
 26 27  2  0
 27 28  1  0
 28 29  2  0
 12  7  1  0
 19 15  1  0
 29 20  1  0
 28 23  1  0
  3 30  1  0
  4 31  1  0
  4 32  1  0
  8 33  1  0
  8 34  1  0
  9 35  1  1
 10 36  1  0
 11 37  1  0
 11 38  1  0
 12 39  1  6
 16 40  1  0
 16 41  1  0
 17 42  1  0
 17 43  1  0
 18 44  1  0
 18 45  1  0
 19 46  1  0
 19 47  1  0
 21 48  1  0
 22 49  1  0
 24 50  1  0
 25 51  1  0
 26 52  1  0
 27 53  1  0
M  END
>  <smiles>  (12) 
O=C(NCC(=O)N1C[C@H](O)C[C@H]1C(=O)N1CCCC1)c1ccc2ccccc2n1

>  <score_type>  (12) 
oracle

>  <origin>  (12) 
autodockgpu

>  <m_score__min__energy>  (12) 
-8.4900000000000002

>  <m_primary>  (12) 
energy

>  <rmsd>  (12) 
1.9948832058204042

>  <m_score__min__rmsd>  (12) 
1.9948832058204042

>  <meeko>  (12) 
{"free_energy": -7.59, "intermolecular_energy": -9.38, "internal_energy": -2.14, "cluster_size": 39, "cluster_id": 1, "rank_in_cluster": 28}

>  <energy>  (12) 
-8.08

>  <cluster_rmsd>  (12) 
0.78

>  <cluster>  (12) 
1

$$$$

     RDKit          3D

 53 56  0  0  0  0  0  0  0  0999 V2000
  138.6750   74.9840  222.3150 O   0  0  0  0  0  0  0  0  0  0  0  0
  139.7560   75.5270  221.9710 C   0  0  0  0  0  0  0  0  0  0  0  0
  140.7670   74.8850  221.2220 N   0  0  0  0  0  0  0  0  0  0  0  0
  140.6140   73.5290  220.7970 C   0  0  0  0  0  0  0  0  0  0  0  0
  141.6430   73.2230  219.7710 C   0  0  0  0  0  0  0  0  0  0  0  0
  141.1990   72.8930  218.6220 O   0  0  0  0  0  0  0  0  0  0  0  0
  143.0350   73.2890  220.0400 N   0  0  0  0  0  0  0  0  0  0  0  0
  143.9250   72.1570  219.9000 C   0  0  0  0  0  0  0  0  0  0  0  0
  145.2310   72.8260  219.5490 C   0  0  2  0  0  0  0  0  0  0  0  0
  146.3390   72.0470  219.7920 O   0  0  0  0  0  0  0  0  0  0  0  0
  145.1710   74.0640  220.4580 C   0  0  0  0  0  0  0  0  0  0  0  0
  143.7340   74.4730  220.4810 C   0  0  1  0  0  0  0  0  0  0  0  0
  143.4500   75.6550  219.6390 C   0  0  0  0  0  0  0  0  0  0  0  0
  143.1440   76.7830  220.0680 O   0  0  0  0  0  0  0  0  0  0  0  0
  143.5350   75.4840  218.2270 N   0  0  0  0  0  0  0  0  0  0  0  0
  143.8690   74.2790  217.4740 C   0  0  0  0  0  0  0  0  0  0  0  0
  144.7200   74.7610  216.3440 C   0  0  0  0  0  0  0  0  0  0  0  0
  144.1440   76.0980  216.0100 C   0  0  0  0  0  0  0  0  0  0  0  0
  143.3010   76.4950  217.1840 C   0  0  0  0  0  0  0  0  0  0  0  0
  139.9790   76.9210  222.3760 C   0  0  0  0  0  0  0  0  0  0  0  0
  138.9200   77.7590  222.6900 C   0  0  0  0  0  0  0  0  0  0  0  0
  139.0820   79.0690  223.0730 C   0  0  0  0  0  0  0  0  0  0  0  0
  140.3900   79.5420  223.1360 C   0  0  0  0  0  0  0  0  0  0  0  0
  140.5710   80.8380  223.5140 C   0  0  0  0  0  0  0  0  0  0  0  0
  141.8620   81.3290  223.5840 C   0  0  0  0  0  0  0  0  0  0  0  0
  142.9490   80.5120  223.2750 C   0  0  0  0  0  0  0  0  0  0  0  0
  142.7100   79.1940  222.8940 C   0  0  0  0  0  0  0  0  0  0  0  0
  141.4200   78.7040  222.8250 C   0  0  0  0  0  0  0  0  0  0  0  0
  141.2110   77.4450  222.4600 N   0  0  0  0  0  0  0  0  0  0  0  0
  141.6380   75.4200  220.9820 H   0  0  0  0  0  0  0  0  0  0  0  0
  140.7409   72.8564  221.6581 H   0  0  0  0  0  0  0  0  0  0  0  0
  139.6104   73.3851  220.3702 H   0  0  0  0  0  0  0  0  0  0  0  0
  144.0052   71.5929  220.8409 H   0  0  0  0  0  0  0  0  0  0  0  0
  143.5905   71.4194  219.1556 H   0  0  0  0  0  0  0  0  0  0  0  0
  145.3376   73.0448  218.4763 H   0  0  0  0  0  0  0  0  0  0  0  0
  146.2050   71.5680  220.6330 H   0  0  0  0  0  0  0  0  0  0  0  0
  145.5157   73.8134  221.4721 H   0  0  0  0  0  0  0  0  0  0  0  0
  145.8196   74.8725  220.0898 H   0  0  0  0  0  0  0  0  0  0  0  0
  143.4135   74.8034  221.4801 H   0  0  0  0  0  0  0  0  0  0  0  0
  144.4261   73.5699  218.1040 H   0  0  0  0  0  0  0  0  0  0  0  0
  142.9730   73.7465  217.1223 H   0  0  0  0  0  0  0  0  0  0  0  0
  145.7706   74.8538  216.6564 H   0  0  0  0  0  0  0  0  0  0  0  0
  144.7200   74.0714  215.4870 H   0  0  0  0  0  0  0  0  0  0  0  0
  144.9486   76.8314  215.8529 H   0  0  0  0  0  0  0  0  0  0  0  0
  143.5501   76.0589  215.0849 H   0  0  0  0  0  0  0  0  0  0  0  0
  143.5982   77.4903  217.5460 H   0  0  0  0  0  0  0  0  0  0  0  0
  142.2367   76.5456  216.9106 H   0  0  0  0  0  0  0  0  0  0  0  0
  137.8986   77.3550  222.6295 H   0  0  0  0  0  0  0  0  0  0  0  0
  138.2226   79.7107  223.3172 H   0  0  0  0  0  0  0  0  0  0  0  0
  139.7108   81.4788  223.7578 H   0  0  0  0  0  0  0  0  0  0  0  0
  142.0328   82.3729  223.8860 H   0  0  0  0  0  0  0  0  0  0  0  0
  143.9762   80.9014  223.3311 H   0  0  0  0  0  0  0  0  0  0  0  0
  143.5564   78.5368  222.6456 H   0  0  0  0  0  0  0  0  0  0  0  0
  1  2  2  0
  2  3  1  0
  3  4  1  0
  4  5  1  0
  5  6  2  0
  5  7  1  0
  7  8  1  0
  8  9  1  0
  9 10  1  0
  9 11  1  0
 11 12  1  0
 12 13  1  0
 13 14  2  0
 13 15  1  0
 15 16  1  0
 16 17  1  0
 17 18  1  0
 18 19  1  0
  2 20  1  0
 20 21  2  0
 21 22  1  0
 22 23  2  0
 23 24  1  0
 24 25  2  0
 25 26  1  0
 26 27  2  0
 27 28  1  0
 28 29  2  0
 12  7  1  0
 19 15  1  0
 29 20  1  0
 28 23  1  0
  3 30  1  0
  4 31  1  0
  4 32  1  0
  8 33  1  0
  8 34  1  0
  9 35  1  6
 10 36  1  0
 11 37  1  0
 11 38  1  0
 12 39  1  1
 16 40  1  0
 16 41  1  0
 17 42  1  0
 17 43  1  0
 18 44  1  0
 18 45  1  0
 19 46  1  0
 19 47  1  0
 21 48  1  0
 22 49  1  0
 24 50  1  0
 25 51  1  0
 26 52  1  0
 27 53  1  0
M  END
>  <smiles>  (13) 
O=C(NCC(=O)N1C[C@H](O)C[C@H]1C(=O)N1CCCC1)c1ccc2ccccc2n1

>  <score_type>  (13) 
oracle

>  <origin>  (13) 
autodockgpu

>  <m_score__min__energy>  (13) 
-8.4900000000000002

>  <m_primary>  (13) 
energy

>  <rmsd>  (13) 
7.48877266543285

>  <m_score__min__rmsd>  (13) 
7.48877266543285

>  <meeko>  (13) 
{"free_energy": -7.21, "intermolecular_energy": -9.0, "internal_energy": -2.35, "cluster_size": 7, "cluster_id": 3, "rank_in_cluster": 2}

>  <energy>  (13) 
-8.06

>  <cluster_rmsd>  (13) 
0.86

>  <cluster>  (13) 
1

$$$$

     RDKit          3D

 53 56  0  0  0  0  0  0  0  0999 V2000
  140.0760   71.2510  221.3040 O   0  0  0  0  0  0  0  0  0  0  0  0
  139.9210   71.9290  222.3520 C   0  0  0  0  0  0  0  0  0  0  0  0
  139.6920   73.3230  222.3710 N   0  0  0  0  0  0  0  0  0  0  0  0
  139.6200   74.0700  221.1540 C   0  0  0  0  0  0  0  0  0  0  0  0
  139.7430   75.5170  221.4640 C   0  0  0  0  0  0  0  0  0  0  0  0
  140.0940   75.8010  222.6560 O   0  0  0  0  0  0  0  0  0  0  0  0
  139.4870   76.5300  220.5030 N   0  0  0  0  0  0  0  0  0  0  0  0
  138.6570   76.3250  219.3370 C   0  0  0  0  0  0  0  0  0  0  0  0
  138.1000   77.7080  219.1010 C   0  0  2  0  0  0  0  0  0  0  0  0
  137.6390   77.9130  217.8210 O   0  0  0  0  0  0  0  0  0  0  0  0
  139.3290   78.5700  219.4300 C   0  0  0  0  0  0  0  0  0  0  0  0
  140.0140   77.8730  220.5600 C   0  0  1  0  0  0  0  0  0  0  0  0
  139.7890   78.5230  221.8690 C   0  0  0  0  0  0  0  0  0  0  0  0
  138.8340   78.2880  222.6320 O   0  0  0  0  0  0  0  0  0  0  0  0
  140.7450   79.4950  222.2860 N   0  0  0  0  0  0  0  0  0  0  0  0
  141.9430   79.9520  221.5870 C   0  0  0  0  0  0  0  0  0  0  0  0
  142.9700   80.1130  222.6610 C   0  0  0  0  0  0  0  0  0  0  0  0
  142.1820   80.5820  223.8390 C   0  0  0  0  0  0  0  0  0  0  0  0
  140.7470   80.2750  223.5330 C   0  0  0  0  0  0  0  0  0  0  0  0
  139.9830   71.2240  223.6390 C   0  0  0  0  0  0  0  0  0  0  0  0
  139.5700   69.9070  223.7590 C   0  0  0  0  0  0  0  0  0  0  0  0
  139.6100   69.2090  224.9420 C   0  0  0  0  0  0  0  0  0  0  0  0
  140.0960   69.8930  226.0530 C   0  0  0  0  0  0  0  0  0  0  0  0
  140.1430   69.2180  227.2350 C   0  0  0  0  0  0  0  0  0  0  0  0
  140.6230   69.8770  228.3510 C   0  0  0  0  0  0  0  0  0  0  0  0
  141.0470   71.2030  228.2640 C   0  0  0  0  0  0  0  0  0  0  0  0
  140.9780   71.8490  227.0310 C   0  0  0  0  0  0  0  0  0  0  0  0
  140.4990   71.1880  225.9170 C   0  0  0  0  0  0  0  0  0  0  0  0
  140.4400   71.8190  224.7500 N   0  0  0  0  0  0  0  0  0  0  0  0
  139.5740   73.8060  223.2960 H   0  0  0  0  0  0  0  0  0  0  0  0
  140.4391   73.7655  220.4859 H   0  0  0  0  0  0  0  0  0  0  0  0
  138.6573   73.8779  220.6577 H   0  0  0  0  0  0  0  0  0  0  0  0
  139.2523   75.9820  218.4780 H   0  0  0  0  0  0  0  0  0  0  0  0
  137.8850   75.5532  219.4723 H   0  0  0  0  0  0  0  0  0  0  0  0
  137.2055   77.9293  219.7018 H   0  0  0  0  0  0  0  0  0  0  0  0
  138.0050   78.7560  217.4890 H   0  0  0  0  0  0  0  0  0  0  0  0
  139.9964   78.6366  218.5582 H   0  0  0  0  0  0  0  0  0  0  0  0
  139.0463   79.5991  219.6964 H   0  0  0  0  0  0  0  0  0  0  0  0
  141.1091   77.9000  220.4597 H   0  0  0  0  0  0  0  0  0  0  0  0
  142.2689   79.2060  220.8472 H   0  0  0  0  0  0  0  0  0  0  0  0
  141.7706   80.8861  221.0323 H   0  0  0  0  0  0  0  0  0  0  0  0
  143.4649   79.1547  222.8769 H   0  0  0  0  0  0  0  0  0  0  0  0
  143.7729   80.8107  222.3809 H   0  0  0  0  0  0  0  0  0  0  0  0
  142.5005   80.0491  224.7471 H   0  0  0  0  0  0  0  0  0  0  0  0
  142.3319   81.6568  224.0186 H   0  0  0  0  0  0  0  0  0  0  0  0
  140.3013   79.6879  224.3495 H   0  0  0  0  0  0  0  0  0  0  0  0
  140.1562   81.1968  223.4273 H   0  0  0  0  0  0  0  0  0  0  0  0
  139.1911   69.3945  222.8625 H   0  0  0  0  0  0  0  0  0  0  0  0
  139.2751   68.1633  225.0078 H   0  0  0  0  0  0  0  0  0  0  0  0
  139.8068   68.1727  227.2999 H   0  0  0  0  0  0  0  0  0  0  0  0
  140.6711   69.3513  229.3161 H   0  0  0  0  0  0  0  0  0  0  0  0
  141.4286   71.7288  229.1517 H   0  0  0  0  0  0  0  0  0  0  0  0
  141.3080   72.8947  226.9443 H   0  0  0  0  0  0  0  0  0  0  0  0
  1  2  2  0
  2  3  1  0
  3  4  1  0
  4  5  1  0
  5  6  2  0
  5  7  1  0
  7  8  1  0
  8  9  1  0
  9 10  1  0
  9 11  1  0
 11 12  1  0
 12 13  1  0
 13 14  2  0
 13 15  1  0
 15 16  1  0
 16 17  1  0
 17 18  1  0
 18 19  1  0
  2 20  1  0
 20 21  2  0
 21 22  1  0
 22 23  2  0
 23 24  1  0
 24 25  2  0
 25 26  1  0
 26 27  2  0
 27 28  1  0
 28 29  2  0
 12  7  1  0
 19 15  1  0
 29 20  1  0
 28 23  1  0
  3 30  1  0
  4 31  1  0
  4 32  1  0
  8 33  1  0
  8 34  1  0
  9 35  1  1
 10 36  1  0
 11 37  1  0
 11 38  1  0
 12 39  1  6
 16 40  1  0
 16 41  1  0
 17 42  1  0
 17 43  1  0
 18 44  1  0
 18 45  1  0
 19 46  1  0
 19 47  1  0
 21 48  1  0
 22 49  1  0
 24 50  1  0
 25 51  1  0
 26 52  1  0
 27 53  1  0
M  END
>  <smiles>  (14) 
O=C(NCC(=O)N1C[C@H](O)C[C@H]1C(=O)N1CCCC1)c1ccc2ccccc2n1

>  <score_type>  (14) 
oracle

>  <origin>  (14) 
autodockgpu

>  <m_score__min__energy>  (14) 
-8.4900000000000002

>  <m_primary>  (14) 
energy

>  <rmsd>  (14) 
2.1732635581141277

>  <m_score__min__rmsd>  (14) 
2.1732635581141277

>  <meeko>  (14) 
{"free_energy": -7.6, "intermolecular_energy": -9.39, "internal_energy": -1.98, "cluster_size": 39, "cluster_id": 1, "rank_in_cluster": 26}

>  <energy>  (14) 
-8.05

>  <cluster_rmsd>  (14) 
0.77

>  <cluster>  (14) 
1

$$$$

     RDKit          3D

 53 56  0  0  0  0  0  0  0  0999 V2000
  138.2410   70.5920  221.7830 O   0  0  0  0  0  0  0  0  0  0  0  0
  138.8340   71.2060  222.7070 C   0  0  0  0  0  0  0  0  0  0  0  0
  139.1860   72.5740  222.6540 N   0  0  0  0  0  0  0  0  0  0  0  0
  138.8770   73.3660  221.5060 C   0  0  0  0  0  0  0  0  0  0  0  0
  139.8200   74.5120  221.4380 C   0  0  0  0  0  0  0  0  0  0  0  0
  140.7710   74.4980  222.2850 O   0  0  0  0  0  0  0  0  0  0  0  0
  139.6800   75.5630  220.4930 N   0  0  0  0  0  0  0  0  0  0  0  0
  138.9470   75.4230  219.2540 C   0  0  0  0  0  0  0  0  0  0  0  0
  138.4560   76.8300  219.0190 C   0  0  2  0  0  0  0  0  0  0  0  0
  138.1140   77.0910  217.7120 O   0  0  0  0  0  0  0  0  0  0  0  0
  139.6780   77.6400  219.4810 C   0  0  0  0  0  0  0  0  0  0  0  0
  140.2410   76.8840  220.6410 C   0  0  1  0  0  0  0  0  0  0  0  0
  139.9250   77.5000  221.9470 C   0  0  0  0  0  0  0  0  0  0  0  0
  139.0400   77.1070  222.7300 O   0  0  0  0  0  0  0  0  0  0  0  0
  140.6970   78.6330  222.3370 N   0  0  0  0  0  0  0  0  0  0  0  0
  141.7810   79.2890  221.6120 C   0  0  0  0  0  0  0  0  0  0  0  0
  142.7800   79.6460  222.6650 C   0  0  0  0  0  0  0  0  0  0  0  0
  141.9400   79.9820  223.8530 C   0  0  0  0  0  0  0  0  0  0  0  0
  140.5790   79.4180  223.5760 C   0  0  0  0  0  0  0  0  0  0  0  0
  139.1830   70.4510  223.9170 C   0  0  0  0  0  0  0  0  0  0  0  0
  138.8960   69.1000  224.0300 C   0  0  0  0  0  0  0  0  0  0  0  0
  139.2040   68.3550  225.1430 C   0  0  0  0  0  0  0  0  0  0  0  0
  139.8330   69.0260  226.1880 C   0  0  0  0  0  0  0  0  0  0  0  0
  140.1460   68.3040  227.3000 C   0  0  0  0  0  0  0  0  0  0  0  0
  140.7720   68.9500  228.3500 C   0  0  0  0  0  0  0  0  0  0  0  0
  141.0740   70.3090  228.2680 C   0  0  0  0  0  0  0  0  0  0  0  0
  140.7330   71.0020  227.1080 C   0  0  0  0  0  0  0  0  0  0  0  0
  140.1080   70.3550  226.0590 C   0  0  0  0  0  0  0  0  0  0  0  0
  139.7900   71.0320  224.9620 N   0  0  0  0  0  0  0  0  0  0  0  0
  139.6820   73.0020  223.4750 H   0  0  0  0  0  0  0  0  0  0  0  0
  138.9761   72.7530  220.5980 H   0  0  0  0  0  0  0  0  0  0  0  0
  137.8449   73.7392  221.5801 H   0  0  0  0  0  0  0  0  0  0  0  0
  139.6030   75.0870  218.4374 H   0  0  0  0  0  0  0  0  0  0  0  0
  138.1425   74.6740  219.2969 H   0  0  0  0  0  0  0  0  0  0  0  0
  137.5202   77.0618  219.5487 H   0  0  0  0  0  0  0  0  0  0  0  0
  137.4610   77.8180  217.6990 H   0  0  0  0  0  0  0  0  0  0  0  0
  140.4200   77.7120  218.6721 H   0  0  0  0  0  0  0  0  0  0  0  0
  139.4054   78.6692  219.7575 H   0  0  0  0  0  0  0  0  0  0  0  0
  141.3410   76.8762  220.6355 H   0  0  0  0  0  0  0  0  0  0  0  0
  142.2237   78.6045  220.8734 H   0  0  0  0  0  0  0  0  0  0  0  0
  141.4339   80.1698  221.0518 H   0  0  0  0  0  0  0  0  0  0  0  0
  143.4424   78.7949  222.8814 H   0  0  0  0  0  0  0  0  0  0  0  0
  143.4398   80.4726  222.3628 H   0  0  0  0  0  0  0  0  0  0  0  0
  142.3637   79.5272  224.7605 H   0  0  0  0  0  0  0  0  0  0  0  0
  141.8973   81.0685  224.0193 H   0  0  0  0  0  0  0  0  0  0  0  0
  140.2592   78.7716  224.4066 H   0  0  0  0  0  0  0  0  0  0  0  0
  139.8307   80.2174  223.4710 H   0  0  0  0  0  0  0  0  0  0  0  0
  138.3970   68.5992  223.1872 H   0  0  0  0  0  0  0  0  0  0  0  0
  138.9656   67.2829  225.2050 H   0  0  0  0  0  0  0  0  0  0  0  0
  139.9063   67.2322  227.3611 H   0  0  0  0  0  0  0  0  0  0  0  0
  141.0341   68.3871  229.2580 H   0  0  0  0  0  0  0  0  0  0  0  0
  141.5718   70.8240  229.1028 H   0  0  0  0  0  0  0  0  0  0  0  0
  140.9636   72.0745  227.0266 H   0  0  0  0  0  0  0  0  0  0  0  0
  1  2  2  0
  2  3  1  0
  3  4  1  0
  4  5  1  0
  5  6  2  0
  5  7  1  0
  7  8  1  0
  8  9  1  0
  9 10  1  0
  9 11  1  0
 11 12  1  0
 12 13  1  0
 13 14  2  0
 13 15  1  0
 15 16  1  0
 16 17  1  0
 17 18  1  0
 18 19  1  0
  2 20  1  0
 20 21  2  0
 21 22  1  0
 22 23  2  0
 23 24  1  0
 24 25  2  0
 25 26  1  0
 26 27  2  0
 27 28  1  0
 28 29  2  0
 12  7  1  0
 19 15  1  0
 29 20  1  0
 28 23  1  0
  3 30  1  0
  4 31  1  0
  4 32  1  0
  8 33  1  0
  8 34  1  0
  9 35  1  1
 10 36  1  0
 11 37  1  0
 11 38  1  0
 12 39  1  6
 16 40  1  0
 16 41  1  0
 17 42  1  0
 17 43  1  0
 18 44  1  0
 18 45  1  0
 19 46  1  0
 19 47  1  0
 21 48  1  0
 22 49  1  0
 24 50  1  0
 25 51  1  0
 26 52  1  0
 27 53  1  0
M  END
>  <smiles>  (15) 
O=C(NCC(=O)N1C[C@H](O)C[C@H]1C(=O)N1CCCC1)c1ccc2ccccc2n1

>  <score_type>  (15) 
oracle

>  <origin>  (15) 
autodockgpu

>  <m_score__min__energy>  (15) 
-8.4900000000000002

>  <m_primary>  (15) 
energy

>  <rmsd>  (15) 
1.9956461916988435

>  <m_score__min__rmsd>  (15) 
1.9956461916988435

>  <meeko>  (15) 
{"free_energy": -7.59, "intermolecular_energy": -9.38, "internal_energy": -2.14, "cluster_size": 39, "cluster_id": 1, "rank_in_cluster": 30}

>  <energy>  (15) 
-8.0

>  <cluster_rmsd>  (15) 
0.89

>  <cluster>  (15) 
1

$$$$

     RDKit          3D

 53 56  0  0  0  0  0  0  0  0999 V2000
  138.2870   70.6350  221.7590 O   0  0  0  0  0  0  0  0  0  0  0  0
  138.8640   71.2330  222.7030 C   0  0  0  0  0  0  0  0  0  0  0  0
  139.2150   72.6020  222.6810 N   0  0  0  0  0  0  0  0  0  0  0  0
  138.9220   73.4150  221.5420 C   0  0  0  0  0  0  0  0  0  0  0  0
  139.9300   74.5010  221.4490 C   0  0  0  0  0  0  0  0  0  0  0  0
  140.8970   74.4330  222.2770 O   0  0  0  0  0  0  0  0  0  0  0  0
  139.8340   75.5560  220.5030 N   0  0  0  0  0  0  0  0  0  0  0  0
  139.1490   75.4230  219.2360 C   0  0  0  0  0  0  0  0  0  0  0  0
  138.6760   76.8350  218.9860 C   0  0  2  0  0  0  0  0  0  0  0  0
  138.3870   77.1000  217.6670 O   0  0  0  0  0  0  0  0  0  0  0  0
  139.8840   77.6350  219.4980 C   0  0  0  0  0  0  0  0  0  0  0  0
  140.3970   76.8740  220.6760 C   0  0  1  0  0  0  0  0  0  0  0  0
  140.0330   77.4880  221.9710 C   0  0  0  0  0  0  0  0  0  0  0  0
  139.1500   77.0670  222.7420 O   0  0  0  0  0  0  0  0  0  0  0  0
  140.7520   78.6540  222.3640 N   0  0  0  0  0  0  0  0  0  0  0  0
  141.8220   79.3460  221.6520 C   0  0  0  0  0  0  0  0  0  0  0  0
  142.7870   79.7520  222.7180 C   0  0  0  0  0  0  0  0  0  0  0  0
  141.9130   80.0640  223.8880 C   0  0  0  0  0  0  0  0  0  0  0  0
  140.5810   79.4440  223.5930 C   0  0  0  0  0  0  0  0  0  0  0  0
  139.1950   70.4570  223.9050 C   0  0  0  0  0  0  0  0  0  0  0  0
  138.8900   69.1080  223.9980 C   0  0  0  0  0  0  0  0  0  0  0  0
  139.1810   68.3440  225.1020 C   0  0  0  0  0  0  0  0  0  0  0  0
  139.8110   68.9920  226.1600 C   0  0  0  0  0  0  0  0  0  0  0  0
  140.1070   68.2510  227.2640 C   0  0  0  0  0  0  0  0  0  0  0  0
  140.7340   68.8740  228.3270 C   0  0  0  0  0  0  0  0  0  0  0  0
  141.0540   70.2300  228.2660 C   0  0  0  0  0  0  0  0  0  0  0  0
  140.7290   70.9440  227.1140 C   0  0  0  0  0  0  0  0  0  0  0  0
  140.1040   70.3190  226.0520 C   0  0  0  0  0  0  0  0  0  0  0  0
  139.8020   71.0150  224.9620 N   0  0  0  0  0  0  0  0  0  0  0  0
  139.6960   73.0160  223.5170 H   0  0  0  0  0  0  0  0  0  0  0  0
  138.9582   72.7997  220.6309 H   0  0  0  0  0  0  0  0  0  0  0  0
  137.9169   73.8498  221.6453 H   0  0  0  0  0  0  0  0  0  0  0  0
  139.8342   75.0849  218.4446 H   0  0  0  0  0  0  0  0  0  0  0  0
  138.3391   74.6787  219.2453 H   0  0  0  0  0  0  0  0  0  0  0  0
  137.7220   77.0731  219.4792 H   0  0  0  0  0  0  0  0  0  0  0  0
  138.7820   77.9620  217.4290 H   0  0  0  0  0  0  0  0  0  0  0  0
  140.6573   77.7042  218.7188 H   0  0  0  0  0  0  0  0  0  0  0  0
  139.6067   78.6649  219.7671 H   0  0  0  0  0  0  0  0  0  0  0  0
  141.4963   76.8607  220.7129 H   0  0  0  0  0  0  0  0  0  0  0  0
  142.3045   78.6730  220.9280 H   0  0  0  0  0  0  0  0  0  0  0  0
  141.4502   80.2073  221.0776 H   0  0  0  0  0  0  0  0  0  0  0  0
  143.4793   78.9303  222.9538 H   0  0  0  0  0  0  0  0  0  0  0  0
  143.4185   80.6018  222.4196 H   0  0  0  0  0  0  0  0  0  0  0  0
  142.3384   79.6342  224.8069 H   0  0  0  0  0  0  0  0  0  0  0  0
  141.8240   81.1493  224.0433 H   0  0  0  0  0  0  0  0  0  0  0  0
  140.2725   78.7925  224.4239 H   0  0  0  0  0  0  0  0  0  0  0  0
  139.8034   80.2119  223.4678 H   0  0  0  0  0  0  0  0  0  0  0  0
  138.3901   68.6252  223.1454 H   0  0  0  0  0  0  0  0  0  0  0  0
  138.9288   67.2743  225.1473 H   0  0  0  0  0  0  0  0  0  0  0  0
  139.8530   67.1817  227.3087 H   0  0  0  0  0  0  0  0  0  0  0  0
  140.9826   68.2951  229.2287 H   0  0  0  0  0  0  0  0  0  0  0  0
  141.5534   70.7266  229.1110 H   0  0  0  0  0  0  0  0  0  0  0  0
  140.9723   72.0148  227.0497 H   0  0  0  0  0  0  0  0  0  0  0  0
  1  2  2  0
  2  3  1  0
  3  4  1  0
  4  5  1  0
  5  6  2  0
  5  7  1  0
  7  8  1  0
  8  9  1  0
  9 10  1  0
  9 11  1  0
 11 12  1  0
 12 13  1  0
 13 14  2  0
 13 15  1  0
 15 16  1  0
 16 17  1  0
 17 18  1  0
 18 19  1  0
  2 20  1  0
 20 21  2  0
 21 22  1  0
 22 23  2  0
 23 24  1  0
 24 25  2  0
 25 26  1  0
 26 27  2  0
 27 28  1  0
 28 29  2  0
 12  7  1  0
 19 15  1  0
 29 20  1  0
 28 23  1  0
  3 30  1  0
  4 31  1  0
  4 32  1  0
  8 33  1  0
  8 34  1  0
  9 35  1  1
 10 36  1  0
 11 37  1  0
 11 38  1  0
 12 39  1  6
 16 40  1  0
 16 41  1  0
 17 42  1  0
 17 43  1  0
 18 44  1  0
 18 45  1  0
 19 46  1  0
 19 47  1  0
 21 48  1  0
 22 49  1  0
 24 50  1  0
 25 51  1  0
 26 52  1  0
 27 53  1  0
M  END
>  <smiles>  (16) 
O=C(NCC(=O)N1C[C@H](O)C[C@H]1C(=O)N1CCCC1)c1ccc2ccccc2n1

>  <score_type>  (16) 
oracle

>  <origin>  (16) 
autodockgpu

>  <m_score__min__energy>  (16) 
-8.4900000000000002

>  <m_primary>  (16) 
energy

>  <rmsd>  (16) 
1.9764198428798543

>  <m_score__min__rmsd>  (16) 
1.9764198428798543

>  <meeko>  (16) 
{"free_energy": -7.59, "intermolecular_energy": -9.38, "internal_energy": -2.11, "cluster_size": 39, "cluster_id": 1, "rank_in_cluster": 29}

>  <energy>  (16) 
-8.0

>  <cluster_rmsd>  (16) 
1.66

>  <cluster>  (16) 
1

$$$$

     RDKit          3D

 53 56  0  0  0  0  0  0  0  0999 V2000
  140.5060   71.0580  221.3100 O   0  0  0  0  0  0  0  0  0  0  0  0
  140.1530   71.7510  222.2980 C   0  0  0  0  0  0  0  0  0  0  0  0
  139.8820   73.1370  222.2420 N   0  0  0  0  0  0  0  0  0  0  0  0
  139.9980   73.8570  221.0130 C   0  0  0  0  0  0  0  0  0  0  0  0
  140.6910   75.1450  221.2690 C   0  0  0  0  0  0  0  0  0  0  0  0
  140.3590   75.7510  222.3400 O   0  0  0  0  0  0  0  0  0  0  0  0
  141.6640   75.6790  220.3830 N   0  0  0  0  0  0  0  0  0  0  0  0
  142.2720   74.9130  219.3170 C   0  0  0  0  0  0  0  0  0  0  0  0
  142.5740   75.9830  218.2960 C   0  0  2  0  0  0  0  0  0  0  0  0
  143.5390   75.6240  217.3830 O   0  0  0  0  0  0  0  0  0  0  0  0
  143.0260   77.1320  219.2110 C   0  0  0  0  0  0  0  0  0  0  0  0
  142.1680   77.0310  220.4300 C   0  0  1  0  0  0  0  0  0  0  0  0
  141.0920   78.0440  220.4710 C   0  0  0  0  0  0  0  0  0  0  0  0
  140.1660   78.1410  219.6440 O   0  0  0  0  0  0  0  0  0  0  0  0
  141.1210   78.9820  221.5440 N   0  0  0  0  0  0  0  0  0  0  0  0
  142.0860   79.0880  222.6340 C   0  0  0  0  0  0  0  0  0  0  0  0
  141.2650   79.4310  223.8350 C   0  0  0  0  0  0  0  0  0  0  0  0
  140.1790   80.2970  223.2890 C   0  0  0  0  0  0  0  0  0  0  0  0
  140.1740   80.0770  221.8060 C   0  0  0  0  0  0  0  0  0  0  0  0
  140.0140   71.0740  223.5940 C   0  0  0  0  0  0  0  0  0  0  0  0
  139.3960   69.8370  223.6980 C   0  0  0  0  0  0  0  0  0  0  0  0
  139.2440   69.1680  224.8880 C   0  0  0  0  0  0  0  0  0  0  0  0
  139.7490   69.7950  226.0240 C   0  0  0  0  0  0  0  0  0  0  0  0
  139.6070   69.1470  227.2140 C   0  0  0  0  0  0  0  0  0  0  0  0
  140.1020   69.7510  228.3550 C   0  0  0  0  0  0  0  0  0  0  0  0
  140.7290   70.9950  228.2850 C   0  0  0  0  0  0  0  0  0  0  0  0
  140.8480   71.6160  227.0430 C   0  0  0  0  0  0  0  0  0  0  0  0
  140.3540   71.0110  225.9040 C   0  0  0  0  0  0  0  0  0  0  0  0
  140.4760   71.6180  224.7290 N   0  0  0  0  0  0  0  0  0  0  0  0
  139.5930   73.6330  223.1210 H   0  0  0  0  0  0  0  0  0  0  0  0
  140.5784   73.2633  220.2915 H   0  0  0  0  0  0  0  0  0  0  0  0
  138.9968   74.0501  220.6003 H   0  0  0  0  0  0  0  0  0  0  0  0
  143.1914   74.4141  219.6573 H   0  0  0  0  0  0  0  0  0  0  0  0
  141.6354   74.1015  218.9346 H   0  0  0  0  0  0  0  0  0  0  0  0
  141.7210   76.2212  217.6436 H   0  0  0  0  0  0  0  0  0  0  0  0
  144.4150   75.7020  217.8090 H   0  0  0  0  0  0  0  0  0  0  0  0
  144.0872   77.0172  219.4769 H   0  0  0  0  0  0  0  0  0  0  0  0
  142.9235   78.1105  218.7191 H   0  0  0  0  0  0  0  0  0  0  0  0
  142.7324   77.2372  221.3514 H   0  0  0  0  0  0  0  0  0  0  0  0
  142.6102   78.1324  222.7824 H   0  0  0  0  0  0  0  0  0  0  0  0
  142.8620   79.8408  222.4313 H   0  0  0  0  0  0  0  0  0  0  0  0
  140.8479   78.5238  224.2966 H   0  0  0  0  0  0  0  0  0  0  0  0
  141.8504   79.9286  224.6222 H   0  0  0  0  0  0  0  0  0  0  0  0
  139.2088   80.0094  223.7204 H   0  0  0  0  0  0  0  0  0  0  0  0
  140.3478   81.3554  223.5365 H   0  0  0  0  0  0  0  0  0  0  0  0
  139.1658   79.7971  221.4666 H   0  0  0  0  0  0  0  0  0  0  0  0
  140.4632   80.9912  221.2668 H   0  0  0  0  0  0  0  0  0  0  0  0
  139.0081   69.3680  222.7817 H   0  0  0  0  0  0  0  0  0  0  0  0
  138.7487   68.1872  224.9408 H   0  0  0  0  0  0  0  0  0  0  0  0
  139.1104   68.1668  227.2658 H   0  0  0  0  0  0  0  0  0  0  0  0
  140.0004   69.2458  229.3268 H   0  0  0  0  0  0  0  0  0  0  0  0
  141.1220   71.4766  229.1926 H   0  0  0  0  0  0  0  0  0  0  0  0
  141.3400   72.5971  226.9692 H   0  0  0  0  0  0  0  0  0  0  0  0
  1  2  2  0
  2  3  1  0
  3  4  1  0
  4  5  1  0
  5  6  2  0
  5  7  1  0
  7  8  1  0
  8  9  1  0
  9 10  1  0
  9 11  1  0
 11 12  1  0
 12 13  1  0
 13 14  2  0
 13 15  1  0
 15 16  1  0
 16 17  1  0
 17 18  1  0
 18 19  1  0
  2 20  1  0
 20 21  2  0
 21 22  1  0
 22 23  2  0
 23 24  1  0
 24 25  2  0
 25 26  1  0
 26 27  2  0
 27 28  1  0
 28 29  2  0
 12  7  1  0
 19 15  1  0
 29 20  1  0
 28 23  1  0
  3 30  1  0
  4 31  1  0
  4 32  1  0
  8 33  1  0
  8 34  1  0
  9 35  1  6
 10 36  1  0
 11 37  1  0
 11 38  1  0
 12 39  1  1
 16 40  1  0
 16 41  1  0
 17 42  1  0
 17 43  1  0
 18 44  1  0
 18 45  1  0
 19 46  1  0
 19 47  1  0
 21 48  1  0
 22 49  1  0
 24 50  1  0
 25 51  1  0
 26 52  1  0
 27 53  1  0
M  END
>  <smiles>  (17) 
O=C(NCC(=O)N1C[C@H](O)C[C@H]1C(=O)N1CCCC1)c1ccc2ccccc2n1

>  <score_type>  (17) 
oracle

>  <origin>  (17) 
autodockgpu

>  <m_score__min__energy>  (17) 
-8.4900000000000002

>  <m_primary>  (17) 
energy

>  <rmsd>  (17) 
2.022485564481499

>  <m_score__min__rmsd>  (17) 
2.022485564481499

>  <meeko>  (17) 
{"free_energy": -8.36, "intermolecular_energy": -10.15, "internal_energy": -1.88, "cluster_size": 39, "cluster_id": 1, "rank_in_cluster": 4}

>  <energy>  (17) 
-7.95

>  <cluster_rmsd>  (17) 
0.67

>  <cluster>  (17) 
1

$$$$

     RDKit          3D

 53 56  0  0  0  0  0  0  0  0999 V2000
  139.9800   70.8690  221.1580 O   0  0  0  0  0  0  0  0  0  0  0  0
  140.2800   71.6330  222.1100 C   0  0  0  0  0  0  0  0  0  0  0  0
  140.7120   72.9700  221.9520 N   0  0  0  0  0  0  0  0  0  0  0  0
  140.8360   73.5500  220.6520 C   0  0  0  0  0  0  0  0  0  0  0  0
  141.2410   74.9720  220.7920 C   0  0  0  0  0  0  0  0  0  0  0  0
  140.9840   75.5140  221.9160 O   0  0  0  0  0  0  0  0  0  0  0  0
  141.8760   75.6930  219.7460 N   0  0  0  0  0  0  0  0  0  0  0  0
  141.6260   77.0930  219.4830 C   0  0  0  0  0  0  0  0  0  0  0  0
  142.9440   77.5440  218.9010 C   0  0  2  0  0  0  0  0  0  0  0  0
  142.8600   78.6990  218.1590 O   0  0  0  0  0  0  0  0  0  0  0  0
  143.3120   76.3190  218.0480 C   0  0  0  0  0  0  0  0  0  0  0  0
  142.8360   75.1350  218.8240 C   0  0  1  0  0  0  0  0  0  0  0  0
  143.9280   74.4050  219.5030 C   0  0  0  0  0  0  0  0  0  0  0  0
  144.7300   74.9060  220.3140 O   0  0  0  0  0  0  0  0  0  0  0  0
  144.0710   73.0190  219.2020 N   0  0  0  0  0  0  0  0  0  0  0  0
  143.2740   72.1980  218.2950 C   0  0  0  0  0  0  0  0  0  0  0  0
  143.1330   70.8860  218.9980 C   0  0  0  0  0  0  0  0  0  0  0  0
  144.4330   70.7240  219.7140 C   0  0  0  0  0  0  0  0  0  0  0  0
  145.0690   72.0810  219.7390 C   0  0  0  0  0  0  0  0  0  0  0  0
  140.1750   71.1010  223.4750 C   0  0  0  0  0  0  0  0  0  0  0  0
  139.5460   69.8920  223.7290 C   0  0  0  0  0  0  0  0  0  0  0  0
  139.4250   69.3560  224.9890 C   0  0  0  0  0  0  0  0  0  0  0  0
  139.9730   70.0920  226.0350 C   0  0  0  0  0  0  0  0  0  0  0  0
  139.8620   69.5770  227.2910 C   0  0  0  0  0  0  0  0  0  0  0  0
  140.4000   70.2920  228.3450 C   0  0  0  0  0  0  0  0  0  0  0  0
  141.0390   71.5120  228.1230 C   0  0  0  0  0  0  0  0  0  0  0  0
  141.1250   71.9950  226.8190 C   0  0  0  0  0  0  0  0  0  0  0  0
  140.5890   71.2790  225.7660 C   0  0  0  0  0  0  0  0  0  0  0  0
  140.6800   71.7550  224.5300 N   0  0  0  0  0  0  0  0  0  0  0  0
  140.9410   73.5330  222.8080 H   0  0  0  0  0  0  0  0  0  0  0  0
  141.5984   73.0047  220.0763 H   0  0  0  0  0  0  0  0  0  0  0  0
  139.8724   73.4888  220.1250 H   0  0  0  0  0  0  0  0  0  0  0  0
  140.8053   77.2238  218.7623 H   0  0  0  0  0  0  0  0  0  0  0  0
  141.3158   77.6624  220.3716 H   0  0  0  0  0  0  0  0  0  0  0  0
  143.6896   77.8185  219.6617 H   0  0  0  0  0  0  0  0  0  0  0  0
  143.6490   78.7590  217.5850 H   0  0  0  0  0  0  0  0  0  0  0  0
  142.8090   76.3658  217.0709 H   0  0  0  0  0  0  0  0  0  0  0  0
  144.3929   76.2694  217.8499 H   0  0  0  0  0  0  0  0  0  0  0  0
  142.3955   74.3646  218.1741 H   0  0  0  0  0  0  0  0  0  0  0  0
  142.2880   72.6544  218.1234 H   0  0  0  0  0  0  0  0  0  0  0  0
  143.7443   72.0926  217.3062 H   0  0  0  0  0  0  0  0  0  0  0  0
  142.2943   70.9107  219.7093 H   0  0  0  0  0  0  0  0  0  0  0  0
  142.9203   70.0551  218.3093 H   0  0  0  0  0  0  0  0  0  0  0  0
  144.2613   70.3645  220.7393 H   0  0  0  0  0  0  0  0  0  0  0  0
  145.0782   69.9883  219.2116 H   0  0  0  0  0  0  0  0  0  0  0  0
  145.3345   72.3575  220.7700 H   0  0  0  0  0  0  0  0  0  0  0  0
  145.9933   72.0986  219.1428 H   0  0  0  0  0  0  0  0  0  0  0  0
  139.1229   69.3342  222.8806 H   0  0  0  0  0  0  0  0  0  0  0  0
  138.9205   68.3939  225.1616 H   0  0  0  0  0  0  0  0  0  0  0  0
  139.3564   68.6153  227.4627 H   0  0  0  0  0  0  0  0  0  0  0  0
  140.3234   69.8952  229.3681 H   0  0  0  0  0  0  0  0  0  0  0  0
  141.4667   72.0816  228.9612 H   0  0  0  0  0  0  0  0  0  0  0  0
  141.6245   72.9558  226.6260 H   0  0  0  0  0  0  0  0  0  0  0  0
  1  2  2  0
  2  3  1  0
  3  4  1  0
  4  5  1  0
  5  6  2  0
  5  7  1  0
  7  8  1  0
  8  9  1  0
  9 10  1  0
  9 11  1  0
 11 12  1  0
 12 13  1  0
 13 14  2  0
 13 15  1  0
 15 16  1  0
 16 17  1  0
 17 18  1  0
 18 19  1  0
  2 20  1  0
 20 21  2  0
 21 22  1  0
 22 23  2  0
 23 24  1  0
 24 25  2  0
 25 26  1  0
 26 27  2  0
 27 28  1  0
 28 29  2  0
 12  7  1  0
 19 15  1  0
 29 20  1  0
 28 23  1  0
  3 30  1  0
  4 31  1  0
  4 32  1  0
  8 33  1  0
  8 34  1  0
  9 35  1  1
 10 36  1  0
 11 37  1  0
 11 38  1  0
 12 39  1  6
 16 40  1  0
 16 41  1  0
 17 42  1  0
 17 43  1  0
 18 44  1  0
 18 45  1  0
 19 46  1  0
 19 47  1  0
 21 48  1  0
 22 49  1  0
 24 50  1  0
 25 51  1  0
 26 52  1  0
 27 53  1  0
M  END
>  <smiles>  (18) 
O=C(NCC(=O)N1C[C@H](O)C[C@H]1C(=O)N1CCCC1)c1ccc2ccccc2n1

>  <score_type>  (18) 
oracle

>  <origin>  (18) 
autodockgpu

>  <m_score__min__energy>  (18) 
-8.4900000000000002

>  <m_primary>  (18) 
energy

>  <rmsd>  (18) 
4.819400871715296

>  <m_score__min__rmsd>  (18) 
4.819400871715296

>  <meeko>  (18) 
{"free_energy": -7.12, "intermolecular_energy": -8.91, "internal_energy": -2.52, "cluster_size": 2, "cluster_id": 4, "rank_in_cluster": 1}

>  <energy>  (18) 
-7.93

>  <cluster_rmsd>  (18) 
0.9

>  <cluster>  (18) 
1

$$$$

     RDKit          3D

 53 56  0  0  0  0  0  0  0  0999 V2000
  141.2510   71.8950  221.6540 O   0  0  0  0  0  0  0  0  0  0  0  0
  140.3140   72.1980  222.4360 C   0  0  0  0  0  0  0  0  0  0  0  0
  139.3760   73.2280  222.1930 N   0  0  0  0  0  0  0  0  0  0  0  0
  139.4440   74.0130  221.0010 C   0  0  0  0  0  0  0  0  0  0  0  0
  140.6430   74.8870  221.0630 C   0  0  0  0  0  0  0  0  0  0  0  0
  141.0940   75.1280  222.2300 O   0  0  0  0  0  0  0  0  0  0  0  0
  141.2560   75.4270  219.9010 N   0  0  0  0  0  0  0  0  0  0  0  0
  141.7630   76.7800  219.8290 C   0  0  0  0  0  0  0  0  0  0  0  0
  142.8910   76.6390  218.8360 C   0  0  2  0  0  0  0  0  0  0  0  0
  143.2620   77.8240  218.2420 O   0  0  0  0  0  0  0  0  0  0  0  0
  142.2700   75.6500  217.8370 C   0  0  0  0  0  0  0  0  0  0  0  0
  141.4510   74.7110  218.6630 C   0  0  1  0  0  0  0  0  0  0  0  0
  142.0910   73.3930  218.8560 C   0  0  0  0  0  0  0  0  0  0  0  0
  141.7390   72.3360  218.2980 O   0  0  0  0  0  0  0  0  0  0  0  0
  143.1980   73.3310  219.7510 N   0  0  0  0  0  0  0  0  0  0  0  0
  143.8040   74.4100  220.5250 C   0  0  0  0  0  0  0  0  0  0  0  0
  145.2730   74.1440  220.4610 C   0  0  0  0  0  0  0  0  0  0  0  0
  145.3650   72.6530  220.4620 C   0  0  0  0  0  0  0  0  0  0  0  0
  143.9980   72.1500  220.1110 C   0  0  0  0  0  0  0  0  0  0  0  0
  140.1870   71.4300  223.6810 C   0  0  0  0  0  0  0  0  0  0  0  0
  139.5510   70.1990  223.7070 C   0  0  0  0  0  0  0  0  0  0  0  0
  139.4090   69.4470  224.8480 C   0  0  0  0  0  0  0  0  0  0  0  0
  139.9430   69.9820  226.0170 C   0  0  0  0  0  0  0  0  0  0  0  0
  139.8110   69.2510  227.1590 C   0  0  0  0  0  0  0  0  0  0  0  0
  140.3340   69.7640  228.3320 C   0  0  0  0  0  0  0  0  0  0  0  0
  140.9800   71.0000  228.3410 C   0  0  0  0  0  0  0  0  0  0  0  0
  141.0870   71.7080  227.1450 C   0  0  0  0  0  0  0  0  0  0  0  0
  140.5650   71.1950  225.9740 C   0  0  0  0  0  0  0  0  0  0  0  0
  140.6760   71.8830  224.8440 N   0  0  0  0  0  0  0  0  0  0  0  0
  138.6270   73.4090  222.9050 H   0  0  0  0  0  0  0  0  0  0  0  0
  139.5165   73.3496  220.1266 H   0  0  0  0  0  0  0  0  0  0  0  0
  138.5386   74.6314  220.9122 H   0  0  0  0  0  0  0  0  0  0  0  0
  140.9937   77.4764  219.4640 H   0  0  0  0  0  0  0  0  0  0  0  0
  142.0758   77.1891  220.8010 H   0  0  0  0  0  0  0  0  0  0  0  0
  143.8360   76.3060  219.2900 H   0  0  0  0  0  0  0  0  0  0  0  0
  143.7540   78.3590  218.8960 H   0  0  0  0  0  0  0  0  0  0  0  0
  141.6336   76.1818  217.1144 H   0  0  0  0  0  0  0  0  0  0  0  0
  143.0387   75.1191  217.2563 H   0  0  0  0  0  0  0  0  0  0  0  0
  140.5011   74.4501  218.1736 H   0  0  0  0  0  0  0  0  0  0  0  0
  143.5670   75.3874  220.0795 H   0  0  0  0  0  0  0  0  0  0  0  0
  143.4312   74.4403  221.5595 H   0  0  0  0  0  0  0  0  0  0  0  0
  145.7075   74.5629  219.5414 H   0  0  0  0  0  0  0  0  0  0  0  0
  145.8256   74.6051  221.2929 H   0  0  0  0  0  0  0  0  0  0  0  0
  146.0989   72.3157  219.7153 H   0  0  0  0  0  0  0  0  0  0  0  0
  145.6935   72.2722  221.4403 H   0  0  0  0  0  0  0  0  0  0  0  0
  144.0555   71.4560  219.2595 H   0  0  0  0  0  0  0  0  0  0  0  0
  143.5463   71.6052  220.9531 H   0  0  0  0  0  0  0  0  0  0  0  0
  139.1391   69.8040  222.7666 H   0  0  0  0  0  0  0  0  0  0  0  0
  138.8995   68.4722  224.8383 H   0  0  0  0  0  0  0  0  0  0  0  0
  139.3009   68.2765  227.1484 H   0  0  0  0  0  0  0  0  0  0  0  0
  140.2396   69.1918  229.2667 H   0  0  0  0  0  0  0  0  0  0  0  0
  141.3969   71.4081  229.2736 H   0  0  0  0  0  0  0  0  0  0  0  0
  141.5923   72.6850  227.1339 H   0  0  0  0  0  0  0  0  0  0  0  0
  1  2  2  0
  2  3  1  0
  3  4  1  0
  4  5  1  0
  5  6  2  0
  5  7  1  0
  7  8  1  0
  8  9  1  0
  9 10  1  0
  9 11  1  0
 11 12  1  0
 12 13  1  0
 13 14  2  0
 13 15  1  0
 15 16  1  0
 16 17  1  0
 17 18  1  0
 18 19  1  0
  2 20  1  0
 20 21  2  0
 21 22  1  0
 22 23  2  0
 23 24  1  0
 24 25  2  0
 25 26  1  0
 26 27  2  0
 27 28  1  0
 28 29  2  0
 12  7  1  0
 19 15  1  0
 29 20  1  0
 28 23  1  0
  3 30  1  0
  4 31  1  0
  4 32  1  0
  8 33  1  0
  8 34  1  0
  9 35  1  1
 10 36  1  0
 11 37  1  0
 11 38  1  0
 12 39  1  6
 16 40  1  0
 16 41  1  0
 17 42  1  0
 17 43  1  0
 18 44  1  0
 18 45  1  0
 19 46  1  0
 19 47  1  0
 21 48  1  0
 22 49  1  0
 24 50  1  0
 25 51  1  0
 26 52  1  0
 27 53  1  0
M  END
>  <smiles>  (19) 
O=C(NCC(=O)N1C[C@H](O)C[C@H]1C(=O)N1CCCC1)c1ccc2ccccc2n1

>  <score_type>  (19) 
oracle

>  <origin>  (19) 
autodockgpu

>  <m_score__min__energy>  (19) 
-8.4900000000000002

>  <m_primary>  (19) 
energy

>  <rmsd>  (19) 
4.2893597646787045

>  <m_score__min__rmsd>  (19) 
4.2893597646787045

>  <meeko>  (19) 
{"free_energy": -8.0, "intermolecular_energy": -9.79, "internal_energy": -1.66, "cluster_size": 39, "cluster_id": 1, "rank_in_cluster": 16}

>  <energy>  (19) 
-7.9

>  <cluster_rmsd>  (19) 
1.72

>  <cluster>  (19) 
1

$$$$

     RDKit          3D

 53 56  0  0  0  0  0  0  0  0999 V2000
  140.5750   71.2760  221.2470 O   0  0  0  0  0  0  0  0  0  0  0  0
  140.2960   71.9910  222.2430 C   0  0  0  0  0  0  0  0  0  0  0  0
  140.1010   73.3900  222.1880 N   0  0  0  0  0  0  0  0  0  0  0  0
  140.2150   74.0980  220.9520 C   0  0  0  0  0  0  0  0  0  0  0  0
  140.8420   75.4200  221.2050 C   0  0  0  0  0  0  0  0  0  0  0  0
  140.7030   75.8830  222.3840 O   0  0  0  0  0  0  0  0  0  0  0  0
  141.5550   76.1330  220.2050 N   0  0  0  0  0  0  0  0  0  0  0  0
  141.9300   75.5530  218.9340 C   0  0  0  0  0  0  0  0  0  0  0  0
  141.9340   76.7600  218.0280 C   0  0  2  0  0  0  0  0  0  0  0  0
  142.6740   76.5930  216.8800 O   0  0  0  0  0  0  0  0  0  0  0  0
  142.5330   77.8200  218.9660 C   0  0  0  0  0  0  0  0  0  0  0  0
  141.9910   77.5040  220.3220 C   0  0  1  0  0  0  0  0  0  0  0  0
  140.9080   78.4170  220.7450 C   0  0  0  0  0  0  0  0  0  0  0  0
  139.7410   78.3950  220.3100 O   0  0  0  0  0  0  0  0  0  0  0  0
  141.2300   79.3990  221.7260 N   0  0  0  0  0  0  0  0  0  0  0  0
  142.5080   79.6380  222.3890 C   0  0  0  0  0  0  0  0  0  0  0  0
  142.1480   79.9570  223.8040 C   0  0  0  0  0  0  0  0  0  0  0  0
  140.8580   80.6980  223.6840 C   0  0  0  0  0  0  0  0  0  0  0  0
  140.3390   80.4150  222.3070 C   0  0  0  0  0  0  0  0  0  0  0  0
  140.1640   71.3280  223.5460 C   0  0  0  0  0  0  0  0  0  0  0  0
  139.5600   70.0860  223.6650 C   0  0  0  0  0  0  0  0  0  0  0  0
  139.4160   69.4290  224.8630 C   0  0  0  0  0  0  0  0  0  0  0  0
  139.9120   70.0750  225.9920 C   0  0  0  0  0  0  0  0  0  0  0  0
  139.7770   69.4400  227.1890 C   0  0  0  0  0  0  0  0  0  0  0  0
  140.2640   70.0630  228.3230 C   0  0  0  0  0  0  0  0  0  0  0  0
  140.8760   71.3130  228.2390 C   0  0  0  0  0  0  0  0  0  0  0  0
  140.9890   71.9210  226.9900 C   0  0  0  0  0  0  0  0  0  0  0  0
  140.5030   71.2960  225.8570 C   0  0  0  0  0  0  0  0  0  0  0  0
  140.6190   71.8910  224.6750 N   0  0  0  0  0  0  0  0  0  0  0  0
  139.8710   73.9050  223.0740 H   0  0  0  0  0  0  0  0  0  0  0  0
  140.8397   73.5217  220.2537 H   0  0  0  0  0  0  0  0  0  0  0  0
  139.2165   74.2395  220.5127 H   0  0  0  0  0  0  0  0  0  0  0  0
  142.9256   75.0880  218.9849 H   0  0  0  0  0  0  0  0  0  0  0  0
  141.2593   74.7484  218.5983 H   0  0  0  0  0  0  0  0  0  0  0  0
  140.9414   77.0084  217.6241 H   0  0  0  0  0  0  0  0  0  0  0  0
  143.1840   77.4110  216.7160 H   0  0  0  0  0  0  0  0  0  0  0  0
  143.6312   77.7566  218.9665 H   0  0  0  0  0  0  0  0  0  0  0  0
  142.2714   78.8404  218.6492 H   0  0  0  0  0  0  0  0  0  0  0  0
  142.7455   77.6396  221.1109 H   0  0  0  0  0  0  0  0  0  0  0  0
  143.1425   78.7406  222.3431 H   0  0  0  0  0  0  0  0  0  0  0  0
  143.0789   80.4484  221.9122 H   0  0  0  0  0  0  0  0  0  0  0  0
  142.0182   79.0368  224.3925 H   0  0  0  0  0  0  0  0  0  0  0  0
  142.9262   80.5380  224.3206 H   0  0  0  0  0  0  0  0  0  0  0  0
  140.1430   80.3437  224.4411 H   0  0  0  0  0  0  0  0  0  0  0  0
  140.9994   81.7769  223.8449 H   0  0  0  0  0  0  0  0  0  0  0  0
  139.3093   80.0318  222.3602 H   0  0  0  0  0  0  0  0  0  0  0  0
  140.3219   81.3274  221.6928 H   0  0  0  0  0  0  0  0  0  0  0  0
  139.1767   69.6021  222.7545 H   0  0  0  0  0  0  0  0  0  0  0  0
  138.9333   68.4426  224.9268 H   0  0  0  0  0  0  0  0  0  0  0  0
  139.2919   68.4547  227.2522 H   0  0  0  0  0  0  0  0  0  0  0  0
  140.1678   69.5680  229.3006 H   0  0  0  0  0  0  0  0  0  0  0  0
  141.2622   71.8098  229.1412 H   0  0  0  0  0  0  0  0  0  0  0  0
  141.4692   72.9070  226.9051 H   0  0  0  0  0  0  0  0  0  0  0  0
  1  2  2  0
  2  3  1  0
  3  4  1  0
  4  5  1  0
  5  6  2  0
  5  7  1  0
  7  8  1  0
  8  9  1  0
  9 10  1  0
  9 11  1  0
 11 12  1  0
 12 13  1  0
 13 14  2  0
 13 15  1  0
 15 16  1  0
 16 17  1  0
 17 18  1  0
 18 19  1  0
  2 20  1  0
 20 21  2  0
 21 22  1  0
 22 23  2  0
 23 24  1  0
 24 25  2  0
 25 26  1  0
 26 27  2  0
 27 28  1  0
 28 29  2  0
 12  7  1  0
 19 15  1  0
 29 20  1  0
 28 23  1  0
  3 30  1  0
  4 31  1  0
  4 32  1  0
  8 33  1  0
  8 34  1  0
  9 35  1  6
 10 36  1  0
 11 37  1  0
 11 38  1  0
 12 39  1  1
 16 40  1  0
 16 41  1  0
 17 42  1  0
 17 43  1  0
 18 44  1  0
 18 45  1  0
 19 46  1  0
 19 47  1  0
 21 48  1  0
 22 49  1  0
 24 50  1  0
 25 51  1  0
 26 52  1  0
 27 53  1  0
M  END
>  <smiles>  (20) 
O=C(NCC(=O)N1C[C@H](O)C[C@H]1C(=O)N1CCCC1)c1ccc2ccccc2n1

>  <score_type>  (20) 
oracle

>  <origin>  (20) 
autodockgpu

>  <m_score__min__energy>  (20) 
-8.4900000000000002

>  <m_primary>  (20) 
energy

>  <rmsd>  (20) 
2.055346447702861

>  <m_score__min__rmsd>  (20) 
2.055346447702861

>  <meeko>  (20) 
{"free_energy": -7.93, "intermolecular_energy": -9.72, "internal_energy": -2.0, "cluster_size": 39, "cluster_id": 1, "rank_in_cluster": 18}

>  <energy>  (20) 
-7.86

>  <cluster_rmsd>  (20) 
1.72

>  <cluster>  (20) 
1

$$$$

     RDKit          3D

 53 56  0  0  0  0  0  0  0  0999 V2000
  140.6960   71.2190  221.2870 O   0  0  0  0  0  0  0  0  0  0  0  0
  140.3010   71.8910  222.2740 C   0  0  0  0  0  0  0  0  0  0  0  0
  139.9680   73.2630  222.2190 N   0  0  0  0  0  0  0  0  0  0  0  0
  140.0650   73.9920  220.9940 C   0  0  0  0  0  0  0  0  0  0  0  0
  140.3760   75.4120  221.2980 C   0  0  0  0  0  0  0  0  0  0  0  0
  139.9370   75.8500  222.4120 O   0  0  0  0  0  0  0  0  0  0  0  0
  141.1130   76.2410  220.4110 N   0  0  0  0  0  0  0  0  0  0  0  0
  141.3850   75.8860  219.0360 C   0  0  0  0  0  0  0  0  0  0  0  0
  141.4670   77.2400  218.3730 C   0  0  2  0  0  0  0  0  0  0  0  0
  142.1450   77.2340  217.1750 O   0  0  0  0  0  0  0  0  0  0  0  0
  142.1980   78.0450  219.4590 C   0  0  0  0  0  0  0  0  0  0  0  0
  141.6800   77.5220  220.7590 C   0  0  1  0  0  0  0  0  0  0  0  0
  140.7040   78.4260  221.4040 C   0  0  0  0  0  0  0  0  0  0  0  0
  139.4690   78.2620  221.4090 O   0  0  0  0  0  0  0  0  0  0  0  0
  141.2220   79.5740  222.0710 N   0  0  0  0  0  0  0  0  0  0  0  0
  142.6120   79.9960  222.2110 C   0  0  0  0  0  0  0  0  0  0  0  0
  142.7110   80.5220  223.6060 C   0  0  0  0  0  0  0  0  0  0  0  0
  141.3790   81.1550  223.8430 C   0  0  0  0  0  0  0  0  0  0  0  0
  140.4660   80.6170  222.7830 C   0  0  0  0  0  0  0  0  0  0  0  0
  140.1770   71.2030  223.5650 C   0  0  0  0  0  0  0  0  0  0  0  0
  139.5660   69.9630  223.6660 C   0  0  0  0  0  0  0  0  0  0  0  0
  139.4290   69.2840  224.8520 C   0  0  0  0  0  0  0  0  0  0  0  0
  139.9410   69.9040  225.9880 C   0  0  0  0  0  0  0  0  0  0  0  0
  139.8140   69.2460  227.1740 C   0  0  0  0  0  0  0  0  0  0  0  0
  140.3160   69.8440  228.3150 C   0  0  0  0  0  0  0  0  0  0  0  0
  140.9370   71.0910  228.2490 C   0  0  0  0  0  0  0  0  0  0  0  0
  141.0410   71.7220  227.0110 C   0  0  0  0  0  0  0  0  0  0  0  0
  140.5400   71.1240  225.8710 C   0  0  0  0  0  0  0  0  0  0  0  0
  140.6480   71.7400  224.7000 N   0  0  0  0  0  0  0  0  0  0  0  0
  139.6460   73.7420  223.0960 H   0  0  0  0  0  0  0  0  0  0  0  0
  140.8658   73.5641  220.3730 H   0  0  0  0  0  0  0  0  0  0  0  0
  139.1118   73.9295  220.4486 H   0  0  0  0  0  0  0  0  0  0  0  0
  142.3345   75.3381  218.9449 H   0  0  0  0  0  0  0  0  0  0  0  0
  140.6306   75.2197  218.5923 H   0  0  0  0  0  0  0  0  0  0  0  0
  140.4876   77.6444  218.0777 H   0  0  0  0  0  0  0  0  0  0  0  0
  142.7350   78.0120  217.1470 H   0  0  0  0  0  0  0  0  0  0  0  0
  143.2845   77.8892  219.3873 H   0  0  0  0  0  0  0  0  0  0  0  0
  142.0220   79.1258  219.3543 H   0  0  0  0  0  0  0  0  0  0  0  0
  142.4729   77.4388  221.5169 H   0  0  0  0  0  0  0  0  0  0  0  0
  143.2923   79.1433  222.0689 H   0  0  0  0  0  0  0  0  0  0  0  0
  142.8953   80.7496  221.4614 H   0  0  0  0  0  0  0  0  0  0  0  0
  142.8897   79.7054  224.3210 H   0  0  0  0  0  0  0  0  0  0  0  0
  143.5461   81.2259  223.7372 H   0  0  0  0  0  0  0  0  0  0  0  0
  141.0025   80.8887  224.8417 H   0  0  0  0  0  0  0  0  0  0  0  0
  141.4428   82.2522  223.7980 H   0  0  0  0  0  0  0  0  0  0  0  0
  139.5636   80.1863  223.2414 H   0  0  0  0  0  0  0  0  0  0  0  0
  140.1415   81.4124  222.0960 H   0  0  0  0  0  0  0  0  0  0  0  0
  139.1709   69.4993  222.7501 H   0  0  0  0  0  0  0  0  0  0  0  0
  138.9395   68.3002  224.9015 H   0  0  0  0  0  0  0  0  0  0  0  0
  139.3238   68.2625  227.2227 H   0  0  0  0  0  0  0  0  0  0  0  0
  140.2247   69.3314  229.2840 H   0  0  0  0  0  0  0  0  0  0  0  0
  141.3369   71.5671  229.1564 H   0  0  0  0  0  0  0  0  0  0  0  0
  141.5270   72.7063  226.9408 H   0  0  0  0  0  0  0  0  0  0  0  0
  1  2  2  0
  2  3  1  0
  3  4  1  0
  4  5  1  0
  5  6  2  0
  5  7  1  0
  7  8  1  0
  8  9  1  0
  9 10  1  0
  9 11  1  0
 11 12  1  0
 12 13  1  0
 13 14  2  0
 13 15  1  0
 15 16  1  0
 16 17  1  0
 17 18  1  0
 18 19  1  0
  2 20  1  0
 20 21  2  0
 21 22  1  0
 22 23  2  0
 23 24  1  0
 24 25  2  0
 25 26  1  0
 26 27  2  0
 27 28  1  0
 28 29  2  0
 12  7  1  0
 19 15  1  0
 29 20  1  0
 28 23  1  0
  3 30  1  0
  4 31  1  0
  4 32  1  0
  8 33  1  0
  8 34  1  0
  9 35  1  6
 10 36  1  0
 11 37  1  0
 11 38  1  0
 12 39  1  1
 16 40  1  0
 16 41  1  0
 17 42  1  0
 17 43  1  0
 18 44  1  0
 18 45  1  0
 19 46  1  0
 19 47  1  0
 21 48  1  0
 22 49  1  0
 24 50  1  0
 25 51  1  0
 26 52  1  0
 27 53  1  0
M  END
>  <smiles>  (21) 
O=C(NCC(=O)N1C[C@H](O)C[C@H]1C(=O)N1CCCC1)c1ccc2ccccc2n1

>  <score_type>  (21) 
oracle

>  <origin>  (21) 
autodockgpu

>  <m_score__min__energy>  (21) 
-8.4900000000000002

>  <m_primary>  (21) 
energy

>  <rmsd>  (21) 
2.050441551874853

>  <m_score__min__rmsd>  (21) 
2.050441551874853

>  <meeko>  (21) 
{"free_energy": -8.17, "intermolecular_energy": -9.96, "internal_energy": -1.79, "cluster_size": 39, "cluster_id": 1, "rank_in_cluster": 7}

>  <energy>  (21) 
-7.83

>  <cluster_rmsd>  (21) 
0.75

>  <cluster>  (21) 
1

$$$$

     RDKit          3D

 53 56  0  0  0  0  0  0  0  0999 V2000
  140.1010   70.7920  221.1900 O   0  0  0  0  0  0  0  0  0  0  0  0
  140.3550   71.5220  222.1830 C   0  0  0  0  0  0  0  0  0  0  0  0
  140.8110   72.8560  222.0930 N   0  0  0  0  0  0  0  0  0  0  0  0
  141.0190   73.4750  220.8220 C   0  0  0  0  0  0  0  0  0  0  0  0
  141.2800   74.9230  221.0240 C   0  0  0  0  0  0  0  0  0  0  0  0
  140.7730   75.4370  222.0740 O   0  0  0  0  0  0  0  0  0  0  0  0
  142.0440   75.6970  220.1110 N   0  0  0  0  0  0  0  0  0  0  0  0
  142.7160   75.1330  218.9620 C   0  0  0  0  0  0  0  0  0  0  0  0
  142.7030   76.2890  217.9920 C   0  0  2  0  0  0  0  0  0  0  0  0
  143.6480   76.1930  216.9960 O   0  0  0  0  0  0  0  0  0  0  0  0
  142.9690   77.4650  218.9450 C   0  0  0  0  0  0  0  0  0  0  0  0
  142.2500   77.1230  220.2090 C   0  0  1  0  0  0  0  0  0  0  0  0
  140.9880   77.8740  220.3850 C   0  0  0  0  0  0  0  0  0  0  0  0
  139.9900   77.7810  219.6470 O   0  0  0  0  0  0  0  0  0  0  0  0
  140.9150   78.7750  221.4870 N   0  0  0  0  0  0  0  0  0  0  0  0
  141.9330   79.0710  222.4900 C   0  0  0  0  0  0  0  0  0  0  0  0
  141.1760   79.2020  223.7720 C   0  0  0  0  0  0  0  0  0  0  0  0
  139.8810   79.8200  223.3570 C   0  0  0  0  0  0  0  0  0  0  0  0
  139.7830   79.6310  221.8740 C   0  0  0  0  0  0  0  0  0  0  0  0
  140.1630   70.9480  223.5210 C   0  0  0  0  0  0  0  0  0  0  0  0
  139.5190   69.7330  223.6980 C   0  0  0  0  0  0  0  0  0  0  0  0
  139.3180   69.1590  224.9300 C   0  0  0  0  0  0  0  0  0  0  0  0
  139.7980   69.8630  226.0310 C   0  0  0  0  0  0  0  0  0  0  0  0
  139.6070   69.3100  227.2610 C   0  0  0  0  0  0  0  0  0  0  0  0
  140.0770   69.9910  228.3690 C   0  0  0  0  0  0  0  0  0  0  0  0
  140.7290   71.2160  228.2250 C   0  0  0  0  0  0  0  0  0  0  0  0
  140.8980   71.7380  226.9450 C   0  0  0  0  0  0  0  0  0  0  0  0
  140.4290   71.0560  225.8390 C   0  0  0  0  0  0  0  0  0  0  0  0
  140.5990   71.5690  224.6260 N   0  0  0  0  0  0  0  0  0  0  0  0
  140.9970   73.3890  222.9780 H   0  0  0  0  0  0  0  0  0  0  0  0
  141.8827   73.0110  220.3232 H   0  0  0  0  0  0  0  0  0  0  0  0
  140.1250   73.3434  220.1948 H   0  0  0  0  0  0  0  0  0  0  0  0
  143.7442   74.8302  219.2092 H   0  0  0  0  0  0  0  0  0  0  0  0
  142.2388   74.2217  218.5723 H   0  0  0  0  0  0  0  0  0  0  0  0
  141.7707   76.3648  217.4131 H   0  0  0  0  0  0  0  0  0  0  0  0
  144.5230   76.0520  217.4100 H   0  0  0  0  0  0  0  0  0  0  0  0
  144.0476   77.5716  219.1328 H   0  0  0  0  0  0  0  0  0  0  0  0
  142.6219   78.4197  218.5229 H   0  0  0  0  0  0  0  0  0  0  0  0
  142.8278   77.4046  221.1017 H   0  0  0  0  0  0  0  0  0  0  0  0
  142.6646   78.2520  222.5535 H   0  0  0  0  0  0  0  0  0  0  0  0
  142.5030   79.9803  222.2486 H   0  0  0  0  0  0  0  0  0  0  0  0
  141.0107   78.2167  224.2324 H   0  0  0  0  0  0  0  0  0  0  0  0
  141.7118   79.7996  224.5243 H   0  0  0  0  0  0  0  0  0  0  0  0
  139.0410   79.3199  223.8613 H   0  0  0  0  0  0  0  0  0  0  0  0
  139.8403   80.8852  223.6285 H   0  0  0  0  0  0  0  0  0  0  0  0
  138.8317   79.1433  221.6150 H   0  0  0  0  0  0  0  0  0  0  0  0
  139.8151   80.5959  221.3468 H   0  0  0  0  0  0  0  0  0  0  0  0
  139.1506   69.2022  222.8077 H   0  0  0  0  0  0  0  0  0  0  0  0
  138.8041   68.1927  225.0408 H   0  0  0  0  0  0  0  0  0  0  0  0
  139.0911   68.3446  227.3704 H   0  0  0  0  0  0  0  0  0  0  0  0
  139.9356   69.5632  229.3725 H   0  0  0  0  0  0  0  0  0  0  0  0
  141.1024   71.7591  229.1057 H   0  0  0  0  0  0  0  0  0  0  0  0
  141.4099   72.7027  226.8134 H   0  0  0  0  0  0  0  0  0  0  0  0
  1  2  2  0
  2  3  1  0
  3  4  1  0
  4  5  1  0
  5  6  2  0
  5  7  1  0
  7  8  1  0
  8  9  1  0
  9 10  1  0
  9 11  1  0
 11 12  1  0
 12 13  1  0
 13 14  2  0
 13 15  1  0
 15 16  1  0
 16 17  1  0
 17 18  1  0
 18 19  1  0
  2 20  1  0
 20 21  2  0
 21 22  1  0
 22 23  2  0
 23 24  1  0
 24 25  2  0
 25 26  1  0
 26 27  2  0
 27 28  1  0
 28 29  2  0
 12  7  1  0
 19 15  1  0
 29 20  1  0
 28 23  1  0
  3 30  1  0
  4 31  1  0
  4 32  1  0
  8 33  1  0
  8 34  1  0
  9 35  1  6
 10 36  1  0
 11 37  1  0
 11 38  1  0
 12 39  1  1
 16 40  1  0
 16 41  1  0
 17 42  1  0
 17 43  1  0
 18 44  1  0
 18 45  1  0
 19 46  1  0
 19 47  1  0
 21 48  1  0
 22 49  1  0
 24 50  1  0
 25 51  1  0
 26 52  1  0
 27 53  1  0
M  END
>  <smiles>  (22) 
O=C(NCC(=O)N1C[C@H](O)C[C@H]1C(=O)N1CCCC1)c1ccc2ccccc2n1

>  <score_type>  (22) 
oracle

>  <origin>  (22) 
autodockgpu

>  <m_score__min__energy>  (22) 
-8.4900000000000002

>  <m_primary>  (22) 
energy

>  <rmsd>  (22) 
2.287546150635761

>  <m_score__min__rmsd>  (22) 
2.287546150635761

>  <meeko>  (22) 
{"free_energy": -7.71, "intermolecular_energy": -9.5, "internal_energy": -2.15, "cluster_size": 39, "cluster_id": 1, "rank_in_cluster": 25}

>  <energy>  (22) 
-7.81

>  <cluster_rmsd>  (22) 
0.86

>  <cluster>  (22) 
1

$$$$

     RDKit          3D

 53 56  0  0  0  0  0  0  0  0999 V2000
  139.9390   71.2430  221.2600 O   0  0  0  0  0  0  0  0  0  0  0  0
  139.8430   71.9490  222.2960 C   0  0  0  0  0  0  0  0  0  0  0  0
  139.6390   73.3480  222.2900 N   0  0  0  0  0  0  0  0  0  0  0  0
  139.5260   74.0650  221.0590 C   0  0  0  0  0  0  0  0  0  0  0  0
  140.2660   75.3470  221.1740 C   0  0  0  0  0  0  0  0  0  0  0  0
  139.7670   76.2060  221.9730 O   0  0  0  0  0  0  0  0  0  0  0  0
  141.4560   75.6120  220.4470 N   0  0  0  0  0  0  0  0  0  0  0  0
  142.0820   74.6460  219.5710 C   0  0  0  0  0  0  0  0  0  0  0  0
  142.7440   75.5340  218.5460 C   0  0  2  0  0  0  0  0  0  0  0  0
  143.7660   74.9220  217.8560 O   0  0  0  0  0  0  0  0  0  0  0  0
  143.2410   76.6800  219.4410 C   0  0  0  0  0  0  0  0  0  0  0  0
  142.1870   76.8570  220.4850 C   0  0  1  0  0  0  0  0  0  0  0  0
  141.3260   78.0360  220.2510 C   0  0  0  0  0  0  0  0  0  0  0  0
  140.5730   78.1910  219.2710 O   0  0  0  0  0  0  0  0  0  0  0  0
  141.3640   79.0740  221.2270 N   0  0  0  0  0  0  0  0  0  0  0  0
  142.1520   79.1410  222.4540 C   0  0  0  0  0  0  0  0  0  0  0  0
  141.2350   79.7560  223.4610 C   0  0  0  0  0  0  0  0  0  0  0  0
  140.4270   80.7240  222.6620 C   0  0  0  0  0  0  0  0  0  0  0  0
  140.6090   80.3370  221.2260 C   0  0  0  0  0  0  0  0  0  0  0  0
  139.9510   71.2750  223.5970 C   0  0  0  0  0  0  0  0  0  0  0  0
  139.5660   69.9530  223.7570 C   0  0  0  0  0  0  0  0  0  0  0  0
  139.6490   69.2830  224.9540 C   0  0  0  0  0  0  0  0  0  0  0  0
  140.1500   70.0010  226.0360 C   0  0  0  0  0  0  0  0  0  0  0  0
  140.2400   69.3540  227.2310 C   0  0  0  0  0  0  0  0  0  0  0  0
  140.7360   70.0480  228.3200 C   0  0  0  0  0  0  0  0  0  0  0  0
  141.1320   71.3790  228.1920 C   0  0  0  0  0  0  0  0  0  0  0  0
  141.0200   71.9950  226.9470 C   0  0  0  0  0  0  0  0  0  0  0  0
  140.5250   71.3010  225.8600 C   0  0  0  0  0  0  0  0  0  0  0  0
  140.4250   71.9040  224.6820 N   0  0  0  0  0  0  0  0  0  0  0  0
  139.5720   73.8550  223.2060 H   0  0  0  0  0  0  0  0  0  0  0  0
  139.9537   73.4647  220.2425 H   0  0  0  0  0  0  0  0  0  0  0  0
  138.4664   74.2667  220.8435 H   0  0  0  0  0  0  0  0  0  0  0  0
  142.8228   74.0380  220.1110 H   0  0  0  0  0  0  0  0  0  0  0  0
  141.3792   73.9182  219.1393 H   0  0  0  0  0  0  0  0  0  0  0  0
  142.0721   75.8417  217.7313 H   0  0  0  0  0  0  0  0  0  0  0  0
  144.5670   75.4770  217.9300 H   0  0  0  0  0  0  0  0  0  0  0  0
  144.2021   76.4155  219.9060 H   0  0  0  0  0  0  0  0  0  0  0  0
  143.4061   77.6038  218.8671 H   0  0  0  0  0  0  0  0  0  0  0  0
  142.6169   77.0625  221.4764 H   0  0  0  0  0  0  0  0  0  0  0  0
  142.4592   78.1341  222.7731 H   0  0  0  0  0  0  0  0  0  0  0  0
  143.0766   79.7224  222.3234 H   0  0  0  0  0  0  0  0  0  0  0  0
  140.5899   78.9930  223.9212 H   0  0  0  0  0  0  0  0  0  0  0  0
  141.7746   80.2354  224.2911 H   0  0  0  0  0  0  0  0  0  0  0  0
  139.3656   80.6577  222.9430 H   0  0  0  0  0  0  0  0  0  0  0  0
  140.7507   81.7598  222.8416 H   0  0  0  0  0  0  0  0  0  0  0  0
  139.6307   80.1947  220.7437 H   0  0  0  0  0  0  0  0  0  0  0  0
  141.1431   81.1197  220.6673 H   0  0  0  0  0  0  0  0  0  0  0  0
  139.1745   69.4133  222.8821 H   0  0  0  0  0  0  0  0  0  0  0  0
  139.3356   68.2332  225.0520 H   0  0  0  0  0  0  0  0  0  0  0  0
  139.9257   68.3043  227.3280 H   0  0  0  0  0  0  0  0  0  0  0  0
  140.8187   69.5458  229.2952 H   0  0  0  0  0  0  0  0  0  0  0  0
  141.5254   71.9323  229.0575 H   0  0  0  0  0  0  0  0  0  0  0  0
  141.3288   73.0441  226.8287 H   0  0  0  0  0  0  0  0  0  0  0  0
  1  2  2  0
  2  3  1  0
  3  4  1  0
  4  5  1  0
  5  6  2  0
  5  7  1  0
  7  8  1  0
  8  9  1  0
  9 10  1  0
  9 11  1  0
 11 12  1  0
 12 13  1  0
 13 14  2  0
 13 15  1  0
 15 16  1  0
 16 17  1  0
 17 18  1  0
 18 19  1  0
  2 20  1  0
 20 21  2  0
 21 22  1  0
 22 23  2  0
 23 24  1  0
 24 25  2  0
 25 26  1  0
 26 27  2  0
 27 28  1  0
 28 29  2  0
 12  7  1  0
 19 15  1  0
 29 20  1  0
 28 23  1  0
  3 30  1  0
  4 31  1  0
  4 32  1  0
  8 33  1  0
  8 34  1  0
  9 35  1  6
 10 36  1  0
 11 37  1  0
 11 38  1  0
 12 39  1  1
 16 40  1  0
 16 41  1  0
 17 42  1  0
 17 43  1  0
 18 44  1  0
 18 45  1  0
 19 46  1  0
 19 47  1  0
 21 48  1  0
 22 49  1  0
 24 50  1  0
 25 51  1  0
 26 52  1  0
 27 53  1  0
M  END
>  <smiles>  (23) 
O=C(NCC(=O)N1C[C@H](O)C[C@H]1C(=O)N1CCCC1)c1ccc2ccccc2n1

>  <score_type>  (23) 
oracle

>  <origin>  (23) 
autodockgpu

>  <m_score__min__energy>  (23) 
-8.4900000000000002

>  <m_primary>  (23) 
energy

>  <rmsd>  (23) 
1.9401050364969212

>  <m_score__min__rmsd>  (23) 
1.9401050364969212

>  <meeko>  (23) 
{"free_energy": -8.13, "intermolecular_energy": -9.92, "internal_energy": -1.72, "cluster_size": 39, "cluster_id": 1, "rank_in_cluster": 8}

>  <energy>  (23) 
-7.81

>  <cluster_rmsd>  (23) 
1.72

>  <cluster>  (23) 
1

$$$$

     RDKit          3D

 53 56  0  0  0  0  0  0  0  0999 V2000
  140.0610   71.3380  221.2930 O   0  0  0  0  0  0  0  0  0  0  0  0
  139.9040   72.0080  222.3450 C   0  0  0  0  0  0  0  0  0  0  0  0
  139.6650   73.4010  222.3730 N   0  0  0  0  0  0  0  0  0  0  0  0
  139.5860   74.1540  221.1610 C   0  0  0  0  0  0  0  0  0  0  0  0
  140.3910   75.3940  221.3070 C   0  0  0  0  0  0  0  0  0  0  0  0
  140.0060   76.2020  222.2150 O   0  0  0  0  0  0  0  0  0  0  0  0
  141.5210   75.6730  220.4940 N   0  0  0  0  0  0  0  0  0  0  0  0
  142.1040   74.7080  219.5880 C   0  0  0  0  0  0  0  0  0  0  0  0
  142.6730   75.5940  218.5080 C   0  0  2  0  0  0  0  0  0  0  0  0
  143.6570   74.9940  217.7550 O   0  0  0  0  0  0  0  0  0  0  0  0
  143.2060   76.7640  219.3500 C   0  0  0  0  0  0  0  0  0  0  0  0
  142.2250   76.9330  220.4640 C   0  0  1  0  0  0  0  0  0  0  0  0
  141.3240   78.0900  220.2770 C   0  0  0  0  0  0  0  0  0  0  0  0
  140.5290   78.2350  219.3280 O   0  0  0  0  0  0  0  0  0  0  0  0
  141.3720   79.1190  221.2610 N   0  0  0  0  0  0  0  0  0  0  0  0
  142.2060   79.1960  222.4570 C   0  0  0  0  0  0  0  0  0  0  0  0
  141.3120   79.7760  223.5060 C   0  0  0  0  0  0  0  0  0  0  0  0
  140.4480   80.7300  222.7490 C   0  0  0  0  0  0  0  0  0  0  0  0
  140.5840   80.3610  221.3030 C   0  0  0  0  0  0  0  0  0  0  0  0
  139.9730   71.2960  223.6280 C   0  0  0  0  0  0  0  0  0  0  0  0
  139.5580   69.9780  223.7430 C   0  0  0  0  0  0  0  0  0  0  0  0
  139.6050   69.2740  224.9220 C   0  0  0  0  0  0  0  0  0  0  0  0
  140.0990   69.9500  226.0340 C   0  0  0  0  0  0  0  0  0  0  0  0
  140.1530   69.2680  227.2110 C   0  0  0  0  0  0  0  0  0  0  0  0
  140.6410   69.9210  228.3280 C   0  0  0  0  0  0  0  0  0  0  0  0
  141.0660   71.2470  228.2460 C   0  0  0  0  0  0  0  0  0  0  0  0
  140.9900   71.9000  227.0170 C   0  0  0  0  0  0  0  0  0  0  0  0
  140.5030   71.2460  225.9020 C   0  0  0  0  0  0  0  0  0  0  0  0
  140.4380   71.8840  224.7390 N   0  0  0  0  0  0  0  0  0  0  0  0
  139.5460   73.8770  223.3010 H   0  0  0  0  0  0  0  0  0  0  0  0
  139.9811   73.5540  220.3280 H   0  0  0  0  0  0  0  0  0  0  0  0
  138.5376   74.4145  220.9537 H   0  0  0  0  0  0  0  0  0  0  0  0
  142.8937   74.1227  220.0818 H   0  0  0  0  0  0  0  0  0  0  0  0
  141.3879   73.9604  219.2162 H   0  0  0  0  0  0  0  0  0  0  0  0
  141.9387   75.8751  217.7387 H   0  0  0  0  0  0  0  0  0  0  0  0
  144.4960   75.4750  217.8990 H   0  0  0  0  0  0  0  0  0  0  0  0
  144.2036   76.5277  219.7487 H   0  0  0  0  0  0  0  0  0  0  0  0
  143.3088   77.6826  218.7537 H   0  0  0  0  0  0  0  0  0  0  0  0
  142.7195   77.1612  221.4197 H   0  0  0  0  0  0  0  0  0  0  0  0
  142.5530   78.1950  222.7531 H   0  0  0  0  0  0  0  0  0  0  0  0
  143.1087   79.8039  222.2967 H   0  0  0  0  0  0  0  0  0  0  0  0
  140.7058   78.9912  223.9821 H   0  0  0  0  0  0  0  0  0  0  0  0
  141.8702   80.2613  224.3201 H   0  0  0  0  0  0  0  0  0  0  0  0
  139.4005   80.6329  223.0703 H   0  0  0  0  0  0  0  0  0  0  0  0
  140.7510   81.7724  222.9266 H   0  0  0  0  0  0  0  0  0  0  0  0
  139.5916   80.1966  220.8578 H   0  0  0  0  0  0  0  0  0  0  0  0
  141.0750   81.1630  220.7323 H   0  0  0  0  0  0  0  0  0  0  0  0
  139.1722   69.4711  222.8462 H   0  0  0  0  0  0  0  0  0  0  0  0
  139.2690   68.2284  224.9840 H   0  0  0  0  0  0  0  0  0  0  0  0
  139.8165   68.2225  227.2720 H   0  0  0  0  0  0  0  0  0  0  0  0
  140.6945   69.3900  229.2898 H   0  0  0  0  0  0  0  0  0  0  0  0
  141.4537   71.7673  229.1342 H   0  0  0  0  0  0  0  0  0  0  0  0
  141.3209   72.9458  226.9342 H   0  0  0  0  0  0  0  0  0  0  0  0
  1  2  2  0
  2  3  1  0
  3  4  1  0
  4  5  1  0
  5  6  2  0
  5  7  1  0
  7  8  1  0
  8  9  1  0
  9 10  1  0
  9 11  1  0
 11 12  1  0
 12 13  1  0
 13 14  2  0
 13 15  1  0
 15 16  1  0
 16 17  1  0
 17 18  1  0
 18 19  1  0
  2 20  1  0
 20 21  2  0
 21 22  1  0
 22 23  2  0
 23 24  1  0
 24 25  2  0
 25 26  1  0
 26 27  2  0
 27 28  1  0
 28 29  2  0
 12  7  1  0
 19 15  1  0
 29 20  1  0
 28 23  1  0
  3 30  1  0
  4 31  1  0
  4 32  1  0
  8 33  1  0
  8 34  1  0
  9 35  1  6
 10 36  1  0
 11 37  1  0
 11 38  1  0
 12 39  1  1
 16 40  1  0
 16 41  1  0
 17 42  1  0
 17 43  1  0
 18 44  1  0
 18 45  1  0
 19 46  1  0
 19 47  1  0
 21 48  1  0
 22 49  1  0
 24 50  1  0
 25 51  1  0
 26 52  1  0
 27 53  1  0
M  END
>  <smiles>  (24) 
O=C(NCC(=O)N1C[C@H](O)C[C@H]1C(=O)N1CCCC1)c1ccc2ccccc2n1

>  <score_type>  (24) 
oracle

>  <origin>  (24) 
autodockgpu

>  <m_score__min__energy>  (24) 
-8.4900000000000002

>  <m_primary>  (24) 
energy

>  <rmsd>  (24) 
1.941569873548093

>  <m_score__min__rmsd>  (24) 
1.941569873548093

>  <meeko>  (24) 
{"free_energy": -8.29, "intermolecular_energy": -10.08, "internal_energy": -1.76, "cluster_size": 39, "cluster_id": 1, "rank_in_cluster": 5}

>  <energy>  (24) 
-7.76

>  <cluster_rmsd>  (24) 
1.69

>  <cluster>  (24) 
1

$$$$

     RDKit          3D

 53 56  0  0  0  0  0  0  0  0999 V2000
  140.0340   70.9540  221.3090 O   0  0  0  0  0  0  0  0  0  0  0  0
  139.8870   71.6600  222.3400 C   0  0  0  0  0  0  0  0  0  0  0  0
  139.6860   73.0590  222.3240 N   0  0  0  0  0  0  0  0  0  0  0  0
  139.6380   73.7780  221.0900 C   0  0  0  0  0  0  0  0  0  0  0  0
  140.6640   74.8510  221.1130 C   0  0  0  0  0  0  0  0  0  0  0  0
  140.9590   75.3120  222.2640 O   0  0  0  0  0  0  0  0  0  0  0  0
  141.2840   75.3430  219.9330 N   0  0  0  0  0  0  0  0  0  0  0  0
  141.7780   76.6960  219.8020 C   0  0  0  0  0  0  0  0  0  0  0  0
  142.9170   76.5200  218.8270 C   0  0  2  0  0  0  0  0  0  0  0  0
  143.2820   77.6800  218.1820 O   0  0  0  0  0  0  0  0  0  0  0  0
  142.3150   75.4780  217.8700 C   0  0  0  0  0  0  0  0  0  0  0  0
  141.4980   74.5720  218.7320 C   0  0  1  0  0  0  0  0  0  0  0  0
  142.1490   73.2700  218.9920 C   0  0  0  0  0  0  0  0  0  0  0  0
  141.7900   72.1800  218.5090 O   0  0  0  0  0  0  0  0  0  0  0  0
  143.2750   73.2680  219.8650 N   0  0  0  0  0  0  0  0  0  0  0  0
  143.8920   74.3960  220.5570 C   0  0  0  0  0  0  0  0  0  0  0  0
  145.3610   74.1320  220.4780 C   0  0  0  0  0  0  0  0  0  0  0  0
  145.4600   72.6450  220.5700 C   0  0  0  0  0  0  0  0  0  0  0  0
  144.0890   72.1150  220.2800 C   0  0  0  0  0  0  0  0  0  0  0  0
  139.9270   70.9850  223.6430 C   0  0  0  0  0  0  0  0  0  0  0  0
  139.4710   69.6840  223.7950 C   0  0  0  0  0  0  0  0  0  0  0  0
  139.4890   69.0140  224.9940 C   0  0  0  0  0  0  0  0  0  0  0  0
  139.9970   69.7090  226.0880 C   0  0  0  0  0  0  0  0  0  0  0  0
  140.0230   69.0610  227.2860 C   0  0  0  0  0  0  0  0  0  0  0  0
  140.5230   69.7320  228.3870 C   0  0  0  0  0  0  0  0  0  0  0  0
  140.9890   71.0410  228.2680 C   0  0  0  0  0  0  0  0  0  0  0  0
  140.9410   71.6590  227.0200 C   0  0  0  0  0  0  0  0  0  0  0  0
  140.4410   70.9870  225.9210 C   0  0  0  0  0  0  0  0  0  0  0  0
  140.4020   71.5920  224.7400 N   0  0  0  0  0  0  0  0  0  0  0  0
  139.5740   73.5660  223.2370 H   0  0  0  0  0  0  0  0  0  0  0  0
  139.8419   73.0912  220.2553 H   0  0  0  0  0  0  0  0  0  0  0  0
  138.6402   74.2219  220.9582 H   0  0  0  0  0  0  0  0  0  0  0  0
  141.0054   77.3664  219.3975 H   0  0  0  0  0  0  0  0  0  0  0  0
  142.0773   77.1537  220.7564 H   0  0  0  0  0  0  0  0  0  0  0  0
  143.8611   76.2182  219.3041 H   0  0  0  0  0  0  0  0  0  0  0  0
  143.7160   78.2720  218.8280 H   0  0  0  0  0  0  0  0  0  0  0  0
  141.6804   75.9684  217.1172 H   0  0  0  0  0  0  0  0  0  0  0  0
  143.0942   74.9280  217.3220 H   0  0  0  0  0  0  0  0  0  0  0  0
  140.5548   74.2794  218.2474 H   0  0  0  0  0  0  0  0  0  0  0  0
  143.6405   75.3427  220.0565 H   0  0  0  0  0  0  0  0  0  0  0  0
  143.5412   74.4896  221.5954 H   0  0  0  0  0  0  0  0  0  0  0  0
  145.7737   74.4942  219.5248 H   0  0  0  0  0  0  0  0  0  0  0  0
  145.9291   74.6462  221.2672 H   0  0  0  0  0  0  0  0  0  0  0  0
  146.1800   72.2645  219.8306 H   0  0  0  0  0  0  0  0  0  0  0  0
  145.8101   72.3277  221.5634 H   0  0  0  0  0  0  0  0  0  0  0  0
  144.1326   71.3700  219.4719 H   0  0  0  0  0  0  0  0  0  0  0  0
  143.6582   71.6211  221.1634 H   0  0  0  0  0  0  0  0  0  0  0  0
  139.0751   69.1626  222.9111 H   0  0  0  0  0  0  0  0  0  0  0  0
  139.1209   67.9814  225.0850 H   0  0  0  0  0  0  0  0  0  0  0  0
  139.6549   68.0283  227.3755 H   0  0  0  0  0  0  0  0  0  0  0  0
  140.5534   69.2290  229.3648 H   0  0  0  0  0  0  0  0  0  0  0  0
  141.3871   71.5757  229.1430 H   0  0  0  0  0  0  0  0  0  0  0  0
  141.3045   72.6912  226.9087 H   0  0  0  0  0  0  0  0  0  0  0  0
  1  2  2  0
  2  3  1  0
  3  4  1  0
  4  5  1  0
  5  6  2  0
  5  7  1  0
  7  8  1  0
  8  9  1  0
  9 10  1  0
  9 11  1  0
 11 12  1  0
 12 13  1  0
 13 14  2  0
 13 15  1  0
 15 16  1  0
 16 17  1  0
 17 18  1  0
 18 19  1  0
  2 20  1  0
 20 21  2  0
 21 22  1  0
 22 23  2  0
 23 24  1  0
 24 25  2  0
 25 26  1  0
 26 27  2  0
 27 28  1  0
 28 29  2  0
 12  7  1  0
 19 15  1  0
 29 20  1  0
 28 23  1  0
  3 30  1  0
  4 31  1  0
  4 32  1  0
  8 33  1  0
  8 34  1  0
  9 35  1  1
 10 36  1  0
 11 37  1  0
 11 38  1  0
 12 39  1  6
 16 40  1  0
 16 41  1  0
 17 42  1  0
 17 43  1  0
 18 44  1  0
 18 45  1  0
 19 46  1  0
 19 47  1  0
 21 48  1  0
 22 49  1  0
 24 50  1  0
 25 51  1  0
 26 52  1  0
 27 53  1  0
M  END
>  <smiles>  (25) 
O=C(NCC(=O)N1C[C@H](O)C[C@H]1C(=O)N1CCCC1)c1ccc2ccccc2n1

>  <score_type>  (25) 
oracle

>  <origin>  (25) 
autodockgpu

>  <m_score__min__energy>  (25) 
-8.4900000000000002

>  <m_primary>  (25) 
energy

>  <rmsd>  (25) 
4.296383467362552

>  <m_score__min__rmsd>  (25) 
4.296383467362552

>  <meeko>  (25) 
{"free_energy": -7.86, "intermolecular_energy": -9.65, "internal_energy": -1.95, "cluster_size": 39, "cluster_id": 1, "rank_in_cluster": 20}

>  <energy>  (25) 
-7.71

>  <cluster_rmsd>  (25) 
0.89

>  <cluster>  (25) 
1

$$$$

     RDKit          3D

 53 56  0  0  0  0  0  0  0  0999 V2000
  140.0460   70.8530  221.2580 O   0  0  0  0  0  0  0  0  0  0  0  0
  139.8940   71.5740  222.2770 C   0  0  0  0  0  0  0  0  0  0  0  0
  139.6890   72.9720  222.2400 N   0  0  0  0  0  0  0  0  0  0  0  0
  139.6420   73.6720  220.9950 C   0  0  0  0  0  0  0  0  0  0  0  0
  140.5760   74.8250  221.0510 C   0  0  0  0  0  0  0  0  0  0  0  0
  140.7680   75.3290  222.2060 O   0  0  0  0  0  0  0  0  0  0  0  0
  141.2220   75.3430  219.8970 N   0  0  0  0  0  0  0  0  0  0  0  0
  141.7140   76.7000  219.8060 C   0  0  0  0  0  0  0  0  0  0  0  0
  142.8760   76.5500  218.8550 C   0  0  2  0  0  0  0  0  0  0  0  0
  143.2510   77.7240  218.2430 O   0  0  0  0  0  0  0  0  0  0  0  0
  142.3010   75.5260  217.8620 C   0  0  0  0  0  0  0  0  0  0  0  0
  141.4670   74.5990  218.6850 C   0  0  1  0  0  0  0  0  0  0  0  0
  142.1170   73.2940  218.9330 C   0  0  0  0  0  0  0  0  0  0  0  0
  141.7680   72.2110  218.4270 O   0  0  0  0  0  0  0  0  0  0  0  0
  143.2300   73.2800  219.8230 N   0  0  0  0  0  0  0  0  0  0  0  0
  143.8340   74.3970  220.5430 C   0  0  0  0  0  0  0  0  0  0  0  0
  145.3050   74.1380  220.4810 C   0  0  0  0  0  0  0  0  0  0  0  0
  145.4060   72.6490  220.5500 C   0  0  0  0  0  0  0  0  0  0  0  0
  144.0400   72.1220  220.2310 C   0  0  0  0  0  0  0  0  0  0  0  0
  139.9330   70.9180  223.5910 C   0  0  0  0  0  0  0  0  0  0  0  0
  139.4580   69.6270  223.7650 C   0  0  0  0  0  0  0  0  0  0  0  0
  139.4740   68.9750  224.9750 C   0  0  0  0  0  0  0  0  0  0  0  0
  140.0000   69.6790  226.0550 C   0  0  0  0  0  0  0  0  0  0  0  0
  140.0240   69.0490  227.2630 C   0  0  0  0  0  0  0  0  0  0  0  0
  140.5430   69.7290  228.3490 C   0  0  0  0  0  0  0  0  0  0  0  0
  141.0280   71.0290  228.2070 C   0  0  0  0  0  0  0  0  0  0  0  0
  140.9810   71.6280  226.9500 C   0  0  0  0  0  0  0  0  0  0  0  0
  140.4630   70.9470  225.8650 C   0  0  0  0  0  0  0  0  0  0  0  0
  140.4250   71.5340  224.6740 N   0  0  0  0  0  0  0  0  0  0  0  0
  139.5730   73.4920  223.1450 H   0  0  0  0  0  0  0  0  0  0  0  0
  139.9402   72.9955  220.1805 H   0  0  0  0  0  0  0  0  0  0  0  0
  138.6191   74.0320  220.8103 H   0  0  0  0  0  0  0  0  0  0  0  0
  140.9483   77.3761  219.3978 H   0  0  0  0  0  0  0  0  0  0  0  0
  141.9894   77.1377  220.7769 H   0  0  0  0  0  0  0  0  0  0  0  0
  143.8100   76.2427  219.3482 H   0  0  0  0  0  0  0  0  0  0  0  0
  143.6930   78.2920  218.9050 H   0  0  0  0  0  0  0  0  0  0  0  0
  141.6826   76.0299  217.1046 H   0  0  0  0  0  0  0  0  0  0  0  0
  143.0953   74.9903  217.3215 H   0  0  0  0  0  0  0  0  0  0  0  0
  140.5367   74.3141  218.1718 H   0  0  0  0  0  0  0  0  0  0  0  0
  143.5874   75.3516  220.0552 H   0  0  0  0  0  0  0  0  0  0  0  0
  143.4680   74.4717  221.5776 H   0  0  0  0  0  0  0  0  0  0  0  0
  145.7306   74.5168  219.5401 H   0  0  0  0  0  0  0  0  0  0  0  0
  145.8605   74.6406  221.2865 H   0  0  0  0  0  0  0  0  0  0  0  0
  146.1375   72.2820  219.8150 H   0  0  0  0  0  0  0  0  0  0  0  0
  145.7424   72.3157  221.5428 H   0  0  0  0  0  0  0  0  0  0  0  0
  144.0968   71.3904  219.4115 H   0  0  0  0  0  0  0  0  0  0  0  0
  143.5971   71.6133  221.1000 H   0  0  0  0  0  0  0  0  0  0  0  0
  139.0481   69.0985  222.8917 H   0  0  0  0  0  0  0  0  0  0  0  0
  139.0909   67.9497  225.0845 H   0  0  0  0  0  0  0  0  0  0  0  0
  139.6397   68.0241  227.3714 H   0  0  0  0  0  0  0  0  0  0  0  0
  140.5737   69.2404  229.3340 H   0  0  0  0  0  0  0  0  0  0  0  0
  141.4398   71.5710  229.0711 H   0  0  0  0  0  0  0  0  0  0  0  0
  141.3598   72.6525  226.8201 H   0  0  0  0  0  0  0  0  0  0  0  0
  1  2  2  0
  2  3  1  0
  3  4  1  0
  4  5  1  0
  5  6  2  0
  5  7  1  0
  7  8  1  0
  8  9  1  0
  9 10  1  0
  9 11  1  0
 11 12  1  0
 12 13  1  0
 13 14  2  0
 13 15  1  0
 15 16  1  0
 16 17  1  0
 17 18  1  0
 18 19  1  0
  2 20  1  0
 20 21  2  0
 21 22  1  0
 22 23  2  0
 23 24  1  0
 24 25  2  0
 25 26  1  0
 26 27  2  0
 27 28  1  0
 28 29  2  0
 12  7  1  0
 19 15  1  0
 29 20  1  0
 28 23  1  0
  3 30  1  0
  4 31  1  0
  4 32  1  0
  8 33  1  0
  8 34  1  0
  9 35  1  1
 10 36  1  0
 11 37  1  0
 11 38  1  0
 12 39  1  6
 16 40  1  0
 16 41  1  0
 17 42  1  0
 17 43  1  0
 18 44  1  0
 18 45  1  0
 19 46  1  0
 19 47  1  0
 21 48  1  0
 22 49  1  0
 24 50  1  0
 25 51  1  0
 26 52  1  0
 27 53  1  0
M  END
>  <smiles>  (26) 
O=C(NCC(=O)N1C[C@H](O)C[C@H]1C(=O)N1CCCC1)c1ccc2ccccc2n1

>  <score_type>  (26) 
oracle

>  <origin>  (26) 
autodockgpu

>  <m_score__min__energy>  (26) 
-8.4900000000000002

>  <m_primary>  (26) 
energy

>  <rmsd>  (26) 
4.277361477188876

>  <m_score__min__rmsd>  (26) 
4.277361477188876

>  <meeko>  (26) 
{"free_energy": -7.9, "intermolecular_energy": -9.69, "internal_energy": -1.98, "cluster_size": 39, "cluster_id": 1, "rank_in_cluster": 19}

>  <energy>  (26) 
-7.6

>  <cluster_rmsd>  (26) 
1.95

>  <cluster>  (26) 
1

$$$$

     RDKit          3D

 53 56  0  0  0  0  0  0  0  0999 V2000
  140.4180   71.2680  221.2740 O   0  0  0  0  0  0  0  0  0  0  0  0
  140.1360   71.9480  222.2930 C   0  0  0  0  0  0  0  0  0  0  0  0
  139.8500   73.3320  222.2720 N   0  0  0  0  0  0  0  0  0  0  0  0
  139.8640   74.0640  221.0450 C   0  0  0  0  0  0  0  0  0  0  0  0
  140.5110   75.3810  221.2730 C   0  0  0  0  0  0  0  0  0  0  0  0
  140.2590   75.9360  222.3930 O   0  0  0  0  0  0  0  0  0  0  0  0
  141.3590   75.9940  220.3130 N   0  0  0  0  0  0  0  0  0  0  0  0
  141.7610   75.3480  219.0830 C   0  0  0  0  0  0  0  0  0  0  0  0
  141.9480   76.5250  218.1570 C   0  0  2  0  0  0  0  0  0  0  0  0
  142.7450   76.2550  217.0680 O   0  0  0  0  0  0  0  0  0  0  0  0
  142.5850   77.5440  219.1150 C   0  0  0  0  0  0  0  0  0  0  0  0
  141.9210   77.3180  220.4350 C   0  0  1  0  0  0  0  0  0  0  0  0
  140.9080   78.3450  220.7620 C   0  0  0  0  0  0  0  0  0  0  0  0
  139.7570   78.3910  220.2910 O   0  0  0  0  0  0  0  0  0  0  0  0
  141.2860   79.3590  221.6890 N   0  0  0  0  0  0  0  0  0  0  0  0
  142.5610   79.5340  222.3780 C   0  0  0  0  0  0  0  0  0  0  0  0
  142.1890   79.9750  223.7570 C   0  0  0  0  0  0  0  0  0  0  0  0
  140.9710   80.8120  223.5470 C   0  0  0  0  0  0  0  0  0  0  0  0
  140.4680   80.4820  222.1740 C   0  0  0  0  0  0  0  0  0  0  0  0
  140.1040   71.2580  223.5890 C   0  0  0  0  0  0  0  0  0  0  0  0
  139.5660   69.9870  223.7150 C   0  0  0  0  0  0  0  0  0  0  0  0
  139.5150   69.3040  224.9060 C   0  0  0  0  0  0  0  0  0  0  0  0
  140.0380   69.9540  226.0200 C   0  0  0  0  0  0  0  0  0  0  0  0
  139.9960   69.2940  227.2100 C   0  0  0  0  0  0  0  0  0  0  0  0
  140.5110   69.9210  228.3300 C   0  0  0  0  0  0  0  0  0  0  0  0
  141.0600   71.2000  228.2380 C   0  0  0  0  0  0  0  0  0  0  0  0
  141.0790   71.8320  226.9960 C   0  0  0  0  0  0  0  0  0  0  0  0
  140.5640   71.2040  225.8780 C   0  0  0  0  0  0  0  0  0  0  0  0
  140.5900   71.8230  224.7030 N   0  0  0  0  0  0  0  0  0  0  0  0
  139.6250   73.8170  223.1760 H   0  0  0  0  0  0  0  0  0  0  0  0
  140.4294   73.5020  220.2871 H   0  0  0  0  0  0  0  0  0  0  0  0
  138.8335   74.2135  220.6906 H   0  0  0  0  0  0  0  0  0  0  0  0
  142.6993   74.7890  219.2133 H   0  0  0  0  0  0  0  0  0  0  0  0
  141.0380   74.6050  218.7154 H   0  0  0  0  0  0  0  0  0  0  0  0
  141.0157   76.8606  217.6793 H   0  0  0  0  0  0  0  0  0  0  0  0
  142.8500   77.0760  216.5480 H   0  0  0  0  0  0  0  0  0  0  0  0
  143.6685   77.3718  219.1949 H   0  0  0  0  0  0  0  0  0  0  0  0
  142.4506   78.5769  218.7614 H   0  0  0  0  0  0  0  0  0  0  0  0
  142.6285   77.3985  221.2734 H   0  0  0  0  0  0  0  0  0  0  0  0
  143.1177   78.5858  222.4108 H   0  0  0  0  0  0  0  0  0  0  0  0
  143.2126   80.2603  221.8701 H   0  0  0  0  0  0  0  0  0  0  0  0
  141.9641   79.1097  224.3978 H   0  0  0  0  0  0  0  0  0  0  0  0
  142.9991   80.5219  224.2616 H   0  0  0  0  0  0  0  0  0  0  0  0
  140.2075   80.5701  224.3011 H   0  0  0  0  0  0  0  0  0  0  0  0
  141.1998   81.8836  223.6431 H   0  0  0  0  0  0  0  0  0  0  0  0
  139.4085   80.1897  222.2174 H   0  0  0  0  0  0  0  0  0  0  0  0
  140.5451   81.3498  221.5025 H   0  0  0  0  0  0  0  0  0  0  0  0
  139.1593   69.5005  222.8161 H   0  0  0  0  0  0  0  0  0  0  0  0
  139.0828   68.2948  224.9756 H   0  0  0  0  0  0  0  0  0  0  0  0
  139.5625   68.2854  227.2791 H   0  0  0  0  0  0  0  0  0  0  0  0
  140.4875   69.4065  229.3020 H   0  0  0  0  0  0  0  0  0  0  0  0
  141.4698   71.6999  229.1281 H   0  0  0  0  0  0  0  0  0  0  0  0
  141.5082   72.8407  226.9048 H   0  0  0  0  0  0  0  0  0  0  0  0
  1  2  2  0
  2  3  1  0
  3  4  1  0
  4  5  1  0
  5  6  2  0
  5  7  1  0
  7  8  1  0
  8  9  1  0
  9 10  1  0
  9 11  1  0
 11 12  1  0
 12 13  1  0
 13 14  2  0
 13 15  1  0
 15 16  1  0
 16 17  1  0
 17 18  1  0
 18 19  1  0
  2 20  1  0
 20 21  2  0
 21 22  1  0
 22 23  2  0
 23 24  1  0
 24 25  2  0
 25 26  1  0
 26 27  2  0
 27 28  1  0
 28 29  2  0
 12  7  1  0
 19 15  1  0
 29 20  1  0
 28 23  1  0
  3 30  1  0
  4 31  1  0
  4 32  1  0
  8 33  1  0
  8 34  1  0
  9 35  1  6
 10 36  1  0
 11 37  1  0
 11 38  1  0
 12 39  1  1
 16 40  1  0
 16 41  1  0
 17 42  1  0
 17 43  1  0
 18 44  1  0
 18 45  1  0
 19 46  1  0
 19 47  1  0
 21 48  1  0
 22 49  1  0
 24 50  1  0
 25 51  1  0
 26 52  1  0
 27 53  1  0
M  END
>  <smiles>  (27) 
O=C(NCC(=O)N1C[C@H](O)C[C@H]1C(=O)N1CCCC1)c1ccc2ccccc2n1

>  <score_type>  (27) 
oracle

>  <origin>  (27) 
autodockgpu

>  <m_score__min__energy>  (27) 
-8.4900000000000002

>  <m_primary>  (27) 
energy

>  <rmsd>  (27) 
1.9420027628064052

>  <m_score__min__rmsd>  (27) 
1.9420027628064052

>  <meeko>  (27) 
{"free_energy": -8.1, "intermolecular_energy": -9.89, "internal_energy": -1.86, "cluster_size": 39, "cluster_id": 1, "rank_in_cluster": 11}

>  <energy>  (27) 
-7.6

>  <cluster_rmsd>  (27) 
1.92

>  <cluster>  (27) 
1

$$$$

     RDKit          3D

 53 56  0  0  0  0  0  0  0  0999 V2000
  140.0900   70.6600  221.3340 O   0  0  0  0  0  0  0  0  0  0  0  0
  140.0290   71.4210  222.3340 C   0  0  0  0  0  0  0  0  0  0  0  0
  140.0180   72.8320  222.2600 N   0  0  0  0  0  0  0  0  0  0  0  0
  140.0800   73.5000  220.9980 C   0  0  0  0  0  0  0  0  0  0  0  0
  140.5800   74.8830  221.2050 C   0  0  0  0  0  0  0  0  0  0  0  0
  140.3110   75.4070  222.3350 O   0  0  0  0  0  0  0  0  0  0  0  0
  141.3130   75.5870  220.2130 N   0  0  0  0  0  0  0  0  0  0  0  0
  141.1990   77.0150  220.0090 C   0  0  0  0  0  0  0  0  0  0  0  0
  142.5710   77.3670  219.4880 C   0  0  2  0  0  0  0  0  0  0  0  0
  142.6170   78.5560  218.7970 O   0  0  0  0  0  0  0  0  0  0  0  0
  142.8550   76.1530  218.5890 C   0  0  0  0  0  0  0  0  0  0  0  0
  142.2480   74.9840  219.2950 C   0  0  1  0  0  0  0  0  0  0  0  0
  143.2460   74.1280  219.9710 C   0  0  0  0  0  0  0  0  0  0  0  0
  144.0510   74.5140  220.8390 O   0  0  0  0  0  0  0  0  0  0  0  0
  143.2870   72.7530  219.5950 N   0  0  0  0  0  0  0  0  0  0  0  0
  142.4640   72.0540  218.6140 C   0  0  0  0  0  0  0  0  0  0  0  0
  142.1840   70.7220  219.2330 C   0  0  0  0  0  0  0  0  0  0  0  0
  143.4350   70.4110  219.9870 C   0  0  0  0  0  0  0  0  0  0  0  0
  144.1790   71.7060  220.1150 C   0  0  0  0  0  0  0  0  0  0  0  0
  139.9640   70.8000  223.6630 C   0  0  0  0  0  0  0  0  0  0  0  0
  139.4710   69.5150  223.8350 C   0  0  0  0  0  0  0  0  0  0  0  0
  139.3920   68.8960  225.0590 C   0  0  0  0  0  0  0  0  0  0  0  0
  139.8380   69.6260  226.1570 C   0  0  0  0  0  0  0  0  0  0  0  0
  139.7670   69.0290  227.3790 C   0  0  0  0  0  0  0  0  0  0  0  0
  140.2050   69.7360  228.4840 C   0  0  0  0  0  0  0  0  0  0  0  0
  140.7060   71.0300  228.3450 C   0  0  0  0  0  0  0  0  0  0  0  0
  140.7570   71.5960  227.0730 C   0  0  0  0  0  0  0  0  0  0  0  0
  140.3200   70.8880  225.9700 C   0  0  0  0  0  0  0  0  0  0  0  0
  140.3750   71.4430  224.7650 N   0  0  0  0  0  0  0  0  0  0  0  0
  139.9660   73.3860  223.1510 H   0  0  0  0  0  0  0  0  0  0  0  0
  140.7628   72.9579  220.3273 H   0  0  0  0  0  0  0  0  0  0  0  0
  139.0778   73.5318  220.5456 H   0  0  0  0  0  0  0  0  0  0  0  0
  140.4182   77.2525  219.2715 H   0  0  0  0  0  0  0  0  0  0  0  0
  140.9115   77.5711  220.9135 H   0  0  0  0  0  0  0  0  0  0  0  0
  143.3116   77.5374  220.2833 H   0  0  0  0  0  0  0  0  0  0  0  0
  143.5530   78.8030  218.6640 H   0  0  0  0  0  0  0  0  0  0  0  0
  142.3908   76.2891  217.6010 H   0  0  0  0  0  0  0  0  0  0  0  0
  143.9329   76.0133  218.4197 H   0  0  0  0  0  0  0  0  0  0  0  0
  141.7617   74.2863  218.5973 H   0  0  0  0  0  0  0  0  0  0  0  0
  141.5276   72.6019  218.4325 H   0  0  0  0  0  0  0  0  0  0  0  0
  142.9658   71.9626  217.6394 H   0  0  0  0  0  0  0  0  0  0  0  0
  141.3207   70.7790  219.9123 H   0  0  0  0  0  0  0  0  0  0  0  0
  141.9320   69.9514  218.4896 H   0  0  0  0  0  0  0  0  0  0  0  0
  143.1909   70.0114  220.9824 H   0  0  0  0  0  0  0  0  0  0  0  0
  144.0381   69.6519  219.4673 H   0  0  0  0  0  0  0  0  0  0  0  0
  144.4212   71.9025  221.1699 H   0  0  0  0  0  0  0  0  0  0  0  0
  145.1265   71.6773  219.5570 H   0  0  0  0  0  0  0  0  0  0  0  0
  139.1262   68.9642  222.9475 H   0  0  0  0  0  0  0  0  0  0  0  0
  138.9963   67.8752  225.1659 H   0  0  0  0  0  0  0  0  0  0  0  0
  139.3706   68.0084  227.4847 H   0  0  0  0  0  0  0  0  0  0  0  0
  140.1578   69.2737  229.4810 H   0  0  0  0  0  0  0  0  0  0  0  0
  141.0544   71.5933  229.2233 H   0  0  0  0  0  0  0  0  0  0  0  0
  141.1488   72.6159  226.9457 H   0  0  0  0  0  0  0  0  0  0  0  0
  1  2  2  0
  2  3  1  0
  3  4  1  0
  4  5  1  0
  5  6  2  0
  5  7  1  0
  7  8  1  0
  8  9  1  0
  9 10  1  0
  9 11  1  0
 11 12  1  0
 12 13  1  0
 13 14  2  0
 13 15  1  0
 15 16  1  0
 16 17  1  0
 17 18  1  0
 18 19  1  0
  2 20  1  0
 20 21  2  0
 21 22  1  0
 22 23  2  0
 23 24  1  0
 24 25  2  0
 25 26  1  0
 26 27  2  0
 27 28  1  0
 28 29  2  0
 12  7  1  0
 19 15  1  0
 29 20  1  0
 28 23  1  0
  3 30  1  0
  4 31  1  0
  4 32  1  0
  8 33  1  0
  8 34  1  0
  9 35  1  1
 10 36  1  0
 11 37  1  0
 11 38  1  0
 12 39  1  6
 16 40  1  0
 16 41  1  0
 17 42  1  0
 17 43  1  0
 18 44  1  0
 18 45  1  0
 19 46  1  0
 19 47  1  0
 21 48  1  0
 22 49  1  0
 24 50  1  0
 25 51  1  0
 26 52  1  0
 27 53  1  0
M  END
>  <smiles>  (28) 
O=C(NCC(=O)N1C[C@H](O)C[C@H]1C(=O)N1CCCC1)c1ccc2ccccc2n1

>  <score_type>  (28) 
oracle

>  <origin>  (28) 
autodockgpu

>  <m_score__min__energy>  (28) 
-8.4900000000000002

>  <m_primary>  (28) 
energy

>  <rmsd>  (28) 
4.688268541047809

>  <m_score__min__rmsd>  (28) 
4.688268541047809

>  <meeko>  (28) 
{"free_energy": -7.06, "intermolecular_energy": -8.85, "internal_energy": -2.58, "cluster_size": 39, "cluster_id": 1, "rank_in_cluster": 39}

>  <energy>  (28) 
-7.59

>  <cluster_rmsd>  (28) 
1.9

>  <cluster>  (28) 
1

$$$$

     RDKit          3D

 53 56  0  0  0  0  0  0  0  0999 V2000
  139.7750   70.8260  221.2750 O   0  0  0  0  0  0  0  0  0  0  0  0
  139.7800   71.5480  222.3040 C   0  0  0  0  0  0  0  0  0  0  0  0
  139.7050   72.9600  222.2870 N   0  0  0  0  0  0  0  0  0  0  0  0
  139.6180   73.6730  221.0510 C   0  0  0  0  0  0  0  0  0  0  0  0
  140.5070   74.8610  221.1130 C   0  0  0  0  0  0  0  0  0  0  0  0
  140.6570   75.3830  222.2660 O   0  0  0  0  0  0  0  0  0  0  0  0
  141.1550   75.3920  219.9660 N   0  0  0  0  0  0  0  0  0  0  0  0
  141.6530   76.7480  219.8940 C   0  0  0  0  0  0  0  0  0  0  0  0
  142.8140   76.6060  218.9410 C   0  0  2  0  0  0  0  0  0  0  0  0
  143.1950   77.7870  218.3460 O   0  0  0  0  0  0  0  0  0  0  0  0
  142.2360   75.5980  217.9350 C   0  0  0  0  0  0  0  0  0  0  0  0
  141.3980   74.6630  218.7440 C   0  0  1  0  0  0  0  0  0  0  0  0
  142.0420   73.3530  218.9750 C   0  0  0  0  0  0  0  0  0  0  0  0
  141.6760   72.2750  218.4700 O   0  0  0  0  0  0  0  0  0  0  0  0
  143.1710   73.3260  219.8450 N   0  0  0  0  0  0  0  0  0  0  0  0
  143.7960   74.4360  220.5580 C   0  0  0  0  0  0  0  0  0  0  0  0
  145.2630   74.1650  220.4690 C   0  0  0  0  0  0  0  0  0  0  0  0
  145.3550   72.6760  220.5290 C   0  0  0  0  0  0  0  0  0  0  0  0
  143.9790   72.1600  220.2320 C   0  0  0  0  0  0  0  0  0  0  0  0
  139.8680   70.8800  223.6090 C   0  0  0  0  0  0  0  0  0  0  0  0
  139.4450   69.5700  223.7770 C   0  0  0  0  0  0  0  0  0  0  0  0
  139.5090   68.9060  224.9790 C   0  0  0  0  0  0  0  0  0  0  0  0
  140.0290   69.6160  226.0570 C   0  0  0  0  0  0  0  0  0  0  0  0
  140.0990   68.9750  227.2560 C   0  0  0  0  0  0  0  0  0  0  0  0
  140.6130   69.6610  228.3410 C   0  0  0  0  0  0  0  0  0  0  0  0
  141.0470   70.9800  228.2050 C   0  0  0  0  0  0  0  0  0  0  0  0
  140.9530   71.5910  226.9560 C   0  0  0  0  0  0  0  0  0  0  0  0
  140.4400   70.9030  225.8730 C   0  0  0  0  0  0  0  0  0  0  0  0
  140.3580   71.5020  224.6910 N   0  0  0  0  0  0  0  0  0  0  0  0
  139.7160   73.4800  223.1990 H   0  0  0  0  0  0  0  0  0  0  0  0
  139.9341   73.0188  220.2251 H   0  0  0  0  0  0  0  0  0  0  0  0
  138.5800   73.9948  220.8805 H   0  0  0  0  0  0  0  0  0  0  0  0
  140.8903   77.4332  219.4954 H   0  0  0  0  0  0  0  0  0  0  0  0
  141.9304   77.1709  220.8708 H   0  0  0  0  0  0  0  0  0  0  0  0
  143.7467   76.2878  219.4297 H   0  0  0  0  0  0  0  0  0  0  0  0
  143.7170   78.3060  218.9890 H   0  0  0  0  0  0  0  0  0  0  0  0
  141.6201   76.1144  217.1840 H   0  0  0  0  0  0  0  0  0  0  0  0
  143.0289   75.0665  217.3884 H   0  0  0  0  0  0  0  0  0  0  0  0
  140.4674   74.3882  218.2259 H   0  0  0  0  0  0  0  0  0  0  0  0
  143.5485   75.3942  220.0777 H   0  0  0  0  0  0  0  0  0  0  0  0
  143.4486   74.5107  221.5990 H   0  0  0  0  0  0  0  0  0  0  0  0
  145.6749   74.5451  219.5225 H   0  0  0  0  0  0  0  0  0  0  0  0
  145.8358   74.6589  221.2677 H   0  0  0  0  0  0  0  0  0  0  0  0
  146.0706   72.3076  219.7792 H   0  0  0  0  0  0  0  0  0  0  0  0
  145.7071   72.3354  221.5139 H   0  0  0  0  0  0  0  0  0  0  0  0
  144.0156   71.4324  219.4078 H   0  0  0  0  0  0  0  0  0  0  0  0
  143.5481   71.6495  221.1059 H   0  0  0  0  0  0  0  0  0  0  0  0
  139.0383   69.0360  222.9056 H   0  0  0  0  0  0  0  0  0  0  0  0
  139.1665   67.8659  225.0834 H   0  0  0  0  0  0  0  0  0  0  0  0
  139.7546   67.9354  227.3593 H   0  0  0  0  0  0  0  0  0  0  0  0
  140.6803   69.1627  229.3194 H   0  0  0  0  0  0  0  0  0  0  0  0
  141.4556   71.5273  229.0673 H   0  0  0  0  0  0  0  0  0  0  0  0
  141.2903   72.6305  226.8311 H   0  0  0  0  0  0  0  0  0  0  0  0
  1  2  2  0
  2  3  1  0
  3  4  1  0
  4  5  1  0
  5  6  2  0
  5  7  1  0
  7  8  1  0
  8  9  1  0
  9 10  1  0
  9 11  1  0
 11 12  1  0
 12 13  1  0
 13 14  2  0
 13 15  1  0
 15 16  1  0
 16 17  1  0
 17 18  1  0
 18 19  1  0
  2 20  1  0
 20 21  2  0
 21 22  1  0
 22 23  2  0
 23 24  1  0
 24 25  2  0
 25 26  1  0
 26 27  2  0
 27 28  1  0
 28 29  2  0
 12  7  1  0
 19 15  1  0
 29 20  1  0
 28 23  1  0
  3 30  1  0
  4 31  1  0
  4 32  1  0
  8 33  1  0
  8 34  1  0
  9 35  1  1
 10 36  1  0
 11 37  1  0
 11 38  1  0
 12 39  1  6
 16 40  1  0
 16 41  1  0
 17 42  1  0
 17 43  1  0
 18 44  1  0
 18 45  1  0
 19 46  1  0
 19 47  1  0
 21 48  1  0
 22 49  1  0
 24 50  1  0
 25 51  1  0
 26 52  1  0
 27 53  1  0
M  END
>  <smiles>  (29) 
O=C(NCC(=O)N1C[C@H](O)C[C@H]1C(=O)N1CCCC1)c1ccc2ccccc2n1

>  <score_type>  (29) 
oracle

>  <origin>  (29) 
autodockgpu

>  <m_score__min__energy>  (29) 
-8.4900000000000002

>  <m_primary>  (29) 
energy

>  <rmsd>  (29) 
4.24242383805719

>  <m_score__min__rmsd>  (29) 
4.24242383805719

>  <meeko>  (29) 
{"free_energy": -7.81, "intermolecular_energy": -9.6, "internal_energy": -2.05, "cluster_size": 39, "cluster_id": 1, "rank_in_cluster": 23}

>  <energy>  (29) 
-7.59

>  <cluster_rmsd>  (29) 
1.89

>  <cluster>  (29) 
1

$$$$

     RDKit          3D

 53 56  0  0  0  0  0  0  0  0999 V2000
  138.5510   75.1130  221.9180 O   0  0  0  0  0  0  0  0  0  0  0  0
  139.7320   75.5450  221.9060 C   0  0  0  0  0  0  0  0  0  0  0  0
  140.8530   74.7860  221.4980 N   0  0  0  0  0  0  0  0  0  0  0  0
  140.7010   73.4340  221.0610 C   0  0  0  0  0  0  0  0  0  0  0  0
  141.8270   73.0880  220.1560 C   0  0  0  0  0  0  0  0  0  0  0  0
  141.5160   72.4230  219.1130 O   0  0  0  0  0  0  0  0  0  0  0  0
  143.1690   73.4680  220.4230 N   0  0  0  0  0  0  0  0  0  0  0  0
  144.1510   72.5660  220.9830 C   0  0  0  0  0  0  0  0  0  0  0  0
  145.4360   73.1000  220.3970 C   0  0  2  0  0  0  0  0  0  0  0  0
  146.5630   72.7260  221.0930 O   0  0  0  0  0  0  0  0  0  0  0  0
  145.1750   74.6130  220.4670 C   0  0  0  0  0  0  0  0  0  0  0  0
  143.7190   74.7800  220.1780 C   0  0  1  0  0  0  0  0  0  0  0  0
  143.4490   75.2690  218.8090 C   0  0  0  0  0  0  0  0  0  0  0  0
  143.6930   74.6410  217.7620 O   0  0  0  0  0  0  0  0  0  0  0  0
  142.8630   76.5630  218.6840 N   0  0  0  0  0  0  0  0  0  0  0  0
  142.4840   77.4960  219.7400 C   0  0  0  0  0  0  0  0  0  0  0  0
  141.1960   78.0940  219.2730 C   0  0  0  0  0  0  0  0  0  0  0  0
  141.3570   78.1740  217.7910 C   0  0  0  0  0  0  0  0  0  0  0  0
  142.5000   77.2690  217.4450 C   0  0  0  0  0  0  0  0  0  0  0  0
  139.9590   76.9280  222.3440 C   0  0  0  0  0  0  0  0  0  0  0  0
  138.9000   77.7720  222.6430 C   0  0  0  0  0  0  0  0  0  0  0  0
  139.0660   79.0720  223.0560 C   0  0  0  0  0  0  0  0  0  0  0  0
  140.3770   79.5280  223.1670 C   0  0  0  0  0  0  0  0  0  0  0  0
  140.5610   80.8150  223.5740 C   0  0  0  0  0  0  0  0  0  0  0  0
  141.8550   81.2890  223.6920 C   0  0  0  0  0  0  0  0  0  0  0  0
  142.9420   80.4660  223.3990 C   0  0  0  0  0  0  0  0  0  0  0  0
  142.6990   79.1570  222.9860 C   0  0  0  0  0  0  0  0  0  0  0  0
  141.4060   78.6840  222.8690 C   0  0  0  0  0  0  0  0  0  0  0  0
  141.1930   77.4350  222.4730 N   0  0  0  0  0  0  0  0  0  0  0  0
  141.8030   75.2320  221.5220 H   0  0  0  0  0  0  0  0  0  0  0  0
  140.7081   72.7621  221.9319 H   0  0  0  0  0  0  0  0  0  0  0  0
  139.7465   73.3218  220.5258 H   0  0  0  0  0  0  0  0  0  0  0  0
  144.1607   72.6176  222.0817 H   0  0  0  0  0  0  0  0  0  0  0  0
  143.9640   71.5069  220.7519 H   0  0  0  0  0  0  0  0  0  0  0  0
  145.6527   72.7150  219.3896 H   0  0  0  0  0  0  0  0  0  0  0  0
  146.3570   71.9230  221.6110 H   0  0  0  0  0  0  0  0  0  0  0  0
  145.4149   74.9987  221.4689 H   0  0  0  0  0  0  0  0  0  0  0  0
  145.7996   75.1686  219.7520 H   0  0  0  0  0  0  0  0  0  0  0  0
  143.2578   75.5539  220.8092 H   0  0  0  0  0  0  0  0  0  0  0  0
  142.3426   76.9661  220.6935 H   0  0  0  0  0  0  0  0  0  0  0  0
  143.2564   78.2585  219.9190 H   0  0  0  0  0  0  0  0  0  0  0  0
  140.3452   77.4501  219.5405 H   0  0  0  0  0  0  0  0  0  0  0  0
  140.9902   79.0723  219.7319 H   0  0  0  0  0  0  0  0  0  0  0  0
  140.4382   77.8368  217.2889 H   0  0  0  0  0  0  0  0  0  0  0  0
  141.5501   79.2064  217.4640 H   0  0  0  0  0  0  0  0  0  0  0  0
  142.1938   76.5482  216.6726 H   0  0  0  0  0  0  0  0  0  0  0  0
  143.3526   77.8389  217.0472 H   0  0  0  0  0  0  0  0  0  0  0  0
  137.8764   77.3814  222.5447 H   0  0  0  0  0  0  0  0  0  0  0  0
  138.2072   79.7193  223.2871 H   0  0  0  0  0  0  0  0  0  0  0  0
  139.7012   81.4616  223.8033 H   0  0  0  0  0  0  0  0  0  0  0  0
  142.0283   82.3246  224.0199 H   0  0  0  0  0  0  0  0  0  0  0  0
  143.9714   80.8425  223.4920 H   0  0  0  0  0  0  0  0  0  0  0  0
  143.5448   78.4941  222.7509 H   0  0  0  0  0  0  0  0  0  0  0  0
  1  2  2  0
  2  3  1  0
  3  4  1  0
  4  5  1  0
  5  6  2  0
  5  7  1  0
  7  8  1  0
  8  9  1  0
  9 10  1  0
  9 11  1  0
 11 12  1  0
 12 13  1  0
 13 14  2  0
 13 15  1  0
 15 16  1  0
 16 17  1  0
 17 18  1  0
 18 19  1  0
  2 20  1  0
 20 21  2  0
 21 22  1  0
 22 23  2  0
 23 24  1  0
 24 25  2  0
 25 26  1  0
 26 27  2  0
 27 28  1  0
 28 29  2  0
 12  7  1  0
 19 15  1  0
 29 20  1  0
 28 23  1  0
  3 30  1  0
  4 31  1  0
  4 32  1  0
  8 33  1  0
  8 34  1  0
  9 35  1  6
 10 36  1  0
 11 37  1  0
 11 38  1  0
 12 39  1  1
 16 40  1  0
 16 41  1  0
 17 42  1  0
 17 43  1  0
 18 44  1  0
 18 45  1  0
 19 46  1  0
 19 47  1  0
 21 48  1  0
 22 49  1  0
 24 50  1  0
 25 51  1  0
 26 52  1  0
 27 53  1  0
M  END
>  <smiles>  (30) 
O=C(NCC(=O)N1C[C@H](O)C[C@H]1C(=O)N1CCCC1)c1ccc2ccccc2n1

>  <score_type>  (30) 
oracle

>  <origin>  (30) 
autodockgpu

>  <m_score__min__energy>  (30) 
-8.4900000000000002

>  <m_primary>  (30) 
energy

>  <rmsd>  (30) 
7.146417320925867

>  <m_score__min__rmsd>  (30) 
7.146417320925867

>  <meeko>  (30) 
{"free_energy": -6.97, "intermolecular_energy": -8.76, "internal_energy": -2.57, "cluster_size": 7, "cluster_id": 3, "rank_in_cluster": 5}

>  <energy>  (30) 
-7.59

>  <cluster_rmsd>  (30) 
2.0

>  <cluster>  (30) 
1

$$$$

     RDKit          3D

 53 56  0  0  0  0  0  0  0  0999 V2000
  139.0710   74.9280  222.0050 O   0  0  0  0  0  0  0  0  0  0  0  0
  140.1950   75.4920  221.9740 C   0  0  0  0  0  0  0  0  0  0  0  0
  141.3920   74.8590  221.5680 N   0  0  0  0  0  0  0  0  0  0  0  0
  141.3920   73.4910  221.1540 C   0  0  0  0  0  0  0  0  0  0  0  0
  141.2130   73.4290  219.6810 C   0  0  0  0  0  0  0  0  0  0  0  0
  141.0270   72.2670  219.1930 O   0  0  0  0  0  0  0  0  0  0  0  0
  141.2460   74.5860  218.8570 N   0  0  0  0  0  0  0  0  0  0  0  0
  140.0550   75.2690  218.4020 C   0  0  0  0  0  0  0  0  0  0  0  0
  140.5410   76.6920  218.2700 C   0  0  2  0  0  0  0  0  0  0  0  0
  139.7640   77.4720  217.4440 O   0  0  0  0  0  0  0  0  0  0  0  0
  141.9520   76.4600  217.7060 C   0  0  0  0  0  0  0  0  0  0  0  0
  142.4490   75.2190  218.3730 C   0  0  1  0  0  0  0  0  0  0  0  0
  143.4300   75.4870  219.4470 C   0  0  0  0  0  0  0  0  0  0  0  0
  143.5120   76.5470  220.0940 O   0  0  0  0  0  0  0  0  0  0  0  0
  144.3520   74.4470  219.7610 N   0  0  0  0  0  0  0  0  0  0  0  0
  144.4690   73.1220  219.1590 C   0  0  0  0  0  0  0  0  0  0  0  0
  144.7690   72.2100  220.3040 C   0  0  0  0  0  0  0  0  0  0  0  0
  145.6120   73.0440  221.2110 C   0  0  0  0  0  0  0  0  0  0  0  0
  145.4150   74.4650  220.7780 C   0  0  0  0  0  0  0  0  0  0  0  0
  140.2670   76.8990  222.3870 C   0  0  0  0  0  0  0  0  0  0  0  0
  139.1200   77.6320  222.6510 C   0  0  0  0  0  0  0  0  0  0  0  0
  139.1390   78.9500  223.0390 C   0  0  0  0  0  0  0  0  0  0  0  0
  140.3920   79.5440  223.1630 C   0  0  0  0  0  0  0  0  0  0  0  0
  140.4320   80.8500  223.5470 C   0  0  0  0  0  0  0  0  0  0  0  0
  141.6660   81.4610  223.6780 C   0  0  0  0  0  0  0  0  0  0  0  0
  142.8390   80.7520  223.4200 C   0  0  0  0  0  0  0  0  0  0  0  0
  142.7430   79.4170  223.0300 C   0  0  0  0  0  0  0  0  0  0  0  0
  141.5100   78.8080  222.9010 C   0  0  0  0  0  0  0  0  0  0  0  0
  141.4380   77.5360  222.5280 N   0  0  0  0  0  0  0  0  0  0  0  0
  142.2850   75.4100  221.5750 H   0  0  0  0  0  0  0  0  0  0  0  0
  142.3488   73.0230  221.4288 H   0  0  0  0  0  0  0  0  0  0  0  0
  140.5703   72.9537  221.6501 H   0  0  0  0  0  0  0  0  0  0  0  0
  139.7115   74.8726  217.4351 H   0  0  0  0  0  0  0  0  0  0  0  0
  139.1933   75.1551  219.0762 H   0  0  0  0  0  0  0  0  0  0  0  0
  140.5073   77.2570  219.2132 H   0  0  0  0  0  0  0  0  0  0  0  0
  140.1290   78.3780  217.4380 H   0  0  0  0  0  0  0  0  0  0  0  0
  141.9121   76.3208  216.6156 H   0  0  0  0  0  0  0  0  0  0  0  0
  142.6135   77.3182  217.8954 H   0  0  0  0  0  0  0  0  0  0  0  0
  143.0139   74.5755  217.6825 H   0  0  0  0  0  0  0  0  0  0  0  0
  143.5268   72.8336  218.6700 H   0  0  0  0  0  0  0  0  0  0  0  0
  145.2473   73.0850  218.3826 H   0  0  0  0  0  0  0  0  0  0  0  0
  143.8431   71.8960  220.8081 H   0  0  0  0  0  0  0  0  0  0  0  0
  145.2705   71.2828  219.9897 H   0  0  0  0  0  0  0  0  0  0  0  0
  145.2904   72.9157  222.2551 H   0  0  0  0  0  0  0  0  0  0  0  0
  146.6709   72.7515  221.1545 H   0  0  0  0  0  0  0  0  0  0  0  0
  145.1113   75.0848  221.6345 H   0  0  0  0  0  0  0  0  0  0  0  0
  146.3453   74.8910  220.3742 H   0  0  0  0  0  0  0  0  0  0  0  0
  138.1455   77.1331  222.5444 H   0  0  0  0  0  0  0  0  0  0  0  0
  138.2122   79.5069  223.2412 H   0  0  0  0  0  0  0  0  0  0  0  0
  139.5045   81.4061  223.7483 H   0  0  0  0  0  0  0  0  0  0  0  0
  141.7227   82.5148  223.9882 H   0  0  0  0  0  0  0  0  0  0  0  0
  143.8211   81.2369  223.5223 H   0  0  0  0  0  0  0  0  0  0  0  0
  143.6582   78.8430  222.8230 H   0  0  0  0  0  0  0  0  0  0  0  0
  1  2  2  0
  2  3  1  0
  3  4  1  0
  4  5  1  0
  5  6  2  0
  5  7  1  0
  7  8  1  0
  8  9  1  0
  9 10  1  0
  9 11  1  0
 11 12  1  0
 12 13  1  0
 13 14  2  0
 13 15  1  0
 15 16  1  0
 16 17  1  0
 17 18  1  0
 18 19  1  0
  2 20  1  0
 20 21  2  0
 21 22  1  0
 22 23  2  0
 23 24  1  0
 24 25  2  0
 25 26  1  0
 26 27  2  0
 27 28  1  0
 28 29  2  0
 12  7  1  0
 19 15  1  0
 29 20  1  0
 28 23  1  0
  3 30  1  0
  4 31  1  0
  4 32  1  0
  8 33  1  0
  8 34  1  0
  9 35  1  1
 10 36  1  0
 11 37  1  0
 11 38  1  0
 12 39  1  6
 16 40  1  0
 16 41  1  0
 17 42  1  0
 17 43  1  0
 18 44  1  0
 18 45  1  0
 19 46  1  0
 19 47  1  0
 21 48  1  0
 22 49  1  0
 24 50  1  0
 25 51  1  0
 26 52  1  0
 27 53  1  0
M  END
>  <smiles>  (31) 
O=C(NCC(=O)N1C[C@H](O)C[C@H]1C(=O)N1CCCC1)c1ccc2ccccc2n1

>  <score_type>  (31) 
oracle

>  <origin>  (31) 
autodockgpu

>  <m_score__min__energy>  (31) 
-8.4900000000000002

>  <m_primary>  (31) 
energy

>  <rmsd>  (31) 
7.347187325862618

>  <m_score__min__rmsd>  (31) 
7.347187325862618

>  <meeko>  (31) 
{"free_energy": -6.23, "intermolecular_energy": -8.02, "internal_energy": -3.23, "cluster_size": 7, "cluster_id": 3, "rank_in_cluster": 6}

>  <energy>  (31) 
-7.55

>  <cluster_rmsd>  (31) 
1.89

>  <cluster>  (31) 
1

$$$$

     RDKit          3D

 53 56  0  0  0  0  0  0  0  0999 V2000
  140.1070   71.2710  221.3000 O   0  0  0  0  0  0  0  0  0  0  0  0
  139.9260   71.9500  222.3430 C   0  0  0  0  0  0  0  0  0  0  0  0
  139.6800   73.3420  222.3540 N   0  0  0  0  0  0  0  0  0  0  0  0
  139.6200   74.0840  221.1340 C   0  0  0  0  0  0  0  0  0  0  0  0
  140.4010   75.3370  221.2890 C   0  0  0  0  0  0  0  0  0  0  0  0
  139.9850   76.1430  222.1850 O   0  0  0  0  0  0  0  0  0  0  0  0
  141.5420   75.6310  220.4960 N   0  0  0  0  0  0  0  0  0  0  0  0
  142.1490   74.6750  219.5960 C   0  0  0  0  0  0  0  0  0  0  0  0
  142.7280   75.5730  218.5300 C   0  0  2  0  0  0  0  0  0  0  0  0
  143.7300   74.9860  217.7910 O   0  0  0  0  0  0  0  0  0  0  0  0
  143.2360   76.7430  219.3870 C   0  0  0  0  0  0  0  0  0  0  0  0
  142.2340   76.8970  220.4840 C   0  0  1  0  0  0  0  0  0  0  0  0
  141.3250   78.0470  220.2870 C   0  0  0  0  0  0  0  0  0  0  0  0
  140.5290   78.1770  219.3390 O   0  0  0  0  0  0  0  0  0  0  0  0
  141.3690   79.0860  221.2620 N   0  0  0  0  0  0  0  0  0  0  0  0
  142.2040   79.1800  222.4560 C   0  0  0  0  0  0  0  0  0  0  0  0
  141.3080   79.7640  223.5000 C   0  0  0  0  0  0  0  0  0  0  0  0
  140.4370   80.7050  222.7350 C   0  0  0  0  0  0  0  0  0  0  0  0
  140.5730   80.3230  221.2930 C   0  0  0  0  0  0  0  0  0  0  0  0
  139.9750   71.2500  223.6330 C   0  0  0  0  0  0  0  0  0  0  0  0
  139.5350   69.9410  223.7590 C   0  0  0  0  0  0  0  0  0  0  0  0
  139.5620   69.2480  224.9450 C   0  0  0  0  0  0  0  0  0  0  0  0
  140.0630   69.9260  226.0530 C   0  0  0  0  0  0  0  0  0  0  0  0
  140.0970   69.2560  227.2370 C   0  0  0  0  0  0  0  0  0  0  0  0
  140.5910   69.9100  228.3500 C   0  0  0  0  0  0  0  0  0  0  0  0
  141.0420   71.2270  228.2570 C   0  0  0  0  0  0  0  0  0  0  0  0
  140.9850   71.8680  227.0220 C   0  0  0  0  0  0  0  0  0  0  0  0
  140.4920   71.2130  225.9100 C   0  0  0  0  0  0  0  0  0  0  0  0
  140.4450   71.8400  224.7410 N   0  0  0  0  0  0  0  0  0  0  0  0
  139.5410   73.8250  223.2750 H   0  0  0  0  0  0  0  0  0  0  0  0
  140.0453   73.4836  220.3163 H   0  0  0  0  0  0  0  0  0  0  0  0
  138.5732   74.3264  220.8986 H   0  0  0  0  0  0  0  0  0  0  0  0
  142.9356   74.0946  220.1004 H   0  0  0  0  0  0  0  0  0  0  0  0
  141.4468   73.9220  219.2088 H   0  0  0  0  0  0  0  0  0  0  0  0
  142.0041   75.8519  217.7501 H   0  0  0  0  0  0  0  0  0  0  0  0
  144.4870   75.6030  217.7460 H   0  0  0  0  0  0  0  0  0  0  0  0
  144.2285   76.5133  219.8020 H   0  0  0  0  0  0  0  0  0  0  0  0
  143.3415   77.6657  218.7975 H   0  0  0  0  0  0  0  0  0  0  0  0
  142.7096   77.1251  221.4493 H   0  0  0  0  0  0  0  0  0  0  0  0
  142.5579   78.1843  222.7613 H   0  0  0  0  0  0  0  0  0  0  0  0
  143.1025   79.7921  222.2886 H   0  0  0  0  0  0  0  0  0  0  0  0
  140.7075   78.9799  223.9844 H   0  0  0  0  0  0  0  0  0  0  0  0
  141.8641   80.2607  224.3087 H   0  0  0  0  0  0  0  0  0  0  0  0
  139.3906   80.6045  223.0589 H   0  0  0  0  0  0  0  0  0  0  0  0
  140.7338   81.7510  222.9019 H   0  0  0  0  0  0  0  0  0  0  0  0
  139.5810   80.1478  220.8511 H   0  0  0  0  0  0  0  0  0  0  0  0
  141.0577   81.1226  220.7136 H   0  0  0  0  0  0  0  0  0  0  0  0
  139.1450   69.4323  222.8651 H   0  0  0  0  0  0  0  0  0  0  0  0
  139.2057   68.2097  225.0156 H   0  0  0  0  0  0  0  0  0  0  0  0
  139.7396   68.2180  227.3067 H   0  0  0  0  0  0  0  0  0  0  0  0
  140.6289   69.3877  229.3173 H   0  0  0  0  0  0  0  0  0  0  0  0
  141.4350   71.7489  229.1420 H   0  0  0  0  0  0  0  0  0  0  0  0
  141.3361   72.9065  226.9310 H   0  0  0  0  0  0  0  0  0  0  0  0
  1  2  2  0
  2  3  1  0
  3  4  1  0
  4  5  1  0
  5  6  2  0
  5  7  1  0
  7  8  1  0
  8  9  1  0
  9 10  1  0
  9 11  1  0
 11 12  1  0
 12 13  1  0
 13 14  2  0
 13 15  1  0
 15 16  1  0
 16 17  1  0
 17 18  1  0
 18 19  1  0
  2 20  1  0
 20 21  2  0
 21 22  1  0
 22 23  2  0
 23 24  1  0
 24 25  2  0
 25 26  1  0
 26 27  2  0
 27 28  1  0
 28 29  2  0
 12  7  1  0
 19 15  1  0
 29 20  1  0
 28 23  1  0
  3 30  1  0
  4 31  1  0
  4 32  1  0
  8 33  1  0
  8 34  1  0
  9 35  1  6
 10 36  1  0
 11 37  1  0
 11 38  1  0
 12 39  1  1
 16 40  1  0
 16 41  1  0
 17 42  1  0
 17 43  1  0
 18 44  1  0
 18 45  1  0
 19 46  1  0
 19 47  1  0
 21 48  1  0
 22 49  1  0
 24 50  1  0
 25 51  1  0
 26 52  1  0
 27 53  1  0
M  END
>  <smiles>  (32) 
O=C(NCC(=O)N1C[C@H](O)C[C@H]1C(=O)N1CCCC1)c1ccc2ccccc2n1

>  <score_type>  (32) 
oracle

>  <origin>  (32) 
autodockgpu

>  <m_score__min__energy>  (32) 
-8.4900000000000002

>  <m_primary>  (32) 
energy

>  <rmsd>  (32) 
1.9533926457626885

>  <m_score__min__rmsd>  (32) 
1.9533926457626885

>  <meeko>  (32) 
{"free_energy": -8.25, "intermolecular_energy": -10.04, "internal_energy": -1.74, "cluster_size": 39, "cluster_id": 1, "rank_in_cluster": 6}

>  <energy>  (32) 
-7.51

>  <cluster_rmsd>  (32) 
1.87

>  <cluster>  (32) 
1

$$$$

     RDKit          3D

 53 56  0  0  0  0  0  0  0  0999 V2000
  140.1640   71.2050  221.2380 O   0  0  0  0  0  0  0  0  0  0  0  0
  140.0240   71.9190  222.2640 C   0  0  0  0  0  0  0  0  0  0  0  0
  139.8660   73.3230  222.2410 N   0  0  0  0  0  0  0  0  0  0  0  0
  139.8550   74.0390  221.0040 C   0  0  0  0  0  0  0  0  0  0  0  0
  140.6430   75.2880  221.1590 C   0  0  0  0  0  0  0  0  0  0  0  0
  141.0460   75.5460  222.3410 O   0  0  0  0  0  0  0  0  0  0  0  0
  140.9360   76.1480  220.0680 N   0  0  0  0  0  0  0  0  0  0  0  0
  140.2330   77.3890  219.8260 C   0  0  0  0  0  0  0  0  0  0  0  0
  141.2920   78.2220  219.1450 C   0  0  2  0  0  0  0  0  0  0  0  0
  140.7880   79.2710  218.4110 O   0  0  0  0  0  0  0  0  0  0  0  0
  141.9680   77.1580  218.2650 C   0  0  0  0  0  0  0  0  0  0  0  0
  141.9540   75.9030  219.0750 C   0  0  1  0  0  0  0  0  0  0  0  0
  143.2690   75.5760  219.6670 C   0  0  0  0  0  0  0  0  0  0  0  0
  144.0980   76.4100  220.0780 O   0  0  0  0  0  0  0  0  0  0  0  0
  143.6100   74.1970  219.7750 N   0  0  0  0  0  0  0  0  0  0  0  0
  142.8280   73.0320  219.3720 C   0  0  0  0  0  0  0  0  0  0  0  0
  143.0650   72.0250  220.4510 C   0  0  0  0  0  0  0  0  0  0  0  0
  144.4810   72.2660  220.8570 C   0  0  0  0  0  0  0  0  0  0  0  0
  144.8470   73.6170  220.3220 C   0  0  0  0  0  0  0  0  0  0  0  0
  140.0260   71.2470  223.5700 C   0  0  0  0  0  0  0  0  0  0  0  0
  139.5190   69.9660  223.7210 C   0  0  0  0  0  0  0  0  0  0  0  0
  139.5010   69.3000  224.9230 C   0  0  0  0  0  0  0  0  0  0  0  0
  140.0260   69.9780  226.0200 C   0  0  0  0  0  0  0  0  0  0  0  0
  140.0160   69.3340  227.2200 C   0  0  0  0  0  0  0  0  0  0  0  0
  140.5320   69.9890  228.3220 C   0  0  0  0  0  0  0  0  0  0  0  0
  141.0500   71.2790  228.2040 C   0  0  0  0  0  0  0  0  0  0  0  0
  141.0360   71.8930  226.9540 C   0  0  0  0  0  0  0  0  0  0  0  0
  140.5210   71.2380  225.8520 C   0  0  0  0  0  0  0  0  0  0  0  0
  140.5160   71.8390  224.6680 N   0  0  0  0  0  0  0  0  0  0  0  0
  139.7560   73.8360  223.1510 H   0  0  0  0  0  0  0  0  0  0  0  0
  140.3018   73.4171  220.2143 H   0  0  0  0  0  0  0  0  0  0  0  0
  138.8193   74.2859  220.7277 H   0  0  0  0  0  0  0  0  0  0  0  0
  139.3633   77.2344  219.1705 H   0  0  0  0  0  0  0  0  0  0  0  0
  139.8226   77.8510  220.7360 H   0  0  0  0  0  0  0  0  0  0  0  0
  141.9646   78.7376  219.8462 H   0  0  0  0  0  0  0  0  0  0  0  0
  140.8950   79.0670  217.4610 H   0  0  0  0  0  0  0  0  0  0  0  0
  141.4056   77.0184  217.3300 H   0  0  0  0  0  0  0  0  0  0  0  0
  142.9903   77.4506  217.9833 H   0  0  0  0  0  0  0  0  0  0  0  0
  141.7368   75.0165  218.4611 H   0  0  0  0  0  0  0  0  0  0  0  0
  141.7597   73.2857  219.3059 H   0  0  0  0  0  0  0  0  0  0  0  0
  143.1209   72.6566  218.3804 H   0  0  0  0  0  0  0  0  0  0  0  0
  142.3813   72.1887  221.2970 H   0  0  0  0  0  0  0  0  0  0  0  0
  142.8881   70.9923  220.1159 H   0  0  0  0  0  0  0  0  0  0  0  0
  144.5705   72.2533  221.9533 H   0  0  0  0  0  0  0  0  0  0  0  0
  145.1485   71.4854  220.4632 H   0  0  0  0  0  0  0  0  0  0  0  0
  145.2402   74.2521  221.1295 H   0  0  0  0  0  0  0  0  0  0  0  0
  145.6273   73.5420  219.5503 H   0  0  0  0  0  0  0  0  0  0  0  0
  139.1109   69.4573  222.8351 H   0  0  0  0  0  0  0  0  0  0  0  0
  139.0925   68.2827  225.0139 H   0  0  0  0  0  0  0  0  0  0  0  0
  139.6070   68.3168  227.3099 H   0  0  0  0  0  0  0  0  0  0  0  0
  140.5343   69.4885  229.3015 H   0  0  0  0  0  0  0  0  0  0  0  0
  141.4613   71.8008  229.0807 H   0  0  0  0  0  0  0  0  0  0  0  0
  141.4393   72.9104  226.8430 H   0  0  0  0  0  0  0  0  0  0  0  0
  1  2  2  0
  2  3  1  0
  3  4  1  0
  4  5  1  0
  5  6  2  0
  5  7  1  0
  7  8  1  0
  8  9  1  0
  9 10  1  0
  9 11  1  0
 11 12  1  0
 12 13  1  0
 13 14  2  0
 13 15  1  0
 15 16  1  0
 16 17  1  0
 17 18  1  0
 18 19  1  0
  2 20  1  0
 20 21  2  0
 21 22  1  0
 22 23  2  0
 23 24  1  0
 24 25  2  0
 25 26  1  0
 26 27  2  0
 27 28  1  0
 28 29  2  0
 12  7  1  0
 19 15  1  0
 29 20  1  0
 28 23  1  0
  3 30  1  0
  4 31  1  0
  4 32  1  0
  8 33  1  0
  8 34  1  0
  9 35  1  1
 10 36  1  0
 11 37  1  0
 11 38  1  0
 12 39  1  6
 16 40  1  0
 16 41  1  0
 17 42  1  0
 17 43  1  0
 18 44  1  0
 18 45  1  0
 19 46  1  0
 19 47  1  0
 21 48  1  0
 22 49  1  0
 24 50  1  0
 25 51  1  0
 26 52  1  0
 27 53  1  0
M  END
>  <smiles>  (33) 
O=C(NCC(=O)N1C[C@H](O)C[C@H]1C(=O)N1CCCC1)c1ccc2ccccc2n1

>  <score_type>  (33) 
oracle

>  <origin>  (33) 
autodockgpu

>  <m_score__min__energy>  (33) 
-8.4900000000000002

>  <m_primary>  (33) 
energy

>  <rmsd>  (33) 
4.04756095290602

>  <m_score__min__rmsd>  (33) 
4.04756095290602

>  <meeko>  (33) 
{"free_energy": -7.26, "intermolecular_energy": -9.05, "internal_energy": -2.48, "cluster_size": 39, "cluster_id": 1, "rank_in_cluster": 36}

>  <energy>  (33) 
-7.36

>  <cluster_rmsd>  (33) 
1.84

>  <cluster>  (33) 
1

$$$$

     RDKit          3D

 53 56  0  0  0  0  0  0  0  0999 V2000
  139.9370   71.1930  221.2930 O   0  0  0  0  0  0  0  0  0  0  0  0
  139.8410   71.8750  222.3460 C   0  0  0  0  0  0  0  0  0  0  0  0
  139.6670   73.2770  222.3720 N   0  0  0  0  0  0  0  0  0  0  0  0
  139.5880   74.0280  221.1590 C   0  0  0  0  0  0  0  0  0  0  0  0
  139.5120   75.4740  221.4880 C   0  0  0  0  0  0  0  0  0  0  0  0
  139.6110   75.7680  222.7240 O   0  0  0  0  0  0  0  0  0  0  0  0
  139.3410   76.4760  220.4960 N   0  0  0  0  0  0  0  0  0  0  0  0
  138.5440   76.2840  219.3040 C   0  0  0  0  0  0  0  0  0  0  0  0
  138.0630   77.6860  219.0190 C   0  0  2  0  0  0  0  0  0  0  0  0
  137.6600   77.8830  217.7180 O   0  0  0  0  0  0  0  0  0  0  0  0
  139.3180   78.4970  219.3760 C   0  0  0  0  0  0  0  0  0  0  0  0
  139.9280   77.7940  220.5450 C   0  0  1  0  0  0  0  0  0  0  0  0
  139.6870   78.4830  221.8310 C   0  0  0  0  0  0  0  0  0  0  0  0
  138.6910   78.3140  222.5590 O   0  0  0  0  0  0  0  0  0  0  0  0
  140.6740   79.4140  222.2660 N   0  0  0  0  0  0  0  0  0  0  0  0
  141.9200   79.7950  221.6070 C   0  0  0  0  0  0  0  0  0  0  0  0
  142.9120   79.9270  222.7170 C   0  0  0  0  0  0  0  0  0  0  0  0
  142.1040   80.4620  223.8530 C   0  0  0  0  0  0  0  0  0  0  0  0
  140.6680   80.2210  223.4960 C   0  0  0  0  0  0  0  0  0  0  0  0
  139.9150   71.1650  223.6300 C   0  0  0  0  0  0  0  0  0  0  0  0
  139.5200   69.8420  223.7450 C   0  0  0  0  0  0  0  0  0  0  0  0
  139.5710   69.1390  224.9250 C   0  0  0  0  0  0  0  0  0  0  0  0
  140.0490   69.8250  226.0380 C   0  0  0  0  0  0  0  0  0  0  0  0
  140.1070   69.1460  227.2170 C   0  0  0  0  0  0  0  0  0  0  0  0
  140.5780   69.8080  228.3350 C   0  0  0  0  0  0  0  0  0  0  0  0
  140.9840   71.1400  228.2540 C   0  0  0  0  0  0  0  0  0  0  0  0
  140.9040   71.7900  227.0240 C   0  0  0  0  0  0  0  0  0  0  0  0
  140.4330   71.1270  225.9060 C   0  0  0  0  0  0  0  0  0  0  0  0
  140.3640   71.7620  224.7420 N   0  0  0  0  0  0  0  0  0  0  0  0
  139.5960   73.7620  223.3010 H   0  0  0  0  0  0  0  0  0  0  0  0
  140.4820   73.8357  220.5476 H   0  0  0  0  0  0  0  0  0  0  0  0
  138.6925   73.7283  220.5948 H   0  0  0  0  0  0  0  0  0  0  0  0
  139.1526   75.8939  218.4748 H   0  0  0  0  0  0  0  0  0  0  0  0
  137.7315   75.5527  219.4267 H   0  0  0  0  0  0  0  0  0  0  0  0
  137.1590   77.9626  219.5813 H   0  0  0  0  0  0  0  0  0  0  0  0
  138.4530   77.9230  217.1490 H   0  0  0  0  0  0  0  0  0  0  0  0
  140.0191   78.5135  218.5286 H   0  0  0  0  0  0  0  0  0  0  0  0
  139.0746   79.5437  219.6107 H   0  0  0  0  0  0  0  0  0  0  0  0
  141.0260   77.7677  220.4850 H   0  0  0  0  0  0  0  0  0  0  0  0
  142.2356   79.0180  220.8952 H   0  0  0  0  0  0  0  0  0  0  0  0
  141.8171   80.7248  221.0284 H   0  0  0  0  0  0  0  0  0  0  0  0
  143.3477   78.9497  222.9718 H   0  0  0  0  0  0  0  0  0  0  0  0
  143.7606   80.5760  222.4550 H   0  0  0  0  0  0  0  0  0  0  0  0
  142.3591   79.9344  224.7839 H   0  0  0  0  0  0  0  0  0  0  0  0
  142.3020   81.5316  224.0165 H   0  0  0  0  0  0  0  0  0  0  0  0
  140.1613   79.6758  224.3059 H   0  0  0  0  0  0  0  0  0  0  0  0
  140.1301   81.1690  223.3476 H   0  0  0  0  0  0  0  0  0  0  0  0
  139.1468   69.3284  222.8467 H   0  0  0  0  0  0  0  0  0  0  0  0
  139.2506   68.0885  224.9867 H   0  0  0  0  0  0  0  0  0  0  0  0
  139.7865   68.0955  227.2781 H   0  0  0  0  0  0  0  0  0  0  0  0
  140.6333   69.2793  229.2981 H   0  0  0  0  0  0  0  0  0  0  0  0
  141.3599   71.6669  229.1434 H   0  0  0  0  0  0  0  0  0  0  0  0
  141.2187   72.8408  226.9418 H   0  0  0  0  0  0  0  0  0  0  0  0
  1  2  2  0
  2  3  1  0
  3  4  1  0
  4  5  1  0
  5  6  2  0
  5  7  1  0
  7  8  1  0
  8  9  1  0
  9 10  1  0
  9 11  1  0
 11 12  1  0
 12 13  1  0
 13 14  2  0
 13 15  1  0
 15 16  1  0
 16 17  1  0
 17 18  1  0
 18 19  1  0
  2 20  1  0
 20 21  2  0
 21 22  1  0
 22 23  2  0
 23 24  1  0
 24 25  2  0
 25 26  1  0
 26 27  2  0
 27 28  1  0
 28 29  2  0
 12  7  1  0
 19 15  1  0
 29 20  1  0
 28 23  1  0
  3 30  1  0
  4 31  1  0
  4 32  1  0
  8 33  1  0
  8 34  1  0
  9 35  1  1
 10 36  1  0
 11 37  1  0
 11 38  1  0
 12 39  1  6
 16 40  1  0
 16 41  1  0
 17 42  1  0
 17 43  1  0
 18 44  1  0
 18 45  1  0
 19 46  1  0
 19 47  1  0
 21 48  1  0
 22 49  1  0
 24 50  1  0
 25 51  1  0
 26 52  1  0
 27 53  1  0
M  END
>  <smiles>  (34) 
O=C(NCC(=O)N1C[C@H](O)C[C@H]1C(=O)N1CCCC1)c1ccc2ccccc2n1

>  <score_type>  (34) 
oracle

>  <origin>  (34) 
autodockgpu

>  <m_score__min__energy>  (34) 
-8.4900000000000002

>  <m_primary>  (34) 
energy

>  <rmsd>  (34) 
2.148578303464414

>  <m_score__min__rmsd>  (34) 
2.148578303464414

>  <meeko>  (34) 
{"free_energy": -7.55, "intermolecular_energy": -9.34, "internal_energy": -1.99, "cluster_size": 39, "cluster_id": 1, "rank_in_cluster": 31}

>  <energy>  (34) 
-7.35

>  <cluster_rmsd>  (34) 
1.88

>  <cluster>  (34) 
1

$$$$

     RDKit          3D

 53 56  0  0  0  0  0  0  0  0999 V2000
  140.6150   71.2720  221.2730 O   0  0  0  0  0  0  0  0  0  0  0  0
  140.3010   71.9770  222.2650 C   0  0  0  0  0  0  0  0  0  0  0  0
  140.0660   73.3700  222.2090 N   0  0  0  0  0  0  0  0  0  0  0  0
  140.1780   74.0820  220.9750 C   0  0  0  0  0  0  0  0  0  0  0  0
  140.7910   75.4100  221.2350 C   0  0  0  0  0  0  0  0  0  0  0  0
  140.6160   75.8820  222.4060 O   0  0  0  0  0  0  0  0  0  0  0  0
  141.5270   76.1190  220.2490 N   0  0  0  0  0  0  0  0  0  0  0  0
  141.9070   75.5440  218.9770 C   0  0  0  0  0  0  0  0  0  0  0  0
  141.9420   76.7580  218.0820 C   0  0  2  0  0  0  0  0  0  0  0  0
  142.6920   76.5880  216.9410 O   0  0  0  0  0  0  0  0  0  0  0  0
  142.5490   77.7990  219.0360 C   0  0  0  0  0  0  0  0  0  0  0  0
  141.9850   77.4810  220.3830 C   0  0  1  0  0  0  0  0  0  0  0  0
  140.9140   78.4100  220.8010 C   0  0  0  0  0  0  0  0  0  0  0  0
  139.7440   78.3940  220.3730 O   0  0  0  0  0  0  0  0  0  0  0  0
  141.2500   79.3990  221.7710 N   0  0  0  0  0  0  0  0  0  0  0  0
  142.5350   79.6320  222.4250 C   0  0  0  0  0  0  0  0  0  0  0  0
  142.1850   79.9700  223.8380 C   0  0  0  0  0  0  0  0  0  0  0  0
  140.9010   80.7230  223.7160 C   0  0  0  0  0  0  0  0  0  0  0  0
  140.3720   80.4300  222.3450 C   0  0  0  0  0  0  0  0  0  0  0  0
  140.1690   71.3090  223.5660 C   0  0  0  0  0  0  0  0  0  0  0  0
  139.5560   70.0700  223.6810 C   0  0  0  0  0  0  0  0  0  0  0  0
  139.4110   69.4090  224.8760 C   0  0  0  0  0  0  0  0  0  0  0  0
  139.9160   70.0460  226.0060 C   0  0  0  0  0  0  0  0  0  0  0  0
  139.7800   69.4060  227.2010 C   0  0  0  0  0  0  0  0  0  0  0  0
  140.2760   70.0200  228.3370 C   0  0  0  0  0  0  0  0  0  0  0  0
  140.8970   71.2660  228.2560 C   0  0  0  0  0  0  0  0  0  0  0  0
  141.0100   71.8780  227.0090 C   0  0  0  0  0  0  0  0  0  0  0  0
  140.5160   71.2630  225.8750 C   0  0  0  0  0  0  0  0  0  0  0  0
  140.6320   71.8620  224.6960 N   0  0  0  0  0  0  0  0  0  0  0  0
  139.8080   73.8770  223.0910 H   0  0  0  0  0  0  0  0  0  0  0  0
  140.8114   73.5138  220.2779 H   0  0  0  0  0  0  0  0  0  0  0  0
  139.1802   74.2144  220.5312 H   0  0  0  0  0  0  0  0  0  0  0  0
  142.8940   75.0618  219.0353 H   0  0  0  0  0  0  0  0  0  0  0  0
  141.2266   74.7540  218.6264 H   0  0  0  0  0  0  0  0  0  0  0  0
  140.9585   77.0272  217.6693 H   0  0  0  0  0  0  0  0  0  0  0  0
  143.1190   77.4390  216.7190 H   0  0  0  0  0  0  0  0  0  0  0  0
  143.6458   77.7157  219.0488 H   0  0  0  0  0  0  0  0  0  0  0  0
  142.3098   78.8267  218.7251 H   0  0  0  0  0  0  0  0  0  0  0  0
  142.7318   77.5962  221.1824 H   0  0  0  0  0  0  0  0  0  0  0  0
  143.1600   78.7277  222.3858 H   0  0  0  0  0  0  0  0  0  0  0  0
  143.1122   80.4309  221.9364 H   0  0  0  0  0  0  0  0  0  0  0  0
  142.0489   79.0576  224.4371 H   0  0  0  0  0  0  0  0  0  0  0  0
  142.9714   80.5488  224.3445 H   0  0  0  0  0  0  0  0  0  0  0  0
  140.1864   80.3844  224.4807 H   0  0  0  0  0  0  0  0  0  0  0  0
  141.0541   81.8022  223.8639 H   0  0  0  0  0  0  0  0  0  0  0  0
  139.3389   80.0576  222.4077 H   0  0  0  0  0  0  0  0  0  0  0  0
  140.3604   81.3357  221.7208 H   0  0  0  0  0  0  0  0  0  0  0  0
  139.1666   69.5931  222.7695 H   0  0  0  0  0  0  0  0  0  0  0  0
  138.9207   68.4262  224.9371 H   0  0  0  0  0  0  0  0  0  0  0  0
  139.2874   68.4243  227.2611 H   0  0  0  0  0  0  0  0  0  0  0  0
  140.1798   69.5211  229.3126 H   0  0  0  0  0  0  0  0  0  0  0  0
  141.2900   71.7563  229.1588 H   0  0  0  0  0  0  0  0  0  0  0  0
  141.4975   72.8607  226.9270 H   0  0  0  0  0  0  0  0  0  0  0  0
  1  2  2  0
  2  3  1  0
  3  4  1  0
  4  5  1  0
  5  6  2  0
  5  7  1  0
  7  8  1  0
  8  9  1  0
  9 10  1  0
  9 11  1  0
 11 12  1  0
 12 13  1  0
 13 14  2  0
 13 15  1  0
 15 16  1  0
 16 17  1  0
 17 18  1  0
 18 19  1  0
  2 20  1  0
 20 21  2  0
 21 22  1  0
 22 23  2  0
 23 24  1  0
 24 25  2  0
 25 26  1  0
 26 27  2  0
 27 28  1  0
 28 29  2  0
 12  7  1  0
 19 15  1  0
 29 20  1  0
 28 23  1  0
  3 30  1  0
  4 31  1  0
  4 32  1  0
  8 33  1  0
  8 34  1  0
  9 35  1  6
 10 36  1  0
 11 37  1  0
 11 38  1  0
 12 39  1  1
 16 40  1  0
 16 41  1  0
 17 42  1  0
 17 43  1  0
 18 44  1  0
 18 45  1  0
 19 46  1  0
 19 47  1  0
 21 48  1  0
 22 49  1  0
 24 50  1  0
 25 51  1  0
 26 52  1  0
 27 53  1  0
M  END
>  <smiles>  (35) 
O=C(NCC(=O)N1C[C@H](O)C[C@H]1C(=O)N1CCCC1)c1ccc2ccccc2n1

>  <score_type>  (35) 
oracle

>  <origin>  (35) 
autodockgpu

>  <m_score__min__energy>  (35) 
-8.4900000000000002

>  <m_primary>  (35) 
energy

>  <rmsd>  (35) 
2.0536439011608683

>  <m_score__min__rmsd>  (35) 
2.0536439011608683

>  <meeko>  (35) 
{"free_energy": -8.0, "intermolecular_energy": -9.79, "internal_energy": -1.96, "cluster_size": 39, "cluster_id": 1, "rank_in_cluster": 15}

>  <energy>  (35) 
-7.29

>  <cluster_rmsd>  (35) 
1.84

>  <cluster>  (35) 
1

$$$$

     RDKit          3D

 53 56  0  0  0  0  0  0  0  0999 V2000
  140.4230   71.0920  221.2070 O   0  0  0  0  0  0  0  0  0  0  0  0
  140.2380   71.8660  222.1810 C   0  0  0  0  0  0  0  0  0  0  0  0
  140.1220   73.2710  222.0710 N   0  0  0  0  0  0  0  0  0  0  0  0
  140.2130   73.9150  220.7980 C   0  0  0  0  0  0  0  0  0  0  0  0
  140.8960   75.2230  220.9650 C   0  0  0  0  0  0  0  0  0  0  0  0
  140.8800   75.7120  222.1420 O   0  0  0  0  0  0  0  0  0  0  0  0
  141.5290   75.8980  219.8880 N   0  0  0  0  0  0  0  0  0  0  0  0
  141.2780   77.2850  219.5630 C   0  0  0  0  0  0  0  0  0  0  0  0
  142.5950   77.7100  218.9610 C   0  0  2  0  0  0  0  0  0  0  0  0
  142.5090   78.8310  218.1680 O   0  0  0  0  0  0  0  0  0  0  0  0
  142.9640   76.4500  218.1630 C   0  0  0  0  0  0  0  0  0  0  0  0
  142.4900   75.3000  218.9910 C   0  0  1  0  0  0  0  0  0  0  0  0
  143.5830   74.6030  219.7010 C   0  0  0  0  0  0  0  0  0  0  0  0
  144.4000   75.1450  220.4680 O   0  0  0  0  0  0  0  0  0  0  0  0
  143.7070   73.1990  219.4880 N   0  0  0  0  0  0  0  0  0  0  0  0
  142.8890   72.3310  218.6470 C   0  0  0  0  0  0  0  0  0  0  0  0
  142.7430   71.0680  219.4340 C   0  0  0  0  0  0  0  0  0  0  0  0
  144.0510   70.9380  220.1420 C   0  0  0  0  0  0  0  0  0  0  0  0
  144.7010   72.2860  220.0720 C   0  0  0  0  0  0  0  0  0  0  0  0
  140.1350   71.2700  223.5190 C   0  0  0  0  0  0  0  0  0  0  0  0
  139.4980   70.0550  223.7190 C   0  0  0  0  0  0  0  0  0  0  0  0
  139.3780   69.4600  224.9520 C   0  0  0  0  0  0  0  0  0  0  0  0
  139.9370   70.1420  226.0300 C   0  0  0  0  0  0  0  0  0  0  0  0
  139.8280   69.5690  227.2600 C   0  0  0  0  0  0  0  0  0  0  0  0
  140.3770   70.2290  228.3450 C   0  0  0  0  0  0  0  0  0  0  0  0
  141.0240   71.4520  228.1780 C   0  0  0  0  0  0  0  0  0  0  0  0
  141.1080   71.9960  226.8970 C   0  0  0  0  0  0  0  0  0  0  0  0
  140.5610   71.3360  225.8140 C   0  0  0  0  0  0  0  0  0  0  0  0
  140.6500   71.8690  224.6020 N   0  0  0  0  0  0  0  0  0  0  0  0
  139.9680   73.8370  222.9410 H   0  0  0  0  0  0  0  0  0  0  0  0
  140.7895   73.2837  220.1058 H   0  0  0  0  0  0  0  0  0  0  0  0
  139.2043   74.0724  220.3884 H   0  0  0  0  0  0  0  0  0  0  0  0
  140.4569   77.3832  218.8377 H   0  0  0  0  0  0  0  0  0  0  0  0
  140.9679   77.8933  220.4254 H   0  0  0  0  0  0  0  0  0  0  0  0
  143.3407   78.0179  219.7087 H   0  0  0  0  0  0  0  0  0  0  0  0
  143.3310   78.9070  217.6450 H   0  0  0  0  0  0  0  0  0  0  0  0
  142.4603   76.4530  217.1851 H   0  0  0  0  0  0  0  0  0  0  0  0
  144.0448   76.3933  217.9666 H   0  0  0  0  0  0  0  0  0  0  0  0
  142.0507   74.5005  218.3764 H   0  0  0  0  0  0  0  0  0  0  0  0
  141.9057   72.7871  218.4595 H   0  0  0  0  0  0  0  0  0  0  0  0
  143.3449   72.1568  217.6612 H   0  0  0  0  0  0  0  0  0  0  0  0
  141.9142   71.1475  220.1529 H   0  0  0  0  0  0  0  0  0  0  0  0
  142.5118   70.1972  218.8029 H   0  0  0  0  0  0  0  0  0  0  0  0
  143.8896   70.6466  221.1904 H   0  0  0  0  0  0  0  0  0  0  0  0
  144.6818   70.1648  219.6792 H   0  0  0  0  0  0  0  0  0  0  0  0
  144.9824   72.6250  221.0799 H   0  0  0  0  0  0  0  0  0  0  0  0
  145.6176   72.2546  219.4646 H   0  0  0  0  0  0  0  0  0  0  0  0
  139.0670   69.5414  222.8470 H   0  0  0  0  0  0  0  0  0  0  0  0
  138.8667   68.4946  225.0809 H   0  0  0  0  0  0  0  0  0  0  0  0
  139.3156   68.6041  227.3882 H   0  0  0  0  0  0  0  0  0  0  0  0
  140.3021   69.7845  229.3484 H   0  0  0  0  0  0  0  0  0  0  0  0
  141.4600   71.9780  229.0401 H   0  0  0  0  0  0  0  0  0  0  0  0
  141.6151   72.9606  226.7474 H   0  0  0  0  0  0  0  0  0  0  0  0
  1  2  2  0
  2  3  1  0
  3  4  1  0
  4  5  1  0
  5  6  2  0
  5  7  1  0
  7  8  1  0
  8  9  1  0
  9 10  1  0
  9 11  1  0
 11 12  1  0
 12 13  1  0
 13 14  2  0
 13 15  1  0
 15 16  1  0
 16 17  1  0
 17 18  1  0
 18 19  1  0
  2 20  1  0
 20 21  2  0
 21 22  1  0
 22 23  2  0
 23 24  1  0
 24 25  2  0
 25 26  1  0
 26 27  2  0
 27 28  1  0
 28 29  2  0
 12  7  1  0
 19 15  1  0
 29 20  1  0
 28 23  1  0
  3 30  1  0
  4 31  1  0
  4 32  1  0
  8 33  1  0
  8 34  1  0
  9 35  1  1
 10 36  1  0
 11 37  1  0
 11 38  1  0
 12 39  1  6
 16 40  1  0
 16 41  1  0
 17 42  1  0
 17 43  1  0
 18 44  1  0
 18 45  1  0
 19 46  1  0
 19 47  1  0
 21 48  1  0
 22 49  1  0
 24 50  1  0
 25 51  1  0
 26 52  1  0
 27 53  1  0
M  END
>  <smiles>  (36) 
O=C(NCC(=O)N1C[C@H](O)C[C@H]1C(=O)N1CCCC1)c1ccc2ccccc2n1

>  <score_type>  (36) 
oracle

>  <origin>  (36) 
autodockgpu

>  <m_score__min__energy>  (36) 
-8.4900000000000002

>  <m_primary>  (36) 
energy

>  <rmsd>  (36) 
4.600539221945135

>  <m_score__min__rmsd>  (36) 
4.600539221945135

>  <meeko>  (36) 
{"free_energy": -7.36, "intermolecular_energy": -9.15, "internal_energy": -2.47, "cluster_size": 39, "cluster_id": 1, "rank_in_cluster": 33}

>  <energy>  (36) 
-7.26

>  <cluster_rmsd>  (36) 
1.72

>  <cluster>  (36) 
1

$$$$

     RDKit          3D

 53 56  0  0  0  0  0  0  0  0999 V2000
  141.3100   71.5800  221.5230 O   0  0  0  0  0  0  0  0  0  0  0  0
  140.5360   72.1270  222.3490 C   0  0  0  0  0  0  0  0  0  0  0  0
  139.8880   73.3650  222.1330 N   0  0  0  0  0  0  0  0  0  0  0  0
  140.0840   74.0920  220.9190 C   0  0  0  0  0  0  0  0  0  0  0  0
  140.9860   75.2420  221.1810 C   0  0  0  0  0  0  0  0  0  0  0  0
  140.8940   75.7660  222.3400 O   0  0  0  0  0  0  0  0  0  0  0  0
  141.8980   75.7370  220.2120 N   0  0  0  0  0  0  0  0  0  0  0  0
  142.4560   74.9180  219.1580 C   0  0  0  0  0  0  0  0  0  0  0  0
  142.6810   75.9290  218.0610 C   0  0  2  0  0  0  0  0  0  0  0  0
  143.5990   75.5310  217.1160 O   0  0  0  0  0  0  0  0  0  0  0  0
  143.1650   77.1360  218.8800 C   0  0  0  0  0  0  0  0  0  0  0  0
  142.3800   77.0960  220.1510 C   0  0  1  0  0  0  0  0  0  0  0  0
  141.2910   78.0950  220.1950 C   0  0  0  0  0  0  0  0  0  0  0  0
  140.3790   78.2000  219.3530 O   0  0  0  0  0  0  0  0  0  0  0  0
  141.2890   79.0070  221.2900 N   0  0  0  0  0  0  0  0  0  0  0  0
  142.2320   79.0990  222.4010 C   0  0  0  0  0  0  0  0  0  0  0  0
  141.3850   79.4030  223.5940 C   0  0  0  0  0  0  0  0  0  0  0  0
  140.2990   80.2690  223.0470 C   0  0  0  0  0  0  0  0  0  0  0  0
  140.3230   80.0840  221.5610 C   0  0  0  0  0  0  0  0  0  0  0  0
  140.2900   71.4340  223.6200 C   0  0  0  0  0  0  0  0  0  0  0  0
  139.5640   70.2540  223.6680 C   0  0  0  0  0  0  0  0  0  0  0  0
  139.3100   69.5720  224.8340 C   0  0  0  0  0  0  0  0  0  0  0  0
  139.8230   70.1250  226.0040 C   0  0  0  0  0  0  0  0  0  0  0  0
  139.5810   69.4630  227.1690 C   0  0  0  0  0  0  0  0  0  0  0  0
  140.0820   69.9940  228.3440 C   0  0  0  0  0  0  0  0  0  0  0  0
  140.8160   71.1800  228.3300 C   0  0  0  0  0  0  0  0  0  0  0  0
  141.0350   71.8180  227.1110 C   0  0  0  0  0  0  0  0  0  0  0  0
  140.5350   71.2860  225.9380 C   0  0  0  0  0  0  0  0  0  0  0  0
  140.7540   71.9080  224.7850 N   0  0  0  0  0  0  0  0  0  0  0  0
  139.2580   73.7450  222.8820 H   0  0  0  0  0  0  0  0  0  0  0  0
  140.5375   73.4328  220.1641 H   0  0  0  0  0  0  0  0  0  0  0  0
  139.1160   74.4580  220.5461 H   0  0  0  0  0  0  0  0  0  0  0  0
  143.4016   74.4520  219.4721 H   0  0  0  0  0  0  0  0  0  0  0  0
  141.8115   74.0775  218.8611 H   0  0  0  0  0  0  0  0  0  0  0  0
  141.7881   76.1155  217.4462 H   0  0  0  0  0  0  0  0  0  0  0  0
  144.4960   75.6390  217.4880 H   0  0  0  0  0  0  0  0  0  0  0  0
  144.2414   77.0514  219.0901 H   0  0  0  0  0  0  0  0  0  0  0  0
  143.0177   78.0822  218.3387 H   0  0  0  0  0  0  0  0  0  0  0  0
  142.9920   77.3644  221.0247 H   0  0  0  0  0  0  0  0  0  0  0  0
  142.7655   78.1467  222.5367 H   0  0  0  0  0  0  0  0  0  0  0  0
  143.0017   79.8663  222.2309 H   0  0  0  0  0  0  0  0  0  0  0  0
  140.9705   78.4802  224.0259 H   0  0  0  0  0  0  0  0  0  0  0  0
  141.9491   79.8881  224.4042 H   0  0  0  0  0  0  0  0  0  0  0  0
  139.3246   79.9606  223.4536 H   0  0  0  0  0  0  0  0  0  0  0  0
  140.4515   81.3232  223.3214 H   0  0  0  0  0  0  0  0  0  0  0  0
  139.3246   79.7995  221.1972 H   0  0  0  0  0  0  0  0  0  0  0  0
  140.6099   81.0142  221.0487 H   0  0  0  0  0  0  0  0  0  0  0  0
  139.1717   69.8430  222.7261 H   0  0  0  0  0  0  0  0  0  0  0  0
  138.7308   68.6368  224.8422 H   0  0  0  0  0  0  0  0  0  0  0  0
  139.0010   68.5284  227.1757 H   0  0  0  0  0  0  0  0  0  0  0  0
  139.9000   69.4765  229.2975 H   0  0  0  0  0  0  0  0  0  0  0  0
  141.2144   71.6036  229.2638 H   0  0  0  0  0  0  0  0  0  0  0  0
  141.6116   72.7543  227.0821 H   0  0  0  0  0  0  0  0  0  0  0  0
  1  2  2  0
  2  3  1  0
  3  4  1  0
  4  5  1  0
  5  6  2  0
  5  7  1  0
  7  8  1  0
  8  9  1  0
  9 10  1  0
  9 11  1  0
 11 12  1  0
 12 13  1  0
 13 14  2  0
 13 15  1  0
 15 16  1  0
 16 17  1  0
 17 18  1  0
 18 19  1  0
  2 20  1  0
 20 21  2  0
 21 22  1  0
 22 23  2  0
 23 24  1  0
 24 25  2  0
 25 26  1  0
 26 27  2  0
 27 28  1  0
 28 29  2  0
 12  7  1  0
 19 15  1  0
 29 20  1  0
 28 23  1  0
  3 30  1  0
  4 31  1  0
  4 32  1  0
  8 33  1  0
  8 34  1  0
  9 35  1  6
 10 36  1  0
 11 37  1  0
 11 38  1  0
 12 39  1  1
 16 40  1  0
 16 41  1  0
 17 42  1  0
 17 43  1  0
 18 44  1  0
 18 45  1  0
 19 46  1  0
 19 47  1  0
 21 48  1  0
 22 49  1  0
 24 50  1  0
 25 51  1  0
 26 52  1  0
 27 53  1  0
M  END
>  <smiles>  (37) 
O=C(NCC(=O)N1C[C@H](O)C[C@H]1C(=O)N1CCCC1)c1ccc2ccccc2n1

>  <score_type>  (37) 
oracle

>  <origin>  (37) 
autodockgpu

>  <m_score__min__energy>  (37) 
-8.4900000000000002

>  <m_primary>  (37) 
energy

>  <rmsd>  (37) 
2.1161411448827234

>  <m_score__min__rmsd>  (37) 
2.1161411448827234

>  <meeko>  (37) 
{"free_energy": -8.4, "intermolecular_energy": -10.19, "internal_energy": -1.63, "cluster_size": 39, "cluster_id": 1, "rank_in_cluster": 2}

>  <energy>  (37) 
-7.21

>  <cluster_rmsd>  (37) 
1.72

>  <cluster>  (37) 
1

$$$$

     RDKit          3D

 53 56  0  0  0  0  0  0  0  0999 V2000
  138.1390   71.1920  221.3630 O   0  0  0  0  0  0  0  0  0  0  0  0
  138.7480   71.7620  222.3040 C   0  0  0  0  0  0  0  0  0  0  0  0
  139.0940   73.1330  222.3130 N   0  0  0  0  0  0  0  0  0  0  0  0
  138.7580   73.9790  221.2110 C   0  0  0  0  0  0  0  0  0  0  0  0
  138.8730   75.3980  221.6360 C   0  0  0  0  0  0  0  0  0  0  0  0
  137.9920   75.8020  222.4630 O   0  0  0  0  0  0  0  0  0  0  0  0
  139.8960   76.2590  221.1580 N   0  0  0  0  0  0  0  0  0  0  0  0
  139.9180   77.6820  221.4160 C   0  0  0  0  0  0  0  0  0  0  0  0
  141.3980   77.9780  221.4140 C   0  0  2  0  0  0  0  0  0  0  0  0
  141.7010   79.3020  221.1920 O   0  0  0  0  0  0  0  0  0  0  0  0
  141.8700   77.0670  220.2700 C   0  0  0  0  0  0  0  0  0  0  0  0
  141.0270   75.8370  220.3670 C   0  0  1  0  0  0  0  0  0  0  0  0
  141.7420   74.6840  220.9550 C   0  0  0  0  0  0  0  0  0  0  0  0
  141.3740   74.0500  221.9620 O   0  0  0  0  0  0  0  0  0  0  0  0
  142.9470   74.2700  220.3170 N   0  0  0  0  0  0  0  0  0  0  0  0
  143.5920   74.8360  219.1360 C   0  0  0  0  0  0  0  0  0  0  0  0
  144.0990   73.6530  218.3770 C   0  0  0  0  0  0  0  0  0  0  0  0
  144.4960   72.6880  219.4450 C   0  0  0  0  0  0  0  0  0  0  0  0
  143.8340   73.1620  220.7030 C   0  0  0  0  0  0  0  0  0  0  0  0
  139.1230   70.9500  223.4690 C   0  0  0  0  0  0  0  0  0  0  0  0
  138.8630   69.5890  223.5120 C   0  0  0  0  0  0  0  0  0  0  0  0
  139.1960   68.7910  224.5800 C   0  0  0  0  0  0  0  0  0  0  0  0
  139.8240   69.4170  225.6530 C   0  0  0  0  0  0  0  0  0  0  0  0
  140.1620   68.6430  226.7210 C   0  0  0  0  0  0  0  0  0  0  0  0
  140.7880   69.2430  227.7980 C   0  0  0  0  0  0  0  0  0  0  0  0
  141.0640   70.6100  227.7870 C   0  0  0  0  0  0  0  0  0  0  0  0
  140.6970   71.3580  226.6690 C   0  0  0  0  0  0  0  0  0  0  0  0
  140.0730   70.7570  225.5930 C   0  0  0  0  0  0  0  0  0  0  0  0
  139.7310   71.4850  224.5370 N   0  0  0  0  0  0  0  0  0  0  0  0
  139.6030   73.5220  223.1440 H   0  0  0  0  0  0  0  0  0  0  0  0
  139.4476   73.7874  220.3757 H   0  0  0  0  0  0  0  0  0  0  0  0
  137.7282   73.7717  220.8847 H   0  0  0  0  0  0  0  0  0  0  0  0
  139.3977   78.2400  220.6236 H   0  0  0  0  0  0  0  0  0  0  0  0
  139.4088   77.9721  222.3469 H   0  0  0  0  0  0  0  0  0  0  0  0
  141.8838   77.7925  222.3833 H   0  0  0  0  0  0  0  0  0  0  0  0
  142.6690   79.3870  221.0850 H   0  0  0  0  0  0  0  0  0  0  0  0
  141.7200   77.5605  219.2984 H   0  0  0  0  0  0  0  0  0  0  0  0
  142.9423   76.8347  220.3486 H   0  0  0  0  0  0  0  0  0  0  0  0
  140.7303   75.4597  219.3772 H   0  0  0  0  0  0  0  0  0  0  0  0
  142.8677   75.4027  218.5325 H   0  0  0  0  0  0  0  0  0  0  0  0
  144.3969   75.5386  219.3979 H   0  0  0  0  0  0  0  0  0  0  0  0
  143.3094   73.2288  217.7393 H   0  0  0  0  0  0  0  0  0  0  0  0
  144.9296   73.9052  217.7014 H   0  0  0  0  0  0  0  0  0  0  0  0
  144.1512   71.6748  219.1910 H   0  0  0  0  0  0  0  0  0  0  0  0
  145.5892   72.6436  219.5592 H   0  0  0  0  0  0  0  0  0  0  0  0
  143.2494   72.3471  221.1549 H   0  0  0  0  0  0  0  0  0  0  0  0
  144.5777   73.4882  221.4450 H   0  0  0  0  0  0  0  0  0  0  0  0
  138.3652   69.1246  222.6480 H   0  0  0  0  0  0  0  0  0  0  0  0
  138.9775   67.7129  224.5867 H   0  0  0  0  0  0  0  0  0  0  0  0
  139.9421   67.5652  226.7268 H   0  0  0  0  0  0  0  0  0  0  0  0
  141.0708   68.6368  228.6712 H   0  0  0  0  0  0  0  0  0  0  0  0
  141.5614   71.0887  228.6434 H   0  0  0  0  0  0  0  0  0  0  0  0
  140.9065   72.4376  226.6435 H   0  0  0  0  0  0  0  0  0  0  0  0
  1  2  2  0
  2  3  1  0
  3  4  1  0
  4  5  1  0
  5  6  2  0
  5  7  1  0
  7  8  1  0
  8  9  1  0
  9 10  1  0
  9 11  1  0
 11 12  1  0
 12 13  1  0
 13 14  2  0
 13 15  1  0
 15 16  1  0
 16 17  1  0
 17 18  1  0
 18 19  1  0
  2 20  1  0
 20 21  2  0
 21 22  1  0
 22 23  2  0
 23 24  1  0
 24 25  2  0
 25 26  1  0
 26 27  2  0
 27 28  1  0
 28 29  2  0
 12  7  1  0
 19 15  1  0
 29 20  1  0
 28 23  1  0
  3 30  1  0
  4 31  1  0
  4 32  1  0
  8 33  1  0
  8 34  1  0
  9 35  1  1
 10 36  1  0
 11 37  1  0
 11 38  1  0
 12 39  1  6
 16 40  1  0
 16 41  1  0
 17 42  1  0
 17 43  1  0
 18 44  1  0
 18 45  1  0
 19 46  1  0
 19 47  1  0
 21 48  1  0
 22 49  1  0
 24 50  1  0
 25 51  1  0
 26 52  1  0
 27 53  1  0
M  END
>  <smiles>  (38) 
O=C(NCC(=O)N1C[C@H](O)C[C@H]1C(=O)N1CCCC1)c1ccc2ccccc2n1

>  <score_type>  (38) 
oracle

>  <origin>  (38) 
autodockgpu

>  <m_score__min__energy>  (38) 
-8.4900000000000002

>  <m_primary>  (38) 
energy

>  <rmsd>  (38) 
4.098944778806669

>  <m_score__min__rmsd>  (38) 
4.098944778806669

>  <meeko>  (38) 
{"free_energy": -7.51, "intermolecular_energy": -9.3, "internal_energy": -1.94, "cluster_size": 39, "cluster_id": 1, "rank_in_cluster": 32}

>  <energy>  (38) 
-7.09

>  <cluster_rmsd>  (38) 
1.72

>  <cluster>  (38) 
1

$$$$

     RDKit          3D

 53 56  0  0  0  0  0  0  0  0999 V2000
  140.3200   71.1160  221.2500 O   0  0  0  0  0  0  0  0  0  0  0  0
  140.1040   71.8320  222.2610 C   0  0  0  0  0  0  0  0  0  0  0  0
  139.9410   73.2360  222.2220 N   0  0  0  0  0  0  0  0  0  0  0  0
  140.0150   73.9460  220.9840 C   0  0  0  0  0  0  0  0  0  0  0  0
  140.6410   75.2720  221.2220 C   0  0  0  0  0  0  0  0  0  0  0  0
  140.4570   75.7720  222.3800 O   0  0  0  0  0  0  0  0  0  0  0  0
  141.3990   75.9500  220.2310 N   0  0  0  0  0  0  0  0  0  0  0  0
  141.7800   75.3450  218.9730 C   0  0  0  0  0  0  0  0  0  0  0  0
  141.8450   76.5430  218.0570 C   0  0  2  0  0  0  0  0  0  0  0  0
  142.6020   76.3380  216.9260 O   0  0  0  0  0  0  0  0  0  0  0  0
  142.4630   77.5890  218.9980 C   0  0  0  0  0  0  0  0  0  0  0  0
  141.8810   77.3050  220.3450 C   0  0  1  0  0  0  0  0  0  0  0  0
  140.8230   78.2610  220.7370 C   0  0  0  0  0  0  0  0  0  0  0  0
  139.6560   78.2570  220.3020 O   0  0  0  0  0  0  0  0  0  0  0  0
  141.1710   79.2640  221.6880 N   0  0  0  0  0  0  0  0  0  0  0  0
  142.4550   79.4890  222.3450 C   0  0  0  0  0  0  0  0  0  0  0  0
  142.1020   79.8620  223.7490 C   0  0  0  0  0  0  0  0  0  0  0  0
  140.8320   80.6340  223.6030 C   0  0  0  0  0  0  0  0  0  0  0  0
  140.3070   80.3220  222.2350 C   0  0  0  0  0  0  0  0  0  0  0  0
  140.0170   71.1650  223.5670 C   0  0  0  0  0  0  0  0  0  0  0  0
  139.5060   69.8820  223.6870 C   0  0  0  0  0  0  0  0  0  0  0  0
  139.4050   69.2200  224.8870 C   0  0  0  0  0  0  0  0  0  0  0  0
  139.8480   69.9050  226.0160 C   0  0  0  0  0  0  0  0  0  0  0  0
  139.7560   69.2660  227.2150 C   0  0  0  0  0  0  0  0  0  0  0  0
  140.1900   69.9270  228.3480 C   0  0  0  0  0  0  0  0  0  0  0  0
  140.7090   71.2190  228.2620 C   0  0  0  0  0  0  0  0  0  0  0  0
  140.7810   71.8290  227.0110 C   0  0  0  0  0  0  0  0  0  0  0  0
  140.3480   71.1670  225.8790 C   0  0  0  0  0  0  0  0  0  0  0  0
  140.4240   71.7640  224.6950 N   0  0  0  0  0  0  0  0  0  0  0  0
  139.7640   73.7510  223.1190 H   0  0  0  0  0  0  0  0  0  0  0  0
  140.6232   73.3747  220.2673 H   0  0  0  0  0  0  0  0  0  0  0  0
  139.0037   74.0815  220.5730 H   0  0  0  0  0  0  0  0  0  0  0  0
  142.7575   74.8462  219.0490 H   0  0  0  0  0  0  0  0  0  0  0  0
  141.0889   74.5609  218.6301 H   0  0  0  0  0  0  0  0  0  0  0  0
  140.8705   76.8238  217.6310 H   0  0  0  0  0  0  0  0  0  0  0  0
  142.3680   75.4680  216.5470 H   0  0  0  0  0  0  0  0  0  0  0  0
  143.5578   77.4855  219.0223 H   0  0  0  0  0  0  0  0  0  0  0  0
  142.2462   78.6154  218.6671 H   0  0  0  0  0  0  0  0  0  0  0  0
  142.6229   77.4205  221.1489 H   0  0  0  0  0  0  0  0  0  0  0  0
  143.0650   78.5738  222.3284 H   0  0  0  0  0  0  0  0  0  0  0  0
  143.0484   80.2679  221.8438 H   0  0  0  0  0  0  0  0  0  0  0  0
  141.9465   78.9645  224.3658 H   0  0  0  0  0  0  0  0  0  0  0  0
  142.8950   80.4376  224.2488 H   0  0  0  0  0  0  0  0  0  0  0  0
  140.1068   80.3233  224.3696 H   0  0  0  0  0  0  0  0  0  0  0  0
  141.0026   81.7133  223.7299 H   0  0  0  0  0  0  0  0  0  0  0  0
  139.2672   79.9688  222.2983 H   0  0  0  0  0  0  0  0  0  0  0  0
  140.3152   81.2147  221.5923 H   0  0  0  0  0  0  0  0  0  0  0  0
  139.1643   69.3682  222.7763 H   0  0  0  0  0  0  0  0  0  0  0  0
  138.9953   68.2013  224.9526 H   0  0  0  0  0  0  0  0  0  0  0  0
  139.3458   68.2474  227.2800 H   0  0  0  0  0  0  0  0  0  0  0  0
  140.1257   69.4298  229.3271 H   0  0  0  0  0  0  0  0  0  0  0  0
  141.0546   71.7459  229.1637 H   0  0  0  0  0  0  0  0  0  0  0  0
  141.1867   72.8478  226.9244 H   0  0  0  0  0  0  0  0  0  0  0  0
  1  2  2  0
  2  3  1  0
  3  4  1  0
  4  5  1  0
  5  6  2  0
  5  7  1  0
  7  8  1  0
  8  9  1  0
  9 10  1  0
  9 11  1  0
 11 12  1  0
 12 13  1  0
 13 14  2  0
 13 15  1  0
 15 16  1  0
 16 17  1  0
 17 18  1  0
 18 19  1  0
  2 20  1  0
 20 21  2  0
 21 22  1  0
 22 23  2  0
 23 24  1  0
 24 25  2  0
 25 26  1  0
 26 27  2  0
 27 28  1  0
 28 29  2  0
 12  7  1  0
 19 15  1  0
 29 20  1  0
 28 23  1  0
  3 30  1  0
  4 31  1  0
  4 32  1  0
  8 33  1  0
  8 34  1  0
  9 35  1  6
 10 36  1  0
 11 37  1  0
 11 38  1  0
 12 39  1  1
 16 40  1  0
 16 41  1  0
 17 42  1  0
 17 43  1  0
 18 44  1  0
 18 45  1  0
 19 46  1  0
 19 47  1  0
 21 48  1  0
 22 49  1  0
 24 50  1  0
 25 51  1  0
 26 52  1  0
 27 53  1  0
M  END
>  <smiles>  (39) 
O=C(NCC(=O)N1C[C@H](O)C[C@H]1C(=O)N1CCCC1)c1ccc2ccccc2n1

>  <score_type>  (39) 
oracle

>  <origin>  (39) 
autodockgpu

>  <m_score__min__energy>  (39) 
-8.4900000000000002

>  <m_primary>  (39) 
energy

>  <rmsd>  (39) 
1.9417537682986747

>  <m_score__min__rmsd>  (39) 
1.9417537682986747

>  <meeko>  (39) 
{"free_energy": -7.81, "intermolecular_energy": -9.6, "internal_energy": -2.02, "cluster_size": 39, "cluster_id": 1, "rank_in_cluster": 22}

>  <energy>  (39) 
-7.06

>  <cluster_rmsd>  (39) 
1.89

>  <cluster>  (39) 
1

$$$$

     RDKit          3D

 53 56  0  0  0  0  0  0  0  0999 V2000
  140.6250   71.4250  221.3140 O   0  0  0  0  0  0  0  0  0  0  0  0
  140.2410   72.0750  222.3200 C   0  0  0  0  0  0  0  0  0  0  0  0
  139.8950   73.4450  222.2980 N   0  0  0  0  0  0  0  0  0  0  0  0
  139.9650   74.1980  221.0850 C   0  0  0  0  0  0  0  0  0  0  0  0
  140.5130   75.5460  221.3820 C   0  0  0  0  0  0  0  0  0  0  0  0
  140.3260   75.9720  222.5690 O   0  0  0  0  0  0  0  0  0  0  0  0
  141.2040   76.3210  220.4140 N   0  0  0  0  0  0  0  0  0  0  0  0
  141.4760   75.8550  219.0720 C   0  0  0  0  0  0  0  0  0  0  0  0
  141.4920   77.1450  218.2880 C   0  0  2  0  0  0  0  0  0  0  0  0
  142.1560   77.0590  217.0860 O   0  0  0  0  0  0  0  0  0  0  0  0
  142.1990   78.0760  219.2860 C   0  0  0  0  0  0  0  0  0  0  0  0
  141.7180   77.6520  220.6360 C   0  0  1  0  0  0  0  0  0  0  0  0
  140.7100   78.5680  221.2110 C   0  0  0  0  0  0  0  0  0  0  0  0
  139.4770   78.4520  221.0800 O   0  0  0  0  0  0  0  0  0  0  0  0
  141.1930   79.6710  221.9750 N   0  0  0  0  0  0  0  0  0  0  0  0
  142.5740   80.0330  222.2770 C   0  0  0  0  0  0  0  0  0  0  0  0
  142.5420   80.5040  223.6950 C   0  0  0  0  0  0  0  0  0  0  0  0
  141.2150   81.1780  223.8160 C   0  0  0  0  0  0  0  0  0  0  0  0
  140.4020   80.7150  222.6450 C   0  0  0  0  0  0  0  0  0  0  0  0
  140.1470   71.3620  223.6000 C   0  0  0  0  0  0  0  0  0  0  0  0
  139.5630   70.1070  223.6840 C   0  0  0  0  0  0  0  0  0  0  0  0
  139.4540   69.4040  224.8600 C   0  0  0  0  0  0  0  0  0  0  0  0
  139.9650   70.0150  226.0020 C   0  0  0  0  0  0  0  0  0  0  0  0
  139.8650   69.3330  227.1760 C   0  0  0  0  0  0  0  0  0  0  0  0
  140.3680   69.9210  228.3230 C   0  0  0  0  0  0  0  0  0  0  0  0
  140.9610   71.1820  228.2730 C   0  0  0  0  0  0  0  0  0  0  0  0
  141.0380   71.8370  227.0450 C   0  0  0  0  0  0  0  0  0  0  0  0
  140.5370   71.2490  225.9000 C   0  0  0  0  0  0  0  0  0  0  0  0
  140.6180   71.8880  224.7390 N   0  0  0  0  0  0  0  0  0  0  0  0
  139.5850   73.9040  223.1900 H   0  0  0  0  0  0  0  0  0  0  0  0
  140.6219   73.6827  220.3688 H   0  0  0  0  0  0  0  0  0  0  0  0
  138.9595   74.2940  220.6493 H   0  0  0  0  0  0  0  0  0  0  0  0
  142.4473   75.3417  219.0165 H   0  0  0  0  0  0  0  0  0  0  0  0
  140.7459   75.1203  218.7015 H   0  0  0  0  0  0  0  0  0  0  0  0
  140.4927   77.4788  217.9717 H   0  0  0  0  0  0  0  0  0  0  0  0
  142.7210   77.8500  216.9850 H   0  0  0  0  0  0  0  0  0  0  0  0
  143.2905   77.9605  219.2129 H   0  0  0  0  0  0  0  0  0  0  0  0
  141.9750   79.1343  219.0864 H   0  0  0  0  0  0  0  0  0  0  0  0
  142.5221   77.6728  221.3864 H   0  0  0  0  0  0  0  0  0  0  0  0
  143.2353   79.1601  222.1731 H   0  0  0  0  0  0  0  0  0  0  0  0
  142.9618   80.8015  221.5921 H   0  0  0  0  0  0  0  0  0  0  0  0
  142.6158   79.6558  224.3915 H   0  0  0  0  0  0  0  0  0  0  0  0
  143.3819   81.1704  223.9412 H   0  0  0  0  0  0  0  0  0  0  0  0
  140.7254   80.8897  224.7579 H   0  0  0  0  0  0  0  0  0  0  0  0
  141.3208   82.2729  223.8224 H   0  0  0  0  0  0  0  0  0  0  0  0
  139.4416   80.3028  222.9882 H   0  0  0  0  0  0  0  0  0  0  0  0
  140.1799   81.5470  221.9606 H   0  0  0  0  0  0  0  0  0  0  0  0
  139.1675   69.6517  222.7641 H   0  0  0  0  0  0  0  0  0  0  0  0
  138.9866   68.4089  224.8971 H   0  0  0  0  0  0  0  0  0  0  0  0
  139.3958   68.3387  227.2118 H   0  0  0  0  0  0  0  0  0  0  0  0
  140.2994   69.3888  229.2832 H   0  0  0  0  0  0  0  0  0  0  0  0
  141.3602   71.6506  229.1846 H   0  0  0  0  0  0  0  0  0  0  0  0
  141.5025   72.8324  226.9872 H   0  0  0  0  0  0  0  0  0  0  0  0
  1  2  2  0
  2  3  1  0
  3  4  1  0
  4  5  1  0
  5  6  2  0
  5  7  1  0
  7  8  1  0
  8  9  1  0
  9 10  1  0
  9 11  1  0
 11 12  1  0
 12 13  1  0
 13 14  2  0
 13 15  1  0
 15 16  1  0
 16 17  1  0
 17 18  1  0
 18 19  1  0
  2 20  1  0
 20 21  2  0
 21 22  1  0
 22 23  2  0
 23 24  1  0
 24 25  2  0
 25 26  1  0
 26 27  2  0
 27 28  1  0
 28 29  2  0
 12  7  1  0
 19 15  1  0
 29 20  1  0
 28 23  1  0
  3 30  1  0
  4 31  1  0
  4 32  1  0
  8 33  1  0
  8 34  1  0
  9 35  1  6
 10 36  1  0
 11 37  1  0
 11 38  1  0
 12 39  1  1
 16 40  1  0
 16 41  1  0
 17 42  1  0
 17 43  1  0
 18 44  1  0
 18 45  1  0
 19 46  1  0
 19 47  1  0
 21 48  1  0
 22 49  1  0
 24 50  1  0
 25 51  1  0
 26 52  1  0
 27 53  1  0
M  END
>  <smiles>  (40) 
O=C(NCC(=O)N1C[C@H](O)C[C@H]1C(=O)N1CCCC1)c1ccc2ccccc2n1

>  <score_type>  (40) 
oracle

>  <origin>  (40) 
autodockgpu

>  <m_score__min__energy>  (40) 
-8.4900000000000002

>  <m_primary>  (40) 
energy

>  <rmsd>  (40) 
2.034486692488656

>  <m_score__min__rmsd>  (40) 
2.034486692488656

>  <meeko>  (40) 
{"free_energy": -8.13, "intermolecular_energy": -9.92, "internal_energy": -1.86, "cluster_size": 39, "cluster_id": 1, "rank_in_cluster": 9}

>  <energy>  (40) 
-7.57

>  <cluster_rmsd>  (40) 
0.0

>  <cluster>  (40) 
2

$$$$

     RDKit          3D

 53 56  0  0  0  0  0  0  0  0999 V2000
  140.2350   71.1920  221.2600 O   0  0  0  0  0  0  0  0  0  0  0  0
  140.0420   71.8940  222.2860 C   0  0  0  0  0  0  0  0  0  0  0  0
  139.8630   73.2960  222.2680 N   0  0  0  0  0  0  0  0  0  0  0  0
  139.8920   74.0220  221.0380 C   0  0  0  0  0  0  0  0  0  0  0  0
  140.5940   75.3130  221.2530 C   0  0  0  0  0  0  0  0  0  0  0  0
  140.4130   75.8610  222.3890 O   0  0  0  0  0  0  0  0  0  0  0  0
  141.4180   75.9100  220.2620 N   0  0  0  0  0  0  0  0  0  0  0  0
  141.8530   75.2160  219.0700 C   0  0  0  0  0  0  0  0  0  0  0  0
  141.9940   76.3490  218.0820 C   0  0  2  0  0  0  0  0  0  0  0  0
  142.8060   76.0560  217.0100 O   0  0  0  0  0  0  0  0  0  0  0  0
  142.5820   77.4440  218.9850 C   0  0  0  0  0  0  0  0  0  0  0  0
  141.9230   77.2610  220.3140 C   0  0  1  0  0  0  0  0  0  0  0  0
  140.8660   78.2590  220.5830 C   0  0  0  0  0  0  0  0  0  0  0  0
  139.7720   78.3220  219.9920 O   0  0  0  0  0  0  0  0  0  0  0  0
  141.1250   79.2230  221.6010 N   0  0  0  0  0  0  0  0  0  0  0  0
  142.3150   79.3700  222.4340 C   0  0  0  0  0  0  0  0  0  0  0  0
  141.7890   79.7300  223.7860 C   0  0  0  0  0  0  0  0  0  0  0  0
  140.5880   80.5670  223.4890 C   0  0  0  0  0  0  0  0  0  0  0  0
  140.2430   80.3110  222.0540 C   0  0  0  0  0  0  0  0  0  0  0  0
  140.0020   71.2110  223.5850 C   0  0  0  0  0  0  0  0  0  0  0  0
  139.5400   69.9090  223.7000 C   0  0  0  0  0  0  0  0  0  0  0  0
  139.4840   69.2310  224.8940 C   0  0  0  0  0  0  0  0  0  0  0  0
  139.9210   69.9200  226.0220 C   0  0  0  0  0  0  0  0  0  0  0  0
  139.8730   69.2650  227.2150 C   0  0  0  0  0  0  0  0  0  0  0  0
  140.3020   69.9290  228.3490 C   0  0  0  0  0  0  0  0  0  0  0  0
  140.7730   71.2400  228.2680 C   0  0  0  0  0  0  0  0  0  0  0  0
  140.8010   71.8650  227.0230 C   0  0  0  0  0  0  0  0  0  0  0  0
  140.3720   71.2000  225.8910 C   0  0  0  0  0  0  0  0  0  0  0  0
  140.4070   71.8110  224.7130 N   0  0  0  0  0  0  0  0  0  0  0  0
  139.7080   73.7990  223.1770 H   0  0  0  0  0  0  0  0  0  0  0  0
  140.4256   73.4349  220.2760 H   0  0  0  0  0  0  0  0  0  0  0  0
  138.8642   74.2113  220.6947 H   0  0  0  0  0  0  0  0  0  0  0  0
  142.8137   74.7055  219.2327 H   0  0  0  0  0  0  0  0  0  0  0  0
  141.1643   74.4237  218.7414 H   0  0  0  0  0  0  0  0  0  0  0  0
  141.0503   76.6178  217.5848 H   0  0  0  0  0  0  0  0  0  0  0  0
  142.5300   75.1960  216.6360 H   0  0  0  0  0  0  0  0  0  0  0  0
  143.6716   77.3233  219.0761 H   0  0  0  0  0  0  0  0  0  0  0  0
  142.4044   78.4496  218.5761 H   0  0  0  0  0  0  0  0  0  0  0  0
  142.6232   77.4165  221.1480 H   0  0  0  0  0  0  0  0  0  0  0  0
  142.8785   78.4262  222.4756 H   0  0  0  0  0  0  0  0  0  0  0  0
  143.0073   80.1291  222.0409 H   0  0  0  0  0  0  0  0  0  0  0  0
  141.5086   78.8284  224.3504 H   0  0  0  0  0  0  0  0  0  0  0  0
  142.5310   80.2549  224.4055 H   0  0  0  0  0  0  0  0  0  0  0  0
  139.7504   80.2762  224.1400 H   0  0  0  0  0  0  0  0  0  0  0  0
  140.7891   81.6335  223.6682 H   0  0  0  0  0  0  0  0  0  0  0  0
  139.1892   80.0085  221.9644 H   0  0  0  0  0  0  0  0  0  0  0  0
  140.3809   81.2157  221.4437 H   0  0  0  0  0  0  0  0  0  0  0  0
  139.2012   69.3926  222.7897 H   0  0  0  0  0  0  0  0  0  0  0  0
  139.1130   68.1973  224.9553 H   0  0  0  0  0  0  0  0  0  0  0  0
  139.5014   68.2314  227.2749 H   0  0  0  0  0  0  0  0  0  0  0  0
  140.2718   69.4196  229.3235 H   0  0  0  0  0  0  0  0  0  0  0  0
  141.1154   71.7696  229.1693 H   0  0  0  0  0  0  0  0  0  0  0  0
  141.1685   72.8985  226.9408 H   0  0  0  0  0  0  0  0  0  0  0  0
  1  2  2  0
  2  3  1  0
  3  4  1  0
  4  5  1  0
  5  6  2  0
  5  7  1  0
  7  8  1  0
  8  9  1  0
  9 10  1  0
  9 11  1  0
 11 12  1  0
 12 13  1  0
 13 14  2  0
 13 15  1  0
 15 16  1  0
 16 17  1  0
 17 18  1  0
 18 19  1  0
  2 20  1  0
 20 21  2  0
 21 22  1  0
 22 23  2  0
 23 24  1  0
 24 25  2  0
 25 26  1  0
 26 27  2  0
 27 28  1  0
 28 29  2  0
 12  7  1  0
 19 15  1  0
 29 20  1  0
 28 23  1  0
  3 30  1  0
  4 31  1  0
  4 32  1  0
  8 33  1  0
  8 34  1  0
  9 35  1  6
 10 36  1  0
 11 37  1  0
 11 38  1  0
 12 39  1  1
 16 40  1  0
 16 41  1  0
 17 42  1  0
 17 43  1  0
 18 44  1  0
 18 45  1  0
 19 46  1  0
 19 47  1  0
 21 48  1  0
 22 49  1  0
 24 50  1  0
 25 51  1  0
 26 52  1  0
 27 53  1  0
M  END
>  <smiles>  (41) 
O=C(NCC(=O)N1C[C@H](O)C[C@H]1C(=O)N1CCCC1)c1ccc2ccccc2n1

>  <score_type>  (41) 
oracle

>  <origin>  (41) 
autodockgpu

>  <m_score__min__energy>  (41) 
-8.4900000000000002

>  <m_primary>  (41) 
energy

>  <rmsd>  (41) 
1.9201618512177112

>  <m_score__min__rmsd>  (41) 
1.9201618512177112

>  <meeko>  (41) 
{"free_energy": -7.83, "intermolecular_energy": -9.62, "internal_energy": -1.99, "cluster_size": 39, "cluster_id": 1, "rank_in_cluster": 21}

>  <energy>  (41) 
-7.25

>  <cluster_rmsd>  (41) 
0.0

>  <cluster>  (41) 
3

$$$$

     RDKit          3D

 53 56  0  0  0  0  0  0  0  0999 V2000
  139.7010   70.7420  221.3130 O   0  0  0  0  0  0  0  0  0  0  0  0
  139.7170   71.4740  222.3350 C   0  0  0  0  0  0  0  0  0  0  0  0
  139.6430   72.8850  222.3040 N   0  0  0  0  0  0  0  0  0  0  0  0
  139.5410   73.5860  221.0620 C   0  0  0  0  0  0  0  0  0  0  0  0
  140.3280   74.8430  221.1480 C   0  0  0  0  0  0  0  0  0  0  0  0
  140.3930   75.3790  222.3030 O   0  0  0  0  0  0  0  0  0  0  0  0
  140.9720   75.4210  220.0220 N   0  0  0  0  0  0  0  0  0  0  0  0
  141.4700   76.7790  220.0050 C   0  0  0  0  0  0  0  0  0  0  0  0
  142.6280   76.6760  219.0420 C   0  0  2  0  0  0  0  0  0  0  0  0
  143.0070   77.8800  218.4960 O   0  0  0  0  0  0  0  0  0  0  0  0
  142.0440   75.7120  217.9970 C   0  0  0  0  0  0  0  0  0  0  0  0
  141.2090   74.7440  218.7700 C   0  0  1  0  0  0  0  0  0  0  0  0
  141.8530   73.4250  218.9430 C   0  0  0  0  0  0  0  0  0  0  0  0
  141.4910   72.3710  218.3860 O   0  0  0  0  0  0  0  0  0  0  0  0
  142.9770   73.3580  219.8170 N   0  0  0  0  0  0  0  0  0  0  0  0
  143.5970   74.4330  220.5850 C   0  0  0  0  0  0  0  0  0  0  0  0
  145.0650   74.1680  220.4920 C   0  0  0  0  0  0  0  0  0  0  0  0
  145.1570   72.6780  220.4830 C   0  0  0  0  0  0  0  0  0  0  0  0
  143.7840   72.1750  220.1540 C   0  0  0  0  0  0  0  0  0  0  0  0
  139.8200   70.8190  223.6450 C   0  0  0  0  0  0  0  0  0  0  0  0
  139.4040   69.5100  223.8300 C   0  0  0  0  0  0  0  0  0  0  0  0
  139.4810   68.8570  225.0370 C   0  0  0  0  0  0  0  0  0  0  0  0
  140.0100   69.5800  226.1030 C   0  0  0  0  0  0  0  0  0  0  0  0
  140.0950   68.9500  227.3080 C   0  0  0  0  0  0  0  0  0  0  0  0
  140.6180   69.6490  228.3800 C   0  0  0  0  0  0  0  0  0  0  0  0
  141.0460   70.9670  228.2270 C   0  0  0  0  0  0  0  0  0  0  0  0
  140.9380   71.5660  226.9740 C   0  0  0  0  0  0  0  0  0  0  0  0
  140.4160   70.8660  225.9030 C   0  0  0  0  0  0  0  0  0  0  0  0
  140.3200   71.4530  224.7150 N   0  0  0  0  0  0  0  0  0  0  0  0
  139.6640   73.4150  223.2100 H   0  0  0  0  0  0  0  0  0  0  0  0
  139.9375   72.9578  220.2507 H   0  0  0  0  0  0  0  0  0  0  0  0
  138.4868   73.8219  220.8548 H   0  0  0  0  0  0  0  0  0  0  0  0
  140.7061   77.4804  219.6381 H   0  0  0  0  0  0  0  0  0  0  0  0
  141.7509   77.1611  220.9975 H   0  0  0  0  0  0  0  0  0  0  0  0
  143.5625   76.3366  219.5128 H   0  0  0  0  0  0  0  0  0  0  0  0
  143.7190   78.2620  219.0460 H   0  0  0  0  0  0  0  0  0  0  0  0
  141.4249   76.2603  217.2717 H   0  0  0  0  0  0  0  0  0  0  0  0
  142.8337   75.2035  217.4243 H   0  0  0  0  0  0  0  0  0  0  0  0
  140.2760   74.4915  218.2450 H   0  0  0  0  0  0  0  0  0  0  0  0
  143.3513   75.4126  220.1492 H   0  0  0  0  0  0  0  0  0  0  0  0
  143.2437   74.4577  221.6264 H   0  0  0  0  0  0  0  0  0  0  0  0
  145.4821   74.5921  219.5667 H   0  0  0  0  0  0  0  0  0  0  0  0
  145.6332   74.6247  221.3158 H   0  0  0  0  0  0  0  0  0  0  0  0
  145.8774   72.3453  219.7213 H   0  0  0  0  0  0  0  0  0  0  0  0
  145.5027   72.2924  221.4535 H   0  0  0  0  0  0  0  0  0  0  0  0
  143.8264   71.4868  219.2969 H   0  0  0  0  0  0  0  0  0  0  0  0
  143.3484   71.6234  221.0002 H   0  0  0  0  0  0  0  0  0  0  0  0
  138.9914   68.9662  222.9674 H   0  0  0  0  0  0  0  0  0  0  0  0
  139.1423   67.8171  225.1548 H   0  0  0  0  0  0  0  0  0  0  0  0
  139.7557   67.9102  227.4251 H   0  0  0  0  0  0  0  0  0  0  0  0
  140.6971   69.1608  229.3626 H   0  0  0  0  0  0  0  0  0  0  0  0
  141.4613   71.5236  229.0800 H   0  0  0  0  0  0  0  0  0  0  0  0
  141.2711   72.6052  226.8359 H   0  0  0  0  0  0  0  0  0  0  0  0
  1  2  2  0
  2  3  1  0
  3  4  1  0
  4  5  1  0
  5  6  2  0
  5  7  1  0
  7  8  1  0
  8  9  1  0
  9 10  1  0
  9 11  1  0
 11 12  1  0
 12 13  1  0
 13 14  2  0
 13 15  1  0
 15 16  1  0
 16 17  1  0
 17 18  1  0
 18 19  1  0
  2 20  1  0
 20 21  2  0
 21 22  1  0
 22 23  2  0
 23 24  1  0
 24 25  2  0
 25 26  1  0
 26 27  2  0
 27 28  1  0
 28 29  2  0
 12  7  1  0
 19 15  1  0
 29 20  1  0
 28 23  1  0
  3 30  1  0
  4 31  1  0
  4 32  1  0
  8 33  1  0
  8 34  1  0
  9 35  1  1
 10 36  1  0
 11 37  1  0
 11 38  1  0
 12 39  1  6
 16 40  1  0
 16 41  1  0
 17 42  1  0
 17 43  1  0
 18 44  1  0
 18 45  1  0
 19 46  1  0
 19 47  1  0
 21 48  1  0
 22 49  1  0
 24 50  1  0
 25 51  1  0
 26 52  1  0
 27 53  1  0
M  END
>  <smiles>  (42) 
O=C(NCC(=O)N1C[C@H](O)C[C@H]1C(=O)N1CCCC1)c1ccc2ccccc2n1

>  <score_type>  (42) 
oracle

>  <origin>  (42) 
autodockgpu

>  <m_score__min__energy>  (42) 
-8.4900000000000002

>  <m_primary>  (42) 
energy

>  <rmsd>  (42) 
4.179016584592769

>  <m_score__min__rmsd>  (42) 
4.179016584592769

>  <meeko>  (42) 
{"free_energy": -7.76, "intermolecular_energy": -9.55, "internal_energy": -2.07, "cluster_size": 39, "cluster_id": 1, "rank_in_cluster": 24}

>  <energy>  (42) 
-7.21

>  <cluster_rmsd>  (42) 
0.24

>  <cluster>  (42) 
3

$$$$

     RDKit          3D

 53 56  0  0  0  0  0  0  0  0999 V2000
  140.5450   71.2290  221.2790 O   0  0  0  0  0  0  0  0  0  0  0  0
  140.2430   71.9400  222.2710 C   0  0  0  0  0  0  0  0  0  0  0  0
  139.9880   73.3280  222.2080 N   0  0  0  0  0  0  0  0  0  0  0  0
  140.0640   74.0300  220.9650 C   0  0  0  0  0  0  0  0  0  0  0  0
  140.6490   75.3750  221.2020 C   0  0  0  0  0  0  0  0  0  0  0  0
  140.3980   75.8970  222.3370 O   0  0  0  0  0  0  0  0  0  0  0  0
  141.4400   76.0470  220.2330 N   0  0  0  0  0  0  0  0  0  0  0  0
  141.8340   75.4470  218.9770 C   0  0  0  0  0  0  0  0  0  0  0  0
  141.9410   76.6520  218.0740 C   0  0  2  0  0  0  0  0  0  0  0  0
  142.7170   76.4430  216.9560 O   0  0  0  0  0  0  0  0  0  0  0  0
  142.5600   77.6760  219.0380 C   0  0  0  0  0  0  0  0  0  0  0  0
  141.9470   77.3910  220.3700 C   0  0  1  0  0  0  0  0  0  0  0  0
  140.9000   78.3640  220.7510 C   0  0  0  0  0  0  0  0  0  0  0  0
  139.7320   78.3660  220.3180 O   0  0  0  0  0  0  0  0  0  0  0  0
  141.2610   79.3770  221.6850 N   0  0  0  0  0  0  0  0  0  0  0  0
  142.5490   79.5980  222.3360 C   0  0  0  0  0  0  0  0  0  0  0  0
  142.2040   79.9950  223.7350 C   0  0  0  0  0  0  0  0  0  0  0  0
  140.9420   80.7780  223.5810 C   0  0  0  0  0  0  0  0  0  0  0  0
  140.4100   80.4520  222.2190 C   0  0  0  0  0  0  0  0  0  0  0  0
  140.1470   71.2810  223.5810 C   0  0  0  0  0  0  0  0  0  0  0  0
  139.5580   70.0340  223.7190 C   0  0  0  0  0  0  0  0  0  0  0  0
  139.4470   69.3820  224.9240 C   0  0  0  0  0  0  0  0  0  0  0  0
  139.9640   70.0380  226.0370 C   0  0  0  0  0  0  0  0  0  0  0  0
  139.8630   69.4080  227.2400 C   0  0  0  0  0  0  0  0  0  0  0  0
  140.3700   70.0410  228.3600 C   0  0  0  0  0  0  0  0  0  0  0  0
  140.9690   71.2960  228.2550 C   0  0  0  0  0  0  0  0  0  0  0  0
  141.0470   71.8980  227.0010 C   0  0  0  0  0  0  0  0  0  0  0  0
  140.5410   71.2640  225.8830 C   0  0  0  0  0  0  0  0  0  0  0  0
  140.6230   71.8530  224.6960 N   0  0  0  0  0  0  0  0  0  0  0  0
  139.7420   73.8400  223.0910 H   0  0  0  0  0  0  0  0  0  0  0  0
  140.7001   73.4699  220.2638 H   0  0  0  0  0  0  0  0  0  0  0  0
  139.0566   74.1341  220.5357 H   0  0  0  0  0  0  0  0  0  0  0  0
  142.7997   74.9282  219.0674 H   0  0  0  0  0  0  0  0  0  0  0  0
  141.1344   74.6803  218.6127 H   0  0  0  0  0  0  0  0  0  0  0  0
  140.9812   76.9559  217.6308 H   0  0  0  0  0  0  0  0  0  0  0  0
  143.0870   77.3010  216.6700 H   0  0  0  0  0  0  0  0  0  0  0  0
  143.6519   77.5509  219.0826 H   0  0  0  0  0  0  0  0  0  0  0  0
  142.3690   78.7095  218.7135 H   0  0  0  0  0  0  0  0  0  0  0  0
  142.6756   77.4840  221.1888 H   0  0  0  0  0  0  0  0  0  0  0  0
  143.1493   78.6762  222.3312 H   0  0  0  0  0  0  0  0  0  0  0  0
  143.1490   80.3635  221.8222 H   0  0  0  0  0  0  0  0  0  0  0  0
  142.0408   79.1083  224.3652 H   0  0  0  0  0  0  0  0  0  0  0  0
  143.0044   80.5694  224.2243 H   0  0  0  0  0  0  0  0  0  0  0  0
  140.2157   80.4861  224.3538 H   0  0  0  0  0  0  0  0  0  0  0  0
  141.1243   81.8571  223.6918 H   0  0  0  0  0  0  0  0  0  0  0  0
  139.3666   80.1110  222.2901 H   0  0  0  0  0  0  0  0  0  0  0  0
  140.4262   81.3352  221.5635 H   0  0  0  0  0  0  0  0  0  0  0  0
  139.1596   69.5417  222.8196 H   0  0  0  0  0  0  0  0  0  0  0  0
  138.9737   68.3923  225.0044 H   0  0  0  0  0  0  0  0  0  0  0  0
  139.3891   68.4185  227.3190 H   0  0  0  0  0  0  0  0  0  0  0  0
  140.3002   69.5505  229.3421 H   0  0  0  0  0  0  0  0  0  0  0  0
  141.3722   71.8009  229.1452 H   0  0  0  0  0  0  0  0  0  0  0  0
  141.5161   72.8878  226.9003 H   0  0  0  0  0  0  0  0  0  0  0  0
  1  2  2  0
  2  3  1  0
  3  4  1  0
  4  5  1  0
  5  6  2  0
  5  7  1  0
  7  8  1  0
  8  9  1  0
  9 10  1  0
  9 11  1  0
 11 12  1  0
 12 13  1  0
 13 14  2  0
 13 15  1  0
 15 16  1  0
 16 17  1  0
 17 18  1  0
 18 19  1  0
  2 20  1  0
 20 21  2  0
 21 22  1  0
 22 23  2  0
 23 24  1  0
 24 25  2  0
 25 26  1  0
 26 27  2  0
 27 28  1  0
 28 29  2  0
 12  7  1  0
 19 15  1  0
 29 20  1  0
 28 23  1  0
  3 30  1  0
  4 31  1  0
  4 32  1  0
  8 33  1  0
  8 34  1  0
  9 35  1  6
 10 36  1  0
 11 37  1  0
 11 38  1  0
 12 39  1  1
 16 40  1  0
 16 41  1  0
 17 42  1  0
 17 43  1  0
 18 44  1  0
 18 45  1  0
 19 46  1  0
 19 47  1  0
 21 48  1  0
 22 49  1  0
 24 50  1  0
 25 51  1  0
 26 52  1  0
 27 53  1  0
M  END
>  <smiles>  (43) 
O=C(NCC(=O)N1C[C@H](O)C[C@H]1C(=O)N1CCCC1)c1ccc2ccccc2n1

>  <score_type>  (43) 
oracle

>  <origin>  (43) 
autodockgpu

>  <m_score__min__energy>  (43) 
-8.4900000000000002

>  <m_primary>  (43) 
energy

>  <rmsd>  (43) 
1.9965088739156354

>  <m_score__min__rmsd>  (43) 
1.9965088739156354

>  <meeko>  (43) 
{"free_energy": -8.06, "intermolecular_energy": -9.85, "internal_energy": -1.92, "cluster_size": 39, "cluster_id": 1, "rank_in_cluster": 13}

>  <energy>  (43) 
-7.19

>  <cluster_rmsd>  (43) 
1.19

>  <cluster>  (43) 
3

$$$$

     RDKit          3D

 53 56  0  0  0  0  0  0  0  0999 V2000
  140.5590   71.2700  221.2780 O   0  0  0  0  0  0  0  0  0  0  0  0
  140.2180   71.9640  222.2700 C   0  0  0  0  0  0  0  0  0  0  0  0
  139.9190   73.3440  222.2100 N   0  0  0  0  0  0  0  0  0  0  0  0
  139.9910   74.0560  220.9730 C   0  0  0  0  0  0  0  0  0  0  0  0
  140.6640   75.3600  221.2020 C   0  0  0  0  0  0  0  0  0  0  0  0
  140.4910   75.8790  222.3530 O   0  0  0  0  0  0  0  0  0  0  0  0
  141.4530   75.9980  220.2080 N   0  0  0  0  0  0  0  0  0  0  0  0
  141.8390   75.3580  218.9700 C   0  0  0  0  0  0  0  0  0  0  0  0
  141.9470   76.5340  218.0300 C   0  0  2  0  0  0  0  0  0  0  0  0
  142.7160   76.2880  216.9160 O   0  0  0  0  0  0  0  0  0  0  0  0
  142.5740   77.5850  218.9590 C   0  0  0  0  0  0  0  0  0  0  0  0
  141.9650   77.3440  220.3020 C   0  0  1  0  0  0  0  0  0  0  0  0
  140.9240   78.3330  220.6560 C   0  0  0  0  0  0  0  0  0  0  0  0
  139.7760   78.3670  220.1770 O   0  0  0  0  0  0  0  0  0  0  0  0
  141.2670   79.3210  221.6230 N   0  0  0  0  0  0  0  0  0  0  0  0
  142.5320   79.5030  222.3310 C   0  0  0  0  0  0  0  0  0  0  0  0
  142.1370   79.8840  223.7210 C   0  0  0  0  0  0  0  0  0  0  0  0
  140.9000   80.6970  223.5300 C   0  0  0  0  0  0  0  0  0  0  0  0
  140.4180   80.4050  222.1410 C   0  0  0  0  0  0  0  0  0  0  0  0
  140.1240   71.2950  223.5740 C   0  0  0  0  0  0  0  0  0  0  0  0
  139.5350   70.0470  223.7020 C   0  0  0  0  0  0  0  0  0  0  0  0
  139.4260   69.3840  224.9010 C   0  0  0  0  0  0  0  0  0  0  0  0
  139.9430   70.0310  226.0200 C   0  0  0  0  0  0  0  0  0  0  0  0
  139.8440   69.3900  227.2170 C   0  0  0  0  0  0  0  0  0  0  0  0
  140.3520   70.0140  228.3420 C   0  0  0  0  0  0  0  0  0  0  0  0
  140.9510   71.2700  228.2470 C   0  0  0  0  0  0  0  0  0  0  0  0
  141.0270   71.8830  226.9980 C   0  0  0  0  0  0  0  0  0  0  0  0
  140.5200   71.2580  225.8750 C   0  0  0  0  0  0  0  0  0  0  0  0
  140.6010   71.8580  224.6930 N   0  0  0  0  0  0  0  0  0  0  0  0
  139.6420   73.8420  223.0920 H   0  0  0  0  0  0  0  0  0  0  0  0
  140.5658   73.4680  220.2423 H   0  0  0  0  0  0  0  0  0  0  0  0
  138.9765   74.2257  220.5832 H   0  0  0  0  0  0  0  0  0  0  0  0
  142.8030   74.8381  219.0723 H   0  0  0  0  0  0  0  0  0  0  0  0
  141.1348   74.5833  218.6325 H   0  0  0  0  0  0  0  0  0  0  0  0
  140.9864   76.8278  217.5819 H   0  0  0  0  0  0  0  0  0  0  0  0
  143.3730   77.0060  216.8260 H   0  0  0  0  0  0  0  0  0  0  0  0
  143.6656   77.4569  219.0032 H   0  0  0  0  0  0  0  0  0  0  0  0
  142.3859   78.6087  218.6031 H   0  0  0  0  0  0  0  0  0  0  0  0
  142.6962   77.4593  221.1157 H   0  0  0  0  0  0  0  0  0  0  0  0
  143.1123   78.5685  222.3349 H   0  0  0  0  0  0  0  0  0  0  0  0
  143.1692   80.2635  221.8560 H   0  0  0  0  0  0  0  0  0  0  0  0
  141.9288   78.9905  224.3279 H   0  0  0  0  0  0  0  0  0  0  0  0
  142.9284   80.4326  224.2526 H   0  0  0  0  0  0  0  0  0  0  0  0
  140.1363   80.4083  224.2672 H   0  0  0  0  0  0  0  0  0  0  0  0
  141.1002   81.7698  223.6676 H   0  0  0  0  0  0  0  0  0  0  0  0
  139.3656   80.0857  222.1633 H   0  0  0  0  0  0  0  0  0  0  0  0
  140.4803   81.2985  221.5025 H   0  0  0  0  0  0  0  0  0  0  0  0
  139.1348   69.5629  222.7989 H   0  0  0  0  0  0  0  0  0  0  0  0
  138.9544   68.3928  224.9728 H   0  0  0  0  0  0  0  0  0  0  0  0
  139.3712   68.3993  227.2878 H   0  0  0  0  0  0  0  0  0  0  0  0
  140.2830   69.5154  229.3201 H   0  0  0  0  0  0  0  0  0  0  0  0
  141.3557   71.7671  229.1409 H   0  0  0  0  0  0  0  0  0  0  0  0
  141.4951   72.8741  226.9052 H   0  0  0  0  0  0  0  0  0  0  0  0
  1  2  2  0
  2  3  1  0
  3  4  1  0
  4  5  1  0
  5  6  2  0
  5  7  1  0
  7  8  1  0
  8  9  1  0
  9 10  1  0
  9 11  1  0
 11 12  1  0
 12 13  1  0
 13 14  2  0
 13 15  1  0
 15 16  1  0
 16 17  1  0
 17 18  1  0
 18 19  1  0
  2 20  1  0
 20 21  2  0
 21 22  1  0
 22 23  2  0
 23 24  1  0
 24 25  2  0
 25 26  1  0
 26 27  2  0
 27 28  1  0
 28 29  2  0
 12  7  1  0
 19 15  1  0
 29 20  1  0
 28 23  1  0
  3 30  1  0
  4 31  1  0
  4 32  1  0
  8 33  1  0
  8 34  1  0
  9 35  1  6
 10 36  1  0
 11 37  1  0
 11 38  1  0
 12 39  1  1
 16 40  1  0
 16 41  1  0
 17 42  1  0
 17 43  1  0
 18 44  1  0
 18 45  1  0
 19 46  1  0
 19 47  1  0
 21 48  1  0
 22 49  1  0
 24 50  1  0
 25 51  1  0
 26 52  1  0
 27 53  1  0
M  END
>  <smiles>  (44) 
O=C(NCC(=O)N1C[C@H](O)C[C@H]1C(=O)N1CCCC1)c1ccc2ccccc2n1

>  <score_type>  (44) 
oracle

>  <origin>  (44) 
autodockgpu

>  <m_score__min__energy>  (44) 
-8.4900000000000002

>  <m_primary>  (44) 
energy

>  <rmsd>  (44) 
1.9679825852410657

>  <m_score__min__rmsd>  (44) 
1.9679825852410657

>  <meeko>  (44) 
{"free_energy": -8.08, "intermolecular_energy": -9.87, "internal_energy": -1.89, "cluster_size": 39, "cluster_id": 1, "rank_in_cluster": 12}

>  <energy>  (44) 
-6.98

>  <cluster_rmsd>  (44) 
1.15

>  <cluster>  (44) 
3

$$$$

     RDKit          3D

 53 56  0  0  0  0  0  0  0  0999 V2000
  139.0690   74.9550  221.9910 O   0  0  0  0  0  0  0  0  0  0  0  0
  140.1970   75.5100  221.9780 C   0  0  0  0  0  0  0  0  0  0  0  0
  141.3950   74.8690  221.5870 N   0  0  0  0  0  0  0  0  0  0  0  0
  141.3910   73.5030  221.1690 C   0  0  0  0  0  0  0  0  0  0  0  0
  141.0980   73.4410  219.7150 C   0  0  0  0  0  0  0  0  0  0  0  0
  140.7900   72.2910  219.2590 O   0  0  0  0  0  0  0  0  0  0  0  0
  141.1520   74.5840  218.8740 N   0  0  0  0  0  0  0  0  0  0  0  0
  139.9750   75.2970  218.4280 C   0  0  0  0  0  0  0  0  0  0  0  0
  140.5020   76.7030  218.2680 C   0  0  2  0  0  0  0  0  0  0  0  0
  139.7360   77.4940  217.4430 O   0  0  0  0  0  0  0  0  0  0  0  0
  141.8960   76.4200  217.6850 C   0  0  0  0  0  0  0  0  0  0  0  0
  142.3660   75.1740  218.3620 C   0  0  1  0  0  0  0  0  0  0  0  0
  143.3710   75.4270  219.4170 C   0  0  0  0  0  0  0  0  0  0  0  0
  143.4670   76.4770  220.0790 O   0  0  0  0  0  0  0  0  0  0  0  0
  144.3020   74.3840  219.6920 N   0  0  0  0  0  0  0  0  0  0  0  0
  144.4090   73.0700  219.0660 C   0  0  0  0  0  0  0  0  0  0  0  0
  144.7370   72.1400  220.1880 C   0  0  0  0  0  0  0  0  0  0  0  0
  145.6000   72.9610  221.0890 C   0  0  0  0  0  0  0  0  0  0  0  0
  145.3890   74.3880  220.6840 C   0  0  0  0  0  0  0  0  0  0  0  0
  140.2730   76.9150  222.3970 C   0  0  0  0  0  0  0  0  0  0  0  0
  139.1270   77.6550  222.6480 C   0  0  0  0  0  0  0  0  0  0  0  0
  139.1510   78.9710  223.0410 C   0  0  0  0  0  0  0  0  0  0  0  0
  140.4060   79.5570  223.1840 C   0  0  0  0  0  0  0  0  0  0  0  0
  140.4490   80.8610  223.5730 C   0  0  0  0  0  0  0  0  0  0  0  0
  141.6860   81.4630  223.7210 C   0  0  0  0  0  0  0  0  0  0  0  0
  142.8570   80.7470  223.4770 C   0  0  0  0  0  0  0  0  0  0  0  0
  142.7580   79.4140  223.0810 C   0  0  0  0  0  0  0  0  0  0  0  0
  141.5220   78.8140  222.9340 C   0  0  0  0  0  0  0  0  0  0  0  0
  141.4460   77.5440  222.5550 N   0  0  0  0  0  0  0  0  0  0  0  0
  142.2920   75.4140  221.6100 H   0  0  0  0  0  0  0  0  0  0  0  0
  142.3760   73.0547  221.3657 H   0  0  0  0  0  0  0  0  0  0  0  0
  140.6224   72.9472  221.7260 H   0  0  0  0  0  0  0  0  0  0  0  0
  139.6041   74.8980  217.4724 H   0  0  0  0  0  0  0  0  0  0  0  0
  139.1213   75.2189  219.1172 H   0  0  0  0  0  0  0  0  0  0  0  0
  140.5009   77.2819  219.2033 H   0  0  0  0  0  0  0  0  0  0  0  0
  140.1890   77.5760  216.5810 H   0  0  0  0  0  0  0  0  0  0  0  0
  141.8341   76.2667  216.5975 H   0  0  0  0  0  0  0  0  0  0  0  0
  142.5863   77.2602  217.8513 H   0  0  0  0  0  0  0  0  0  0  0  0
  142.9003   74.5045  217.6718 H   0  0  0  0  0  0  0  0  0  0  0  0
  143.4568   72.7869  218.5935 H   0  0  0  0  0  0  0  0  0  0  0  0
  145.1700   73.0484  218.2720 H   0  0  0  0  0  0  0  0  0  0  0  0
  143.8236   71.8158  220.7083 H   0  0  0  0  0  0  0  0  0  0  0  0
  145.2324   71.2190  219.8468 H   0  0  0  0  0  0  0  0  0  0  0  0
  145.3037   72.8146  222.1382 H   0  0  0  0  0  0  0  0  0  0  0  0
  146.6580   72.6723  221.0031 H   0  0  0  0  0  0  0  0  0  0  0  0
  145.1042   74.9929  221.5575 H   0  0  0  0  0  0  0  0  0  0  0  0
  146.3085   74.8229  220.2651 H   0  0  0  0  0  0  0  0  0  0  0  0
  138.1504   77.1636  222.5263 H   0  0  0  0  0  0  0  0  0  0  0  0
  138.2255   79.5336  223.2331 H   0  0  0  0  0  0  0  0  0  0  0  0
  139.5227   81.4224  223.7650 H   0  0  0  0  0  0  0  0  0  0  0  0
  141.7460   82.5158  224.0339 H   0  0  0  0  0  0  0  0  0  0  0  0
  143.8407   81.2249  223.5948 H   0  0  0  0  0  0  0  0  0  0  0  0
  143.6720   78.8347  222.8838 H   0  0  0  0  0  0  0  0  0  0  0  0
  1  2  2  0
  2  3  1  0
  3  4  1  0
  4  5  1  0
  5  6  2  0
  5  7  1  0
  7  8  1  0
  8  9  1  0
  9 10  1  0
  9 11  1  0
 11 12  1  0
 12 13  1  0
 13 14  2  0
 13 15  1  0
 15 16  1  0
 16 17  1  0
 17 18  1  0
 18 19  1  0
  2 20  1  0
 20 21  2  0
 21 22  1  0
 22 23  2  0
 23 24  1  0
 24 25  2  0
 25 26  1  0
 26 27  2  0
 27 28  1  0
 28 29  2  0
 12  7  1  0
 19 15  1  0
 29 20  1  0
 28 23  1  0
  3 30  1  0
  4 31  1  0
  4 32  1  0
  8 33  1  0
  8 34  1  0
  9 35  1  1
 10 36  1  0
 11 37  1  0
 11 38  1  0
 12 39  1  6
 16 40  1  0
 16 41  1  0
 17 42  1  0
 17 43  1  0
 18 44  1  0
 18 45  1  0
 19 46  1  0
 19 47  1  0
 21 48  1  0
 22 49  1  0
 24 50  1  0
 25 51  1  0
 26 52  1  0
 27 53  1  0
M  END
>  <smiles>  (45) 
O=C(NCC(=O)N1C[C@H](O)C[C@H]1C(=O)N1CCCC1)c1ccc2ccccc2n1

>  <score_type>  (45) 
oracle

>  <origin>  (45) 
autodockgpu

>  <m_score__min__energy>  (45) 
-8.4900000000000002

>  <m_primary>  (45) 
energy

>  <rmsd>  (45) 
7.357062638758622

>  <m_score__min__rmsd>  (45) 
7.357062638758622

>  <meeko>  (45) 
{"free_energy": -6.19, "intermolecular_energy": -7.98, "internal_energy": -3.24, "cluster_size": 7, "cluster_id": 3, "rank_in_cluster": 7}

>  <energy>  (45) 
-6.97

>  <cluster_rmsd>  (45) 
1.17

>  <cluster>  (45) 
3

$$$$

     RDKit          3D

 53 56  0  0  0  0  0  0  0  0999 V2000
  140.4980   71.0500  221.2910 O   0  0  0  0  0  0  0  0  0  0  0  0
  140.1790   71.7380  222.2950 C   0  0  0  0  0  0  0  0  0  0  0  0
  139.9140   73.1260  222.2560 N   0  0  0  0  0  0  0  0  0  0  0  0
  139.9960   73.8530  221.0290 C   0  0  0  0  0  0  0  0  0  0  0  0
  140.6800   75.1470  221.2760 C   0  0  0  0  0  0  0  0  0  0  0  0
  140.3250   75.7700  222.3300 O   0  0  0  0  0  0  0  0  0  0  0  0
  141.6700   75.6680  220.4010 N   0  0  0  0  0  0  0  0  0  0  0  0
  142.2690   74.8990  219.3330 C   0  0  0  0  0  0  0  0  0  0  0  0
  142.6000   75.9700  218.3220 C   0  0  2  0  0  0  0  0  0  0  0  0
  143.5630   75.6000  217.4130 O   0  0  0  0  0  0  0  0  0  0  0  0
  143.0690   77.1020  219.2500 C   0  0  0  0  0  0  0  0  0  0  0  0
  142.2010   77.0090  220.4630 C   0  0  1  0  0  0  0  0  0  0  0  0
  141.1450   78.0440  220.5050 C   0  0  0  0  0  0  0  0  0  0  0  0
  140.2160   78.1540  219.6840 O   0  0  0  0  0  0  0  0  0  0  0  0
  141.2010   78.9880  221.5720 N   0  0  0  0  0  0  0  0  0  0  0  0
  142.1770   79.0820  222.6540 C   0  0  0  0  0  0  0  0  0  0  0  0
  141.3720   79.4480  223.8590 C   0  0  0  0  0  0  0  0  0  0  0  0
  140.2990   80.3320  223.3150 C   0  0  0  0  0  0  0  0  0  0  0  0
  140.2780   80.1030  221.8340 C   0  0  0  0  0  0  0  0  0  0  0  0
  140.0770   71.0530  223.5900 C   0  0  0  0  0  0  0  0  0  0  0  0
  139.5180   69.7890  223.6940 C   0  0  0  0  0  0  0  0  0  0  0  0
  139.4020   69.1110  224.8840 C   0  0  0  0  0  0  0  0  0  0  0  0
  139.8810   69.7590  226.0190 C   0  0  0  0  0  0  0  0  0  0  0  0
  139.7740   69.1030  227.2080 C   0  0  0  0  0  0  0  0  0  0  0  0
  140.2450   69.7280  228.3480 C   0  0  0  0  0  0  0  0  0  0  0  0
  140.8130   71.0000  228.2780 C   0  0  0  0  0  0  0  0  0  0  0  0
  140.8980   71.6270  227.0370 C   0  0  0  0  0  0  0  0  0  0  0  0
  140.4290   71.0020  225.8980 C   0  0  0  0  0  0  0  0  0  0  0  0
  140.5180   71.6160  224.7240 N   0  0  0  0  0  0  0  0  0  0  0  0
  139.6550   73.6170  223.1470 H   0  0  0  0  0  0  0  0  0  0  0  0
  140.5673   73.2691  220.2923 H   0  0  0  0  0  0  0  0  0  0  0  0
  138.9841   74.0372  220.6390 H   0  0  0  0  0  0  0  0  0  0  0  0
  143.1757   74.3786  219.6752 H   0  0  0  0  0  0  0  0  0  0  0  0
  141.6180   74.1042  218.9399 H   0  0  0  0  0  0  0  0  0  0  0  0
  141.7567   76.2297  217.6652 H   0  0  0  0  0  0  0  0  0  0  0  0
  144.4410   75.6990  217.8310 H   0  0  0  0  0  0  0  0  0  0  0  0
  144.1258   76.9633  219.5219 H   0  0  0  0  0  0  0  0  0  0  0  0
  142.9894   78.0864  218.7656 H   0  0  0  0  0  0  0  0  0  0  0  0
  142.7629   77.1963  221.3899 H   0  0  0  0  0  0  0  0  0  0  0  0
  142.6839   78.1174  222.8043 H   0  0  0  0  0  0  0  0  0  0  0  0
  142.9659   79.8183  222.4406 H   0  0  0  0  0  0  0  0  0  0  0  0
  140.9407   78.5519  224.3292 H   0  0  0  0  0  0  0  0  0  0  0  0
  141.9727   79.9385  224.6391 H   0  0  0  0  0  0  0  0  0  0  0  0
  139.3267   80.0665  223.7555 H   0  0  0  0  0  0  0  0  0  0  0  0
  140.4910   81.3884  223.5542 H   0  0  0  0  0  0  0  0  0  0  0  0
  139.2619   79.8410  221.5041 H   0  0  0  0  0  0  0  0  0  0  0  0
  140.5808   81.0078  221.2867 H   0  0  0  0  0  0  0  0  0  0  0  0
  139.1487   69.3041  222.7783 H   0  0  0  0  0  0  0  0  0  0  0  0
  138.9537   68.1079  224.9367 H   0  0  0  0  0  0  0  0  0  0  0  0
  139.3240   68.1006  227.2600 H   0  0  0  0  0  0  0  0  0  0  0  0
  140.1710   69.2172  229.3194 H   0  0  0  0  0  0  0  0  0  0  0  0
  141.1865   71.4982  229.1848 H   0  0  0  0  0  0  0  0  0  0  0  0
  141.3432   72.6302  226.9633 H   0  0  0  0  0  0  0  0  0  0  0  0
  1  2  2  0
  2  3  1  0
  3  4  1  0
  4  5  1  0
  5  6  2  0
  5  7  1  0
  7  8  1  0
  8  9  1  0
  9 10  1  0
  9 11  1  0
 11 12  1  0
 12 13  1  0
 13 14  2  0
 13 15  1  0
 15 16  1  0
 16 17  1  0
 17 18  1  0
 18 19  1  0
  2 20  1  0
 20 21  2  0
 21 22  1  0
 22 23  2  0
 23 24  1  0
 24 25  2  0
 25 26  1  0
 26 27  2  0
 27 28  1  0
 28 29  2  0
 12  7  1  0
 19 15  1  0
 29 20  1  0
 28 23  1  0
  3 30  1  0
  4 31  1  0
  4 32  1  0
  8 33  1  0
  8 34  1  0
  9 35  1  6
 10 36  1  0
 11 37  1  0
 11 38  1  0
 12 39  1  1
 16 40  1  0
 16 41  1  0
 17 42  1  0
 17 43  1  0
 18 44  1  0
 18 45  1  0
 19 46  1  0
 19 47  1  0
 21 48  1  0
 22 49  1  0
 24 50  1  0
 25 51  1  0
 26 52  1  0
 27 53  1  0
M  END
>  <smiles>  (46) 
O=C(NCC(=O)N1C[C@H](O)C[C@H]1C(=O)N1CCCC1)c1ccc2ccccc2n1

>  <score_type>  (46) 
oracle

>  <origin>  (46) 
autodockgpu

>  <m_score__min__energy>  (46) 
-8.4900000000000002

>  <m_primary>  (46) 
energy

>  <rmsd>  (46) 
2.0274340436063563

>  <m_score__min__rmsd>  (46) 
2.0274340436063563

>  <meeko>  (46) 
{"free_energy": -8.37, "intermolecular_energy": -10.16, "internal_energy": -1.87, "cluster_size": 39, "cluster_id": 1, "rank_in_cluster": 3}

>  <energy>  (46) 
-6.23

>  <cluster_rmsd>  (46) 
1.64

>  <cluster>  (46) 
3

$$$$

     RDKit          3D

 53 56  0  0  0  0  0  0  0  0999 V2000
  140.0420   73.7790  222.3410 O   0  0  0  0  0  0  0  0  0  0  0  0
  140.3620   72.5880  222.0930 C   0  0  0  0  0  0  0  0  0  0  0  0
  140.8140   72.1310  220.8340 N   0  0  0  0  0  0  0  0  0  0  0  0
  140.9380   73.0300  219.7300 C   0  0  0  0  0  0  0  0  0  0  0  0
  142.0570   72.5820  218.8630 C   0  0  0  0  0  0  0  0  0  0  0  0
  141.7240   72.0990  217.7320 O   0  0  0  0  0  0  0  0  0  0  0  0
  143.4180   72.6790  219.2590 N   0  0  0  0  0  0  0  0  0  0  0  0
  143.9720   73.8440  219.9130 C   0  0  0  0  0  0  0  0  0  0  0  0
  145.0720   73.2390  220.7510 C   0  0  2  0  0  0  0  0  0  0  0  0
  146.0420   74.1390  221.1300 O   0  0  0  0  0  0  0  0  0  0  0  0
  145.6080   72.1680  219.7870 C   0  0  0  0  0  0  0  0  0  0  0  0
  144.4090   71.6480  219.0630 C   0  0  1  0  0  0  0  0  0  0  0  0
  143.9640   70.3230  219.5470 C   0  0  0  0  0  0  0  0  0  0  0  0
  142.8800   70.0950  220.1140 O   0  0  0  0  0  0  0  0  0  0  0  0
  144.8500   69.2250  219.3450 N   0  0  0  0  0  0  0  0  0  0  0  0
  146.1670   69.2220  218.7160 C   0  0  0  0  0  0  0  0  0  0  0  0
  146.2060   67.9540  217.9250 C   0  0  0  0  0  0  0  0  0  0  0  0
  145.4230   66.9930  218.7560 C   0  0  0  0  0  0  0  0  0  0  0  0
  144.6430   67.8210  219.7320 C   0  0  0  0  0  0  0  0  0  0  0  0
  140.2570   71.6110  223.1840 C   0  0  0  0  0  0  0  0  0  0  0  0
  139.6920   70.3610  222.9800 C   0  0  0  0  0  0  0  0  0  0  0  0
  139.5740   69.4160  223.9710 C   0  0  0  0  0  0  0  0  0  0  0  0
  140.0560   69.7680  225.2280 C   0  0  0  0  0  0  0  0  0  0  0  0
  139.9470   68.8450  226.2230 C   0  0  0  0  0  0  0  0  0  0  0  0
  140.4200   69.1730  227.4800 C   0  0  0  0  0  0  0  0  0  0  0  0
  140.9940   70.4220  227.7190 C   0  0  0  0  0  0  0  0  0  0  0  0
  141.0810   71.3310  226.6670 C   0  0  0  0  0  0  0  0  0  0  0  0
  140.6090   71.0010  225.4110 C   0  0  0  0  0  0  0  0  0  0  0  0
  140.7000   71.8810  224.4200 N   0  0  0  0  0  0  0  0  0  0  0  0
  141.0570   71.1160  220.7210 H   0  0  0  0  0  0  0  0  0  0  0  0
  140.0025   73.0343  219.1514 H   0  0  0  0  0  0  0  0  0  0  0  0
  141.1393   74.0462  220.0999 H   0  0  0  0  0  0  0  0  0  0  0  0
  144.3746   74.5598  219.1811 H   0  0  0  0  0  0  0  0  0  0  0  0
  143.2360   74.4186  220.4945 H   0  0  0  0  0  0  0  0  0  0  0  0
  144.7245   72.8557  221.7218 H   0  0  0  0  0  0  0  0  0  0  0  0
  146.2130   74.7470  220.3840 H   0  0  0  0  0  0  0  0  0  0  0  0
  146.3228   72.6116  219.0783 H   0  0  0  0  0  0  0  0  0  0  0  0
  146.1415   71.3679  220.3211 H   0  0  0  0  0  0  0  0  0  0  0  0
  144.6166   71.4610  217.9991 H   0  0  0  0  0  0  0  0  0  0  0  0
  146.2840   70.0945  218.0565 H   0  0  0  0  0  0  0  0  0  0  0  0
  146.9810   69.2779  219.4537 H   0  0  0  0  0  0  0  0  0  0  0  0
  145.7375   68.0922  216.9394 H   0  0  0  0  0  0  0  0  0  0  0  0
  147.2309   67.6078  217.7257 H   0  0  0  0  0  0  0  0  0  0  0  0
  144.7407   66.4084  218.1214 H   0  0  0  0  0  0  0  0  0  0  0  0
  146.0829   66.2807  219.2729 H   0  0  0  0  0  0  0  0  0  0  0  0
  143.5744   67.5654  219.6789 H   0  0  0  0  0  0  0  0  0  0  0  0
  144.9759   67.6390  220.7645 H   0  0  0  0  0  0  0  0  0  0  0  0
  139.3197   70.1135  221.9749 H   0  0  0  0  0  0  0  0  0  0  0  0
  139.1216   68.4316  223.7802 H   0  0  0  0  0  0  0  0  0  0  0  0
  139.4933   67.8615  226.0312 H   0  0  0  0  0  0  0  0  0  0  0  0
  140.3431   68.4427  228.2990 H   0  0  0  0  0  0  0  0  0  0  0  0
  141.3706   70.6839  228.7188 H   0  0  0  0  0  0  0  0  0  0  0  0
  141.5296   72.3207  226.8378 H   0  0  0  0  0  0  0  0  0  0  0  0
  1  2  2  0
  2  3  1  0
  3  4  1  0
  4  5  1  0
  5  6  2  0
  5  7  1  0
  7  8  1  0
  8  9  1  0
  9 10  1  0
  9 11  1  0
 11 12  1  0
 12 13  1  0
 13 14  2  0
 13 15  1  0
 15 16  1  0
 16 17  1  0
 17 18  1  0
 18 19  1  0
  2 20  1  0
 20 21  2  0
 21 22  1  0
 22 23  2  0
 23 24  1  0
 24 25  2  0
 25 26  1  0
 26 27  2  0
 27 28  1  0
 28 29  2  0
 12  7  1  0
 19 15  1  0
 29 20  1  0
 28 23  1  0
  3 30  1  0
  4 31  1  0
  4 32  1  0
  8 33  1  0
  8 34  1  0
  9 35  1  1
 10 36  1  0
 11 37  1  0
 11 38  1  0
 12 39  1  6
 16 40  1  0
 16 41  1  0
 17 42  1  0
 17 43  1  0
 18 44  1  0
 18 45  1  0
 19 46  1  0
 19 47  1  0
 21 48  1  0
 22 49  1  0
 24 50  1  0
 25 51  1  0
 26 52  1  0
 27 53  1  0
M  END
>  <smiles>  (47) 
O=C(NCC(=O)N1C[C@H](O)C[C@H]1C(=O)N1CCCC1)c1ccc2ccccc2n1

>  <score_type>  (47) 
oracle

>  <origin>  (47) 
autodockgpu

>  <m_score__min__energy>  (47) 
-8.4900000000000002

>  <m_primary>  (47) 
energy

>  <rmsd>  (47) 
7.0198058502849925

>  <m_score__min__rmsd>  (47) 
7.0198058502849925

>  <meeko>  (47) 
{"free_energy": -7.57, "intermolecular_energy": -9.36, "internal_energy": -2.1, "cluster_size": 1, "cluster_id": 2, "rank_in_cluster": 1}

>  <energy>  (47) 
-6.19

>  <cluster_rmsd>  (47) 
1.68

>  <cluster>  (47) 
3

$$$$

     RDKit          3D

 53 56  0  0  0  0  0  0  0  0999 V2000
  138.3570   68.2820  222.2740 O   0  0  0  0  0  0  0  0  0  0  0  0
  138.9970   69.3180  222.5910 C   0  0  0  0  0  0  0  0  0  0  0  0
  139.3420   70.3480  221.6860 N   0  0  0  0  0  0  0  0  0  0  0  0
  138.9700   70.2680  220.3090 C   0  0  0  0  0  0  0  0  0  0  0  0
  139.5180   71.4450  219.5890 C   0  0  0  0  0  0  0  0  0  0  0  0
  139.8610   71.2450  218.3780 O   0  0  0  0  0  0  0  0  0  0  0  0
  139.6570   72.7190  220.2000 N   0  0  0  0  0  0  0  0  0  0  0  0
  138.5590   73.4230  220.8240 C   0  0  0  0  0  0  0  0  0  0  0  0
  139.2650   74.2230  221.8920 C   0  0  2  0  0  0  0  0  0  0  0  0
  138.5460   75.3060  222.3440 O   0  0  0  0  0  0  0  0  0  0  0  0
  140.5420   74.6350  221.1430 C   0  0  0  0  0  0  0  0  0  0  0  0
  140.8900   73.4670  220.2770 C   0  0  1  0  0  0  0  0  0  0  0  0
  142.0160   72.6660  220.8030 C   0  0  0  0  0  0  0  0  0  0  0  0
  141.9040   71.6610  221.5290 O   0  0  0  0  0  0  0  0  0  0  0  0
  143.3320   73.0820  220.4480 N   0  0  0  0  0  0  0  0  0  0  0  0
  143.7370   74.2150  219.6200 C   0  0  0  0  0  0  0  0  0  0  0  0
  144.8850   73.7030  218.8120 C   0  0  0  0  0  0  0  0  0  0  0  0
  145.5810   72.7620  219.7400 C   0  0  0  0  0  0  0  0  0  0  0  0
  144.6070   72.4610  220.8380 C   0  0  0  0  0  0  0  0  0  0  0  0
  139.4110   69.4640  223.9920 C   0  0  0  0  0  0  0  0  0  0  0  0
  139.1960   68.4540  224.9160 C   0  0  0  0  0  0  0  0  0  0  0  0
  139.5660   68.5470  226.2360 C   0  0  0  0  0  0  0  0  0  0  0  0
  140.1860   69.7310  226.6270 C   0  0  0  0  0  0  0  0  0  0  0  0
  140.5600   69.8430  227.9320 C   0  0  0  0  0  0  0  0  0  0  0  0
  141.1780   71.0100  228.3410 C   0  0  0  0  0  0  0  0  0  0  0  0
  141.4100   72.0460  227.4370 C   0  0  0  0  0  0  0  0  0  0  0  0
  141.0070   71.8810  226.1130 C   0  0  0  0  0  0  0  0  0  0  0  0
  140.3910   70.7140  225.7040 C   0  0  0  0  0  0  0  0  0  0  0  0
  140.0130   70.5750  224.4390 N   0  0  0  0  0  0  0  0  0  0  0  0
  139.8790   71.1760  222.0430 H   0  0  0  0  0  0  0  0  0  0  0  0
  139.3775   69.3452  219.8703 H   0  0  0  0  0  0  0  0  0  0  0  0
  137.8736   70.2571  220.2212 H   0  0  0  0  0  0  0  0  0  0  0  0
  138.0460   74.0799  220.1062 H   0  0  0  0  0  0  0  0  0  0  0  0
  137.7720   72.7606  221.2137 H   0  0  0  0  0  0  0  0  0  0  0  0
  139.4356   73.6598  222.8213 H   0  0  0  0  0  0  0  0  0  0  0  0
  138.0370   75.0350  223.1330 H   0  0  0  0  0  0  0  0  0  0  0  0
  140.3562   75.5279  220.5281 H   0  0  0  0  0  0  0  0  0  0  0  0
  141.3584   74.8878  221.8356 H   0  0  0  0  0  0  0  0  0  0  0  0
  141.2547   73.7795  219.2874 H   0  0  0  0  0  0  0  0  0  0  0  0
  142.9119   74.5312  218.9648 H   0  0  0  0  0  0  0  0  0  0  0  0
  144.0110   75.0937  220.2222 H   0  0  0  0  0  0  0  0  0  0  0  0
  144.5287   73.1765  217.9143 H   0  0  0  0  0  0  0  0  0  0  0  0
  145.5422   74.5069  218.4489 H   0  0  0  0  0  0  0  0  0  0  0  0
  145.8562   71.8380  219.2104 H   0  0  0  0  0  0  0  0  0  0  0  0
  146.5081   73.2020  220.1360 H   0  0  0  0  0  0  0  0  0  0  0  0
  144.4821   71.3736  220.9475 H   0  0  0  0  0  0  0  0  0  0  0  0
  144.9616   72.8533  221.8025 H   0  0  0  0  0  0  0  0  0  0  0  0
  138.7041   67.5309  224.5755 H   0  0  0  0  0  0  0  0  0  0  0  0
  139.3819   67.7283  226.9473 H   0  0  0  0  0  0  0  0  0  0  0  0
  140.3747   69.0246  228.6433 H   0  0  0  0  0  0  0  0  0  0  0  0
  141.4898   71.1224  229.3899 H   0  0  0  0  0  0  0  0  0  0  0  0
  141.9013   72.9749  227.7623 H   0  0  0  0  0  0  0  0  0  0  0  0
  141.1812   72.6882  225.3863 H   0  0  0  0  0  0  0  0  0  0  0  0
  1  2  2  0
  2  3  1  0
  3  4  1  0
  4  5  1  0
  5  6  2  0
  5  7  1  0
  7  8  1  0
  8  9  1  0
  9 10  1  0
  9 11  1  0
 11 12  1  0
 12 13  1  0
 13 14  2  0
 13 15  1  0
 15 16  1  0
 16 17  1  0
 17 18  1  0
 18 19  1  0
  2 20  1  0
 20 21  2  0
 21 22  1  0
 22 23  2  0
 23 24  1  0
 24 25  2  0
 25 26  1  0
 26 27  2  0
 27 28  1  0
 28 29  2  0
 12  7  1  0
 19 15  1  0
 29 20  1  0
 28 23  1  0
  3 30  1  0
  4 31  1  0
  4 32  1  0
  8 33  1  0
  8 34  1  0
  9 35  1  1
 10 36  1  0
 11 37  1  0
 11 38  1  0
 12 39  1  6
 16 40  1  0
 16 41  1  0
 17 42  1  0
 17 43  1  0
 18 44  1  0
 18 45  1  0
 19 46  1  0
 19 47  1  0
 21 48  1  0
 22 49  1  0
 24 50  1  0
 25 51  1  0
 26 52  1  0
 27 53  1  0
M  END
>  <smiles>  (48) 
O=C(NCC(=O)N1C[C@H](O)C[C@H]1C(=O)N1CCCC1)c1ccc2ccccc2n1

>  <score_type>  (48) 
oracle

>  <origin>  (48) 
autodockgpu

>  <m_score__min__energy>  (48) 
-8.4900000000000002

>  <m_primary>  (48) 
energy

>  <rmsd>  (48) 
4.822466508557712

>  <m_score__min__rmsd>  (48) 
4.822466508557712

>  <meeko>  (48) 
{"free_energy": -6.65, "intermolecular_energy": -8.44, "internal_energy": -2.68, "cluster_size": 2, "cluster_id": 4, "rank_in_cluster": 2}

>  <energy>  (48) 
-7.12

>  <cluster_rmsd>  (48) 
0.0

>  <cluster>  (48) 
4

$$$$

     RDKit          3D

 53 56  0  0  0  0  0  0  0  0999 V2000
  141.3290   71.9920  221.7020 O   0  0  0  0  0  0  0  0  0  0  0  0
  140.3770   72.2750  222.4730 C   0  0  0  0  0  0  0  0  0  0  0  0
  139.4470   73.3140  222.2430 N   0  0  0  0  0  0  0  0  0  0  0  0
  139.5410   74.1340  221.0770 C   0  0  0  0  0  0  0  0  0  0  0  0
  140.4490   75.2750  221.3570 C   0  0  0  0  0  0  0  0  0  0  0  0
  140.1930   75.9410  222.4140 O   0  0  0  0  0  0  0  0  0  0  0  0
  141.5370   75.6140  220.5100 N   0  0  0  0  0  0  0  0  0  0  0  0
  142.1240   74.6890  219.5650 C   0  0  0  0  0  0  0  0  0  0  0  0
  142.6190   75.6170  218.4840 C   0  0  2  0  0  0  0  0  0  0  0  0
  143.5970   75.0700  217.6850 O   0  0  0  0  0  0  0  0  0  0  0  0
  143.1380   76.7910  219.3300 C   0  0  0  0  0  0  0  0  0  0  0  0
  142.1910   76.9000  220.4810 C   0  0  1  0  0  0  0  0  0  0  0  0
  141.2400   78.0250  220.3490 C   0  0  0  0  0  0  0  0  0  0  0  0
  140.4060   78.1550  219.4340 O   0  0  0  0  0  0  0  0  0  0  0  0
  141.2860   79.0380  221.3510 N   0  0  0  0  0  0  0  0  0  0  0  0
  142.1600   79.1260  222.5160 C   0  0  0  0  0  0  0  0  0  0  0  0
  141.2860   79.6520  223.6080 C   0  0  0  0  0  0  0  0  0  0  0  0
  140.3580   80.5850  222.9020 C   0  0  0  0  0  0  0  0  0  0  0  0
  140.4540   80.2470  221.4450 C   0  0  0  0  0  0  0  0  0  0  0  0
  140.2220   71.4700  223.6930 C   0  0  0  0  0  0  0  0  0  0  0  0
  139.5740   70.2450  223.6700 C   0  0  0  0  0  0  0  0  0  0  0  0
  139.4070   69.4600  224.7850 C   0  0  0  0  0  0  0  0  0  0  0  0
  139.9270   69.9530  225.9780 C   0  0  0  0  0  0  0  0  0  0  0  0
  139.7700   69.1890  227.0950 C   0  0  0  0  0  0  0  0  0  0  0  0
  140.2790   69.6600  228.2910 C   0  0  0  0  0  0  0  0  0  0  0  0
  140.9360   70.8880  228.3480 C   0  0  0  0  0  0  0  0  0  0  0  0
  141.0700   71.6320  227.1770 C   0  0  0  0  0  0  0  0  0  0  0  0
  140.5610   71.1600  225.9820 C   0  0  0  0  0  0  0  0  0  0  0  0
  140.6980   71.8820  224.8760 N   0  0  0  0  0  0  0  0  0  0  0  0
  138.6840   73.4760  222.9450 H   0  0  0  0  0  0  0  0  0  0  0  0
  139.9412   73.5413  220.2412 H   0  0  0  0  0  0  0  0  0  0  0  0
  138.5434   74.5117  220.8083 H   0  0  0  0  0  0  0  0  0  0  0  0
  142.9529   74.1261  220.0190 H   0  0  0  0  0  0  0  0  0  0  0  0
  141.4247   73.9205  219.2039 H   0  0  0  0  0  0  0  0  0  0  0  0
  141.8467   75.8842  217.7477 H   0  0  0  0  0  0  0  0  0  0  0  0
  144.4510   75.4940  217.9030 H   0  0  0  0  0  0  0  0  0  0  0  0
  144.1575   76.5859  219.6885 H   0  0  0  0  0  0  0  0  0  0  0  0
  143.1853   77.7241  218.7494 H   0  0  0  0  0  0  0  0  0  0  0  0
  142.7103   77.1285  221.4234 H   0  0  0  0  0  0  0  0  0  0  0  0
  142.5556   78.1341  222.7798 H   0  0  0  0  0  0  0  0  0  0  0  0
  143.0320   79.7714  222.3339 H   0  0  0  0  0  0  0  0  0  0  0  0
  140.7287   78.8361  224.0915 H   0  0  0  0  0  0  0  0  0  0  0  0
  141.8560   80.1442  224.4098 H   0  0  0  0  0  0  0  0  0  0  0  0
  139.3278   80.4414  223.2597 H   0  0  0  0  0  0  0  0  0  0  0  0
  140.6269   81.6352  223.0885 H   0  0  0  0  0  0  0  0  0  0  0  0
  139.4527   80.0523  221.0333 H   0  0  0  0  0  0  0  0  0  0  0  0
  140.8925   81.0773  220.8720 H   0  0  0  0  0  0  0  0  0  0  0  0
  139.1736   69.8834  222.7114 H   0  0  0  0  0  0  0  0  0  0  0  0
  138.8886   68.4910  224.7372 H   0  0  0  0  0  0  0  0  0  0  0  0
  139.2507   68.2205  227.0465 H   0  0  0  0  0  0  0  0  0  0  0  0
  140.1645   69.0602  229.2059 H   0  0  0  0  0  0  0  0  0  0  0  0
  141.3412   71.2630  229.2994 H   0  0  0  0  0  0  0  0  0  0  0  0
  141.5854   72.6034  227.2043 H   0  0  0  0  0  0  0  0  0  0  0  0
  1  2  2  0
  2  3  1  0
  3  4  1  0
  4  5  1  0
  5  6  2  0
  5  7  1  0
  7  8  1  0
  8  9  1  0
  9 10  1  0
  9 11  1  0
 11 12  1  0
 12 13  1  0
 13 14  2  0
 13 15  1  0
 15 16  1  0
 16 17  1  0
 17 18  1  0
 18 19  1  0
  2 20  1  0
 20 21  2  0
 21 22  1  0
 22 23  2  0
 23 24  1  0
 24 25  2  0
 25 26  1  0
 26 27  2  0
 27 28  1  0
 28 29  2  0
 12  7  1  0
 19 15  1  0
 29 20  1  0
 28 23  1  0
  3 30  1  0
  4 31  1  0
  4 32  1  0
  8 33  1  0
  8 34  1  0
  9 35  1  6
 10 36  1  0
 11 37  1  0
 11 38  1  0
 12 39  1  1
 16 40  1  0
 16 41  1  0
 17 42  1  0
 17 43  1  0
 18 44  1  0
 18 45  1  0
 19 46  1  0
 19 47  1  0
 21 48  1  0
 22 49  1  0
 24 50  1  0
 25 51  1  0
 26 52  1  0
 27 53  1  0
M  END
>  <smiles>  (49) 
O=C(NCC(=O)N1C[C@H](O)C[C@H]1C(=O)N1CCCC1)c1ccc2ccccc2n1

>  <score_type>  (49) 
oracle

>  <origin>  (49) 
autodockgpu

>  <m_score__min__energy>  (49) 
-8.4900000000000002

>  <m_primary>  (49) 
energy

>  <rmsd>  (49) 
1.9904215913983923

>  <m_score__min__rmsd>  (49) 
1.9904215913983923

>  <meeko>  (49) 
{"free_energy": -8.49, "intermolecular_energy": -10.28, "internal_energy": -1.55, "cluster_size": 39, "cluster_id": 1, "rank_in_cluster": 1}

>  <energy>  (49) 
-6.65

>  <cluster_rmsd>  (49) 
1.87

>  <cluster>  (49) 
4

$$$$

     RDKit          3D

 53 56  0  0  0  0  0  0  0  0999 V2000
  138.6190   75.2350  222.2270 O   0  0  0  0  0  0  0  0  0  0  0  0
  139.7740   75.6980  222.0440 C   0  0  0  0  0  0  0  0  0  0  0  0
  140.8600   74.9490  221.5350 N   0  0  0  0  0  0  0  0  0  0  0  0
  140.7000   73.5720  221.1860 C   0  0  0  0  0  0  0  0  0  0  0  0
  141.6260   73.2430  220.0730 C   0  0  0  0  0  0  0  0  0  0  0  0
  141.0750   72.8670  218.9860 O   0  0  0  0  0  0  0  0  0  0  0  0
  143.0370   73.3370  220.1980 N   0  0  0  0  0  0  0  0  0  0  0  0
  143.9250   72.2090  220.0200 C   0  0  0  0  0  0  0  0  0  0  0  0
  145.1800   72.8760  219.5110 C   0  0  2  0  0  0  0  0  0  0  0  0
  146.3180   72.1200  219.6750 O   0  0  0  0  0  0  0  0  0  0  0  0
  145.1920   74.1530  220.3660 C   0  0  0  0  0  0  0  0  0  0  0  0
  143.7580   74.5470  220.5140 C   0  0  1  0  0  0  0  0  0  0  0  0
  143.3740   75.6860  219.6540 C   0  0  0  0  0  0  0  0  0  0  0  0
  143.0420   76.8140  220.0650 O   0  0  0  0  0  0  0  0  0  0  0  0
  143.3860   75.4720  218.2450 N   0  0  0  0  0  0  0  0  0  0  0  0
  143.7310   74.2580  217.5120 C   0  0  0  0  0  0  0  0  0  0  0  0
  144.4940   74.7380  216.3200 C   0  0  0  0  0  0  0  0  0  0  0  0
  143.8400   76.0360  215.9790 C   0  0  0  0  0  0  0  0  0  0  0  0
  143.0480   76.4360  217.1870 C   0  0  0  0  0  0  0  0  0  0  0  0
  140.0080   77.1070  222.3820 C   0  0  0  0  0  0  0  0  0  0  0  0
  138.9540   77.9800  222.6010 C   0  0  0  0  0  0  0  0  0  0  0  0
  139.1260   79.3060  222.9190 C   0  0  0  0  0  0  0  0  0  0  0  0
  140.4390   79.7580  223.0170 C   0  0  0  0  0  0  0  0  0  0  0  0
  140.6300   81.0690  223.3310 C   0  0  0  0  0  0  0  0  0  0  0  0
  141.9260   81.5390  223.4340 C   0  0  0  0  0  0  0  0  0  0  0  0
  143.0100   80.6870  223.2200 C   0  0  0  0  0  0  0  0  0  0  0  0
  142.7600   79.3540  222.9010 C   0  0  0  0  0  0  0  0  0  0  0  0
  141.4640   78.8850  222.7990 C   0  0  0  0  0  0  0  0  0  0  0  0
  141.2450   77.6120  222.4940 N   0  0  0  0  0  0  0  0  0  0  0  0
  141.7900   75.4210  221.4160 H   0  0  0  0  0  0  0  0  0  0  0  0
  140.9322   72.9417  222.0571 H   0  0  0  0  0  0  0  0  0  0  0  0
  139.6621   73.3871  220.8720 H   0  0  0  0  0  0  0  0  0  0  0  0
  144.1066   71.6890  220.9721 H   0  0  0  0  0  0  0  0  0  0  0  0
  143.5294   71.4346  219.3463 H   0  0  0  0  0  0  0  0  0  0  0  0
  145.1762   73.0480  218.4245 H   0  0  0  0  0  0  0  0  0  0  0  0
  146.2320   71.6030  220.5000 H   0  0  0  0  0  0  0  0  0  0  0  0
  145.6393   73.9523  221.3507 H   0  0  0  0  0  0  0  0  0  0  0  0
  145.7888   74.9509  219.9000 H   0  0  0  0  0  0  0  0  0  0  0  0
  143.5331   74.9189  221.5245 H   0  0  0  0  0  0  0  0  0  0  0  0
  144.3543   73.5955  218.1305 H   0  0  0  0  0  0  0  0  0  0  0  0
  142.8416   73.6755  217.2297 H   0  0  0  0  0  0  0  0  0  0  0  0
  145.5553   74.8869  216.5678 H   0  0  0  0  0  0  0  0  0  0  0  0
  144.4770   74.0206  215.4863 H   0  0  0  0  0  0  0  0  0  0  0  0
  144.6003   76.7979  215.7522 H   0  0  0  0  0  0  0  0  0  0  0  0
  143.1965   75.9395  215.0921 H   0  0  0  0  0  0  0  0  0  0  0  0
  143.3203   77.4548  217.4999 H   0  0  0  0  0  0  0  0  0  0  0  0
  141.9687   76.4319  216.9747 H   0  0  0  0  0  0  0  0  0  0  0  0
  137.9282   77.5921  222.5160 H   0  0  0  0  0  0  0  0  0  0  0  0
  138.2699   79.9759  223.0875 H   0  0  0  0  0  0  0  0  0  0  0  0
  139.7734   81.7384  223.4987 H   0  0  0  0  0  0  0  0  0  0  0  0
  142.1043   82.5945  223.6871 H   0  0  0  0  0  0  0  0  0  0  0  0
  144.0415   81.0603  223.3015 H   0  0  0  0  0  0  0  0  0  0  0  0
  143.6025   78.6681  222.7286 H   0  0  0  0  0  0  0  0  0  0  0  0
  1  2  2  0
  2  3  1  0
  3  4  1  0
  4  5  1  0
  5  6  2  0
  5  7  1  0
  7  8  1  0
  8  9  1  0
  9 10  1  0
  9 11  1  0
 11 12  1  0
 12 13  1  0
 13 14  2  0
 13 15  1  0
 15 16  1  0
 16 17  1  0
 17 18  1  0
 18 19  1  0
  2 20  1  0
 20 21  2  0
 21 22  1  0
 22 23  2  0
 23 24  1  0
 24 25  2  0
 25 26  1  0
 26 27  2  0
 27 28  1  0
 28 29  2  0
 12  7  1  0
 19 15  1  0
 29 20  1  0
 28 23  1  0
  3 30  1  0
  4 31  1  0
  4 32  1  0
  8 33  1  0
  8 34  1  0
  9 35  1  6
 10 36  1  0
 11 37  1  0
 11 38  1  0
 12 39  1  1
 16 40  1  0
 16 41  1  0
 17 42  1  0
 17 43  1  0
 18 44  1  0
 18 45  1  0
 19 46  1  0
 19 47  1  0
 21 48  1  0
 22 49  1  0
 24 50  1  0
 25 51  1  0
 26 52  1  0
 27 53  1  0
M  END
>  <smiles>  (50) 
O=C(NCC(=O)N1C[C@H](O)C[C@H]1C(=O)N1CCCC1)c1ccc2ccccc2n1

>  <score_type>  (50) 
oracle

>  <origin>  (50) 
autodockgpu

>  <m_score__min__energy>  (50) 
-8.4900000000000002

>  <m_primary>  (50) 
energy

>  <rmsd>  (50) 
7.57139051621368

>  <m_score__min__rmsd>  (50) 
7.57139051621368

>  <meeko>  (50) 
{"free_energy": -7.25, "intermolecular_energy": -9.04, "internal_energy": -2.25, "cluster_size": 7, "cluster_id": 3, "rank_in_cluster": 1}

>  <energy>  (50) 
-6.81

>  <cluster_rmsd>  (50) 
0.0

>  <cluster>  (50) 
5

$$$$
