
     RDKit          3D

 56 59  0  0  0  0  0  0  0  0999 V2000
  141.8770   71.0800  220.4490 C   0  0  0  0  0  0  0  0  0  0  0  0
  142.2550   72.3370  219.9490 O   0  0  0  0  0  0  0  0  0  0  0  0
  143.5710   72.7530  220.1300 C   0  0  0  0  0  0  0  0  0  0  0  0
  144.6510   71.9130  219.9310 C   0  0  0  0  0  0  0  0  0  0  0  0
  145.9350   72.3640  220.1200 C   0  0  0  0  0  0  0  0  0  0  0  0
  146.2200   73.6570  220.5130 C   0  0  0  0  0  0  0  0  0  0  0  0
  145.1430   74.5070  220.7160 C   0  0  0  0  0  0  0  0  0  0  0  0
  143.8450   74.0600  220.5270 C   0  0  0  0  0  0  0  0  0  0  0  0
  142.7170   74.9120  220.7270 N   0  0  0  0  0  0  0  0  0  0  0  0
  142.7270   76.1910  220.0690 C   0  0  0  0  0  0  0  0  0  0  0  0
  143.7300   76.4840  219.3570 O   0  0  0  0  0  0  0  0  0  0  0  0
  141.5700   77.0740  220.2700 C   0  0  2  0  0  0  0  0  0  0  0  0
  141.7780   78.1700  221.2680 C   0  0  0  0  0  0  0  0  0  0  0  0
  140.6890   77.9430  222.3010 C   0  0  0  0  0  0  0  0  0  0  0  0
  140.5010   76.4270  222.1590 C   0  0  0  0  0  0  0  0  0  0  0  0
  140.3740   76.3160  220.7270 N   0  0  0  0  0  0  0  0  0  0  0  0
  139.4750   75.7510  219.8260 C   0  0  0  0  0  0  0  0  0  0  0  0
  138.9600   76.5840  218.9670 O   0  0  0  0  0  0  0  0  0  0  0  0
  138.9950   74.3860  219.6530 C   0  0  0  0  0  0  0  0  0  0  0  0
  139.3910   73.4220  220.6280 N   0  0  0  0  0  0  0  0  0  0  0  0
  138.3720   72.9960  221.5650 C   0  0  0  0  0  0  0  0  0  0  0  0
  137.2510   73.5180  221.4170 O   0  0  0  0  0  0  0  0  0  0  0  0
  138.6950   72.0140  222.5930 C   0  0  0  0  0  0  0  0  0  0  0  0
  137.9140   70.8780  222.6520 C   0  0  0  0  0  0  0  0  0  0  0  0
  138.1730   69.8990  223.6170 C   0  0  0  0  0  0  0  0  0  0  0  0
  139.2310   70.1250  224.4910 C   0  0  0  0  0  0  0  0  0  0  0  0
  139.5680   69.2150  225.4820 C   0  0  0  0  0  0  0  0  0  0  0  0
  140.6150   69.4220  226.3580 C   0  0  0  0  0  0  0  0  0  0  0  0
  141.0130   68.2440  227.6050 Cl  0  0  0  0  0  0  0  0  0  0  0  0
  141.3750   70.5920  226.2540 C   0  0  0  0  0  0  0  0  0  0  0  0
  141.0590   71.5200  225.2720 C   0  0  0  0  0  0  0  0  0  0  0  0
  140.0060   71.2780  224.4130 C   0  0  0  0  0  0  0  0  0  0  0  0
  139.7160   72.1880  223.4690 N   0  0  0  0  0  0  0  0  0  0  0  0
  141.8846   71.1054  221.5487 H   0  0  0  0  0  0  0  0  0  0  0  0
  140.8651   70.8337  220.0949 H   0  0  0  0  0  0  0  0  0  0  0  0
  142.5853   70.3165  220.0949 H   0  0  0  0  0  0  0  0  0  0  0  0
  144.4804   70.8724  219.6180 H   0  0  0  0  0  0  0  0  0  0  0  0
  146.7694   71.6673  219.9515 H   0  0  0  0  0  0  0  0  0  0  0  0
  147.2557   73.9977  220.6586 H   0  0  0  0  0  0  0  0  0  0  0  0
  145.3209   75.5461  221.0301 H   0  0  0  0  0  0  0  0  0  0  0  0
  141.8990   74.6450  221.3210 H   0  0  0  0  0  0  0  0  0  0  0  0
  141.4245   77.5229  219.2764 H   0  0  0  0  0  0  0  0  0  0  0  0
  142.7743   78.0950  221.7282 H   0  0  0  0  0  0  0  0  0  0  0  0
  141.7260   79.1702  220.8131 H   0  0  0  0  0  0  0  0  0  0  0  0
  141.0211   78.2205  223.3123 H   0  0  0  0  0  0  0  0  0  0  0  0
  139.7768   78.5395  222.1521 H   0  0  0  0  0  0  0  0  0  0  0  0
  141.3733   75.8718  222.5344 H   0  0  0  0  0  0  0  0  0  0  0  0
  139.6569   76.0123  222.7296 H   0  0  0  0  0  0  0  0  0  0  0  0
  137.8955   74.4207  219.6509 H   0  0  0  0  0  0  0  0  0  0  0  0
  139.4554   74.0427  218.7148 H   0  0  0  0  0  0  0  0  0  0  0  0
  140.3570   73.0070  220.7120 H   0  0  0  0  0  0  0  0  0  0  0  0
  137.0870   70.7421  221.9395 H   0  0  0  0  0  0  0  0  0  0  0  0
  137.5634   68.9857  223.6821 H   0  0  0  0  0  0  0  0  0  0  0  0
  138.9775   68.2915  225.5737 H   0  0  0  0  0  0  0  0  0  0  0  0
  142.2132   70.7741  226.9426 H   0  0  0  0  0  0  0  0  0  0  0  0
  141.6458   72.4457  225.1784 H   0  0  0  0  0  0  0  0  0  0  0  0
  1  2  1  0
  2  3  1  0
  3  4  2  0
  4  5  1  0
  5  6  2  0
  6  7  1  0
  7  8  2  0
  8  9  1  0
  9 10  1  0
 10 11  2  0
 10 12  1  0
 12 13  1  0
 13 14  1  0
 14 15  1  0
 15 16  1  0
 16 17  1  0
 17 18  2  0
 17 19  1  0
 19 20  1  0
 20 21  1  0
 21 22  2  0
 21 23  1  0
 23 24  2  0
 24 25  1  0
 25 26  2  0
 26 27  1  0
 27 28  2  0
 28 29  1  0
 28 30  1  0
 30 31  2  0
 31 32  1  0
 32 33  2  0
  8  3  1  0
 16 12  1  0
 33 23  1  0
 32 26  1  0
  1 34  1  0
  1 35  1  0
  1 36  1  0
  4 37  1  0
  5 38  1  0
  6 39  1  0
  7 40  1  0
  9 41  1  0
 12 42  1  6
 13 43  1  0
 13 44  1  0
 14 45  1  0
 14 46  1  0
 15 47  1  0
 15 48  1  0
 19 49  1  0
 19 50  1  0
 20 51  1  0
 24 52  1  0
 25 53  1  0
 27 54  1  0
 30 55  1  0
 31 56  1  0
M  END
>  <smiles>  (1) 
COc1ccccc1NC(=O)[C@@H]1CCCN1C(=O)CNC(=O)c1ccc2cc(Cl)ccc2n1

>  <score_type>  (1) 
oracle

>  <origin>  (1) 
autodockgpu

>  <m_score__min__energy>  (1) 
-9

>  <m_primary>  (1) 
energy

>  <rmsd>  (1) 
4.957600986427504

>  <m_score__min__rmsd>  (1) 
4.957600986427504

>  <meeko>  (1) 
{"free_energy": -6.82, "intermolecular_energy": -8.91, "internal_energy": -3.21, "cluster_size": 10, "cluster_id": 2, "rank_in_cluster": 10}

>  <energy>  (1) 
-9.0

>  <cluster_rmsd>  (1) 
0.0

>  <cluster>  (1) 
1

$$$$

     RDKit          3D

 56 59  0  0  0  0  0  0  0  0999 V2000
  141.5820   74.3690  217.3720 C   0  0  0  0  0  0  0  0  0  0  0  0
  141.7100   73.3930  218.3750 O   0  0  0  0  0  0  0  0  0  0  0  0
  142.9260   73.2880  219.0460 C   0  0  0  0  0  0  0  0  0  0  0  0
  143.8970   72.3730  218.6870 C   0  0  0  0  0  0  0  0  0  0  0  0
  145.0840   72.3030  219.3770 C   0  0  0  0  0  0  0  0  0  0  0  0
  145.3720   73.1250  220.4480 C   0  0  0  0  0  0  0  0  0  0  0  0
  144.4030   74.0470  220.8160 C   0  0  0  0  0  0  0  0  0  0  0  0
  143.2040   74.1240  220.1260 C   0  0  0  0  0  0  0  0  0  0  0  0
  142.1880   75.0610  220.4810 N   0  0  0  0  0  0  0  0  0  0  0  0
  142.4040   76.4390  220.1280 C   0  0  0  0  0  0  0  0  0  0  0  0
  143.4770   76.7360  219.5270 O   0  0  0  0  0  0  0  0  0  0  0  0
  141.3640   77.4110  220.4890 C   0  0  2  0  0  0  0  0  0  0  0  0
  141.8660   78.6600  221.1440 C   0  0  0  0  0  0  0  0  0  0  0  0
  141.1450   78.6940  222.4790 C   0  0  0  0  0  0  0  0  0  0  0  0
  140.9240   77.1930  222.7000 C   0  0  0  0  0  0  0  0  0  0  0  0
  140.3650   76.8240  221.4220 N   0  0  0  0  0  0  0  0  0  0  0  0
  139.2340   76.1560  220.9610 C   0  0  0  0  0  0  0  0  0  0  0  0
  138.2250   76.9230  220.6610 O   0  0  0  0  0  0  0  0  0  0  0  0
  138.9590   74.7420  220.7420 C   0  0  0  0  0  0  0  0  0  0  0  0
  138.9780   73.8830  221.8820 N   0  0  0  0  0  0  0  0  0  0  0  0
  139.9080   72.7740  221.8390 C   0  0  0  0  0  0  0  0  0  0  0  0
  140.5970   72.6880  220.8060 O   0  0  0  0  0  0  0  0  0  0  0  0
  139.9880   71.8490  222.9640 C   0  0  0  0  0  0  0  0  0  0  0  0
  139.5800   70.5500  222.7450 C   0  0  0  0  0  0  0  0  0  0  0  0
  139.6320   69.6150  223.7850 C   0  0  0  0  0  0  0  0  0  0  0  0
  140.1030   70.0530  225.0180 C   0  0  0  0  0  0  0  0  0  0  0  0
  140.1930   69.2050  226.1100 C   0  0  0  0  0  0  0  0  0  0  0  0
  140.6600   69.6220  227.3410 C   0  0  0  0  0  0  0  0  0  0  0  0
  140.7590   68.5140  228.7070 Cl  0  0  0  0  0  0  0  0  0  0  0  0
  141.0600   70.9520  227.5080 C   0  0  0  0  0  0  0  0  0  0  0  0
  140.9800   71.8230  226.4310 C   0  0  0  0  0  0  0  0  0  0  0  0
  140.5100   71.3700  225.2150 C   0  0  0  0  0  0  0  0  0  0  0  0
  140.4400   72.2290  224.1850 N   0  0  0  0  0  0  0  0  0  0  0  0
  141.4524   75.3575  217.8367 H   0  0  0  0  0  0  0  0  0  0  0  0
  142.4872   74.3735  216.7471 H   0  0  0  0  0  0  0  0  0  0  0  0
  140.7062   74.1399  216.7471 H   0  0  0  0  0  0  0  0  0  0  0  0
  143.7185   71.6936  217.8405 H   0  0  0  0  0  0  0  0  0  0  0  0
  145.8343   71.5624  219.0631 H   0  0  0  0  0  0  0  0  0  0  0  0
  146.3285   73.0521  220.9863 H   0  0  0  0  0  0  0  0  0  0  0  0
  144.5883   74.7233  221.6635 H   0  0  0  0  0  0  0  0  0  0  0  0
  141.3090   74.7900  220.9780 H   0  0  0  0  0  0  0  0  0  0  0  0
  140.9223   77.6747  219.5167 H   0  0  0  0  0  0  0  0  0  0  0  0
  142.9553   78.6137  221.2897 H   0  0  0  0  0  0  0  0  0  0  0  0
  141.6766   79.5591  220.5391 H   0  0  0  0  0  0  0  0  0  0  0  0
  141.7699   79.1354  223.2694 H   0  0  0  0  0  0  0  0  0  0  0  0
  140.2302   79.3047  222.4963 H   0  0  0  0  0  0  0  0  0  0  0  0
  141.8697   76.6671  222.8977 H   0  0  0  0  0  0  0  0  0  0  0  0
  140.2952   76.9429  223.5672 H   0  0  0  0  0  0  0  0  0  0  0  0
  137.9592   74.6669  220.2894 H   0  0  0  0  0  0  0  0  0  0  0  0
  139.7884   74.3894  220.1114 H   0  0  0  0  0  0  0  0  0  0  0  0
  138.3720   73.9990  222.7380 H   0  0  0  0  0  0  0  0  0  0  0  0
  139.2136   70.2487  221.7526 H   0  0  0  0  0  0  0  0  0  0  0  0
  139.3125   68.5734  223.6330 H   0  0  0  0  0  0  0  0  0  0  0  0
  139.8798   68.1572  225.9917 H   0  0  0  0  0  0  0  0  0  0  0  0
  141.4334   71.3030  228.4813 H   0  0  0  0  0  0  0  0  0  0  0  0
  141.2904   72.8720  226.5460 H   0  0  0  0  0  0  0  0  0  0  0  0
  1  2  1  0
  2  3  1  0
  3  4  2  0
  4  5  1  0
  5  6  2  0
  6  7  1  0
  7  8  2  0
  8  9  1  0
  9 10  1  0
 10 11  2  0
 10 12  1  0
 12 13  1  0
 13 14  1  0
 14 15  1  0
 15 16  1  0
 16 17  1  0
 17 18  2  0
 17 19  1  0
 19 20  1  0
 20 21  1  0
 21 22  2  0
 21 23  1  0
 23 24  2  0
 24 25  1  0
 25 26  2  0
 26 27  1  0
 27 28  2  0
 28 29  1  0
 28 30  1  0
 30 31  2  0
 31 32  1  0
 32 33  2  0
  8  3  1  0
 16 12  1  0
 33 23  1  0
 32 26  1  0
  1 34  1  0
  1 35  1  0
  1 36  1  0
  4 37  1  0
  5 38  1  0
  6 39  1  0
  7 40  1  0
  9 41  1  0
 12 42  1  6
 13 43  1  0
 13 44  1  0
 14 45  1  0
 14 46  1  0
 15 47  1  0
 15 48  1  0
 19 49  1  0
 19 50  1  0
 20 51  1  0
 24 52  1  0
 25 53  1  0
 27 54  1  0
 30 55  1  0
 31 56  1  0
M  END
>  <smiles>  (2) 
COc1ccccc1NC(=O)[C@@H]1CCCN1C(=O)CNC(=O)c1ccc2cc(Cl)ccc2n1

>  <score_type>  (2) 
oracle

>  <origin>  (2) 
autodockgpu

>  <m_score__min__energy>  (2) 
-9

>  <m_primary>  (2) 
energy

>  <rmsd>  (2) 
4.834428501090224

>  <m_score__min__rmsd>  (2) 
4.834428501090224

>  <meeko>  (2) 
{"free_energy": -7.88, "intermolecular_energy": -9.97, "internal_energy": -3.14, "cluster_size": 10, "cluster_id": 2, "rank_in_cluster": 7}

>  <energy>  (2) 
-8.58

>  <cluster_rmsd>  (2) 
0.65

>  <cluster>  (2) 
1

$$$$

     RDKit          3D

 56 59  0  0  0  0  0  0  0  0999 V2000
  136.3110   71.6090  222.8080 C   0  0  0  0  0  0  0  0  0  0  0  0
  136.3420   73.0010  222.9930 O   0  0  0  0  0  0  0  0  0  0  0  0
  135.5690   73.5510  224.0120 C   0  0  0  0  0  0  0  0  0  0  0  0
  134.6510   72.8100  224.7320 C   0  0  0  0  0  0  0  0  0  0  0  0
  133.9080   73.3930  225.7310 C   0  0  0  0  0  0  0  0  0  0  0  0
  134.0290   74.7260  226.0680 C   0  0  0  0  0  0  0  0  0  0  0  0
  134.9470   75.4790  225.3500 C   0  0  0  0  0  0  0  0  0  0  0  0
  135.7000   74.8990  224.3420 C   0  0  0  0  0  0  0  0  0  0  0  0
  136.6520   75.6470  223.5860 N   0  0  0  0  0  0  0  0  0  0  0  0
  136.2310   76.9200  223.0630 C   0  0  0  0  0  0  0  0  0  0  0  0
  135.0480   77.2960  223.3020 O   0  0  0  0  0  0  0  0  0  0  0  0
  137.2050   77.6960  222.2840 C   0  0  2  0  0  0  0  0  0  0  0  0
  136.6930   78.9980  221.7510 C   0  0  0  0  0  0  0  0  0  0  0  0
  136.8840   78.8840  220.2500 C   0  0  0  0  0  0  0  0  0  0  0  0
  136.7860   77.3630  220.0840 C   0  0  0  0  0  0  0  0  0  0  0  0
  137.7040   76.9320  221.1100 N   0  0  0  0  0  0  0  0  0  0  0  0
  138.8120   76.0940  221.1960 C   0  0  0  0  0  0  0  0  0  0  0  0
  139.9050   76.6670  221.6130 O   0  0  0  0  0  0  0  0  0  0  0  0
  138.9860   74.6760  220.9100 C   0  0  0  0  0  0  0  0  0  0  0  0
  138.9740   73.7750  222.0170 N   0  0  0  0  0  0  0  0  0  0  0  0
  139.9510   72.7060  221.9890 C   0  0  0  0  0  0  0  0  0  0  0  0
  140.7030   72.6880  220.9970 O   0  0  0  0  0  0  0  0  0  0  0  0
  140.0050   71.7420  223.0830 C   0  0  0  0  0  0  0  0  0  0  0  0
  139.5450   70.4670  222.8250 C   0  0  0  0  0  0  0  0  0  0  0  0
  139.5690   69.4970  223.8330 C   0  0  0  0  0  0  0  0  0  0  0  0
  140.0670   69.8760  225.0750 C   0  0  0  0  0  0  0  0  0  0  0  0
  140.1320   68.9890  226.1380 C   0  0  0  0  0  0  0  0  0  0  0  0
  140.6240   69.3470  227.3780 C   0  0  0  0  0  0  0  0  0  0  0  0
  140.6910   68.1920  228.7060 Cl  0  0  0  0  0  0  0  0  0  0  0  0
  141.0770   70.6540  227.5850 C   0  0  0  0  0  0  0  0  0  0  0  0
  141.0220   71.5630  226.5380 C   0  0  0  0  0  0  0  0  0  0  0  0
  140.5250   71.1690  225.3120 C   0  0  0  0  0  0  0  0  0  0  0  0
  140.4810   72.0630  224.3110 N   0  0  0  0  0  0  0  0  0  0  0  0
  136.2999   71.1091  223.7878 H   0  0  0  0  0  0  0  0  0  0  0  0
  135.4065   71.3339  222.2457 H   0  0  0  0  0  0  0  0  0  0  0  0
  137.2024   71.2939  222.2457 H   0  0  0  0  0  0  0  0  0  0  0  0
  134.5135   71.7428  224.5033 H   0  0  0  0  0  0  0  0  0  0  0  0
  133.1880   72.7720  226.2841 H   0  0  0  0  0  0  0  0  0  0  0  0
  133.4239   75.1721  226.8710 H   0  0  0  0  0  0  0  0  0  0  0  0
  135.0781   76.5460  225.5832 H   0  0  0  0  0  0  0  0  0  0  0  0
  137.6260   75.3130  223.4030 H   0  0  0  0  0  0  0  0  0  0  0  0
  138.0008   77.9010  223.0153 H   0  0  0  0  0  0  0  0  0  0  0  0
  135.6299   79.1311  222.0004 H   0  0  0  0  0  0  0  0  0  0  0  0
  137.2177   79.8650  222.1788 H   0  0  0  0  0  0  0  0  0  0  0  0
  136.0902   79.4071  219.6966 H   0  0  0  0  0  0  0  0  0  0  0  0
  137.8116   79.3332  219.8655 H   0  0  0  0  0  0  0  0  0  0  0  0
  135.7654   76.9981  220.2716 H   0  0  0  0  0  0  0  0  0  0  0  0
  137.0181   76.9942  219.0740 H   0  0  0  0  0  0  0  0  0  0  0  0
  138.1748   74.3747  220.2309 H   0  0  0  0  0  0  0  0  0  0  0  0
  140.0012   74.5961  220.4941 H   0  0  0  0  0  0  0  0  0  0  0  0
  138.3150   73.8330  222.8380 H   0  0  0  0  0  0  0  0  0  0  0  0
  139.1593   70.2131  221.8266 H   0  0  0  0  0  0  0  0  0  0  0  0
  139.2079   68.4741  223.6502 H   0  0  0  0  0  0  0  0  0  0  0  0
  139.7775   67.9585  225.9881 H   0  0  0  0  0  0  0  0  0  0  0  0
  141.4720   70.9576  228.5657 H   0  0  0  0  0  0  0  0  0  0  0  0
  141.3736   72.5949  226.6846 H   0  0  0  0  0  0  0  0  0  0  0  0
  1  2  1  0
  2  3  1  0
  3  4  2  0
  4  5  1  0
  5  6  2  0
  6  7  1  0
  7  8  2  0
  8  9  1  0
  9 10  1  0
 10 11  2  0
 10 12  1  0
 12 13  1  0
 13 14  1  0
 14 15  1  0
 15 16  1  0
 16 17  1  0
 17 18  2  0
 17 19  1  0
 19 20  1  0
 20 21  1  0
 21 22  2  0
 21 23  1  0
 23 24  2  0
 24 25  1  0
 25 26  2  0
 26 27  1  0
 27 28  2  0
 28 29  1  0
 28 30  1  0
 30 31  2  0
 31 32  1  0
 32 33  2  0
  8  3  1  0
 16 12  1  0
 33 23  1  0
 32 26  1  0
  1 34  1  0
  1 35  1  0
  1 36  1  0
  4 37  1  0
  5 38  1  0
  6 39  1  0
  7 40  1  0
  9 41  1  0
 12 42  1  1
 13 43  1  0
 13 44  1  0
 14 45  1  0
 14 46  1  0
 15 47  1  0
 15 48  1  0
 19 49  1  0
 19 50  1  0
 20 51  1  0
 24 52  1  0
 25 53  1  0
 27 54  1  0
 30 55  1  0
 31 56  1  0
M  END
>  <smiles>  (3) 
COc1ccccc1NC(=O)[C@@H]1CCCN1C(=O)CNC(=O)c1ccc2cc(Cl)ccc2n1

>  <score_type>  (3) 
oracle

>  <origin>  (3) 
autodockgpu

>  <m_score__min__energy>  (3) 
-9

>  <m_primary>  (3) 
energy

>  <rmsd>  (3) 
5.5553926426131595

>  <m_score__min__rmsd>  (3) 
5.5553926426131595

>  <meeko>  (3) 
{"free_energy": -7.13, "intermolecular_energy": -9.22, "internal_energy": -3.08, "cluster_size": 2, "cluster_id": 7, "rank_in_cluster": 2}

>  <energy>  (3) 
-8.25

>  <cluster_rmsd>  (3) 
1.61

>  <cluster>  (3) 
1

$$$$

     RDKit          3D

 56 59  0  0  0  0  0  0  0  0999 V2000
  136.2850   71.5110  223.4910 C   0  0  0  0  0  0  0  0  0  0  0  0
  136.1230   72.9010  223.3640 O   0  0  0  0  0  0  0  0  0  0  0  0
  135.3620   73.5690  224.3190 C   0  0  0  0  0  0  0  0  0  0  0  0
  134.4300   72.9250  225.1110 C   0  0  0  0  0  0  0  0  0  0  0  0
  133.6990   73.6220  226.0430 C   0  0  0  0  0  0  0  0  0  0  0  0
  133.8470   74.9800  226.2410 C   0  0  0  0  0  0  0  0  0  0  0  0
  134.7790   75.6360  225.4500 C   0  0  0  0  0  0  0  0  0  0  0  0
  135.5210   74.9400  224.5090 C   0  0  0  0  0  0  0  0  0  0  0  0
  136.4870   75.5870  223.6820 N   0  0  0  0  0  0  0  0  0  0  0  0
  136.1140   76.8400  223.0810 C   0  0  0  0  0  0  0  0  0  0  0  0
  134.9570   77.2900  223.3190 O   0  0  0  0  0  0  0  0  0  0  0  0
  137.1030   77.5120  222.2280 C   0  0  2  0  0  0  0  0  0  0  0  0
  136.6280   78.7810  221.5900 C   0  0  0  0  0  0  0  0  0  0  0  0
  136.7950   78.5310  220.1020 C   0  0  0  0  0  0  0  0  0  0  0  0
  136.6440   77.0050  220.0700 C   0  0  0  0  0  0  0  0  0  0  0  0
  137.5600   76.6330  221.1190 N   0  0  0  0  0  0  0  0  0  0  0  0
  138.6410   75.7670  221.2660 C   0  0  0  0  0  0  0  0  0  0  0  0
  139.7320   76.3200  221.7150 O   0  0  0  0  0  0  0  0  0  0  0  0
  138.7870   74.3390  221.0160 C   0  0  0  0  0  0  0  0  0  0  0  0
  138.7990   73.4710  222.1490 N   0  0  0  0  0  0  0  0  0  0  0  0
  139.8130   72.4370  222.1590 C   0  0  0  0  0  0  0  0  0  0  0  0
  140.5720   72.4170  221.1730 O   0  0  0  0  0  0  0  0  0  0  0  0
  139.8920   71.5080  223.2800 C   0  0  0  0  0  0  0  0  0  0  0  0
  139.4440   70.2200  223.0680 C   0  0  0  0  0  0  0  0  0  0  0  0
  139.4920   69.2810  224.1040 C   0  0  0  0  0  0  0  0  0  0  0  0
  140.0020   69.7040  225.3280 C   0  0  0  0  0  0  0  0  0  0  0  0
  140.0920   68.8500  226.4160 C   0  0  0  0  0  0  0  0  0  0  0  0
  140.5950   69.2520  227.6380 C   0  0  0  0  0  0  0  0  0  0  0  0
  140.6940   68.1380  228.9990 Cl  0  0  0  0  0  0  0  0  0  0  0  0
  141.0350   70.5700  227.7990 C   0  0  0  0  0  0  0  0  0  0  0  0
  140.9560   71.4460  226.7260 C   0  0  0  0  0  0  0  0  0  0  0  0
  140.4480   71.0080  225.5190 C   0  0  0  0  0  0  0  0  0  0  0  0
  140.3800   71.8710  224.4920 N   0  0  0  0  0  0  0  0  0  0  0  0
  136.3164   71.2414  224.5570 H   0  0  0  0  0  0  0  0  0  0  0  0
  135.4406   70.9978  223.0077 H   0  0  0  0  0  0  0  0  0  0  0  0
  137.2248   71.2057  223.0077 H   0  0  0  0  0  0  0  0  0  0  0  0
  134.2716   71.8428  224.9940 H   0  0  0  0  0  0  0  0  0  0  0  0
  132.9667   73.0758  226.6557 H   0  0  0  0  0  0  0  0  0  0  0  0
  133.2519   75.5186  226.9932 H   0  0  0  0  0  0  0  0  0  0  0  0
  134.9305   76.7188  225.5709 H   0  0  0  0  0  0  0  0  0  0  0  0
  137.4390   75.1930  223.5010 H   0  0  0  0  0  0  0  0  0  0  0  0
  137.9150   77.7513  222.9304 H   0  0  0  0  0  0  0  0  0  0  0  0
  135.5735   78.9721  221.8381 H   0  0  0  0  0  0  0  0  0  0  0  0
  137.1872   79.6629  221.9358 H   0  0  0  0  0  0  0  0  0  0  0  0
  136.0117   79.0312  219.5135 H   0  0  0  0  0  0  0  0  0  0  0  0
  137.7317   78.9131  219.6702 H   0  0  0  0  0  0  0  0  0  0  0  0
  135.6144   76.6931  220.2993 H   0  0  0  0  0  0  0  0  0  0  0  0
  136.8502   76.5425  219.0935 H   0  0  0  0  0  0  0  0  0  0  0  0
  137.9503   74.0296  220.3724 H   0  0  0  0  0  0  0  0  0  0  0  0
  139.7869   74.2326  220.5700 H   0  0  0  0  0  0  0  0  0  0  0  0
  138.1320   73.5300  222.9650 H   0  0  0  0  0  0  0  0  0  0  0  0
  139.0486   69.9312  222.0830 H   0  0  0  0  0  0  0  0  0  0  0  0
  139.1405   68.2491  223.9570 H   0  0  0  0  0  0  0  0  0  0  0  0
  139.7493   67.8110  226.3018 H   0  0  0  0  0  0  0  0  0  0  0  0
  141.4388   70.9079  228.7648 H   0  0  0  0  0  0  0  0  0  0  0  0
  141.2969   72.4860  226.8364 H   0  0  0  0  0  0  0  0  0  0  0  0
  1  2  1  0
  2  3  1  0
  3  4  2  0
  4  5  1  0
  5  6  2  0
  6  7  1  0
  7  8  2  0
  8  9  1  0
  9 10  1  0
 10 11  2  0
 10 12  1  0
 12 13  1  0
 13 14  1  0
 14 15  1  0
 15 16  1  0
 16 17  1  0
 17 18  2  0
 17 19  1  0
 19 20  1  0
 20 21  1  0
 21 22  2  0
 21 23  1  0
 23 24  2  0
 24 25  1  0
 25 26  2  0
 26 27  1  0
 27 28  2  0
 28 29  1  0
 28 30  1  0
 30 31  2  0
 31 32  1  0
 32 33  2  0
  8  3  1  0
 16 12  1  0
 33 23  1  0
 32 26  1  0
  1 34  1  0
  1 35  1  0
  1 36  1  0
  4 37  1  0
  5 38  1  0
  6 39  1  0
  7 40  1  0
  9 41  1  0
 12 42  1  1
 13 43  1  0
 13 44  1  0
 14 45  1  0
 14 46  1  0
 15 47  1  0
 15 48  1  0
 19 49  1  0
 19 50  1  0
 20 51  1  0
 24 52  1  0
 25 53  1  0
 27 54  1  0
 30 55  1  0
 31 56  1  0
M  END
>  <smiles>  (4) 
COc1ccccc1NC(=O)[C@@H]1CCCN1C(=O)CNC(=O)c1ccc2cc(Cl)ccc2n1

>  <score_type>  (4) 
oracle

>  <origin>  (4) 
autodockgpu

>  <m_score__min__energy>  (4) 
-9

>  <m_primary>  (4) 
energy

>  <rmsd>  (4) 
5.564204678428439

>  <m_score__min__rmsd>  (4) 
5.564204678428439

>  <meeko>  (4) 
{"free_energy": -7.22, "intermolecular_energy": -9.31, "internal_energy": -3.03, "cluster_size": 2, "cluster_id": 7, "rank_in_cluster": 1}

>  <energy>  (4) 
-8.24

>  <cluster_rmsd>  (4) 
0.69

>  <cluster>  (4) 
1

$$$$

     RDKit          3D

 56 59  0  0  0  0  0  0  0  0999 V2000
  141.8630   71.1210  220.1810 C   0  0  0  0  0  0  0  0  0  0  0  0
  142.2800   72.4350  219.9140 O   0  0  0  0  0  0  0  0  0  0  0  0
  143.6240   72.7520  220.0890 C   0  0  0  0  0  0  0  0  0  0  0  0
  144.6420   71.8610  219.8060 C   0  0  0  0  0  0  0  0  0  0  0  0
  145.9570   72.2150  219.9930 C   0  0  0  0  0  0  0  0  0  0  0  0
  146.3330   73.4560  220.4660 C   0  0  0  0  0  0  0  0  0  0  0  0
  145.3190   74.3580  220.7540 C   0  0  0  0  0  0  0  0  0  0  0  0
  143.9910   74.0090  220.5680 C   0  0  0  0  0  0  0  0  0  0  0  0
  142.9260   74.9140  220.8550 N   0  0  0  0  0  0  0  0  0  0  0  0
  142.3230   75.6020  219.7450 C   0  0  0  0  0  0  0  0  0  0  0  0
  142.7710   75.3660  218.5860 O   0  0  0  0  0  0  0  0  0  0  0  0
  141.2260   76.5360  220.0310 C   0  0  2  0  0  0  0  0  0  0  0  0
  141.6250   77.7660  220.7860 C   0  0  0  0  0  0  0  0  0  0  0  0
  140.7650   77.7290  222.0360 C   0  0  0  0  0  0  0  0  0  0  0  0
  140.5590   76.2150  222.1710 C   0  0  0  0  0  0  0  0  0  0  0  0
  140.1480   75.8900  220.8270 N   0  0  0  0  0  0  0  0  0  0  0  0
  139.0890   75.2190  220.2210 C   0  0  0  0  0  0  0  0  0  0  0  0
  139.0690   75.2850  218.9200 O   0  0  0  0  0  0  0  0  0  0  0  0
  137.9860   74.4420  220.7700 C   0  0  0  0  0  0  0  0  0  0  0  0
  138.2450   73.6690  221.9410 N   0  0  0  0  0  0  0  0  0  0  0  0
  138.8010   72.3480  221.7330 C   0  0  0  0  0  0  0  0  0  0  0  0
  138.9970   72.0270  220.5470 O   0  0  0  0  0  0  0  0  0  0  0  0
  139.0930   71.4940  222.8790 C   0  0  0  0  0  0  0  0  0  0  0  0
  138.6030   70.2050  222.8480 C   0  0  0  0  0  0  0  0  0  0  0  0
  138.8480   69.3370  223.9170 C   0  0  0  0  0  0  0  0  0  0  0  0
  139.5930   69.8290  224.9840 C   0  0  0  0  0  0  0  0  0  0  0  0
  139.8900   69.0480  226.0910 C   0  0  0  0  0  0  0  0  0  0  0  0
  140.6280   69.5190  227.1580 C   0  0  0  0  0  0  0  0  0  0  0  0
  140.9850   68.4970  228.5480 Cl  0  0  0  0  0  0  0  0  0  0  0  0
  141.1000   70.8360  227.1380 C   0  0  0  0  0  0  0  0  0  0  0  0
  140.8170   71.6400  226.0430 C   0  0  0  0  0  0  0  0  0  0  0  0
  140.0770   71.1340  224.9930 C   0  0  0  0  0  0  0  0  0  0  0  0
  139.8140   71.9280  223.9430 N   0  0  0  0  0  0  0  0  0  0  0  0
  141.8138   70.9659  221.2689 H   0  0  0  0  0  0  0  0  0  0  0  0
  140.8682   70.9556  219.7416 H   0  0  0  0  0  0  0  0  0  0  0  0
  142.5804   70.4122  219.7416 H   0  0  0  0  0  0  0  0  0  0  0  0
  144.3972   70.8578  219.4270 H   0  0  0  0  0  0  0  0  0  0  0  0
  146.7407   71.4802  219.7563 H   0  0  0  0  0  0  0  0  0  0  0  0
  147.3916   73.7187  220.6086 H   0  0  0  0  0  0  0  0  0  0  0  0
  145.5715   75.3592  221.1334 H   0  0  0  0  0  0  0  0  0  0  0  0
  142.5730   75.0920  221.8230 H   0  0  0  0  0  0  0  0  0  0  0  0
  140.8833   76.8312  219.0283 H   0  0  0  0  0  0  0  0  0  0  0  0
  142.6934   77.7350  221.0461 H   0  0  0  0  0  0  0  0  0  0  0  0
  141.4796   78.6860  220.2008 H   0  0  0  0  0  0  0  0  0  0  0  0
  141.2908   78.1489  222.9062 H   0  0  0  0  0  0  0  0  0  0  0  0
  139.8389   78.3199  221.9796 H   0  0  0  0  0  0  0  0  0  0  0  0
  141.4912   75.7004  222.4472 H   0  0  0  0  0  0  0  0  0  0  0  0
  139.8482   75.9151  222.9551 H   0  0  0  0  0  0  0  0  0  0  0  0
  137.1755   75.1453  221.0117 H   0  0  0  0  0  0  0  0  0  0  0  0
  137.7491   73.7018  219.9916 H   0  0  0  0  0  0  0  0  0  0  0  0
  138.0620   73.9880  222.9300 H   0  0  0  0  0  0  0  0  0  0  0  0
  138.0192   69.8595  221.9821 H   0  0  0  0  0  0  0  0  0  0  0  0
  138.4664   68.3053  223.9142 H   0  0  0  0  0  0  0  0  0  0  0  0
  139.5226   68.0116  226.1198 H   0  0  0  0  0  0  0  0  0  0  0  0
  141.6883   71.2293  227.9801 H   0  0  0  0  0  0  0  0  0  0  0  0
  141.1812   72.6775  226.0116 H   0  0  0  0  0  0  0  0  0  0  0  0
  1  2  1  0
  2  3  1  0
  3  4  2  0
  4  5  1  0
  5  6  2  0
  6  7  1  0
  7  8  2  0
  8  9  1  0
  9 10  1  0
 10 11  2  0
 10 12  1  0
 12 13  1  0
 13 14  1  0
 14 15  1  0
 15 16  1  0
 16 17  1  0
 17 18  2  0
 17 19  1  0
 19 20  1  0
 20 21  1  0
 21 22  2  0
 21 23  1  0
 23 24  2  0
 24 25  1  0
 25 26  2  0
 26 27  1  0
 27 28  2  0
 28 29  1  0
 28 30  1  0
 30 31  2  0
 31 32  1  0
 32 33  2  0
  8  3  1  0
 16 12  1  0
 33 23  1  0
 32 26  1  0
  1 34  1  0
  1 35  1  0
  1 36  1  0
  4 37  1  0
  5 38  1  0
  6 39  1  0
  7 40  1  0
  9 41  1  0
 12 42  1  6
 13 43  1  0
 13 44  1  0
 14 45  1  0
 14 46  1  0
 15 47  1  0
 15 48  1  0
 19 49  1  0
 19 50  1  0
 20 51  1  0
 24 52  1  0
 25 53  1  0
 27 54  1  0
 30 55  1  0
 31 56  1  0
M  END
>  <smiles>  (5) 
COc1ccccc1NC(=O)[C@@H]1CCCN1C(=O)CNC(=O)c1ccc2cc(Cl)ccc2n1

>  <score_type>  (5) 
oracle

>  <origin>  (5) 
autodockgpu

>  <m_score__min__energy>  (5) 
-9

>  <m_primary>  (5) 
energy

>  <rmsd>  (5) 
4.819535216354839

>  <m_score__min__rmsd>  (5) 
4.819535216354839

>  <meeko>  (5) 
{"free_energy": -8.16, "intermolecular_energy": -10.25, "internal_energy": -2.38, "cluster_size": 10, "cluster_id": 2, "rank_in_cluster": 3}

>  <energy>  (5) 
-8.21

>  <cluster_rmsd>  (5) 
1.65

>  <cluster>  (5) 
1

$$$$

     RDKit          3D

 56 59  0  0  0  0  0  0  0  0999 V2000
  140.7530   71.4510  223.9070 C   0  0  0  0  0  0  0  0  0  0  0  0
  140.3690   71.8800  225.1880 O   0  0  0  0  0  0  0  0  0  0  0  0
  140.3560   70.9490  226.2220 C   0  0  0  0  0  0  0  0  0  0  0  0
  141.0950   71.1110  227.3790 C   0  0  0  0  0  0  0  0  0  0  0  0
  141.0520   70.1670  228.3770 C   0  0  0  0  0  0  0  0  0  0  0  0
  140.2860   69.0220  228.2860 C   0  0  0  0  0  0  0  0  0  0  0  0
  139.5410   68.8490  227.1290 C   0  0  0  0  0  0  0  0  0  0  0  0
  139.5780   69.7970  226.1180 C   0  0  0  0  0  0  0  0  0  0  0  0
  138.8230   69.6480  224.9170 N   0  0  0  0  0  0  0  0  0  0  0  0
  138.7810   68.3400  224.3170 C   0  0  0  0  0  0  0  0  0  0  0  0
  139.4140   67.4070  224.8880 O   0  0  0  0  0  0  0  0  0  0  0  0
  138.0060   68.1780  223.0800 C   0  0  2  0  0  0  0  0  0  0  0  0
  138.2120   66.8750  222.3720 C   0  0  0  0  0  0  0  0  0  0  0  0
  138.6980   67.2770  220.9910 C   0  0  0  0  0  0  0  0  0  0  0  0
  139.3670   68.6160  221.3250 C   0  0  0  0  0  0  0  0  0  0  0  0
  138.3200   69.2450  222.0920 N   0  0  0  0  0  0  0  0  0  0  0  0
  137.6300   70.4540  222.0730 C   0  0  0  0  0  0  0  0  0  0  0  0
  138.3200   71.4870  222.4650 O   0  0  0  0  0  0  0  0  0  0  0  0
  136.2660   70.7920  221.6880 C   0  0  0  0  0  0  0  0  0  0  0  0
  135.6560   71.9060  222.3390 N   0  0  0  0  0  0  0  0  0  0  0  0
  135.6510   71.8840  223.7870 C   0  0  0  0  0  0  0  0  0  0  0  0
  136.1850   70.8900  224.3130 O   0  0  0  0  0  0  0  0  0  0  0  0
  135.0460   72.9850  224.5280 C   0  0  0  0  0  0  0  0  0  0  0  0
  135.5000   74.2580  224.2530 C   0  0  0  0  0  0  0  0  0  0  0  0
  134.9590   75.3560  224.9310 C   0  0  0  0  0  0  0  0  0  0  0  0
  133.9670   75.1030  225.8730 C   0  0  0  0  0  0  0  0  0  0  0  0
  133.3690   76.1220  226.5980 C   0  0  0  0  0  0  0  0  0  0  0  0
  132.3830   75.8900  227.5360 C   0  0  0  0  0  0  0  0  0  0  0  0
  131.6470   77.2110  228.4380 Cl  0  0  0  0  0  0  0  0  0  0  0  0
  131.9610   74.5780  227.7760 C   0  0  0  0  0  0  0  0  0  0  0  0
  132.5430   73.5380  227.0650 C   0  0  0  0  0  0  0  0  0  0  0  0
  133.5250   73.8090  226.1340 C   0  0  0  0  0  0  0  0  0  0  0  0
  134.0760   72.7890  225.4560 N   0  0  0  0  0  0  0  0  0  0  0  0
  141.4842   70.6342  223.9977 H   0  0  0  0  0  0  0  0  0  0  0  0
  139.8686   71.0924  223.3600 H   0  0  0  0  0  0  0  0  0  0  0  0
  141.2070   72.2904  223.3600 H   0  0  0  0  0  0  0  0  0  0  0  0
  141.7241   72.0049  227.5022 H   0  0  0  0  0  0  0  0  0  0  0  0
  141.6519   70.3303  229.2845 H   0  0  0  0  0  0  0  0  0  0  0  0
  140.2673   68.2786  229.0966 H   0  0  0  0  0  0  0  0  0  0  0  0
  138.9153   67.9518  227.0125 H   0  0  0  0  0  0  0  0  0  0  0  0
  138.3070   70.4370  224.4640 H   0  0  0  0  0  0  0  0  0  0  0  0
  136.9645   68.2289  223.4303 H   0  0  0  0  0  0  0  0  0  0  0  0
  138.9669   66.2646  222.8893 H   0  0  0  0  0  0  0  0  0  0  0  0
  137.2977   66.2644  222.3367 H   0  0  0  0  0  0  0  0  0  0  0  0
  139.4174   66.5513  220.5839 H   0  0  0  0  0  0  0  0  0  0  0  0
  137.9146   67.3293  220.2206 H   0  0  0  0  0  0  0  0  0  0  0  0
  140.2805   68.4765  221.9217 H   0  0  0  0  0  0  0  0  0  0  0  0
  139.7056   69.1914  220.4508 H   0  0  0  0  0  0  0  0  0  0  0  0
  136.2707   71.0029  220.6084 H   0  0  0  0  0  0  0  0  0  0  0  0
  135.6643   69.9236  221.9942 H   0  0  0  0  0  0  0  0  0  0  0  0
  135.2150   72.7290  221.8470 H   0  0  0  0  0  0  0  0  0  0  0  0
  136.2877   74.4102  223.5004 H   0  0  0  0  0  0  0  0  0  0  0  0
  135.3049   76.3801  224.7270 H   0  0  0  0  0  0  0  0  0  0  0  0
  133.6933   77.1577  226.4186 H   0  0  0  0  0  0  0  0  0  0  0  0
  131.1769   74.3731  228.5197 H   0  0  0  0  0  0  0  0  0  0  0  0
  132.2226   72.5009  227.2430 H   0  0  0  0  0  0  0  0  0  0  0  0
  1  2  1  0
  2  3  1  0
  3  4  2  0
  4  5  1  0
  5  6  2  0
  6  7  1  0
  7  8  2  0
  8  9  1  0
  9 10  1  0
 10 11  2  0
 10 12  1  0
 12 13  1  0
 13 14  1  0
 14 15  1  0
 15 16  1  0
 16 17  1  0
 17 18  2  0
 17 19  1  0
 19 20  1  0
 20 21  1  0
 21 22  2  0
 21 23  1  0
 23 24  2  0
 24 25  1  0
 25 26  2  0
 26 27  1  0
 27 28  2  0
 28 29  1  0
 28 30  1  0
 30 31  2  0
 31 32  1  0
 32 33  2  0
  8  3  1  0
 16 12  1  0
 33 23  1  0
 32 26  1  0
  1 34  1  0
  1 35  1  0
  1 36  1  0
  4 37  1  0
  5 38  1  0
  6 39  1  0
  7 40  1  0
  9 41  1  0
 12 42  1  1
 13 43  1  0
 13 44  1  0
 14 45  1  0
 14 46  1  0
 15 47  1  0
 15 48  1  0
 19 49  1  0
 19 50  1  0
 20 51  1  0
 24 52  1  0
 25 53  1  0
 27 54  1  0
 30 55  1  0
 31 56  1  0
M  END
>  <smiles>  (6) 
COc1ccccc1NC(=O)[C@@H]1CCCN1C(=O)CNC(=O)c1ccc2cc(Cl)ccc2n1

>  <score_type>  (6) 
oracle

>  <origin>  (6) 
autodockgpu

>  <m_score__min__energy>  (6) 
-9

>  <m_primary>  (6) 
energy

>  <rmsd>  (6) 
9.393518212335302

>  <m_score__min__rmsd>  (6) 
9.393518212335302

>  <meeko>  (6) 
{"free_energy": -7.24, "intermolecular_energy": -9.33, "internal_energy": -3.24, "cluster_size": 2, "cluster_id": 6, "rank_in_cluster": 1}

>  <energy>  (6) 
-8.15

>  <cluster_rmsd>  (6) 
0.81

>  <cluster>  (6) 
1

$$$$

     RDKit          3D

 56 59  0  0  0  0  0  0  0  0999 V2000
  138.5300   78.6720  221.6800 C   0  0  0  0  0  0  0  0  0  0  0  0
  139.2750   78.5020  222.8580 O   0  0  0  0  0  0  0  0  0  0  0  0
  140.3950   79.3050  223.0550 C   0  0  0  0  0  0  0  0  0  0  0  0
  140.3320   80.5240  223.7040 C   0  0  0  0  0  0  0  0  0  0  0  0
  141.4630   81.2860  223.8780 C   0  0  0  0  0  0  0  0  0  0  0  0
  142.7040   80.8890  223.4240 C   0  0  0  0  0  0  0  0  0  0  0  0
  142.7790   79.6680  222.7710 C   0  0  0  0  0  0  0  0  0  0  0  0
  141.6430   78.8930  222.5920 C   0  0  0  0  0  0  0  0  0  0  0  0
  141.6880   77.6330  221.9250 N   0  0  0  0  0  0  0  0  0  0  0  0
  141.7930   77.6450  220.4900 C   0  0  0  0  0  0  0  0  0  0  0  0
  141.8370   78.7670  219.9080 O   0  0  0  0  0  0  0  0  0  0  0  0
  141.8390   76.3510  219.7950 C   0  0  2  0  0  0  0  0  0  0  0  0
  142.2110   76.4250  218.3470 C   0  0  0  0  0  0  0  0  0  0  0  0
  141.0340   75.7880  217.6300 C   0  0  0  0  0  0  0  0  0  0  0  0
  139.9140   76.0980  218.6310 C   0  0  0  0  0  0  0  0  0  0  0  0
  140.5300   75.6480  219.8550 N   0  0  0  0  0  0  0  0  0  0  0  0
  140.2030   74.7930  220.9050 C   0  0  0  0  0  0  0  0  0  0  0  0
  140.9540   74.9070  221.9620 O   0  0  0  0  0  0  0  0  0  0  0  0
  139.1610   73.7850  221.0510 C   0  0  0  0  0  0  0  0  0  0  0  0
  138.1870   73.9880  222.0740 N   0  0  0  0  0  0  0  0  0  0  0  0
  137.3640   75.1740  221.9550 C   0  0  0  0  0  0  0  0  0  0  0  0
  137.5950   75.8930  220.9650 O   0  0  0  0  0  0  0  0  0  0  0  0
  136.3460   75.4550  222.9600 C   0  0  0  0  0  0  0  0  0  0  0  0
  135.9430   76.7670  223.1030 C   0  0  0  0  0  0  0  0  0  0  0  0
  134.9700   77.1020  224.0500 C   0  0  0  0  0  0  0  0  0  0  0  0
  134.4440   76.0700  224.8210 C   0  0  0  0  0  0  0  0  0  0  0  0
  133.4760   76.2990  225.7870 C   0  0  0  0  0  0  0  0  0  0  0  0
  132.9430   75.2870  226.5600 C   0  0  0  0  0  0  0  0  0  0  0  0
  131.7130   75.6160  227.7790 Cl  0  0  0  0  0  0  0  0  0  0  0  0
  133.3880   73.9740  226.3750 C   0  0  0  0  0  0  0  0  0  0  0  0
  134.3570   73.7170  225.4150 C   0  0  0  0  0  0  0  0  0  0  0  0
  134.8660   74.7540  224.6600 C   0  0  0  0  0  0  0  0  0  0  0  0
  135.8030   74.4840  223.7360 N   0  0  0  0  0  0  0  0  0  0  0  0
  137.4872   78.9100  221.9368 H   0  0  0  0  0  0  0  0  0  0  0  0
  138.9594   79.4952  221.0902 H   0  0  0  0  0  0  0  0  0  0  0  0
  138.5598   77.7440  221.0902 H   0  0  0  0  0  0  0  0  0  0  0  0
  139.3666   80.8882  224.0853 H   0  0  0  0  0  0  0  0  0  0  0  0
  141.3751   82.2504  224.3998 H   0  0  0  0  0  0  0  0  0  0  0  0
  143.5962   81.5147  223.5737 H   0  0  0  0  0  0  0  0  0  0  0  0
  143.7479   79.3111  222.3917 H   0  0  0  0  0  0  0  0  0  0  0  0
  141.6500   76.7180  222.4300 H   0  0  0  0  0  0  0  0  0  0  0  0
  142.6278   75.8070  220.3352 H   0  0  0  0  0  0  0  0  0  0  0  0
  142.3421   77.4702  218.0303 H   0  0  0  0  0  0  0  0  0  0  0  0
  143.1629   75.9186  218.1289 H   0  0  0  0  0  0  0  0  0  0  0  0
  140.8491   76.2568  216.6522 H   0  0  0  0  0  0  0  0  0  0  0  0
  141.1592   74.7219  217.3899 H   0  0  0  0  0  0  0  0  0  0  0  0
  139.6829   77.1730  218.6630 H   0  0  0  0  0  0  0  0  0  0  0  0
  138.9476   75.6255  218.4013 H   0  0  0  0  0  0  0  0  0  0  0  0
  138.6245   73.7244  220.0926 H   0  0  0  0  0  0  0  0  0  0  0  0
  139.6951   72.8709  221.3498 H   0  0  0  0  0  0  0  0  0  0  0  0
  138.0290   73.3460  222.8960 H   0  0  0  0  0  0  0  0  0  0  0  0
  136.3876   77.5502  222.4714 H   0  0  0  0  0  0  0  0  0  0  0  0
  134.6335   78.1411  224.1803 H   0  0  0  0  0  0  0  0  0  0  0  0
  133.1187   77.3275  225.9436 H   0  0  0  0  0  0  0  0  0  0  0  0
  132.9752   73.1553  226.9827 H   0  0  0  0  0  0  0  0  0  0  0  0
  134.7180   72.6901  225.2565 H   0  0  0  0  0  0  0  0  0  0  0  0
  1  2  1  0
  2  3  1  0
  3  4  2  0
  4  5  1  0
  5  6  2  0
  6  7  1  0
  7  8  2  0
  8  9  1  0
  9 10  1  0
 10 11  2  0
 10 12  1  0
 12 13  1  0
 13 14  1  0
 14 15  1  0
 15 16  1  0
 16 17  1  0
 17 18  2  0
 17 19  1  0
 19 20  1  0
 20 21  1  0
 21 22  2  0
 21 23  1  0
 23 24  2  0
 24 25  1  0
 25 26  2  0
 26 27  1  0
 27 28  2  0
 28 29  1  0
 28 30  1  0
 30 31  2  0
 31 32  1  0
 32 33  2  0
  8  3  1  0
 16 12  1  0
 33 23  1  0
 32 26  1  0
  1 34  1  0
  1 35  1  0
  1 36  1  0
  4 37  1  0
  5 38  1  0
  6 39  1  0
  7 40  1  0
  9 41  1  0
 12 42  1  1
 13 43  1  0
 13 44  1  0
 14 45  1  0
 14 46  1  0
 15 47  1  0
 15 48  1  0
 19 49  1  0
 19 50  1  0
 20 51  1  0
 24 52  1  0
 25 53  1  0
 27 54  1  0
 30 55  1  0
 31 56  1  0
M  END
>  <smiles>  (7) 
COc1ccccc1NC(=O)[C@@H]1CCCN1C(=O)CNC(=O)c1ccc2cc(Cl)ccc2n1

>  <score_type>  (7) 
oracle

>  <origin>  (7) 
autodockgpu

>  <m_score__min__energy>  (7) 
-9

>  <m_primary>  (7) 
energy

>  <rmsd>  (7) 
5.285715288157991

>  <m_score__min__rmsd>  (7) 
5.285715288157991

>  <meeko>  (7) 
{"free_energy": -6.8, "intermolecular_energy": -8.89, "internal_energy": -3.27, "cluster_size": 1, "cluster_id": 8, "rank_in_cluster": 1}

>  <energy>  (7) 
-8.12

>  <cluster_rmsd>  (7) 
1.38

>  <cluster>  (7) 
1

$$$$

     RDKit          3D

 56 59  0  0  0  0  0  0  0  0999 V2000
  141.8160   78.7590  219.3290 C   0  0  0  0  0  0  0  0  0  0  0  0
  141.1140   79.6100  220.1980 O   0  0  0  0  0  0  0  0  0  0  0  0
  141.5380   79.7010  221.5210 C   0  0  0  0  0  0  0  0  0  0  0  0
  142.5450   80.5580  221.9220 C   0  0  0  0  0  0  0  0  0  0  0  0
  142.9330   80.6180  223.2400 C   0  0  0  0  0  0  0  0  0  0  0  0
  142.3520   79.8420  224.2220 C   0  0  0  0  0  0  0  0  0  0  0  0
  141.3390   78.9780  223.8300 C   0  0  0  0  0  0  0  0  0  0  0  0
  140.9430   78.9120  222.5040 C   0  0  0  0  0  0  0  0  0  0  0  0
  139.9040   78.0350  222.0700 N   0  0  0  0  0  0  0  0  0  0  0  0
  138.5560   78.5360  222.0990 C   0  0  0  0  0  0  0  0  0  0  0  0
  138.3730   79.7190  222.5060 O   0  0  0  0  0  0  0  0  0  0  0  0
  137.4810   77.6390  221.6550 C   0  0  2  0  0  0  0  0  0  0  0  0
  136.1510   77.8790  222.2980 C   0  0  0  0  0  0  0  0  0  0  0  0
  135.8110   76.5520  222.9510 C   0  0  0  0  0  0  0  0  0  0  0  0
  137.2230   76.0120  223.2080 C   0  0  0  0  0  0  0  0  0  0  0  0
  137.8170   76.2120  221.9090 N   0  0  0  0  0  0  0  0  0  0  0  0
  138.5080   75.4430  220.9770 C   0  0  0  0  0  0  0  0  0  0  0  0
  139.1210   76.1210  220.0490 O   0  0  0  0  0  0  0  0  0  0  0  0
  138.6860   74.0030  220.8410 C   0  0  0  0  0  0  0  0  0  0  0  0
  138.9760   73.2620  222.0260 N   0  0  0  0  0  0  0  0  0  0  0  0
  139.0060   71.8200  221.8930 C   0  0  0  0  0  0  0  0  0  0  0  0
  138.7750   71.3780  220.7530 O   0  0  0  0  0  0  0  0  0  0  0  0
  139.2940   70.9890  223.0570 C   0  0  0  0  0  0  0  0  0  0  0  0
  138.9210   69.6630  222.9960 C   0  0  0  0  0  0  0  0  0  0  0  0
  139.1690   68.8140  224.0800 C   0  0  0  0  0  0  0  0  0  0  0  0
  139.7960   69.3640  225.1930 C   0  0  0  0  0  0  0  0  0  0  0  0
  140.0860   68.6070  226.3180 C   0  0  0  0  0  0  0  0  0  0  0  0
  140.7080   69.1360  227.4320 C   0  0  0  0  0  0  0  0  0  0  0  0
  141.0590   68.1420  228.8430 Cl  0  0  0  0  0  0  0  0  0  0  0  0
  141.0650   70.4880  227.4410 C   0  0  0  0  0  0  0  0  0  0  0  0
  140.7860   71.2690  226.3290 C   0  0  0  0  0  0  0  0  0  0  0  0
  140.1640   70.7060  225.2330 C   0  0  0  0  0  0  0  0  0  0  0  0
  139.9030   71.4790  224.1660 N   0  0  0  0  0  0  0  0  0  0  0  0
  142.4077   78.0418  219.9168 H   0  0  0  0  0  0  0  0  0  0  0  0
  141.1023   78.2128  218.6948 H   0  0  0  0  0  0  0  0  0  0  0  0
  142.4879   79.3559  218.6948 H   0  0  0  0  0  0  0  0  0  0  0  0
  143.0417   81.1992  221.1789 H   0  0  0  0  0  0  0  0  0  0  0  0
  143.7383   81.3120  223.5226 H   0  0  0  0  0  0  0  0  0  0  0  0
  142.6778   79.9055  225.2707 H   0  0  0  0  0  0  0  0  0  0  0  0
  140.8463   78.3401  224.5786 H   0  0  0  0  0  0  0  0  0  0  0  0
  140.0830   77.0590  221.7370 H   0  0  0  0  0  0  0  0  0  0  0  0
  137.3988   77.8627  220.5811 H   0  0  0  0  0  0  0  0  0  0  0  0
  136.2196   78.6783  223.0506 H   0  0  0  0  0  0  0  0  0  0  0  0
  135.3859   78.2033  221.5773 H   0  0  0  0  0  0  0  0  0  0  0  0
  135.2499   76.6896  223.8871 H   0  0  0  0  0  0  0  0  0  0  0  0
  135.1649   75.8931  222.3523 H   0  0  0  0  0  0  0  0  0  0  0  0
  137.7437   76.5888  223.9866 H   0  0  0  0  0  0  0  0  0  0  0  0
  137.2594   74.9760  223.5758 H   0  0  0  0  0  0  0  0  0  0  0  0
  137.7575   73.5945  220.4154 H   0  0  0  0  0  0  0  0  0  0  0  0
  139.5809   73.8885  220.2117 H   0  0  0  0  0  0  0  0  0  0  0  0
  139.1680   73.6840  222.9740 H   0  0  0  0  0  0  0  0  0  0  0  0
  138.4278   69.2721  222.0938 H   0  0  0  0  0  0  0  0  0  0  0  0
  138.8795   67.7531  224.0531 H   0  0  0  0  0  0  0  0  0  0  0  0
  139.8096   67.5423  226.3235 H   0  0  0  0  0  0  0  0  0  0  0  0
  141.5611   70.9269  228.3192 H   0  0  0  0  0  0  0  0  0  0  0  0
  141.0598   72.3343  226.3207 H   0  0  0  0  0  0  0  0  0  0  0  0
  1  2  1  0
  2  3  1  0
  3  4  2  0
  4  5  1  0
  5  6  2  0
  6  7  1  0
  7  8  2  0
  8  9  1  0
  9 10  1  0
 10 11  2  0
 10 12  1  0
 12 13  1  0
 13 14  1  0
 14 15  1  0
 15 16  1  0
 16 17  1  0
 17 18  2  0
 17 19  1  0
 19 20  1  0
 20 21  1  0
 21 22  2  0
 21 23  1  0
 23 24  2  0
 24 25  1  0
 25 26  2  0
 26 27  1  0
 27 28  2  0
 28 29  1  0
 28 30  1  0
 30 31  2  0
 31 32  1  0
 32 33  2  0
  8  3  1  0
 16 12  1  0
 33 23  1  0
 32 26  1  0
  1 34  1  0
  1 35  1  0
  1 36  1  0
  4 37  1  0
  5 38  1  0
  6 39  1  0
  7 40  1  0
  9 41  1  0
 12 42  1  6
 13 43  1  0
 13 44  1  0
 14 45  1  0
 14 46  1  0
 15 47  1  0
 15 48  1  0
 19 49  1  0
 19 50  1  0
 20 51  1  0
 24 52  1  0
 25 53  1  0
 27 54  1  0
 30 55  1  0
 31 56  1  0
M  END
>  <smiles>  (8) 
COc1ccccc1NC(=O)[C@@H]1CCCN1C(=O)CNC(=O)c1ccc2cc(Cl)ccc2n1

>  <score_type>  (8) 
oracle

>  <origin>  (8) 
autodockgpu

>  <m_score__min__energy>  (8) 
-9

>  <m_primary>  (8) 
energy

>  <rmsd>  (8) 
3.3576755850893005

>  <m_score__min__rmsd>  (8) 
3.3576755850893005

>  <meeko>  (8) 
{"free_energy": -7.85, "intermolecular_energy": -9.94, "internal_energy": -2.74, "cluster_size": 24, "cluster_id": 1, "rank_in_cluster": 14}

>  <energy>  (8) 
-8.06

>  <cluster_rmsd>  (8) 
1.57

>  <cluster>  (8) 
1

$$$$

     RDKit          3D

 56 59  0  0  0  0  0  0  0  0999 V2000
  140.3420   81.3310  219.2170 C   0  0  0  0  0  0  0  0  0  0  0  0
  140.0580   81.5350  220.5770 O   0  0  0  0  0  0  0  0  0  0  0  0
  140.7750   80.8040  221.5210 C   0  0  0  0  0  0  0  0  0  0  0  0
  141.8970   80.0650  221.1940 C   0  0  0  0  0  0  0  0  0  0  0  0
  142.5760   79.3580  222.1570 C   0  0  0  0  0  0  0  0  0  0  0  0
  142.1880   79.3430  223.4820 C   0  0  0  0  0  0  0  0  0  0  0  0
  141.0640   80.0810  223.8200 C   0  0  0  0  0  0  0  0  0  0  0  0
  140.3730   80.7970  222.8550 C   0  0  0  0  0  0  0  0  0  0  0  0
  139.2130   81.5660  223.1720 N   0  0  0  0  0  0  0  0  0  0  0  0
  138.2720   80.9950  224.0990 C   0  0  0  0  0  0  0  0  0  0  0  0
  138.5270   79.8510  224.5730 O   0  0  0  0  0  0  0  0  0  0  0  0
  137.0760   81.7800  224.4310 C   0  0  2  0  0  0  0  0  0  0  0  0
  136.7240   81.8100  225.8860 C   0  0  0  0  0  0  0  0  0  0  0  0
  135.3130   81.2510  225.9370 C   0  0  0  0  0  0  0  0  0  0  0  0
  135.3380   80.3520  224.6940 C   0  0  0  0  0  0  0  0  0  0  0  0
  135.8710   81.2720  223.7200 N   0  0  0  0  0  0  0  0  0  0  0  0
  135.5180   81.7300  222.4540 C   0  0  0  0  0  0  0  0  0  0  0  0
  134.6670   82.7160  222.4420 O   0  0  0  0  0  0  0  0  0  0  0  0
  135.9290   81.3170  221.1180 C   0  0  0  0  0  0  0  0  0  0  0  0
  137.1100   80.5220  221.0100 N   0  0  0  0  0  0  0  0  0  0  0  0
  137.0170   79.1590  221.4920 C   0  0  0  0  0  0  0  0  0  0  0  0
  135.9090   78.8240  221.9510 O   0  0  0  0  0  0  0  0  0  0  0  0
  138.1790   78.2810  221.4180 C   0  0  0  0  0  0  0  0  0  0  0  0
  138.3570   77.3800  222.4470 C   0  0  0  0  0  0  0  0  0  0  0  0
  139.4530   76.5100  222.4350 C   0  0  0  0  0  0  0  0  0  0  0  0
  140.3310   76.6020  221.3590 C   0  0  0  0  0  0  0  0  0  0  0  0
  141.4470   75.7860  221.2540 C   0  0  0  0  0  0  0  0  0  0  0  0
  142.3290   75.8620  220.1940 C   0  0  0  0  0  0  0  0  0  0  0  0
  143.7370   74.8080  220.0960 Cl  0  0  0  0  0  0  0  0  0  0  0  0
  142.1010   76.7960  219.1780 C   0  0  0  0  0  0  0  0  0  0  0  0
  140.9920   77.6260  219.2580 C   0  0  0  0  0  0  0  0  0  0  0  0
  140.1310   77.5200  220.3320 C   0  0  0  0  0  0  0  0  0  0  0  0
  139.0640   78.3320  220.3910 N   0  0  0  0  0  0  0  0  0  0  0  0
  141.2319   80.6917  219.1201 H   0  0  0  0  0  0  0  0  0  0  0  0
  139.4843   80.8413  218.7328 H   0  0  0  0  0  0  0  0  0  0  0  0
  140.5323   82.3002  218.7328 H   0  0  0  0  0  0  0  0  0  0  0  0
  142.2497   80.0428  220.1523 H   0  0  0  0  0  0  0  0  0  0  0  0
  143.4642   78.7809  221.8604 H   0  0  0  0  0  0  0  0  0  0  0  0
  142.7466   78.7702  224.2369 H   0  0  0  0  0  0  0  0  0  0  0  0
  140.7173   80.0985  224.8638 H   0  0  0  0  0  0  0  0  0  0  0  0
  139.0260   82.5110  222.7660 H   0  0  0  0  0  0  0  0  0  0  0  0
  137.3496   82.7967  224.1125 H   0  0  0  0  0  0  0  0  0  0  0  0
  137.4143   81.1816  226.4678 H   0  0  0  0  0  0  0  0  0  0  0  0
  136.7940   82.8198  226.3167 H   0  0  0  0  0  0  0  0  0  0  0  0
  135.1359   80.6726  226.8557 H   0  0  0  0  0  0  0  0  0  0  0  0
  134.5147   82.0077  225.9457 H   0  0  0  0  0  0  0  0  0  0  0  0
  135.9961   79.4818  224.8345 H   0  0  0  0  0  0  0  0  0  0  0  0
  134.3669   79.9102  224.4262 H   0  0  0  0  0  0  0  0  0  0  0  0
  135.1010   80.7386  220.6822 H   0  0  0  0  0  0  0  0  0  0  0  0
  136.1724   82.2544  220.5964 H   0  0  0  0  0  0  0  0  0  0  0  0
  138.0290   80.8530  220.6100 H   0  0  0  0  0  0  0  0  0  0  0  0
  137.6368   77.3453  223.2778 H   0  0  0  0  0  0  0  0  0  0  0  0
  139.6142   75.7822  223.2439 H   0  0  0  0  0  0  0  0  0  0  0  0
  141.6377   75.0481  222.0472 H   0  0  0  0  0  0  0  0  0  0  0  0
  142.7925   76.8716  218.3259 H   0  0  0  0  0  0  0  0  0  0  0  0
  140.7993   78.3665  218.4678 H   0  0  0  0  0  0  0  0  0  0  0  0
  1  2  1  0
  2  3  1  0
  3  4  2  0
  4  5  1  0
  5  6  2  0
  6  7  1  0
  7  8  2  0
  8  9  1  0
  9 10  1  0
 10 11  2  0
 10 12  1  0
 12 13  1  0
 13 14  1  0
 14 15  1  0
 15 16  1  0
 16 17  1  0
 17 18  2  0
 17 19  1  0
 19 20  1  0
 20 21  1  0
 21 22  2  0
 21 23  1  0
 23 24  2  0
 24 25  1  0
 25 26  2  0
 26 27  1  0
 27 28  2  0
 28 29  1  0
 28 30  1  0
 30 31  2  0
 31 32  1  0
 32 33  2  0
  8  3  1  0
 16 12  1  0
 33 23  1  0
 32 26  1  0
  1 34  1  0
  1 35  1  0
  1 36  1  0
  4 37  1  0
  5 38  1  0
  6 39  1  0
  7 40  1  0
  9 41  1  0
 12 42  1  6
 13 43  1  0
 13 44  1  0
 14 45  1  0
 14 46  1  0
 15 47  1  0
 15 48  1  0
 19 49  1  0
 19 50  1  0
 20 51  1  0
 24 52  1  0
 25 53  1  0
 27 54  1  0
 30 55  1  0
 31 56  1  0
M  END
>  <smiles>  (9) 
COc1ccccc1NC(=O)[C@@H]1CCCN1C(=O)CNC(=O)c1ccc2cc(Cl)ccc2n1

>  <score_type>  (9) 
oracle

>  <origin>  (9) 
autodockgpu

>  <m_score__min__energy>  (9) 
-9

>  <m_primary>  (9) 
energy

>  <rmsd>  (9) 
8.065289270855137

>  <m_score__min__rmsd>  (9) 
8.065289270855137

>  <meeko>  (9) 
{"free_energy": -4.85, "intermolecular_energy": -6.94, "internal_energy": -4.93, "cluster_size": 1, "cluster_id": 11, "rank_in_cluster": 1}

>  <energy>  (9) 
-8.04

>  <cluster_rmsd>  (9) 
1.77

>  <cluster>  (9) 
1

$$$$

     RDKit          3D

 56 59  0  0  0  0  0  0  0  0999 V2000
  141.3850   72.0450  218.7610 C   0  0  0  0  0  0  0  0  0  0  0  0
  141.9940   73.3050  218.8840 O   0  0  0  0  0  0  0  0  0  0  0  0
  143.2850   73.3690  219.4020 C   0  0  0  0  0  0  0  0  0  0  0  0
  144.2670   72.4570  219.0670 C   0  0  0  0  0  0  0  0  0  0  0  0
  145.5300   72.5570  219.6020 C   0  0  0  0  0  0  0  0  0  0  0  0
  145.8850   73.5540  220.4880 C   0  0  0  0  0  0  0  0  0  0  0  0
  144.9060   74.4750  220.8310 C   0  0  0  0  0  0  0  0  0  0  0  0
  143.6310   74.3810  220.2950 C   0  0  0  0  0  0  0  0  0  0  0  0
  142.6030   75.3130  220.6280 N   0  0  0  0  0  0  0  0  0  0  0  0
  142.3240   76.3590  219.6810 C   0  0  0  0  0  0  0  0  0  0  0  0
  143.0040   76.3910  218.6150 O   0  0  0  0  0  0  0  0  0  0  0  0
  141.2670   77.3230  220.0160 C   0  0  2  0  0  0  0  0  0  0  0  0
  141.7080   78.7530  220.0620 C   0  0  0  0  0  0  0  0  0  0  0  0
  141.3650   79.2010  221.4710 C   0  0  0  0  0  0  0  0  0  0  0  0
  141.4610   77.8590  222.2070 C   0  0  0  0  0  0  0  0  0  0  0  0
  140.6580   77.0310  221.3420 N   0  0  0  0  0  0  0  0  0  0  0  0
  139.5730   76.1690  221.4780 C   0  0  0  0  0  0  0  0  0  0  0  0
  138.5240   76.6890  222.0480 O   0  0  0  0  0  0  0  0  0  0  0  0
  139.3810   74.7770  221.0930 C   0  0  0  0  0  0  0  0  0  0  0  0
  139.2510   73.8170  222.1410 N   0  0  0  0  0  0  0  0  0  0  0  0
  140.3890   72.9500  222.3670 C   0  0  0  0  0  0  0  0  0  0  0  0
  141.3670   73.1370  221.6190 O   0  0  0  0  0  0  0  0  0  0  0  0
  140.3360   71.9410  223.4190 C   0  0  0  0  0  0  0  0  0  0  0  0
  139.8610   70.6930  223.0750 C   0  0  0  0  0  0  0  0  0  0  0  0
  139.7850   69.6810  224.0390 C   0  0  0  0  0  0  0  0  0  0  0  0
  140.2020   69.9940  225.3290 C   0  0  0  0  0  0  0  0  0  0  0  0
  140.1660   69.0620  226.3550 C   0  0  0  0  0  0  0  0  0  0  0  0
  140.5770   69.3540  227.6400 C   0  0  0  0  0  0  0  0  0  0  0  0
  140.5150   68.1430  228.9190 Cl  0  0  0  0  0  0  0  0  0  0  0  0
  141.0490   70.6370  227.9350 C   0  0  0  0  0  0  0  0  0  0  0  0
  141.0960   71.5890  226.9270 C   0  0  0  0  0  0  0  0  0  0  0  0
  140.6780   71.2610  225.6530 C   0  0  0  0  0  0  0  0  0  0  0  0
  140.7310   72.1970  224.6910 N   0  0  0  0  0  0  0  0  0  0  0  0
  141.1865   71.6344  219.7620 H   0  0  0  0  0  0  0  0  0  0  0  0
  140.4372   72.1479  218.2123 H   0  0  0  0  0  0  0  0  0  0  0  0
  142.0544   71.3662  218.2123 H   0  0  0  0  0  0  0  0  0  0  0  0
  144.0363   71.6422  218.3649 H   0  0  0  0  0  0  0  0  0  0  0  0
  146.2870   71.8132  219.3125 H   0  0  0  0  0  0  0  0  0  0  0  0
  146.9012   73.6156  220.9045 H   0  0  0  0  0  0  0  0  0  0  0  0
  145.1434   75.2868  221.5343 H   0  0  0  0  0  0  0  0  0  0  0  0
  142.0550   75.2640  221.5170 H   0  0  0  0  0  0  0  0  0  0  0  0
  140.5487   77.2009  219.1919 H   0  0  0  0  0  0  0  0  0  0  0  0
  142.7896   78.8342  219.8788 H   0  0  0  0  0  0  0  0  0  0  0  0
  141.2210   79.3700  219.2925 H   0  0  0  0  0  0  0  0  0  0  0  0
  142.0925   79.9308  221.8559 H   0  0  0  0  0  0  0  0  0  0  0  0
  140.3985   79.7166  221.5712 H   0  0  0  0  0  0  0  0  0  0  0  0
  142.4992   77.5001  222.2647 H   0  0  0  0  0  0  0  0  0  0  0  0
  141.1300   77.8850  223.2557 H   0  0  0  0  0  0  0  0  0  0  0  0
  138.4663   74.7264  220.4841 H   0  0  0  0  0  0  0  0  0  0  0  0
  140.3086   74.4993  220.5711 H   0  0  0  0  0  0  0  0  0  0  0  0
  138.3980   73.6970  222.7510 H   0  0  0  0  0  0  0  0  0  0  0  0
  139.5414   70.4925  222.0417 H   0  0  0  0  0  0  0  0  0  0  0  0
  139.4105   68.6780  223.7867 H   0  0  0  0  0  0  0  0  0  0  0  0
  139.7952   68.0497  226.1363 H   0  0  0  0  0  0  0  0  0  0  0  0
  141.3789   70.8882  228.9538 H   0  0  0  0  0  0  0  0  0  0  0  0
  141.4654   72.6025  227.1424 H   0  0  0  0  0  0  0  0  0  0  0  0
  1  2  1  0
  2  3  1  0
  3  4  2  0
  4  5  1  0
  5  6  2  0
  6  7  1  0
  7  8  2  0
  8  9  1  0
  9 10  1  0
 10 11  2  0
 10 12  1  0
 12 13  1  0
 13 14  1  0
 14 15  1  0
 15 16  1  0
 16 17  1  0
 17 18  2  0
 17 19  1  0
 19 20  1  0
 20 21  1  0
 21 22  2  0
 21 23  1  0
 23 24  2  0
 24 25  1  0
 25 26  2  0
 26 27  1  0
 27 28  2  0
 28 29  1  0
 28 30  1  0
 30 31  2  0
 31 32  1  0
 32 33  2  0
  8  3  1  0
 16 12  1  0
 33 23  1  0
 32 26  1  0
  1 34  1  0
  1 35  1  0
  1 36  1  0
  4 37  1  0
  5 38  1  0
  6 39  1  0
  7 40  1  0
  9 41  1  0
 12 42  1  6
 13 43  1  0
 13 44  1  0
 14 45  1  0
 14 46  1  0
 15 47  1  0
 15 48  1  0
 19 49  1  0
 19 50  1  0
 20 51  1  0
 24 52  1  0
 25 53  1  0
 27 54  1  0
 30 55  1  0
 31 56  1  0
M  END
>  <smiles>  (10) 
COc1ccccc1NC(=O)[C@@H]1CCCN1C(=O)CNC(=O)c1ccc2cc(Cl)ccc2n1

>  <score_type>  (10) 
oracle

>  <origin>  (10) 
autodockgpu

>  <m_score__min__energy>  (10) 
-9

>  <m_primary>  (10) 
energy

>  <rmsd>  (10) 
4.772356078218077

>  <m_score__min__rmsd>  (10) 
4.772356078218077

>  <meeko>  (10) 
{"free_energy": -8.16, "intermolecular_energy": -10.25, "internal_energy": -2.99, "cluster_size": 10, "cluster_id": 2, "rank_in_cluster": 4}

>  <energy>  (10) 
-8.03

>  <cluster_rmsd>  (10) 
1.93

>  <cluster>  (10) 
1

$$$$

     RDKit          3D

 56 59  0  0  0  0  0  0  0  0999 V2000
  141.5860   70.9580  218.5080 C   0  0  0  0  0  0  0  0  0  0  0  0
  142.0100   72.2720  218.7620 O   0  0  0  0  0  0  0  0  0  0  0  0
  143.2610   72.4650  219.3410 C   0  0  0  0  0  0  0  0  0  0  0  0
  144.3190   71.6000  219.1310 C   0  0  0  0  0  0  0  0  0  0  0  0
  145.5390   71.8280  219.7230 C   0  0  0  0  0  0  0  0  0  0  0  0
  145.7770   72.9110  220.5440 C   0  0  0  0  0  0  0  0  0  0  0  0
  144.7220   73.7850  220.7610 C   0  0  0  0  0  0  0  0  0  0  0  0
  143.4890   73.5620  220.1690 C   0  0  0  0  0  0  0  0  0  0  0  0
  142.3850   74.4430  220.3730 N   0  0  0  0  0  0  0  0  0  0  0  0
  142.5990   75.8440  220.1250 C   0  0  0  0  0  0  0  0  0  0  0  0
  143.7480   76.2100  219.7450 O   0  0  0  0  0  0  0  0  0  0  0  0
  141.4680   76.7580  220.3330 C   0  0  2  0  0  0  0  0  0  0  0  0
  141.7620   77.9390  221.2040 C   0  0  0  0  0  0  0  0  0  0  0  0
  140.7570   77.8240  222.3360 C   0  0  0  0  0  0  0  0  0  0  0  0
  140.5480   76.3050  222.3520 C   0  0  0  0  0  0  0  0  0  0  0  0
  140.3070   76.0620  220.9510 N   0  0  0  0  0  0  0  0  0  0  0  0
  139.3350   75.4290  220.1800 C   0  0  0  0  0  0  0  0  0  0  0  0
  139.3980   75.6760  218.9030 O   0  0  0  0  0  0  0  0  0  0  0  0
  138.2480   74.5260  220.5330 C   0  0  0  0  0  0  0  0  0  0  0  0
  138.4190   73.7120  221.6930 N   0  0  0  0  0  0  0  0  0  0  0  0
  139.3680   72.6240  221.5830 C   0  0  0  0  0  0  0  0  0  0  0  0
  139.9390   72.5150  220.4820 O   0  0  0  0  0  0  0  0  0  0  0  0
  139.6010   71.7440  222.7230 C   0  0  0  0  0  0  0  0  0  0  0  0
  139.2560   70.4160  222.5780 C   0  0  0  0  0  0  0  0  0  0  0  0
  139.4540   69.5220  223.6360 C   0  0  0  0  0  0  0  0  0  0  0  0
  140.0010   70.0290  224.8100 C   0  0  0  0  0  0  0  0  0  0  0  0
  140.2350   69.2250  225.9150 C   0  0  0  0  0  0  0  0  0  0  0  0
  140.7780   69.7110  227.0880 C   0  0  0  0  0  0  0  0  0  0  0  0
  141.0610   68.6580  228.4720 Cl  0  0  0  0  0  0  0  0  0  0  0  0
  141.1080   71.0670  227.1810 C   0  0  0  0  0  0  0  0  0  0  0  0
  140.8840   71.8950  226.0900 C   0  0  0  0  0  0  0  0  0  0  0  0
  140.3400   71.3730  224.9330 C   0  0  0  0  0  0  0  0  0  0  0  0
  140.1310   72.1910  223.8890 N   0  0  0  0  0  0  0  0  0  0  0  0
  141.4176   70.4362  219.4616 H   0  0  0  0  0  0  0  0  0  0  0  0
  140.6493   70.9799  217.9317 H   0  0  0  0  0  0  0  0  0  0  0  0
  142.3588   70.4283  217.9317 H   0  0  0  0  0  0  0  0  0  0  0  0
  144.1835   70.7208  218.4840 H   0  0  0  0  0  0  0  0  0  0  0  0
  146.3581   71.1184  219.5344 H   0  0  0  0  0  0  0  0  0  0  0  0
  146.7615   73.0744  221.0068 H   0  0  0  0  0  0  0  0  0  0  0  0
  144.8653   74.6626  221.4085 H   0  0  0  0  0  0  0  0  0  0  0  0
  141.4430   74.1150  220.6880 H   0  0  0  0  0  0  0  0  0  0  0  0
  141.2469   77.1154  219.3164 H   0  0  0  0  0  0  0  0  0  0  0  0
  142.7912   77.8932  221.5895 H   0  0  0  0  0  0  0  0  0  0  0  0
  141.6807   78.8932  220.6628 H   0  0  0  0  0  0  0  0  0  0  0  0
  141.1703   78.1894  223.2877 H   0  0  0  0  0  0  0  0  0  0  0  0
  139.8399   78.4168  222.2038 H   0  0  0  0  0  0  0  0  0  0  0  0
  141.4435   75.7749  222.7086 H   0  0  0  0  0  0  0  0  0  0  0  0
  139.7487   75.9578  223.0232 H   0  0  0  0  0  0  0  0  0  0  0  0
  137.3481   75.1389  220.6901 H   0  0  0  0  0  0  0  0  0  0  0  0
  138.1917   73.8141  219.6964 H   0  0  0  0  0  0  0  0  0  0  0  0
  137.9110   73.8460  222.6080 H   0  0  0  0  0  0  0  0  0  0  0  0
  138.8252   70.0600  221.6305 H   0  0  0  0  0  0  0  0  0  0  0  0
  139.1872   68.4589  223.5428 H   0  0  0  0  0  0  0  0  0  0  0  0
  139.9778   68.1572  225.8549 H   0  0  0  0  0  0  0  0  0  0  0  0
  141.5400   71.4724  228.1079 H   0  0  0  0  0  0  0  0  0  0  0  0
  141.1389   72.9635  226.1467 H   0  0  0  0  0  0  0  0  0  0  0  0
  1  2  1  0
  2  3  1  0
  3  4  2  0
  4  5  1  0
  5  6  2  0
  6  7  1  0
  7  8  2  0
  8  9  1  0
  9 10  1  0
 10 11  2  0
 10 12  1  0
 12 13  1  0
 13 14  1  0
 14 15  1  0
 15 16  1  0
 16 17  1  0
 17 18  2  0
 17 19  1  0
 19 20  1  0
 20 21  1  0
 21 22  2  0
 21 23  1  0
 23 24  2  0
 24 25  1  0
 25 26  2  0
 26 27  1  0
 27 28  2  0
 28 29  1  0
 28 30  1  0
 30 31  2  0
 31 32  1  0
 32 33  2  0
  8  3  1  0
 16 12  1  0
 33 23  1  0
 32 26  1  0
  1 34  1  0
  1 35  1  0
  1 36  1  0
  4 37  1  0
  5 38  1  0
  6 39  1  0
  7 40  1  0
  9 41  1  0
 12 42  1  6
 13 43  1  0
 13 44  1  0
 14 45  1  0
 14 46  1  0
 15 47  1  0
 15 48  1  0
 19 49  1  0
 19 50  1  0
 20 51  1  0
 24 52  1  0
 25 53  1  0
 27 54  1  0
 30 55  1  0
 31 56  1  0
M  END
>  <smiles>  (11) 
COc1ccccc1NC(=O)[C@@H]1CCCN1C(=O)CNC(=O)c1ccc2cc(Cl)ccc2n1

>  <score_type>  (11) 
oracle

>  <origin>  (11) 
autodockgpu

>  <m_score__min__energy>  (11) 
-9

>  <m_primary>  (11) 
energy

>  <rmsd>  (11) 
4.980019000505887

>  <m_score__min__rmsd>  (11) 
4.980019000505887

>  <meeko>  (11) 
{"free_energy": -7.42, "intermolecular_energy": -9.51, "internal_energy": -3.27, "cluster_size": 10, "cluster_id": 2, "rank_in_cluster": 8}

>  <energy>  (11) 
-7.94

>  <cluster_rmsd>  (11) 
1.76

>  <cluster>  (11) 
1

$$$$

     RDKit          3D

 56 59  0  0  0  0  0  0  0  0999 V2000
  138.9220   78.2110  222.7320 C   0  0  0  0  0  0  0  0  0  0  0  0
  139.4670   79.3900  222.1980 O   0  0  0  0  0  0  0  0  0  0  0  0
  140.6300   79.9000  222.7690 C   0  0  0  0  0  0  0  0  0  0  0  0
  140.6280   81.0010  223.6040 C   0  0  0  0  0  0  0  0  0  0  0  0
  141.8000   81.4720  224.1470 C   0  0  0  0  0  0  0  0  0  0  0  0
  143.0250   80.8870  223.8960 C   0  0  0  0  0  0  0  0  0  0  0  0
  143.0380   79.7810  223.0580 C   0  0  0  0  0  0  0  0  0  0  0  0
  141.8610   79.3000  222.5070 C   0  0  0  0  0  0  0  0  0  0  0  0
  141.8420   78.1640  221.6430 N   0  0  0  0  0  0  0  0  0  0  0  0
  141.8130   78.4100  220.2260 C   0  0  0  0  0  0  0  0  0  0  0  0
  141.8040   79.6120  219.8330 O   0  0  0  0  0  0  0  0  0  0  0  0
  141.7930   77.2470  219.3290 C   0  0  2  0  0  0  0  0  0  0  0  0
  141.7590   77.5760  217.8690 C   0  0  0  0  0  0  0  0  0  0  0  0
  140.4980   76.8960  217.3660 C   0  0  0  0  0  0  0  0  0  0  0  0
  139.6600   76.9070  218.6500 C   0  0  0  0  0  0  0  0  0  0  0  0
  140.6180   76.3730  219.5880 N   0  0  0  0  0  0  0  0  0  0  0  0
  140.6610   75.3420  220.5220 C   0  0  0  0  0  0  0  0  0  0  0  0
  141.6980   75.3560  221.3110 O   0  0  0  0  0  0  0  0  0  0  0  0
  139.7540   74.2350  220.7940 C   0  0  0  0  0  0  0  0  0  0  0  0
  140.0380   73.4140  221.9260 N   0  0  0  0  0  0  0  0  0  0  0  0
  139.2250   72.2260  222.0830 C   0  0  0  0  0  0  0  0  0  0  0  0
  138.3600   72.0450  221.2060 O   0  0  0  0  0  0  0  0  0  0  0  0
  139.4510   71.3340  223.2140 C   0  0  0  0  0  0  0  0  0  0  0  0
  139.0160   70.0310  223.0900 C   0  0  0  0  0  0  0  0  0  0  0  0
  139.2030   69.1260  224.1410 C   0  0  0  0  0  0  0  0  0  0  0  0
  139.8330   69.5990  225.2880 C   0  0  0  0  0  0  0  0  0  0  0  0
  140.0650   68.7820  226.3840 C   0  0  0  0  0  0  0  0  0  0  0  0
  140.6890   69.2330  227.5300 C   0  0  0  0  0  0  0  0  0  0  0  0
  140.9660   68.1650  228.9040 Cl  0  0  0  0  0  0  0  0  0  0  0  0
  141.1100   70.5650  227.6040 C   0  0  0  0  0  0  0  0  0  0  0  0
  140.8900   71.4050  226.5210 C   0  0  0  0  0  0  0  0  0  0  0  0
  140.2630   70.9180  225.3910 C   0  0  0  0  0  0  0  0  0  0  0  0
  140.0600   71.7470  224.3540 N   0  0  0  0  0  0  0  0  0  0  0  0
  138.9452   78.2611  223.8306 H   0  0  0  0  0  0  0  0  0  0  0  0
  137.8817   78.1010  222.3918 H   0  0  0  0  0  0  0  0  0  0  0  0
  139.5122   77.3473  222.3918 H   0  0  0  0  0  0  0  0  0  0  0  0
  139.6788   81.5059  223.8367 H   0  0  0  0  0  0  0  0  0  0  0  0
  141.7600   82.3503  224.8080 H   0  0  0  0  0  0  0  0  0  0  0  0
  143.9508   81.2806  224.3410 H   0  0  0  0  0  0  0  0  0  0  0  0
  143.9910   79.2817  222.8291 H   0  0  0  0  0  0  0  0  0  0  0  0
  141.8500   77.1790  221.9940 H   0  0  0  0  0  0  0  0  0  0  0  0
  142.7440   76.7427  219.5556 H   0  0  0  0  0  0  0  0  0  0  0  0
  141.7042   78.6638  217.7149 H   0  0  0  0  0  0  0  0  0  0  0  0
  142.6615   77.2379  217.3387 H   0  0  0  0  0  0  0  0  0  0  0  0
  140.0179   77.4706  216.5602 H   0  0  0  0  0  0  0  0  0  0  0  0
  140.6532   75.9015  216.9223 H   0  0  0  0  0  0  0  0  0  0  0  0
  139.3473   77.9256  218.9231 H   0  0  0  0  0  0  0  0  0  0  0  0
  138.7152   76.3471  218.5879 H   0  0  0  0  0  0  0  0  0  0  0  0
  138.7497   74.6597  220.9386 H   0  0  0  0  0  0  0  0  0  0  0  0
  139.8612   73.5653  219.9279 H   0  0  0  0  0  0  0  0  0  0  0  0
  140.7870   73.6090  222.6440 H   0  0  0  0  0  0  0  0  0  0  0  0
  138.5215   69.7027  222.1639 H   0  0  0  0  0  0  0  0  0  0  0  0
  138.8653   68.0820  224.0634 H   0  0  0  0  0  0  0  0  0  0  0  0
  139.7388   67.7325  226.3386 H   0  0  0  0  0  0  0  0  0  0  0  0
  141.6090   70.9420  228.5089 H   0  0  0  0  0  0  0  0  0  0  0  0
  141.2141   72.4553  226.5627 H   0  0  0  0  0  0  0  0  0  0  0  0
  1  2  1  0
  2  3  1  0
  3  4  2  0
  4  5  1  0
  5  6  2  0
  6  7  1  0
  7  8  2  0
  8  9  1  0
  9 10  1  0
 10 11  2  0
 10 12  1  0
 12 13  1  0
 13 14  1  0
 14 15  1  0
 15 16  1  0
 16 17  1  0
 17 18  2  0
 17 19  1  0
 19 20  1  0
 20 21  1  0
 21 22  2  0
 21 23  1  0
 23 24  2  0
 24 25  1  0
 25 26  2  0
 26 27  1  0
 27 28  2  0
 28 29  1  0
 28 30  1  0
 30 31  2  0
 31 32  1  0
 32 33  2  0
  8  3  1  0
 16 12  1  0
 33 23  1  0
 32 26  1  0
  1 34  1  0
  1 35  1  0
  1 36  1  0
  4 37  1  0
  5 38  1  0
  6 39  1  0
  7 40  1  0
  9 41  1  0
 12 42  1  6
 13 43  1  0
 13 44  1  0
 14 45  1  0
 14 46  1  0
 15 47  1  0
 15 48  1  0
 19 49  1  0
 19 50  1  0
 20 51  1  0
 24 52  1  0
 25 53  1  0
 27 54  1  0
 30 55  1  0
 31 56  1  0
M  END
>  <smiles>  (12) 
COc1ccccc1NC(=O)[C@@H]1CCCN1C(=O)CNC(=O)c1ccc2cc(Cl)ccc2n1

>  <score_type>  (12) 
oracle

>  <origin>  (12) 
autodockgpu

>  <m_score__min__energy>  (12) 
-9

>  <m_primary>  (12) 
energy

>  <rmsd>  (12) 
2.08557147544257

>  <m_score__min__rmsd>  (12) 
2.08557147544257

>  <meeko>  (12) 
{"free_energy": -8.15, "intermolecular_energy": -10.24, "internal_energy": -3.13, "cluster_size": 24, "cluster_id": 1, "rank_in_cluster": 6}

>  <energy>  (12) 
-7.93

>  <cluster_rmsd>  (12) 
1.0

>  <cluster>  (12) 
1

$$$$

     RDKit          3D

 56 59  0  0  0  0  0  0  0  0999 V2000
  140.6720   71.4270  223.8810 C   0  0  0  0  0  0  0  0  0  0  0  0
  140.3670   71.9120  225.1640 O   0  0  0  0  0  0  0  0  0  0  0  0
  140.3330   71.0090  226.2220 C   0  0  0  0  0  0  0  0  0  0  0  0
  141.1750   71.1100  227.3140 C   0  0  0  0  0  0  0  0  0  0  0  0
  141.1080   70.1960  228.3390 C   0  0  0  0  0  0  0  0  0  0  0  0
  140.2140   69.1440  228.3400 C   0  0  0  0  0  0  0  0  0  0  0  0
  139.3650   69.0340  227.2490 C   0  0  0  0  0  0  0  0  0  0  0  0
  139.4260   69.9510  226.2120 C   0  0  0  0  0  0  0  0  0  0  0  0
  138.5650   69.8650  225.0770 N   0  0  0  0  0  0  0  0  0  0  0  0
  138.5050   68.6040  224.3850 C   0  0  0  0  0  0  0  0  0  0  0  0
  139.2150   67.6540  224.8220 O   0  0  0  0  0  0  0  0  0  0  0  0
  137.6210   68.5070  223.2160 C   0  0  2  0  0  0  0  0  0  0  0  0
  137.9030   67.3510  222.3060 C   0  0  0  0  0  0  0  0  0  0  0  0
  138.1790   67.9980  220.9610 C   0  0  0  0  0  0  0  0  0  0  0  0
  138.7140   69.3590  221.4250 C   0  0  0  0  0  0  0  0  0  0  0  0
  137.6910   69.7290  222.3710 N   0  0  0  0  0  0  0  0  0  0  0  0
  136.8620   70.8250  222.5970 C   0  0  0  0  0  0  0  0  0  0  0  0
  136.2630   70.8340  223.7530 O   0  0  0  0  0  0  0  0  0  0  0  0
  136.5350   71.9840  221.7760 C   0  0  0  0  0  0  0  0  0  0  0  0
  137.2000   73.2110  222.0760 N   0  0  0  0  0  0  0  0  0  0  0  0
  138.5450   73.3580  221.5610 C   0  0  0  0  0  0  0  0  0  0  0  0
  138.9800   72.3940  220.9050 O   0  0  0  0  0  0  0  0  0  0  0  0
  139.2940   74.5820  221.8240 C   0  0  0  0  0  0  0  0  0  0  0  0
  140.6430   74.5720  221.5370 C   0  0  0  0  0  0  0  0  0  0  0  0
  141.4170   75.7150  221.7670 C   0  0  0  0  0  0  0  0  0  0  0  0
  140.7710   76.8310  222.2890 C   0  0  0  0  0  0  0  0  0  0  0  0
  141.4490   78.0110  222.5530 C   0  0  0  0  0  0  0  0  0  0  0  0
  140.8240   79.1300  223.0690 C   0  0  0  0  0  0  0  0  0  0  0  0
  141.7200   80.6120  223.3930 Cl  0  0  0  0  0  0  0  0  0  0  0  0
  139.4540   79.0850  223.3430 C   0  0  0  0  0  0  0  0  0  0  0  0
  138.7500   77.9160  223.0890 C   0  0  0  0  0  0  0  0  0  0  0  0
  139.4080   76.8180  222.5710 C   0  0  0  0  0  0  0  0  0  0  0  0
  138.7100   75.6960  222.3310 N   0  0  0  0  0  0  0  0  0  0  0  0
  141.2557   70.4988  223.9691 H   0  0  0  0  0  0  0  0  0  0  0  0
  139.7392   71.2231  223.3348 H   0  0  0  0  0  0  0  0  0  0  0  0
  141.2598   72.1794  223.3348 H   0  0  0  0  0  0  0  0  0  0  0  0
  141.9063   71.9303  227.3633 H   0  0  0  0  0  0  0  0  0  0  0  0
  141.7937   70.3074  229.1919 H   0  0  0  0  0  0  0  0  0  0  0  0
  140.1767   68.4238  229.1706 H   0  0  0  0  0  0  0  0  0  0  0  0
  138.6363   68.2111  227.2064 H   0  0  0  0  0  0  0  0  0  0  0  0
  137.9870   70.6670  224.7360 H   0  0  0  0  0  0  0  0  0  0  0  0
  136.6271   68.3694  223.6668 H   0  0  0  0  0  0  0  0  0  0  0  0
  138.7794   66.7846  222.6541 H   0  0  0  0  0  0  0  0  0  0  0  0
  137.0713   66.6321  222.2662 H   0  0  0  0  0  0  0  0  0  0  0  0
  138.9310   67.4384  220.3854 H   0  0  0  0  0  0  0  0  0  0  0  0
  137.3134   68.0468  220.2839 H   0  0  0  0  0  0  0  0  0  0  0  0
  139.6989   69.2666  221.9060 H   0  0  0  0  0  0  0  0  0  0  0  0
  138.8802   70.0878  220.6180 H   0  0  0  0  0  0  0  0  0  0  0  0
  136.7720   71.7268  220.7331 H   0  0  0  0  0  0  0  0  0  0  0  0
  135.4727   72.1828  221.9809 H   0  0  0  0  0  0  0  0  0  0  0  0
  136.7860   74.0030  222.6380 H   0  0  0  0  0  0  0  0  0  0  0  0
  141.1109   73.6648  221.1270 H   0  0  0  0  0  0  0  0  0  0  0  0
  142.4940   75.7304  221.5438 H   0  0  0  0  0  0  0  0  0  0  0  0
  142.5278   78.0583  222.3433 H   0  0  0  0  0  0  0  0  0  0  0  0
  138.9398   79.9658  223.7551 H   0  0  0  0  0  0  0  0  0  0  0  0
  137.6716   77.8644  223.2996 H   0  0  0  0  0  0  0  0  0  0  0  0
  1  2  1  0
  2  3  1  0
  3  4  2  0
  4  5  1  0
  5  6  2  0
  6  7  1  0
  7  8  2  0
  8  9  1  0
  9 10  1  0
 10 11  2  0
 10 12  1  0
 12 13  1  0
 13 14  1  0
 14 15  1  0
 15 16  1  0
 16 17  1  0
 17 18  2  0
 17 19  1  0
 19 20  1  0
 20 21  1  0
 21 22  2  0
 21 23  1  0
 23 24  2  0
 24 25  1  0
 25 26  2  0
 26 27  1  0
 27 28  2  0
 28 29  1  0
 28 30  1  0
 30 31  2  0
 31 32  1  0
 32 33  2  0
  8  3  1  0
 16 12  1  0
 33 23  1  0
 32 26  1  0
  1 34  1  0
  1 35  1  0
  1 36  1  0
  4 37  1  0
  5 38  1  0
  6 39  1  0
  7 40  1  0
  9 41  1  0
 12 42  1  1
 13 43  1  0
 13 44  1  0
 14 45  1  0
 14 46  1  0
 15 47  1  0
 15 48  1  0
 19 49  1  0
 19 50  1  0
 20 51  1  0
 24 52  1  0
 25 53  1  0
 27 54  1  0
 30 55  1  0
 31 56  1  0
M  END
>  <smiles>  (13) 
COc1ccccc1NC(=O)[C@@H]1CCCN1C(=O)CNC(=O)c1ccc2cc(Cl)ccc2n1

>  <score_type>  (13) 
oracle

>  <origin>  (13) 
autodockgpu

>  <m_score__min__energy>  (13) 
-9

>  <m_primary>  (13) 
energy

>  <rmsd>  (13) 
9.164125133831126

>  <m_score__min__rmsd>  (13) 
9.164125133831126

>  <meeko>  (13) 
{"free_energy": -7.52, "intermolecular_energy": -9.61, "internal_energy": -3.21, "cluster_size": 6, "cluster_id": 3, "rank_in_cluster": 5}

>  <energy>  (13) 
-7.91

>  <cluster_rmsd>  (13) 
1.78

>  <cluster>  (13) 
1

$$$$

     RDKit          3D

 56 59  0  0  0  0  0  0  0  0999 V2000
  141.8510   78.7550  219.1640 C   0  0  0  0  0  0  0  0  0  0  0  0
  141.0960   79.5500  220.0420 O   0  0  0  0  0  0  0  0  0  0  0  0
  141.4750   79.6020  221.3800 C   0  0  0  0  0  0  0  0  0  0  0  0
  142.4150   80.4990  221.8530 C   0  0  0  0  0  0  0  0  0  0  0  0
  142.7610   80.5170  223.1830 C   0  0  0  0  0  0  0  0  0  0  0  0
  142.2020   79.6590  224.1090 C   0  0  0  0  0  0  0  0  0  0  0  0
  141.2580   78.7550  223.6450 C   0  0  0  0  0  0  0  0  0  0  0  0
  140.9040   78.7310  222.3050 C   0  0  0  0  0  0  0  0  0  0  0  0
  139.9360   77.8130  221.7980 N   0  0  0  0  0  0  0  0  0  0  0  0
  138.5480   78.1650  221.9410 C   0  0  0  0  0  0  0  0  0  0  0  0
  138.2710   79.2620  222.5070 O   0  0  0  0  0  0  0  0  0  0  0  0
  137.5450   77.2260  221.4220 C   0  0  2  0  0  0  0  0  0  0  0  0
  136.2450   77.2150  222.1650 C   0  0  0  0  0  0  0  0  0  0  0  0
  136.0930   75.7760  222.6240 C   0  0  0  0  0  0  0  0  0  0  0  0
  137.5690   75.3700  222.7190 C   0  0  0  0  0  0  0  0  0  0  0  0
  138.0460   75.8250  221.4360 N   0  0  0  0  0  0  0  0  0  0  0  0
  138.7470   75.2850  220.3620 C   0  0  0  0  0  0  0  0  0  0  0  0
  139.2510   76.1590  219.5380 O   0  0  0  0  0  0  0  0  0  0  0  0
  139.0360   73.9090  219.9790 C   0  0  0  0  0  0  0  0  0  0  0  0
  138.9590   72.9130  220.9980 N   0  0  0  0  0  0  0  0  0  0  0  0
  139.9530   72.9870  222.0490 C   0  0  0  0  0  0  0  0  0  0  0  0
  140.7730   73.9180  221.9510 O   0  0  0  0  0  0  0  0  0  0  0  0
  139.9440   72.0050  223.1270 C   0  0  0  0  0  0  0  0  0  0  0  0
  139.3090   70.8040  222.8850 C   0  0  0  0  0  0  0  0  0  0  0  0
  139.2660   69.8210  223.8800 C   0  0  0  0  0  0  0  0  0  0  0  0
  139.8790   70.1120  225.0940 C   0  0  0  0  0  0  0  0  0  0  0  0
  139.8910   69.2050  226.1430 C   0  0  0  0  0  0  0  0  0  0  0  0
  140.4950   69.4750  227.3550 C   0  0  0  0  0  0  0  0  0  0  0  0
  140.4890   68.2970  228.6650 Cl  0  0  0  0  0  0  0  0  0  0  0  0
  141.1240   70.7090  227.5470 C   0  0  0  0  0  0  0  0  0  0  0  0
  141.1270   71.6360  226.5140 C   0  0  0  0  0  0  0  0  0  0  0  0
  140.5140   71.3300  225.3160 C   0  0  0  0  0  0  0  0  0  0  0  0
  140.5280   72.2410  224.3290 N   0  0  0  0  0  0  0  0  0  0  0  0
  142.4945   78.0774  219.7443 H   0  0  0  0  0  0  0  0  0  0  0  0
  141.1736   78.1640  218.5300 H   0  0  0  0  0  0  0  0  0  0  0  0
  142.4761   79.4010  218.5300 H   0  0  0  0  0  0  0  0  0  0  0  0
  142.8910   81.2058  221.1573 H   0  0  0  0  0  0  0  0  0  0  0  0
  143.5132   81.2439  223.5232 H   0  0  0  0  0  0  0  0  0  0  0  0
  142.4929   79.6910  225.1694 H   0  0  0  0  0  0  0  0  0  0  0  0
  140.7862   78.0511  224.3463 H   0  0  0  0  0  0  0  0  0  0  0  0
  140.1920   76.9110  221.3340 H   0  0  0  0  0  0  0  0  0  0  0  0
  137.3650   77.5939  220.4011 H   0  0  0  0  0  0  0  0  0  0  0  0
  136.2819   77.8979  223.0266 H   0  0  0  0  0  0  0  0  0  0  0  0
  135.4013   77.5516  221.5446 H   0  0  0  0  0  0  0  0  0  0  0  0
  135.5877   75.7096  223.5988 H   0  0  0  0  0  0  0  0  0  0  0  0
  135.4793   75.1423  221.9669 H   0  0  0  0  0  0  0  0  0  0  0  0
  138.0793   75.8826  223.5478 H   0  0  0  0  0  0  0  0  0  0  0  0
  137.7402   74.3024  222.9210 H   0  0  0  0  0  0  0  0  0  0  0  0
  138.3223   73.6294  219.1900 H   0  0  0  0  0  0  0  0  0  0  0  0
  140.0930   73.9182  219.6745 H   0  0  0  0  0  0  0  0  0  0  0  0
  138.2410   72.1410  221.0380 H   0  0  0  0  0  0  0  0  0  0  0  0
  138.8362   70.6192  221.9091 H   0  0  0  0  0  0  0  0  0  0  0  0
  138.7669   68.8558  223.7087 H   0  0  0  0  0  0  0  0  0  0  0  0
  139.3994   68.2309  226.0039 H   0  0  0  0  0  0  0  0  0  0  0  0
  141.6107   70.9423  228.5055 H   0  0  0  0  0  0  0  0  0  0  0  0
  141.6165   72.6117  226.6498 H   0  0  0  0  0  0  0  0  0  0  0  0
  1  2  1  0
  2  3  1  0
  3  4  2  0
  4  5  1  0
  5  6  2  0
  6  7  1  0
  7  8  2  0
  8  9  1  0
  9 10  1  0
 10 11  2  0
 10 12  1  0
 12 13  1  0
 13 14  1  0
 14 15  1  0
 15 16  1  0
 16 17  1  0
 17 18  2  0
 17 19  1  0
 19 20  1  0
 20 21  1  0
 21 22  2  0
 21 23  1  0
 23 24  2  0
 24 25  1  0
 25 26  2  0
 26 27  1  0
 27 28  2  0
 28 29  1  0
 28 30  1  0
 30 31  2  0
 31 32  1  0
 32 33  2  0
  8  3  1  0
 16 12  1  0
 33 23  1  0
 32 26  1  0
  1 34  1  0
  1 35  1  0
  1 36  1  0
  4 37  1  0
  5 38  1  0
  6 39  1  0
  7 40  1  0
  9 41  1  0
 12 42  1  6
 13 43  1  0
 13 44  1  0
 14 45  1  0
 14 46  1  0
 15 47  1  0
 15 48  1  0
 19 49  1  0
 19 50  1  0
 20 51  1  0
 24 52  1  0
 25 53  1  0
 27 54  1  0
 30 55  1  0
 31 56  1  0
M  END
>  <smiles>  (14) 
COc1ccccc1NC(=O)[C@@H]1CCCN1C(=O)CNC(=O)c1ccc2cc(Cl)ccc2n1

>  <score_type>  (14) 
oracle

>  <origin>  (14) 
autodockgpu

>  <m_score__min__energy>  (14) 
-9

>  <m_primary>  (14) 
energy

>  <rmsd>  (14) 
3.345817079254471

>  <m_score__min__rmsd>  (14) 
3.345817079254471

>  <meeko>  (14) 
{"free_energy": -7.61, "intermolecular_energy": -9.69, "internal_energy": -2.88, "cluster_size": 24, "cluster_id": 1, "rank_in_cluster": 23}

>  <energy>  (14) 
-7.85

>  <cluster_rmsd>  (14) 
1.64

>  <cluster>  (14) 
1

$$$$

     RDKit          3D

 56 59  0  0  0  0  0  0  0  0999 V2000
  138.9830   77.6420  221.6440 C   0  0  0  0  0  0  0  0  0  0  0  0
  139.8240   77.7650  222.7620 O   0  0  0  0  0  0  0  0  0  0  0  0
  140.6070   78.9100  222.8800 C   0  0  0  0  0  0  0  0  0  0  0  0
  140.2870   79.9460  223.7360 C   0  0  0  0  0  0  0  0  0  0  0  0
  141.0880   81.0600  223.8220 C   0  0  0  0  0  0  0  0  0  0  0  0
  142.2380   81.2080  223.0720 C   0  0  0  0  0  0  0  0  0  0  0  0
  142.5690   80.1740  222.2090 C   0  0  0  0  0  0  0  0  0  0  0  0
  141.7660   79.0480  222.1180 C   0  0  0  0  0  0  0  0  0  0  0  0
  142.0800   77.9680  221.2390 N   0  0  0  0  0  0  0  0  0  0  0  0
  142.1640   78.2590  219.8330 C   0  0  0  0  0  0  0  0  0  0  0  0
  141.9530   79.4490  219.4610 O   0  0  0  0  0  0  0  0  0  0  0  0
  142.4860   77.1530  218.9220 C   0  0  2  0  0  0  0  0  0  0  0  0
  142.6730   77.5480  217.4900 C   0  0  0  0  0  0  0  0  0  0  0  0
  141.6440   76.7200  216.7410 C   0  0  0  0  0  0  0  0  0  0  0  0
  140.5920   76.5440  217.8420 C   0  0  0  0  0  0  0  0  0  0  0  0
  141.4290   76.1060  218.9320 N   0  0  0  0  0  0  0  0  0  0  0  0
  141.4540   75.0450  219.8330 C   0  0  0  0  0  0  0  0  0  0  0  0
  142.4470   75.0620  220.6760 O   0  0  0  0  0  0  0  0  0  0  0  0
  140.5670   73.9050  220.0210 C   0  0  0  0  0  0  0  0  0  0  0  0
  140.6790   73.1780  221.2440 N   0  0  0  0  0  0  0  0  0  0  0  0
  139.7270   72.1060  221.4470 C   0  0  0  0  0  0  0  0  0  0  0  0
  138.9080   71.9310  220.5270 O   0  0  0  0  0  0  0  0  0  0  0  0
  139.7730   71.3160  222.6720 C   0  0  0  0  0  0  0  0  0  0  0  0
  139.1440   70.0890  222.6580 C   0  0  0  0  0  0  0  0  0  0  0  0
  139.1520   69.2830  223.8020 C   0  0  0  0  0  0  0  0  0  0  0  0
  139.8100   69.7730  224.9250 C   0  0  0  0  0  0  0  0  0  0  0  0
  139.8750   69.0520  226.1070 C   0  0  0  0  0  0  0  0  0  0  0  0
  140.5250   69.5210  227.2320 C   0  0  0  0  0  0  0  0  0  0  0  0
  140.5850   68.5760  228.7170 Cl  0  0  0  0  0  0  0  0  0  0  0  0
  141.1460   70.7740  227.1920 C   0  0  0  0  0  0  0  0  0  0  0  0
  141.0970   71.5170  226.0210 C   0  0  0  0  0  0  0  0  0  0  0  0
  140.4390   71.0150  224.9170 C   0  0  0  0  0  0  0  0  0  0  0  0
  140.4020   71.7500  223.7930 N   0  0  0  0  0  0  0  0  0  0  0  0
  137.9465   77.4904  221.9798 H   0  0  0  0  0  0  0  0  0  0  0  0
  139.0419   78.5583  221.0383 H   0  0  0  0  0  0  0  0  0  0  0  0
  139.3019   76.7809  221.0383 H   0  0  0  0  0  0  0  0  0  0  0  0
  139.3808   79.8788  224.3559 H   0  0  0  0  0  0  0  0  0  0  0  0
  140.8017   81.8647  224.5152 H   0  0  0  0  0  0  0  0  0  0  0  0
  142.8650   82.1079  223.1555 H   0  0  0  0  0  0  0  0  0  0  0  0
  143.4764   80.2482  221.5916 H   0  0  0  0  0  0  0  0  0  0  0  0
  142.2500   76.9910  221.5730 H   0  0  0  0  0  0  0  0  0  0  0  0
  143.4438   76.7803  219.3140 H   0  0  0  0  0  0  0  0  0  0  0  0
  142.4839   78.6230  217.3534 H   0  0  0  0  0  0  0  0  0  0  0  0
  143.6984   77.3711  217.1333 H   0  0  0  0  0  0  0  0  0  0  0  0
  141.2394   77.2600  215.8723 H   0  0  0  0  0  0  0  0  0  0  0  0
  142.0270   75.7824  216.3118 H   0  0  0  0  0  0  0  0  0  0  0  0
  140.0840   77.4916  218.0745 H   0  0  0  0  0  0  0  0  0  0  0  0
  139.7708   75.8576  217.5881 H   0  0  0  0  0  0  0  0  0  0  0  0
  139.5339   74.2763  219.9518 H   0  0  0  0  0  0  0  0  0  0  0  0
  140.8624   73.1882  219.2407 H   0  0  0  0  0  0  0  0  0  0  0  0
  141.3950   73.3650  221.9960 H   0  0  0  0  0  0  0  0  0  0  0  0
  138.6351   69.7432  221.7462 H   0  0  0  0  0  0  0  0  0  0  0  0
  138.6573   68.3006  223.8126 H   0  0  0  0  0  0  0  0  0  0  0  0
  139.3891   68.0661  226.1510 H   0  0  0  0  0  0  0  0  0  0  0  0
  141.6669   71.1656  228.0782 H   0  0  0  0  0  0  0  0  0  0  0  0
  141.5814   72.5034  225.9730 H   0  0  0  0  0  0  0  0  0  0  0  0
  1  2  1  0
  2  3  1  0
  3  4  2  0
  4  5  1  0
  5  6  2  0
  6  7  1  0
  7  8  2  0
  8  9  1  0
  9 10  1  0
 10 11  2  0
 10 12  1  0
 12 13  1  0
 13 14  1  0
 14 15  1  0
 15 16  1  0
 16 17  1  0
 17 18  2  0
 17 19  1  0
 19 20  1  0
 20 21  1  0
 21 22  2  0
 21 23  1  0
 23 24  2  0
 24 25  1  0
 25 26  2  0
 26 27  1  0
 27 28  2  0
 28 29  1  0
 28 30  1  0
 30 31  2  0
 31 32  1  0
 32 33  2  0
  8  3  1  0
 16 12  1  0
 33 23  1  0
 32 26  1  0
  1 34  1  0
  1 35  1  0
  1 36  1  0
  4 37  1  0
  5 38  1  0
  6 39  1  0
  7 40  1  0
  9 41  1  0
 12 42  1  1
 13 43  1  0
 13 44  1  0
 14 45  1  0
 14 46  1  0
 15 47  1  0
 15 48  1  0
 19 49  1  0
 19 50  1  0
 20 51  1  0
 24 52  1  0
 25 53  1  0
 27 54  1  0
 30 55  1  0
 31 56  1  0
M  END
>  <smiles>  (15) 
COc1ccccc1NC(=O)[C@@H]1CCCN1C(=O)CNC(=O)c1ccc2cc(Cl)ccc2n1

>  <score_type>  (15) 
oracle

>  <origin>  (15) 
autodockgpu

>  <m_score__min__energy>  (15) 
-9

>  <m_primary>  (15) 
energy

>  <rmsd>  (15) 
2.315179794888164

>  <m_score__min__rmsd>  (15) 
2.315179794888164

>  <meeko>  (15) 
{"free_energy": -7.83, "intermolecular_energy": -9.92, "internal_energy": -3.18, "cluster_size": 24, "cluster_id": 1, "rank_in_cluster": 17}

>  <energy>  (15) 
-7.85

>  <cluster_rmsd>  (15) 
1.88

>  <cluster>  (15) 
1

$$$$

     RDKit          3D

 56 59  0  0  0  0  0  0  0  0999 V2000
  141.4430   72.3860  227.2880 C   0  0  0  0  0  0  0  0  0  0  0  0
  140.3990   71.5330  227.6840 O   0  0  0  0  0  0  0  0  0  0  0  0
  140.5170   70.1720  227.4120 C   0  0  0  0  0  0  0  0  0  0  0  0
  140.9580   69.2610  228.3520 C   0  0  0  0  0  0  0  0  0  0  0  0
  141.0590   67.9250  228.0420 C   0  0  0  0  0  0  0  0  0  0  0  0
  140.7320   67.4240  226.7980 C   0  0  0  0  0  0  0  0  0  0  0  0
  140.2890   68.3310  225.8470 C   0  0  0  0  0  0  0  0  0  0  0  0
  140.1840   69.6790  226.1520 C   0  0  0  0  0  0  0  0  0  0  0  0
  139.7310   70.6350  225.1950 N   0  0  0  0  0  0  0  0  0  0  0  0
  138.4800   70.3710  224.5330 C   0  0  0  0  0  0  0  0  0  0  0  0
  137.8620   69.3110  224.8370 O   0  0  0  0  0  0  0  0  0  0  0  0
  138.0070   71.3510  223.5470 C   0  0  2  0  0  0  0  0  0  0  0  0
  136.6230   71.1070  223.0290 C   0  0  0  0  0  0  0  0  0  0  0  0
  136.8070   70.9770  221.5280 C   0  0  0  0  0  0  0  0  0  0  0  0
  138.2480   70.4550  221.4810 C   0  0  0  0  0  0  0  0  0  0  0  0
  138.8950   71.4030  222.3540 N   0  0  0  0  0  0  0  0  0  0  0  0
  139.9990   72.2490  222.2980 C   0  0  0  0  0  0  0  0  0  0  0  0
  141.0280   71.8590  222.9950 O   0  0  0  0  0  0  0  0  0  0  0  0
  140.2300   73.5040  221.5950 C   0  0  0  0  0  0  0  0  0  0  0  0
  139.7210   74.6960  222.1910 N   0  0  0  0  0  0  0  0  0  0  0  0
  140.4460   75.9180  221.9120 C   0  0  0  0  0  0  0  0  0  0  0  0
  141.4420   75.7980  221.1750 O   0  0  0  0  0  0  0  0  0  0  0  0
  139.9910   77.1800  222.4850 C   0  0  0  0  0  0  0  0  0  0  0  0
  140.9570   78.0500  222.9460 C   0  0  0  0  0  0  0  0  0  0  0  0
  140.5860   79.2770  223.5080 C   0  0  0  0  0  0  0  0  0  0  0  0
  139.2260   79.5640  223.5750 C   0  0  0  0  0  0  0  0  0  0  0  0
  138.7550   80.7520  224.1130 C   0  0  0  0  0  0  0  0  0  0  0  0
  137.4100   81.0550  224.1870 C   0  0  0  0  0  0  0  0  0  0  0  0
  136.8500   82.5750  224.8790 Cl  0  0  0  0  0  0  0  0  0  0  0  0
  136.4720   80.1360  223.7050 C   0  0  0  0  0  0  0  0  0  0  0  0
  136.9160   78.9380  223.1620 C   0  0  0  0  0  0  0  0  0  0  0  0
  138.2690   78.6700  223.1030 C   0  0  0  0  0  0  0  0  0  0  0  0
  138.6780   77.5060  222.5730 N   0  0  0  0  0  0  0  0  0  0  0  0
  141.9418   72.7935  228.1797 H   0  0  0  0  0  0  0  0  0  0  0  0
  142.1705   71.8206  226.6871 H   0  0  0  0  0  0  0  0  0  0  0  0
  141.0340   73.2116  226.6871 H   0  0  0  0  0  0  0  0  0  0  0  0
  141.2313   69.6079  229.3594 H   0  0  0  0  0  0  0  0  0  0  0  0
  141.4143   67.2284  228.8156 H   0  0  0  0  0  0  0  0  0  0  0  0
  140.8191   66.3513  226.5707 H   0  0  0  0  0  0  0  0  0  0  0  0
  140.0184   67.9773  224.8412 H   0  0  0  0  0  0  0  0  0  0  0  0
  140.2620   71.5050  224.9610 H   0  0  0  0  0  0  0  0  0  0  0  0
  138.0132   72.2948  224.1119 H   0  0  0  0  0  0  0  0  0  0  0  0
  136.2049   70.1820  223.4527 H   0  0  0  0  0  0  0  0  0  0  0  0
  135.9228   71.9108  223.3004 H   0  0  0  0  0  0  0  0  0  0  0  0
  136.0981   70.2587  221.0904 H   0  0  0  0  0  0  0  0  0  0  0  0
  136.6299   71.9008  220.9576 H   0  0  0  0  0  0  0  0  0  0  0  0
  138.3217   69.4284  221.8692 H   0  0  0  0  0  0  0  0  0  0  0  0
  138.6808   70.3891  220.4719 H   0  0  0  0  0  0  0  0  0  0  0  0
  141.3180   73.6271  221.4893 H   0  0  0  0  0  0  0  0  0  0  0  0
  139.6741   73.4030  220.6512 H   0  0  0  0  0  0  0  0  0  0  0  0
  138.8680   74.7470  222.8100 H   0  0  0  0  0  0  0  0  0  0  0  0
  142.0205   77.7791  222.8718 H   0  0  0  0  0  0  0  0  0  0  0  0
  141.3393   79.9861  223.8818 H   0  0  0  0  0  0  0  0  0  0  0  0
  139.4824   81.4827  224.4964 H   0  0  0  0  0  0  0  0  0  0  0  0
  135.3962   80.3598  223.7556 H   0  0  0  0  0  0  0  0  0  0  0  0
  136.1914   78.2040  222.7796 H   0  0  0  0  0  0  0  0  0  0  0  0
  1  2  1  0
  2  3  1  0
  3  4  2  0
  4  5  1  0
  5  6  2  0
  6  7  1  0
  7  8  2  0
  8  9  1  0
  9 10  1  0
 10 11  2  0
 10 12  1  0
 12 13  1  0
 13 14  1  0
 14 15  1  0
 15 16  1  0
 16 17  1  0
 17 18  2  0
 17 19  1  0
 19 20  1  0
 20 21  1  0
 21 22  2  0
 21 23  1  0
 23 24  2  0
 24 25  1  0
 25 26  2  0
 26 27  1  0
 27 28  2  0
 28 29  1  0
 28 30  1  0
 30 31  2  0
 31 32  1  0
 32 33  2  0
  8  3  1  0
 16 12  1  0
 33 23  1  0
 32 26  1  0
  1 34  1  0
  1 35  1  0
  1 36  1  0
  4 37  1  0
  5 38  1  0
  6 39  1  0
  7 40  1  0
  9 41  1  0
 12 42  1  1
 13 43  1  0
 13 44  1  0
 14 45  1  0
 14 46  1  0
 15 47  1  0
 15 48  1  0
 19 49  1  0
 19 50  1  0
 20 51  1  0
 24 52  1  0
 25 53  1  0
 27 54  1  0
 30 55  1  0
 31 56  1  0
M  END
>  <smiles>  (16) 
COc1ccccc1NC(=O)[C@@H]1CCCN1C(=O)CNC(=O)c1ccc2cc(Cl)ccc2n1

>  <score_type>  (16) 
oracle

>  <origin>  (16) 
autodockgpu

>  <m_score__min__energy>  (16) 
-9

>  <m_primary>  (16) 
energy

>  <rmsd>  (16) 
9.734245153079753

>  <m_score__min__rmsd>  (16) 
9.734245153079753

>  <meeko>  (16) 
{"free_energy": -8.11, "intermolecular_energy": -10.2, "internal_energy": -2.57, "cluster_size": 1, "cluster_id": 4, "rank_in_cluster": 1}

>  <energy>  (16) 
-7.83

>  <cluster_rmsd>  (16) 
1.84

>  <cluster>  (16) 
1

$$$$

     RDKit          3D

 56 59  0  0  0  0  0  0  0  0999 V2000
  143.3230   80.1810  223.1440 C   0  0  0  0  0  0  0  0  0  0  0  0
  141.9420   80.4330  223.0870 O   0  0  0  0  0  0  0  0  0  0  0  0
  141.4310   81.0710  221.9600 C   0  0  0  0  0  0  0  0  0  0  0  0
  141.1830   82.4300  221.9220 C   0  0  0  0  0  0  0  0  0  0  0  0
  140.6780   83.0200  220.7880 C   0  0  0  0  0  0  0  0  0  0  0  0
  140.3940   82.3060  219.6410 C   0  0  0  0  0  0  0  0  0  0  0  0
  140.6390   80.9410  219.6690 C   0  0  0  0  0  0  0  0  0  0  0  0
  141.1480   80.3390  220.8080 C   0  0  0  0  0  0  0  0  0  0  0  0
  141.4120   78.9370  220.8660 N   0  0  0  0  0  0  0  0  0  0  0  0
  142.1350   78.3520  219.7690 C   0  0  0  0  0  0  0  0  0  0  0  0
  142.4920   79.1100  218.8230 O   0  0  0  0  0  0  0  0  0  0  0  0
  142.4100   76.9100  219.8210 C   0  0  2  0  0  0  0  0  0  0  0  0
  143.3480   76.4070  218.7690 C   0  0  0  0  0  0  0  0  0  0  0  0
  142.5460   75.3490  218.0330 C   0  0  0  0  0  0  0  0  0  0  0  0
  141.1270   75.8830  218.2630 C   0  0  0  0  0  0  0  0  0  0  0  0
  141.1640   76.1080  219.6870 N   0  0  0  0  0  0  0  0  0  0  0  0
  140.3980   75.7510  220.7940 C   0  0  0  0  0  0  0  0  0  0  0  0
  140.6050   76.4680  221.8610 O   0  0  0  0  0  0  0  0  0  0  0  0
  139.3900   74.7170  220.9890 C   0  0  0  0  0  0  0  0  0  0  0  0
  139.5150   73.8850  222.1410 N   0  0  0  0  0  0  0  0  0  0  0  0
  139.6740   72.4660  221.8990 C   0  0  0  0  0  0  0  0  0  0  0  0
  139.6860   72.1220  220.7030 O   0  0  0  0  0  0  0  0  0  0  0  0
  139.8070   71.5480  223.0240 C   0  0  0  0  0  0  0  0  0  0  0  0
  139.3900   70.2470  222.8310 C   0  0  0  0  0  0  0  0  0  0  0  0
  139.4910   69.3170  223.8720 C   0  0  0  0  0  0  0  0  0  0  0  0
  140.0190   69.7630  225.0800 C   0  0  0  0  0  0  0  0  0  0  0  0
  140.1610   68.9200  226.1710 C   0  0  0  0  0  0  0  0  0  0  0  0
  140.6830   69.3440  227.3770 C   0  0  0  0  0  0  0  0  0  0  0  0
  140.8470   68.2430  228.7430 Cl  0  0  0  0  0  0  0  0  0  0  0  0
  141.0900   70.6750  227.5180 C   0  0  0  0  0  0  0  0  0  0  0  0
  140.9590   71.5400  226.4420 C   0  0  0  0  0  0  0  0  0  0  0  0
  140.4330   71.0800  225.2510 C   0  0  0  0  0  0  0  0  0  0  0  0
  140.3150   71.9340  224.2210 N   0  0  0  0  0  0  0  0  0  0  0  0
  143.6420   80.1228  224.1951 H   0  0  0  0  0  0  0  0  0  0  0  0
  143.5429   79.2279  222.6408 H   0  0  0  0  0  0  0  0  0  0  0  0
  143.8653   80.9950  222.6408 H   0  0  0  0  0  0  0  0  0  0  0  0
  141.3920   83.0462  222.8089 H   0  0  0  0  0  0  0  0  0  0  0  0
  140.4927   84.1043  220.7946 H   0  0  0  0  0  0  0  0  0  0  0  0
  139.9909   82.7983  218.7437 H   0  0  0  0  0  0  0  0  0  0  0  0
  140.4272   80.3310  218.7785 H   0  0  0  0  0  0  0  0  0  0  0  0
  141.1050   78.3310  221.6620 H   0  0  0  0  0  0  0  0  0  0  0  0
  142.8831   76.7833  220.8060 H   0  0  0  0  0  0  0  0  0  0  0  0
  143.6418   77.2188  218.0873 H   0  0  0  0  0  0  0  0  0  0  0  0
  144.2828   76.0101  219.1917 H   0  0  0  0  0  0  0  0  0  0  0  0
  142.8007   75.3141  216.9635 H   0  0  0  0  0  0  0  0  0  0  0  0
  142.7143   74.3176  218.3764 H   0  0  0  0  0  0  0  0  0  0  0  0
  140.9483   76.8158  217.7081 H   0  0  0  0  0  0  0  0  0  0  0  0
  140.3226   75.2140  217.9233 H   0  0  0  0  0  0  0  0  0  0  0  0
  138.4120   75.2171  221.0481 H   0  0  0  0  0  0  0  0  0  0  0  0
  139.5187   74.0353  220.1354 H   0  0  0  0  0  0  0  0  0  0  0  0
  139.5000   74.2270  223.1400 H   0  0  0  0  0  0  0  0  0  0  0  0
  138.9779   69.9405  221.8583 H   0  0  0  0  0  0  0  0  0  0  0  0
  139.1658   68.2744  223.7406 H   0  0  0  0  0  0  0  0  0  0  0  0
  139.8451   67.8710  226.0722 H   0  0  0  0  0  0  0  0  0  0  0  0
  141.5088   71.0311  228.4708 H   0  0  0  0  0  0  0  0  0  0  0  0
  141.2733   72.5899  226.5370 H   0  0  0  0  0  0  0  0  0  0  0  0
  1  2  1  0
  2  3  1  0
  3  4  2  0
  4  5  1  0
  5  6  2  0
  6  7  1  0
  7  8  2  0
  8  9  1  0
  9 10  1  0
 10 11  2  0
 10 12  1  0
 12 13  1  0
 13 14  1  0
 14 15  1  0
 15 16  1  0
 16 17  1  0
 17 18  2  0
 17 19  1  0
 19 20  1  0
 20 21  1  0
 21 22  2  0
 21 23  1  0
 23 24  2  0
 24 25  1  0
 25 26  2  0
 26 27  1  0
 27 28  2  0
 28 29  1  0
 28 30  1  0
 30 31  2  0
 31 32  1  0
 32 33  2  0
  8  3  1  0
 16 12  1  0
 33 23  1  0
 32 26  1  0
  1 34  1  0
  1 35  1  0
  1 36  1  0
  4 37  1  0
  5 38  1  0
  6 39  1  0
  7 40  1  0
  9 41  1  0
 12 42  1  1
 13 43  1  0
 13 44  1  0
 14 45  1  0
 14 46  1  0
 15 47  1  0
 15 48  1  0
 19 49  1  0
 19 50  1  0
 20 51  1  0
 24 52  1  0
 25 53  1  0
 27 54  1  0
 30 55  1  0
 31 56  1  0
M  END
>  <smiles>  (17) 
COc1ccccc1NC(=O)[C@@H]1CCCN1C(=O)CNC(=O)c1ccc2cc(Cl)ccc2n1

>  <score_type>  (17) 
oracle

>  <origin>  (17) 
autodockgpu

>  <m_score__min__energy>  (17) 
-9

>  <m_primary>  (17) 
energy

>  <rmsd>  (17) 
2.0635746540142996

>  <m_score__min__rmsd>  (17) 
2.0635746540142996

>  <meeko>  (17) 
{"free_energy": -7.62, "intermolecular_energy": -9.71, "internal_energy": -2.77, "cluster_size": 24, "cluster_id": 1, "rank_in_cluster": 22}

>  <energy>  (17) 
-7.83

>  <cluster_rmsd>  (17) 
1.18

>  <cluster>  (17) 
1

$$$$

     RDKit          3D

 56 59  0  0  0  0  0  0  0  0999 V2000
  141.8670   71.1730  218.8270 C   0  0  0  0  0  0  0  0  0  0  0  0
  142.6630   72.2730  218.4690 O   0  0  0  0  0  0  0  0  0  0  0  0
  143.7990   72.5450  219.2270 C   0  0  0  0  0  0  0  0  0  0  0  0
  144.9280   71.7490  219.1860 C   0  0  0  0  0  0  0  0  0  0  0  0
  146.0290   72.0530  219.9510 C   0  0  0  0  0  0  0  0  0  0  0  0
  146.0720   73.1490  220.7900 C   0  0  0  0  0  0  0  0  0  0  0  0
  144.9440   73.9540  220.8380 C   0  0  0  0  0  0  0  0  0  0  0  0
  143.8300   73.6540  220.0700 C   0  0  0  0  0  0  0  0  0  0  0  0
  142.6550   74.4630  220.0980 N   0  0  0  0  0  0  0  0  0  0  0  0
  142.8310   75.8910  220.0800 C   0  0  0  0  0  0  0  0  0  0  0  0
  144.0120   76.3410  220.0420 O   0  0  0  0  0  0  0  0  0  0  0  0
  141.6260   76.7300  220.1090 C   0  0  2  0  0  0  0  0  0  0  0  0
  141.8230   78.0980  220.6870 C   0  0  0  0  0  0  0  0  0  0  0  0
  140.8410   78.1560  221.8420 C   0  0  0  0  0  0  0  0  0  0  0  0
  140.7650   76.6670  222.2020 C   0  0  0  0  0  0  0  0  0  0  0  0
  140.5350   76.0980  220.8970 N   0  0  0  0  0  0  0  0  0  0  0  0
  139.6160   75.2300  220.3140 C   0  0  0  0  0  0  0  0  0  0  0  0
  139.8730   74.9040  219.0790 O   0  0  0  0  0  0  0  0  0  0  0  0
  138.4060   74.6020  220.8280 C   0  0  0  0  0  0  0  0  0  0  0  0
  138.5390   73.7480  221.9640 N   0  0  0  0  0  0  0  0  0  0  0  0
  139.5300   72.6970  221.8680 C   0  0  0  0  0  0  0  0  0  0  0  0
  140.1650   72.6500  220.7980 O   0  0  0  0  0  0  0  0  0  0  0  0
  139.7290   71.7810  222.9860 C   0  0  0  0  0  0  0  0  0  0  0  0
  139.3670   70.4630  222.7950 C   0  0  0  0  0  0  0  0  0  0  0  0
  139.5320   69.5350  223.8290 C   0  0  0  0  0  0  0  0  0  0  0  0
  140.0640   69.9990  225.0280 C   0  0  0  0  0  0  0  0  0  0  0  0
  140.2660   69.1590  226.1120 C   0  0  0  0  0  0  0  0  0  0  0  0
  140.7940   69.6020  227.3090 C   0  0  0  0  0  0  0  0  0  0  0  0
  141.0360   68.5050  228.6660 Cl  0  0  0  0  0  0  0  0  0  0  0  0
  141.1430   70.9500  227.4480 C   0  0  0  0  0  0  0  0  0  0  0  0
  140.9510   71.8130  226.3790 C   0  0  0  0  0  0  0  0  0  0  0  0
  140.4220   71.3340  225.1970 C   0  0  0  0  0  0  0  0  0  0  0  0
  140.2440   72.1850  224.1740 N   0  0  0  0  0  0  0  0  0  0  0  0
  141.8142   71.1000  219.9233 H   0  0  0  0  0  0  0  0  0  0  0  0
  140.8540   71.3052  218.4191 H   0  0  0  0  0  0  0  0  0  0  0  0
  142.3093   70.2521  218.4191 H   0  0  0  0  0  0  0  0  0  0  0  0
  144.9458   70.8629  218.5344 H   0  0  0  0  0  0  0  0  0  0  0  0
  146.9104   71.3974  219.8925 H   0  0  0  0  0  0  0  0  0  0  0  0
  146.9631   73.3739  221.3945 H   0  0  0  0  0  0  0  0  0  0  0  0
  144.9332   74.8387  221.4916 H   0  0  0  0  0  0  0  0  0  0  0  0
  141.6880   74.0640  220.1290 H   0  0  0  0  0  0  0  0  0  0  0  0
  141.3668   76.8289  219.0446 H   0  0  0  0  0  0  0  0  0  0  0  0
  142.8552   78.2258  221.0451 H   0  0  0  0  0  0  0  0  0  0  0  0
  141.6551   78.8965  219.9493 H   0  0  0  0  0  0  0  0  0  0  0  0
  141.2279   78.7586  222.6769 H   0  0  0  0  0  0  0  0  0  0  0  0
  139.8747   78.6254  221.6054 H   0  0  0  0  0  0  0  0  0  0  0  0
  141.7059   76.3064  222.6432 H   0  0  0  0  0  0  0  0  0  0  0  0
  140.0046   76.4136  222.9554 H   0  0  0  0  0  0  0  0  0  0  0  0
  137.7073   75.4067  221.1006 H   0  0  0  0  0  0  0  0  0  0  0  0
  138.0675   73.9399  220.0174 H   0  0  0  0  0  0  0  0  0  0  0  0
  137.9760   73.8300  222.8530 H   0  0  0  0  0  0  0  0  0  0  0  0
  138.9487   70.1420  221.8296 H   0  0  0  0  0  0  0  0  0  0  0  0
  139.2519   68.4792  223.6990 H   0  0  0  0  0  0  0  0  0  0  0  0
  139.9950   68.0973  226.0151 H   0  0  0  0  0  0  0  0  0  0  0  0
  141.5646   71.3210  228.3938 H   0  0  0  0  0  0  0  0  0  0  0  0
  141.2194   72.8756  226.4727 H   0  0  0  0  0  0  0  0  0  0  0  0
  1  2  1  0
  2  3  1  0
  3  4  2  0
  4  5  1  0
  5  6  2  0
  6  7  1  0
  7  8  2  0
  8  9  1  0
  9 10  1  0
 10 11  2  0
 10 12  1  0
 12 13  1  0
 13 14  1  0
 14 15  1  0
 15 16  1  0
 16 17  1  0
 17 18  2  0
 17 19  1  0
 19 20  1  0
 20 21  1  0
 21 22  2  0
 21 23  1  0
 23 24  2  0
 24 25  1  0
 25 26  2  0
 26 27  1  0
 27 28  2  0
 28 29  1  0
 28 30  1  0
 30 31  2  0
 31 32  1  0
 32 33  2  0
  8  3  1  0
 16 12  1  0
 33 23  1  0
 32 26  1  0
  1 34  1  0
  1 35  1  0
  1 36  1  0
  4 37  1  0
  5 38  1  0
  6 39  1  0
  7 40  1  0
  9 41  1  0
 12 42  1  6
 13 43  1  0
 13 44  1  0
 14 45  1  0
 14 46  1  0
 15 47  1  0
 15 48  1  0
 19 49  1  0
 19 50  1  0
 20 51  1  0
 24 52  1  0
 25 53  1  0
 27 54  1  0
 30 55  1  0
 31 56  1  0
M  END
>  <smiles>  (18) 
COc1ccccc1NC(=O)[C@@H]1CCCN1C(=O)CNC(=O)c1ccc2cc(Cl)ccc2n1

>  <score_type>  (18) 
oracle

>  <origin>  (18) 
autodockgpu

>  <m_score__min__energy>  (18) 
-9

>  <m_primary>  (18) 
energy

>  <rmsd>  (18) 
4.962935148192862

>  <m_score__min__rmsd>  (18) 
4.962935148192862

>  <meeko>  (18) 
{"free_energy": -7.92, "intermolecular_energy": -10.01, "internal_energy": -3.46, "cluster_size": 10, "cluster_id": 2, "rank_in_cluster": 6}

>  <energy>  (18) 
-7.78

>  <cluster_rmsd>  (18) 
1.66

>  <cluster>  (18) 
1

$$$$

     RDKit          3D

 56 59  0  0  0  0  0  0  0  0999 V2000
  139.2560   77.3540  218.0350 C   0  0  0  0  0  0  0  0  0  0  0  0
  139.8040   77.5190  219.3180 O   0  0  0  0  0  0  0  0  0  0  0  0
  139.9230   76.4000  220.1370 C   0  0  0  0  0  0  0  0  0  0  0  0
  139.1110   75.2890  220.0020 C   0  0  0  0  0  0  0  0  0  0  0  0
  139.2620   74.2040  220.8320 C   0  0  0  0  0  0  0  0  0  0  0  0
  140.2140   74.1580  221.8310 C   0  0  0  0  0  0  0  0  0  0  0  0
  141.0330   75.2680  221.9750 C   0  0  0  0  0  0  0  0  0  0  0  0
  140.8880   76.3660  221.1420 C   0  0  0  0  0  0  0  0  0  0  0  0
  141.7160   77.5220  221.2660 N   0  0  0  0  0  0  0  0  0  0  0  0
  141.1920   78.6360  222.0110 C   0  0  0  0  0  0  0  0  0  0  0  0
  140.0350   78.5260  222.5070 O   0  0  0  0  0  0  0  0  0  0  0  0
  142.0380   79.8300  222.1430 C   0  0  2  0  0  0  0  0  0  0  0  0
  142.9560   79.8250  223.3250 C   0  0  0  0  0  0  0  0  0  0  0  0
  142.5710   81.0740  224.0980 C   0  0  0  0  0  0  0  0  0  0  0  0
  141.1000   81.2000  223.6820 C   0  0  0  0  0  0  0  0  0  0  0  0
  141.2240   81.0700  222.2510 N   0  0  0  0  0  0  0  0  0  0  0  0
  140.8200   81.7840  221.1260 C   0  0  0  0  0  0  0  0  0  0  0  0
  140.8470   83.0800  221.2560 O   0  0  0  0  0  0  0  0  0  0  0  0
  140.3720   81.3530  219.8080 C   0  0  0  0  0  0  0  0  0  0  0  0
  140.7680   80.0540  219.3700 N   0  0  0  0  0  0  0  0  0  0  0  0
  142.0010   79.9760  218.6140 C   0  0  0  0  0  0  0  0  0  0  0  0
  142.5880   81.0580  218.4270 O   0  0  0  0  0  0  0  0  0  0  0  0
  142.4760   78.6850  218.1290 C   0  0  0  0  0  0  0  0  0  0  0  0
  142.5590   78.5140  216.7630 C   0  0  0  0  0  0  0  0  0  0  0  0
  143.0060   77.2990  216.2350 C   0  0  0  0  0  0  0  0  0  0  0  0
  143.3530   76.2970  217.1370 C   0  0  0  0  0  0  0  0  0  0  0  0
  143.8070   75.0570  216.7140 C   0  0  0  0  0  0  0  0  0  0  0  0
  144.1560   74.0520  217.5940 C   0  0  0  0  0  0  0  0  0  0  0  0
  144.7290   72.4890  217.0200 Cl  0  0  0  0  0  0  0  0  0  0  0  0
  144.0510   74.2790  218.9710 C   0  0  0  0  0  0  0  0  0  0  0  0
  143.5990   75.5110  219.4210 C   0  0  0  0  0  0  0  0  0  0  0  0
  143.2600   76.4930  218.5120 C   0  0  0  0  0  0  0  0  0  0  0  0
  142.8250   77.6780  218.9680 N   0  0  0  0  0  0  0  0  0  0  0  0
  138.2061   77.0379  218.1226 H   0  0  0  0  0  0  0  0  0  0  0  0
  139.3075   78.3075  217.4889 H   0  0  0  0  0  0  0  0  0  0  0  0
  139.8254   76.5875  217.4889 H   0  0  0  0  0  0  0  0  0  0  0  0
  138.3357   75.2734  219.2218 H   0  0  0  0  0  0  0  0  0  0  0  0
  138.5980   73.3378  220.6950 H   0  0  0  0  0  0  0  0  0  0  0  0
  140.3184   73.2792  222.4843 H   0  0  0  0  0  0  0  0  0  0  0  0
  141.8053   75.2769  222.7582 H   0  0  0  0  0  0  0  0  0  0  0  0
  142.6710   77.5880  220.8450 H   0  0  0  0  0  0  0  0  0  0  0  0
  142.6437   79.8089  221.2250 H   0  0  0  0  0  0  0  0  0  0  0  0
  142.8005   78.9239  223.9364 H   0  0  0  0  0  0  0  0  0  0  0  0
  144.0172   79.8180  223.0354 H   0  0  0  0  0  0  0  0  0  0  0  0
  142.6778   80.9317  225.1835 H   0  0  0  0  0  0  0  0  0  0  0  0
  143.1899   81.9588  223.8879 H   0  0  0  0  0  0  0  0  0  0  0  0
  140.4853   80.3954  224.1119 H   0  0  0  0  0  0  0  0  0  0  0  0
  140.6039   82.1222  224.0190 H   0  0  0  0  0  0  0  0  0  0  0  0
  139.2723   81.3795  219.8088 H   0  0  0  0  0  0  0  0  0  0  0  0
  140.8587   82.0460  219.1060 H   0  0  0  0  0  0  0  0  0  0  0  0
  140.2350   79.1630  219.5570 H   0  0  0  0  0  0  0  0  0  0  0  0
  142.2732   79.3344  216.0882 H   0  0  0  0  0  0  0  0  0  0  0  0
  143.0806   77.1410  215.1490 H   0  0  0  0  0  0  0  0  0  0  0  0
  143.8926   74.8664  215.6340 H   0  0  0  0  0  0  0  0  0  0  0  0
  144.3235   73.4903  219.6877 H   0  0  0  0  0  0  0  0  0  0  0  0
  143.5109   75.7050  220.5002 H   0  0  0  0  0  0  0  0  0  0  0  0
  1  2  1  0
  2  3  1  0
  3  4  2  0
  4  5  1  0
  5  6  2  0
  6  7  1  0
  7  8  2  0
  8  9  1  0
  9 10  1  0
 10 11  2  0
 10 12  1  0
 12 13  1  0
 13 14  1  0
 14 15  1  0
 15 16  1  0
 16 17  1  0
 17 18  2  0
 17 19  1  0
 19 20  1  0
 20 21  1  0
 21 22  2  0
 21 23  1  0
 23 24  2  0
 24 25  1  0
 25 26  2  0
 26 27  1  0
 27 28  2  0
 28 29  1  0
 28 30  1  0
 30 31  2  0
 31 32  1  0
 32 33  2  0
  8  3  1  0
 16 12  1  0
 33 23  1  0
 32 26  1  0
  1 34  1  0
  1 35  1  0
  1 36  1  0
  4 37  1  0
  5 38  1  0
  6 39  1  0
  7 40  1  0
  9 41  1  0
 12 42  1  6
 13 43  1  0
 13 44  1  0
 14 45  1  0
 14 46  1  0
 15 47  1  0
 15 48  1  0
 19 49  1  0
 19 50  1  0
 20 51  1  0
 24 52  1  0
 25 53  1  0
 27 54  1  0
 30 55  1  0
 31 56  1  0
M  END
>  <smiles>  (19) 
COc1ccccc1NC(=O)[C@@H]1CCCN1C(=O)CNC(=O)c1ccc2cc(Cl)ccc2n1

>  <score_type>  (19) 
oracle

>  <origin>  (19) 
autodockgpu

>  <m_score__min__energy>  (19) 
-9

>  <m_primary>  (19) 
energy

>  <rmsd>  (19) 
8.617140512777762

>  <m_score__min__rmsd>  (19) 
8.617140512777762

>  <meeko>  (19) 
{"free_energy": -5.58, "intermolecular_energy": -7.66, "internal_energy": -4.8, "cluster_size": 1, "cluster_id": 9, "rank_in_cluster": 1}

>  <energy>  (19) 
-7.78

>  <cluster_rmsd>  (19) 
1.27

>  <cluster>  (19) 
1

$$$$

     RDKit          3D

 56 59  0  0  0  0  0  0  0  0999 V2000
  141.8320   78.8240  219.2800 C   0  0  0  0  0  0  0  0  0  0  0  0
  141.1520   79.6980  220.1440 O   0  0  0  0  0  0  0  0  0  0  0  0
  141.5310   79.7330  221.4830 C   0  0  0  0  0  0  0  0  0  0  0  0
  142.5780   80.5110  221.9410 C   0  0  0  0  0  0  0  0  0  0  0  0
  142.9180   80.5160  223.2720 C   0  0  0  0  0  0  0  0  0  0  0  0
  142.2500   79.7610  224.2150 C   0  0  0  0  0  0  0  0  0  0  0  0
  141.1970   78.9770  223.7660 C   0  0  0  0  0  0  0  0  0  0  0  0
  140.8470   78.9660  222.4250 C   0  0  0  0  0  0  0  0  0  0  0  0
  139.7700   78.1700  221.9330 N   0  0  0  0  0  0  0  0  0  0  0  0
  138.4480   78.4710  222.4160 C   0  0  0  0  0  0  0  0  0  0  0  0
  138.3210   79.4190  223.2430 O   0  0  0  0  0  0  0  0  0  0  0  0
  137.3330   77.6570  221.9150 C   0  0  2  0  0  0  0  0  0  0  0  0
  136.0050   77.9520  222.5390 C   0  0  0  0  0  0  0  0  0  0  0  0
  135.5720   76.6240  223.1340 C   0  0  0  0  0  0  0  0  0  0  0  0
  136.9440   75.9920  223.3990 C   0  0  0  0  0  0  0  0  0  0  0  0
  137.5780   76.2040  222.1220 N   0  0  0  0  0  0  0  0  0  0  0  0
  138.2450   75.4300  221.1760 C   0  0  0  0  0  0  0  0  0  0  0  0
  138.8610   76.1040  220.2470 O   0  0  0  0  0  0  0  0  0  0  0  0
  138.3920   73.9880  221.0250 C   0  0  0  0  0  0  0  0  0  0  0  0
  138.7940   73.2450  222.1750 N   0  0  0  0  0  0  0  0  0  0  0  0
  138.6510   71.8060  222.0960 C   0  0  0  0  0  0  0  0  0  0  0  0
  138.1910   71.3680  221.0250 O   0  0  0  0  0  0  0  0  0  0  0  0
  139.0380   70.9730  223.2290 C   0  0  0  0  0  0  0  0  0  0  0  0
  138.7360   69.6290  223.1600 C   0  0  0  0  0  0  0  0  0  0  0  0
  139.0810   68.7780  224.2150 C   0  0  0  0  0  0  0  0  0  0  0  0
  139.7270   69.3440  225.3090 C   0  0  0  0  0  0  0  0  0  0  0  0
  140.1100   68.5850  226.4050 C   0  0  0  0  0  0  0  0  0  0  0  0
  140.7520   69.1290  227.5000 C   0  0  0  0  0  0  0  0  0  0  0  0
  141.2230   68.1340  228.8740 Cl  0  0  0  0  0  0  0  0  0  0  0  0
  141.0340   70.4990  227.5190 C   0  0  0  0  0  0  0  0  0  0  0  0
  140.6620   71.2820  226.4350 C   0  0  0  0  0  0  0  0  0  0  0  0
  140.0220   70.7030  225.3580 C   0  0  0  0  0  0  0  0  0  0  0  0
  139.6700   71.4780  224.3190 N   0  0  0  0  0  0  0  0  0  0  0  0
  142.4013   78.0923  219.8721 H   0  0  0  0  0  0  0  0  0  0  0  0
  141.1048   78.2961  218.6456 H   0  0  0  0  0  0  0  0  0  0  0  0
  142.5225   79.3991  218.6456 H   0  0  0  0  0  0  0  0  0  0  0  0
  143.1448   81.1326  221.2322 H   0  0  0  0  0  0  0  0  0  0  0  0
  143.7569   81.1475  223.5998 H   0  0  0  0  0  0  0  0  0  0  0  0
  142.5398   79.7801  225.2760 H   0  0  0  0  0  0  0  0  0  0  0  0
  140.6347   78.3584  224.4810 H   0  0  0  0  0  0  0  0  0  0  0  0
  139.9020   77.3910  221.2480 H   0  0  0  0  0  0  0  0  0  0  0  0
  137.2895   77.9245  220.8489 H   0  0  0  0  0  0  0  0  0  0  0  0
  136.1033   78.7175  223.3228 H   0  0  0  0  0  0  0  0  0  0  0  0
  135.2772   78.3477  221.8153 H   0  0  0  0  0  0  0  0  0  0  0  0
  134.9988   76.7602  224.0629 H   0  0  0  0  0  0  0  0  0  0  0  0
  134.9018   76.0274  222.4977 H   0  0  0  0  0  0  0  0  0  0  0  0
  137.4796   76.5078  224.2096 H   0  0  0  0  0  0  0  0  0  0  0  0
  136.9112   74.9427  223.7275 H   0  0  0  0  0  0  0  0  0  0  0  0
  137.4202   73.5897  220.6980 H   0  0  0  0  0  0  0  0  0  0  0  0
  139.2159   73.8629  220.3070 H   0  0  0  0  0  0  0  0  0  0  0  0
  139.1820   73.6640  223.0630 H   0  0  0  0  0  0  0  0  0  0  0  0
  138.2232   69.2259  222.2742 H   0  0  0  0  0  0  0  0  0  0  0  0
  138.8504   67.7030  224.1808 H   0  0  0  0  0  0  0  0  0  0  0  0
  139.8937   67.5065  226.4018 H   0  0  0  0  0  0  0  0  0  0  0  0
  141.5444   70.9503  228.3826 H   0  0  0  0  0  0  0  0  0  0  0  0
  140.8767   72.3608  226.4343 H   0  0  0  0  0  0  0  0  0  0  0  0
  1  2  1  0
  2  3  1  0
  3  4  2  0
  4  5  1  0
  5  6  2  0
  6  7  1  0
  7  8  2  0
  8  9  1  0
  9 10  1  0
 10 11  2  0
 10 12  1  0
 12 13  1  0
 13 14  1  0
 14 15  1  0
 15 16  1  0
 16 17  1  0
 17 18  2  0
 17 19  1  0
 19 20  1  0
 20 21  1  0
 21 22  2  0
 21 23  1  0
 23 24  2  0
 24 25  1  0
 25 26  2  0
 26 27  1  0
 27 28  2  0
 28 29  1  0
 28 30  1  0
 30 31  2  0
 31 32  1  0
 32 33  2  0
  8  3  1  0
 16 12  1  0
 33 23  1  0
 32 26  1  0
  1 34  1  0
  1 35  1  0
  1 36  1  0
  4 37  1  0
  5 38  1  0
  6 39  1  0
  7 40  1  0
  9 41  1  0
 12 42  1  6
 13 43  1  0
 13 44  1  0
 14 45  1  0
 14 46  1  0
 15 47  1  0
 15 48  1  0
 19 49  1  0
 19 50  1  0
 20 51  1  0
 24 52  1  0
 25 53  1  0
 27 54  1  0
 30 55  1  0
 31 56  1  0
M  END
>  <smiles>  (20) 
COc1ccccc1NC(=O)[C@@H]1CCCN1C(=O)CNC(=O)c1ccc2cc(Cl)ccc2n1

>  <score_type>  (20) 
oracle

>  <origin>  (20) 
autodockgpu

>  <m_score__min__energy>  (20) 
-9

>  <m_primary>  (20) 
energy

>  <rmsd>  (20) 
3.4770797555810113

>  <m_score__min__rmsd>  (20) 
3.4770797555810113

>  <meeko>  (20) 
{"free_energy": -7.94, "intermolecular_energy": -10.03, "internal_energy": -2.76, "cluster_size": 24, "cluster_id": 1, "rank_in_cluster": 11}

>  <energy>  (20) 
-7.73

>  <cluster_rmsd>  (20) 
1.62

>  <cluster>  (20) 
1

$$$$

     RDKit          3D

 56 59  0  0  0  0  0  0  0  0999 V2000
  138.0600   76.1280  222.7060 C   0  0  0  0  0  0  0  0  0  0  0  0
  138.7310   77.0360  221.8700 O   0  0  0  0  0  0  0  0  0  0  0  0
  139.5820   77.9700  222.4550 C   0  0  0  0  0  0  0  0  0  0  0  0
  139.1190   79.0150  223.2320 C   0  0  0  0  0  0  0  0  0  0  0  0
  139.9950   79.9150  223.7910 C   0  0  0  0  0  0  0  0  0  0  0  0
  141.3610   79.8320  223.6140 C   0  0  0  0  0  0  0  0  0  0  0  0
  141.8360   78.7870  222.8350 C   0  0  0  0  0  0  0  0  0  0  0  0
  140.9600   77.8750  222.2680 C   0  0  0  0  0  0  0  0  0  0  0  0
  141.4180   76.7900  221.4620 N   0  0  0  0  0  0  0  0  0  0  0  0
  141.4650   76.9940  220.0390 C   0  0  0  0  0  0  0  0  0  0  0  0
  141.0980   78.1170  219.5890 O   0  0  0  0  0  0  0  0  0  0  0  0
  141.9350   75.8820  219.2020 C   0  0  2  0  0  0  0  0  0  0  0  0
  142.7220   76.2890  217.9950 C   0  0  0  0  0  0  0  0  0  0  0  0
  141.9460   75.6970  216.8320 C   0  0  0  0  0  0  0  0  0  0  0  0
  140.5360   75.6800  217.4340 C   0  0  0  0  0  0  0  0  0  0  0  0
  140.8050   75.0530  218.7050 N   0  0  0  0  0  0  0  0  0  0  0  0
  140.3120   73.9730  219.4310 C   0  0  0  0  0  0  0  0  0  0  0  0
  141.0560   72.9040  219.4050 O   0  0  0  0  0  0  0  0  0  0  0  0
  139.1060   73.8070  220.2320 C   0  0  0  0  0  0  0  0  0  0  0  0
  139.1070   72.7740  221.2170 N   0  0  0  0  0  0  0  0  0  0  0  0
  140.0210   72.9440  222.3280 C   0  0  0  0  0  0  0  0  0  0  0  0
  140.7100   73.9800  222.3060 O   0  0  0  0  0  0  0  0  0  0  0  0
  140.0840   71.9330  223.3780 C   0  0  0  0  0  0  0  0  0  0  0  0
  139.6750   70.6560  223.0520 C   0  0  0  0  0  0  0  0  0  0  0  0
  139.7110   69.6420  224.0140 C   0  0  0  0  0  0  0  0  0  0  0  0
  140.1690   69.9790  225.2840 C   0  0  0  0  0  0  0  0  0  0  0  0
  140.2430   69.0470  226.3070 C   0  0  0  0  0  0  0  0  0  0  0  0
  140.6960   69.3630  227.5720 C   0  0  0  0  0  0  0  0  0  0  0  0
  140.7750   68.1500  228.8480 Cl  0  0  0  0  0  0  0  0  0  0  0  0
  141.0980   70.6740  227.8490 C   0  0  0  0  0  0  0  0  0  0  0  0
  141.0340   71.6280  226.8430 C   0  0  0  0  0  0  0  0  0  0  0  0
  140.5770   71.2740  225.5900 C   0  0  0  0  0  0  0  0  0  0  0  0
  140.5230   72.2120  224.6300 N   0  0  0  0  0  0  0  0  0  0  0  0
  138.2517   76.3873  223.7577 H   0  0  0  0  0  0  0  0  0  0  0  0
  136.9792   76.1766  222.5075 H   0  0  0  0  0  0  0  0  0  0  0  0
  138.4238   75.1091  222.5075 H   0  0  0  0  0  0  0  0  0  0  0  0
  138.0385   79.1277  223.4049 H   0  0  0  0  0  0  0  0  0  0  0  0
  139.5908   80.7341  224.4039 H   0  0  0  0  0  0  0  0  0  0  0  0
  142.0440   80.5632  224.0710 H   0  0  0  0  0  0  0  0  0  0  0  0
  142.9178   78.6813  222.6658 H   0  0  0  0  0  0  0  0  0  0  0  0
  141.7170   75.8700  221.8600 H   0  0  0  0  0  0  0  0  0  0  0  0
  142.5944   75.3213  219.8808 H   0  0  0  0  0  0  0  0  0  0  0  0
  142.7732   77.3848  217.9132 H   0  0  0  0  0  0  0  0  0  0  0  0
  143.7636   75.9372  218.0310 H   0  0  0  0  0  0  0  0  0  0  0  0
  142.0004   76.3353  215.9378 H   0  0  0  0  0  0  0  0  0  0  0  0
  142.3114   74.7209  216.4802 H   0  0  0  0  0  0  0  0  0  0  0  0
  140.1346   76.6965  217.5587 H   0  0  0  0  0  0  0  0  0  0  0  0
  139.7797   75.1692  216.8199 H   0  0  0  0  0  0  0  0  0  0  0  0
  138.9224   74.7585  220.7524 H   0  0  0  0  0  0  0  0  0  0  0  0
  138.3301   73.5075  219.5121 H   0  0  0  0  0  0  0  0  0  0  0  0
  138.5000   71.9110  221.1920 H   0  0  0  0  0  0  0  0  0  0  0  0
  139.3203   70.4356  222.0343 H   0  0  0  0  0  0  0  0  0  0  0  0
  139.3896   68.6173  223.7760 H   0  0  0  0  0  0  0  0  0  0  0  0
  139.9278   68.0131  226.1025 H   0  0  0  0  0  0  0  0  0  0  0  0
  141.4603   70.9453  228.8516 H   0  0  0  0  0  0  0  0  0  0  0  0
  141.3467   72.6633  227.0439 H   0  0  0  0  0  0  0  0  0  0  0  0
  1  2  1  0
  2  3  1  0
  3  4  2  0
  4  5  1  0
  5  6  2  0
  6  7  1  0
  7  8  2  0
  8  9  1  0
  9 10  1  0
 10 11  2  0
 10 12  1  0
 12 13  1  0
 13 14  1  0
 14 15  1  0
 15 16  1  0
 16 17  1  0
 17 18  2  0
 17 19  1  0
 19 20  1  0
 20 21  1  0
 21 22  2  0
 21 23  1  0
 23 24  2  0
 24 25  1  0
 25 26  2  0
 26 27  1  0
 27 28  2  0
 28 29  1  0
 28 30  1  0
 30 31  2  0
 31 32  1  0
 32 33  2  0
  8  3  1  0
 16 12  1  0
 33 23  1  0
 32 26  1  0
  1 34  1  0
  1 35  1  0
  1 36  1  0
  4 37  1  0
  5 38  1  0
  6 39  1  0
  7 40  1  0
  9 41  1  0
 12 42  1  1
 13 43  1  0
 13 44  1  0
 14 45  1  0
 14 46  1  0
 15 47  1  0
 15 48  1  0
 19 49  1  0
 19 50  1  0
 20 51  1  0
 24 52  1  0
 25 53  1  0
 27 54  1  0
 30 55  1  0
 31 56  1  0
M  END
>  <smiles>  (21) 
COc1ccccc1NC(=O)[C@@H]1CCCN1C(=O)CNC(=O)c1ccc2cc(Cl)ccc2n1

>  <score_type>  (21) 
oracle

>  <origin>  (21) 
autodockgpu

>  <m_score__min__energy>  (21) 
-9

>  <m_primary>  (21) 
energy

>  <rmsd>  (21) 
2.380546037329281

>  <m_score__min__rmsd>  (21) 
2.380546037329281

>  <meeko>  (21) 
{"free_energy": -7.78, "intermolecular_energy": -9.87, "internal_energy": -2.94, "cluster_size": 24, "cluster_id": 1, "rank_in_cluster": 19}

>  <energy>  (21) 
-7.64

>  <cluster_rmsd>  (21) 
1.87

>  <cluster>  (21) 
1

$$$$

     RDKit          3D

 56 59  0  0  0  0  0  0  0  0999 V2000
  142.1720   78.1810  219.0640 C   0  0  0  0  0  0  0  0  0  0  0  0
  141.0120   78.4590  219.8060 O   0  0  0  0  0  0  0  0  0  0  0  0
  141.1540   78.8900  221.1220 C   0  0  0  0  0  0  0  0  0  0  0  0
  141.1060   80.2250  221.4780 C   0  0  0  0  0  0  0  0  0  0  0  0
  141.2510   80.6070  222.7900 C   0  0  0  0  0  0  0  0  0  0  0  0
  141.4500   79.7000  223.8120 C   0  0  0  0  0  0  0  0  0  0  0  0
  141.5010   78.3580  223.4650 C   0  0  0  0  0  0  0  0  0  0  0  0
  141.3550   77.9650  222.1440 C   0  0  0  0  0  0  0  0  0  0  0  0
  141.4030   76.5920  221.7570 N   0  0  0  0  0  0  0  0  0  0  0  0
  140.1740   75.8450  221.8090 C   0  0  0  0  0  0  0  0  0  0  0  0
  139.1310   76.4470  222.1940 O   0  0  0  0  0  0  0  0  0  0  0  0
  140.2140   74.4310  221.4120 C   0  0  2  0  0  0  0  0  0  0  0  0
  141.5870   73.8700  221.2120 C   0  0  0  0  0  0  0  0  0  0  0  0
  141.5800   73.3770  219.7770 C   0  0  0  0  0  0  0  0  0  0  0  0
  140.5400   74.3290  219.1740 C   0  0  0  0  0  0  0  0  0  0  0  0
  139.4780   74.1970  220.1410 N   0  0  0  0  0  0  0  0  0  0  0  0
  138.1160   73.9070  220.1230 C   0  0  0  0  0  0  0  0  0  0  0  0
  137.4750   74.3360  219.0740 O   0  0  0  0  0  0  0  0  0  0  0  0
  137.2580   73.2020  221.0660 C   0  0  0  0  0  0  0  0  0  0  0  0
  137.8340   72.8040  222.3100 N   0  0  0  0  0  0  0  0  0  0  0  0
  138.6670   71.6200  222.2860 C   0  0  0  0  0  0  0  0  0  0  0  0
  138.7950   71.0730  221.1750 O   0  0  0  0  0  0  0  0  0  0  0  0
  139.2930   71.1470  223.5160 C   0  0  0  0  0  0  0  0  0  0  0  0
  140.3020   71.9200  224.0500 C   0  0  0  0  0  0  0  0  0  0  0  0
  140.9420   71.5200  225.2280 C   0  0  0  0  0  0  0  0  0  0  0  0
  140.5180   70.3320  225.8160 C   0  0  0  0  0  0  0  0  0  0  0  0
  141.0890   69.8500  226.9840 C   0  0  0  0  0  0  0  0  0  0  0  0
  140.6800   68.6740  227.5820 C   0  0  0  0  0  0  0  0  0  0  0  0
  141.4300   68.0920  229.0660 Cl  0  0  0  0  0  0  0  0  0  0  0  0
  139.6520   67.9280  226.9960 C   0  0  0  0  0  0  0  0  0  0  0  0
  139.0630   68.3870  225.8270 C   0  0  0  0  0  0  0  0  0  0  0  0
  139.4970   69.5680  225.2580 C   0  0  0  0  0  0  0  0  0  0  0  0
  138.9150   69.9960  224.1260 N   0  0  0  0  0  0  0  0  0  0  0  0
  143.0075   77.9808  219.7509 H   0  0  0  0  0  0  0  0  0  0  0  0
  141.9991   77.2989  218.4300 H   0  0  0  0  0  0  0  0  0  0  0  0
  142.4177   79.0457  218.4300 H   0  0  0  0  0  0  0  0  0  0  0  0
  140.9501   80.9896  220.7027 H   0  0  0  0  0  0  0  0  0  0  0  0
  141.2068   81.6782  223.0360 H   0  0  0  0  0  0  0  0  0  0  0  0
  141.5631   80.0275  224.8560 H   0  0  0  0  0  0  0  0  0  0  0  0
  141.6588   77.5989  224.2453 H   0  0  0  0  0  0  0  0  0  0  0  0
  142.2800   76.1170  221.4420 H   0  0  0  0  0  0  0  0  0  0  0  0
  139.7443   73.9198  222.2652 H   0  0  0  0  0  0  0  0  0  0  0  0
  142.3513   74.6483  221.3538 H   0  0  0  0  0  0  0  0  0  0  0  0
  141.8262   73.0727  221.9311 H   0  0  0  0  0  0  0  0  0  0  0  0
  142.5646   73.4932  219.3005 H   0  0  0  0  0  0  0  0  0  0  0  0
  141.3546   72.3072  219.6555 H   0  0  0  0  0  0  0  0  0  0  0  0
  140.9159   75.3614  219.1208 H   0  0  0  0  0  0  0  0  0  0  0  0
  140.2506   74.0982  218.1381 H   0  0  0  0  0  0  0  0  0  0  0  0
  136.4065   73.8605  221.2927 H   0  0  0  0  0  0  0  0  0  0  0  0
  137.0017   72.2589  220.5611 H   0  0  0  0  0  0  0  0  0  0  0  0
  137.6970   73.3050  223.2290 H   0  0  0  0  0  0  0  0  0  0  0  0
  140.6040   72.8518  223.5495 H   0  0  0  0  0  0  0  0  0  0  0  0
  141.7490   72.1212  225.6722 H   0  0  0  0  0  0  0  0  0  0  0  0
  141.8997   70.4269  227.4529 H   0  0  0  0  0  0  0  0  0  0  0  0
  139.3145   66.9880  227.4570 H   0  0  0  0  0  0  0  0  0  0  0  0
  138.2528   67.8121  225.3547 H   0  0  0  0  0  0  0  0  0  0  0  0
  1  2  1  0
  2  3  1  0
  3  4  2  0
  4  5  1  0
  5  6  2  0
  6  7  1  0
  7  8  2  0
  8  9  1  0
  9 10  1  0
 10 11  2  0
 10 12  1  0
 12 13  1  0
 13 14  1  0
 14 15  1  0
 15 16  1  0
 16 17  1  0
 17 18  2  0
 17 19  1  0
 19 20  1  0
 20 21  1  0
 21 22  2  0
 21 23  1  0
 23 24  2  0
 24 25  1  0
 25 26  2  0
 26 27  1  0
 27 28  2  0
 28 29  1  0
 28 30  1  0
 30 31  2  0
 31 32  1  0
 32 33  2  0
  8  3  1  0
 16 12  1  0
 33 23  1  0
 32 26  1  0
  1 34  1  0
  1 35  1  0
  1 36  1  0
  4 37  1  0
  5 38  1  0
  6 39  1  0
  7 40  1  0
  9 41  1  0
 12 42  1  1
 13 43  1  0
 13 44  1  0
 14 45  1  0
 14 46  1  0
 15 47  1  0
 15 48  1  0
 19 49  1  0
 19 50  1  0
 20 51  1  0
 24 52  1  0
 25 53  1  0
 27 54  1  0
 30 55  1  0
 31 56  1  0
M  END
>  <smiles>  (22) 
COc1ccccc1NC(=O)[C@@H]1CCCN1C(=O)CNC(=O)c1ccc2cc(Cl)ccc2n1

>  <score_type>  (22) 
oracle

>  <origin>  (22) 
autodockgpu

>  <m_score__min__energy>  (22) 
-9

>  <m_primary>  (22) 
energy

>  <rmsd>  (22) 
3.0353607788535113

>  <m_score__min__rmsd>  (22) 
3.0353607788535113

>  <meeko>  (22) 
{"free_energy": -8.21, "intermolecular_energy": -10.29, "internal_energy": -2.4, "cluster_size": 24, "cluster_id": 1, "rank_in_cluster": 5}

>  <energy>  (22) 
-7.62

>  <cluster_rmsd>  (22) 
1.73

>  <cluster>  (22) 
1

$$$$

     RDKit          3D

 56 59  0  0  0  0  0  0  0  0999 V2000
  141.8180   79.5020  219.1940 C   0  0  0  0  0  0  0  0  0  0  0  0
  141.0370   80.1110  220.1900 O   0  0  0  0  0  0  0  0  0  0  0  0
  141.4660   80.0260  221.5120 C   0  0  0  0  0  0  0  0  0  0  0  0
  142.5300   80.7620  221.9980 C   0  0  0  0  0  0  0  0  0  0  0  0
  142.9210   80.6490  223.3110 C   0  0  0  0  0  0  0  0  0  0  0  0
  142.2870   79.8100  224.2060 C   0  0  0  0  0  0  0  0  0  0  0  0
  141.2180   79.0660  223.7280 C   0  0  0  0  0  0  0  0  0  0  0  0
  140.8180   79.1760  222.4050 C   0  0  0  0  0  0  0  0  0  0  0  0
  139.7220   78.4240  221.8850 N   0  0  0  0  0  0  0  0  0  0  0  0
  138.4330   78.6220  222.4940 C   0  0  0  0  0  0  0  0  0  0  0  0
  138.3500   79.4450  223.4510 O   0  0  0  0  0  0  0  0  0  0  0  0
  137.3000   77.8520  221.9640 C   0  0  2  0  0  0  0  0  0  0  0  0
  136.0050   78.0550  222.6880 C   0  0  0  0  0  0  0  0  0  0  0  0
  135.6170   76.6620  223.1500 C   0  0  0  0  0  0  0  0  0  0  0  0
  137.0070   76.0250  223.2690 C   0  0  0  0  0  0  0  0  0  0  0  0
  137.5680   76.3890  221.9910 N   0  0  0  0  0  0  0  0  0  0  0  0
  138.1890   75.7370  220.9290 C   0  0  0  0  0  0  0  0  0  0  0  0
  138.4150   76.4790  219.8830 O   0  0  0  0  0  0  0  0  0  0  0  0
  138.6460   74.3630  220.7630 C   0  0  0  0  0  0  0  0  0  0  0  0
  138.8990   73.6060  221.9460 N   0  0  0  0  0  0  0  0  0  0  0  0
  139.1150   72.1850  221.7680 C   0  0  0  0  0  0  0  0  0  0  0  0
  139.0580   71.7730  220.5950 O   0  0  0  0  0  0  0  0  0  0  0  0
  139.3790   71.3400  222.9280 C   0  0  0  0  0  0  0  0  0  0  0  0
  138.9960   70.0180  222.8470 C   0  0  0  0  0  0  0  0  0  0  0  0
  139.2210   69.1550  223.9250 C   0  0  0  0  0  0  0  0  0  0  0  0
  139.8340   69.6890  225.0550 C   0  0  0  0  0  0  0  0  0  0  0  0
  140.1000   68.9180  226.1760 C   0  0  0  0  0  0  0  0  0  0  0  0
  140.7080   69.4300  227.3050 C   0  0  0  0  0  0  0  0  0  0  0  0
  141.0300   68.4190  228.7110 Cl  0  0  0  0  0  0  0  0  0  0  0  0
  141.0750   70.7800  227.3340 C   0  0  0  0  0  0  0  0  0  0  0  0
  140.8200   71.5750  226.2250 C   0  0  0  0  0  0  0  0  0  0  0  0
  140.2110   71.0280  225.1140 C   0  0  0  0  0  0  0  0  0  0  0  0
  139.9730   71.8140  224.0510 N   0  0  0  0  0  0  0  0  0  0  0  0
  142.6018   78.8908  219.6652 H   0  0  0  0  0  0  0  0  0  0  0  0
  141.1796   78.8609  218.5684 H   0  0  0  0  0  0  0  0  0  0  0  0
  142.2842   80.2774  218.5684 H   0  0  0  0  0  0  0  0  0  0  0  0
  143.0700   81.4459  221.3267 H   0  0  0  0  0  0  0  0  0  0  0  0
  143.7723   81.2505  223.6625 H   0  0  0  0  0  0  0  0  0  0  0  0
  142.6155   79.7348  225.2531 H   0  0  0  0  0  0  0  0  0  0  0  0
  140.6832   78.3830  224.4044 H   0  0  0  0  0  0  0  0  0  0  0  0
  139.8180   77.7500  221.0920 H   0  0  0  0  0  0  0  0  0  0  0  0
  137.1969   78.2368  220.9387 H   0  0  0  0  0  0  0  0  0  0  0  0
  136.1395   78.7282  223.5475 H   0  0  0  0  0  0  0  0  0  0  0  0
  135.2352   78.5194  222.0542 H   0  0  0  0  0  0  0  0  0  0  0  0
  135.0935   76.6836  224.1172 H   0  0  0  0  0  0  0  0  0  0  0  0
  134.9190   76.1310  222.4861 H   0  0  0  0  0  0  0  0  0  0  0  0
  137.5815   76.4547  224.1028 H   0  0  0  0  0  0  0  0  0  0  0  0
  137.0020   74.9452  223.4788 H   0  0  0  0  0  0  0  0  0  0  0  0
  137.8772   73.8272  220.1870 H   0  0  0  0  0  0  0  0  0  0  0  0
  139.6260   74.4508  220.2711 H   0  0  0  0  0  0  0  0  0  0  0  0
  138.9380   74.0030  222.9230 H   0  0  0  0  0  0  0  0  0  0  0  0
  138.5128   69.6412  221.9335 H   0  0  0  0  0  0  0  0  0  0  0  0
  138.9252   68.0964  223.8814 H   0  0  0  0  0  0  0  0  0  0  0  0
  139.8152   67.8555  226.1656 H   0  0  0  0  0  0  0  0  0  0  0  0
  141.5597   71.2061  228.2248 H   0  0  0  0  0  0  0  0  0  0  0  0
  141.1026   72.6381  226.2318 H   0  0  0  0  0  0  0  0  0  0  0  0
  1  2  1  0
  2  3  1  0
  3  4  2  0
  4  5  1  0
  5  6  2  0
  6  7  1  0
  7  8  2  0
  8  9  1  0
  9 10  1  0
 10 11  2  0
 10 12  1  0
 12 13  1  0
 13 14  1  0
 14 15  1  0
 15 16  1  0
 16 17  1  0
 17 18  2  0
 17 19  1  0
 19 20  1  0
 20 21  1  0
 21 22  2  0
 21 23  1  0
 23 24  2  0
 24 25  1  0
 25 26  2  0
 26 27  1  0
 27 28  2  0
 28 29  1  0
 28 30  1  0
 30 31  2  0
 31 32  1  0
 32 33  2  0
  8  3  1  0
 16 12  1  0
 33 23  1  0
 32 26  1  0
  1 34  1  0
  1 35  1  0
  1 36  1  0
  4 37  1  0
  5 38  1  0
  6 39  1  0
  7 40  1  0
  9 41  1  0
 12 42  1  6
 13 43  1  0
 13 44  1  0
 14 45  1  0
 14 46  1  0
 15 47  1  0
 15 48  1  0
 19 49  1  0
 19 50  1  0
 20 51  1  0
 24 52  1  0
 25 53  1  0
 27 54  1  0
 30 55  1  0
 31 56  1  0
M  END
>  <smiles>  (23) 
COc1ccccc1NC(=O)[C@@H]1CCCN1C(=O)CNC(=O)c1ccc2cc(Cl)ccc2n1

>  <score_type>  (23) 
oracle

>  <origin>  (23) 
autodockgpu

>  <m_score__min__energy>  (23) 
-9

>  <m_primary>  (23) 
energy

>  <rmsd>  (23) 
3.5232886034516095

>  <m_score__min__rmsd>  (23) 
3.5232886034516095

>  <meeko>  (23) 
{"free_energy": -8.04, "intermolecular_energy": -10.13, "internal_energy": -2.61, "cluster_size": 24, "cluster_id": 1, "rank_in_cluster": 9}

>  <energy>  (23) 
-7.61

>  <cluster_rmsd>  (23) 
1.62

>  <cluster>  (23) 
1

$$$$

     RDKit          3D

 56 59  0  0  0  0  0  0  0  0999 V2000
  138.6160   78.9290  223.1370 C   0  0  0  0  0  0  0  0  0  0  0  0
  139.3230   80.0340  222.6360 O   0  0  0  0  0  0  0  0  0  0  0  0
  140.6480   80.2070  223.0280 C   0  0  0  0  0  0  0  0  0  0  0  0
  141.0550   81.2530  223.8340 C   0  0  0  0  0  0  0  0  0  0  0  0
  142.3730   81.3870  224.1990 C   0  0  0  0  0  0  0  0  0  0  0  0
  143.3510   80.5020  223.7910 C   0  0  0  0  0  0  0  0  0  0  0  0
  142.9530   79.4480  222.9820 C   0  0  0  0  0  0  0  0  0  0  0  0
  141.6260   79.3060  222.6100 C   0  0  0  0  0  0  0  0  0  0  0  0
  141.1860   78.2330  221.7790 N   0  0  0  0  0  0  0  0  0  0  0  0
  141.5180   78.2970  220.3810 C   0  0  0  0  0  0  0  0  0  0  0  0
  142.1760   79.2970  219.9730 O   0  0  0  0  0  0  0  0  0  0  0  0
  141.0690   77.1960  219.5180 C   0  0  2  0  0  0  0  0  0  0  0  0
  140.9130   77.5500  218.0720 C   0  0  0  0  0  0  0  0  0  0  0  0
  139.4610   77.2300  217.7680 C   0  0  0  0  0  0  0  0  0  0  0  0
  138.8470   77.4340  219.1580 C   0  0  0  0  0  0  0  0  0  0  0  0
  139.7570   76.6530  219.9590 N   0  0  0  0  0  0  0  0  0  0  0  0
  139.6640   75.6280  220.8970 C   0  0  0  0  0  0  0  0  0  0  0  0
  140.3470   75.8180  221.9900 O   0  0  0  0  0  0  0  0  0  0  0  0
  138.9340   74.3670  220.8930 C   0  0  0  0  0  0  0  0  0  0  0  0
  139.0310   73.5470  222.0570 N   0  0  0  0  0  0  0  0  0  0  0  0
  139.6480   72.2490  221.8820 C   0  0  0  0  0  0  0  0  0  0  0  0
  140.0320   71.9850  220.7280 O   0  0  0  0  0  0  0  0  0  0  0  0
  139.7850   71.3490  223.0230 C   0  0  0  0  0  0  0  0  0  0  0  0
  139.3590   70.0480  222.8560 C   0  0  0  0  0  0  0  0  0  0  0  0
  139.4630   69.1360  223.9120 C   0  0  0  0  0  0  0  0  0  0  0  0
  140.0020   69.6000  225.1080 C   0  0  0  0  0  0  0  0  0  0  0  0
  140.1470   68.7760  226.2140 C   0  0  0  0  0  0  0  0  0  0  0  0
  140.6810   69.2190  227.4080 C   0  0  0  0  0  0  0  0  0  0  0  0
  140.8490   68.1420  228.7920 Cl  0  0  0  0  0  0  0  0  0  0  0  0
  141.0950   70.5500  227.5220 C   0  0  0  0  0  0  0  0  0  0  0  0
  140.9620   71.3970  226.4310 C   0  0  0  0  0  0  0  0  0  0  0  0
  140.4250   70.9180  225.2530 C   0  0  0  0  0  0  0  0  0  0  0  0
  140.3040   71.7540  224.2090 N   0  0  0  0  0  0  0  0  0  0  0  0
  138.6308   78.9521  224.2367 H   0  0  0  0  0  0  0  0  0  0  0  0
  137.5751   78.9687  222.7834 H   0  0  0  0  0  0  0  0  0  0  0  0
  139.0882   78.0006  222.7834 H   0  0  0  0  0  0  0  0  0  0  0  0
  140.3156   81.9867  224.1874 H   0  0  0  0  0  0  0  0  0  0  0  0
  142.6601   82.2325  224.8414 H   0  0  0  0  0  0  0  0  0  0  0  0
  144.4008   80.6274  224.0945 H   0  0  0  0  0  0  0  0  0  0  0  0
  143.6979   78.7180  222.6325 H   0  0  0  0  0  0  0  0  0  0  0  0
  140.6430   77.4160  222.1410 H   0  0  0  0  0  0  0  0  0  0  0  0
  141.8788   76.4580  219.6156 H   0  0  0  0  0  0  0  0  0  0  0  0
  141.1206   78.6175  217.9066 H   0  0  0  0  0  0  0  0  0  0  0  0
  141.6114   76.9996  217.4245 H   0  0  0  0  0  0  0  0  0  0  0  0
  139.0362   77.9243  217.0281 H   0  0  0  0  0  0  0  0  0  0  0  0
  139.2879   76.2377  217.3260 H   0  0  0  0  0  0  0  0  0  0  0  0
  138.8515   78.4936  219.4534 H   0  0  0  0  0  0  0  0  0  0  0  0
  137.7905   77.1395  219.2423 H   0  0  0  0  0  0  0  0  0  0  0  0
  137.8700   74.6025  220.7433 H   0  0  0  0  0  0  0  0  0  0  0  0
  139.4013   73.7746  220.0926 H   0  0  0  0  0  0  0  0  0  0  0  0
  138.6900   73.8170  223.0190 H   0  0  0  0  0  0  0  0  0  0  0  0
  138.9372   69.7271  221.8921 H   0  0  0  0  0  0  0  0  0  0  0  0
  139.1316   68.0930  223.8011 H   0  0  0  0  0  0  0  0  0  0  0  0
  139.8237   67.7274  226.1371 H   0  0  0  0  0  0  0  0  0  0  0  0
  141.5212   70.9212  228.4657 H   0  0  0  0  0  0  0  0  0  0  0  0
  141.2834   72.4464  226.5046 H   0  0  0  0  0  0  0  0  0  0  0  0
  1  2  1  0
  2  3  1  0
  3  4  2  0
  4  5  1  0
  5  6  2  0
  6  7  1  0
  7  8  2  0
  8  9  1  0
  9 10  1  0
 10 11  2  0
 10 12  1  0
 12 13  1  0
 13 14  1  0
 14 15  1  0
 15 16  1  0
 16 17  1  0
 17 18  2  0
 17 19  1  0
 19 20  1  0
 20 21  1  0
 21 22  2  0
 21 23  1  0
 23 24  2  0
 24 25  1  0
 25 26  2  0
 26 27  1  0
 27 28  2  0
 28 29  1  0
 28 30  1  0
 30 31  2  0
 31 32  1  0
 32 33  2  0
  8  3  1  0
 16 12  1  0
 33 23  1  0
 32 26  1  0
  1 34  1  0
  1 35  1  0
  1 36  1  0
  4 37  1  0
  5 38  1  0
  6 39  1  0
  7 40  1  0
  9 41  1  0
 12 42  1  6
 13 43  1  0
 13 44  1  0
 14 45  1  0
 14 46  1  0
 15 47  1  0
 15 48  1  0
 19 49  1  0
 19 50  1  0
 20 51  1  0
 24 52  1  0
 25 53  1  0
 27 54  1  0
 30 55  1  0
 31 56  1  0
M  END
>  <smiles>  (24) 
COc1ccccc1NC(=O)[C@@H]1CCCN1C(=O)CNC(=O)c1ccc2cc(Cl)ccc2n1

>  <score_type>  (24) 
oracle

>  <origin>  (24) 
autodockgpu

>  <m_score__min__energy>  (24) 
-9

>  <m_primary>  (24) 
energy

>  <rmsd>  (24) 
2.1584756704570887

>  <m_score__min__rmsd>  (24) 
2.1584756704570887

>  <meeko>  (24) 
{"free_energy": -8.24, "intermolecular_energy": -10.33, "internal_energy": -2.71, "cluster_size": 24, "cluster_id": 1, "rank_in_cluster": 4}

>  <energy>  (24) 
-7.43

>  <cluster_rmsd>  (24) 
1.71

>  <cluster>  (24) 
1

$$$$

     RDKit          3D

 56 59  0  0  0  0  0  0  0  0999 V2000
  140.6660   71.5380  224.0060 C   0  0  0  0  0  0  0  0  0  0  0  0
  140.3760   71.9010  225.3320 O   0  0  0  0  0  0  0  0  0  0  0  0
  140.3820   70.9070  226.3070 C   0  0  0  0  0  0  0  0  0  0  0  0
  141.2030   70.9610  227.4180 C   0  0  0  0  0  0  0  0  0  0  0  0
  141.1770   69.9580  228.3580 C   0  0  0  0  0  0  0  0  0  0  0  0
  140.3500   68.8590  228.2520 C   0  0  0  0  0  0  0  0  0  0  0  0
  139.5230   68.7950  227.1400 C   0  0  0  0  0  0  0  0  0  0  0  0
  139.5420   69.8020  226.1880 C   0  0  0  0  0  0  0  0  0  0  0  0
  138.7030   69.7650  225.0340 N   0  0  0  0  0  0  0  0  0  0  0  0
  138.6120   68.5190  224.3200 C   0  0  0  0  0  0  0  0  0  0  0  0
  139.2780   67.5360  224.7560 O   0  0  0  0  0  0  0  0  0  0  0  0
  137.7500   68.4710  223.1310 C   0  0  2  0  0  0  0  0  0  0  0  0
  138.1180   67.4240  222.1270 C   0  0  0  0  0  0  0  0  0  0  0  0
  138.3670   68.2070  220.8500 C   0  0  0  0  0  0  0  0  0  0  0  0
  138.8060   69.5510  221.4440 C   0  0  0  0  0  0  0  0  0  0  0  0
  137.7500   69.7680  222.4020 N   0  0  0  0  0  0  0  0  0  0  0  0
  136.8490   70.7840  222.7100 C   0  0  0  0  0  0  0  0  0  0  0  0
  136.2110   70.6310  223.8350 O   0  0  0  0  0  0  0  0  0  0  0  0
  136.4810   72.0060  222.0070 C   0  0  0  0  0  0  0  0  0  0  0  0
  137.2010   73.1940  222.3330 N   0  0  0  0  0  0  0  0  0  0  0  0
  138.3620   73.4890  221.5190 C   0  0  0  0  0  0  0  0  0  0  0  0
  138.6090   72.6700  220.6150 O   0  0  0  0  0  0  0  0  0  0  0  0
  139.1540   74.6840  221.7880 C   0  0  0  0  0  0  0  0  0  0  0  0
  140.5010   74.6290  221.5000 C   0  0  0  0  0  0  0  0  0  0  0  0
  141.3150   75.7420  221.7360 C   0  0  0  0  0  0  0  0  0  0  0  0
  140.7090   76.8780  222.2630 C   0  0  0  0  0  0  0  0  0  0  0  0
  141.4280   78.0330  222.5320 C   0  0  0  0  0  0  0  0  0  0  0  0
  140.8430   79.1690  223.0550 C   0  0  0  0  0  0  0  0  0  0  0  0
  141.7890   80.6180  223.3850 Cl  0  0  0  0  0  0  0  0  0  0  0  0
  139.4710   79.1710  223.3290 C   0  0  0  0  0  0  0  0  0  0  0  0
  138.7270   78.0280  223.0700 C   0  0  0  0  0  0  0  0  0  0  0  0
  139.3460   76.9110  222.5460 C   0  0  0  0  0  0  0  0  0  0  0  0
  138.6090   75.8160  222.3010 N   0  0  0  0  0  0  0  0  0  0  0  0
  141.3526   70.6786  224.0029 H   0  0  0  0  0  0  0  0  0  0  0  0
  139.7345   71.2650  223.4885 H   0  0  0  0  0  0  0  0  0  0  0  0
  141.1379   72.3862  223.4885 H   0  0  0  0  0  0  0  0  0  0  0  0
  141.8837   71.8148  227.5512 H   0  0  0  0  0  0  0  0  0  0  0  0
  141.8428   70.0350  229.2302 H   0  0  0  0  0  0  0  0  0  0  0  0
  140.3465   68.0677  229.0161 H   0  0  0  0  0  0  0  0  0  0  0  0
  138.8461   67.9373  227.0128 H   0  0  0  0  0  0  0  0  0  0  0  0
  138.1620   70.5920  224.6940 H   0  0  0  0  0  0  0  0  0  0  0  0
  136.7617   68.2279  223.5484 H   0  0  0  0  0  0  0  0  0  0  0  0
  139.0255   66.8861  222.4385 H   0  0  0  0  0  0  0  0  0  0  0  0
  137.3359   66.6597  222.0080 H   0  0  0  0  0  0  0  0  0  0  0  0
  139.1608   67.7514  220.2399 H   0  0  0  0  0  0  0  0  0  0  0  0
  137.5083   68.2614  220.1646 H   0  0  0  0  0  0  0  0  0  0  0  0
  139.7892   69.4784  221.9319 H   0  0  0  0  0  0  0  0  0  0  0  0
  138.9332   70.3592  220.7087 H   0  0  0  0  0  0  0  0  0  0  0  0
  136.6184   71.8218  220.9313 H   0  0  0  0  0  0  0  0  0  0  0  0
  135.4464   72.2096  222.3202 H   0  0  0  0  0  0  0  0  0  0  0  0
  136.9500   73.8600  223.1120 H   0  0  0  0  0  0  0  0  0  0  0  0
  140.9365   73.7085  221.0840 H   0  0  0  0  0  0  0  0  0  0  0  0
  142.3921   75.7198  221.5136 H   0  0  0  0  0  0  0  0  0  0  0  0
  142.5074   78.0445  222.3202 H   0  0  0  0  0  0  0  0  0  0  0  0
  138.9877   80.0675  223.7446 H   0  0  0  0  0  0  0  0  0  0  0  0
  137.6477   78.0125  223.2817 H   0  0  0  0  0  0  0  0  0  0  0  0
  1  2  1  0
  2  3  1  0
  3  4  2  0
  4  5  1  0
  5  6  2  0
  6  7  1  0
  7  8  2  0
  8  9  1  0
  9 10  1  0
 10 11  2  0
 10 12  1  0
 12 13  1  0
 13 14  1  0
 14 15  1  0
 15 16  1  0
 16 17  1  0
 17 18  2  0
 17 19  1  0
 19 20  1  0
 20 21  1  0
 21 22  2  0
 21 23  1  0
 23 24  2  0
 24 25  1  0
 25 26  2  0
 26 27  1  0
 27 28  2  0
 28 29  1  0
 28 30  1  0
 30 31  2  0
 31 32  1  0
 32 33  2  0
  8  3  1  0
 16 12  1  0
 33 23  1  0
 32 26  1  0
  1 34  1  0
  1 35  1  0
  1 36  1  0
  4 37  1  0
  5 38  1  0
  6 39  1  0
  7 40  1  0
  9 41  1  0
 12 42  1  1
 13 43  1  0
 13 44  1  0
 14 45  1  0
 14 46  1  0
 15 47  1  0
 15 48  1  0
 19 49  1  0
 19 50  1  0
 20 51  1  0
 24 52  1  0
 25 53  1  0
 27 54  1  0
 30 55  1  0
 31 56  1  0
M  END
>  <smiles>  (25) 
COc1ccccc1NC(=O)[C@@H]1CCCN1C(=O)CNC(=O)c1ccc2cc(Cl)ccc2n1

>  <score_type>  (25) 
oracle

>  <origin>  (25) 
autodockgpu

>  <m_score__min__energy>  (25) 
-9

>  <m_primary>  (25) 
energy

>  <rmsd>  (25) 
9.198873497199296

>  <m_score__min__rmsd>  (25) 
9.198873497199296

>  <meeko>  (25) 
{"free_energy": -8.02, "intermolecular_energy": -10.11, "internal_energy": -3.04, "cluster_size": 6, "cluster_id": 3, "rank_in_cluster": 2}

>  <energy>  (25) 
-8.29

>  <cluster_rmsd>  (25) 
0.0

>  <cluster>  (25) 
2

$$$$

     RDKit          3D

 56 59  0  0  0  0  0  0  0  0999 V2000
  138.8140   79.4100  221.5550 C   0  0  0  0  0  0  0  0  0  0  0  0
  139.4310   79.0560  222.7660 O   0  0  0  0  0  0  0  0  0  0  0  0
  140.6050   79.7100  223.1270 C   0  0  0  0  0  0  0  0  0  0  0  0
  140.6080   80.8870  223.8510 C   0  0  0  0  0  0  0  0  0  0  0  0
  141.7910   81.5010  224.1880 C   0  0  0  0  0  0  0  0  0  0  0  0
  143.0230   80.9910  223.8300 C   0  0  0  0  0  0  0  0  0  0  0  0
  143.0310   79.8100  223.1020 C   0  0  0  0  0  0  0  0  0  0  0  0
  141.8420   79.1840  222.7590 C   0  0  0  0  0  0  0  0  0  0  0  0
  141.8180   77.9690  222.0120 N   0  0  0  0  0  0  0  0  0  0  0  0
  141.8270   78.0720  220.5770 C   0  0  0  0  0  0  0  0  0  0  0  0
  141.8540   79.2290  220.0660 O   0  0  0  0  0  0  0  0  0  0  0  0
  141.8020   76.8260  219.8000 C   0  0  2  0  0  0  0  0  0  0  0  0
  142.1390   76.9790  218.3490 C   0  0  0  0  0  0  0  0  0  0  0  0
  140.9190   76.4380  217.6270 C   0  0  0  0  0  0  0  0  0  0  0  0
  139.8390   76.7260  218.6770 C   0  0  0  0  0  0  0  0  0  0  0  0
  140.4670   76.1730  219.8510 N   0  0  0  0  0  0  0  0  0  0  0  0
  140.1310   75.2650  220.8530 C   0  0  0  0  0  0  0  0  0  0  0  0
  140.9740   75.2030  221.8440 O   0  0  0  0  0  0  0  0  0  0  0  0
  138.9990   74.3620  221.0100 C   0  0  0  0  0  0  0  0  0  0  0  0
  138.9940   73.5050  222.1510 N   0  0  0  0  0  0  0  0  0  0  0  0
  139.9550   72.4220  222.1490 C   0  0  0  0  0  0  0  0  0  0  0  0
  140.6890   72.3550  221.1460 O   0  0  0  0  0  0  0  0  0  0  0  0
  140.0140   71.5010  223.2780 C   0  0  0  0  0  0  0  0  0  0  0  0
  139.5480   70.2190  223.0730 C   0  0  0  0  0  0  0  0  0  0  0  0
  139.5770   69.2870  224.1170 C   0  0  0  0  0  0  0  0  0  0  0  0
  140.0850   69.7120  225.3400 C   0  0  0  0  0  0  0  0  0  0  0  0
  140.1560   68.8660  226.4360 C   0  0  0  0  0  0  0  0  0  0  0  0
  140.6590   69.2700  227.6580 C   0  0  0  0  0  0  0  0  0  0  0  0
  140.7330   68.1660  229.0280 Cl  0  0  0  0  0  0  0  0  0  0  0  0
  141.1170   70.5830  227.8110 C   0  0  0  0  0  0  0  0  0  0  0  0
  141.0570   71.4510  226.7300 C   0  0  0  0  0  0  0  0  0  0  0  0
  140.5500   71.0120  225.5240 C   0  0  0  0  0  0  0  0  0  0  0  0
  140.5000   71.8670  224.4900 N   0  0  0  0  0  0  0  0  0  0  0  0
  137.8773   79.9474  221.7641 H   0  0  0  0  0  0  0  0  0  0  0  0
  139.4877   80.0589  220.9762 H   0  0  0  0  0  0  0  0  0  0  0  0
  138.5938   78.5009  220.9762 H   0  0  0  0  0  0  0  0  0  0  0  0
  139.6536   81.3375  224.1610 H   0  0  0  0  0  0  0  0  0  0  0  0
  141.7545   82.4361  224.7661 H   0  0  0  0  0  0  0  0  0  0  0  0
  143.9577   81.4990  224.1098 H   0  0  0  0  0  0  0  0  0  0  0  0
  143.9892   79.3661  222.7941 H   0  0  0  0  0  0  0  0  0  0  0  0
  141.7970   77.0240  222.4590 H   0  0  0  0  0  0  0  0  0  0  0  0
  142.5816   76.2179  220.2822 H   0  0  0  0  0  0  0  0  0  0  0  0
  142.3054   78.0365  218.0961 H   0  0  0  0  0  0  0  0  0  0  0  0
  143.0628   76.4500  218.0719 H   0  0  0  0  0  0  0  0  0  0  0  0
  140.7286   76.9768  216.6871 H   0  0  0  0  0  0  0  0  0  0  0  0
  140.9936   75.3856  217.3156 H   0  0  0  0  0  0  0  0  0  0  0  0
  139.6535   77.8049  218.7847 H   0  0  0  0  0  0  0  0  0  0  0  0
  138.8482   76.3083  218.4449 H   0  0  0  0  0  0  0  0  0  0  0  0
  138.0894   74.9788  221.0570 H   0  0  0  0  0  0  0  0  0  0  0  0
  139.0614   73.6813  220.1481 H   0  0  0  0  0  0  0  0  0  0  0  0
  138.3500   73.6050  222.9810 H   0  0  0  0  0  0  0  0  0  0  0  0
  139.1532   69.9288  222.0882 H   0  0  0  0  0  0  0  0  0  0  0  0
  139.2123   68.2589  223.9757 H   0  0  0  0  0  0  0  0  0  0  0  0
  139.7975   67.8316  226.3286 H   0  0  0  0  0  0  0  0  0  0  0  0
  141.5198   70.9232  228.7764 H   0  0  0  0  0  0  0  0  0  0  0  0
  141.4128   72.4866  226.8342 H   0  0  0  0  0  0  0  0  0  0  0  0
  1  2  1  0
  2  3  1  0
  3  4  2  0
  4  5  1  0
  5  6  2  0
  6  7  1  0
  7  8  2  0
  8  9  1  0
  9 10  1  0
 10 11  2  0
 10 12  1  0
 12 13  1  0
 13 14  1  0
 14 15  1  0
 15 16  1  0
 16 17  1  0
 17 18  2  0
 17 19  1  0
 19 20  1  0
 20 21  1  0
 21 22  2  0
 21 23  1  0
 23 24  2  0
 24 25  1  0
 25 26  2  0
 26 27  1  0
 27 28  2  0
 28 29  1  0
 28 30  1  0
 30 31  2  0
 31 32  1  0
 32 33  2  0
  8  3  1  0
 16 12  1  0
 33 23  1  0
 32 26  1  0
  1 34  1  0
  1 35  1  0
  1 36  1  0
  4 37  1  0
  5 38  1  0
  6 39  1  0
  7 40  1  0
  9 41  1  0
 12 42  1  1
 13 43  1  0
 13 44  1  0
 14 45  1  0
 14 46  1  0
 15 47  1  0
 15 48  1  0
 19 49  1  0
 19 50  1  0
 20 51  1  0
 24 52  1  0
 25 53  1  0
 27 54  1  0
 30 55  1  0
 31 56  1  0
M  END
>  <smiles>  (26) 
COc1ccccc1NC(=O)[C@@H]1CCCN1C(=O)CNC(=O)c1ccc2cc(Cl)ccc2n1

>  <score_type>  (26) 
oracle

>  <origin>  (26) 
autodockgpu

>  <m_score__min__energy>  (26) 
-9

>  <m_primary>  (26) 
energy

>  <rmsd>  (26) 
2.0709852722023236

>  <m_score__min__rmsd>  (26) 
2.0709852722023236

>  <meeko>  (26) 
{"free_energy": -9.0, "intermolecular_energy": -11.08, "internal_energy": -2.69, "cluster_size": 24, "cluster_id": 1, "rank_in_cluster": 1}

>  <energy>  (26) 
-8.2

>  <cluster_rmsd>  (26) 
0.19

>  <cluster>  (26) 
2

$$$$

     RDKit          3D

 56 59  0  0  0  0  0  0  0  0999 V2000
  141.7500   79.0550  219.2620 C   0  0  0  0  0  0  0  0  0  0  0  0
  141.1190   79.9160  220.1740 O   0  0  0  0  0  0  0  0  0  0  0  0
  141.4880   79.8480  221.5150 C   0  0  0  0  0  0  0  0  0  0  0  0
  142.5000   80.6230  222.0490 C   0  0  0  0  0  0  0  0  0  0  0  0
  142.8320   80.5240  223.3790 C   0  0  0  0  0  0  0  0  0  0  0  0
  142.1890   79.6620  224.2450 C   0  0  0  0  0  0  0  0  0  0  0  0
  141.1720   78.8790  223.7190 C   0  0  0  0  0  0  0  0  0  0  0  0
  140.8310   78.9730  222.3790 C   0  0  0  0  0  0  0  0  0  0  0  0
  139.7890   78.1820  221.8090 N   0  0  0  0  0  0  0  0  0  0  0  0
  138.4710   78.3150  222.3710 C   0  0  0  0  0  0  0  0  0  0  0  0
  138.3160   79.1220  223.3320 O   0  0  0  0  0  0  0  0  0  0  0  0
  137.3930   77.5040  221.7900 C   0  0  2  0  0  0  0  0  0  0  0  0
  136.0620   77.6510  222.4580 C   0  0  0  0  0  0  0  0  0  0  0  0
  135.7110   76.2420  222.8990 C   0  0  0  0  0  0  0  0  0  0  0  0
  137.1190   75.6600  223.0750 C   0  0  0  0  0  0  0  0  0  0  0  0
  137.7190   76.0530  221.8240 N   0  0  0  0  0  0  0  0  0  0  0  0
  138.4100   75.4310  220.7880 C   0  0  0  0  0  0  0  0  0  0  0  0
  139.0900   76.2330  220.0190 O   0  0  0  0  0  0  0  0  0  0  0  0
  138.5250   74.0320  220.3950 C   0  0  0  0  0  0  0  0  0  0  0  0
  138.5370   73.0550  221.4350 N   0  0  0  0  0  0  0  0  0  0  0  0
  139.7920   72.8720  222.1350 C   0  0  0  0  0  0  0  0  0  0  0  0
  140.7320   73.5930  221.7520 O   0  0  0  0  0  0  0  0  0  0  0  0
  139.8870   71.8920  223.2110 C   0  0  0  0  0  0  0  0  0  0  0  0
  139.4500   70.6120  222.9410 C   0  0  0  0  0  0  0  0  0  0  0  0
  139.5150   69.6260  223.9320 C   0  0  0  0  0  0  0  0  0  0  0  0
  140.0290   69.9960  225.1710 C   0  0  0  0  0  0  0  0  0  0  0  0
  140.1350   69.0930  226.2180 C   0  0  0  0  0  0  0  0  0  0  0  0
  140.6430   69.4420  227.4530 C   0  0  0  0  0  0  0  0  0  0  0  0
  140.7610   68.2670  228.7600 Cl  0  0  0  0  0  0  0  0  0  0  0  0
  141.0720   70.7550  227.6730 C   0  0  0  0  0  0  0  0  0  0  0  0
  140.9770   71.6800  226.6420 C   0  0  0  0  0  0  0  0  0  0  0  0
  140.4640   71.2950  225.4200 C   0  0  0  0  0  0  0  0  0  0  0  0
  140.3810   72.2040  224.4350 N   0  0  0  0  0  0  0  0  0  0  0  0
  142.3130   78.2868  219.8123 H   0  0  0  0  0  0  0  0  0  0  0  0
  140.9913   78.5709  218.6296 H   0  0  0  0  0  0  0  0  0  0  0  0
  142.4401   79.6327  218.6296 H   0  0  0  0  0  0  0  0  0  0  0  0
  143.0455   81.3265  221.4028 H   0  0  0  0  0  0  0  0  0  0  0  0
  143.6426   81.1570  223.7693 H   0  0  0  0  0  0  0  0  0  0  0  0
  142.4711   79.5989  225.3063 H   0  0  0  0  0  0  0  0  0  0  0  0
  140.6314   78.1773  224.3712 H   0  0  0  0  0  0  0  0  0  0  0  0
  139.9440   77.5210  221.0130 H   0  0  0  0  0  0  0  0  0  0  0  0
  137.3174   77.8901  220.7628 H   0  0  0  0  0  0  0  0  0  0  0  0
  136.1323   78.3251  223.3244 H   0  0  0  0  0  0  0  0  0  0  0  0
  135.3019   78.0867  221.7929 H   0  0  0  0  0  0  0  0  0  0  0  0
  135.1467   76.2383  223.8432 H   0  0  0  0  0  0  0  0  0  0  0  0
  135.0635   75.6867  222.2045 H   0  0  0  0  0  0  0  0  0  0  0  0
  137.6398   76.1075  223.9344 H   0  0  0  0  0  0  0  0  0  0  0  0
  137.1481   74.5797  223.2801 H   0  0  0  0  0  0  0  0  0  0  0  0
  137.6732   73.8032  219.7376 H   0  0  0  0  0  0  0  0  0  0  0  0
  139.5163   73.9533  219.9247 H   0  0  0  0  0  0  0  0  0  0  0  0
  137.7090   72.4680  221.7240 H   0  0  0  0  0  0  0  0  0  0  0  0
  139.0502   70.3660  221.9462 H   0  0  0  0  0  0  0  0  0  0  0  0
  139.1731   68.5985  223.7390 H   0  0  0  0  0  0  0  0  0  0  0  0
  139.8009   68.0573  226.0579 H   0  0  0  0  0  0  0  0  0  0  0  0
  141.4796   71.0511  228.6508 H   0  0  0  0  0  0  0  0  0  0  0  0
  141.3097   72.7167  226.7987 H   0  0  0  0  0  0  0  0  0  0  0  0
  1  2  1  0
  2  3  1  0
  3  4  2  0
  4  5  1  0
  5  6  2  0
  6  7  1  0
  7  8  2  0
  8  9  1  0
  9 10  1  0
 10 11  2  0
 10 12  1  0
 12 13  1  0
 13 14  1  0
 14 15  1  0
 15 16  1  0
 16 17  1  0
 17 18  2  0
 17 19  1  0
 19 20  1  0
 20 21  1  0
 21 22  2  0
 21 23  1  0
 23 24  2  0
 24 25  1  0
 25 26  2  0
 26 27  1  0
 27 28  2  0
 28 29  1  0
 28 30  1  0
 30 31  2  0
 31 32  1  0
 32 33  2  0
  8  3  1  0
 16 12  1  0
 33 23  1  0
 32 26  1  0
  1 34  1  0
  1 35  1  0
  1 36  1  0
  4 37  1  0
  5 38  1  0
  6 39  1  0
  7 40  1  0
  9 41  1  0
 12 42  1  6
 13 43  1  0
 13 44  1  0
 14 45  1  0
 14 46  1  0
 15 47  1  0
 15 48  1  0
 19 49  1  0
 19 50  1  0
 20 51  1  0
 24 52  1  0
 25 53  1  0
 27 54  1  0
 30 55  1  0
 31 56  1  0
M  END
>  <smiles>  (27) 
COc1ccccc1NC(=O)[C@@H]1CCCN1C(=O)CNC(=O)c1ccc2cc(Cl)ccc2n1

>  <score_type>  (27) 
oracle

>  <origin>  (27) 
autodockgpu

>  <m_score__min__energy>  (27) 
-9

>  <m_primary>  (27) 
energy

>  <rmsd>  (27) 
3.4803401413619994

>  <m_score__min__rmsd>  (27) 
3.4803401413619994

>  <meeko>  (27) 
{"free_energy": -7.78, "intermolecular_energy": -9.87, "internal_energy": -2.72, "cluster_size": 24, "cluster_id": 1, "rank_in_cluster": 18}

>  <energy>  (27) 
-8.16

>  <cluster_rmsd>  (27) 
0.86

>  <cluster>  (27) 
2

$$$$

     RDKit          3D

 56 59  0  0  0  0  0  0  0  0999 V2000
  140.6870   71.5170  224.6210 C   0  0  0  0  0  0  0  0  0  0  0  0
  140.2420   71.6170  225.9490 O   0  0  0  0  0  0  0  0  0  0  0  0
  140.3140   70.4870  226.7590 C   0  0  0  0  0  0  0  0  0  0  0  0
  141.0770   70.4450  227.9110 C   0  0  0  0  0  0  0  0  0  0  0  0
  141.1210   69.3080  228.6820 C   0  0  0  0  0  0  0  0  0  0  0  0
  140.4200   68.1630  228.3610 C   0  0  0  0  0  0  0  0  0  0  0  0
  139.6510   68.1950  227.2060 C   0  0  0  0  0  0  0  0  0  0  0  0
  139.6020   69.3380  226.4230 C   0  0  0  0  0  0  0  0  0  0  0  0
  138.8210   69.4010  225.2310 N   0  0  0  0  0  0  0  0  0  0  0  0
  138.8320   68.2500  224.3680 C   0  0  0  0  0  0  0  0  0  0  0  0
  139.5320   67.2560  224.7160 O   0  0  0  0  0  0  0  0  0  0  0  0
  138.0300   68.3070  223.1380 C   0  0  2  0  0  0  0  0  0  0  0  0
  138.4600   67.3620  222.0600 C   0  0  0  0  0  0  0  0  0  0  0  0
  138.7600   68.2630  220.8760 C   0  0  0  0  0  0  0  0  0  0  0  0
  139.1520   69.5490  221.6140 C   0  0  0  0  0  0  0  0  0  0  0  0
  138.0480   69.6660  222.5340 N   0  0  0  0  0  0  0  0  0  0  0  0
  137.1190   70.6400  222.8910 C   0  0  0  0  0  0  0  0  0  0  0  0
  136.5250   70.4420  224.0330 O   0  0  0  0  0  0  0  0  0  0  0  0
  136.6820   71.8600  222.2240 C   0  0  0  0  0  0  0  0  0  0  0  0
  137.3920   73.0620  222.5200 N   0  0  0  0  0  0  0  0  0  0  0  0
  138.4350   73.4410  221.5900 C   0  0  0  0  0  0  0  0  0  0  0  0
  138.6010   72.6740  220.6240 O   0  0  0  0  0  0  0  0  0  0  0  0
  139.2080   74.6560  221.8210 C   0  0  0  0  0  0  0  0  0  0  0  0
  140.5540   74.6160  221.5210 C   0  0  0  0  0  0  0  0  0  0  0  0
  141.3510   75.7480  221.7210 C   0  0  0  0  0  0  0  0  0  0  0  0
  140.7300   76.8870  222.2260 C   0  0  0  0  0  0  0  0  0  0  0  0
  141.4320   78.0590  222.4600 C   0  0  0  0  0  0  0  0  0  0  0  0
  140.8330   79.1990  222.9600 C   0  0  0  0  0  0  0  0  0  0  0  0
  141.7580   80.6710  223.2440 Cl  0  0  0  0  0  0  0  0  0  0  0  0
  139.4640   79.1840  223.2480 C   0  0  0  0  0  0  0  0  0  0  0  0
  138.7370   78.0230  223.0240 C   0  0  0  0  0  0  0  0  0  0  0  0
  139.3700   76.9040  222.5220 C   0  0  0  0  0  0  0  0  0  0  0  0
  138.6490   75.7900  222.3120 N   0  0  0  0  0  0  0  0  0  0  0  0
  141.7602   71.2758  224.6111 H   0  0  0  0  0  0  0  0  0  0  0  0
  140.1278   70.7221  224.1058 H   0  0  0  0  0  0  0  0  0  0  0  0
  140.5216   72.4747  224.1058 H   0  0  0  0  0  0  0  0  0  0  0  0
  141.6549   71.3307  228.2137 H   0  0  0  0  0  0  0  0  0  0  0  0
  141.7397   69.3106  229.5915 H   0  0  0  0  0  0  0  0  0  0  0  0
  140.4687   67.2641  228.9932 H   0  0  0  0  0  0  0  0  0  0  0  0
  139.0755   67.3058  226.9093 H   0  0  0  0  0  0  0  0  0  0  0  0
  138.2500   70.2360  224.9660 H   0  0  0  0  0  0  0  0  0  0  0  0
  137.0259   68.0177  223.4817 H   0  0  0  0  0  0  0  0  0  0  0  0
  139.3584   66.8051  222.3644 H   0  0  0  0  0  0  0  0  0  0  0  0
  137.6947   66.6055  221.8317 H   0  0  0  0  0  0  0  0  0  0  0  0
  139.5883   67.8735  220.2660 H   0  0  0  0  0  0  0  0  0  0  0  0
  137.9349   68.3741  220.1570 H   0  0  0  0  0  0  0  0  0  0  0  0
  140.1111   69.4392  222.1413 H   0  0  0  0  0  0  0  0  0  0  0  0
  139.3044   70.4238  220.9647 H   0  0  0  0  0  0  0  0  0  0  0  0
  136.7602   71.6893  221.1401 H   0  0  0  0  0  0  0  0  0  0  0  0
  135.6632   72.0359  222.5997 H   0  0  0  0  0  0  0  0  0  0  0  0
  137.2120   73.6820  223.3550 H   0  0  0  0  0  0  0  0  0  0  0  0
  141.0011   73.6927  221.1240 H   0  0  0  0  0  0  0  0  0  0  0  0
  142.4261   75.7386  221.4884 H   0  0  0  0  0  0  0  0  0  0  0  0
  142.5093   78.0823  222.2387 H   0  0  0  0  0  0  0  0  0  0  0  0
  138.9695   80.0818  223.6473 H   0  0  0  0  0  0  0  0  0  0  0  0
  137.6600   77.9949  223.2458 H   0  0  0  0  0  0  0  0  0  0  0  0
  1  2  1  0
  2  3  1  0
  3  4  2  0
  4  5  1  0
  5  6  2  0
  6  7  1  0
  7  8  2  0
  8  9  1  0
  9 10  1  0
 10 11  2  0
 10 12  1  0
 12 13  1  0
 13 14  1  0
 14 15  1  0
 15 16  1  0
 16 17  1  0
 17 18  2  0
 17 19  1  0
 19 20  1  0
 20 21  1  0
 21 22  2  0
 21 23  1  0
 23 24  2  0
 24 25  1  0
 25 26  2  0
 26 27  1  0
 27 28  2  0
 28 29  1  0
 28 30  1  0
 30 31  2  0
 31 32  1  0
 32 33  2  0
  8  3  1  0
 16 12  1  0
 33 23  1  0
 32 26  1  0
  1 34  1  0
  1 35  1  0
  1 36  1  0
  4 37  1  0
  5 38  1  0
  6 39  1  0
  7 40  1  0
  9 41  1  0
 12 42  1  1
 13 43  1  0
 13 44  1  0
 14 45  1  0
 14 46  1  0
 15 47  1  0
 15 48  1  0
 19 49  1  0
 19 50  1  0
 20 51  1  0
 24 52  1  0
 25 53  1  0
 27 54  1  0
 30 55  1  0
 31 56  1  0
M  END
>  <smiles>  (28) 
COc1ccccc1NC(=O)[C@@H]1CCCN1C(=O)CNC(=O)c1ccc2cc(Cl)ccc2n1

>  <score_type>  (28) 
oracle

>  <origin>  (28) 
autodockgpu

>  <m_score__min__energy>  (28) 
-9

>  <m_primary>  (28) 
energy

>  <rmsd>  (28) 
9.409177482340022

>  <m_score__min__rmsd>  (28) 
9.409177482340022

>  <meeko>  (28) 
{"free_energy": -8.14, "intermolecular_energy": -10.23, "internal_energy": -2.91, "cluster_size": 6, "cluster_id": 3, "rank_in_cluster": 1}

>  <energy>  (28) 
-8.16

>  <cluster_rmsd>  (28) 
0.79

>  <cluster>  (28) 
2

$$$$

     RDKit          3D

 56 59  0  0  0  0  0  0  0  0999 V2000
  141.0770   76.2330  221.6400 C   0  0  0  0  0  0  0  0  0  0  0  0
  141.1160   76.8610  222.8960 O   0  0  0  0  0  0  0  0  0  0  0  0
  141.0790   78.2520  222.9430 C   0  0  0  0  0  0  0  0  0  0  0  0
  142.1590   79.0110  223.3530 C   0  0  0  0  0  0  0  0  0  0  0  0
  142.0800   80.3830  223.3840 C   0  0  0  0  0  0  0  0  0  0  0  0
  140.9420   81.0720  223.0160 C   0  0  0  0  0  0  0  0  0  0  0  0
  139.8530   80.3190  222.6030 C   0  0  0  0  0  0  0  0  0  0  0  0
  139.9240   78.9350  222.5680 C   0  0  0  0  0  0  0  0  0  0  0  0
  138.8210   78.1340  222.1480 N   0  0  0  0  0  0  0  0  0  0  0  0
  137.5350   78.4180  222.7280 C   0  0  0  0  0  0  0  0  0  0  0  0
  137.4610   79.3560  223.5730 O   0  0  0  0  0  0  0  0  0  0  0  0
  136.3940   77.5970  222.3010 C   0  0  2  0  0  0  0  0  0  0  0  0
  135.1230   77.8430  223.0530 C   0  0  0  0  0  0  0  0  0  0  0  0
  134.7700   76.4870  223.6360 C   0  0  0  0  0  0  0  0  0  0  0  0
  136.1710   75.8760  223.7550 C   0  0  0  0  0  0  0  0  0  0  0  0
  136.6830   76.1440  222.4330 N   0  0  0  0  0  0  0  0  0  0  0  0
  137.2740   75.4160  221.4040 C   0  0  0  0  0  0  0  0  0  0  0  0
  137.7340   76.1320  220.4180 O   0  0  0  0  0  0  0  0  0  0  0  0
  137.4860   73.9870  221.2180 C   0  0  0  0  0  0  0  0  0  0  0  0
  138.0410   73.2560  222.3120 N   0  0  0  0  0  0  0  0  0  0  0  0
  137.7360   71.8420  222.3640 C   0  0  0  0  0  0  0  0  0  0  0  0
  137.0190   71.4100  221.4420 O   0  0  0  0  0  0  0  0  0  0  0  0
  138.2640   71.0240  223.4500 C   0  0  0  0  0  0  0  0  0  0  0  0
  137.8260   69.7180  223.5300 C   0  0  0  0  0  0  0  0  0  0  0  0
  138.2950   68.8830  224.5490 C   0  0  0  0  0  0  0  0  0  0  0  0
  139.2020   69.4250  225.4550 C   0  0  0  0  0  0  0  0  0  0  0  0
  139.7250   68.6790  226.5000 C   0  0  0  0  0  0  0  0  0  0  0  0
  140.6260   69.2000  227.4080 C   0  0  0  0  0  0  0  0  0  0  0  0
  141.2690   68.2220  228.7250 Cl  0  0  0  0  0  0  0  0  0  0  0  0
  141.0370   70.5310  227.2810 C   0  0  0  0  0  0  0  0  0  0  0  0
  140.5280   71.3000  226.2440 C   0  0  0  0  0  0  0  0  0  0  0  0
  139.6300   70.7450  225.3550 C   0  0  0  0  0  0  0  0  0  0  0  0
  139.1500   71.5060  224.3580 N   0  0  0  0  0  0  0  0  0  0  0  0
  141.0093   75.1436  221.7767 H   0  0  0  0  0  0  0  0  0  0  0  0
  140.1991   76.5875  221.0799 H   0  0  0  0  0  0  0  0  0  0  0  0
  141.9920   76.4761  221.0799 H   0  0  0  0  0  0  0  0  0  0  0  0
  143.0909   78.5122  223.6575 H   0  0  0  0  0  0  0  0  0  0  0  0
  142.9592   80.9549  223.7155 H   0  0  0  0  0  0  0  0  0  0  0  0
  140.9006   82.1707  223.0489 H   0  0  0  0  0  0  0  0  0  0  0  0
  138.9242   80.8247  222.3004 H   0  0  0  0  0  0  0  0  0  0  0  0
  138.9090   77.3630  221.4460 H   0  0  0  0  0  0  0  0  0  0  0  0
  136.2490   77.8986  221.2531 H   0  0  0  0  0  0  0  0  0  0  0  0
  135.2788   78.5830  223.8518 H   0  0  0  0  0  0  0  0  0  0  0  0
  134.3253   78.2482  222.4131 H   0  0  0  0  0  0  0  0  0  0  0  0
  134.2801   76.5792  224.6166 H   0  0  0  0  0  0  0  0  0  0  0  0
  134.0566   75.8981  223.0408 H   0  0  0  0  0  0  0  0  0  0  0  0
  136.7683   76.3760  224.5317 H   0  0  0  0  0  0  0  0  0  0  0  0
  136.1873   74.8160  224.0487 H   0  0  0  0  0  0  0  0  0  0  0  0
  136.5105   73.5370  220.9818 H   0  0  0  0  0  0  0  0  0  0  0  0
  138.2412   73.9166  220.4213 H   0  0  0  0  0  0  0  0  0  0  0  0
  138.6470   73.6690  223.0710 H   0  0  0  0  0  0  0  0  0  0  0  0
  137.1072   69.3333  222.7915 H   0  0  0  0  0  0  0  0  0  0  0  0
  137.9601   67.8385  224.6313 H   0  0  0  0  0  0  0  0  0  0  0  0
  139.4100   67.6309  226.6103 H   0  0  0  0  0  0  0  0  0  0  0  0
  141.7547   70.9627  227.9942 H   0  0  0  0  0  0  0  0  0  0  0  0
  140.8394   72.3489  226.1309 H   0  0  0  0  0  0  0  0  0  0  0  0
  1  2  1  0
  2  3  1  0
  3  4  2  0
  4  5  1  0
  5  6  2  0
  6  7  1  0
  7  8  2  0
  8  9  1  0
  9 10  1  0
 10 11  2  0
 10 12  1  0
 12 13  1  0
 13 14  1  0
 14 15  1  0
 15 16  1  0
 16 17  1  0
 17 18  2  0
 17 19  1  0
 19 20  1  0
 20 21  1  0
 21 22  2  0
 21 23  1  0
 23 24  2  0
 24 25  1  0
 25 26  2  0
 26 27  1  0
 27 28  2  0
 28 29  1  0
 28 30  1  0
 30 31  2  0
 31 32  1  0
 32 33  2  0
  8  3  1  0
 16 12  1  0
 33 23  1  0
 32 26  1  0
  1 34  1  0
  1 35  1  0
  1 36  1  0
  4 37  1  0
  5 38  1  0
  6 39  1  0
  7 40  1  0
  9 41  1  0
 12 42  1  6
 13 43  1  0
 13 44  1  0
 14 45  1  0
 14 46  1  0
 15 47  1  0
 15 48  1  0
 19 49  1  0
 19 50  1  0
 20 51  1  0
 24 52  1  0
 25 53  1  0
 27 54  1  0
 30 55  1  0
 31 56  1  0
M  END
>  <smiles>  (29) 
COc1ccccc1NC(=O)[C@@H]1CCCN1C(=O)CNC(=O)c1ccc2cc(Cl)ccc2n1

>  <score_type>  (29) 
oracle

>  <origin>  (29) 
autodockgpu

>  <m_score__min__energy>  (29) 
-9

>  <m_primary>  (29) 
energy

>  <rmsd>  (29) 
3.972421584612748

>  <m_score__min__rmsd>  (29) 
3.972421584612748

>  <meeko>  (29) 
{"free_energy": -7.65, "intermolecular_energy": -9.74, "internal_energy": -2.82, "cluster_size": 1, "cluster_id": 5, "rank_in_cluster": 1}

>  <energy>  (29) 
-8.02

>  <cluster_rmsd>  (29) 
0.73

>  <cluster>  (29) 
2

$$$$

     RDKit          3D

 56 59  0  0  0  0  0  0  0  0999 V2000
  138.0050   76.4590  222.7540 C   0  0  0  0  0  0  0  0  0  0  0  0
  138.6970   77.1210  221.7260 O   0  0  0  0  0  0  0  0  0  0  0  0
  139.6100   78.1130  222.0730 C   0  0  0  0  0  0  0  0  0  0  0  0
  139.2370   79.4270  222.2850 C   0  0  0  0  0  0  0  0  0  0  0  0
  140.1710   80.3750  222.6280 C   0  0  0  0  0  0  0  0  0  0  0  0
  141.5110   80.0790  222.7770 C   0  0  0  0  0  0  0  0  0  0  0  0
  141.8960   78.7630  222.5650 C   0  0  0  0  0  0  0  0  0  0  0  0
  140.9600   77.8010  222.2210 C   0  0  0  0  0  0  0  0  0  0  0  0
  141.3250   76.4400  221.9970 N   0  0  0  0  0  0  0  0  0  0  0  0
  141.8230   76.0920  220.6930 C   0  0  0  0  0  0  0  0  0  0  0  0
  141.9050   77.0090  219.8260 O   0  0  0  0  0  0  0  0  0  0  0  0
  142.2010   74.6930  220.4550 C   0  0  2  0  0  0  0  0  0  0  0  0
  143.6650   74.4040  220.5830 C   0  0  0  0  0  0  0  0  0  0  0  0
  144.0490   73.8330  219.2290 C   0  0  0  0  0  0  0  0  0  0  0  0
  143.0020   74.5210  218.3440 C   0  0  0  0  0  0  0  0  0  0  0  0
  141.8040   74.2400  219.0950 N   0  0  0  0  0  0  0  0  0  0  0  0
  140.5510   73.6860  218.8420 C   0  0  0  0  0  0  0  0  0  0  0  0
  140.3680   73.2720  217.6210 O   0  0  0  0  0  0  0  0  0  0  0  0
  139.3900   73.4730  219.6960 C   0  0  0  0  0  0  0  0  0  0  0  0
  139.4850   72.4570  220.6940 N   0  0  0  0  0  0  0  0  0  0  0  0
  139.7520   72.9030  222.0460 C   0  0  0  0  0  0  0  0  0  0  0  0
  139.8680   74.1330  222.1950 O   0  0  0  0  0  0  0  0  0  0  0  0
  139.8650   71.9270  223.1240 C   0  0  0  0  0  0  0  0  0  0  0  0
  139.4460   70.6400  222.8580 C   0  0  0  0  0  0  0  0  0  0  0  0
  139.5280   69.6570  223.8510 C   0  0  0  0  0  0  0  0  0  0  0  0
  140.0390   70.0380  225.0880 C   0  0  0  0  0  0  0  0  0  0  0  0
  140.1610   69.1390  226.1370 C   0  0  0  0  0  0  0  0  0  0  0  0
  140.6670   69.4980  227.3700 C   0  0  0  0  0  0  0  0  0  0  0  0
  140.8060   68.3280  228.6800 Cl  0  0  0  0  0  0  0  0  0  0  0  0
  141.0760   70.8190  227.5860 C   0  0  0  0  0  0  0  0  0  0  0  0
  140.9650   71.7390  226.5540 C   0  0  0  0  0  0  0  0  0  0  0  0
  140.4550   71.3430  225.3330 C   0  0  0  0  0  0  0  0  0  0  0  0
  140.3560   72.2490  224.3470 N   0  0  0  0  0  0  0  0  0  0  0  0
  138.3727   76.8108  223.7292 H   0  0  0  0  0  0  0  0  0  0  0  0
  136.9294   76.6729  222.6688 H   0  0  0  0  0  0  0  0  0  0  0  0
  138.1711   75.3750  222.6688 H   0  0  0  0  0  0  0  0  0  0  0  0
  138.1813   79.7170  222.1780 H   0  0  0  0  0  0  0  0  0  0  0  0
  139.8376   81.4106  222.7902 H   0  0  0  0  0  0  0  0  0  0  0  0
  142.2423   80.8533  223.0520 H   0  0  0  0  0  0  0  0  0  0  0  0
  142.9539   78.4808  222.6710 H   0  0  0  0  0  0  0  0  0  0  0  0
  141.2480   75.7000  222.7330 H   0  0  0  0  0  0  0  0  0  0  0  0
  141.6626   74.1523  221.2473 H   0  0  0  0  0  0  0  0  0  0  0  0
  144.2282   75.3254  220.7923 H   0  0  0  0  0  0  0  0  0  0  0  0
  143.8888   73.7151  221.4108 H   0  0  0  0  0  0  0  0  0  0  0  0
  145.0734   74.1138  218.9431 H   0  0  0  0  0  0  0  0  0  0  0  0
  144.0532   72.7344  219.1735 H   0  0  0  0  0  0  0  0  0  0  0  0
  143.1862   75.6023  218.2615 H   0  0  0  0  0  0  0  0  0  0  0  0
  142.9826   74.1745  217.3002 H   0  0  0  0  0  0  0  0  0  0  0  0
  139.1807   74.4223  220.2108 H   0  0  0  0  0  0  0  0  0  0  0  0
  138.6003   73.1241  219.0144 H   0  0  0  0  0  0  0  0  0  0  0  0
  139.3770   71.4220  220.5180 H   0  0  0  0  0  0  0  0  0  0  0  0
  139.0471   70.3860  221.8648 H   0  0  0  0  0  0  0  0  0  0  0  0
  139.2014   68.6239  223.6611 H   0  0  0  0  0  0  0  0  0  0  0  0
  139.8417   68.0981  225.9801 H   0  0  0  0  0  0  0  0  0  0  0  0
  141.4806   71.1239  228.5624 H   0  0  0  0  0  0  0  0  0  0  0  0
  141.2822   72.7810  226.7075 H   0  0  0  0  0  0  0  0  0  0  0  0
  1  2  1  0
  2  3  1  0
  3  4  2  0
  4  5  1  0
  5  6  2  0
  6  7  1  0
  7  8  2  0
  8  9  1  0
  9 10  1  0
 10 11  2  0
 10 12  1  0
 12 13  1  0
 13 14  1  0
 14 15  1  0
 15 16  1  0
 16 17  1  0
 17 18  2  0
 17 19  1  0
 19 20  1  0
 20 21  1  0
 21 22  2  0
 21 23  1  0
 23 24  2  0
 24 25  1  0
 25 26  2  0
 26 27  1  0
 27 28  2  0
 28 29  1  0
 28 30  1  0
 30 31  2  0
 31 32  1  0
 32 33  2  0
  8  3  1  0
 16 12  1  0
 33 23  1  0
 32 26  1  0
  1 34  1  0
  1 35  1  0
  1 36  1  0
  4 37  1  0
  5 38  1  0
  6 39  1  0
  7 40  1  0
  9 41  1  0
 12 42  1  1
 13 43  1  0
 13 44  1  0
 14 45  1  0
 14 46  1  0
 15 47  1  0
 15 48  1  0
 19 49  1  0
 19 50  1  0
 20 51  1  0
 24 52  1  0
 25 53  1  0
 27 54  1  0
 30 55  1  0
 31 56  1  0
M  END
>  <smiles>  (30) 
COc1ccccc1NC(=O)[C@@H]1CCCN1C(=O)CNC(=O)c1ccc2cc(Cl)ccc2n1

>  <score_type>  (30) 
oracle

>  <origin>  (30) 
autodockgpu

>  <m_score__min__energy>  (30) 
-9

>  <m_primary>  (30) 
energy

>  <rmsd>  (30) 
2.9361947055114803

>  <m_score__min__rmsd>  (30) 
2.9361947055114803

>  <meeko>  (30) 
{"free_energy": -7.64, "intermolecular_energy": -9.73, "internal_energy": -2.93, "cluster_size": 24, "cluster_id": 1, "rank_in_cluster": 21}

>  <energy>  (30) 
-7.92

>  <cluster_rmsd>  (30) 
1.07

>  <cluster>  (30) 
2

$$$$

     RDKit          3D

 56 59  0  0  0  0  0  0  0  0999 V2000
  141.1880   71.9460  218.3250 C   0  0  0  0  0  0  0  0  0  0  0  0
  141.8050   73.1890  218.5410 O   0  0  0  0  0  0  0  0  0  0  0  0
  143.0390   73.2130  219.1850 C   0  0  0  0  0  0  0  0  0  0  0  0
  144.0580   72.3330  218.8750 C   0  0  0  0  0  0  0  0  0  0  0  0
  145.2610   72.3910  219.5360 C   0  0  0  0  0  0  0  0  0  0  0  0
  145.5200   73.3130  220.5300 C   0  0  0  0  0  0  0  0  0  0  0  0
  144.5040   74.2010  220.8500 C   0  0  0  0  0  0  0  0  0  0  0  0
  143.2880   74.1490  220.1870 C   0  0  0  0  0  0  0  0  0  0  0  0
  142.2230   75.0500  220.4930 N   0  0  0  0  0  0  0  0  0  0  0  0
  142.3640   76.4140  220.0600 C   0  0  0  0  0  0  0  0  0  0  0  0
  143.4170   76.7330  219.4380 O   0  0  0  0  0  0  0  0  0  0  0  0
  141.2730   77.3470  220.3710 C   0  0  2  0  0  0  0  0  0  0  0  0
  141.7110   78.7270  220.7550 C   0  0  0  0  0  0  0  0  0  0  0  0
  141.1200   78.9320  222.1370 C   0  0  0  0  0  0  0  0  0  0  0  0
  141.0670   77.4770  222.6220 C   0  0  0  0  0  0  0  0  0  0  0  0
  140.4280   76.8510  221.4900 N   0  0  0  0  0  0  0  0  0  0  0  0
  139.3280   76.0260  221.2710 C   0  0  0  0  0  0  0  0  0  0  0  0
  138.1720   76.6230  221.3250 O   0  0  0  0  0  0  0  0  0  0  0  0
  139.2210   74.6020  220.9820 C   0  0  0  0  0  0  0  0  0  0  0  0
  139.1350   73.7100  222.0930 N   0  0  0  0  0  0  0  0  0  0  0  0
  140.1230   72.6520  222.1490 C   0  0  0  0  0  0  0  0  0  0  0  0
  140.9480   72.6350  221.2170 O   0  0  0  0  0  0  0  0  0  0  0  0
  140.1040   71.6980  223.2510 C   0  0  0  0  0  0  0  0  0  0  0  0
  139.5720   70.4500  222.9990 C   0  0  0  0  0  0  0  0  0  0  0  0
  139.5240   69.4900  224.0160 C   0  0  0  0  0  0  0  0  0  0  0  0
  140.0270   69.8510  225.2620 C   0  0  0  0  0  0  0  0  0  0  0  0
  140.0240   68.9720  226.3340 C   0  0  0  0  0  0  0  0  0  0  0  0
  140.5200   69.3130  227.5770 C   0  0  0  0  0  0  0  0  0  0  0  0
  140.4990   68.1680  228.9160 Cl  0  0  0  0  0  0  0  0  0  0  0  0
  141.0470   70.5920  227.7790 C   0  0  0  0  0  0  0  0  0  0  0  0
  141.0610   71.4930  226.7230 C   0  0  0  0  0  0  0  0  0  0  0  0
  140.5580   71.1160  225.4930 C   0  0  0  0  0  0  0  0  0  0  0  0
  140.5810   72.0020  224.4840 N   0  0  0  0  0  0  0  0  0  0  0  0
  140.9560   71.4786  219.2934 H   0  0  0  0  0  0  0  0  0  0  0  0
  140.2579   72.0922  217.7562 H   0  0  0  0  0  0  0  0  0  0  0  0
  141.8669   71.2936  217.7562 H   0  0  0  0  0  0  0  0  0  0  0  0
  143.9044   71.5776  218.0903 H   0  0  0  0  0  0  0  0  0  0  0  0
  146.0491   71.6742  219.2622 H   0  0  0  0  0  0  0  0  0  0  0  0
  146.4909   73.3422  221.0463 H   0  0  0  0  0  0  0  0  0  0  0  0
  144.6646   74.9529  221.6367 H   0  0  0  0  0  0  0  0  0  0  0  0
  141.3610   74.7600  221.0090 H   0  0  0  0  0  0  0  0  0  0  0  0
  140.7176   77.4034  219.4232 H   0  0  0  0  0  0  0  0  0  0  0  0
  142.8085   78.7938  220.7859 H   0  0  0  0  0  0  0  0  0  0  0  0
  141.3786   79.4906  220.0363 H   0  0  0  0  0  0  0  0  0  0  0  0
  141.7713   79.5506  222.7720 H   0  0  0  0  0  0  0  0  0  0  0  0
  140.1563   79.4620  222.1550 H   0  0  0  0  0  0  0  0  0  0  0  0
  142.0736   77.0697  222.7977 H   0  0  0  0  0  0  0  0  0  0  0  0
  140.5501   77.3302  223.5818 H   0  0  0  0  0  0  0  0  0  0  0  0
  138.3176   74.4564  220.3715 H   0  0  0  0  0  0  0  0  0  0  0  0
  140.1689   74.3438  220.4873 H   0  0  0  0  0  0  0  0  0  0  0  0
  138.4150   73.7670  222.8620 H   0  0  0  0  0  0  0  0  0  0  0  0
  139.1853   70.2095  221.9977 H   0  0  0  0  0  0  0  0  0  0  0  0
  139.1049   68.4888  223.8373 H   0  0  0  0  0  0  0  0  0  0  0  0
  139.6103   67.9632  226.1889 H   0  0  0  0  0  0  0  0  0  0  0  0
  141.4457   70.8809  228.7627 H   0  0  0  0  0  0  0  0  0  0  0  0
  141.4713   72.5037  226.8653 H   0  0  0  0  0  0  0  0  0  0  0  0
  1  2  1  0
  2  3  1  0
  3  4  2  0
  4  5  1  0
  5  6  2  0
  6  7  1  0
  7  8  2  0
  8  9  1  0
  9 10  1  0
 10 11  2  0
 10 12  1  0
 12 13  1  0
 13 14  1  0
 14 15  1  0
 15 16  1  0
 16 17  1  0
 17 18  2  0
 17 19  1  0
 19 20  1  0
 20 21  1  0
 21 22  2  0
 21 23  1  0
 23 24  2  0
 24 25  1  0
 25 26  2  0
 26 27  1  0
 27 28  2  0
 28 29  1  0
 28 30  1  0
 30 31  2  0
 31 32  1  0
 32 33  2  0
  8  3  1  0
 16 12  1  0
 33 23  1  0
 32 26  1  0
  1 34  1  0
  1 35  1  0
  1 36  1  0
  4 37  1  0
  5 38  1  0
  6 39  1  0
  7 40  1  0
  9 41  1  0
 12 42  1  6
 13 43  1  0
 13 44  1  0
 14 45  1  0
 14 46  1  0
 15 47  1  0
 15 48  1  0
 19 49  1  0
 19 50  1  0
 20 51  1  0
 24 52  1  0
 25 53  1  0
 27 54  1  0
 30 55  1  0
 31 56  1  0
M  END
>  <smiles>  (31) 
COc1ccccc1NC(=O)[C@@H]1CCCN1C(=O)CNC(=O)c1ccc2cc(Cl)ccc2n1

>  <score_type>  (31) 
oracle

>  <origin>  (31) 
autodockgpu

>  <m_score__min__energy>  (31) 
-9

>  <m_primary>  (31) 
energy

>  <rmsd>  (31) 
4.799340984750156

>  <m_score__min__rmsd>  (31) 
4.799340984750156

>  <meeko>  (31) 
{"free_energy": -8.02, "intermolecular_energy": -10.11, "internal_energy": -2.96, "cluster_size": 10, "cluster_id": 2, "rank_in_cluster": 5}

>  <energy>  (31) 
-7.88

>  <cluster_rmsd>  (31) 
0.93

>  <cluster>  (31) 
2

$$$$

     RDKit          3D

 56 59  0  0  0  0  0  0  0  0999 V2000
  140.3410   72.1050  223.4800 C   0  0  0  0  0  0  0  0  0  0  0  0
  141.1280   71.2400  224.2570 O   0  0  0  0  0  0  0  0  0  0  0  0
  140.8310   71.1090  225.6100 C   0  0  0  0  0  0  0  0  0  0  0  0
  141.4250   71.8930  226.5820 C   0  0  0  0  0  0  0  0  0  0  0  0
  141.1020   71.7310  227.9080 C   0  0  0  0  0  0  0  0  0  0  0  0
  140.1840   70.7960  228.3420 C   0  0  0  0  0  0  0  0  0  0  0  0
  139.5820   70.0040  227.3750 C   0  0  0  0  0  0  0  0  0  0  0  0
  139.9020   70.1610  226.0350 C   0  0  0  0  0  0  0  0  0  0  0  0
  139.3000   69.3620  225.0180 N   0  0  0  0  0  0  0  0  0  0  0  0
  138.2140   69.9430  224.2740 C   0  0  0  0  0  0  0  0  0  0  0  0
  137.8590   71.1210  224.5660 O   0  0  0  0  0  0  0  0  0  0  0  0
  137.5880   69.1280  223.2250 C   0  0  2  0  0  0  0  0  0  0  0  0
  138.3670   67.9150  222.8180 C   0  0  0  0  0  0  0  0  0  0  0  0
  138.5950   68.1040  221.3290 C   0  0  0  0  0  0  0  0  0  0  0  0
  138.5700   69.6350  221.2480 C   0  0  0  0  0  0  0  0  0  0  0  0
  137.3600   69.9130  221.9820 N   0  0  0  0  0  0  0  0  0  0  0  0
  136.1870   70.6350  221.7750 C   0  0  0  0  0  0  0  0  0  0  0  0
  135.3010   70.0430  221.0260 O   0  0  0  0  0  0  0  0  0  0  0  0
  135.7530   71.9440  222.2460 C   0  0  0  0  0  0  0  0  0  0  0  0
  136.7660   72.8860  222.5960 N   0  0  0  0  0  0  0  0  0  0  0  0
  137.1240   73.8550  221.5800 C   0  0  0  0  0  0  0  0  0  0  0  0
  136.5050   73.7620  220.5050 O   0  0  0  0  0  0  0  0  0  0  0  0
  138.1520   74.8520  221.8580 C   0  0  0  0  0  0  0  0  0  0  0  0
  139.4620   74.4960  221.6130 C   0  0  0  0  0  0  0  0  0  0  0  0
  140.4940   75.4080  221.8590 C   0  0  0  0  0  0  0  0  0  0  0  0
  140.1380   76.6590  222.3530 C   0  0  0  0  0  0  0  0  0  0  0  0
  141.0860   77.6330  222.6290 C   0  0  0  0  0  0  0  0  0  0  0  0
  140.7520   78.8800  223.1190 C   0  0  0  0  0  0  0  0  0  0  0  0
  141.9850   80.0910  223.4590 Cl  0  0  0  0  0  0  0  0  0  0  0  0
  139.4080   79.1880  223.3510 C   0  0  0  0  0  0  0  0  0  0  0  0
  138.4380   78.2320  223.0830 C   0  0  0  0  0  0  0  0  0  0  0  0
  138.8100   76.9960  222.5930 C   0  0  0  0  0  0  0  0  0  0  0  0
  137.8560   76.0850  222.3400 N   0  0  0  0  0  0  0  0  0  0  0  0
  139.7492   72.7554  224.1409 H   0  0  0  0  0  0  0  0  0  0  0  0
  140.9929   72.7231  222.8452 H   0  0  0  0  0  0  0  0  0  0  0  0
  139.6643   71.5142  222.8452 H   0  0  0  0  0  0  0  0  0  0  0  0
  142.1637   72.6542  226.2908 H   0  0  0  0  0  0  0  0  0  0  0  0
  141.5949   72.3723  228.6535 H   0  0  0  0  0  0  0  0  0  0  0  0
  139.9402   70.6837  229.4087 H   0  0  0  0  0  0  0  0  0  0  0  0
  138.8443   69.2448  227.6740 H   0  0  0  0  0  0  0  0  0  0  0  0
  139.6130   68.3900  224.7960 H   0  0  0  0  0  0  0  0  0  0  0  0
  136.6461   68.8039  223.6916 H   0  0  0  0  0  0  0  0  0  0  0  0
  139.3248   67.8671  223.3567 H   0  0  0  0  0  0  0  0  0  0  0  0
  137.8398   66.9776  223.0488 H   0  0  0  0  0  0  0  0  0  0  0  0
  139.5644   67.6941  221.0092 H   0  0  0  0  0  0  0  0  0  0  0  0
  137.8676   67.5938  220.6805 H   0  0  0  0  0  0  0  0  0  0  0  0
  139.4510   70.0824  221.7314 H   0  0  0  0  0  0  0  0  0  0  0  0
  138.5922   70.0421  220.2264 H   0  0  0  0  0  0  0  0  0  0  0  0
  135.1437   72.3957  221.4493 H   0  0  0  0  0  0  0  0  0  0  0  0
  135.2206   71.7415  223.1870 H   0  0  0  0  0  0  0  0  0  0  0  0
  137.2630   72.9250  223.5260 H   0  0  0  0  0  0  0  0  0  0  0  0
  139.6955   73.4940  221.2238 H   0  0  0  0  0  0  0  0  0  0  0  0
  141.5455   75.1463  221.6693 H   0  0  0  0  0  0  0  0  0  0  0  0
  142.1467   77.4028  222.4503 H   0  0  0  0  0  0  0  0  0  0  0  0
  139.1228   80.1761  223.7412 H   0  0  0  0  0  0  0  0  0  0  0  0
  137.3763   78.4584  223.2604 H   0  0  0  0  0  0  0  0  0  0  0  0
  1  2  1  0
  2  3  1  0
  3  4  2  0
  4  5  1  0
  5  6  2  0
  6  7  1  0
  7  8  2  0
  8  9  1  0
  9 10  1  0
 10 11  2  0
 10 12  1  0
 12 13  1  0
 13 14  1  0
 14 15  1  0
 15 16  1  0
 16 17  1  0
 17 18  2  0
 17 19  1  0
 19 20  1  0
 20 21  1  0
 21 22  2  0
 21 23  1  0
 23 24  2  0
 24 25  1  0
 25 26  2  0
 26 27  1  0
 27 28  2  0
 28 29  1  0
 28 30  1  0
 30 31  2  0
 31 32  1  0
 32 33  2  0
  8  3  1  0
 16 12  1  0
 33 23  1  0
 32 26  1  0
  1 34  1  0
  1 35  1  0
  1 36  1  0
  4 37  1  0
  5 38  1  0
  6 39  1  0
  7 40  1  0
  9 41  1  0
 12 42  1  1
 13 43  1  0
 13 44  1  0
 14 45  1  0
 14 46  1  0
 15 47  1  0
 15 48  1  0
 19 49  1  0
 19 50  1  0
 20 51  1  0
 24 52  1  0
 25 53  1  0
 27 54  1  0
 30 55  1  0
 31 56  1  0
M  END
>  <smiles>  (32) 
COc1ccccc1NC(=O)[C@@H]1CCCN1C(=O)CNC(=O)c1ccc2cc(Cl)ccc2n1

>  <score_type>  (32) 
oracle

>  <origin>  (32) 
autodockgpu

>  <m_score__min__energy>  (32) 
-9

>  <m_primary>  (32) 
energy

>  <rmsd>  (32) 
8.76272990907089

>  <m_score__min__rmsd>  (32) 
8.76272990907089

>  <meeko>  (32) 
{"free_energy": -7.53, "intermolecular_energy": -9.61, "internal_energy": -2.87, "cluster_size": 6, "cluster_id": 3, "rank_in_cluster": 4}

>  <energy>  (32) 
-7.42

>  <cluster_rmsd>  (32) 
1.01

>  <cluster>  (32) 
2

$$$$

     RDKit          3D

 56 59  0  0  0  0  0  0  0  0999 V2000
  141.2040   71.5090  219.3380 C   0  0  0  0  0  0  0  0  0  0  0  0
  141.6840   72.4360  220.2780 O   0  0  0  0  0  0  0  0  0  0  0  0
  143.0360   72.7640  220.2540 C   0  0  0  0  0  0  0  0  0  0  0  0
  144.0210   71.8410  219.9550 C   0  0  0  0  0  0  0  0  0  0  0  0
  145.3460   72.2070  219.9420 C   0  0  0  0  0  0  0  0  0  0  0  0
  145.7650   73.4920  220.2220 C   0  0  0  0  0  0  0  0  0  0  0  0
  144.7850   74.4260  220.5240 C   0  0  0  0  0  0  0  0  0  0  0  0
  143.4470   74.0650  220.5380 C   0  0  0  0  0  0  0  0  0  0  0  0
  142.4160   75.0030  220.8450 N   0  0  0  0  0  0  0  0  0  0  0  0
  142.3670   76.2130  220.0670 C   0  0  0  0  0  0  0  0  0  0  0  0
  143.2370   76.3710  219.1630 O   0  0  0  0  0  0  0  0  0  0  0  0
  141.3090   77.1840  220.3760 C   0  0  2  0  0  0  0  0  0  0  0  0
  141.7950   78.5140  220.8610 C   0  0  0  0  0  0  0  0  0  0  0  0
  141.1410   78.6730  222.2220 C   0  0  0  0  0  0  0  0  0  0  0  0
  140.9890   77.1990  222.6170 C   0  0  0  0  0  0  0  0  0  0  0  0
  140.3820   76.6720  221.4200 N   0  0  0  0  0  0  0  0  0  0  0  0
  139.2560   75.9190  221.0970 C   0  0  0  0  0  0  0  0  0  0  0  0
  138.1800   76.6130  220.8560 O   0  0  0  0  0  0  0  0  0  0  0  0
  139.0470   74.4830  220.9700 C   0  0  0  0  0  0  0  0  0  0  0  0
  139.3220   73.6740  222.1140 N   0  0  0  0  0  0  0  0  0  0  0  0
  139.1450   72.2460  221.9520 C   0  0  0  0  0  0  0  0  0  0  0  0
  138.7710   71.8730  220.8250 O   0  0  0  0  0  0  0  0  0  0  0  0
  139.4050   71.3500  223.0730 C   0  0  0  0  0  0  0  0  0  0  0  0
  139.0160   70.0340  222.9350 C   0  0  0  0  0  0  0  0  0  0  0  0
  139.2360   69.1250  223.9750 C   0  0  0  0  0  0  0  0  0  0  0  0
  139.8510   69.6060  225.1270 C   0  0  0  0  0  0  0  0  0  0  0  0
  140.1130   68.7860  226.2130 C   0  0  0  0  0  0  0  0  0  0  0  0
  140.7230   69.2460  227.3630 C   0  0  0  0  0  0  0  0  0  0  0  0
  141.0400   68.1730  228.7250 Cl  0  0  0  0  0  0  0  0  0  0  0  0
  141.0970   70.5910  227.4510 C   0  0  0  0  0  0  0  0  0  0  0  0
  140.8460   71.4350  226.3790 C   0  0  0  0  0  0  0  0  0  0  0  0
  140.2350   70.9390  225.2440 C   0  0  0  0  0  0  0  0  0  0  0  0
  140.0010   71.7720  224.2170 N   0  0  0  0  0  0  0  0  0  0  0  0
  140.7596   70.6508  219.8633 H   0  0  0  0  0  0  0  0  0  0  0  0
  140.4407   71.9882  218.7073 H   0  0  0  0  0  0  0  0  0  0  0  0
  142.0358   71.1622  218.7073 H   0  0  0  0  0  0  0  0  0  0  0  0
  143.7413   70.8023  219.7250 H   0  0  0  0  0  0  0  0  0  0  0  0
  146.1020   71.4459  219.6989 H   0  0  0  0  0  0  0  0  0  0  0  0
  146.8308   73.7638  220.2063 H   0  0  0  0  0  0  0  0  0  0  0  0
  145.0724   75.4625  220.7545 H   0  0  0  0  0  0  0  0  0  0  0  0
  141.7080   74.8470  221.5980 H   0  0  0  0  0  0  0  0  0  0  0  0
  140.8080   77.3227  219.4066 H   0  0  0  0  0  0  0  0  0  0  0  0
  142.8913   78.5200  220.9514 H   0  0  0  0  0  0  0  0  0  0  0  0
  141.5412   79.3332  220.1722 H   0  0  0  0  0  0  0  0  0  0  0  0
  141.7875   79.2195  222.9244 H   0  0  0  0  0  0  0  0  0  0  0  0
  140.2057   79.2520  222.2222 H   0  0  0  0  0  0  0  0  0  0  0  0
  141.9629   76.7296  222.8199 H   0  0  0  0  0  0  0  0  0  0  0  0
  140.4140   77.0266  223.5388 H   0  0  0  0  0  0  0  0  0  0  0  0
  137.9920   74.3259  220.7010 H   0  0  0  0  0  0  0  0  0  0  0  0
  139.7779   74.1587  220.2146 H   0  0  0  0  0  0  0  0  0  0  0  0
  139.6400   74.0390  223.0520 H   0  0  0  0  0  0  0  0  0  0  0  0
  138.5321   69.6988  222.0057 H   0  0  0  0  0  0  0  0  0  0  0  0
  138.9346   68.0709  223.8858 H   0  0  0  0  0  0  0  0  0  0  0  0
  139.8234   67.7263  226.1565 H   0  0  0  0  0  0  0  0  0  0  0  0
  141.5843   70.9749  228.3594 H   0  0  0  0  0  0  0  0  0  0  0  0
  141.1326   72.4956  226.4328 H   0  0  0  0  0  0  0  0  0  0  0  0
  1  2  1  0
  2  3  1  0
  3  4  2  0
  4  5  1  0
  5  6  2  0
  6  7  1  0
  7  8  2  0
  8  9  1  0
  9 10  1  0
 10 11  2  0
 10 12  1  0
 12 13  1  0
 13 14  1  0
 14 15  1  0
 15 16  1  0
 16 17  1  0
 17 18  2  0
 17 19  1  0
 19 20  1  0
 20 21  1  0
 21 22  2  0
 21 23  1  0
 23 24  2  0
 24 25  1  0
 25 26  2  0
 26 27  1  0
 27 28  2  0
 28 29  1  0
 28 30  1  0
 30 31  2  0
 31 32  1  0
 32 33  2  0
  8  3  1  0
 16 12  1  0
 33 23  1  0
 32 26  1  0
  1 34  1  0
  1 35  1  0
  1 36  1  0
  4 37  1  0
  5 38  1  0
  6 39  1  0
  7 40  1  0
  9 41  1  0
 12 42  1  6
 13 43  1  0
 13 44  1  0
 14 45  1  0
 14 46  1  0
 15 47  1  0
 15 48  1  0
 19 49  1  0
 19 50  1  0
 20 51  1  0
 24 52  1  0
 25 53  1  0
 27 54  1  0
 30 55  1  0
 31 56  1  0
M  END
>  <smiles>  (33) 
COc1ccccc1NC(=O)[C@@H]1CCCN1C(=O)CNC(=O)c1ccc2cc(Cl)ccc2n1

>  <score_type>  (33) 
oracle

>  <origin>  (33) 
autodockgpu

>  <m_score__min__energy>  (33) 
-9

>  <m_primary>  (33) 
energy

>  <rmsd>  (33) 
4.817332651676088

>  <m_score__min__rmsd>  (33) 
4.817332651676088

>  <meeko>  (33) 
{"free_energy": -8.2, "intermolecular_energy": -10.29, "internal_energy": -2.62, "cluster_size": 10, "cluster_id": 2, "rank_in_cluster": 2}

>  <energy>  (33) 
-7.36

>  <cluster_rmsd>  (33) 
0.79

>  <cluster>  (33) 
2

$$$$

     RDKit          3D

 56 59  0  0  0  0  0  0  0  0999 V2000
  138.5990   82.1420  221.8520 C   0  0  0  0  0  0  0  0  0  0  0  0
  139.5530   81.2540  221.3290 O   0  0  0  0  0  0  0  0  0  0  0  0
  140.5570   80.7870  222.1730 C   0  0  0  0  0  0  0  0  0  0  0  0
  141.5510   81.6070  222.6710 C   0  0  0  0  0  0  0  0  0  0  0  0
  142.5240   81.1050  223.5030 C   0  0  0  0  0  0  0  0  0  0  0  0
  142.5670   79.7790  223.8820 C   0  0  0  0  0  0  0  0  0  0  0  0
  141.5730   78.9470  223.3870 C   0  0  0  0  0  0  0  0  0  0  0  0
  140.5890   79.4460  222.5490 C   0  0  0  0  0  0  0  0  0  0  0  0
  139.5540   78.6150  222.0230 N   0  0  0  0  0  0  0  0  0  0  0  0
  138.2620   78.6880  222.6520 C   0  0  0  0  0  0  0  0  0  0  0  0
  138.1210   79.4790  223.6280 O   0  0  0  0  0  0  0  0  0  0  0  0
  137.1910   77.8360  222.1170 C   0  0  2  0  0  0  0  0  0  0  0  0
  135.8740   77.9630  222.8170 C   0  0  0  0  0  0  0  0  0  0  0  0
  135.5720   76.5550  223.2970 C   0  0  0  0  0  0  0  0  0  0  0  0
  136.9990   76.0150  223.4480 C   0  0  0  0  0  0  0  0  0  0  0  0
  137.5560   76.3950  222.1740 N   0  0  0  0  0  0  0  0  0  0  0  0
  138.2360   75.7680  221.1330 C   0  0  0  0  0  0  0  0  0  0  0  0
  138.6070   76.5560  220.1640 O   0  0  0  0  0  0  0  0  0  0  0  0
  138.6240   74.3800  220.9190 C   0  0  0  0  0  0  0  0  0  0  0  0
  138.9370   73.5990  222.0710 N   0  0  0  0  0  0  0  0  0  0  0  0
  138.9380   72.1610  221.8960 C   0  0  0  0  0  0  0  0  0  0  0  0
  138.6660   71.7580  220.7500 O   0  0  0  0  0  0  0  0  0  0  0  0
  139.2480   71.2920  223.0250 C   0  0  0  0  0  0  0  0  0  0  0  0
  138.8970   69.9620  222.9150 C   0  0  0  0  0  0  0  0  0  0  0  0
  139.1660   69.0770  223.9640 C   0  0  0  0  0  0  0  0  0  0  0  0
  139.7890   69.5950  225.0950 C   0  0  0  0  0  0  0  0  0  0  0  0
  140.0980   68.8000  226.1880 C   0  0  0  0  0  0  0  0  0  0  0  0
  140.7160   69.2960  227.3190 C   0  0  0  0  0  0  0  0  0  0  0  0
  141.0930   68.2560  228.6890 Cl  0  0  0  0  0  0  0  0  0  0  0  0
  141.0500   70.6530  227.3780 C   0  0  0  0  0  0  0  0  0  0  0  0
  140.7520   71.4720  226.2980 C   0  0  0  0  0  0  0  0  0  0  0  0
  140.1340   70.9400  225.1840 C   0  0  0  0  0  0  0  0  0  0  0  0
  139.8540   71.7490  224.1490 N   0  0  0  0  0  0  0  0  0  0  0  0
  138.6326   82.1107  222.9510 H   0  0  0  0  0  0  0  0  0  0  0  0
  138.8205   83.1628  221.5073 H   0  0  0  0  0  0  0  0  0  0  0  0
  137.5966   81.8480  221.5073 H   0  0  0  0  0  0  0  0  0  0  0  0
  141.5643   82.6728  222.3991 H   0  0  0  0  0  0  0  0  0  0  0  0
  143.2990   81.7878  223.8815 H   0  0  0  0  0  0  0  0  0  0  0  0
  143.3553   79.3979  224.5479 H   0  0  0  0  0  0  0  0  0  0  0  0
  141.5662   77.8820  223.6623 H   0  0  0  0  0  0  0  0  0  0  0  0
  139.6970   77.9690  221.2140 H   0  0  0  0  0  0  0  0  0  0  0  0
  137.0789   78.1970  221.0840 H   0  0  0  0  0  0  0  0  0  0  0  0
  135.9489   78.6575  223.6667 H   0  0  0  0  0  0  0  0  0  0  0  0
  135.0856   78.3641  222.1632 H   0  0  0  0  0  0  0  0  0  0  0  0
  135.0325   76.5572  224.2556 H   0  0  0  0  0  0  0  0  0  0  0  0
  134.9218   75.9677  222.6320 H   0  0  0  0  0  0  0  0  0  0  0  0
  137.5294   76.4955  224.2834 H   0  0  0  0  0  0  0  0  0  0  0  0
  137.0624   74.9407  223.6755 H   0  0  0  0  0  0  0  0  0  0  0  0
  137.7925   73.8818  220.3990 H   0  0  0  0  0  0  0  0  0  0  0  0
  139.5660   74.4361  220.3538 H   0  0  0  0  0  0  0  0  0  0  0  0
  139.1640   73.9900  223.0250 H   0  0  0  0  0  0  0  0  0  0  0  0
  138.4051   69.5974  222.0012 H   0  0  0  0  0  0  0  0  0  0  0  0
  138.8955   68.0129  223.8974 H   0  0  0  0  0  0  0  0  0  0  0  0
  139.8406   67.7311  226.1529 H   0  0  0  0  0  0  0  0  0  0  0  0
  141.5432   71.0663  228.2702 H   0  0  0  0  0  0  0  0  0  0  0  0
  141.0074   72.5415  226.3295 H   0  0  0  0  0  0  0  0  0  0  0  0
  1  2  1  0
  2  3  1  0
  3  4  2  0
  4  5  1  0
  5  6  2  0
  6  7  1  0
  7  8  2  0
  8  9  1  0
  9 10  1  0
 10 11  2  0
 10 12  1  0
 12 13  1  0
 13 14  1  0
 14 15  1  0
 15 16  1  0
 16 17  1  0
 17 18  2  0
 17 19  1  0
 19 20  1  0
 20 21  1  0
 21 22  2  0
 21 23  1  0
 23 24  2  0
 24 25  1  0
 25 26  2  0
 26 27  1  0
 27 28  2  0
 28 29  1  0
 28 30  1  0
 30 31  2  0
 31 32  1  0
 32 33  2  0
  8  3  1  0
 16 12  1  0
 33 23  1  0
 32 26  1  0
  1 34  1  0
  1 35  1  0
  1 36  1  0
  4 37  1  0
  5 38  1  0
  6 39  1  0
  7 40  1  0
  9 41  1  0
 12 42  1  6
 13 43  1  0
 13 44  1  0
 14 45  1  0
 14 46  1  0
 15 47  1  0
 15 48  1  0
 19 49  1  0
 19 50  1  0
 20 51  1  0
 24 52  1  0
 25 53  1  0
 27 54  1  0
 30 55  1  0
 31 56  1  0
M  END
>  <smiles>  (34) 
COc1ccccc1NC(=O)[C@@H]1CCCN1C(=O)CNC(=O)c1ccc2cc(Cl)ccc2n1

>  <score_type>  (34) 
oracle

>  <origin>  (34) 
autodockgpu

>  <m_score__min__energy>  (34) 
-9

>  <m_primary>  (34) 
energy

>  <rmsd>  (34) 
3.5835436663867437

>  <m_score__min__rmsd>  (34) 
3.5835436663867437

>  <meeko>  (34) 
{"free_energy": -7.85, "intermolecular_energy": -9.94, "internal_energy": -2.74, "cluster_size": 24, "cluster_id": 1, "rank_in_cluster": 15}

>  <energy>  (34) 
-6.82

>  <cluster_rmsd>  (34) 
1.14

>  <cluster>  (34) 
2

$$$$

     RDKit          3D

 56 59  0  0  0  0  0  0  0  0999 V2000
  141.1170   72.2360  219.1850 C   0  0  0  0  0  0  0  0  0  0  0  0
  141.7910   72.5340  220.3810 O   0  0  0  0  0  0  0  0  0  0  0  0
  143.1470   72.8430  220.3180 C   0  0  0  0  0  0  0  0  0  0  0  0
  144.1100   71.9040  220.0000 C   0  0  0  0  0  0  0  0  0  0  0  0
  145.4390   72.2520  219.9490 C   0  0  0  0  0  0  0  0  0  0  0  0
  145.8840   73.5330  220.2070 C   0  0  0  0  0  0  0  0  0  0  0  0
  144.9250   74.4830  220.5270 C   0  0  0  0  0  0  0  0  0  0  0  0
  143.5830   74.1400  220.5800 C   0  0  0  0  0  0  0  0  0  0  0  0
  142.5740   75.0950  220.9070 N   0  0  0  0  0  0  0  0  0  0  0  0
  142.3270   76.1500  219.9600 C   0  0  0  0  0  0  0  0  0  0  0  0
  143.0170   76.1680  218.9000 O   0  0  0  0  0  0  0  0  0  0  0  0
  141.2900   77.1370  220.2880 C   0  0  2  0  0  0  0  0  0  0  0  0
  141.8050   78.4770  220.7110 C   0  0  0  0  0  0  0  0  0  0  0  0
  141.2150   78.6800  222.0950 C   0  0  0  0  0  0  0  0  0  0  0  0
  141.0730   77.2190  222.5400 C   0  0  0  0  0  0  0  0  0  0  0  0
  140.4080   76.6620  221.3880 N   0  0  0  0  0  0  0  0  0  0  0  0
  139.2640   75.9080  221.1390 C   0  0  0  0  0  0  0  0  0  0  0  0
  138.1710   76.6000  220.9870 O   0  0  0  0  0  0  0  0  0  0  0  0
  139.0520   74.4730  221.0080 C   0  0  0  0  0  0  0  0  0  0  0  0
  139.3350   73.6600  222.1470 N   0  0  0  0  0  0  0  0  0  0  0  0
  139.1420   72.2330  221.9850 C   0  0  0  0  0  0  0  0  0  0  0  0
  138.7500   71.8660  220.8620 O   0  0  0  0  0  0  0  0  0  0  0  0
  139.4080   71.3330  223.1020 C   0  0  0  0  0  0  0  0  0  0  0  0
  139.0400   70.0120  222.9510 C   0  0  0  0  0  0  0  0  0  0  0  0
  139.2680   69.0990  223.9860 C   0  0  0  0  0  0  0  0  0  0  0  0
  139.8680   69.5810  225.1450 C   0  0  0  0  0  0  0  0  0  0  0  0
  140.1350   68.7570  226.2270 C   0  0  0  0  0  0  0  0  0  0  0  0
  140.7310   69.2170  227.3850 C   0  0  0  0  0  0  0  0  0  0  0  0
  141.0540   68.1390  228.7400 Cl  0  0  0  0  0  0  0  0  0  0  0  0
  141.0830   70.5670  227.4850 C   0  0  0  0  0  0  0  0  0  0  0  0
  140.8260   71.4150  226.4170 C   0  0  0  0  0  0  0  0  0  0  0  0
  140.2300   70.9180  225.2750 C   0  0  0  0  0  0  0  0  0  0  0  0
  139.9900   71.7550  224.2520 N   0  0  0  0  0  0  0  0  0  0  0  0
  140.1336   71.8012  219.4169 H   0  0  0  0  0  0  0  0  0  0  0  0
  140.9817   73.1582  218.6008 H   0  0  0  0  0  0  0  0  0  0  0  0
  141.7080   71.5153  218.6008 H   0  0  0  0  0  0  0  0  0  0  0  0
  143.8100   70.8677  219.7855 H   0  0  0  0  0  0  0  0  0  0  0  0
  146.1776   71.4784  219.6922 H   0  0  0  0  0  0  0  0  0  0  0  0
  146.9527   73.7894  220.1609 H   0  0  0  0  0  0  0  0  0  0  0  0
  145.2322   75.5174  220.7405 H   0  0  0  0  0  0  0  0  0  0  0  0
  142.0170   75.0570  221.7910 H   0  0  0  0  0  0  0  0  0  0  0  0
  140.7463   77.2510  219.3386 H   0  0  0  0  0  0  0  0  0  0  0  0
  142.9043   78.4781  220.7511 H   0  0  0  0  0  0  0  0  0  0  0  0
  141.5244   79.2776  220.0107 H   0  0  0  0  0  0  0  0  0  0  0  0
  141.8960   79.2423  222.7508 H   0  0  0  0  0  0  0  0  0  0  0  0
  140.2839   79.2651  222.1208 H   0  0  0  0  0  0  0  0  0  0  0  0
  142.0525   76.7487  222.7113 H   0  0  0  0  0  0  0  0  0  0  0  0
  140.5405   77.0774  223.4921 H   0  0  0  0  0  0  0  0  0  0  0  0
  137.9947   74.3182  220.7467 H   0  0  0  0  0  0  0  0  0  0  0  0
  139.7761   74.1503  220.2454 H   0  0  0  0  0  0  0  0  0  0  0  0
  139.6680   74.0200  223.0810 H   0  0  0  0  0  0  0  0  0  0  0  0
  138.5670   69.6765  222.0163 H   0  0  0  0  0  0  0  0  0  0  0  0
  138.9839   68.0409  223.8873 H   0  0  0  0  0  0  0  0  0  0  0  0
  139.8612   67.6937  226.1608 H   0  0  0  0  0  0  0  0  0  0  0  0
  141.5579   70.9520  228.3995 H   0  0  0  0  0  0  0  0  0  0  0  0
  141.0962   72.4794  226.4800 H   0  0  0  0  0  0  0  0  0  0  0  0
  1  2  1  0
  2  3  1  0
  3  4  2  0
  4  5  1  0
  5  6  2  0
  6  7  1  0
  7  8  2  0
  8  9  1  0
  9 10  1  0
 10 11  2  0
 10 12  1  0
 12 13  1  0
 13 14  1  0
 14 15  1  0
 15 16  1  0
 16 17  1  0
 17 18  2  0
 17 19  1  0
 19 20  1  0
 20 21  1  0
 21 22  2  0
 21 23  1  0
 23 24  2  0
 24 25  1  0
 25 26  2  0
 26 27  1  0
 27 28  2  0
 28 29  1  0
 28 30  1  0
 30 31  2  0
 31 32  1  0
 32 33  2  0
  8  3  1  0
 16 12  1  0
 33 23  1  0
 32 26  1  0
  1 34  1  0
  1 35  1  0
  1 36  1  0
  4 37  1  0
  5 38  1  0
  6 39  1  0
  7 40  1  0
  9 41  1  0
 12 42  1  6
 13 43  1  0
 13 44  1  0
 14 45  1  0
 14 46  1  0
 15 47  1  0
 15 48  1  0
 19 49  1  0
 19 50  1  0
 20 51  1  0
 24 52  1  0
 25 53  1  0
 27 54  1  0
 30 55  1  0
 31 56  1  0
M  END
>  <smiles>  (35) 
COc1ccccc1NC(=O)[C@@H]1CCCN1C(=O)CNC(=O)c1ccc2cc(Cl)ccc2n1

>  <score_type>  (35) 
oracle

>  <origin>  (35) 
autodockgpu

>  <m_score__min__energy>  (35) 
-9

>  <m_primary>  (35) 
energy

>  <rmsd>  (35) 
4.79665267665244

>  <m_score__min__rmsd>  (35) 
4.79665267665244

>  <meeko>  (35) 
{"free_energy": -8.29, "intermolecular_energy": -10.38, "internal_energy": -2.64, "cluster_size": 10, "cluster_id": 2, "rank_in_cluster": 1}

>  <energy>  (35) 
-8.14

>  <cluster_rmsd>  (35) 
0.0

>  <cluster>  (35) 
3

$$$$

     RDKit          3D

 56 59  0  0  0  0  0  0  0  0999 V2000
  139.9990   67.1680  226.1080 C   0  0  0  0  0  0  0  0  0  0  0  0
  139.2540   68.3500  225.9630 O   0  0  0  0  0  0  0  0  0  0  0  0
  139.8790   69.5640  226.2360 C   0  0  0  0  0  0  0  0  0  0  0  0
  140.3330   69.9000  227.4970 C   0  0  0  0  0  0  0  0  0  0  0  0
  140.9450   71.1100  227.7230 C   0  0  0  0  0  0  0  0  0  0  0  0
  141.1380   72.0440  226.7250 C   0  0  0  0  0  0  0  0  0  0  0  0
  140.6850   71.7160  225.4560 C   0  0  0  0  0  0  0  0  0  0  0  0
  140.0680   70.4980  225.2200 C   0  0  0  0  0  0  0  0  0  0  0  0
  139.5920   70.1330  223.9250 N   0  0  0  0  0  0  0  0  0  0  0  0
  138.1850   70.2900  223.6670 C   0  0  0  0  0  0  0  0  0  0  0  0
  137.4580   70.7390  224.5980 O   0  0  0  0  0  0  0  0  0  0  0  0
  137.6870   69.9160  222.3360 C   0  0  2  0  0  0  0  0  0  0  0  0
  136.2170   69.6380  222.2680 C   0  0  0  0  0  0  0  0  0  0  0  0
  136.1340   68.2140  221.7470 C   0  0  0  0  0  0  0  0  0  0  0  0
  137.4680   67.6640  222.2650 C   0  0  0  0  0  0  0  0  0  0  0  0
  138.3670   68.6990  221.8170 N   0  0  0  0  0  0  0  0  0  0  0  0
  139.5470   68.7740  221.0820 C   0  0  0  0  0  0  0  0  0  0  0  0
  140.0620   67.6250  220.7490 O   0  0  0  0  0  0  0  0  0  0  0  0
  140.3250   69.9080  220.6030 C   0  0  0  0  0  0  0  0  0  0  0  0
  139.7310   71.2020  220.7010 N   0  0  0  0  0  0  0  0  0  0  0  0
  140.2530   72.0760  221.7320 C   0  0  0  0  0  0  0  0  0  0  0  0
  141.1710   71.6020  222.4260 O   0  0  0  0  0  0  0  0  0  0  0  0
  139.6990   73.4140  221.8980 C   0  0  0  0  0  0  0  0  0  0  0  0
  138.3250   73.5370  221.8870 C   0  0  0  0  0  0  0  0  0  0  0  0
  137.7320   74.7940  222.0410 C   0  0  0  0  0  0  0  0  0  0  0  0
  138.5790   75.8860  222.2020 C   0  0  0  0  0  0  0  0  0  0  0  0
  138.0900   77.1740  222.3620 C   0  0  0  0  0  0  0  0  0  0  0  0
  138.9150   78.2690  222.5230 C   0  0  0  0  0  0  0  0  0  0  0  0
  138.2570   79.8910  222.7230 Cl  0  0  0  0  0  0  0  0  0  0  0  0
  140.3020   78.0890  222.5260 C   0  0  0  0  0  0  0  0  0  0  0  0
  140.8190   76.8110  222.3670 C   0  0  0  0  0  0  0  0  0  0  0  0
  139.9630   75.7390  222.2100 C   0  0  0  0  0  0  0  0  0  0  0  0
  140.4820   74.5100  222.0580 N   0  0  0  0  0  0  0  0  0  0  0  0
  140.1364   66.9500  227.1774 H   0  0  0  0  0  0  0  0  0  0  0  0
  139.4622   66.3353  225.6301 H   0  0  0  0  0  0  0  0  0  0  0  0
  140.9818   67.2931  225.6301 H   0  0  0  0  0  0  0  0  0  0  0  0
  140.2033   69.1919  228.3287 H   0  0  0  0  0  0  0  0  0  0  0  0
  141.2948   71.3432  228.7395 H   0  0  0  0  0  0  0  0  0  0  0  0
  141.6299   73.0068  226.9276 H   0  0  0  0  0  0  0  0  0  0  0  0
  140.8167   72.4294  224.6291 H   0  0  0  0  0  0  0  0  0  0  0  0
  140.2150   69.7630  223.1710 H   0  0  0  0  0  0  0  0  0  0  0  0
  137.9074   70.8061  221.7284 H   0  0  0  0  0  0  0  0  0  0  0  0
  135.7580   69.7167  223.2646 H   0  0  0  0  0  0  0  0  0  0  0  0
  135.6807   70.3541  221.6280 H   0  0  0  0  0  0  0  0  0  0  0  0
  135.2762   67.6727  222.1727 H   0  0  0  0  0  0  0  0  0  0  0  0
  135.9865   68.1256  220.6605 H   0  0  0  0  0  0  0  0  0  0  0  0
  137.4708   67.5693  223.3609 H   0  0  0  0  0  0  0  0  0  0  0  0
  137.7174   66.6532  221.9100 H   0  0  0  0  0  0  0  0  0  0  0  0
  141.2624   69.9311  221.1781 H   0  0  0  0  0  0  0  0  0  0  0  0
  140.4403   69.7332  219.5231 H   0  0  0  0  0  0  0  0  0  0  0  0
  138.9520   71.5600  220.0850 H   0  0  0  0  0  0  0  0  0  0  0  0
  137.6949   72.6448  221.7569 H   0  0  0  0  0  0  0  0  0  0  0  0
  136.6387   74.9147  222.0351 H   0  0  0  0  0  0  0  0  0  0  0  0
  137.0010   77.3292  222.3605 H   0  0  0  0  0  0  0  0  0  0  0  0
  140.9748   78.9499  222.6528 H   0  0  0  0  0  0  0  0  0  0  0  0
  141.9075   76.6525  222.3661 H   0  0  0  0  0  0  0  0  0  0  0  0
  1  2  1  0
  2  3  1  0
  3  4  2  0
  4  5  1  0
  5  6  2  0
  6  7  1  0
  7  8  2  0
  8  9  1  0
  9 10  1  0
 10 11  2  0
 10 12  1  0
 12 13  1  0
 13 14  1  0
 14 15  1  0
 15 16  1  0
 16 17  1  0
 17 18  2  0
 17 19  1  0
 19 20  1  0
 20 21  1  0
 21 22  2  0
 21 23  1  0
 23 24  2  0
 24 25  1  0
 25 26  2  0
 26 27  1  0
 27 28  2  0
 28 29  1  0
 28 30  1  0
 30 31  2  0
 31 32  1  0
 32 33  2  0
  8  3  1  0
 16 12  1  0
 33 23  1  0
 32 26  1  0
  1 34  1  0
  1 35  1  0
  1 36  1  0
  4 37  1  0
  5 38  1  0
  6 39  1  0
  7 40  1  0
  9 41  1  0
 12 42  1  6
 13 43  1  0
 13 44  1  0
 14 45  1  0
 14 46  1  0
 15 47  1  0
 15 48  1  0
 19 49  1  0
 19 50  1  0
 20 51  1  0
 24 52  1  0
 25 53  1  0
 27 54  1  0
 30 55  1  0
 31 56  1  0
M  END
>  <smiles>  (36) 
COc1ccccc1NC(=O)[C@@H]1CCCN1C(=O)CNC(=O)c1ccc2cc(Cl)ccc2n1

>  <score_type>  (36) 
oracle

>  <origin>  (36) 
autodockgpu

>  <m_score__min__energy>  (36) 
-9

>  <m_primary>  (36) 
energy

>  <rmsd>  (36) 
8.630516688944711

>  <m_score__min__rmsd>  (36) 
8.630516688944711

>  <meeko>  (36) 
{"free_energy": -6.82, "intermolecular_energy": -8.91, "internal_energy": -3.31, "cluster_size": 6, "cluster_id": 3, "rank_in_cluster": 6}

>  <energy>  (36) 
-8.02

>  <cluster_rmsd>  (36) 
0.39

>  <cluster>  (36) 
3

$$$$

     RDKit          3D

 56 59  0  0  0  0  0  0  0  0999 V2000
  139.1820   78.1540  222.7270 C   0  0  0  0  0  0  0  0  0  0  0  0
  139.6340   79.4210  222.3220 O   0  0  0  0  0  0  0  0  0  0  0  0
  140.8480   79.8820  222.8230 C   0  0  0  0  0  0  0  0  0  0  0  0
  140.9300   80.9070  223.7470 C   0  0  0  0  0  0  0  0  0  0  0  0
  142.1500   81.3320  224.2170 C   0  0  0  0  0  0  0  0  0  0  0  0
  143.3430   80.7730  223.8030 C   0  0  0  0  0  0  0  0  0  0  0  0
  143.2710   79.7440  222.8750 C   0  0  0  0  0  0  0  0  0  0  0  0
  142.0450   79.3100  222.3970 C   0  0  0  0  0  0  0  0  0  0  0  0
  141.9390   78.2530  221.4440 N   0  0  0  0  0  0  0  0  0  0  0  0
  141.8270   78.6200  220.0570 C   0  0  0  0  0  0  0  0  0  0  0  0
  141.8270   79.8510  219.7680 O   0  0  0  0  0  0  0  0  0  0  0  0
  141.7170   77.5390  219.0690 C   0  0  2  0  0  0  0  0  0  0  0  0
  141.3990   77.9870  217.6760 C   0  0  0  0  0  0  0  0  0  0  0  0
  140.1130   77.2550  217.3370 C   0  0  0  0  0  0  0  0  0  0  0  0
  139.5220   77.0920  218.7430 C   0  0  0  0  0  0  0  0  0  0  0  0
  140.6640   76.5580  219.4430 N   0  0  0  0  0  0  0  0  0  0  0  0
  140.9390   75.4570  220.2500 C   0  0  0  0  0  0  0  0  0  0  0  0
  141.7920   75.6780  221.2100 O   0  0  0  0  0  0  0  0  0  0  0  0
  140.4450   74.0870  220.2310 C   0  0  0  0  0  0  0  0  0  0  0  0
  140.6010   73.3140  221.4210 N   0  0  0  0  0  0  0  0  0  0  0  0
  139.6640   72.2260  221.6110 C   0  0  0  0  0  0  0  0  0  0  0  0
  138.8190   72.0790  220.7090 O   0  0  0  0  0  0  0  0  0  0  0  0
  139.7550   71.3900  222.8020 C   0  0  0  0  0  0  0  0  0  0  0  0
  139.2020   70.1280  222.7320 C   0  0  0  0  0  0  0  0  0  0  0  0
  139.2560   69.2770  223.8420 C   0  0  0  0  0  0  0  0  0  0  0  0
  139.8780   69.7590  224.9890 C   0  0  0  0  0  0  0  0  0  0  0  0
  139.9830   68.9930  226.1400 C   0  0  0  0  0  0  0  0  0  0  0  0
  140.5980   69.4550  227.2880 C   0  0  0  0  0  0  0  0  0  0  0  0
  140.7110   68.4530  228.7320 Cl  0  0  0  0  0  0  0  0  0  0  0  0
  141.1410   70.7430  227.3040 C   0  0  0  0  0  0  0  0  0  0  0  0
  141.0500   71.5310  226.1650 C   0  0  0  0  0  0  0  0  0  0  0  0
  140.4290   71.0360  225.0360 C   0  0  0  0  0  0  0  0  0  0  0  0
  140.3510   71.8140  223.9440 N   0  0  0  0  0  0  0  0  0  0  0  0
  139.1645   78.1049  223.8258 H   0  0  0  0  0  0  0  0  0  0  0  0
  138.1679   77.9843  222.3362 H   0  0  0  0  0  0  0  0  0  0  0  0
  139.8597   77.3807  222.3362 H   0  0  0  0  0  0  0  0  0  0  0  0
  140.0095   81.3875  224.1099 H   0  0  0  0  0  0  0  0  0  0  0  0
  142.1770   82.1499  224.9521 H   0  0  0  0  0  0  0  0  0  0  0  0
  144.3086   81.1282  224.1921 H   0  0  0  0  0  0  0  0  0  0  0  0
  144.1955   79.2685  222.5155 H   0  0  0  0  0  0  0  0  0  0  0  0
  141.9420   77.2420  221.7090 H   0  0  0  0  0  0  0  0  0  0  0  0
  142.7223   77.0926  219.0761 H   0  0  0  0  0  0  0  0  0  0  0  0
  141.2495   79.0762  217.6405 H   0  0  0  0  0  0  0  0  0  0  0  0
  142.2100   77.7673  216.9660 H   0  0  0  0  0  0  0  0  0  0  0  0
  139.4603   77.8559  216.6868 H   0  0  0  0  0  0  0  0  0  0  0  0
  140.2469   76.3167  216.7786 H   0  0  0  0  0  0  0  0  0  0  0  0
  139.2013   78.0564  219.1638 H   0  0  0  0  0  0  0  0  0  0  0  0
  138.6183   76.4669  218.7926 H   0  0  0  0  0  0  0  0  0  0  0  0
  139.3697   74.1275  220.0029 H   0  0  0  0  0  0  0  0  0  0  0  0
  141.0659   73.5754  219.4809 H   0  0  0  0  0  0  0  0  0  0  0  0
  141.3380   73.4790  222.1580 H   0  0  0  0  0  0  0  0  0  0  0  0
  138.7184   69.7904  221.8035 H   0  0  0  0  0  0  0  0  0  0  0  0
  138.8233   68.2662  223.8086 H   0  0  0  0  0  0  0  0  0  0  0  0
  139.5601   67.9775  226.1393 H   0  0  0  0  0  0  0  0  0  0  0  0
  141.6346   71.1275  228.2087 H   0  0  0  0  0  0  0  0  0  0  0  0
  141.4715   72.5470  226.1620 H   0  0  0  0  0  0  0  0  0  0  0  0
  1  2  1  0
  2  3  1  0
  3  4  2  0
  4  5  1  0
  5  6  2  0
  6  7  1  0
  7  8  2  0
  8  9  1  0
  9 10  1  0
 10 11  2  0
 10 12  1  0
 12 13  1  0
 13 14  1  0
 14 15  1  0
 15 16  1  0
 16 17  1  0
 17 18  2  0
 17 19  1  0
 19 20  1  0
 20 21  1  0
 21 22  2  0
 21 23  1  0
 23 24  2  0
 24 25  1  0
 25 26  2  0
 26 27  1  0
 27 28  2  0
 28 29  1  0
 28 30  1  0
 30 31  2  0
 31 32  1  0
 32 33  2  0
  8  3  1  0
 16 12  1  0
 33 23  1  0
 32 26  1  0
  1 34  1  0
  1 35  1  0
  1 36  1  0
  4 37  1  0
  5 38  1  0
  6 39  1  0
  7 40  1  0
  9 41  1  0
 12 42  1  6
 13 43  1  0
 13 44  1  0
 14 45  1  0
 14 46  1  0
 15 47  1  0
 15 48  1  0
 19 49  1  0
 19 50  1  0
 20 51  1  0
 24 52  1  0
 25 53  1  0
 27 54  1  0
 30 55  1  0
 31 56  1  0
M  END
>  <smiles>  (37) 
COc1ccccc1NC(=O)[C@@H]1CCCN1C(=O)CNC(=O)c1ccc2cc(Cl)ccc2n1

>  <score_type>  (37) 
oracle

>  <origin>  (37) 
autodockgpu

>  <m_score__min__energy>  (37) 
-9

>  <m_primary>  (37) 
energy

>  <rmsd>  (37) 
2.290434599255705

>  <m_score__min__rmsd>  (37) 
2.290434599255705

>  <meeko>  (37) 
{"free_energy": -7.93, "intermolecular_energy": -10.02, "internal_energy": -3.04, "cluster_size": 24, "cluster_id": 1, "rank_in_cluster": 12}

>  <energy>  (37) 
-7.78

>  <cluster_rmsd>  (37) 
0.79

>  <cluster>  (37) 
3

$$$$

     RDKit          3D

 56 59  0  0  0  0  0  0  0  0999 V2000
  141.0750   76.6470  222.0020 C   0  0  0  0  0  0  0  0  0  0  0  0
  141.2710   77.4130  223.1620 O   0  0  0  0  0  0  0  0  0  0  0  0
  141.3410   78.7980  223.0390 C   0  0  0  0  0  0  0  0  0  0  0  0
  142.3950   79.5380  223.5410 C   0  0  0  0  0  0  0  0  0  0  0  0
  142.4240   80.9040  223.3970 C   0  0  0  0  0  0  0  0  0  0  0  0
  141.4240   81.6070  222.7550 C   0  0  0  0  0  0  0  0  0  0  0  0
  140.3620   80.8730  222.2470 C   0  0  0  0  0  0  0  0  0  0  0  0
  140.3250   79.4950  222.3880 C   0  0  0  0  0  0  0  0  0  0  0  0
  139.2460   78.7140  221.8770 N   0  0  0  0  0  0  0  0  0  0  0  0
  138.0290   78.6800  222.6440 C   0  0  0  0  0  0  0  0  0  0  0  0
  137.9890   79.3410  223.7210 O   0  0  0  0  0  0  0  0  0  0  0  0
  136.9130   77.8780  222.1240 C   0  0  2  0  0  0  0  0  0  0  0  0
  135.6140   78.0600  222.8460 C   0  0  0  0  0  0  0  0  0  0  0  0
  135.2580   76.6650  223.3260 C   0  0  0  0  0  0  0  0  0  0  0  0
  136.6630   76.0620  223.4530 C   0  0  0  0  0  0  0  0  0  0  0  0
  137.2150   76.4220  222.1710 N   0  0  0  0  0  0  0  0  0  0  0  0
  137.8510   75.7700  221.1170 C   0  0  0  0  0  0  0  0  0  0  0  0
  138.2120   76.5400  220.1300 O   0  0  0  0  0  0  0  0  0  0  0  0
  138.2000   74.3710  220.9050 C   0  0  0  0  0  0  0  0  0  0  0  0
  138.3990   73.5600  222.0630 N   0  0  0  0  0  0  0  0  0  0  0  0
  139.1760   72.3520  221.8790 C   0  0  0  0  0  0  0  0  0  0  0  0
  139.5910   72.1490  220.7230 O   0  0  0  0  0  0  0  0  0  0  0  0
  139.4240   71.4680  223.0120 C   0  0  0  0  0  0  0  0  0  0  0  0
  139.0280   70.1520  222.8860 C   0  0  0  0  0  0  0  0  0  0  0  0
  139.2380   69.2540  223.9380 C   0  0  0  0  0  0  0  0  0  0  0  0
  139.8490   69.7450  225.0880 C   0  0  0  0  0  0  0  0  0  0  0  0
  140.1010   68.9360  226.1850 C   0  0  0  0  0  0  0  0  0  0  0  0
  140.7080   69.4060  227.3330 C   0  0  0  0  0  0  0  0  0  0  0  0
  141.0110   68.3480  228.7080 Cl  0  0  0  0  0  0  0  0  0  0  0  0
  141.0880   70.7500  227.4070 C   0  0  0  0  0  0  0  0  0  0  0  0
  140.8480   71.5830  226.3230 C   0  0  0  0  0  0  0  0  0  0  0  0
  140.2400   71.0770  225.1910 C   0  0  0  0  0  0  0  0  0  0  0  0
  140.0160   71.8990  224.1530 N   0  0  0  0  0  0  0  0  0  0  0  0
  140.8114   75.6167  222.2831 H   0  0  0  0  0  0  0  0  0  0  0  0
  140.2599   77.0847  221.4070 H   0  0  0  0  0  0  0  0  0  0  0  0
  142.0001   76.6394  221.4070 H   0  0  0  0  0  0  0  0  0  0  0  0
  143.2191   79.0279  224.0612 H   0  0  0  0  0  0  0  0  0  0  0  0
  143.2785   81.4602  223.8099 H   0  0  0  0  0  0  0  0  0  0  0  0
  141.4675   82.7012  222.6509 H   0  0  0  0  0  0  0  0  0  0  0  0
  139.5416   81.3898  221.7274 H   0  0  0  0  0  0  0  0  0  0  0  0
  139.3040   78.1760  220.9820 H   0  0  0  0  0  0  0  0  0  0  0  0
  136.8003   78.2475  221.0941 H   0  0  0  0  0  0  0  0  0  0  0  0
  135.7332   78.7470  223.6968 H   0  0  0  0  0  0  0  0  0  0  0  0
  134.8336   78.4981  222.2065 H   0  0  0  0  0  0  0  0  0  0  0  0
  134.7340   76.6871  224.2929 H   0  0  0  0  0  0  0  0  0  0  0  0
  134.5724   76.1094  222.6694 H   0  0  0  0  0  0  0  0  0  0  0  0
  137.2273   76.5159  224.2810 H   0  0  0  0  0  0  0  0  0  0  0  0
  136.6832   74.9852  223.6769 H   0  0  0  0  0  0  0  0  0  0  0  0
  137.3897   73.9143  220.3178 H   0  0  0  0  0  0  0  0  0  0  0  0
  139.1815   74.3983  220.4091 H   0  0  0  0  0  0  0  0  0  0  0  0
  138.0260   73.7770  223.0260 H   0  0  0  0  0  0  0  0  0  0  0  0
  138.5471   69.8090  221.9581 H   0  0  0  0  0  0  0  0  0  0  0  0
  138.9320   68.2004  223.8592 H   0  0  0  0  0  0  0  0  0  0  0  0
  139.8057   67.8774  226.1393 H   0  0  0  0  0  0  0  0  0  0  0  0
  141.5715   71.1423  228.3138 H   0  0  0  0  0  0  0  0  0  0  0  0
  141.1411   72.6424  226.3654 H   0  0  0  0  0  0  0  0  0  0  0  0
  1  2  1  0
  2  3  1  0
  3  4  2  0
  4  5  1  0
  5  6  2  0
  6  7  1  0
  7  8  2  0
  8  9  1  0
  9 10  1  0
 10 11  2  0
 10 12  1  0
 12 13  1  0
 13 14  1  0
 14 15  1  0
 15 16  1  0
 16 17  1  0
 17 18  2  0
 17 19  1  0
 19 20  1  0
 20 21  1  0
 21 22  2  0
 21 23  1  0
 23 24  2  0
 24 25  1  0
 25 26  2  0
 26 27  1  0
 27 28  2  0
 28 29  1  0
 28 30  1  0
 30 31  2  0
 31 32  1  0
 32 33  2  0
  8  3  1  0
 16 12  1  0
 33 23  1  0
 32 26  1  0
  1 34  1  0
  1 35  1  0
  1 36  1  0
  4 37  1  0
  5 38  1  0
  6 39  1  0
  7 40  1  0
  9 41  1  0
 12 42  1  6
 13 43  1  0
 13 44  1  0
 14 45  1  0
 14 46  1  0
 15 47  1  0
 15 48  1  0
 19 49  1  0
 19 50  1  0
 20 51  1  0
 24 52  1  0
 25 53  1  0
 27 54  1  0
 30 55  1  0
 31 56  1  0
M  END
>  <smiles>  (38) 
COc1ccccc1NC(=O)[C@@H]1CCCN1C(=O)CNC(=O)c1ccc2cc(Cl)ccc2n1

>  <score_type>  (38) 
oracle

>  <origin>  (38) 
autodockgpu

>  <m_score__min__energy>  (38) 
-9

>  <m_primary>  (38) 
energy

>  <rmsd>  (38) 
3.730456173824107

>  <m_score__min__rmsd>  (38) 
3.730456173824107

>  <meeko>  (38) 
{"free_energy": -8.03, "intermolecular_energy": -10.12, "internal_energy": -2.56, "cluster_size": 24, "cluster_id": 1, "rank_in_cluster": 10}

>  <energy>  (38) 
-7.53

>  <cluster_rmsd>  (38) 
1.27

>  <cluster>  (38) 
3

$$$$

     RDKit          3D

 56 59  0  0  0  0  0  0  0  0999 V2000
  140.6630   71.5400  223.6230 C   0  0  0  0  0  0  0  0  0  0  0  0
  140.4190   72.1720  224.8530 O   0  0  0  0  0  0  0  0  0  0  0  0
  140.3800   71.3890  226.0040 C   0  0  0  0  0  0  0  0  0  0  0  0
  141.1670   71.6520  227.1100 C   0  0  0  0  0  0  0  0  0  0  0  0
  141.0980   70.8540  228.2260 C   0  0  0  0  0  0  0  0  0  0  0  0
  140.2560   69.7630  228.3100 C   0  0  0  0  0  0  0  0  0  0  0  0
  139.4630   69.4900  227.2060 C   0  0  0  0  0  0  0  0  0  0  0  0
  139.5260   70.2900  226.0760 C   0  0  0  0  0  0  0  0  0  0  0  0
  138.7230   70.0350  224.9250 N   0  0  0  0  0  0  0  0  0  0  0  0
  138.5950   68.6680  224.4950 C   0  0  0  0  0  0  0  0  0  0  0  0
  139.2010   67.7780  225.1590 O   0  0  0  0  0  0  0  0  0  0  0  0
  137.7700   68.3960  223.3110 C   0  0  2  0  0  0  0  0  0  0  0  0
  138.3830   67.4630  222.3130 C   0  0  0  0  0  0  0  0  0  0  0  0
  138.4260   68.2710  221.0290 C   0  0  0  0  0  0  0  0  0  0  0  0
  138.5190   69.6870  221.6090 C   0  0  0  0  0  0  0  0  0  0  0  0
  137.4450   69.6440  222.5700 N   0  0  0  0  0  0  0  0  0  0  0  0
  136.3200   70.4070  222.8740 C   0  0  0  0  0  0  0  0  0  0  0  0
  135.5070   69.8690  223.7370 O   0  0  0  0  0  0  0  0  0  0  0  0
  135.8740   71.7140  222.4080 C   0  0  0  0  0  0  0  0  0  0  0  0
  136.7150   72.8330  222.6850 N   0  0  0  0  0  0  0  0  0  0  0  0
  137.6330   73.2260  221.6360 C   0  0  0  0  0  0  0  0  0  0  0  0
  137.5890   72.5410  220.5970 O   0  0  0  0  0  0  0  0  0  0  0  0
  138.5270   74.3590  221.8400 C   0  0  0  0  0  0  0  0  0  0  0  0
  139.8610   74.1740  221.5420 C   0  0  0  0  0  0  0  0  0  0  0  0
  140.7710   75.2230  221.7170 C   0  0  0  0  0  0  0  0  0  0  0  0
  140.2710   76.4300  222.1960 C   0  0  0  0  0  0  0  0  0  0  0  0
  141.0900   77.5300  222.4040 C   0  0  0  0  0  0  0  0  0  0  0  0
  140.6120   78.7350  222.8770 C   0  0  0  0  0  0  0  0  0  0  0  0
  141.6840   80.1110  223.1290 Cl  0  0  0  0  0  0  0  0  0  0  0  0
  139.2500   78.8680  223.1650 C   0  0  0  0  0  0  0  0  0  0  0  0
  138.4070   77.7840  222.9660 C   0  0  0  0  0  0  0  0  0  0  0  0
  138.9210   76.5940  222.4900 C   0  0  0  0  0  0  0  0  0  0  0  0
  138.0890   75.5560  222.3050 N   0  0  0  0  0  0  0  0  0  0  0  0
  141.0539   70.5275  223.8022 H   0  0  0  0  0  0  0  0  0  0  0  0
  139.7252   71.4752  223.0517 H   0  0  0  0  0  0  0  0  0  0  0  0
  141.4010   72.1222  223.0517 H   0  0  0  0  0  0  0  0  0  0  0  0
  141.8558   72.5095  227.0961 H   0  0  0  0  0  0  0  0  0  0  0  0
  141.7392   71.0937  229.0871 H   0  0  0  0  0  0  0  0  0  0  0  0
  140.2161   69.1374  229.2139 H   0  0  0  0  0  0  0  0  0  0  0  0
  138.7772   68.6302  227.2271 H   0  0  0  0  0  0  0  0  0  0  0  0
  138.2310   70.7890  224.3930 H   0  0  0  0  0  0  0  0  0  0  0  0
  136.8751   67.9190  223.7371 H   0  0  0  0  0  0  0  0  0  0  0  0
  139.3965   67.1696  222.6239 H   0  0  0  0  0  0  0  0  0  0  0  0
  137.8143   66.5277  222.2045 H   0  0  0  0  0  0  0  0  0  0  0  0
  139.3064   68.0212  220.4187 H   0  0  0  0  0  0  0  0  0  0  0  0
  137.5787   68.1040  220.3477 H   0  0  0  0  0  0  0  0  0  0  0  0
  139.4907   69.8655  222.0926 H   0  0  0  0  0  0  0  0  0  0  0  0
  138.4396   70.4945  220.8662 H   0  0  0  0  0  0  0  0  0  0  0  0
  135.7563   71.6522  221.3161 H   0  0  0  0  0  0  0  0  0  0  0  0
  134.9492   71.9119  222.9697 H   0  0  0  0  0  0  0  0  0  0  0  0
  136.7130   73.3840  223.5850 H   0  0  0  0  0  0  0  0  0  0  0  0
  140.2101   73.2009  221.1664 H   0  0  0  0  0  0  0  0  0  0  0  0
  141.8390   75.0982  221.4851 H   0  0  0  0  0  0  0  0  0  0  0  0
  142.1636   77.4381  222.1830 H   0  0  0  0  0  0  0  0  0  0  0  0
  138.8518   79.8205  223.5447 H   0  0  0  0  0  0  0  0  0  0  0  0
  137.3330   77.8723  223.1867 H   0  0  0  0  0  0  0  0  0  0  0  0
  1  2  1  0
  2  3  1  0
  3  4  2  0
  4  5  1  0
  5  6  2  0
  6  7  1  0
  7  8  2  0
  8  9  1  0
  9 10  1  0
 10 11  2  0
 10 12  1  0
 12 13  1  0
 13 14  1  0
 14 15  1  0
 15 16  1  0
 16 17  1  0
 17 18  2  0
 17 19  1  0
 19 20  1  0
 20 21  1  0
 21 22  2  0
 21 23  1  0
 23 24  2  0
 24 25  1  0
 25 26  2  0
 26 27  1  0
 27 28  2  0
 28 29  1  0
 28 30  1  0
 30 31  2  0
 31 32  1  0
 32 33  2  0
  8  3  1  0
 16 12  1  0
 33 23  1  0
 32 26  1  0
  1 34  1  0
  1 35  1  0
  1 36  1  0
  4 37  1  0
  5 38  1  0
  6 39  1  0
  7 40  1  0
  9 41  1  0
 12 42  1  1
 13 43  1  0
 13 44  1  0
 14 45  1  0
 14 46  1  0
 15 47  1  0
 15 48  1  0
 19 49  1  0
 19 50  1  0
 20 51  1  0
 24 52  1  0
 25 53  1  0
 27 54  1  0
 30 55  1  0
 31 56  1  0
M  END
>  <smiles>  (39) 
COc1ccccc1NC(=O)[C@@H]1CCCN1C(=O)CNC(=O)c1ccc2cc(Cl)ccc2n1

>  <score_type>  (39) 
oracle

>  <origin>  (39) 
autodockgpu

>  <m_score__min__energy>  (39) 
-9

>  <m_primary>  (39) 
energy

>  <rmsd>  (39) 
8.94217625650448

>  <m_score__min__rmsd>  (39) 
8.94217625650448

>  <meeko>  (39) 
{"free_energy": -7.78, "intermolecular_energy": -9.87, "internal_energy": -2.52, "cluster_size": 6, "cluster_id": 3, "rank_in_cluster": 3}

>  <energy>  (39) 
-7.52

>  <cluster_rmsd>  (39) 
0.53

>  <cluster>  (39) 
3

$$$$

     RDKit          3D

 56 59  0  0  0  0  0  0  0  0999 V2000
  142.0090   78.9100  219.0090 C   0  0  0  0  0  0  0  0  0  0  0  0
  140.9500   79.1430  219.9020 O   0  0  0  0  0  0  0  0  0  0  0  0
  141.2530   79.5660  221.1940 C   0  0  0  0  0  0  0  0  0  0  0  0
  141.3120   80.9010  221.5450 C   0  0  0  0  0  0  0  0  0  0  0  0
  141.6150   81.2750  222.8330 C   0  0  0  0  0  0  0  0  0  0  0  0
  141.8740   80.3590  223.8320 C   0  0  0  0  0  0  0  0  0  0  0  0
  141.8170   79.0160  223.4900 C   0  0  0  0  0  0  0  0  0  0  0  0
  141.5120   78.6310  222.1940 C   0  0  0  0  0  0  0  0  0  0  0  0
  141.4460   77.2580  221.8120 N   0  0  0  0  0  0  0  0  0  0  0  0
  140.2190   76.5540  222.0730 C   0  0  0  0  0  0  0  0  0  0  0  0
  139.2760   77.1920  222.6240 O   0  0  0  0  0  0  0  0  0  0  0  0
  140.1430   75.1400  221.6820 C   0  0  2  0  0  0  0  0  0  0  0  0
  141.4660   74.4630  221.5020 C   0  0  0  0  0  0  0  0  0  0  0  0
  141.4340   73.9650  220.0680 C   0  0  0  0  0  0  0  0  0  0  0  0
  140.4860   74.9990  219.4490 C   0  0  0  0  0  0  0  0  0  0  0  0
  139.4050   74.9630  220.4030 N   0  0  0  0  0  0  0  0  0  0  0  0
  138.0240   74.7910  220.3690 C   0  0  0  0  0  0  0  0  0  0  0  0
  137.3800   75.6430  219.6230 O   0  0  0  0  0  0  0  0  0  0  0  0
  137.1470   73.8220  221.0140 C   0  0  0  0  0  0  0  0  0  0  0  0
  137.6480   73.1460  222.1660 N   0  0  0  0  0  0  0  0  0  0  0  0
  137.8470   71.7170  222.0400 C   0  0  0  0  0  0  0  0  0  0  0  0
  137.5590   71.2280  220.9320 O   0  0  0  0  0  0  0  0  0  0  0  0
  138.3560   70.9510  223.1720 C   0  0  0  0  0  0  0  0  0  0  0  0
  137.9890   69.6240  223.2540 C   0  0  0  0  0  0  0  0  0  0  0  0
  138.4430   68.8350  224.3170 C   0  0  0  0  0  0  0  0  0  0  0  0
  139.2630   69.4450  225.2620 C   0  0  0  0  0  0  0  0  0  0  0  0
  139.7640   68.7500  226.3520 C   0  0  0  0  0  0  0  0  0  0  0  0
  140.5790   69.3390  227.2990 C   0  0  0  0  0  0  0  0  0  0  0  0
  141.1980   68.4240  228.6710 Cl  0  0  0  0  0  0  0  0  0  0  0  0
  140.9200   70.6890  227.1670 C   0  0  0  0  0  0  0  0  0  0  0  0
  140.4310   71.4080  226.0860 C   0  0  0  0  0  0  0  0  0  0  0  0
  139.6200   70.7860  225.1580 C   0  0  0  0  0  0  0  0  0  0  0  0
  139.1570   71.5000  224.1190 N   0  0  0  0  0  0  0  0  0  0  0  0
  142.9293   78.7075  219.5765 H   0  0  0  0  0  0  0  0  0  0  0  0
  141.7705   78.0429  218.3756 H   0  0  0  0  0  0  0  0  0  0  0  0
  142.1565   79.7972  218.3756 H   0  0  0  0  0  0  0  0  0  0  0  0
  141.1145   81.6726  220.7863 H   0  0  0  0  0  0  0  0  0  0  0  0
  141.6524   82.3470  223.0767 H   0  0  0  0  0  0  0  0  0  0  0  0
  142.1154   80.6802  224.8560 H   0  0  0  0  0  0  0  0  0  0  0  0
  142.0156   78.2499  224.2540 H   0  0  0  0  0  0  0  0  0  0  0  0
  142.2410   76.7530  221.3570 H   0  0  0  0  0  0  0  0  0  0  0  0
  139.6208   74.6748  222.5310 H   0  0  0  0  0  0  0  0  0  0  0  0
  142.2921   75.1741  221.6503 H   0  0  0  0  0  0  0  0  0  0  0  0
  141.6279   73.6521  222.2274 H   0  0  0  0  0  0  0  0  0  0  0  0
  142.4305   73.9947  219.6031 H   0  0  0  0  0  0  0  0  0  0  0  0
  141.1199   72.9177  219.9478 H   0  0  0  0  0  0  0  0  0  0  0  0
  140.9491   75.9954  219.3965 H   0  0  0  0  0  0  0  0  0  0  0  0
  140.1903   74.7883  218.4107 H   0  0  0  0  0  0  0  0  0  0  0  0
  136.2329   74.3543  221.3157 H   0  0  0  0  0  0  0  0  0  0  0  0
  137.0040   73.0301  220.2640 H   0  0  0  0  0  0  0  0  0  0  0  0
  137.8800   73.6070  223.0870 H   0  0  0  0  0  0  0  0  0  0  0  0
  137.3386   69.1853  222.4829 H   0  0  0  0  0  0  0  0  0  0  0  0
  138.1629   67.7747  224.4024 H   0  0  0  0  0  0  0  0  0  0  0  0
  139.5022   67.6878  226.4672 H   0  0  0  0  0  0  0  0  0  0  0  0
  141.5681   71.1748  227.9113 H   0  0  0  0  0  0  0  0  0  0  0  0
  140.6888   72.4709  225.9686 H   0  0  0  0  0  0  0  0  0  0  0  0
  1  2  1  0
  2  3  1  0
  3  4  2  0
  4  5  1  0
  5  6  2  0
  6  7  1  0
  7  8  2  0
  8  9  1  0
  9 10  1  0
 10 11  2  0
 10 12  1  0
 12 13  1  0
 13 14  1  0
 14 15  1  0
 15 16  1  0
 16 17  1  0
 17 18  2  0
 17 19  1  0
 19 20  1  0
 20 21  1  0
 21 22  2  0
 21 23  1  0
 23 24  2  0
 24 25  1  0
 25 26  2  0
 26 27  1  0
 27 28  2  0
 28 29  1  0
 28 30  1  0
 30 31  2  0
 31 32  1  0
 32 33  2  0
  8  3  1  0
 16 12  1  0
 33 23  1  0
 32 26  1  0
  1 34  1  0
  1 35  1  0
  1 36  1  0
  4 37  1  0
  5 38  1  0
  6 39  1  0
  7 40  1  0
  9 41  1  0
 12 42  1  1
 13 43  1  0
 13 44  1  0
 14 45  1  0
 14 46  1  0
 15 47  1  0
 15 48  1  0
 19 49  1  0
 19 50  1  0
 20 51  1  0
 24 52  1  0
 25 53  1  0
 27 54  1  0
 30 55  1  0
 31 56  1  0
M  END
>  <smiles>  (40) 
COc1ccccc1NC(=O)[C@@H]1CCCN1C(=O)CNC(=O)c1ccc2cc(Cl)ccc2n1

>  <score_type>  (40) 
oracle

>  <origin>  (40) 
autodockgpu

>  <m_score__min__energy>  (40) 
-9

>  <m_primary>  (40) 
energy

>  <rmsd>  (40) 
2.300347206049913

>  <m_score__min__rmsd>  (40) 
2.300347206049913

>  <meeko>  (40) 
{"free_energy": -8.25, "intermolecular_energy": -10.33, "internal_energy": -2.36, "cluster_size": 24, "cluster_id": 1, "rank_in_cluster": 3}

>  <energy>  (40) 
-6.82

>  <cluster_rmsd>  (40) 
1.98

>  <cluster>  (40) 
3

$$$$

     RDKit          3D

 56 59  0  0  0  0  0  0  0  0999 V2000
  138.6160   78.3500  217.9680 C   0  0  0  0  0  0  0  0  0  0  0  0
  138.5630   77.3320  218.9340 O   0  0  0  0  0  0  0  0  0  0  0  0
  138.5620   77.6930  220.2790 C   0  0  0  0  0  0  0  0  0  0  0  0
  138.4240   79.0030  220.6970 C   0  0  0  0  0  0  0  0  0  0  0  0
  138.4270   79.3160  222.0350 C   0  0  0  0  0  0  0  0  0  0  0  0
  138.5660   78.3620  223.0230 C   0  0  0  0  0  0  0  0  0  0  0  0
  138.7060   77.0440  222.6130 C   0  0  0  0  0  0  0  0  0  0  0  0
  138.7030   76.7200  221.2660 C   0  0  0  0  0  0  0  0  0  0  0  0
  138.8440   75.3730  220.8140 N   0  0  0  0  0  0  0  0  0  0  0  0
  139.9650   74.6210  221.3110 C   0  0  0  0  0  0  0  0  0  0  0  0
  140.7550   75.1950  222.1140 O   0  0  0  0  0  0  0  0  0  0  0  0
  140.1180   73.2340  220.8510 C   0  0  2  0  0  0  0  0  0  0  0  0
  138.9350   72.3510  221.1020 C   0  0  0  0  0  0  0  0  0  0  0  0
  139.4910   71.2190  221.9470 C   0  0  0  0  0  0  0  0  0  0  0  0
  140.6520   71.9470  222.6360 C   0  0  0  0  0  0  0  0  0  0  0  0
  141.2810   72.5670  221.4960 N   0  0  0  0  0  0  0  0  0  0  0  0
  142.5590   72.6290  220.9480 C   0  0  0  0  0  0  0  0  0  0  0  0
  143.3150   71.5970  221.1940 O   0  0  0  0  0  0  0  0  0  0  0  0
  143.2230   73.6400  220.1350 C   0  0  0  0  0  0  0  0  0  0  0  0
  142.8770   75.0050  220.3710 N   0  0  0  0  0  0  0  0  0  0  0  0
  142.7060   75.8390  219.1990 C   0  0  0  0  0  0  0  0  0  0  0  0
  142.8780   75.2720  218.1040 O   0  0  0  0  0  0  0  0  0  0  0  0
  142.3530   77.2450  219.3540 C   0  0  0  0  0  0  0  0  0  0  0  0
  142.2340   77.9980  218.2040 C   0  0  0  0  0  0  0  0  0  0  0  0
  141.8980   79.3540  218.2860 C   0  0  0  0  0  0  0  0  0  0  0  0
  141.6980   79.8890  219.5550 C   0  0  0  0  0  0  0  0  0  0  0  0
  141.3630   81.2210  219.7420 C   0  0  0  0  0  0  0  0  0  0  0  0
  141.1600   81.7690  220.9930 C   0  0  0  0  0  0  0  0  0  0  0  0
  140.7360   83.4670  221.1920 Cl  0  0  0  0  0  0  0  0  0  0  0  0
  141.2950   80.9600  222.1270 C   0  0  0  0  0  0  0  0  0  0  0  0
  141.6310   79.6230  221.9680 C   0  0  0  0  0  0  0  0  0  0  0  0
  141.8250   79.1100  220.7010 C   0  0  0  0  0  0  0  0  0  0  0  0
  142.1490   77.8130  220.5690 N   0  0  0  0  0  0  0  0  0  0  0  0
  138.6669   79.3282  218.4686 H   0  0  0  0  0  0  0  0  0  0  0  0
  139.5082   78.2129  217.3394 H   0  0  0  0  0  0  0  0  0  0  0  0
  137.7144   78.3063  217.3394 H   0  0  0  0  0  0  0  0  0  0  0  0
  138.3106   79.8034  219.9510 H   0  0  0  0  0  0  0  0  0  0  0  0
  138.3141   80.3695  222.3308 H   0  0  0  0  0  0  0  0  0  0  0  0
  138.5658   78.6348  224.0886 H   0  0  0  0  0  0  0  0  0  0  0  0
  138.8204   76.2488  223.3644 H   0  0  0  0  0  0  0  0  0  0  0  0
  138.1760   74.9210  220.1490 H   0  0  0  0  0  0  0  0  0  0  0  0
  140.2516   73.3457  219.7649 H   0  0  0  0  0  0  0  0  0  0  0  0
  138.1497   72.8956  221.6467 H   0  0  0  0  0  0  0  0  0  0  0  0
  138.4694   71.9941  220.1715 H   0  0  0  0  0  0  0  0  0  0  0  0
  138.7516   70.8505  222.6733 H   0  0  0  0  0  0  0  0  0  0  0  0
  139.7774   70.3182  221.3844 H   0  0  0  0  0  0  0  0  0  0  0  0
  140.2921   72.6943  223.3586 H   0  0  0  0  0  0  0  0  0  0  0  0
  141.3131   71.2994  223.2307 H   0  0  0  0  0  0  0  0  0  0  0  0
  144.3054   73.5402  220.3037 H   0  0  0  0  0  0  0  0  0  0  0  0
  142.8875   73.4387  219.1069 H   0  0  0  0  0  0  0  0  0  0  0  0
  142.7400   75.4390  221.3230 H   0  0  0  0  0  0  0  0  0  0  0  0
  142.4033   77.5321  217.2220 H   0  0  0  0  0  0  0  0  0  0  0  0
  141.7959   79.9730  217.3824 H   0  0  0  0  0  0  0  0  0  0  0  0
  141.2546   81.8673  218.8585 H   0  0  0  0  0  0  0  0  0  0  0  0
  141.1367   81.3787  223.1318 H   0  0  0  0  0  0  0  0  0  0  0  0
  141.7424   78.9738  222.8490 H   0  0  0  0  0  0  0  0  0  0  0  0
  1  2  1  0
  2  3  1  0
  3  4  2  0
  4  5  1  0
  5  6  2  0
  6  7  1  0
  7  8  2  0
  8  9  1  0
  9 10  1  0
 10 11  2  0
 10 12  1  0
 12 13  1  0
 13 14  1  0
 14 15  1  0
 15 16  1  0
 16 17  1  0
 17 18  2  0
 17 19  1  0
 19 20  1  0
 20 21  1  0
 21 22  2  0
 21 23  1  0
 23 24  2  0
 24 25  1  0
 25 26  2  0
 26 27  1  0
 27 28  2  0
 28 29  1  0
 28 30  1  0
 30 31  2  0
 31 32  1  0
 32 33  2  0
  8  3  1  0
 16 12  1  0
 33 23  1  0
 32 26  1  0
  1 34  1  0
  1 35  1  0
  1 36  1  0
  4 37  1  0
  5 38  1  0
  6 39  1  0
  7 40  1  0
  9 41  1  0
 12 42  1  6
 13 43  1  0
 13 44  1  0
 14 45  1  0
 14 46  1  0
 15 47  1  0
 15 48  1  0
 19 49  1  0
 19 50  1  0
 20 51  1  0
 24 52  1  0
 25 53  1  0
 27 54  1  0
 30 55  1  0
 31 56  1  0
M  END
>  <smiles>  (41) 
COc1ccccc1NC(=O)[C@@H]1CCCN1C(=O)CNC(=O)c1ccc2cc(Cl)ccc2n1

>  <score_type>  (41) 
oracle

>  <origin>  (41) 
autodockgpu

>  <m_score__min__energy>  (41) 
-9

>  <m_primary>  (41) 
energy

>  <rmsd>  (41) 
7.862281055016534

>  <m_score__min__rmsd>  (41) 
7.862281055016534

>  <meeko>  (41) 
{"free_energy": -5.28, "intermolecular_energy": -7.37, "internal_energy": -4.56, "cluster_size": 1, "cluster_id": 10, "rank_in_cluster": 1}

>  <energy>  (41) 
-8.11

>  <cluster_rmsd>  (41) 
0.0

>  <cluster>  (41) 
4

$$$$

     RDKit          3D

 56 59  0  0  0  0  0  0  0  0999 V2000
  140.3890   71.3110  223.2070 C   0  0  0  0  0  0  0  0  0  0  0  0
  140.0540   71.8900  224.4420 O   0  0  0  0  0  0  0  0  0  0  0  0
  140.1140   71.0970  225.5840 C   0  0  0  0  0  0  0  0  0  0  0  0
  141.0390   71.3090  226.5890 C   0  0  0  0  0  0  0  0  0  0  0  0
  141.0640   70.5010  227.7020 C   0  0  0  0  0  0  0  0  0  0  0  0
  140.1860   69.4510  227.8790 C   0  0  0  0  0  0  0  0  0  0  0  0
  139.2540   69.2300  226.8750 C   0  0  0  0  0  0  0  0  0  0  0  0
  139.2220   70.0390  225.7510 C   0  0  0  0  0  0  0  0  0  0  0  0
  138.2750   69.8370  224.7030 N   0  0  0  0  0  0  0  0  0  0  0  0
  138.2930   68.5660  224.0290 C   0  0  0  0  0  0  0  0  0  0  0  0
  139.1440   67.7090  224.4030 O   0  0  0  0  0  0  0  0  0  0  0  0
  137.3220   68.3490  222.9480 C   0  0  2  0  0  0  0  0  0  0  0  0
  137.7970   68.7420  221.5840 C   0  0  0  0  0  0  0  0  0  0  0  0
  136.7790   69.7690  221.1200 C   0  0  0  0  0  0  0  0  0  0  0  0
  136.3290   70.3280  222.4760 C   0  0  0  0  0  0  0  0  0  0  0  0
  136.0610   69.1010  223.1850 N   0  0  0  0  0  0  0  0  0  0  0  0
  135.0050   68.5550  223.9090 C   0  0  0  0  0  0  0  0  0  0  0  0
  134.1230   67.9120  223.1980 O   0  0  0  0  0  0  0  0  0  0  0  0
  134.6950   68.5600  225.3330 C   0  0  0  0  0  0  0  0  0  0  0  0
  133.9140   69.6450  225.8330 N   0  0  0  0  0  0  0  0  0  0  0  0
  134.4960   70.9660  225.7160 C   0  0  0  0  0  0  0  0  0  0  0  0
  135.6220   71.0140  225.1880 O   0  0  0  0  0  0  0  0  0  0  0  0
  133.7630   72.1280  226.2040 C   0  0  0  0  0  0  0  0  0  0  0  0
  132.5770   71.8950  226.8690 C   0  0  0  0  0  0  0  0  0  0  0  0
  131.8270   72.9690  227.3600 C   0  0  0  0  0  0  0  0  0  0  0  0
  132.3260   74.2500  227.1480 C   0  0  0  0  0  0  0  0  0  0  0  0
  131.6580   75.3790  227.5960 C   0  0  0  0  0  0  0  0  0  0  0  0
  132.1390   76.6580  227.3950 C   0  0  0  0  0  0  0  0  0  0  0  0
  131.2610   78.0690  227.9780 Cl  0  0  0  0  0  0  0  0  0  0  0  0
  133.3470   76.8370  226.7140 C   0  0  0  0  0  0  0  0  0  0  0  0
  134.0370   75.7240  226.2540 C   0  0  0  0  0  0  0  0  0  0  0  0
  133.5260   74.4610  226.4740 C   0  0  0  0  0  0  0  0  0  0  0  0
  134.2090   73.3970  226.0220 N   0  0  0  0  0  0  0  0  0  0  0  0
  140.9332   70.3705  223.3785 H   0  0  0  0  0  0  0  0  0  0  0  0
  139.4707   71.1047  222.6376 H   0  0  0  0  0  0  0  0  0  0  0  0
  141.0255   72.0043  222.6376 H   0  0  0  0  0  0  0  0  0  0  0  0
  141.7627   72.1324  226.4978 H   0  0  0  0  0  0  0  0  0  0  0  0
  141.8137   70.6997  228.4821 H   0  0  0  0  0  0  0  0  0  0  0  0
  140.2234   68.8168  228.7770 H   0  0  0  0  0  0  0  0  0  0  0  0
  138.5336   68.4044  226.9726 H   0  0  0  0  0  0  0  0  0  0  0  0
  137.5810   70.5630  224.4120 H   0  0  0  0  0  0  0  0  0  0  0  0
  137.1671   67.2601  222.9671 H   0  0  0  0  0  0  0  0  0  0  0  0
  138.8032   69.1838  221.6330 H   0  0  0  0  0  0  0  0  0  0  0  0
  137.8737   67.8841  220.8998 H   0  0  0  0  0  0  0  0  0  0  0  0
  137.2394   70.5450  220.4908 H   0  0  0  0  0  0  0  0  0  0  0  0
  135.9696   69.3686  220.4918 H   0  0  0  0  0  0  0  0  0  0  0  0
  137.1257   70.9120  222.9600 H   0  0  0  0  0  0  0  0  0  0  0  0
  135.4803   71.0262  222.4273 H   0  0  0  0  0  0  0  0  0  0  0  0
  134.1490   67.6312  225.5547 H   0  0  0  0  0  0  0  0  0  0  0  0
  135.6699   68.6628  225.8320 H   0  0  0  0  0  0  0  0  0  0  0  0
  132.9600   69.5530  226.2730 H   0  0  0  0  0  0  0  0  0  0  0  0
  132.2209   70.8643  227.0132 H   0  0  0  0  0  0  0  0  0  0  0  0
  130.8788   72.8067  227.8934 H   0  0  0  0  0  0  0  0  0  0  0  0
  130.7066   75.2511  228.1331 H   0  0  0  0  0  0  0  0  0  0  0  0
  133.7458   77.8481  226.5448 H   0  0  0  0  0  0  0  0  0  0  0  0
  134.9882   75.8482  225.7157 H   0  0  0  0  0  0  0  0  0  0  0  0
  1  2  1  0
  2  3  1  0
  3  4  2  0
  4  5  1  0
  5  6  2  0
  6  7  1  0
  7  8  2  0
  8  9  1  0
  9 10  1  0
 10 11  2  0
 10 12  1  0
 12 13  1  0
 13 14  1  0
 14 15  1  0
 15 16  1  0
 16 17  1  0
 17 18  2  0
 17 19  1  0
 19 20  1  0
 20 21  1  0
 21 22  2  0
 21 23  1  0
 23 24  2  0
 24 25  1  0
 25 26  2  0
 26 27  1  0
 27 28  2  0
 28 29  1  0
 28 30  1  0
 30 31  2  0
 31 32  1  0
 32 33  2  0
  8  3  1  0
 16 12  1  0
 33 23  1  0
 32 26  1  0
  1 34  1  0
  1 35  1  0
  1 36  1  0
  4 37  1  0
  5 38  1  0
  6 39  1  0
  7 40  1  0
  9 41  1  0
 12 42  1  6
 13 43  1  0
 13 44  1  0
 14 45  1  0
 14 46  1  0
 15 47  1  0
 15 48  1  0
 19 49  1  0
 19 50  1  0
 20 51  1  0
 24 52  1  0
 25 53  1  0
 27 54  1  0
 30 55  1  0
 31 56  1  0
M  END
>  <smiles>  (42) 
COc1ccccc1NC(=O)[C@@H]1CCCN1C(=O)CNC(=O)c1ccc2cc(Cl)ccc2n1

>  <score_type>  (42) 
oracle

>  <origin>  (42) 
autodockgpu

>  <m_score__min__energy>  (42) 
-9

>  <m_primary>  (42) 
energy

>  <rmsd>  (42) 
9.554501196205278

>  <m_score__min__rmsd>  (42) 
9.554501196205278

>  <meeko>  (42) 
{"free_energy": -7.21, "intermolecular_energy": -9.29, "internal_energy": -2.85, "cluster_size": 2, "cluster_id": 6, "rank_in_cluster": 2}

>  <energy>  (42) 
-7.65

>  <cluster_rmsd>  (42) 
0.0

>  <cluster>  (42) 
5

$$$$

     RDKit          3D

 56 59  0  0  0  0  0  0  0  0999 V2000
  137.4260   76.1010  222.5920 C   0  0  0  0  0  0  0  0  0  0  0  0
  138.5550   76.5370  221.8780 O   0  0  0  0  0  0  0  0  0  0  0  0
  139.3120   77.5790  222.4080 C   0  0  0  0  0  0  0  0  0  0  0  0
  138.7520   78.7760  222.8110 C   0  0  0  0  0  0  0  0  0  0  0  0
  139.5360   79.7790  223.3290 C   0  0  0  0  0  0  0  0  0  0  0  0
  140.9030   79.6540  223.4750 C   0  0  0  0  0  0  0  0  0  0  0  0
  141.4760   78.4560  223.0730 C   0  0  0  0  0  0  0  0  0  0  0  0
  140.6910   77.4400  222.5500 C   0  0  0  0  0  0  0  0  0  0  0  0
  141.2510   76.1970  222.1280 N   0  0  0  0  0  0  0  0  0  0  0  0
  141.6860   76.0950  220.7610 C   0  0  0  0  0  0  0  0  0  0  0  0
  141.5460   77.1080  220.0170 O   0  0  0  0  0  0  0  0  0  0  0  0
  142.2630   74.8190  220.3180 C   0  0  2  0  0  0  0  0  0  0  0  0
  143.7540   74.8160  220.1730 C   0  0  0  0  0  0  0  0  0  0  0  0
  143.9830   74.4310  218.7230 C   0  0  0  0  0  0  0  0  0  0  0  0
  142.6870   74.9600  218.0990 C   0  0  0  0  0  0  0  0  0  0  0  0
  141.7150   74.3950  219.0020 N   0  0  0  0  0  0  0  0  0  0  0  0
  140.5600   73.6240  218.9020 C   0  0  0  0  0  0  0  0  0  0  0  0
  140.4550   72.9290  217.8060 O   0  0  0  0  0  0  0  0  0  0  0  0
  139.4310   73.4390  219.8040 C   0  0  0  0  0  0  0  0  0  0  0  0
  139.5360   72.4090  220.7860 N   0  0  0  0  0  0  0  0  0  0  0  0
  139.6760   72.8400  222.1610 C   0  0  0  0  0  0  0  0  0  0  0  0
  139.6890   74.0720  222.3420 O   0  0  0  0  0  0  0  0  0  0  0  0
  139.7900   71.8500  223.2260 C   0  0  0  0  0  0  0  0  0  0  0  0
  139.3350   70.5760  222.9560 C   0  0  0  0  0  0  0  0  0  0  0  0
  139.4160   69.5800  223.9350 C   0  0  0  0  0  0  0  0  0  0  0  0
  139.9650   69.9340  225.1640 C   0  0  0  0  0  0  0  0  0  0  0  0
  140.0890   69.0210  226.2000 C   0  0  0  0  0  0  0  0  0  0  0  0
  140.6310   69.3540  227.4250 C   0  0  0  0  0  0  0  0  0  0  0  0
  140.7720   68.1660  228.7180 Cl  0  0  0  0  0  0  0  0  0  0  0  0
  141.0770   70.6610  227.6460 C   0  0  0  0  0  0  0  0  0  0  0  0
  140.9640   71.5960  226.6270 C   0  0  0  0  0  0  0  0  0  0  0  0
  140.4170   71.2260  225.4140 C   0  0  0  0  0  0  0  0  0  0  0  0
  140.3170   72.1450  224.4400 N   0  0  0  0  0  0  0  0  0  0  0  0
  137.6230   76.1771  223.6715 H   0  0  0  0  0  0  0  0  0  0  0  0
  136.5620   76.7301  222.3317 H   0  0  0  0  0  0  0  0  0  0  0  0
  137.2092   75.0545  222.3317 H   0  0  0  0  0  0  0  0  0  0  0  0
  137.6667   78.9280  222.7162 H   0  0  0  0  0  0  0  0  0  0  0  0
  139.0552   80.7184  223.6395 H   0  0  0  0  0  0  0  0  0  0  0  0
  141.5121   80.4694  223.8923 H   0  0  0  0  0  0  0  0  0  0  0  0
  142.5621   78.3112  223.1701 H   0  0  0  0  0  0  0  0  0  0  0  0
  141.3570   75.3730  222.7640 H   0  0  0  0  0  0  0  0  0  0  0  0
  141.9847   74.1273  221.1267 H   0  0  0  0  0  0  0  0  0  0  0  0
  144.1689   75.8129  220.3827 H   0  0  0  0  0  0  0  0  0  0  0  0
  144.2456   74.1273  220.8758 H   0  0  0  0  0  0  0  0  0  0  0  0
  144.8703   74.9280  218.3040 H   0  0  0  0  0  0  0  0  0  0  0  0
  144.1762   73.3616  218.5527 H   0  0  0  0  0  0  0  0  0  0  0  0
  142.6536   76.0595  218.1015 H   0  0  0  0  0  0  0  0  0  0  0  0
  142.5429   74.6920  217.0419 H   0  0  0  0  0  0  0  0  0  0  0  0
  139.2759   74.3885  220.3373 H   0  0  0  0  0  0  0  0  0  0  0  0
  138.6010   73.1242  219.1543 H   0  0  0  0  0  0  0  0  0  0  0  0
  139.5180   71.3730  220.5830 H   0  0  0  0  0  0  0  0  0  0  0  0
  138.9079   70.3429  221.9695 H   0  0  0  0  0  0  0  0  0  0  0  0
  139.0599   68.5575  223.7411 H   0  0  0  0  0  0  0  0  0  0  0  0
  139.7415   67.9898  226.0393 H   0  0  0  0  0  0  0  0  0  0  0  0
  141.5120   70.9443  228.6158 H   0  0  0  0  0  0  0  0  0  0  0  0
  141.3090   72.6285  226.7848 H   0  0  0  0  0  0  0  0  0  0  0  0
  1  2  1  0
  2  3  1  0
  3  4  2  0
  4  5  1  0
  5  6  2  0
  6  7  1  0
  7  8  2  0
  8  9  1  0
  9 10  1  0
 10 11  2  0
 10 12  1  0
 12 13  1  0
 13 14  1  0
 14 15  1  0
 15 16  1  0
 16 17  1  0
 17 18  2  0
 17 19  1  0
 19 20  1  0
 20 21  1  0
 21 22  2  0
 21 23  1  0
 23 24  2  0
 24 25  1  0
 25 26  2  0
 26 27  1  0
 27 28  2  0
 28 29  1  0
 28 30  1  0
 30 31  2  0
 31 32  1  0
 32 33  2  0
  8  3  1  0
 16 12  1  0
 33 23  1  0
 32 26  1  0
  1 34  1  0
  1 35  1  0
  1 36  1  0
  4 37  1  0
  5 38  1  0
  6 39  1  0
  7 40  1  0
  9 41  1  0
 12 42  1  1
 13 43  1  0
 13 44  1  0
 14 45  1  0
 14 46  1  0
 15 47  1  0
 15 48  1  0
 19 49  1  0
 19 50  1  0
 20 51  1  0
 24 52  1  0
 25 53  1  0
 27 54  1  0
 30 55  1  0
 31 56  1  0
M  END
>  <smiles>  (43) 
COc1ccccc1NC(=O)[C@@H]1CCCN1C(=O)CNC(=O)c1ccc2cc(Cl)ccc2n1

>  <score_type>  (43) 
oracle

>  <origin>  (43) 
autodockgpu

>  <m_score__min__energy>  (43) 
-9

>  <m_primary>  (43) 
energy

>  <rmsd>  (43) 
2.9609196729212113

>  <m_score__min__rmsd>  (43) 
2.9609196729212113

>  <meeko>  (43) 
{"free_energy": -7.83, "intermolecular_energy": -9.92, "internal_energy": -2.89, "cluster_size": 24, "cluster_id": 1, "rank_in_cluster": 16}

>  <energy>  (43) 
-7.24

>  <cluster_rmsd>  (43) 
0.0

>  <cluster>  (43) 
6

$$$$

     RDKit          3D

 56 59  0  0  0  0  0  0  0  0999 V2000
  141.9060   70.9450  219.9710 C   0  0  0  0  0  0  0  0  0  0  0  0
  142.1890   72.2420  220.4300 O   0  0  0  0  0  0  0  0  0  0  0  0
  143.5050   72.6930  220.3710 C   0  0  0  0  0  0  0  0  0  0  0  0
  144.5740   71.8430  220.1550 C   0  0  0  0  0  0  0  0  0  0  0  0
  145.8580   72.3300  220.1040 C   0  0  0  0  0  0  0  0  0  0  0  0
  146.1530   73.6690  220.2620 C   0  0  0  0  0  0  0  0  0  0  0  0
  145.0870   74.5300  220.4810 C   0  0  0  0  0  0  0  0  0  0  0  0
  143.7900   74.0470  220.5330 C   0  0  0  0  0  0  0  0  0  0  0  0
  142.6730   74.9080  220.7550 N   0  0  0  0  0  0  0  0  0  0  0  0
  142.6130   76.1270  219.9940 C   0  0  0  0  0  0  0  0  0  0  0  0
  143.5500   76.3620  219.1770 O   0  0  0  0  0  0  0  0  0  0  0  0
  141.4670   77.0190  220.2160 C   0  0  2  0  0  0  0  0  0  0  0  0
  141.7880   78.2910  220.9370 C   0  0  0  0  0  0  0  0  0  0  0  0
  140.8940   78.2560  222.1640 C   0  0  0  0  0  0  0  0  0  0  0  0
  140.7520   76.7400  222.3470 C   0  0  0  0  0  0  0  0  0  0  0  0
  140.3970   76.3510  221.0040 N   0  0  0  0  0  0  0  0  0  0  0  0
  139.3870   75.6120  220.3930 C   0  0  0  0  0  0  0  0  0  0  0  0
  138.4010   76.3160  219.9160 O   0  0  0  0  0  0  0  0  0  0  0  0
  139.2230   74.1800  220.1760 C   0  0  0  0  0  0  0  0  0  0  0  0
  139.6070   73.3060  221.2360 N   0  0  0  0  0  0  0  0  0  0  0  0
  138.5460   72.5440  221.8610 C   0  0  0  0  0  0  0  0  0  0  0  0
  137.4040   72.7340  221.4030 O   0  0  0  0  0  0  0  0  0  0  0  0
  138.8550   71.6280  222.9540 C   0  0  0  0  0  0  0  0  0  0  0  0
  138.1270   70.4590  223.0240 C   0  0  0  0  0  0  0  0  0  0  0  0
  138.3750   69.5390  224.0490 C   0  0  0  0  0  0  0  0  0  0  0  0
  139.3680   69.8590  224.9690 C   0  0  0  0  0  0  0  0  0  0  0  0
  139.6900   69.0140  226.0210 C   0  0  0  0  0  0  0  0  0  0  0  0
  140.6730   69.3140  226.9430 C   0  0  0  0  0  0  0  0  0  0  0  0
  141.0530   68.2160  228.2670 Cl  0  0  0  0  0  0  0  0  0  0  0  0
  141.3810   70.5150  226.8250 C   0  0  0  0  0  0  0  0  0  0  0  0
  141.0790   71.3790  225.7820 C   0  0  0  0  0  0  0  0  0  0  0  0
  140.0900   71.0450  224.8780 C   0  0  0  0  0  0  0  0  0  0  0  0
  139.8140   71.8940  223.8760 N   0  0  0  0  0  0  0  0  0  0  0  0
  141.7599   70.2753  220.8313 H   0  0  0  0  0  0  0  0  0  0  0  0
  140.9908   70.9634  219.3611 H   0  0  0  0  0  0  0  0  0  0  0  0
  142.7458   70.5805  219.3611 H   0  0  0  0  0  0  0  0  0  0  0  0
  144.3948   70.7658  220.0226 H   0  0  0  0  0  0  0  0  0  0  0  0
  146.6838   71.6244  219.9303 H   0  0  0  0  0  0  0  0  0  0  0  0
  147.1884   74.0377  220.2163 H   0  0  0  0  0  0  0  0  0  0  0  0
  145.2738   75.6058  220.6145 H   0  0  0  0  0  0  0  0  0  0  0  0
  141.9110   74.6900  221.4370 H   0  0  0  0  0  0  0  0  0  0  0  0
  141.1404   77.2642  219.1946 H   0  0  0  0  0  0  0  0  0  0  0  0
  142.8487   78.3186  221.2271 H   0  0  0  0  0  0  0  0  0  0  0  0
  141.6185   79.1830  220.3160 H   0  0  0  0  0  0  0  0  0  0  0  0
  141.3748   78.7288  223.0330 H   0  0  0  0  0  0  0  0  0  0  0  0
  139.9442   78.8012  222.0608 H   0  0  0  0  0  0  0  0  0  0  0  0
  141.6974   76.2784  222.6681 H   0  0  0  0  0  0  0  0  0  0  0  0
  140.0319   76.4348  223.1205 H   0  0  0  0  0  0  0  0  0  0  0  0
  138.1583   73.9979  219.9678 H   0  0  0  0  0  0  0  0  0  0  0  0
  139.9107   73.9404  219.3516 H   0  0  0  0  0  0  0  0  0  0  0  0
  140.5930   73.1780  221.5900 H   0  0  0  0  0  0  0  0  0  0  0  0
  137.3506   70.2494  222.2735 H   0  0  0  0  0  0  0  0  0  0  0  0
  137.8071   68.5999  224.1241 H   0  0  0  0  0  0  0  0  0  0  0  0
  139.1401   68.0670  226.1248 H   0  0  0  0  0  0  0  0  0  0  0  0
  142.1674   70.7712  227.5502 H   0  0  0  0  0  0  0  0  0  0  0  0
  141.6260   72.3274  225.6756 H   0  0  0  0  0  0  0  0  0  0  0  0
  1  2  1  0
  2  3  1  0
  3  4  2  0
  4  5  1  0
  5  6  2  0
  6  7  1  0
  7  8  2  0
  8  9  1  0
  9 10  1  0
 10 11  2  0
 10 12  1  0
 12 13  1  0
 13 14  1  0
 14 15  1  0
 15 16  1  0
 16 17  1  0
 17 18  2  0
 17 19  1  0
 19 20  1  0
 20 21  1  0
 21 22  2  0
 21 23  1  0
 23 24  2  0
 24 25  1  0
 25 26  2  0
 26 27  1  0
 27 28  2  0
 28 29  1  0
 28 30  1  0
 30 31  2  0
 31 32  1  0
 32 33  2  0
  8  3  1  0
 16 12  1  0
 33 23  1  0
 32 26  1  0
  1 34  1  0
  1 35  1  0
  1 36  1  0
  4 37  1  0
  5 38  1  0
  6 39  1  0
  7 40  1  0
  9 41  1  0
 12 42  1  6
 13 43  1  0
 13 44  1  0
 14 45  1  0
 14 46  1  0
 15 47  1  0
 15 48  1  0
 19 49  1  0
 19 50  1  0
 20 51  1  0
 24 52  1  0
 25 53  1  0
 27 54  1  0
 30 55  1  0
 31 56  1  0
M  END
>  <smiles>  (44) 
COc1ccccc1NC(=O)[C@@H]1CCCN1C(=O)CNC(=O)c1ccc2cc(Cl)ccc2n1

>  <score_type>  (44) 
oracle

>  <origin>  (44) 
autodockgpu

>  <m_score__min__energy>  (44) 
-9

>  <m_primary>  (44) 
energy

>  <rmsd>  (44) 
4.888571339441365

>  <m_score__min__rmsd>  (44) 
4.888571339441365

>  <meeko>  (44) 
{"free_energy": -7.36, "intermolecular_energy": -9.45, "internal_energy": -3.13, "cluster_size": 10, "cluster_id": 2, "rank_in_cluster": 9}

>  <energy>  (44) 
-7.21

>  <cluster_rmsd>  (44) 
1.91

>  <cluster>  (44) 
6

$$$$

     RDKit          3D

 56 59  0  0  0  0  0  0  0  0999 V2000
  138.2860   77.2430  221.6620 C   0  0  0  0  0  0  0  0  0  0  0  0
  138.8720   77.6380  222.8770 O   0  0  0  0  0  0  0  0  0  0  0  0
  139.9010   78.5740  222.8420 C   0  0  0  0  0  0  0  0  0  0  0  0
  139.7140   79.8990  223.1880 C   0  0  0  0  0  0  0  0  0  0  0  0
  140.7590   80.7910  223.1410 C   0  0  0  0  0  0  0  0  0  0  0  0
  142.0320   80.4260  222.7510 C   0  0  0  0  0  0  0  0  0  0  0  0
  142.2300   79.0990  222.4010 C   0  0  0  0  0  0  0  0  0  0  0  0
  141.1820   78.1930  222.4470 C   0  0  0  0  0  0  0  0  0  0  0  0
  141.3550   76.8210  222.0930 N   0  0  0  0  0  0  0  0  0  0  0  0
  141.7930   76.5320  220.7540 C   0  0  0  0  0  0  0  0  0  0  0  0
  141.9960   77.5060  219.9730 O   0  0  0  0  0  0  0  0  0  0  0  0
  141.9740   75.1230  220.3810 C   0  0  2  0  0  0  0  0  0  0  0  0
  143.3830   74.6230  220.4650 C   0  0  0  0  0  0  0  0  0  0  0  0
  143.6860   74.1340  219.0600 C   0  0  0  0  0  0  0  0  0  0  0  0
  142.7480   75.0420  218.2550 C   0  0  0  0  0  0  0  0  0  0  0  0
  141.5200   74.8600  218.9890 N   0  0  0  0  0  0  0  0  0  0  0  0
  140.2030   74.5110  218.7000 C   0  0  0  0  0  0  0  0  0  0  0  0
  139.9250   74.4150  217.4310 O   0  0  0  0  0  0  0  0  0  0  0  0
  139.0610   74.2240  219.5570 C   0  0  0  0  0  0  0  0  0  0  0  0
  139.1440   73.0760  220.4020 N   0  0  0  0  0  0  0  0  0  0  0  0
  139.5670   73.3100  221.7670 C   0  0  0  0  0  0  0  0  0  0  0  0
  139.8130   74.4940  222.0610 O   0  0  0  0  0  0  0  0  0  0  0  0
  139.6800   72.1900  222.6950 C   0  0  0  0  0  0  0  0  0  0  0  0
  139.1030   70.9950  222.3170 C   0  0  0  0  0  0  0  0  0  0  0  0
  139.1750   69.8830  223.1630 C   0  0  0  0  0  0  0  0  0  0  0  0
  139.8420   70.0420  224.3740 C   0  0  0  0  0  0  0  0  0  0  0  0
  139.9680   69.0020  225.2810 C   0  0  0  0  0  0  0  0  0  0  0  0
  140.6260   69.1410  226.4870 C   0  0  0  0  0  0  0  0  0  0  0  0
  140.7660   67.7960  227.6160 Cl  0  0  0  0  0  0  0  0  0  0  0  0
  141.1920   70.3760  226.8210 C   0  0  0  0  0  0  0  0  0  0  0  0
  141.0800   71.4350  225.9320 C   0  0  0  0  0  0  0  0  0  0  0  0
  140.4160   71.2580  224.7340 C   0  0  0  0  0  0  0  0  0  0  0  0
  140.3180   72.2950  223.8870 N   0  0  0  0  0  0  0  0  0  0  0  0
  137.3898   76.6389  221.8665 H   0  0  0  0  0  0  0  0  0  0  0  0
  138.0028   78.1352  221.0843 H   0  0  0  0  0  0  0  0  0  0  0  0
  139.0068   76.6457  221.0843 H   0  0  0  0  0  0  0  0  0  0  0  0
  138.7184   80.2435  223.5044 H   0  0  0  0  0  0  0  0  0  0  0  0
  140.5734   81.8373  223.4255 H   0  0  0  0  0  0  0  0  0  0  0  0
  142.8539   81.1564  222.7193 H   0  0  0  0  0  0  0  0  0  0  0  0
  143.2280   78.7622  222.0839 H   0  0  0  0  0  0  0  0  0  0  0  0
  141.1810   76.0340  222.7590 H   0  0  0  0  0  0  0  0  0  0  0  0
  141.3644   74.5894  221.1251 H   0  0  0  0  0  0  0  0  0  0  0  0
  144.0686   75.4336  220.7528 H   0  0  0  0  0  0  0  0  0  0  0  0
  143.5072   73.8351  221.2225 H   0  0  0  0  0  0  0  0  0  0  0  0
  144.7403   74.2942  218.7903 H   0  0  0  0  0  0  0  0  0  0  0  0
  143.5361   73.0558  218.9019 H   0  0  0  0  0  0  0  0  0  0  0  0
  143.0815   76.0901  218.2733 H   0  0  0  0  0  0  0  0  0  0  0  0
  142.6835   74.8027  217.1833 H   0  0  0  0  0  0  0  0  0  0  0  0
  138.9066   75.0996  220.2047 H   0  0  0  0  0  0  0  0  0  0  0  0
  138.2375   74.0022  218.8623 H   0  0  0  0  0  0  0  0  0  0  0  0
  138.9230   72.0880  220.1060 H   0  0  0  0  0  0  0  0  0  0  0  0
  138.5858   70.9165  221.3494 H   0  0  0  0  0  0  0  0  0  0  0  0
  138.7222   68.9207  222.8819 H   0  0  0  0  0  0  0  0  0  0  0  0
  139.5261   68.0264  225.0302 H   0  0  0  0  0  0  0  0  0  0  0  0
  141.7197   70.5058  227.7774 H   0  0  0  0  0  0  0  0  0  0  0  0
  141.5187   72.4127  226.1805 H   0  0  0  0  0  0  0  0  0  0  0  0
  1  2  1  0
  2  3  1  0
  3  4  2  0
  4  5  1  0
  5  6  2  0
  6  7  1  0
  7  8  2  0
  8  9  1  0
  9 10  1  0
 10 11  2  0
 10 12  1  0
 12 13  1  0
 13 14  1  0
 14 15  1  0
 15 16  1  0
 16 17  1  0
 17 18  2  0
 17 19  1  0
 19 20  1  0
 20 21  1  0
 21 22  2  0
 21 23  1  0
 23 24  2  0
 24 25  1  0
 25 26  2  0
 26 27  1  0
 27 28  2  0
 28 29  1  0
 28 30  1  0
 30 31  2  0
 31 32  1  0
 32 33  2  0
  8  3  1  0
 16 12  1  0
 33 23  1  0
 32 26  1  0
  1 34  1  0
  1 35  1  0
  1 36  1  0
  4 37  1  0
  5 38  1  0
  6 39  1  0
  7 40  1  0
  9 41  1  0
 12 42  1  1
 13 43  1  0
 13 44  1  0
 14 45  1  0
 14 46  1  0
 15 47  1  0
 15 48  1  0
 19 49  1  0
 19 50  1  0
 20 51  1  0
 24 52  1  0
 25 53  1  0
 27 54  1  0
 30 55  1  0
 31 56  1  0
M  END
>  <smiles>  (45) 
COc1ccccc1NC(=O)[C@@H]1CCCN1C(=O)CNC(=O)c1ccc2cc(Cl)ccc2n1

>  <score_type>  (45) 
oracle

>  <origin>  (45) 
autodockgpu

>  <m_score__min__energy>  (45) 
-9

>  <m_primary>  (45) 
energy

>  <rmsd>  (45) 
2.9258057898863354

>  <m_score__min__rmsd>  (45) 
2.9258057898863354

>  <meeko>  (45) 
{"free_energy": -7.43, "intermolecular_energy": -9.51, "internal_energy": -2.94, "cluster_size": 24, "cluster_id": 1, "rank_in_cluster": 24}

>  <energy>  (45) 
-7.22

>  <cluster_rmsd>  (45) 
0.0

>  <cluster>  (45) 
7

$$$$

     RDKit          3D

 56 59  0  0  0  0  0  0  0  0999 V2000
  140.4920   81.3730  219.8050 C   0  0  0  0  0  0  0  0  0  0  0  0
  140.0040   81.3630  221.1220 O   0  0  0  0  0  0  0  0  0  0  0  0
  140.8440   80.9120  222.1360 C   0  0  0  0  0  0  0  0  0  0  0  0
  141.7400   81.7410  222.7840 C   0  0  0  0  0  0  0  0  0  0  0  0
  142.5520   81.2550  223.7810 C   0  0  0  0  0  0  0  0  0  0  0  0
  142.5230   79.9360  224.1870 C   0  0  0  0  0  0  0  0  0  0  0  0
  141.6280   79.0950  223.5430 C   0  0  0  0  0  0  0  0  0  0  0  0
  140.8060   79.5770  222.5370 C   0  0  0  0  0  0  0  0  0  0  0  0
  139.8750   78.7370  221.8560 N   0  0  0  0  0  0  0  0  0  0  0  0
  138.5460   78.6420  222.3990 C   0  0  0  0  0  0  0  0  0  0  0  0
  138.2840   79.3050  223.4440 O   0  0  0  0  0  0  0  0  0  0  0  0
  137.5810   77.7800  221.7050 C   0  0  2  0  0  0  0  0  0  0  0  0
  136.1440   78.0630  222.0130 C   0  0  0  0  0  0  0  0  0  0  0  0
  135.6150   76.7480  222.5560 C   0  0  0  0  0  0  0  0  0  0  0  0
  136.9080   76.1640  223.1410 C   0  0  0  0  0  0  0  0  0  0  0  0
  137.8010   76.3430  222.0230 N   0  0  0  0  0  0  0  0  0  0  0  0
  138.6710   75.5510  221.2780 C   0  0  0  0  0  0  0  0  0  0  0  0
  139.5640   76.2070  220.5930 O   0  0  0  0  0  0  0  0  0  0  0  0
  138.7800   74.1060  221.1200 C   0  0  0  0  0  0  0  0  0  0  0  0
  139.1350   73.3430  222.2730 N   0  0  0  0  0  0  0  0  0  0  0  0
  138.8930   71.9170  222.2020 C   0  0  0  0  0  0  0  0  0  0  0  0
  138.3990   71.5060  221.1360 O   0  0  0  0  0  0  0  0  0  0  0  0
  139.2280   71.0660  223.3380 C   0  0  0  0  0  0  0  0  0  0  0  0
  138.9090   69.7280  223.2420 C   0  0  0  0  0  0  0  0  0  0  0  0
  139.2040   68.8590  224.2980 C   0  0  0  0  0  0  0  0  0  0  0  0
  139.8180   69.4030  225.4220 C   0  0  0  0  0  0  0  0  0  0  0  0
  140.1510   68.6270  226.5210 C   0  0  0  0  0  0  0  0  0  0  0  0
  140.7620   69.1490  227.6450 C   0  0  0  0  0  0  0  0  0  0  0  0
  141.1680   68.1310  229.0230 Cl  0  0  0  0  0  0  0  0  0  0  0  0
  141.0620   70.5140  227.6900 C   0  0  0  0  0  0  0  0  0  0  0  0
  140.7400   71.3150  226.6030 C   0  0  0  0  0  0  0  0  0  0  0  0
  140.1310   70.7570  225.4970 C   0  0  0  0  0  0  0  0  0  0  0  0
  139.8270   71.5490  224.4550 N   0  0  0  0  0  0  0  0  0  0  0  0
  141.5916   81.3955  219.8216 H   0  0  0  0  0  0  0  0  0  0  0  0
  140.1517   80.4677  219.2810 H   0  0  0  0  0  0  0  0  0  0  0  0
  140.1149   82.2636  219.2810 H   0  0  0  0  0  0  0  0  0  0  0  0
  141.8041   82.8014  222.4988 H   0  0  0  0  0  0  0  0  0  0  0  0
  143.2526   81.9444  224.2748 H   0  0  0  0  0  0  0  0  0  0  0  0
  143.1817   79.5677  224.9873 H   0  0  0  0  0  0  0  0  0  0  0  0
  141.5701   78.0356  223.8334 H   0  0  0  0  0  0  0  0  0  0  0  0
  140.1170   78.1990  220.9930 H   0  0  0  0  0  0  0  0  0  0  0  0
  137.7654   78.0053  220.6442 H   0  0  0  0  0  0  0  0  0  0  0  0
  136.0558   78.8600  222.7660 H   0  0  0  0  0  0  0  0  0  0  0  0
  135.5845   78.4114  221.1323 H   0  0  0  0  0  0  0  0  0  0  0  0
  134.8501   76.9041  223.3309 H   0  0  0  0  0  0  0  0  0  0  0  0
  135.1109   76.1095  221.8156 H   0  0  0  0  0  0  0  0  0  0  0  0
  137.2448   76.7257  224.0248 H   0  0  0  0  0  0  0  0  0  0  0  0
  136.8234   75.1281  223.5012 H   0  0  0  0  0  0  0  0  0  0  0  0
  137.8046   73.7382  220.7687 H   0  0  0  0  0  0  0  0  0  0  0  0
  139.6162   73.9624  220.4199 H   0  0  0  0  0  0  0  0  0  0  0  0
  139.5540   73.7400  223.1560 H   0  0  0  0  0  0  0  0  0  0  0  0
  138.4219   69.3433  222.3339 H   0  0  0  0  0  0  0  0  0  0  0  0
  138.9602   67.7878  224.2420 H   0  0  0  0  0  0  0  0  0  0  0  0
  139.9195   67.5519  226.4975 H   0  0  0  0  0  0  0  0  0  0  0  0
  141.5475   70.9480  228.5765 H   0  0  0  0  0  0  0  0  0  0  0  0
  140.9693   72.3906  226.6229 H   0  0  0  0  0  0  0  0  0  0  0  0
  1  2  1  0
  2  3  1  0
  3  4  2  0
  4  5  1  0
  5  6  2  0
  6  7  1  0
  7  8  2  0
  8  9  1  0
  9 10  1  0
 10 11  2  0
 10 12  1  0
 12 13  1  0
 13 14  1  0
 14 15  1  0
 15 16  1  0
 16 17  1  0
 17 18  2  0
 17 19  1  0
 19 20  1  0
 20 21  1  0
 21 22  2  0
 21 23  1  0
 23 24  2  0
 24 25  1  0
 25 26  2  0
 26 27  1  0
 27 28  2  0
 28 29  1  0
 28 30  1  0
 30 31  2  0
 31 32  1  0
 32 33  2  0
  8  3  1  0
 16 12  1  0
 33 23  1  0
 32 26  1  0
  1 34  1  0
  1 35  1  0
  1 36  1  0
  4 37  1  0
  5 38  1  0
  6 39  1  0
  7 40  1  0
  9 41  1  0
 12 42  1  6
 13 43  1  0
 13 44  1  0
 14 45  1  0
 14 46  1  0
 15 47  1  0
 15 48  1  0
 19 49  1  0
 19 50  1  0
 20 51  1  0
 24 52  1  0
 25 53  1  0
 27 54  1  0
 30 55  1  0
 31 56  1  0
M  END
>  <smiles>  (46) 
COc1ccccc1NC(=O)[C@@H]1CCCN1C(=O)CNC(=O)c1ccc2cc(Cl)ccc2n1

>  <score_type>  (46) 
oracle

>  <origin>  (46) 
autodockgpu

>  <m_score__min__energy>  (46) 
-9

>  <m_primary>  (46) 
energy

>  <rmsd>  (46) 
3.3479049112404904

>  <m_score__min__rmsd>  (46) 
3.3479049112404904

>  <meeko>  (46) 
{"free_energy": -7.91, "intermolecular_energy": -9.99, "internal_energy": -2.69, "cluster_size": 24, "cluster_id": 1, "rank_in_cluster": 13}

>  <energy>  (46) 
-7.13

>  <cluster_rmsd>  (46) 
0.34

>  <cluster>  (46) 
7

$$$$

     RDKit          3D

 56 59  0  0  0  0  0  0  0  0999 V2000
  138.6390   78.3020  221.7530 C   0  0  0  0  0  0  0  0  0  0  0  0
  139.4680   78.2470  222.8860 O   0  0  0  0  0  0  0  0  0  0  0  0
  140.4770   79.1970  223.0150 C   0  0  0  0  0  0  0  0  0  0  0  0
  140.3320   80.3370  223.7840 C   0  0  0  0  0  0  0  0  0  0  0  0
  141.3550   81.2500  223.8850 C   0  0  0  0  0  0  0  0  0  0  0  0
  142.5640   81.0880  223.2380 C   0  0  0  0  0  0  0  0  0  0  0  0
  142.7190   79.9470  222.4640 C   0  0  0  0  0  0  0  0  0  0  0  0
  141.6930   79.0220  222.3570 C   0  0  0  0  0  0  0  0  0  0  0  0
  141.8230   77.8390  221.5690 N   0  0  0  0  0  0  0  0  0  0  0  0
  141.9210   78.0000  220.1430 C   0  0  0  0  0  0  0  0  0  0  0  0
  141.8840   79.1740  219.6750 O   0  0  0  0  0  0  0  0  0  0  0  0
  142.0550   76.7880  219.3240 C   0  0  2  0  0  0  0  0  0  0  0  0
  142.3770   77.0320  217.8820 C   0  0  0  0  0  0  0  0  0  0  0  0
  141.2370   76.3680  217.1310 C   0  0  0  0  0  0  0  0  0  0  0  0
  140.1250   76.4830  218.1810 C   0  0  0  0  0  0  0  0  0  0  0  0
  140.8110   75.9720  219.3420 N   0  0  0  0  0  0  0  0  0  0  0  0
  140.5870   74.9960  220.3090 C   0  0  0  0  0  0  0  0  0  0  0  0
  141.6560   74.3880  220.7360 O   0  0  0  0  0  0  0  0  0  0  0  0
  139.3670   74.5210  220.9490 C   0  0  0  0  0  0  0  0  0  0  0  0
  139.5090   73.7050  222.1120 N   0  0  0  0  0  0  0  0  0  0  0  0
  139.6010   72.2770  221.8900 C   0  0  0  0  0  0  0  0  0  0  0  0
  139.5480   71.9110  220.7020 O   0  0  0  0  0  0  0  0  0  0  0  0
  139.7470   71.3740  223.0260 C   0  0  0  0  0  0  0  0  0  0  0  0
  139.3370   70.0680  222.8530 C   0  0  0  0  0  0  0  0  0  0  0  0
  139.4500   69.1520  223.9040 C   0  0  0  0  0  0  0  0  0  0  0  0
  139.9830   69.6160  225.1030 C   0  0  0  0  0  0  0  0  0  0  0  0
  140.1360   68.7880  226.2040 C   0  0  0  0  0  0  0  0  0  0  0  0
  140.6630   69.2310  227.4010 C   0  0  0  0  0  0  0  0  0  0  0  0
  140.8420   68.1490  228.7800 Cl  0  0  0  0  0  0  0  0  0  0  0  0
  141.0630   70.5660  227.5230 C   0  0  0  0  0  0  0  0  0  0  0  0
  140.9200   71.4170  226.4360 C   0  0  0  0  0  0  0  0  0  0  0  0
  140.3900   70.9390  225.2550 C   0  0  0  0  0  0  0  0  0  0  0  0
  140.2600   71.7780  224.2150 N   0  0  0  0  0  0  0  0  0  0  0  0
  137.5882   78.3717  222.0706 H   0  0  0  0  0  0  0  0  0  0  0  0
  138.8994   79.1848  221.1507 H   0  0  0  0  0  0  0  0  0  0  0  0
  138.7804   77.3925  221.1507 H   0  0  0  0  0  0  0  0  0  0  0  0
  139.3884   80.5153  224.3205 H   0  0  0  0  0  0  0  0  0  0  0  0
  141.2043   82.1453  224.5060 H   0  0  0  0  0  0  0  0  0  0  0  0
  143.3694   81.8313  223.3321 H   0  0  0  0  0  0  0  0  0  0  0  0
  143.6654   79.7751  221.9303 H   0  0  0  0  0  0  0  0  0  0  0  0
  141.8510   76.8780  221.9810 H   0  0  0  0  0  0  0  0  0  0  0  0
  142.9022   76.2651  219.7918 H   0  0  0  0  0  0  0  0  0  0  0  0
  142.4111   78.1101  217.6665 H   0  0  0  0  0  0  0  0  0  0  0  0
  143.3610   76.6323  217.5955 H   0  0  0  0  0  0  0  0  0  0  0  0
  140.9850   76.9109  216.2081 H   0  0  0  0  0  0  0  0  0  0  0  0
  141.4437   75.3446  216.7848 H   0  0  0  0  0  0  0  0  0  0  0  0
  139.8062   77.5261  218.3233 H   0  0  0  0  0  0  0  0  0  0  0  0
  139.1953   75.9533  217.9261 H   0  0  0  0  0  0  0  0  0  0  0  0
  138.7795   75.4055  221.2364 H   0  0  0  0  0  0  0  0  0  0  0  0
  138.8948   73.8659  220.2022 H   0  0  0  0  0  0  0  0  0  0  0  0
  139.5510   74.0650  223.1030 H   0  0  0  0  0  0  0  0  0  0  0  0
  138.9206   69.7466  221.8869 H   0  0  0  0  0  0  0  0  0  0  0  0
  139.1302   68.1060  223.7875 H   0  0  0  0  0  0  0  0  0  0  0  0
  139.8252   67.7361  226.1209 H   0  0  0  0  0  0  0  0  0  0  0  0
  141.4856   70.9366  228.4686 H   0  0  0  0  0  0  0  0  0  0  0  0
  141.2284   72.4699  226.5157 H   0  0  0  0  0  0  0  0  0  0  0  0
  1  2  1  0
  2  3  1  0
  3  4  2  0
  4  5  1  0
  5  6  2  0
  6  7  1  0
  7  8  2  0
  8  9  1  0
  9 10  1  0
 10 11  2  0
 10 12  1  0
 12 13  1  0
 13 14  1  0
 14 15  1  0
 15 16  1  0
 16 17  1  0
 17 18  2  0
 17 19  1  0
 19 20  1  0
 20 21  1  0
 21 22  2  0
 21 23  1  0
 23 24  2  0
 24 25  1  0
 25 26  2  0
 26 27  1  0
 27 28  2  0
 28 29  1  0
 28 30  1  0
 30 31  2  0
 31 32  1  0
 32 33  2  0
  8  3  1  0
 16 12  1  0
 33 23  1  0
 32 26  1  0
  1 34  1  0
  1 35  1  0
  1 36  1  0
  4 37  1  0
  5 38  1  0
  6 39  1  0
  7 40  1  0
  9 41  1  0
 12 42  1  1
 13 43  1  0
 13 44  1  0
 14 45  1  0
 14 46  1  0
 15 47  1  0
 15 48  1  0
 19 49  1  0
 19 50  1  0
 20 51  1  0
 24 52  1  0
 25 53  1  0
 27 54  1  0
 30 55  1  0
 31 56  1  0
M  END
>  <smiles>  (47) 
COc1ccccc1NC(=O)[C@@H]1CCCN1C(=O)CNC(=O)c1ccc2cc(Cl)ccc2n1

>  <score_type>  (47) 
oracle

>  <origin>  (47) 
autodockgpu

>  <m_score__min__energy>  (47) 
-9

>  <m_primary>  (47) 
energy

>  <rmsd>  (47) 
2.054382293996739

>  <m_score__min__rmsd>  (47) 
2.054382293996739

>  <meeko>  (47) 
{"free_energy": -8.58, "intermolecular_energy": -10.67, "internal_energy": -2.38, "cluster_size": 24, "cluster_id": 1, "rank_in_cluster": 2}

>  <energy>  (47) 
-6.8

>  <cluster_rmsd>  (47) 
0.0

>  <cluster>  (47) 
8

$$$$

     RDKit          3D

 56 59  0  0  0  0  0  0  0  0999 V2000
  141.8830   78.9670  219.0820 C   0  0  0  0  0  0  0  0  0  0  0  0
  141.1930   79.7680  220.0060 O   0  0  0  0  0  0  0  0  0  0  0  0
  141.5310   79.6670  221.3530 C   0  0  0  0  0  0  0  0  0  0  0  0
  142.4050   80.5420  221.9690 C   0  0  0  0  0  0  0  0  0  0  0  0
  142.7110   80.4060  223.3020 C   0  0  0  0  0  0  0  0  0  0  0  0
  142.1760   79.4070  224.0900 C   0  0  0  0  0  0  0  0  0  0  0  0
  141.2980   78.5230  223.4820 C   0  0  0  0  0  0  0  0  0  0  0  0
  140.9830   78.6540  222.1380 C   0  0  0  0  0  0  0  0  0  0  0  0
  140.0830   77.7600  221.4840 N   0  0  0  0  0  0  0  0  0  0  0  0
  138.6790   77.9170  221.7550 C   0  0  0  0  0  0  0  0  0  0  0  0
  138.3280   78.8320  222.5530 O   0  0  0  0  0  0  0  0  0  0  0  0
  137.7460   77.0010  221.0860 C   0  0  2  0  0  0  0  0  0  0  0  0
  136.3580   76.9910  221.6480 C   0  0  0  0  0  0  0  0  0  0  0  0
  136.1320   75.5450  222.0500 C   0  0  0  0  0  0  0  0  0  0  0  0
  137.5780   75.1190  222.3330 C   0  0  0  0  0  0  0  0  0  0  0  0
  138.2260   75.5940  221.1360 N   0  0  0  0  0  0  0  0  0  0  0  0
  139.0610   75.0670  220.1530 C   0  0  0  0  0  0  0  0  0  0  0  0
  139.6800   75.9520  219.4240 O   0  0  0  0  0  0  0  0  0  0  0  0
  139.3830   73.6960  219.7810 C   0  0  0  0  0  0  0  0  0  0  0  0
  139.2950   72.7000  220.7990 N   0  0  0  0  0  0  0  0  0  0  0  0
  140.0200   72.9650  222.0250 C   0  0  0  0  0  0  0  0  0  0  0  0
  140.6450   74.0410  222.0600 O   0  0  0  0  0  0  0  0  0  0  0  0
  139.9830   71.9960  223.1150 C   0  0  0  0  0  0  0  0  0  0  0  0
  139.3470   70.7960  222.8730 C   0  0  0  0  0  0  0  0  0  0  0  0
  139.2770   69.8250  223.8780 C   0  0  0  0  0  0  0  0  0  0  0  0
  139.8650   70.1270  225.1020 C   0  0  0  0  0  0  0  0  0  0  0  0
  139.8500   69.2330  226.1610 C   0  0  0  0  0  0  0  0  0  0  0  0
  140.4290   69.5150  227.3830 C   0  0  0  0  0  0  0  0  0  0  0  0
  140.3880   68.3530  228.7070 Cl  0  0  0  0  0  0  0  0  0  0  0  0
  141.0600   70.7490  227.5740 C   0  0  0  0  0  0  0  0  0  0  0  0
  141.0900   71.6630  226.5310 C   0  0  0  0  0  0  0  0  0  0  0  0
  140.5010   71.3460  225.3230 C   0  0  0  0  0  0  0  0  0  0  0  0
  140.5410   72.2440  224.3260 N   0  0  0  0  0  0  0  0  0  0  0  0
  142.5086   78.2407  219.6216 H   0  0  0  0  0  0  0  0  0  0  0  0
  141.1600   78.4302  218.4503 H   0  0  0  0  0  0  0  0  0  0  0  0
  142.5209   79.6026  218.4503 H   0  0  0  0  0  0  0  0  0  0  0  0
  142.8608   81.3561  221.3864 H   0  0  0  0  0  0  0  0  0  0  0  0
  143.4101   81.1218  223.7591 H   0  0  0  0  0  0  0  0  0  0  0  0
  142.4353   79.3161  225.1551 H   0  0  0  0  0  0  0  0  0  0  0  0
  140.8473   77.7106  224.0709 H   0  0  0  0  0  0  0  0  0  0  0  0
  140.4000   77.0100  220.8270 H   0  0  0  0  0  0  0  0  0  0  0  0
  137.7091   77.3920  220.0585 H   0  0  0  0  0  0  0  0  0  0  0  0
  136.2857   77.6551  222.5219 H   0  0  0  0  0  0  0  0  0  0  0  0
  135.6084   77.3512  220.9281 H   0  0  0  0  0  0  0  0  0  0  0  0
  135.4997   75.4644  222.9465 H   0  0  0  0  0  0  0  0  0  0  0  0
  135.6062   74.9328  221.3026 H   0  0  0  0  0  0  0  0  0  0  0  0
  137.9775   75.6084  223.2335 H   0  0  0  0  0  0  0  0  0  0  0  0
  137.7107   74.0455  222.5331 H   0  0  0  0  0  0  0  0  0  0  0  0
  138.6958   73.4035  218.9734 H   0  0  0  0  0  0  0  0  0  0  0  0
  140.4477   73.7226  219.5057 H   0  0  0  0  0  0  0  0  0  0  0  0
  138.7490   71.8000  220.7220 H   0  0  0  0  0  0  0  0  0  0  0  0
  138.8946   70.6024  221.8892 H   0  0  0  0  0  0  0  0  0  0  0  0
  138.7765   68.8605  223.7069 H   0  0  0  0  0  0  0  0  0  0  0  0
  139.3570   68.2594  226.0227 H   0  0  0  0  0  0  0  0  0  0  0  0
  141.5269   70.9916  228.5400 H   0  0  0  0  0  0  0  0  0  0  0  0
  141.5817   72.6377  226.6659 H   0  0  0  0  0  0  0  0  0  0  0  0
  1  2  1  0
  2  3  1  0
  3  4  2  0
  4  5  1  0
  5  6  2  0
  6  7  1  0
  7  8  2  0
  8  9  1  0
  9 10  1  0
 10 11  2  0
 10 12  1  0
 12 13  1  0
 13 14  1  0
 14 15  1  0
 15 16  1  0
 16 17  1  0
 17 18  2  0
 17 19  1  0
 19 20  1  0
 20 21  1  0
 21 22  2  0
 21 23  1  0
 23 24  2  0
 24 25  1  0
 25 26  2  0
 26 27  1  0
 27 28  2  0
 28 29  1  0
 28 30  1  0
 30 31  2  0
 31 32  1  0
 32 33  2  0
  8  3  1  0
 16 12  1  0
 33 23  1  0
 32 26  1  0
  1 34  1  0
  1 35  1  0
  1 36  1  0
  4 37  1  0
  5 38  1  0
  6 39  1  0
  7 40  1  0
  9 41  1  0
 12 42  1  6
 13 43  1  0
 13 44  1  0
 14 45  1  0
 14 46  1  0
 15 47  1  0
 15 48  1  0
 19 49  1  0
 19 50  1  0
 20 51  1  0
 24 52  1  0
 25 53  1  0
 27 54  1  0
 30 55  1  0
 31 56  1  0
M  END
>  <smiles>  (48) 
COc1ccccc1NC(=O)[C@@H]1CCCN1C(=O)CNC(=O)c1ccc2cc(Cl)ccc2n1

>  <score_type>  (48) 
oracle

>  <origin>  (48) 
autodockgpu

>  <m_score__min__energy>  (48) 
-9

>  <m_primary>  (48) 
energy

>  <rmsd>  (48) 
3.2310669251818007

>  <m_score__min__rmsd>  (48) 
3.2310669251818007

>  <meeko>  (48) 
{"free_energy": -7.73, "intermolecular_energy": -9.82, "internal_energy": -2.76, "cluster_size": 24, "cluster_id": 1, "rank_in_cluster": 20}

>  <energy>  (48) 
-5.58

>  <cluster_rmsd>  (48) 
0.0

>  <cluster>  (48) 
9

$$$$

     RDKit          3D

 56 59  0  0  0  0  0  0  0  0999 V2000
  142.0440   80.4840  219.1860 C   0  0  0  0  0  0  0  0  0  0  0  0
  140.9020   80.0050  219.8480 O   0  0  0  0  0  0  0  0  0  0  0  0
  140.9580   79.8330  221.2280 C   0  0  0  0  0  0  0  0  0  0  0  0
  140.3850   80.7270  222.1130 C   0  0  0  0  0  0  0  0  0  0  0  0
  140.4640   80.5190  223.4700 C   0  0  0  0  0  0  0  0  0  0  0  0
  141.1070   79.4280  224.0190 C   0  0  0  0  0  0  0  0  0  0  0  0
  141.6860   78.5260  223.1390 C   0  0  0  0  0  0  0  0  0  0  0  0
  141.6110   78.7280  221.7700 C   0  0  0  0  0  0  0  0  0  0  0  0
  142.1960   77.8170  220.8400 N   0  0  0  0  0  0  0  0  0  0  0  0
  141.4330   76.6500  220.4850 C   0  0  0  0  0  0  0  0  0  0  0  0
  140.2950   76.5020  221.0160 O   0  0  0  0  0  0  0  0  0  0  0  0
  142.0280   75.7080  219.5280 C   0  0  2  0  0  0  0  0  0  0  0  0
  142.9910   76.3170  218.5570 C   0  0  0  0  0  0  0  0  0  0  0  0
  142.4040   75.9840  217.1970 C   0  0  0  0  0  0  0  0  0  0  0  0
  140.9180   75.8910  217.5630 C   0  0  0  0  0  0  0  0  0  0  0  0
  140.9890   75.0230  218.7130 N   0  0  0  0  0  0  0  0  0  0  0  0
  140.3910   73.8380  219.1310 C   0  0  0  0  0  0  0  0  0  0  0  0
  141.0600   72.7550  218.8540 O   0  0  0  0  0  0  0  0  0  0  0  0
  139.1430   73.5710  219.8350 C   0  0  0  0  0  0  0  0  0  0  0  0
  139.1590   72.5620  220.8440 N   0  0  0  0  0  0  0  0  0  0  0  0
  139.8180   72.9030  222.0880 C   0  0  0  0  0  0  0  0  0  0  0  0
  140.3010   74.0490  222.1450 O   0  0  0  0  0  0  0  0  0  0  0  0
  139.8790   71.9270  223.1690 C   0  0  0  0  0  0  0  0  0  0  0  0
  139.3570   70.6740  222.9200 C   0  0  0  0  0  0  0  0  0  0  0  0
  139.3850   69.6930  223.9180 C   0  0  0  0  0  0  0  0  0  0  0  0
  139.9500   70.0390  225.1410 C   0  0  0  0  0  0  0  0  0  0  0  0
  140.0260   69.1390  226.1930 C   0  0  0  0  0  0  0  0  0  0  0  0
  140.5840   69.4640  227.4130 C   0  0  0  0  0  0  0  0  0  0  0  0
  140.6610   68.2930  228.7270 Cl  0  0  0  0  0  0  0  0  0  0  0  0
  141.0970   70.7500  227.6120 C   0  0  0  0  0  0  0  0  0  0  0  0
  141.0350   71.6710  226.5760 C   0  0  0  0  0  0  0  0  0  0  0  0
  140.4700   71.3100  225.3690 C   0  0  0  0  0  0  0  0  0  0  0  0
  140.4190   72.2160  224.3790 N   0  0  0  0  0  0  0  0  0  0  0  0
  142.7931   80.7982  219.9278 H   0  0  0  0  0  0  0  0  0  0  0  0
  142.4642   79.6863  218.5558 H   0  0  0  0  0  0  0  0  0  0  0  0
  141.7694   81.3428  218.5558 H   0  0  0  0  0  0  0  0  0  0  0  0
  139.8605   81.6138  221.7278 H   0  0  0  0  0  0  0  0  0  0  0  0
  139.9962   81.2511  224.1447 H   0  0  0  0  0  0  0  0  0  0  0  0
  141.1580   79.2803  225.1078 H   0  0  0  0  0  0  0  0  0  0  0  0
  142.2098   77.6418  223.5313 H   0  0  0  0  0  0  0  0  0  0  0  0
  143.1400   77.9640  220.4150 H   0  0  0  0  0  0  0  0  0  0  0  0
  142.5758   75.0085  220.1766 H   0  0  0  0  0  0  0  0  0  0  0  0
  143.0535   77.4059  218.6996 H   0  0  0  0  0  0  0  0  0  0  0  0
  144.0148   75.9342  218.6807 H   0  0  0  0  0  0  0  0  0  0  0  0
  142.5946   76.7816  216.4639 H   0  0  0  0  0  0  0  0  0  0  0  0
  142.8207   75.0843  216.7206 H   0  0  0  0  0  0  0  0  0  0  0  0
  140.5002   76.8752  217.8213 H   0  0  0  0  0  0  0  0  0  0  0  0
  140.2664   75.5301  216.7536 H   0  0  0  0  0  0  0  0  0  0  0  0
  138.8268   74.5100  220.3129 H   0  0  0  0  0  0  0  0  0  0  0  0
  138.4624   73.1841  219.0623 H   0  0  0  0  0  0  0  0  0  0  0  0
  138.7330   71.6020  220.7470 H   0  0  0  0  0  0  0  0  0  0  0  0
  138.9189   70.4462  221.9371 H   0  0  0  0  0  0  0  0  0  0  0  0
  138.9759   68.6872  223.7419 H   0  0  0  0  0  0  0  0  0  0  0  0
  139.6253   68.1247  226.0495 H   0  0  0  0  0  0  0  0  0  0  0  0
  141.5441   71.0278  228.5779 H   0  0  0  0  0  0  0  0  0  0  0  0
  141.4350   72.6861  226.7160 H   0  0  0  0  0  0  0  0  0  0  0  0
  1  2  1  0
  2  3  1  0
  3  4  2  0
  4  5  1  0
  5  6  2  0
  6  7  1  0
  7  8  2  0
  8  9  1  0
  9 10  1  0
 10 11  2  0
 10 12  1  0
 12 13  1  0
 13 14  1  0
 14 15  1  0
 15 16  1  0
 16 17  1  0
 17 18  2  0
 17 19  1  0
 19 20  1  0
 20 21  1  0
 21 22  2  0
 21 23  1  0
 23 24  2  0
 24 25  1  0
 25 26  2  0
 26 27  1  0
 27 28  2  0
 28 29  1  0
 28 30  1  0
 30 31  2  0
 31 32  1  0
 32 33  2  0
  8  3  1  0
 16 12  1  0
 33 23  1  0
 32 26  1  0
  1 34  1  0
  1 35  1  0
  1 36  1  0
  4 37  1  0
  5 38  1  0
  6 39  1  0
  7 40  1  0
  9 41  1  0
 12 42  1  1
 13 43  1  0
 13 44  1  0
 14 45  1  0
 14 46  1  0
 15 47  1  0
 15 48  1  0
 19 49  1  0
 19 50  1  0
 20 51  1  0
 24 52  1  0
 25 53  1  0
 27 54  1  0
 30 55  1  0
 31 56  1  0
M  END
>  <smiles>  (49) 
COc1ccccc1NC(=O)[C@@H]1CCCN1C(=O)CNC(=O)c1ccc2cc(Cl)ccc2n1

>  <score_type>  (49) 
oracle

>  <origin>  (49) 
autodockgpu

>  <m_score__min__energy>  (49) 
-9

>  <m_primary>  (49) 
energy

>  <rmsd>  (49) 
2.2442526072796163

>  <m_score__min__rmsd>  (49) 
2.2442526072796163

>  <meeko>  (49) 
{"free_energy": -8.12, "intermolecular_energy": -10.21, "internal_energy": -2.09, "cluster_size": 24, "cluster_id": 1, "rank_in_cluster": 7}

>  <energy>  (49) 
-5.28

>  <cluster_rmsd>  (49) 
0.0

>  <cluster>  (49) 
10

$$$$

     RDKit          3D

 56 59  0  0  0  0  0  0  0  0999 V2000
  140.3180   78.8070  219.1060 C   0  0  0  0  0  0  0  0  0  0  0  0
  141.5240   78.9970  219.7990 O   0  0  0  0  0  0  0  0  0  0  0  0
  141.4680   79.4470  221.1160 C   0  0  0  0  0  0  0  0  0  0  0  0
  141.4480   80.7900  221.4430 C   0  0  0  0  0  0  0  0  0  0  0  0
  141.3910   81.1910  222.7560 C   0  0  0  0  0  0  0  0  0  0  0  0
  141.3530   80.2970  223.8070 C   0  0  0  0  0  0  0  0  0  0  0  0
  141.3740   78.9470  223.4890 C   0  0  0  0  0  0  0  0  0  0  0  0
  141.4300   78.5340  222.1670 C   0  0  0  0  0  0  0  0  0  0  0  0
  141.4520   77.1520  221.8100 N   0  0  0  0  0  0  0  0  0  0  0  0
  140.1910   76.4630  221.7460 C   0  0  0  0  0  0  0  0  0  0  0  0
  139.1430   77.1190  222.0110 O   0  0  0  0  0  0  0  0  0  0  0  0
  140.2050   75.0410  221.3780 C   0  0  2  0  0  0  0  0  0  0  0  0
  141.4940   74.5520  220.7950 C   0  0  0  0  0  0  0  0  0  0  0  0
  141.1020   74.0100  219.4320 C   0  0  0  0  0  0  0  0  0  0  0  0
  139.8720   74.8800  219.1440 C   0  0  0  0  0  0  0  0  0  0  0  0
  139.1480   74.7210  220.3810 N   0  0  0  0  0  0  0  0  0  0  0  0
  137.8610   74.3550  220.7680 C   0  0  0  0  0  0  0  0  0  0  0  0
  136.9620   75.2880  220.6420 O   0  0  0  0  0  0  0  0  0  0  0  0
  137.3190   73.1060  221.2880 C   0  0  0  0  0  0  0  0  0  0  0  0
  137.8320   72.6350  222.5340 N   0  0  0  0  0  0  0  0  0  0  0  0
  138.9050   71.6650  222.4640 C   0  0  0  0  0  0  0  0  0  0  0  0
  139.2690   71.3450  221.3170 O   0  0  0  0  0  0  0  0  0  0  0  0
  139.4840   71.1320  223.6920 C   0  0  0  0  0  0  0  0  0  0  0  0
  140.4450   71.8960  224.3210 C   0  0  0  0  0  0  0  0  0  0  0  0
  141.0400   71.4400  225.5030 C   0  0  0  0  0  0  0  0  0  0  0  0
  140.6220   70.2080  225.9960 C   0  0  0  0  0  0  0  0  0  0  0  0
  141.1500   69.6690  227.1590 C   0  0  0  0  0  0  0  0  0  0  0  0
  140.7470   68.4480  227.6630 C   0  0  0  0  0  0  0  0  0  0  0  0
  141.4410   67.7940  229.1450 Cl  0  0  0  0  0  0  0  0  0  0  0  0
  139.7690   67.7140  226.9840 C   0  0  0  0  0  0  0  0  0  0  0  0
  139.2240   68.2300  225.8170 C   0  0  0  0  0  0  0  0  0  0  0  0
  139.6510   69.4540  225.3430 C   0  0  0  0  0  0  0  0  0  0  0  0
  139.1110   69.9370  224.2120 N   0  0  0  0  0  0  0  0  0  0  0  0
  139.4973   78.6777  219.8269 H   0  0  0  0  0  0  0  0  0  0  0  0
  140.1161   79.6844  218.4740 H   0  0  0  0  0  0  0  0  0  0  0  0
  140.3956   77.9100  218.4740 H   0  0  0  0  0  0  0  0  0  0  0  0
  141.4780   81.5454  220.6439 H   0  0  0  0  0  0  0  0  0  0  0  0
  141.3750   82.2681  222.9786 H   0  0  0  0  0  0  0  0  0  0  0  0
  141.3080   80.6401  224.8511 H   0  0  0  0  0  0  0  0  0  0  0  0
  141.3459   78.1972  224.2934 H   0  0  0  0  0  0  0  0  0  0  0  0
  142.3340   76.6330  221.5950 H   0  0  0  0  0  0  0  0  0  0  0  0
  140.0372   74.5342  222.3398 H   0  0  0  0  0  0  0  0  0  0  0  0
  142.2149   75.3767  220.6947 H   0  0  0  0  0  0  0  0  0  0  0  0
  141.9823   73.7947  221.4259 H   0  0  0  0  0  0  0  0  0  0  0  0
  141.8960   74.1659  218.6868 H   0  0  0  0  0  0  0  0  0  0  0  0
  140.9208   72.9255  219.3989 H   0  0  0  0  0  0  0  0  0  0  0  0
  140.1486   75.9297  218.9665 H   0  0  0  0  0  0  0  0  0  0  0  0
  139.3095   74.5975  218.2419 H   0  0  0  0  0  0  0  0  0  0  0  0
  136.2341   73.2420  221.4082 H   0  0  0  0  0  0  0  0  0  0  0  0
  137.6181   72.3429  220.5544 H   0  0  0  0  0  0  0  0  0  0  0  0
  137.4900   72.9390  223.4840 H   0  0  0  0  0  0  0  0  0  0  0  0
  140.7440   72.8644  223.8933 H   0  0  0  0  0  0  0  0  0  0  0  0
  141.8080   72.0325  226.0218 H   0  0  0  0  0  0  0  0  0  0  0  0
  141.9204   70.2363  227.7018 H   0  0  0  0  0  0  0  0  0  0  0  0
  139.4360   66.7395  227.3705 H   0  0  0  0  0  0  0  0  0  0  0  0
  138.4539   67.6653  225.2711 H   0  0  0  0  0  0  0  0  0  0  0  0
  1  2  1  0
  2  3  1  0
  3  4  2  0
  4  5  1  0
  5  6  2  0
  6  7  1  0
  7  8  2  0
  8  9  1  0
  9 10  1  0
 10 11  2  0
 10 12  1  0
 12 13  1  0
 13 14  1  0
 14 15  1  0
 15 16  1  0
 16 17  1  0
 17 18  2  0
 17 19  1  0
 19 20  1  0
 20 21  1  0
 21 22  2  0
 21 23  1  0
 23 24  2  0
 24 25  1  0
 25 26  2  0
 26 27  1  0
 27 28  2  0
 28 29  1  0
 28 30  1  0
 30 31  2  0
 31 32  1  0
 32 33  2  0
  8  3  1  0
 16 12  1  0
 33 23  1  0
 32 26  1  0
  1 34  1  0
  1 35  1  0
  1 36  1  0
  4 37  1  0
  5 38  1  0
  6 39  1  0
  7 40  1  0
  9 41  1  0
 12 42  1  1
 13 43  1  0
 13 44  1  0
 14 45  1  0
 14 46  1  0
 15 47  1  0
 15 48  1  0
 19 49  1  0
 19 50  1  0
 20 51  1  0
 24 52  1  0
 25 53  1  0
 27 54  1  0
 30 55  1  0
 31 56  1  0
M  END
>  <smiles>  (50) 
COc1ccccc1NC(=O)[C@@H]1CCCN1C(=O)CNC(=O)c1ccc2cc(Cl)ccc2n1

>  <score_type>  (50) 
oracle

>  <origin>  (50) 
autodockgpu

>  <m_score__min__energy>  (50) 
-9

>  <m_primary>  (50) 
energy

>  <rmsd>  (50) 
2.7977069462414335

>  <m_score__min__rmsd>  (50) 
2.7977069462414335

>  <meeko>  (50) 
{"free_energy": -8.06, "intermolecular_energy": -10.15, "internal_energy": -2.28, "cluster_size": 24, "cluster_id": 1, "rank_in_cluster": 8}

>  <energy>  (50) 
-4.85

>  <cluster_rmsd>  (50) 
0.0

>  <cluster>  (50) 
11

$$$$
