
     RDKit          3D

 52 55  0  0  0  0  0  0  0  0999 V2000
  137.0660   74.5600  220.6280 O   0  0  0  0  0  0  0  0  0  0  0  0
  137.8850   74.3900  221.5700 C   0  0  0  0  0  0  0  0  0  0  0  0
  137.9550   73.1940  222.3380 N   0  0  0  0  0  0  0  0  0  0  0  0
  137.0470   72.0570  222.0680 C   0  0  0  0  0  0  0  0  0  0  0  0
  137.1970   71.0850  223.1400 C   0  0  0  0  0  0  0  0  0  0  0  0
  137.6110   71.5550  224.2710 O   0  0  0  0  0  0  0  0  0  0  0  0
  136.9550   69.7100  223.1220 N   0  0  0  0  0  0  0  0  0  0  0  0
  135.5940   69.1650  222.8890 C   0  0  0  0  0  0  0  0  0  0  0  0
  135.9400   68.1240  221.8420 C   0  0  1  0  0  0  0  0  0  0  0  0
  135.6420   68.5640  220.5740 F   0  0  0  0  0  0  0  0  0  0  0  0
  137.4400   67.8240  222.0080 C   0  0  0  0  0  0  0  0  0  0  0  0
  137.7590   68.5150  223.2810 C   0  0  1  0  0  0  0  0  0  0  0  0
  139.1660   68.7080  223.6660 C   0  0  0  0  0  0  0  0  0  0  0  0
  139.4110   69.8080  224.4000 O   0  0  0  0  0  0  0  0  0  0  0  0
  139.9180   70.3110  225.5170 C   0  0  0  0  0  0  0  0  0  0  0  0
  139.7300   69.5390  226.6920 C   0  0  0  0  0  0  0  0  0  0  0  0
  140.1920   69.9330  227.9110 C   0  0  0  0  0  0  0  0  0  0  0  0
  140.8630   71.1090  228.0220 C   0  0  0  0  0  0  0  0  0  0  0  0
  141.0850   71.9090  226.9340 C   0  0  0  0  0  0  0  0  0  0  0  0
  140.6040   71.4860  225.7140 C   0  0  0  0  0  0  0  0  0  0  0  0
  138.8210   75.4910  221.8880 C   0  0  0  0  0  0  0  0  0  0  0  0
  140.1750   75.3420  221.6740 C   0  0  0  0  0  0  0  0  0  0  0  0
  141.0720   76.3540  221.9620 C   0  0  0  0  0  0  0  0  0  0  0  0
  140.5920   77.5590  222.4810 C   0  0  0  0  0  0  0  0  0  0  0  0
  141.4760   78.5540  222.7630 C   0  0  0  0  0  0  0  0  0  0  0  0
  140.9620   79.7440  223.2810 C   0  0  0  0  0  0  0  0  0  0  0  0
  142.0620   81.0640  223.6630 Cl  0  0  0  0  0  0  0  0  0  0  0  0
  139.6060   79.9000  223.4970 C   0  0  0  0  0  0  0  0  0  0  0  0
  138.7330   78.8670  223.1990 C   0  0  0  0  0  0  0  0  0  0  0  0
  139.2270   77.6770  222.6830 C   0  0  0  0  0  0  0  0  0  0  0  0
  138.3780   76.6640  222.3900 N   0  0  0  0  0  0  0  0  0  0  0  0
  138.6690   73.1600  223.0950 H   0  0  0  0  0  0  0  0  0  0  0  0
  136.0067   72.4128  222.0320 H   0  0  0  0  0  0  0  0  0  0  0  0
  137.2967   71.5952  221.1014 H   0  0  0  0  0  0  0  0  0  0  0  0
  135.1683   68.7130  223.7970 H   0  0  0  0  0  0  0  0  0  0  0  0
  134.8306   69.9004  222.5950 H   0  0  0  0  0  0  0  0  0  0  0  0
  135.3434   67.2104  221.9815 H   0  0  0  0  0  0  0  0  0  0  0  0
  137.6243   66.7422  222.0844 H   0  0  0  0  0  0  0  0  0  0  0  0
  138.0537   68.1582  221.1585 H   0  0  0  0  0  0  0  0  0  0  0  0
  137.5261   67.9023  224.1644 H   0  0  0  0  0  0  0  0  0  0  0  0
  139.4829   67.8312  224.2499 H   0  0  0  0  0  0  0  0  0  0  0  0
  139.7257   68.8350  222.7276 H   0  0  0  0  0  0  0  0  0  0  0  0
  139.1895   68.5840  226.6156 H   0  0  0  0  0  0  0  0  0  0  0  0
  140.0233   69.3046  228.7979 H   0  0  0  0  0  0  0  0  0  0  0  0
  141.2359   71.4250  229.0075 H   0  0  0  0  0  0  0  0  0  0  0  0
  141.6301   72.8595  227.0304 H   0  0  0  0  0  0  0  0  0  0  0  0
  140.7805   72.1308  224.8404 H   0  0  0  0  0  0  0  0  0  0  0  0
  140.5513   74.3934  221.2635 H   0  0  0  0  0  0  0  0  0  0  0  0
  142.1484   76.2123  221.7850 H   0  0  0  0  0  0  0  0  0  0  0  0
  142.5546   78.4256  222.5894 H   0  0  0  0  0  0  0  0  0  0  0  0
  139.2198   80.8453  223.9059 H   0  0  0  0  0  0  0  0  0  0  0  0
  137.6533   78.9890  223.3704 H   0  0  0  0  0  0  0  0  0  0  0  0
  1  2  2  0
  2  3  1  0
  3  4  1  0
  4  5  1  0
  5  6  2  0
  5  7  1  0
  7  8  1  0
  8  9  1  0
  9 10  1  0
  9 11  1  0
 11 12  1  0
 12 13  1  0
 13 14  1  0
 14 15  1  0
 15 16  2  0
 16 17  1  0
 17 18  2  0
 18 19  1  0
 19 20  2  0
  2 21  1  0
 21 22  2  0
 22 23  1  0
 23 24  2  0
 24 25  1  0
 25 26  2  0
 26 27  1  0
 26 28  1  0
 28 29  2  0
 29 30  1  0
 30 31  2  0
 12  7  1  0
 20 15  1  0
 31 21  1  0
 30 24  1  0
  3 32  1  0
  4 33  1  0
  4 34  1  0
  8 35  1  0
  8 36  1  0
  9 37  1  1
 11 38  1  0
 11 39  1  0
 12 40  1  1
 13 41  1  0
 13 42  1  0
 16 43  1  0
 17 44  1  0
 18 45  1  0
 19 46  1  0
 20 47  1  0
 22 48  1  0
 23 49  1  0
 25 50  1  0
 28 51  1  0
 29 52  1  0
M  END
>  <smiles>  (1) 
O=C(NCC(=O)N1C[C@@H](F)C[C@H]1COc1ccccc1)c1ccc2cc(Cl)ccc2n1

>  <score_type>  (1) 
oracle

>  <origin>  (1) 
autodockgpu

>  <m_score__min__energy>  (1) 
-8.5399999999999991

>  <m_primary>  (1) 
energy

>  <rmsd>  (1) 
8.196155432151015

>  <m_score__min__rmsd>  (1) 
8.196155432151015

>  <meeko>  (1) 
{"free_energy": -7.45, "intermolecular_energy": -9.53, "internal_energy": -1.83, "cluster_size": 5, "cluster_id": 5, "rank_in_cluster": 3}

>  <energy>  (1) 
-8.54

>  <cluster_rmsd>  (1) 
0.0

>  <cluster>  (1) 
1

$$$$

     RDKit          3D

 52 55  0  0  0  0  0  0  0  0999 V2000
  133.2430   69.8460  226.6850 O   0  0  0  0  0  0  0  0  0  0  0  0
  133.7660   70.9120  226.2660 C   0  0  0  0  0  0  0  0  0  0  0  0
  134.9170   70.9420  225.4290 N   0  0  0  0  0  0  0  0  0  0  0  0
  135.5790   69.6920  224.9950 C   0  0  0  0  0  0  0  0  0  0  0  0
  136.6230   70.0330  224.0410 C   0  0  0  0  0  0  0  0  0  0  0  0
  137.0080   71.2670  224.0460 O   0  0  0  0  0  0  0  0  0  0  0  0
  137.2740   69.2130  223.1170 N   0  0  0  0  0  0  0  0  0  0  0  0
  136.7610   69.0440  221.7340 C   0  0  0  0  0  0  0  0  0  0  0  0
  138.0600   69.2570  220.9810 C   0  0  1  0  0  0  0  0  0  0  0  0
  138.1410   70.5280  220.4620 F   0  0  0  0  0  0  0  0  0  0  0  0
  139.1940   68.9720  221.9810 C   0  0  0  0  0  0  0  0  0  0  0  0
  138.4590   68.3800  223.1260 C   0  0  1  0  0  0  0  0  0  0  0  0
  139.1460   68.2150  224.4180 C   0  0  0  0  0  0  0  0  0  0  0  0
  139.7010   69.3340  224.9150 O   0  0  0  0  0  0  0  0  0  0  0  0
  140.0020   70.0440  225.9940 C   0  0  0  0  0  0  0  0  0  0  0  0
  140.8660   71.1500  225.7950 C   0  0  0  0  0  0  0  0  0  0  0  0
  141.2630   71.9640  226.8110 C   0  0  0  0  0  0  0  0  0  0  0  0
  140.8210   71.7210  228.0730 C   0  0  0  0  0  0  0  0  0  0  0  0
  139.9840   70.6730  228.3450 C   0  0  0  0  0  0  0  0  0  0  0  0
  139.6010   69.8650  227.2970 C   0  0  0  0  0  0  0  0  0  0  0  0
  133.1480   72.1970  226.6640 C   0  0  0  0  0  0  0  0  0  0  0  0
  131.8990   72.2210  227.2480 C   0  0  0  0  0  0  0  0  0  0  0  0
  131.2990   73.4060  227.6300 C   0  0  0  0  0  0  0  0  0  0  0  0
  131.9770   74.6090  227.4210 C   0  0  0  0  0  0  0  0  0  0  0  0
  131.3850   75.7740  227.7980 C   0  0  0  0  0  0  0  0  0  0  0  0
  132.0910   76.9580  227.5740 C   0  0  0  0  0  0  0  0  0  0  0  0
  131.3700   78.4930  228.0440 Cl  0  0  0  0  0  0  0  0  0  0  0  0
  133.3430   76.9410  226.9900 C   0  0  0  0  0  0  0  0  0  0  0  0
  133.9170   75.7360  226.6180 C   0  0  0  0  0  0  0  0  0  0  0  0
  133.2300   74.5500  226.8340 C   0  0  0  0  0  0  0  0  0  0  0  0
  133.7870   73.3710  226.4710 N   0  0  0  0  0  0  0  0  0  0  0  0
  135.2680   71.8780  225.1410 H   0  0  0  0  0  0  0  0  0  0  0  0
  136.0218   69.1847  225.8648 H   0  0  0  0  0  0  0  0  0  0  0  0
  134.8456   69.0182  224.5280 H   0  0  0  0  0  0  0  0  0  0  0  0
  136.3455   68.0394  221.5666 H   0  0  0  0  0  0  0  0  0  0  0  0
  135.9311   69.7075  221.4494 H   0  0  0  0  0  0  0  0  0  0  0  0
  138.1283   68.5828  220.1145 H   0  0  0  0  0  0  0  0  0  0  0  0
  139.9237   68.2617  221.5650 H   0  0  0  0  0  0  0  0  0  0  0  0
  139.7833   69.8621  222.2466 H   0  0  0  0  0  0  0  0  0  0  0  0
  138.2792   67.3020  223.0016 H   0  0  0  0  0  0  0  0  0  0  0  0
  138.4125   67.8445  225.1492 H   0  0  0  0  0  0  0  0  0  0  0  0
  139.9755   67.5155  224.2371 H   0  0  0  0  0  0  0  0  0  0  0  0
  141.2303   71.3588  224.7783 H   0  0  0  0  0  0  0  0  0  0  0  0
  141.9358   72.8113  226.6124 H   0  0  0  0  0  0  0  0  0  0  0  0
  141.1426   72.3803  228.8927 H   0  0  0  0  0  0  0  0  0  0  0  0
  139.6282   70.4818  229.3682 H   0  0  0  0  0  0  0  0  0  0  0  0
  138.9304   69.0213  227.5170 H   0  0  0  0  0  0  0  0  0  0  0  0
  131.3667   71.2728  227.4140 H   0  0  0  0  0  0  0  0  0  0  0  0
  130.3009   73.4017  228.0924 H   0  0  0  0  0  0  0  0  0  0  0  0
  130.3876   75.7833  228.2619 H   0  0  0  0  0  0  0  0  0  0  0  0
  133.8839   77.8837  226.8204 H   0  0  0  0  0  0  0  0  0  0  0  0
  134.9138   75.7197  226.1531 H   0  0  0  0  0  0  0  0  0  0  0  0
  1  2  2  0
  2  3  1  0
  3  4  1  0
  4  5  1  0
  5  6  2  0
  5  7  1  0
  7  8  1  0
  8  9  1  0
  9 10  1  0
  9 11  1  0
 11 12  1  0
 12 13  1  0
 13 14  1  0
 14 15  1  0
 15 16  2  0
 16 17  1  0
 17 18  2  0
 18 19  1  0
 19 20  2  0
  2 21  1  0
 21 22  2  0
 22 23  1  0
 23 24  2  0
 24 25  1  0
 25 26  2  0
 26 27  1  0
 26 28  1  0
 28 29  2  0
 29 30  1  0
 30 31  2  0
 12  7  1  0
 20 15  1  0
 31 21  1  0
 30 24  1  0
  3 32  1  0
  4 33  1  0
  4 34  1  0
  8 35  1  0
  8 36  1  0
  9 37  1  6
 11 38  1  0
 11 39  1  0
 12 40  1  6
 13 41  1  0
 13 42  1  0
 16 43  1  0
 17 44  1  0
 18 45  1  0
 19 46  1  0
 20 47  1  0
 22 48  1  0
 23 49  1  0
 25 50  1  0
 28 51  1  0
 29 52  1  0
M  END
>  <smiles>  (2) 
O=C(NCC(=O)N1C[C@@H](F)C[C@H]1COc1ccccc1)c1ccc2cc(Cl)ccc2n1

>  <score_type>  (2) 
oracle

>  <origin>  (2) 
autodockgpu

>  <m_score__min__energy>  (2) 
-8.5399999999999991

>  <m_primary>  (2) 
energy

>  <rmsd>  (2) 
8.523255037130953

>  <m_score__min__rmsd>  (2) 
8.523255037130953

>  <meeko>  (2) 
{"free_energy": -7.75, "intermolecular_energy": -9.84, "internal_energy": -2.33, "cluster_size": 7, "cluster_id": 3, "rank_in_cluster": 4}

>  <energy>  (2) 
-8.52

>  <cluster_rmsd>  (2) 
0.45

>  <cluster>  (2) 
1

$$$$

     RDKit          3D

 52 55  0  0  0  0  0  0  0  0999 V2000
  140.2150   72.0920  220.7110 O   0  0  0  0  0  0  0  0  0  0  0  0
  139.9580   72.5310  221.8640 C   0  0  0  0  0  0  0  0  0  0  0  0
  139.6360   73.8920  222.1280 N   0  0  0  0  0  0  0  0  0  0  0  0
  139.5850   74.8910  221.0370 C   0  0  0  0  0  0  0  0  0  0  0  0
  140.6940   75.8160  221.2090 C   0  0  0  0  0  0  0  0  0  0  0  0
  140.6380   76.5750  222.2530 O   0  0  0  0  0  0  0  0  0  0  0  0
  141.8190   76.0010  220.4020 N   0  0  0  0  0  0  0  0  0  0  0  0
  142.9320   75.0170  220.3850 C   0  0  0  0  0  0  0  0  0  0  0  0
  143.0930   74.8790  218.8840 C   0  0  1  0  0  0  0  0  0  0  0  0
  142.4900   73.7360  218.4150 F   0  0  0  0  0  0  0  0  0  0  0  0
  142.4810   76.1470  218.2630 C   0  0  0  0  0  0  0  0  0  0  0  0
  142.2600   77.0040  219.4540 C   0  0  1  0  0  0  0  0  0  0  0  0
  141.4290   78.2120  219.3310 C   0  0  0  0  0  0  0  0  0  0  0  0
  141.8410   79.2640  220.0610 O   0  0  0  0  0  0  0  0  0  0  0  0
  141.8600   79.8560  221.2470 C   0  0  0  0  0  0  0  0  0  0  0  0
  142.2200   79.0390  222.3490 C   0  0  0  0  0  0  0  0  0  0  0  0
  142.2790   79.5110  223.6250 C   0  0  0  0  0  0  0  0  0  0  0  0
  141.9850   80.8150  223.8690 C   0  0  0  0  0  0  0  0  0  0  0  0
  141.6300   81.6660  222.8580 C   0  0  0  0  0  0  0  0  0  0  0  0
  141.5770   81.1600  221.5780 C   0  0  0  0  0  0  0  0  0  0  0  0
  139.9920   71.5800  222.9970 C   0  0  0  0  0  0  0  0  0  0  0  0
  139.5130   70.2960  222.8460 C   0  0  0  0  0  0  0  0  0  0  0  0
  139.5330   69.3860  223.8870 C   0  0  0  0  0  0  0  0  0  0  0  0
  140.0520   69.7800  225.1230 C   0  0  0  0  0  0  0  0  0  0  0  0
  140.0710   68.8840  226.1460 C   0  0  0  0  0  0  0  0  0  0  0  0
  140.5980   69.3110  227.3670 C   0  0  0  0  0  0  0  0  0  0  0  0
  140.6460   68.1910  228.7230 Cl  0  0  0  0  0  0  0  0  0  0  0  0
  141.0790   70.5960  227.5240 C   0  0  0  0  0  0  0  0  0  0  0  0
  141.0450   71.4840  226.4610 C   0  0  0  0  0  0  0  0  0  0  0  0
  140.5260   71.0760  225.2410 C   0  0  0  0  0  0  0  0  0  0  0  0
  140.4910   71.9410  224.2000 N   0  0  0  0  0  0  0  0  0  0  0  0
  139.4420   74.1480  223.1170 H   0  0  0  0  0  0  0  0  0  0  0  0
  139.6716   74.3839  220.0647 H   0  0  0  0  0  0  0  0  0  0  0  0
  138.6301   75.4361  221.0682 H   0  0  0  0  0  0  0  0  0  0  0  0
  143.8403   75.4114  220.8640 H   0  0  0  0  0  0  0  0  0  0  0  0
  142.7479   74.0806  220.9321 H   0  0  0  0  0  0  0  0  0  0  0  0
  144.1536   74.7849  218.6078 H   0  0  0  0  0  0  0  0  0  0  0  0
  143.1771   76.6202  217.5548 H   0  0  0  0  0  0  0  0  0  0  0  0
  141.5676   75.9567  217.6803 H   0  0  0  0  0  0  0  0  0  0  0  0
  143.1605   77.5652  219.7440 H   0  0  0  0  0  0  0  0  0  0  0  0
  141.4203   78.5136  218.2732 H   0  0  0  0  0  0  0  0  0  0  0  0
  140.4352   77.9412  219.7171 H   0  0  0  0  0  0  0  0  0  0  0  0
  142.4613   77.9816  222.1656 H   0  0  0  0  0  0  0  0  0  0  0  0
  142.5623   78.8423  224.4512 H   0  0  0  0  0  0  0  0  0  0  0  0
  142.0334   81.1943  224.9004 H   0  0  0  0  0  0  0  0  0  0  0  0
  141.3944   82.7211  223.0611 H   0  0  0  0  0  0  0  0  0  0  0  0
  141.2891   81.8448  220.7667 H   0  0  0  0  0  0  0  0  0  0  0  0
  139.1044   69.9875  221.8724 H   0  0  0  0  0  0  0  0  0  0  0  0
  139.1458   68.3664  223.7441 H   0  0  0  0  0  0  0  0  0  0  0  0
  139.6859   67.8618  226.0167 H   0  0  0  0  0  0  0  0  0  0  0  0
  141.4893   70.9147  228.4936 H   0  0  0  0  0  0  0  0  0  0  0  0
  141.4278   72.5079  226.5839 H   0  0  0  0  0  0  0  0  0  0  0  0
  1  2  2  0
  2  3  1  0
  3  4  1  0
  4  5  1  0
  5  6  2  0
  5  7  1  0
  7  8  1  0
  8  9  1  0
  9 10  1  0
  9 11  1  0
 11 12  1  0
 12 13  1  0
 13 14  1  0
 14 15  1  0
 15 16  2  0
 16 17  1  0
 17 18  2  0
 18 19  1  0
 19 20  2  0
  2 21  1  0
 21 22  2  0
 22 23  1  0
 23 24  2  0
 24 25  1  0
 25 26  2  0
 26 27  1  0
 26 28  1  0
 28 29  2  0
 29 30  1  0
 30 31  2  0
 12  7  1  0
 20 15  1  0
 31 21  1  0
 30 24  1  0
  3 32  1  0
  4 33  1  0
  4 34  1  0
  8 35  1  0
  8 36  1  0
  9 37  1  1
 11 38  1  0
 11 39  1  0
 12 40  1  1
 13 41  1  0
 13 42  1  0
 16 43  1  0
 17 44  1  0
 18 45  1  0
 19 46  1  0
 20 47  1  0
 22 48  1  0
 23 49  1  0
 25 50  1  0
 28 51  1  0
 29 52  1  0
M  END
>  <smiles>  (3) 
O=C(NCC(=O)N1C[C@@H](F)C[C@H]1COc1ccccc1)c1ccc2cc(Cl)ccc2n1

>  <score_type>  (3) 
oracle

>  <origin>  (3) 
autodockgpu

>  <m_score__min__energy>  (3) 
-8.5399999999999991

>  <m_primary>  (3) 
energy

>  <rmsd>  (3) 
2.186442075632069

>  <m_score__min__rmsd>  (3) 
2.186442075632069

>  <meeko>  (3) 
{"free_energy": -8.54, "intermolecular_energy": -10.63, "internal_energy": -1.78, "cluster_size": 15, "cluster_id": 1, "rank_in_cluster": 1}

>  <energy>  (3) 
-8.35

>  <cluster_rmsd>  (3) 
0.84

>  <cluster>  (3) 
1

$$$$

     RDKit          3D

 52 55  0  0  0  0  0  0  0  0999 V2000
  133.5400   69.8350  226.8310 O   0  0  0  0  0  0  0  0  0  0  0  0
  133.9390   70.9070  226.3030 C   0  0  0  0  0  0  0  0  0  0  0  0
  134.9970   70.9630  225.3540 N   0  0  0  0  0  0  0  0  0  0  0  0
  135.7060   69.7370  224.9250 C   0  0  0  0  0  0  0  0  0  0  0  0
  136.2420   69.9600  223.5910 C   0  0  0  0  0  0  0  0  0  0  0  0
  135.8450   71.0370  222.9970 O   0  0  0  0  0  0  0  0  0  0  0  0
  137.1310   69.1720  222.8560 N   0  0  0  0  0  0  0  0  0  0  0  0
  136.8830   68.8490  221.4280 C   0  0  0  0  0  0  0  0  0  0  0  0
  138.2560   69.1780  220.8770 C   0  0  1  0  0  0  0  0  0  0  0  0
  138.2750   70.4120  220.2710 F   0  0  0  0  0  0  0  0  0  0  0  0
  139.2300   69.1070  222.0660 C   0  0  0  0  0  0  0  0  0  0  0  0
  138.3860   68.5010  223.1260 C   0  0  1  0  0  0  0  0  0  0  0  0
  138.8590   68.5110  224.5190 C   0  0  0  0  0  0  0  0  0  0  0  0
  139.2480   69.7130  224.9810 O   0  0  0  0  0  0  0  0  0  0  0  0
  139.8780   70.3900  225.9310 C   0  0  0  0  0  0  0  0  0  0  0  0
  139.6540   69.9550  227.2620 C   0  0  0  0  0  0  0  0  0  0  0  0
  140.2300   70.5570  228.3390 C   0  0  0  0  0  0  0  0  0  0  0  0
  141.0560   71.6190  228.1470 C   0  0  0  0  0  0  0  0  0  0  0  0
  141.3220   72.0970  226.8920 C   0  0  0  0  0  0  0  0  0  0  0  0
  140.7230   71.4690  225.8220 C   0  0  0  0  0  0  0  0  0  0  0  0
  133.2680   72.1680  226.6900 C   0  0  0  0  0  0  0  0  0  0  0  0
  132.0290   72.1440  227.2940 C   0  0  0  0  0  0  0  0  0  0  0  0
  131.3800   73.3070  227.6670 C   0  0  0  0  0  0  0  0  0  0  0  0
  131.9970   74.5360  227.4250 C   0  0  0  0  0  0  0  0  0  0  0  0
  131.3570   75.6790  227.7930 C   0  0  0  0  0  0  0  0  0  0  0  0
  132.0030   76.8900  227.5370 C   0  0  0  0  0  0  0  0  0  0  0  0
  131.2190   78.3980  227.9930 Cl  0  0  0  0  0  0  0  0  0  0  0  0
  133.2450   76.9210  226.9320 C   0  0  0  0  0  0  0  0  0  0  0  0
  133.8690   75.7380  226.5710 C   0  0  0  0  0  0  0  0  0  0  0  0
  133.2420   74.5250  226.8180 C   0  0  0  0  0  0  0  0  0  0  0  0
  133.8480   73.3670  226.4660 N   0  0  0  0  0  0  0  0  0  0  0  0
  135.2480   71.9020  224.9800 H   0  0  0  0  0  0  0  0  0  0  0  0
  136.5271   69.5189  225.6237 H   0  0  0  0  0  0  0  0  0  0  0  0
  135.0129   68.8829  224.9161 H   0  0  0  0  0  0  0  0  0  0  0  0
  136.6216   67.7905  221.2826 H   0  0  0  0  0  0  0  0  0  0  0  0
  136.0419   69.3804  220.9588 H   0  0  0  0  0  0  0  0  0  0  0  0
  138.5479   68.4634  220.0934 H   0  0  0  0  0  0  0  0  0  0  0  0
  140.0970   68.4710  221.8341 H   0  0  0  0  0  0  0  0  0  0  0  0
  139.6583   70.0810  222.3451 H   0  0  0  0  0  0  0  0  0  0  0  0
  138.3564   67.4029  223.0681 H   0  0  0  0  0  0  0  0  0  0  0  0
  138.0413   68.1483  225.1591 H   0  0  0  0  0  0  0  0  0  0  0  0
  139.7523   67.8696  224.5438 H   0  0  0  0  0  0  0  0  0  0  0  0
  138.9878   69.0962  227.4313 H   0  0  0  0  0  0  0  0  0  0  0  0
  140.0286   70.1871  229.3552 H   0  0  0  0  0  0  0  0  0  0  0  0
  141.5204   72.1045  229.0180 H   0  0  0  0  0  0  0  0  0  0  0  0
  141.9931   72.9557  226.7426 H   0  0  0  0  0  0  0  0  0  0  0  0
  140.9347   71.8563  224.8144 H   0  0  0  0  0  0  0  0  0  0  0  0
  131.5442   71.1751  227.4842 H   0  0  0  0  0  0  0  0  0  0  0  0
  130.3915   73.2644  228.1476 H   0  0  0  0  0  0  0  0  0  0  0  0
  130.3681   75.6500  228.2739 H   0  0  0  0  0  0  0  0  0  0  0  0
  133.7381   77.8848  226.7371 H   0  0  0  0  0  0  0  0  0  0  0  0
  134.8581   75.7602  226.0902 H   0  0  0  0  0  0  0  0  0  0  0  0
  1  2  2  0
  2  3  1  0
  3  4  1  0
  4  5  1  0
  5  6  2  0
  5  7  1  0
  7  8  1  0
  8  9  1  0
  9 10  1  0
  9 11  1  0
 11 12  1  0
 12 13  1  0
 13 14  1  0
 14 15  1  0
 15 16  2  0
 16 17  1  0
 17 18  2  0
 18 19  1  0
 19 20  2  0
  2 21  1  0
 21 22  2  0
 22 23  1  0
 23 24  2  0
 24 25  1  0
 25 26  2  0
 26 27  1  0
 26 28  1  0
 28 29  2  0
 29 30  1  0
 30 31  2  0
 12  7  1  0
 20 15  1  0
 31 21  1  0
 30 24  1  0
  3 32  1  0
  4 33  1  0
  4 34  1  0
  8 35  1  0
  8 36  1  0
  9 37  1  6
 11 38  1  0
 11 39  1  0
 12 40  1  6
 13 41  1  0
 13 42  1  0
 16 43  1  0
 17 44  1  0
 18 45  1  0
 19 46  1  0
 20 47  1  0
 22 48  1  0
 23 49  1  0
 25 50  1  0
 28 51  1  0
 29 52  1  0
M  END
>  <smiles>  (4) 
O=C(NCC(=O)N1C[C@@H](F)C[C@H]1COc1ccccc1)c1ccc2cc(Cl)ccc2n1

>  <score_type>  (4) 
oracle

>  <origin>  (4) 
autodockgpu

>  <m_score__min__energy>  (4) 
-8.5399999999999991

>  <m_primary>  (4) 
energy

>  <rmsd>  (4) 
8.482219795356244

>  <m_score__min__rmsd>  (4) 
8.482219795356244

>  <meeko>  (4) 
{"free_energy": -7.68, "intermolecular_energy": -9.76, "internal_energy": -2.16, "cluster_size": 7, "cluster_id": 3, "rank_in_cluster": 5}

>  <energy>  (4) 
-8.33

>  <cluster_rmsd>  (4) 
0.45

>  <cluster>  (4) 
1

$$$$

     RDKit          3D

 52 55  0  0  0  0  0  0  0  0999 V2000
  139.5930   71.9000  220.6750 O   0  0  0  0  0  0  0  0  0  0  0  0
  139.6200   72.3870  221.8370 C   0  0  0  0  0  0  0  0  0  0  0  0
  139.5160   73.7810  222.1030 N   0  0  0  0  0  0  0  0  0  0  0  0
  139.3670   74.7600  221.0030 C   0  0  0  0  0  0  0  0  0  0  0  0
  139.0870   76.0640  221.5840 C   0  0  0  0  0  0  0  0  0  0  0  0
  139.4400   76.2180  222.8180 O   0  0  0  0  0  0  0  0  0  0  0  0
  138.4880   77.1800  220.9950 N   0  0  0  0  0  0  0  0  0  0  0  0
  137.0770   77.5440  221.2800 C   0  0  0  0  0  0  0  0  0  0  0  0
  137.2730   79.0210  221.5600 C   0  0  1  0  0  0  0  0  0  0  0  0
  137.2850   79.2820  222.9100 F   0  0  0  0  0  0  0  0  0  0  0  0
  138.5980   79.4190  220.8860 C   0  0  0  0  0  0  0  0  0  0  0  0
  138.9090   78.2160  220.0750 C   0  0  1  0  0  0  0  0  0  0  0  0
  140.2480   78.0730  219.4800 C   0  0  0  0  0  0  0  0  0  0  0  0
  141.2660   78.4720  220.2630 O   0  0  0  0  0  0  0  0  0  0  0  0
  141.6380   79.0820  221.3810 C   0  0  0  0  0  0  0  0  0  0  0  0
  141.4580   78.3500  222.5820 C   0  0  0  0  0  0  0  0  0  0  0  0
  141.7910   78.8500  223.8040 C   0  0  0  0  0  0  0  0  0  0  0  0
  142.3190   80.0980  223.8930 C   0  0  0  0  0  0  0  0  0  0  0  0
  142.5240   80.8670  222.7780 C   0  0  0  0  0  0  0  0  0  0  0  0
  142.1750   80.3350  221.5560 C   0  0  0  0  0  0  0  0  0  0  0  0
  139.7650   71.4590  222.9800 C   0  0  0  0  0  0  0  0  0  0  0  0
  139.3930   70.1360  222.8590 C   0  0  0  0  0  0  0  0  0  0  0  0
  139.5180   69.2470  223.9100 C   0  0  0  0  0  0  0  0  0  0  0  0
  140.0360   69.7010  225.1250 C   0  0  0  0  0  0  0  0  0  0  0  0
  140.1590   68.8240  226.1580 C   0  0  0  0  0  0  0  0  0  0  0  0
  140.6810   69.3120  227.3580 C   0  0  0  0  0  0  0  0  0  0  0  0
  140.8610   68.2190  228.7260 Cl  0  0  0  0  0  0  0  0  0  0  0  0
  141.0560   70.6350  227.4860 C   0  0  0  0  0  0  0  0  0  0  0  0
  140.9180   71.5010  226.4140 C   0  0  0  0  0  0  0  0  0  0  0  0
  140.4020   71.0340  225.2140 C   0  0  0  0  0  0  0  0  0  0  0  0
  140.2650   71.8770  224.1640 N   0  0  0  0  0  0  0  0  0  0  0  0
  139.5500   74.0760  223.1000 H   0  0  0  0  0  0  0  0  0  0  0  0
  140.2974   74.8059  220.4179 H   0  0  0  0  0  0  0  0  0  0  0  0
  138.5450   74.4584  220.3372 H   0  0  0  0  0  0  0  0  0  0  0  0
  136.4219   77.3706  220.4135 H   0  0  0  0  0  0  0  0  0  0  0  0
  136.5895   76.9685  222.0807 H   0  0  0  0  0  0  0  0  0  0  0  0
  136.4390   79.6133  221.1555 H   0  0  0  0  0  0  0  0  0  0  0  0
  138.4711   80.3073  220.2498 H   0  0  0  0  0  0  0  0  0  0  0  0
  139.3920   79.6901  221.5974 H   0  0  0  0  0  0  0  0  0  0  0  0
  138.3968   78.2183  219.1015 H   0  0  0  0  0  0  0  0  0  0  0  0
  140.4011   77.0112  219.2368 H   0  0  0  0  0  0  0  0  0  0  0  0
  140.2634   78.7311  218.5987 H   0  0  0  0  0  0  0  0  0  0  0  0
  141.0322   77.3374  222.5242 H   0  0  0  0  0  0  0  0  0  0  0  0
  141.6337   78.2482  224.7113 H   0  0  0  0  0  0  0  0  0  0  0  0
  142.5877   80.4998  224.8811 H   0  0  0  0  0  0  0  0  0  0  0  0
  142.9534   81.8767  222.8558 H   0  0  0  0  0  0  0  0  0  0  0  0
  142.3368   80.9540  220.6612 H   0  0  0  0  0  0  0  0  0  0  0  0
  138.9863   69.7793  221.9012 H   0  0  0  0  0  0  0  0  0  0  0  0
  139.2138   68.1966  223.7911 H   0  0  0  0  0  0  0  0  0  0  0  0
  139.8588   67.7711  226.0521 H   0  0  0  0  0  0  0  0  0  0  0  0
  141.4644   71.0010  228.4395 H   0  0  0  0  0  0  0  0  0  0  0  0
  141.2164   72.5550  226.5137 H   0  0  0  0  0  0  0  0  0  0  0  0
  1  2  2  0
  2  3  1  0
  3  4  1  0
  4  5  1  0
  5  6  2  0
  5  7  1  0
  7  8  1  0
  8  9  1  0
  9 10  1  0
  9 11  1  0
 11 12  1  0
 12 13  1  0
 13 14  1  0
 14 15  1  0
 15 16  2  0
 16 17  1  0
 17 18  2  0
 18 19  1  0
 19 20  2  0
  2 21  1  0
 21 22  2  0
 22 23  1  0
 23 24  2  0
 24 25  1  0
 25 26  2  0
 26 27  1  0
 26 28  1  0
 28 29  2  0
 29 30  1  0
 30 31  2  0
 12  7  1  0
 20 15  1  0
 31 21  1  0
 30 24  1  0
  3 32  1  0
  4 33  1  0
  4 34  1  0
  8 35  1  0
  8 36  1  0
  9 37  1  6
 11 38  1  0
 11 39  1  0
 12 40  1  6
 13 41  1  0
 13 42  1  0
 16 43  1  0
 17 44  1  0
 18 45  1  0
 19 46  1  0
 20 47  1  0
 22 48  1  0
 23 49  1  0
 25 50  1  0
 28 51  1  0
 29 52  1  0
M  END
>  <smiles>  (5) 
O=C(NCC(=O)N1C[C@@H](F)C[C@H]1COc1ccccc1)c1ccc2cc(Cl)ccc2n1

>  <score_type>  (5) 
oracle

>  <origin>  (5) 
autodockgpu

>  <m_score__min__energy>  (5) 
-8.5399999999999991

>  <m_primary>  (5) 
energy

>  <rmsd>  (5) 
2.6755913270814604

>  <m_score__min__rmsd>  (5) 
2.6755913270814604

>  <meeko>  (5) 
{"free_energy": -7.79, "intermolecular_energy": -9.88, "internal_energy": -2.4, "cluster_size": 8, "cluster_id": 2, "rank_in_cluster": 4}

>  <energy>  (5) 
-8.28

>  <cluster_rmsd>  (5) 
0.99

>  <cluster>  (5) 
1

$$$$

     RDKit          3D

 52 55  0  0  0  0  0  0  0  0999 V2000
  140.1070   72.3450  220.6660 O   0  0  0  0  0  0  0  0  0  0  0  0
  139.9270   72.8010  221.8270 C   0  0  0  0  0  0  0  0  0  0  0  0
  139.6790   74.1760  222.0970 N   0  0  0  0  0  0  0  0  0  0  0  0
  139.6190   75.1710  221.0040 C   0  0  0  0  0  0  0  0  0  0  0  0
  139.0730   76.4080  221.5390 C   0  0  0  0  0  0  0  0  0  0  0  0
  139.2900   76.6220  222.7950 O   0  0  0  0  0  0  0  0  0  0  0  0
  138.3440   77.4040  220.8860 N   0  0  0  0  0  0  0  0  0  0  0  0
  136.8610   77.4530  220.9570 C   0  0  0  0  0  0  0  0  0  0  0  0
  136.6960   78.9230  221.2910 C   0  0  1  0  0  0  0  0  0  0  0  0
  136.4550   79.1120  222.6310 F   0  0  0  0  0  0  0  0  0  0  0  0
  137.9910   79.6200  220.8370 C   0  0  0  0  0  0  0  0  0  0  0  0
  138.6660   78.5500  220.0610 C   0  0  1  0  0  0  0  0  0  0  0  0
  140.0770   78.7170  219.6770 C   0  0  0  0  0  0  0  0  0  0  0  0
  140.9450   78.7670  220.7030 O   0  0  0  0  0  0  0  0  0  0  0  0
  141.4090   79.4550  221.7370 C   0  0  0  0  0  0  0  0  0  0  0  0
  141.1210   80.8440  221.7430 C   0  0  0  0  0  0  0  0  0  0  0  0
  141.5370   81.6750  222.7380 C   0  0  0  0  0  0  0  0  0  0  0  0
  142.2560   81.1700  223.7740 C   0  0  0  0  0  0  0  0  0  0  0  0
  142.5730   79.8400  223.8390 C   0  0  0  0  0  0  0  0  0  0  0  0
  142.1410   79.0230  222.8170 C   0  0  0  0  0  0  0  0  0  0  0  0
  139.9730   71.8540  222.9630 C   0  0  0  0  0  0  0  0  0  0  0  0
  139.5170   70.5610  222.8160 C   0  0  0  0  0  0  0  0  0  0  0  0
  139.5490   69.6560  223.8600 C   0  0  0  0  0  0  0  0  0  0  0  0
  140.0590   70.0620  225.0960 C   0  0  0  0  0  0  0  0  0  0  0  0
  140.0900   69.1700  226.1220 C   0  0  0  0  0  0  0  0  0  0  0  0
  140.6050   69.6100  227.3430 C   0  0  0  0  0  0  0  0  0  0  0  0
  140.6690   68.4950  228.7030 Cl  0  0  0  0  0  0  0  0  0  0  0  0
  141.0650   70.9040  227.4970 C   0  0  0  0  0  0  0  0  0  0  0  0
  141.0190   71.7870  226.4310 C   0  0  0  0  0  0  0  0  0  0  0  0
  140.5100   71.3670  225.2100 C   0  0  0  0  0  0  0  0  0  0  0  0
  140.4630   72.2270  224.1660 N   0  0  0  0  0  0  0  0  0  0  0  0
  139.5450   74.4450  223.0930 H   0  0  0  0  0  0  0  0  0  0  0  0
  140.6300   75.3511  220.6096 H   0  0  0  0  0  0  0  0  0  0  0  0
  138.9821   74.7984  220.1882 H   0  0  0  0  0  0  0  0  0  0  0  0
  136.3919   77.1917  219.9970 H   0  0  0  0  0  0  0  0  0  0  0  0
  136.3946   76.7493  221.6622 H   0  0  0  0  0  0  0  0  0  0  0  0
  135.8240   79.3495  220.7737 H   0  0  0  0  0  0  0  0  0  0  0  0
  137.7735   80.4941  220.2057 H   0  0  0  0  0  0  0  0  0  0  0  0
  138.5962   80.0127  221.6674 H   0  0  0  0  0  0  0  0  0  0  0  0
  138.3137   78.4960  219.0204 H   0  0  0  0  0  0  0  0  0  0  0  0
  140.3578   77.8699  219.0340 H   0  0  0  0  0  0  0  0  0  0  0  0
  140.1437   79.6916  219.1713 H   0  0  0  0  0  0  0  0  0  0  0  0
  140.5386   81.2664  220.9109 H   0  0  0  0  0  0  0  0  0  0  0  0
  141.2928   82.7470  222.7033 H   0  0  0  0  0  0  0  0  0  0  0  0
  142.5902   81.8435  224.5769 H   0  0  0  0  0  0  0  0  0  0  0  0
  143.1545   79.4360  224.6808 H   0  0  0  0  0  0  0  0  0  0  0  0
  142.3989   77.9549  222.8689 H   0  0  0  0  0  0  0  0  0  0  0  0
  139.1173   70.2415  221.8423 H   0  0  0  0  0  0  0  0  0  0  0  0
  139.1780   68.6300  223.7199 H   0  0  0  0  0  0  0  0  0  0  0  0
  139.7232   68.1408  225.9948 H   0  0  0  0  0  0  0  0  0  0  0  0
  141.4678   71.2327  228.4664 H   0  0  0  0  0  0  0  0  0  0  0  0
  141.3845   72.8175  226.5516 H   0  0  0  0  0  0  0  0  0  0  0  0
  1  2  2  0
  2  3  1  0
  3  4  1  0
  4  5  1  0
  5  6  2  0
  5  7  1  0
  7  8  1  0
  8  9  1  0
  9 10  1  0
  9 11  1  0
 11 12  1  0
 12 13  1  0
 13 14  1  0
 14 15  1  0
 15 16  2  0
 16 17  1  0
 17 18  2  0
 18 19  1  0
 19 20  2  0
  2 21  1  0
 21 22  2  0
 22 23  1  0
 23 24  2  0
 24 25  1  0
 25 26  2  0
 26 27  1  0
 26 28  1  0
 28 29  2  0
 29 30  1  0
 30 31  2  0
 12  7  1  0
 20 15  1  0
 31 21  1  0
 30 24  1  0
  3 32  1  0
  4 33  1  0
  4 34  1  0
  8 35  1  0
  8 36  1  0
  9 37  1  6
 11 38  1  0
 11 39  1  0
 12 40  1  6
 13 41  1  0
 13 42  1  0
 16 43  1  0
 17 44  1  0
 18 45  1  0
 19 46  1  0
 20 47  1  0
 22 48  1  0
 23 49  1  0
 25 50  1  0
 28 51  1  0
 29 52  1  0
M  END
>  <smiles>  (6) 
O=C(NCC(=O)N1C[C@@H](F)C[C@H]1COc1ccccc1)c1ccc2cc(Cl)ccc2n1

>  <score_type>  (6) 
oracle

>  <origin>  (6) 
autodockgpu

>  <m_score__min__energy>  (6) 
-8.5399999999999991

>  <m_primary>  (6) 
energy

>  <rmsd>  (6) 
2.864501721807807

>  <m_score__min__rmsd>  (6) 
2.864501721807807

>  <meeko>  (6) 
{"free_energy": -7.61, "intermolecular_energy": -9.7, "internal_energy": -2.29, "cluster_size": 8, "cluster_id": 2, "rank_in_cluster": 7}

>  <energy>  (6) 
-8.24

>  <cluster_rmsd>  (6) 
0.79

>  <cluster>  (6) 
1

$$$$

     RDKit          3D

 52 55  0  0  0  0  0  0  0  0999 V2000
  138.3220   71.3350  221.2200 O   0  0  0  0  0  0  0  0  0  0  0  0
  138.8440   71.8700  222.2340 C   0  0  0  0  0  0  0  0  0  0  0  0
  139.1200   73.2630  222.3280 N   0  0  0  0  0  0  0  0  0  0  0  0
  138.8020   74.1820  221.2130 C   0  0  0  0  0  0  0  0  0  0  0  0
  138.9750   75.5490  221.6810 C   0  0  0  0  0  0  0  0  0  0  0  0
  139.8320   75.7120  222.6350 O   0  0  0  0  0  0  0  0  0  0  0  0
  138.3450   76.7150  221.2440 N   0  0  0  0  0  0  0  0  0  0  0  0
  136.9330   77.0130  221.5950 C   0  0  0  0  0  0  0  0  0  0  0  0
  137.1080   78.4490  222.0500 C   0  0  1  0  0  0  0  0  0  0  0  0
  137.1430   78.5440  223.4210 F   0  0  0  0  0  0  0  0  0  0  0  0
  138.4120   78.9520  221.4070 C   0  0  0  0  0  0  0  0  0  0  0  0
  138.7290   77.8640  220.4490 C   0  0  1  0  0  0  0  0  0  0  0  0
  140.0580   77.8210  219.8180 C   0  0  0  0  0  0  0  0  0  0  0  0
  141.0380   78.4260  220.5120 O   0  0  0  0  0  0  0  0  0  0  0  0
  141.4430   78.9070  221.6790 C   0  0  0  0  0  0  0  0  0  0  0  0
  142.0610   80.1820  221.6510 C   0  0  0  0  0  0  0  0  0  0  0  0
  142.5290   80.7970  222.7720 C   0  0  0  0  0  0  0  0  0  0  0  0
  142.4040   80.1780  223.9750 C   0  0  0  0  0  0  0  0  0  0  0  0
  141.8180   78.9460  224.0840 C   0  0  0  0  0  0  0  0  0  0  0  0
  141.3560   78.3470  222.9320 C   0  0  0  0  0  0  0  0  0  0  0  0
  139.1830   71.0030  223.3840 C   0  0  0  0  0  0  0  0  0  0  0  0
  138.9060   69.6530  223.3480 C   0  0  0  0  0  0  0  0  0  0  0  0
  139.2120   68.8190  224.4080 C   0  0  0  0  0  0  0  0  0  0  0  0
  139.8200   69.3610  225.5430 C   0  0  0  0  0  0  0  0  0  0  0  0
  140.1210   68.5390  226.5850 C   0  0  0  0  0  0  0  0  0  0  0  0
  140.7280   69.1130  227.7040 C   0  0  0  0  0  0  0  0  0  0  0  0
  141.1390   68.0940  229.0790 Cl  0  0  0  0  0  0  0  0  0  0  0  0
  141.0100   70.4650  227.7460 C   0  0  0  0  0  0  0  0  0  0  0  0
  140.6900   71.2730  226.6670 C   0  0  0  0  0  0  0  0  0  0  0  0
  140.0870   70.7200  225.5470 C   0  0  0  0  0  0  0  0  0  0  0  0
  139.7720   71.5060  224.4920 N   0  0  0  0  0  0  0  0  0  0  0  0
  139.5550   73.6000  223.2110 H   0  0  0  0  0  0  0  0  0  0  0  0
  139.4800   73.9899  220.3683 H   0  0  0  0  0  0  0  0  0  0  0  0
  137.7661   74.0255  220.8779 H   0  0  0  0  0  0  0  0  0  0  0  0
  136.2647   76.9332  220.7249 H   0  0  0  0  0  0  0  0  0  0  0  0
  136.4712   76.3345  222.3274 H   0  0  0  0  0  0  0  0  0  0  0  0
  136.2554   79.0689  221.7357 H   0  0  0  0  0  0  0  0  0  0  0  0
  138.2570   79.9088  220.8869 H   0  0  0  0  0  0  0  0  0  0  0  0
  139.2148   79.1492  222.1327 H   0  0  0  0  0  0  0  0  0  0  0  0
  138.1984   77.9752  219.4919 H   0  0  0  0  0  0  0  0  0  0  0  0
  140.3373   76.7657  219.6830 H   0  0  0  0  0  0  0  0  0  0  0  0
  139.9661   78.3739  218.8715 H   0  0  0  0  0  0  0  0  0  0  0  0
  142.1669   80.6958  220.6841 H   0  0  0  0  0  0  0  0  0  0  0  0
  143.0043   81.7867  222.7042 H   0  0  0  0  0  0  0  0  0  0  0  0
  142.7814   80.6771  224.8797 H   0  0  0  0  0  0  0  0  0  0  0  0
  141.7188   78.4494  225.0605 H   0  0  0  0  0  0  0  0  0  0  0  0
  140.8869   77.3560  223.0206 H   0  0  0  0  0  0  0  0  0  0  0  0
  138.4290   69.2279  222.4526 H   0  0  0  0  0  0  0  0  0  0  0  0
  138.9801   67.7449  224.3581 H   0  0  0  0  0  0  0  0  0  0  0  0
  139.8947   67.4632  226.5472 H   0  0  0  0  0  0  0  0  0  0  0  0
  141.4885   70.8997  228.6360 H   0  0  0  0  0  0  0  0  0  0  0  0
  140.9134   72.3496  226.6985 H   0  0  0  0  0  0  0  0  0  0  0  0
  1  2  2  0
  2  3  1  0
  3  4  1  0
  4  5  1  0
  5  6  2  0
  5  7  1  0
  7  8  1  0
  8  9  1  0
  9 10  1  0
  9 11  1  0
 11 12  1  0
 12 13  1  0
 13 14  1  0
 14 15  1  0
 15 16  2  0
 16 17  1  0
 17 18  2  0
 18 19  1  0
 19 20  2  0
  2 21  1  0
 21 22  2  0
 22 23  1  0
 23 24  2  0
 24 25  1  0
 25 26  2  0
 26 27  1  0
 26 28  1  0
 28 29  2  0
 29 30  1  0
 30 31  2  0
 12  7  1  0
 20 15  1  0
 31 21  1  0
 30 24  1  0
  3 32  1  0
  4 33  1  0
  4 34  1  0
  8 35  1  0
  8 36  1  0
  9 37  1  6
 11 38  1  0
 11 39  1  0
 12 40  1  6
 13 41  1  0
 13 42  1  0
 16 43  1  0
 17 44  1  0
 18 45  1  0
 19 46  1  0
 20 47  1  0
 22 48  1  0
 23 49  1  0
 25 50  1  0
 28 51  1  0
 29 52  1  0
M  END
>  <smiles>  (7) 
O=C(NCC(=O)N1C[C@@H](F)C[C@H]1COc1ccccc1)c1ccc2cc(Cl)ccc2n1

>  <score_type>  (7) 
oracle

>  <origin>  (7) 
autodockgpu

>  <m_score__min__energy>  (7) 
-8.5399999999999991

>  <m_primary>  (7) 
energy

>  <rmsd>  (7) 
2.6116061656790297

>  <m_score__min__rmsd>  (7) 
2.6116061656790297

>  <meeko>  (7) 
{"free_energy": -7.89, "intermolecular_energy": -9.98, "internal_energy": -2.32, "cluster_size": 8, "cluster_id": 2, "rank_in_cluster": 2}

>  <energy>  (7) 
-8.21

>  <cluster_rmsd>  (7) 
0.61

>  <cluster>  (7) 
1

$$$$

     RDKit          3D

 52 55  0  0  0  0  0  0  0  0999 V2000
  140.0850   72.1630  220.7610 O   0  0  0  0  0  0  0  0  0  0  0  0
  139.9160   72.5970  221.9320 C   0  0  0  0  0  0  0  0  0  0  0  0
  139.6720   73.9660  222.2310 N   0  0  0  0  0  0  0  0  0  0  0  0
  139.6010   74.9820  221.1570 C   0  0  0  0  0  0  0  0  0  0  0  0
  140.8180   75.7790  221.1990 C   0  0  0  0  0  0  0  0  0  0  0  0
  140.9890   76.4890  222.2660 O   0  0  0  0  0  0  0  0  0  0  0  0
  141.8320   75.8880  220.2460 N   0  0  0  0  0  0  0  0  0  0  0  0
  142.6620   74.7190  219.8600 C   0  0  0  0  0  0  0  0  0  0  0  0
  142.5780   74.8660  218.3530 C   0  0  1  0  0  0  0  0  0  0  0  0
  141.6600   73.9980  217.8110 F   0  0  0  0  0  0  0  0  0  0  0  0
  142.2110   76.3350  218.0800 C   0  0  0  0  0  0  0  0  0  0  0  0
  142.3680   76.9510  219.4200 C   0  0  1  0  0  0  0  0  0  0  0  0
  141.8440   78.3060  219.6590 C   0  0  0  0  0  0  0  0  0  0  0  0
  141.8250   78.6910  220.9470 O   0  0  0  0  0  0  0  0  0  0  0  0
  141.8840   79.6960  221.8090 C   0  0  0  0  0  0  0  0  0  0  0  0
  142.5700   79.4400  223.0230 C   0  0  0  0  0  0  0  0  0  0  0  0
  142.7060   80.3760  224.0020 C   0  0  0  0  0  0  0  0  0  0  0  0
  142.1700   81.6120  223.8230 C   0  0  0  0  0  0  0  0  0  0  0  0
  141.4930   81.9360  222.6780 C   0  0  0  0  0  0  0  0  0  0  0  0
  141.3690   80.9670  221.7060 C   0  0  0  0  0  0  0  0  0  0  0  0
  139.9730   71.6280  223.0490 C   0  0  0  0  0  0  0  0  0  0  0  0
  139.5270   70.3350  222.8780 C   0  0  0  0  0  0  0  0  0  0  0  0
  139.5690   69.4100  223.9040 C   0  0  0  0  0  0  0  0  0  0  0  0
  140.0790   69.7960  225.1460 C   0  0  0  0  0  0  0  0  0  0  0  0
  140.1200   68.8840  226.1550 C   0  0  0  0  0  0  0  0  0  0  0  0
  140.6350   69.3050  227.3830 C   0  0  0  0  0  0  0  0  0  0  0  0
  140.7110   68.1640  228.7210 Cl  0  0  0  0  0  0  0  0  0  0  0  0
  141.0840   70.5990  227.5610 C   0  0  0  0  0  0  0  0  0  0  0  0
  141.0280   71.5020  226.5130 C   0  0  0  0  0  0  0  0  0  0  0  0
  140.5200   71.1020  225.2850 C   0  0  0  0  0  0  0  0  0  0  0  0
  140.4630   71.9820  224.2580 N   0  0  0  0  0  0  0  0  0  0  0  0
  139.5480   74.2160  223.2330 H   0  0  0  0  0  0  0  0  0  0  0  0
  139.5161   74.4844  220.1796 H   0  0  0  0  0  0  0  0  0  0  0  0
  138.7215   75.6263  221.3031 H   0  0  0  0  0  0  0  0  0  0  0  0
  143.6952   74.8058  220.2272 H   0  0  0  0  0  0  0  0  0  0  0  0
  142.3348   73.7491  220.2627 H   0  0  0  0  0  0  0  0  0  0  0  0
  143.5366   74.6109  217.8775 H   0  0  0  0  0  0  0  0  0  0  0  0
  142.8972   76.7885  217.3496 H   0  0  0  0  0  0  0  0  0  0  0  0
  141.2080   76.4668  217.6481 H   0  0  0  0  0  0  0  0  0  0  0  0
  143.4084   77.2370  219.6340 H   0  0  0  0  0  0  0  0  0  0  0  0
  142.4700   79.0170  219.1000 H   0  0  0  0  0  0  0  0  0  0  0  0
  140.7951   78.2917  219.3280 H   0  0  0  0  0  0  0  0  0  0  0  0
  143.0104   78.4443  223.1802 H   0  0  0  0  0  0  0  0  0  0  0  0
  143.2450   80.1341  224.9299 H   0  0  0  0  0  0  0  0  0  0  0  0
  142.2824   82.3677  224.6144 H   0  0  0  0  0  0  0  0  0  0  0  0
  141.0616   82.9382  222.5383 H   0  0  0  0  0  0  0  0  0  0  0  0
  140.8223   81.2272  220.7876 H   0  0  0  0  0  0  0  0  0  0  0  0
  139.1271   70.0314  221.8993 H   0  0  0  0  0  0  0  0  0  0  0  0
  139.2059   68.3839  223.7449 H   0  0  0  0  0  0  0  0  0  0  0  0
  139.7612   67.8545  226.0090 H   0  0  0  0  0  0  0  0  0  0  0  0
  141.4862   70.9122  228.5357 H   0  0  0  0  0  0  0  0  0  0  0  0
  141.3849   72.5330  226.6532 H   0  0  0  0  0  0  0  0  0  0  0  0
  1  2  2  0
  2  3  1  0
  3  4  1  0
  4  5  1  0
  5  6  2  0
  5  7  1  0
  7  8  1  0
  8  9  1  0
  9 10  1  0
  9 11  1  0
 11 12  1  0
 12 13  1  0
 13 14  1  0
 14 15  1  0
 15 16  2  0
 16 17  1  0
 17 18  2  0
 18 19  1  0
 19 20  2  0
  2 21  1  0
 21 22  2  0
 22 23  1  0
 23 24  2  0
 24 25  1  0
 25 26  2  0
 26 27  1  0
 26 28  1  0
 28 29  2  0
 29 30  1  0
 30 31  2  0
 12  7  1  0
 20 15  1  0
 31 21  1  0
 30 24  1  0
  3 32  1  0
  4 33  1  0
  4 34  1  0
  8 35  1  0
  8 36  1  0
  9 37  1  6
 11 38  1  0
 11 39  1  0
 12 40  1  1
 13 41  1  0
 13 42  1  0
 16 43  1  0
 17 44  1  0
 18 45  1  0
 19 46  1  0
 20 47  1  0
 22 48  1  0
 23 49  1  0
 25 50  1  0
 28 51  1  0
 29 52  1  0
M  END
>  <smiles>  (8) 
O=C(NCC(=O)N1C[C@@H](F)C[C@H]1COc1ccccc1)c1ccc2cc(Cl)ccc2n1

>  <score_type>  (8) 
oracle

>  <origin>  (8) 
autodockgpu

>  <m_score__min__energy>  (8) 
-8.5399999999999991

>  <m_primary>  (8) 
energy

>  <rmsd>  (8) 
2.0152700264196377

>  <m_score__min__rmsd>  (8) 
2.0152700264196377

>  <meeko>  (8) 
{"free_energy": -8.52, "intermolecular_energy": -10.61, "internal_energy": -1.67, "cluster_size": 15, "cluster_id": 1, "rank_in_cluster": 2}

>  <energy>  (8) 
-8.09

>  <cluster_rmsd>  (8) 
1.47

>  <cluster>  (8) 
1

$$$$

     RDKit          3D

 52 55  0  0  0  0  0  0  0  0999 V2000
  139.6370   71.9750  220.6760 O   0  0  0  0  0  0  0  0  0  0  0  0
  139.6760   72.4640  221.8360 C   0  0  0  0  0  0  0  0  0  0  0  0
  139.6240   73.8610  222.0970 N   0  0  0  0  0  0  0  0  0  0  0  0
  139.5180   74.8420  220.9940 C   0  0  0  0  0  0  0  0  0  0  0  0
  140.2790   76.0270  221.3590 C   0  0  0  0  0  0  0  0  0  0  0  0
  140.9700   75.9390  222.4480 O   0  0  0  0  0  0  0  0  0  0  0  0
  140.3710   77.2530  220.6970 N   0  0  0  0  0  0  0  0  0  0  0  0
  140.0900   78.5340  221.3930 C   0  0  0  0  0  0  0  0  0  0  0  0
  141.3090   79.3130  220.9420 C   0  0  1  0  0  0  0  0  0  0  0  0
  142.2740   79.3530  221.9210 F   0  0  0  0  0  0  0  0  0  0  0  0
  141.8170   78.6230  219.6640 C   0  0  0  0  0  0  0  0  0  0  0  0
  140.7110   77.6830  219.3560 C   0  0  1  0  0  0  0  0  0  0  0  0
  140.9200   76.6260  218.3520 C   0  0  0  0  0  0  0  0  0  0  0  0
  142.0760   75.9500  218.4680 O   0  0  0  0  0  0  0  0  0  0  0  0
  142.8370   75.1650  219.2190 C   0  0  0  0  0  0  0  0  0  0  0  0
  142.3070   73.8860  219.5230 C   0  0  0  0  0  0  0  0  0  0  0  0
  142.9740   72.9770  220.2860 C   0  0  0  0  0  0  0  0  0  0  0  0
  144.1990   73.2930  220.7830 C   0  0  0  0  0  0  0  0  0  0  0  0
  144.7770   74.5080  220.5330 C   0  0  0  0  0  0  0  0  0  0  0  0
  144.0770   75.4080  219.7600 C   0  0  0  0  0  0  0  0  0  0  0  0
  139.7800   71.5330  222.9820 C   0  0  0  0  0  0  0  0  0  0  0  0
  139.3350   70.2330  222.8700 C   0  0  0  0  0  0  0  0  0  0  0  0
  139.4210   69.3430  223.9250 C   0  0  0  0  0  0  0  0  0  0  0  0
  139.9730   69.7730  225.1340 C   0  0  0  0  0  0  0  0  0  0  0  0
  140.0560   68.8950  226.1690 C   0  0  0  0  0  0  0  0  0  0  0  0
  140.6130   69.3590  227.3630 C   0  0  0  0  0  0  0  0  0  0  0  0
  140.7450   68.2640  228.7350 Cl  0  0  0  0  0  0  0  0  0  0  0  0
  141.0620   70.6600  227.4820 C   0  0  0  0  0  0  0  0  0  0  0  0
  140.9620   71.5280  226.4070 C   0  0  0  0  0  0  0  0  0  0  0  0
  140.4110   71.0840  225.2130 C   0  0  0  0  0  0  0  0  0  0  0  0
  140.3120   71.9290  224.1600 N   0  0  0  0  0  0  0  0  0  0  0  0
  139.6650   74.1580  223.0940 H   0  0  0  0  0  0  0  0  0  0  0  0
  139.9272   74.4077  220.0699 H   0  0  0  0  0  0  0  0  0  0  0  0
  138.4641   75.1071  220.8238 H   0  0  0  0  0  0  0  0  0  0  0  0
  139.1531   78.9955  221.0476 H   0  0  0  0  0  0  0  0  0  0  0  0
  139.9469   78.4626  222.4813 H   0  0  0  0  0  0  0  0  0  0  0  0
  141.0530   80.3637  220.7406 H   0  0  0  0  0  0  0  0  0  0  0  0
  141.9627   79.3483  218.8499 H   0  0  0  0  0  0  0  0  0  0  0  0
  142.7937   78.1318  219.7852 H   0  0  0  0  0  0  0  0  0  0  0  0
  139.8955   78.1591  218.7918 H   0  0  0  0  0  0  0  0  0  0  0  0
  140.0936   75.9053  218.4389 H   0  0  0  0  0  0  0  0  0  0  0  0
  140.9582   77.1332  217.3766 H   0  0  0  0  0  0  0  0  0  0  0  0
  141.3169   73.6171  219.1264 H   0  0  0  0  0  0  0  0  0  0  0  0
  142.5255   71.9953  220.4984 H   0  0  0  0  0  0  0  0  0  0  0  0
  144.7368   72.5571  221.3988 H   0  0  0  0  0  0  0  0  0  0  0  0
  145.7693   74.7580  220.9366 H   0  0  0  0  0  0  0  0  0  0  0  0
  144.5410   76.3856  219.5626 H   0  0  0  0  0  0  0  0  0  0  0  0
  138.9006   69.8951  221.9175 H   0  0  0  0  0  0  0  0  0  0  0  0
  139.0595   68.3101  223.8136 H   0  0  0  0  0  0  0  0  0  0  0  0
  139.6984   67.8595  226.0699 H   0  0  0  0  0  0  0  0  0  0  0  0
  141.4988   71.0067  228.4302 H   0  0  0  0  0  0  0  0  0  0  0  0
  141.3178   72.5648  226.4993 H   0  0  0  0  0  0  0  0  0  0  0  0
  1  2  2  0
  2  3  1  0
  3  4  1  0
  4  5  1  0
  5  6  2  0
  5  7  1  0
  7  8  1  0
  8  9  1  0
  9 10  1  0
  9 11  1  0
 11 12  1  0
 12 13  1  0
 13 14  1  0
 14 15  1  0
 15 16  2  0
 16 17  1  0
 17 18  2  0
 18 19  1  0
 19 20  2  0
  2 21  1  0
 21 22  2  0
 22 23  1  0
 23 24  2  0
 24 25  1  0
 25 26  2  0
 26 27  1  0
 26 28  1  0
 28 29  2  0
 29 30  1  0
 30 31  2  0
 12  7  1  0
 20 15  1  0
 31 21  1  0
 30 24  1  0
  3 32  1  0
  4 33  1  0
  4 34  1  0
  8 35  1  0
  8 36  1  0
  9 37  1  6
 11 38  1  0
 11 39  1  0
 12 40  1  6
 13 41  1  0
 13 42  1  0
 16 43  1  0
 17 44  1  0
 18 45  1  0
 19 46  1  0
 20 47  1  0
 22 48  1  0
 23 49  1  0
 25 50  1  0
 28 51  1  0
 29 52  1  0
M  END
>  <smiles>  (9) 
O=C(NCC(=O)N1C[C@@H](F)C[C@H]1COc1ccccc1)c1ccc2cc(Cl)ccc2n1

>  <score_type>  (9) 
oracle

>  <origin>  (9) 
autodockgpu

>  <m_score__min__energy>  (9) 
-8.5399999999999991

>  <m_primary>  (9) 
energy

>  <rmsd>  (9) 
2.432502351281837

>  <m_score__min__rmsd>  (9) 
2.432502351281837

>  <meeko>  (9) 
{"free_energy": -7.28, "intermolecular_energy": -9.37, "internal_energy": -2.78, "cluster_size": 11, "cluster_id": 4, "rank_in_cluster": 11}

>  <energy>  (9) 
-8.0

>  <cluster_rmsd>  (9) 
1.07

>  <cluster>  (9) 
1

$$$$

     RDKit          3D

 52 55  0  0  0  0  0  0  0  0999 V2000
  137.5090   73.0230  220.6520 O   0  0  0  0  0  0  0  0  0  0  0  0
  137.5160   73.4010  221.8550 C   0  0  0  0  0  0  0  0  0  0  0  0
  137.1250   72.5660  222.9380 N   0  0  0  0  0  0  0  0  0  0  0  0
  136.6760   71.1750  222.7080 C   0  0  0  0  0  0  0  0  0  0  0  0
  137.8390   70.3020  222.7620 C   0  0  0  0  0  0  0  0  0  0  0  0
  137.7580   69.3070  223.5820 O   0  0  0  0  0  0  0  0  0  0  0  0
  139.0370   70.3870  222.0500 N   0  0  0  0  0  0  0  0  0  0  0  0
  139.3010   69.5250  220.8700 C   0  0  0  0  0  0  0  0  0  0  0  0
  139.7970   70.5910  219.9130 C   0  0  1  0  0  0  0  0  0  0  0  0
  138.8170   70.9690  219.0260 F   0  0  0  0  0  0  0  0  0  0  0  0
  140.2700   71.7690  220.7820 C   0  0  0  0  0  0  0  0  0  0  0  0
  140.2450   71.1820  222.1450 C   0  0  1  0  0  0  0  0  0  0  0  0
  140.3670   72.0670  223.3150 C   0  0  0  0  0  0  0  0  0  0  0  0
  140.8920   71.4920  224.4110 O   0  0  0  0  0  0  0  0  0  0  0  0
  140.6860   71.0490  225.6440 C   0  0  0  0  0  0  0  0  0  0  0  0
  141.0830   71.9130  226.6950 C   0  0  0  0  0  0  0  0  0  0  0  0
  140.9350   71.5880  228.0090 C   0  0  0  0  0  0  0  0  0  0  0  0
  140.3850   70.3920  228.3430 C   0  0  0  0  0  0  0  0  0  0  0  0
  139.9770   69.5030  227.3850 C   0  0  0  0  0  0  0  0  0  0  0  0
  140.1410   69.8580  226.0640 C   0  0  0  0  0  0  0  0  0  0  0  0
  137.9570   74.7820  222.1490 C   0  0  0  0  0  0  0  0  0  0  0  0
  137.0340   75.7640  222.4420 C   0  0  0  0  0  0  0  0  0  0  0  0
  137.4190   77.0620  222.7210 C   0  0  0  0  0  0  0  0  0  0  0  0
  138.7770   77.3860  222.7070 C   0  0  0  0  0  0  0  0  0  0  0  0
  139.1530   78.6640  222.9820 C   0  0  0  0  0  0  0  0  0  0  0  0
  140.5200   78.9530  222.9600 C   0  0  0  0  0  0  0  0  0  0  0  0
  141.0600   80.5910  223.3090 Cl  0  0  0  0  0  0  0  0  0  0  0  0
  141.4500   77.9740  222.6680 C   0  0  0  0  0  0  0  0  0  0  0  0
  141.0320   76.6820  222.3920 C   0  0  0  0  0  0  0  0  0  0  0  0
  139.6790   76.3770  222.4110 C   0  0  0  0  0  0  0  0  0  0  0  0
  139.2670   75.1160  222.1410 N   0  0  0  0  0  0  0  0  0  0  0  0
  137.1680   72.9790  223.8920 H   0  0  0  0  0  0  0  0  0  0  0  0
  135.9561   70.8834  223.4869 H   0  0  0  0  0  0  0  0  0  0  0  0
  136.1873   71.0931  221.7259 H   0  0  0  0  0  0  0  0  0  0  0  0
  140.0688   68.7649  221.0765 H   0  0  0  0  0  0  0  0  0  0  0  0
  138.4474   68.9281  220.5164 H   0  0  0  0  0  0  0  0  0  0  0  0
  140.6219   70.2109  219.2925 H   0  0  0  0  0  0  0  0  0  0  0  0
  141.2853   72.0878  220.5035 H   0  0  0  0  0  0  0  0  0  0  0  0
  139.6499   72.6716  220.6782 H   0  0  0  0  0  0  0  0  0  0  0  0
  141.1619   70.6221  222.3813 H   0  0  0  0  0  0  0  0  0  0  0  0
  141.0079   72.9160  223.0351 H   0  0  0  0  0  0  0  0  0  0  0  0
  139.3424   72.3628  223.5844 H   0  0  0  0  0  0  0  0  0  0  0  0
  141.5287   72.8855  226.4389 H   0  0  0  0  0  0  0  0  0  0  0  0
  141.2582   72.2882  228.7934 H   0  0  0  0  0  0  0  0  0  0  0  0
  140.2648   70.1322  229.4051 H   0  0  0  0  0  0  0  0  0  0  0  0
  139.5322   68.5356  227.6614 H   0  0  0  0  0  0  0  0  0  0  0  0
  139.8148   69.1423  225.2950 H   0  0  0  0  0  0  0  0  0  0  0  0
  135.9643   75.5078  222.4540 H   0  0  0  0  0  0  0  0  0  0  0  0
  136.6654   77.8295  222.9510 H   0  0  0  0  0  0  0  0  0  0  0  0
  138.4091   79.4407  223.2130 H   0  0  0  0  0  0  0  0  0  0  0  0
  142.5220   78.2201  222.6546 H   0  0  0  0  0  0  0  0  0  0  0  0
  141.7706   75.9010  222.1586 H   0  0  0  0  0  0  0  0  0  0  0  0
  1  2  2  0
  2  3  1  0
  3  4  1  0
  4  5  1  0
  5  6  2  0
  5  7  1  0
  7  8  1  0
  8  9  1  0
  9 10  1  0
  9 11  1  0
 11 12  1  0
 12 13  1  0
 13 14  1  0
 14 15  1  0
 15 16  2  0
 16 17  1  0
 17 18  2  0
 18 19  1  0
 19 20  2  0
  2 21  1  0
 21 22  2  0
 22 23  1  0
 23 24  2  0
 24 25  1  0
 25 26  2  0
 26 27  1  0
 26 28  1  0
 28 29  2  0
 29 30  1  0
 30 31  2  0
 12  7  1  0
 20 15  1  0
 31 21  1  0
 30 24  1  0
  3 32  1  0
  4 33  1  0
  4 34  1  0
  8 35  1  0
  8 36  1  0
  9 37  1  6
 11 38  1  0
 11 39  1  0
 12 40  1  6
 13 41  1  0
 13 42  1  0
 16 43  1  0
 17 44  1  0
 18 45  1  0
 19 46  1  0
 20 47  1  0
 22 48  1  0
 23 49  1  0
 25 50  1  0
 28 51  1  0
 29 52  1  0
M  END
>  <smiles>  (10) 
O=C(NCC(=O)N1C[C@@H](F)C[C@H]1COc1ccccc1)c1ccc2cc(Cl)ccc2n1

>  <score_type>  (10) 
oracle

>  <origin>  (10) 
autodockgpu

>  <m_score__min__energy>  (10) 
-8.5399999999999991

>  <m_primary>  (10) 
energy

>  <rmsd>  (10) 
6.7863908813502585

>  <m_score__min__rmsd>  (10) 
6.7863908813502585

>  <meeko>  (10) 
{"free_energy": -7.3, "intermolecular_energy": -9.38, "internal_energy": -2.08, "cluster_size": 1, "cluster_id": 7, "rank_in_cluster": 1}

>  <energy>  (10) 
-7.92

>  <cluster_rmsd>  (10) 
1.67

>  <cluster>  (10) 
1

$$$$

     RDKit          3D

 52 55  0  0  0  0  0  0  0  0999 V2000
  139.4070   72.0030  220.7260 O   0  0  0  0  0  0  0  0  0  0  0  0
  139.5130   72.4730  221.8910 C   0  0  0  0  0  0  0  0  0  0  0  0
  139.4880   73.8660  222.1760 N   0  0  0  0  0  0  0  0  0  0  0  0
  139.3330   74.8660  221.0960 C   0  0  0  0  0  0  0  0  0  0  0  0
  140.5760   75.6120  220.9790 C   0  0  0  0  0  0  0  0  0  0  0  0
  141.3080   75.6560  222.0430 O   0  0  0  0  0  0  0  0  0  0  0  0
  141.0950   76.2900  219.8750 N   0  0  0  0  0  0  0  0  0  0  0  0
  142.2940   75.7940  219.1520 C   0  0  0  0  0  0  0  0  0  0  0  0
  141.7670   75.9030  217.7340 C   0  0  1  0  0  0  0  0  0  0  0  0
  141.3570   74.6820  217.2530 F   0  0  0  0  0  0  0  0  0  0  0  0
  140.6140   76.9200  217.7750 C   0  0  0  0  0  0  0  0  0  0  0  0
  140.7480   77.4890  219.1390 C   0  0  1  0  0  0  0  0  0  0  0  0
  139.6590   78.3140  219.6880 C   0  0  0  0  0  0  0  0  0  0  0  0
  140.0160   79.1360  220.6900 O   0  0  0  0  0  0  0  0  0  0  0  0
  140.7860   79.3280  221.7520 C   0  0  0  0  0  0  0  0  0  0  0  0
  141.7870   80.3240  221.6270 C   0  0  0  0  0  0  0  0  0  0  0  0
  142.6530   80.6260  222.6340 C   0  0  0  0  0  0  0  0  0  0  0  0
  142.5660   79.9560  223.8120 C   0  0  0  0  0  0  0  0  0  0  0  0
  141.6260   78.9810  224.0100 C   0  0  0  0  0  0  0  0  0  0  0  0
  140.7660   78.6950  222.9730 C   0  0  0  0  0  0  0  0  0  0  0  0
  139.6690   71.5230  223.0140 C   0  0  0  0  0  0  0  0  0  0  0  0
  139.2570   70.2130  222.8860 C   0  0  0  0  0  0  0  0  0  0  0  0
  139.3910   69.3050  223.9200 C   0  0  0  0  0  0  0  0  0  0  0  0
  139.9600   69.7260  225.1240 C   0  0  0  0  0  0  0  0  0  0  0  0
  140.0910   68.8300  226.1390 C   0  0  0  0  0  0  0  0  0  0  0  0
  140.6640   69.2850  227.3290 C   0  0  0  0  0  0  0  0  0  0  0  0
  140.8570   68.1670  228.6750 Cl  0  0  0  0  0  0  0  0  0  0  0  0
  141.0790   70.5960  227.4640 C   0  0  0  0  0  0  0  0  0  0  0  0
  140.9310   71.4820  226.4100 C   0  0  0  0  0  0  0  0  0  0  0  0
  140.3640   71.0470  225.2200 C   0  0  0  0  0  0  0  0  0  0  0  0
  140.2170   71.9090  224.1880 N   0  0  0  0  0  0  0  0  0  0  0  0
  139.5850   74.1460  223.1740 H   0  0  0  0  0  0  0  0  0  0  0  0
  139.1150   74.3560  220.1460 H   0  0  0  0  0  0  0  0  0  0  0  0
  138.5030   75.5490  221.3297 H   0  0  0  0  0  0  0  0  0  0  0  0
  143.1720   76.4356  219.3177 H   0  0  0  0  0  0  0  0  0  0  0  0
  142.6529   74.7983  219.4516 H   0  0  0  0  0  0  0  0  0  0  0  0
  142.5558   76.2394  217.0451 H   0  0  0  0  0  0  0  0  0  0  0  0
  140.7385   77.6957  217.0050 H   0  0  0  0  0  0  0  0  0  0  0  0
  139.6269   76.4775  217.5756 H   0  0  0  0  0  0  0  0  0  0  0  0
  141.4866   78.3028  219.1870 H   0  0  0  0  0  0  0  0  0  0  0  0
  139.2522   78.9287  218.8715 H   0  0  0  0  0  0  0  0  0  0  0  0
  138.9273   77.6116  220.1138 H   0  0  0  0  0  0  0  0  0  0  0  0
  141.8676   80.8752  220.6785 H   0  0  0  0  0  0  0  0  0  0  0  0
  143.4162   81.4058  222.4943 H   0  0  0  0  0  0  0  0  0  0  0  0
  143.2658   80.2021  224.6243 H   0  0  0  0  0  0  0  0  0  0  0  0
  141.5596   78.4429  224.9671 H   0  0  0  0  0  0  0  0  0  0  0  0
  140.0135   77.9085  223.1317 H   0  0  0  0  0  0  0  0  0  0  0  0
  138.8103   69.8821  221.9368 H   0  0  0  0  0  0  0  0  0  0  0  0
  139.0541   68.2652  223.7961 H   0  0  0  0  0  0  0  0  0  0  0  0
  139.7586   67.7874  226.0271 H   0  0  0  0  0  0  0  0  0  0  0  0
  141.5272   70.9361  228.4092 H   0  0  0  0  0  0  0  0  0  0  0  0
  141.2613   72.5259  226.5154 H   0  0  0  0  0  0  0  0  0  0  0  0
  1  2  2  0
  2  3  1  0
  3  4  1  0
  4  5  1  0
  5  6  2  0
  5  7  1  0
  7  8  1  0
  8  9  1  0
  9 10  1  0
  9 11  1  0
 11 12  1  0
 12 13  1  0
 13 14  1  0
 14 15  1  0
 15 16  2  0
 16 17  1  0
 17 18  2  0
 18 19  1  0
 19 20  2  0
  2 21  1  0
 21 22  2  0
 22 23  1  0
 23 24  2  0
 24 25  1  0
 25 26  2  0
 26 27  1  0
 26 28  1  0
 28 29  2  0
 29 30  1  0
 30 31  2  0
 12  7  1  0
 20 15  1  0
 31 21  1  0
 30 24  1  0
  3 32  1  0
  4 33  1  0
  4 34  1  0
  8 35  1  0
  8 36  1  0
  9 37  1  6
 11 38  1  0
 11 39  1  0
 12 40  1  6
 13 41  1  0
 13 42  1  0
 16 43  1  0
 17 44  1  0
 18 45  1  0
 19 46  1  0
 20 47  1  0
 22 48  1  0
 23 49  1  0
 25 50  1  0
 28 51  1  0
 29 52  1  0
M  END
>  <smiles>  (11) 
O=C(NCC(=O)N1C[C@@H](F)C[C@H]1COc1ccccc1)c1ccc2cc(Cl)ccc2n1

>  <score_type>  (11) 
oracle

>  <origin>  (11) 
autodockgpu

>  <m_score__min__energy>  (11) 
-8.5399999999999991

>  <m_primary>  (11) 
energy

>  <rmsd>  (11) 
1.7157183494962116

>  <m_score__min__rmsd>  (11) 
1.7157183494962116

>  <meeko>  (11) 
{"free_energy": -7.85, "intermolecular_energy": -9.94, "internal_energy": -2.04, "cluster_size": 15, "cluster_id": 1, "rank_in_cluster": 12}

>  <energy>  (11) 
-7.86

>  <cluster_rmsd>  (11) 
1.46

>  <cluster>  (11) 
1

$$$$

     RDKit          3D

 52 55  0  0  0  0  0  0  0  0999 V2000
  139.5020   71.9600  220.6930 O   0  0  0  0  0  0  0  0  0  0  0  0
  139.5660   72.4340  221.8580 C   0  0  0  0  0  0  0  0  0  0  0  0
  139.4910   73.8260  222.1410 N   0  0  0  0  0  0  0  0  0  0  0  0
  139.3300   74.8190  221.0550 C   0  0  0  0  0  0  0  0  0  0  0  0
  139.9470   76.0670  221.4790 C   0  0  0  0  0  0  0  0  0  0  0  0
  140.3030   76.1250  222.7200 O   0  0  0  0  0  0  0  0  0  0  0  0
  140.2120   77.2160  220.7320 N   0  0  0  0  0  0  0  0  0  0  0  0
  139.5280   78.5030  221.0200 C   0  0  0  0  0  0  0  0  0  0  0  0
  140.7420   79.4120  221.0200 C   0  0  1  0  0  0  0  0  0  0  0  0
  141.1540   79.7040  222.2990 F   0  0  0  0  0  0  0  0  0  0  0  0
  141.8330   78.6810  220.2190 C   0  0  0  0  0  0  0  0  0  0  0  0
  141.0780   77.5520  219.6200 C   0  0  1  0  0  0  0  0  0  0  0  0
  141.8140   76.4430  218.9930 C   0  0  0  0  0  0  0  0  0  0  0  0
  142.7820   75.9000  219.7510 O   0  0  0  0  0  0  0  0  0  0  0  0
  143.4060   74.7950  220.1380 C   0  0  0  0  0  0  0  0  0  0  0  0
  142.6030   73.6320  220.2570 C   0  0  0  0  0  0  0  0  0  0  0  0
  143.1060   72.4290  220.6470 C   0  0  0  0  0  0  0  0  0  0  0  0
  144.4290   72.3210  220.9380 C   0  0  0  0  0  0  0  0  0  0  0  0
  145.2680   73.3990  220.8470 C   0  0  0  0  0  0  0  0  0  0  0  0
  144.7300   74.6030  220.4510 C   0  0  0  0  0  0  0  0  0  0  0  0
  139.7250   71.4900  222.9870 C   0  0  0  0  0  0  0  0  0  0  0  0
  139.3600   70.1680  222.8510 C   0  0  0  0  0  0  0  0  0  0  0  0
  139.4980   69.2650  223.8890 C   0  0  0  0  0  0  0  0  0  0  0  0
  140.0220   69.7060  225.1070 C   0  0  0  0  0  0  0  0  0  0  0  0
  140.1580   68.8160  226.1260 C   0  0  0  0  0  0  0  0  0  0  0  0
  140.6850   69.2910  227.3290 C   0  0  0  0  0  0  0  0  0  0  0  0
  140.8810   68.1810  228.6810 Cl  0  0  0  0  0  0  0  0  0  0  0  0
  141.0530   70.6150  227.4730 C   0  0  0  0  0  0  0  0  0  0  0  0
  140.9020   71.4940  226.4130 C   0  0  0  0  0  0  0  0  0  0  0  0
  140.3800   71.0400  225.2110 C   0  0  0  0  0  0  0  0  0  0  0  0
  140.2300   71.8960  224.1730 N   0  0  0  0  0  0  0  0  0  0  0  0
  139.5560   74.1100  223.1400 H   0  0  0  0  0  0  0  0  0  0  0  0
  139.8213   74.4533  220.1413 H   0  0  0  0  0  0  0  0  0  0  0  0
  138.2624   74.9779  220.8432 H   0  0  0  0  0  0  0  0  0  0  0  0
  138.8080   78.7740  220.2338 H   0  0  0  0  0  0  0  0  0  0  0  0
  138.9175   78.5236  221.9348 H   0  0  0  0  0  0  0  0  0  0  0  0
  140.5074   80.3828  220.5590 H   0  0  0  0  0  0  0  0  0  0  0  0
  142.2609   79.3316  219.4420 H   0  0  0  0  0  0  0  0  0  0  0  0
  142.6915   78.3640  220.8292 H   0  0  0  0  0  0  0  0  0  0  0  0
  140.5641   77.8333  218.6890 H   0  0  0  0  0  0  0  0  0  0  0  0
  141.0913   75.6517  218.7449 H   0  0  0  0  0  0  0  0  0  0  0  0
  142.3173   76.8687  218.1124 H   0  0  0  0  0  0  0  0  0  0  0  0
  141.5303   73.7053  220.0247 H   0  0  0  0  0  0  0  0  0  0  0  0
  142.4472   71.5516  220.7260 H   0  0  0  0  0  0  0  0  0  0  0  0
  144.8339   71.3479  221.2530 H   0  0  0  0  0  0  0  0  0  0  0  0
  146.3384   73.3062  221.0829 H   0  0  0  0  0  0  0  0  0  0  0  0
  145.4050   75.4687  220.3806 H   0  0  0  0  0  0  0  0  0  0  0  0
  138.9481   69.8221  221.8915 H   0  0  0  0  0  0  0  0  0  0  0  0
  139.1995   68.2144  223.7578 H   0  0  0  0  0  0  0  0  0  0  0  0
  139.8643   67.7626  226.0074 H   0  0  0  0  0  0  0  0  0  0  0  0
  141.4655   70.9708  228.4286 H   0  0  0  0  0  0  0  0  0  0  0  0
  141.1951   72.5484  226.5243 H   0  0  0  0  0  0  0  0  0  0  0  0
  1  2  2  0
  2  3  1  0
  3  4  1  0
  4  5  1  0
  5  6  2  0
  5  7  1  0
  7  8  1  0
  8  9  1  0
  9 10  1  0
  9 11  1  0
 11 12  1  0
 12 13  1  0
 13 14  1  0
 14 15  1  0
 15 16  2  0
 16 17  1  0
 17 18  2  0
 18 19  1  0
 19 20  2  0
  2 21  1  0
 21 22  2  0
 22 23  1  0
 23 24  2  0
 24 25  1  0
 25 26  2  0
 26 27  1  0
 26 28  1  0
 28 29  2  0
 29 30  1  0
 30 31  2  0
 12  7  1  0
 20 15  1  0
 31 21  1  0
 30 24  1  0
  3 32  1  0
  4 33  1  0
  4 34  1  0
  8 35  1  0
  8 36  1  0
  9 37  1  6
 11 38  1  0
 11 39  1  0
 12 40  1  6
 13 41  1  0
 13 42  1  0
 16 43  1  0
 17 44  1  0
 18 45  1  0
 19 46  1  0
 20 47  1  0
 22 48  1  0
 23 49  1  0
 25 50  1  0
 28 51  1  0
 29 52  1  0
M  END
>  <smiles>  (12) 
O=C(NCC(=O)N1C[C@@H](F)C[C@H]1COc1ccccc1)c1ccc2cc(Cl)ccc2n1

>  <score_type>  (12) 
oracle

>  <origin>  (12) 
autodockgpu

>  <m_score__min__energy>  (12) 
-8.5399999999999991

>  <m_primary>  (12) 
energy

>  <rmsd>  (12) 
2.349448273663686

>  <m_score__min__rmsd>  (12) 
2.349448273663686

>  <meeko>  (12) 
{"free_energy": -7.74, "intermolecular_energy": -9.83, "internal_energy": -2.74, "cluster_size": 11, "cluster_id": 4, "rank_in_cluster": 6}

>  <energy>  (12) 
-7.85

>  <cluster_rmsd>  (12) 
0.96

>  <cluster>  (12) 
1

$$$$

     RDKit          3D

 52 55  0  0  0  0  0  0  0  0999 V2000
  133.5820   69.3010  226.2240 O   0  0  0  0  0  0  0  0  0  0  0  0
  134.0810   70.3790  225.8040 C   0  0  0  0  0  0  0  0  0  0  0  0
  135.1560   70.4320  224.8740 N   0  0  0  0  0  0  0  0  0  0  0  0
  135.7630   69.1940  224.3350 C   0  0  0  0  0  0  0  0  0  0  0  0
  137.2060   69.2850  224.4900 C   0  0  0  0  0  0  0  0  0  0  0  0
  137.6340   69.4250  225.7010 O   0  0  0  0  0  0  0  0  0  0  0  0
  138.2010   69.2420  223.5110 N   0  0  0  0  0  0  0  0  0  0  0  0
  138.4670   68.0080  222.7280 C   0  0  0  0  0  0  0  0  0  0  0  0
  138.5020   68.6190  221.3420 C   0  0  1  0  0  0  0  0  0  0  0  0
  137.3190   68.4170  220.6700 F   0  0  0  0  0  0  0  0  0  0  0  0
  138.8040   70.1160  221.5340 C   0  0  0  0  0  0  0  0  0  0  0  0
  139.1650   70.1790  222.9720 C   0  0  1  0  0  0  0  0  0  0  0  0
  139.2600   71.4900  223.6350 C   0  0  0  0  0  0  0  0  0  0  0  0
  140.1350   71.5510  224.6540 O   0  0  0  0  0  0  0  0  0  0  0  0
  140.4480   71.1520  225.8790 C   0  0  0  0  0  0  0  0  0  0  0  0
  140.5250   69.7500  226.0800 C   0  0  0  0  0  0  0  0  0  0  0  0
  140.8310   69.1970  227.2850 C   0  0  0  0  0  0  0  0  0  0  0  0
  141.0770   70.0060  228.3490 C   0  0  0  0  0  0  0  0  0  0  0  0
  141.0230   71.3690  228.2340 C   0  0  0  0  0  0  0  0  0  0  0  0
  140.7080   71.9000  227.0020 C   0  0  0  0  0  0  0  0  0  0  0  0
  133.5170   71.6520  226.3060 C   0  0  0  0  0  0  0  0  0  0  0  0
  132.3860   71.6520  227.0950 C   0  0  0  0  0  0  0  0  0  0  0  0
  131.8380   72.8270  227.5770 C   0  0  0  0  0  0  0  0  0  0  0  0
  132.4460   74.0420  227.2560 C   0  0  0  0  0  0  0  0  0  0  0  0
  131.9050   75.1960  227.7320 C   0  0  0  0  0  0  0  0  0  0  0  0
  132.5390   76.3930  227.3910 C   0  0  0  0  0  0  0  0  0  0  0  0
  131.8800   77.9150  227.9810 Cl  0  0  0  0  0  0  0  0  0  0  0  0
  133.6720   76.3990  226.6010 C   0  0  0  0  0  0  0  0  0  0  0  0
  134.1970   75.2050  226.1330 C   0  0  0  0  0  0  0  0  0  0  0  0
  133.5810   74.0070  226.4620 C   0  0  0  0  0  0  0  0  0  0  0  0
  134.0900   72.8380  226.0070 N   0  0  0  0  0  0  0  0  0  0  0  0
  135.4940   71.3760  224.5950 H   0  0  0  0  0  0  0  0  0  0  0  0
  135.3841   68.3227  224.8893 H   0  0  0  0  0  0  0  0  0  0  0  0
  135.5037   69.0776  223.2724 H   0  0  0  0  0  0  0  0  0  0  0  0
  139.4266   67.5442  223.0000 H   0  0  0  0  0  0  0  0  0  0  0  0
  137.7455   67.1898  222.8694 H   0  0  0  0  0  0  0  0  0  0  0  0
  139.2757   68.1432  220.7215 H   0  0  0  0  0  0  0  0  0  0  0  0
  139.6411   70.4391  220.8978 H   0  0  0  0  0  0  0  0  0  0  0  0
  137.9673   70.7749  221.2587 H   0  0  0  0  0  0  0  0  0  0  0  0
  140.2201   69.9277  223.1551 H   0  0  0  0  0  0  0  0  0  0  0  0
  139.5621   72.2321  222.8813 H   0  0  0  0  0  0  0  0  0  0  0  0
  138.2688   71.6863  224.0697 H   0  0  0  0  0  0  0  0  0  0  0  0
  140.3295   69.0830  225.2275 H   0  0  0  0  0  0  0  0  0  0  0  0
  140.8789   68.1038  227.3971 H   0  0  0  0  0  0  0  0  0  0  0  0
  141.3244   69.5565  229.3220 H   0  0  0  0  0  0  0  0  0  0  0  0
  141.2247   72.0198  229.0976 H   0  0  0  0  0  0  0  0  0  0  0  0
  140.6616   72.9953  226.9115 H   0  0  0  0  0  0  0  0  0  0  0  0
  131.9079   70.6940  227.3473 H   0  0  0  0  0  0  0  0  0  0  0  0
  130.9351   72.8044  228.2049 H   0  0  0  0  0  0  0  0  0  0  0  0
  131.0028   75.1867  228.3613 H   0  0  0  0  0  0  0  0  0  0  0  0
  134.1576   77.3518  226.3433 H   0  0  0  0  0  0  0  0  0  0  0  0
  135.0988   75.2075  225.5031 H   0  0  0  0  0  0  0  0  0  0  0  0
  1  2  2  0
  2  3  1  0
  3  4  1  0
  4  5  1  0
  5  6  2  0
  5  7  1  0
  7  8  1  0
  8  9  1  0
  9 10  1  0
  9 11  1  0
 11 12  1  0
 12 13  1  0
 13 14  1  0
 14 15  1  0
 15 16  2  0
 16 17  1  0
 17 18  2  0
 18 19  1  0
 19 20  2  0
  2 21  1  0
 21 22  2  0
 22 23  1  0
 23 24  2  0
 24 25  1  0
 25 26  2  0
 26 27  1  0
 26 28  1  0
 28 29  2  0
 29 30  1  0
 30 31  2  0
 12  7  1  0
 20 15  1  0
 31 21  1  0
 30 24  1  0
  3 32  1  0
  4 33  1  0
  4 34  1  0
  8 35  1  0
  8 36  1  0
  9 37  1  6
 11 38  1  0
 11 39  1  0
 12 40  1  6
 13 41  1  0
 13 42  1  0
 16 43  1  0
 17 44  1  0
 18 45  1  0
 19 46  1  0
 20 47  1  0
 22 48  1  0
 23 49  1  0
 25 50  1  0
 28 51  1  0
 29 52  1  0
M  END
>  <smiles>  (13) 
O=C(NCC(=O)N1C[C@@H](F)C[C@H]1COc1ccccc1)c1ccc2cc(Cl)ccc2n1

>  <score_type>  (13) 
oracle

>  <origin>  (13) 
autodockgpu

>  <m_score__min__energy>  (13) 
-8.5399999999999991

>  <m_primary>  (13) 
energy

>  <rmsd>  (13) 
8.011902926077587

>  <m_score__min__rmsd>  (13) 
8.011902926077587

>  <meeko>  (13) 
{"free_energy": -7.93, "intermolecular_energy": -10.02, "internal_energy": -1.85, "cluster_size": 7, "cluster_id": 3, "rank_in_cluster": 3}

>  <energy>  (13) 
-7.8

>  <cluster_rmsd>  (13) 
1.96

>  <cluster>  (13) 
1

$$$$

     RDKit          3D

 52 55  0  0  0  0  0  0  0  0999 V2000
  138.9050   71.5870  220.9310 O   0  0  0  0  0  0  0  0  0  0  0  0
  138.4810   71.9210  222.0690 C   0  0  0  0  0  0  0  0  0  0  0  0
  137.6830   73.0770  222.2970 N   0  0  0  0  0  0  0  0  0  0  0  0
  137.2980   73.9720  221.1830 C   0  0  0  0  0  0  0  0  0  0  0  0
  137.1150   75.3140  221.7150 C   0  0  0  0  0  0  0  0  0  0  0  0
  136.7740   75.3840  222.9600 O   0  0  0  0  0  0  0  0  0  0  0  0
  137.2570   76.5440  221.0700 N   0  0  0  0  0  0  0  0  0  0  0  0
  136.9350   76.7060  219.6290 C   0  0  0  0  0  0  0  0  0  0  0  0
  136.0920   77.9630  219.7230 C   0  0  1  0  0  0  0  0  0  0  0  0
  134.7490   77.6750  219.6700 F   0  0  0  0  0  0  0  0  0  0  0  0
  136.4810   78.6490  221.0440 C   0  0  0  0  0  0  0  0  0  0  0  0
  137.6770   77.8750  221.4580 C   0  0  1  0  0  0  0  0  0  0  0  0
  138.2030   78.0330  222.8240 C   0  0  0  0  0  0  0  0  0  0  0  0
  139.5250   78.2650  222.9030 O   0  0  0  0  0  0  0  0  0  0  0  0
  140.4890   79.1450  223.1340 C   0  0  0  0  0  0  0  0  0  0  0  0
  141.8080   78.7220  222.8300 C   0  0  0  0  0  0  0  0  0  0  0  0
  142.8970   79.5170  223.0200 C   0  0  0  0  0  0  0  0  0  0  0  0
  142.7290   80.7700  223.5190 C   0  0  0  0  0  0  0  0  0  0  0  0
  141.4870   81.2500  223.8370 C   0  0  0  0  0  0  0  0  0  0  0  0
  140.4050   80.4220  223.6360 C   0  0  0  0  0  0  0  0  0  0  0  0
  138.8310   71.0640  223.2230 C   0  0  0  0  0  0  0  0  0  0  0  0
  138.3660   69.7690  223.3000 C   0  0  0  0  0  0  0  0  0  0  0  0
  138.6780   68.9470  224.3670 C   0  0  0  0  0  0  0  0  0  0  0  0
  139.4870   69.4420  225.3920 C   0  0  0  0  0  0  0  0  0  0  0  0
  139.7930   68.6320  226.4410 C   0  0  0  0  0  0  0  0  0  0  0  0
  140.6040   69.1600  227.4480 C   0  0  0  0  0  0  0  0  0  0  0  0
  141.0300   68.1530  228.8270 Cl  0  0  0  0  0  0  0  0  0  0  0  0
  141.0740   70.4570  227.3770 C   0  0  0  0  0  0  0  0  0  0  0  0
  140.7430   71.2560  226.2950 C   0  0  0  0  0  0  0  0  0  0  0  0
  139.9390   70.7470  225.2850 C   0  0  0  0  0  0  0  0  0  0  0  0
  139.6130   71.5240  224.2260 N   0  0  0  0  0  0  0  0  0  0  0  0
  137.3870   73.2610  223.2780 H   0  0  0  0  0  0  0  0  0  0  0  0
  138.0913   73.9793  220.4210 H   0  0  0  0  0  0  0  0  0  0  0  0
  136.3653   73.6187  220.7190 H   0  0  0  0  0  0  0  0  0  0  0  0
  137.8370   76.8574  219.0179 H   0  0  0  0  0  0  0  0  0  0  0  0
  136.4508   75.8426  219.1492 H   0  0  0  0  0  0  0  0  0  0  0  0
  136.2815   78.6303  218.8693 H   0  0  0  0  0  0  0  0  0  0  0  0
  136.7272   79.7093  220.8855 H   0  0  0  0  0  0  0  0  0  0  0  0
  135.6760   78.6528  221.7936 H   0  0  0  0  0  0  0  0  0  0  0  0
  138.6002   78.2371  220.9820 H   0  0  0  0  0  0  0  0  0  0  0  0
  137.6800   78.8784  223.2949 H   0  0  0  0  0  0  0  0  0  0  0  0
  138.0297   77.0728  223.3319 H   0  0  0  0  0  0  0  0  0  0  0  0
  141.9574   77.7106  222.4242 H   0  0  0  0  0  0  0  0  0  0  0  0
  143.9033   79.1486  222.7720 H   0  0  0  0  0  0  0  0  0  0  0  0
  143.6094   81.4118  223.6705 H   0  0  0  0  0  0  0  0  0  0  0  0
  141.3573   82.2651  224.2404 H   0  0  0  0  0  0  0  0  0  0  0  0
  139.4078   80.8079  223.8942 H   0  0  0  0  0  0  0  0  0  0  0  0
  137.7301   69.3792  222.4915 H   0  0  0  0  0  0  0  0  0  0  0  0
  138.2941   67.9170  224.4080 H   0  0  0  0  0  0  0  0  0  0  0  0
  139.4159   67.6000  226.4942 H   0  0  0  0  0  0  0  0  0  0  0  0
  141.7114   70.8555  228.1801 H   0  0  0  0  0  0  0  0  0  0  0  0
  141.1158   72.2893  226.2366 H   0  0  0  0  0  0  0  0  0  0  0  0
  1  2  2  0
  2  3  1  0
  3  4  1  0
  4  5  1  0
  5  6  2  0
  5  7  1  0
  7  8  1  0
  8  9  1  0
  9 10  1  0
  9 11  1  0
 11 12  1  0
 12 13  1  0
 13 14  1  0
 14 15  1  0
 15 16  2  0
 16 17  1  0
 17 18  2  0
 18 19  1  0
 19 20  2  0
  2 21  1  0
 21 22  2  0
 22 23  1  0
 23 24  2  0
 24 25  1  0
 25 26  2  0
 26 27  1  0
 26 28  1  0
 28 29  2  0
 29 30  1  0
 30 31  2  0
 12  7  1  0
 20 15  1  0
 31 21  1  0
 30 24  1  0
  3 32  1  0
  4 33  1  0
  4 34  1  0
  8 35  1  0
  8 36  1  0
  9 37  1  6
 11 38  1  0
 11 39  1  0
 12 40  1  6
 13 41  1  0
 13 42  1  0
 16 43  1  0
 17 44  1  0
 18 45  1  0
 19 46  1  0
 20 47  1  0
 22 48  1  0
 23 49  1  0
 25 50  1  0
 28 51  1  0
 29 52  1  0
M  END
>  <smiles>  (14) 
O=C(NCC(=O)N1C[C@@H](F)C[C@H]1COc1ccccc1)c1ccc2cc(Cl)ccc2n1

>  <score_type>  (14) 
oracle

>  <origin>  (14) 
autodockgpu

>  <m_score__min__energy>  (14) 
-8.5399999999999991

>  <m_primary>  (14) 
energy

>  <rmsd>  (14) 
2.6738053991187205

>  <m_score__min__rmsd>  (14) 
2.6738053991187205

>  <meeko>  (14) 
{"free_energy": -7.4, "intermolecular_energy": -9.49, "internal_energy": -1.73, "cluster_size": 8, "cluster_id": 2, "rank_in_cluster": 8}

>  <energy>  (14) 
-7.78

>  <cluster_rmsd>  (14) 
1.1

>  <cluster>  (14) 
1

$$$$

     RDKit          3D

 52 55  0  0  0  0  0  0  0  0999 V2000
  140.2080   72.5240  220.8280 O   0  0  0  0  0  0  0  0  0  0  0  0
  139.9170   72.9140  221.9900 C   0  0  0  0  0  0  0  0  0  0  0  0
  139.5360   74.2510  222.2940 N   0  0  0  0  0  0  0  0  0  0  0  0
  139.4580   75.2820  221.2360 C   0  0  0  0  0  0  0  0  0  0  0  0
  138.6410   76.3820  221.7260 C   0  0  0  0  0  0  0  0  0  0  0  0
  138.2450   76.2840  222.9530 O   0  0  0  0  0  0  0  0  0  0  0  0
  138.2210   77.5330  221.0580 N   0  0  0  0  0  0  0  0  0  0  0  0
  136.8320   78.0410  221.1840 C   0  0  0  0  0  0  0  0  0  0  0  0
  137.1450   79.4990  221.4570 C   0  0  1  0  0  0  0  0  0  0  0  0
  137.0430   79.7960  222.7960 F   0  0  0  0  0  0  0  0  0  0  0  0
  138.5660   79.7460  220.9210 C   0  0  0  0  0  0  0  0  0  0  0  0
  138.8370   78.4970  220.1680 C   0  0  1  0  0  0  0  0  0  0  0  0
  140.2090   78.2060  219.7220 C   0  0  0  0  0  0  0  0  0  0  0  0
  141.1560   78.3360  220.6670 O   0  0  0  0  0  0  0  0  0  0  0  0
  141.5980   79.0200  221.7150 C   0  0  0  0  0  0  0  0  0  0  0  0
  141.4160   78.4090  222.9820 C   0  0  0  0  0  0  0  0  0  0  0  0
  141.8160   78.9950  224.1430 C   0  0  0  0  0  0  0  0  0  0  0  0
  142.4160   80.2140  224.1050 C   0  0  0  0  0  0  0  0  0  0  0  0
  142.6260   80.8670  222.9200 C   0  0  0  0  0  0  0  0  0  0  0  0
  142.2090   80.2500  221.7610 C   0  0  0  0  0  0  0  0  0  0  0  0
  139.9750   71.9270  223.0920 C   0  0  0  0  0  0  0  0  0  0  0  0
  139.5320   70.6360  222.8980 C   0  0  0  0  0  0  0  0  0  0  0  0
  139.5750   69.6940  223.9100 C   0  0  0  0  0  0  0  0  0  0  0  0
  140.0810   70.0610  225.1590 C   0  0  0  0  0  0  0  0  0  0  0  0
  140.1220   69.1330  226.1520 C   0  0  0  0  0  0  0  0  0  0  0  0
  140.6340   69.5350  227.3880 C   0  0  0  0  0  0  0  0  0  0  0  0
  140.7100   68.3720  228.7070 Cl  0  0  0  0  0  0  0  0  0  0  0  0
  141.0800   70.8270  227.5880 C   0  0  0  0  0  0  0  0  0  0  0  0
  141.0230   71.7470  226.5550 C   0  0  0  0  0  0  0  0  0  0  0  0
  140.5180   71.3660  225.3200 C   0  0  0  0  0  0  0  0  0  0  0  0
  140.4610   72.2620  224.3070 N   0  0  0  0  0  0  0  0  0  0  0  0
  139.3180   74.4660  223.2890 H   0  0  0  0  0  0  0  0  0  0  0  0
  140.4680   75.6468  220.9976 H   0  0  0  0  0  0  0  0  0  0  0  0
  139.0115   74.8561  220.3254 H   0  0  0  0  0  0  0  0  0  0  0  0
  136.2570   77.9081  220.2557 H   0  0  0  0  0  0  0  0  0  0  0  0
  136.2081   77.5388  221.9380 H   0  0  0  0  0  0  0  0  0  0  0  0
  136.4210   80.1581  220.9557 H   0  0  0  0  0  0  0  0  0  0  0  0
  138.5961   80.6249  220.2602 H   0  0  0  0  0  0  0  0  0  0  0  0
  139.3049   79.9568  221.7081 H   0  0  0  0  0  0  0  0  0  0  0  0
  138.4317   78.5230  219.1457 H   0  0  0  0  0  0  0  0  0  0  0  0
  140.2350   77.1697  219.3540 H   0  0  0  0  0  0  0  0  0  0  0  0
  140.4441   78.9520  218.9485 H   0  0  0  0  0  0  0  0  0  0  0  0
  140.9322   77.4221  223.0278 H   0  0  0  0  0  0  0  0  0  0  0  0
  141.6550   78.4862  225.1049 H   0  0  0  0  0  0  0  0  0  0  0  0
  142.7393   80.6853  225.0449 H   0  0  0  0  0  0  0  0  0  0  0  0
  143.1124   81.8533  222.8942 H   0  0  0  0  0  0  0  0  0  0  0  0
  142.3761   80.7766  220.8098 H   0  0  0  0  0  0  0  0  0  0  0  0
  139.1343   70.3478  221.9137 H   0  0  0  0  0  0  0  0  0  0  0  0
  139.2155   68.6695  223.7334 H   0  0  0  0  0  0  0  0  0  0  0  0
  139.7657   68.1053  225.9883 H   0  0  0  0  0  0  0  0  0  0  0  0
  141.4805   71.1249  228.5682 H   0  0  0  0  0  0  0  0  0  0  0  0
  141.3768   72.7765  226.7127 H   0  0  0  0  0  0  0  0  0  0  0  0
  1  2  2  0
  2  3  1  0
  3  4  1  0
  4  5  1  0
  5  6  2  0
  5  7  1  0
  7  8  1  0
  8  9  1  0
  9 10  1  0
  9 11  1  0
 11 12  1  0
 12 13  1  0
 13 14  1  0
 14 15  1  0
 15 16  2  0
 16 17  1  0
 17 18  2  0
 18 19  1  0
 19 20  2  0
  2 21  1  0
 21 22  2  0
 22 23  1  0
 23 24  2  0
 24 25  1  0
 25 26  2  0
 26 27  1  0
 26 28  1  0
 28 29  2  0
 29 30  1  0
 30 31  2  0
 12  7  1  0
 20 15  1  0
 31 21  1  0
 30 24  1  0
  3 32  1  0
  4 33  1  0
  4 34  1  0
  8 35  1  0
  8 36  1  0
  9 37  1  6
 11 38  1  0
 11 39  1  0
 12 40  1  6
 13 41  1  0
 13 42  1  0
 16 43  1  0
 17 44  1  0
 18 45  1  0
 19 46  1  0
 20 47  1  0
 22 48  1  0
 23 49  1  0
 25 50  1  0
 28 51  1  0
 29 52  1  0
M  END
>  <smiles>  (15) 
O=C(NCC(=O)N1C[C@@H](F)C[C@H]1COc1ccccc1)c1ccc2cc(Cl)ccc2n1

>  <score_type>  (15) 
oracle

>  <origin>  (15) 
autodockgpu

>  <m_score__min__energy>  (15) 
-8.5399999999999991

>  <m_primary>  (15) 
energy

>  <rmsd>  (15) 
2.9521000386314786

>  <m_score__min__rmsd>  (15) 
2.9521000386314786

>  <meeko>  (15) 
{"free_energy": -7.77, "intermolecular_energy": -9.86, "internal_energy": -2.34, "cluster_size": 8, "cluster_id": 2, "rank_in_cluster": 5}

>  <energy>  (15) 
-7.78

>  <cluster_rmsd>  (15) 
1.23

>  <cluster>  (15) 
1

$$$$

     RDKit          3D

 52 55  0  0  0  0  0  0  0  0999 V2000
  137.3210   70.9010  221.0110 O   0  0  0  0  0  0  0  0  0  0  0  0
  137.8040   71.5550  221.9740 C   0  0  0  0  0  0  0  0  0  0  0  0
  137.8840   72.9760  221.9910 N   0  0  0  0  0  0  0  0  0  0  0  0
  137.3940   73.7830  220.8520 C   0  0  0  0  0  0  0  0  0  0  0  0
  138.4820   73.9430  219.9000 C   0  0  0  0  0  0  0  0  0  0  0  0
  138.3630   74.9260  219.0690 O   0  0  0  0  0  0  0  0  0  0  0  0
  139.6440   73.1820  219.7550 N   0  0  0  0  0  0  0  0  0  0  0  0
  139.9190   72.4140  218.5140 C   0  0  0  0  0  0  0  0  0  0  0  0
  141.3530   72.8520  218.2870 C   0  0  1  0  0  0  0  0  0  0  0  0
  141.4360   73.8320  217.3270 F   0  0  0  0  0  0  0  0  0  0  0  0
  141.8800   73.3360  219.6490 C   0  0  0  0  0  0  0  0  0  0  0  0
  140.8050   72.8990  220.5740 C   0  0  1  0  0  0  0  0  0  0  0  0
  140.7870   73.4120  221.9530 C   0  0  0  0  0  0  0  0  0  0  0  0
  140.0370   74.5120  222.1430 O   0  0  0  0  0  0  0  0  0  0  0  0
  140.0130   75.8250  222.3280 C   0  0  0  0  0  0  0  0  0  0  0  0
  138.7350   76.4050  222.5270 C   0  0  0  0  0  0  0  0  0  0  0  0
  138.5580   77.7400  222.7260 C   0  0  0  0  0  0  0  0  0  0  0  0
  139.6390   78.5630  222.7390 C   0  0  0  0  0  0  0  0  0  0  0  0
  140.9060   78.0780  222.5540 C   0  0  0  0  0  0  0  0  0  0  0  0
  141.0540   76.7230  222.3530 C   0  0  0  0  0  0  0  0  0  0  0  0
  138.3100   70.8040  223.1440 C   0  0  0  0  0  0  0  0  0  0  0  0
  137.9830   69.4750  223.3160 C   0  0  0  0  0  0  0  0  0  0  0  0
  138.4420   68.7500  224.4000 C   0  0  0  0  0  0  0  0  0  0  0  0
  139.2580   69.3800  225.3430 C   0  0  0  0  0  0  0  0  0  0  0  0
  139.7090   68.6640  226.4080 C   0  0  0  0  0  0  0  0  0  0  0  0
  140.5220   69.3250  227.3310 C   0  0  0  0  0  0  0  0  0  0  0  0
  141.1320   68.4440  228.7280 Cl  0  0  0  0  0  0  0  0  0  0  0  0
  140.8530   70.6560  227.1640 C   0  0  0  0  0  0  0  0  0  0  0  0
  140.3770   71.3550  226.0670 C   0  0  0  0  0  0  0  0  0  0  0  0
  139.5680   70.7140  225.1400 C   0  0  0  0  0  0  0  0  0  0  0  0
  139.1000   71.3940  224.0670 N   0  0  0  0  0  0  0  0  0  0  0  0
  138.3020   73.4150  222.8370 H   0  0  0  0  0  0  0  0  0  0  0  0
  136.5501   73.2691  220.3686 H   0  0  0  0  0  0  0  0  0  0  0  0
  137.0537   74.7675  221.2055 H   0  0  0  0  0  0  0  0  0  0  0  0
  139.8380   71.3285  218.6726 H   0  0  0  0  0  0  0  0  0  0  0  0
  139.2275   72.5961  217.6782 H   0  0  0  0  0  0  0  0  0  0  0  0
  141.9643   72.0197  217.9080 H   0  0  0  0  0  0  0  0  0  0  0  0
  142.8391   72.8585  219.8981 H   0  0  0  0  0  0  0  0  0  0  0  0
  142.0820   74.4167  219.6857 H   0  0  0  0  0  0  0  0  0  0  0  0
  140.9165   71.8508  220.8884 H   0  0  0  0  0  0  0  0  0  0  0  0
  140.3984   72.6175  222.6070 H   0  0  0  0  0  0  0  0  0  0  0  0
  141.8221   73.7033  222.1849 H   0  0  0  0  0  0  0  0  0  0  0  0
  137.8511   75.7503  222.5203 H   0  0  0  0  0  0  0  0  0  0  0  0
  137.5479   78.1492  222.8751 H   0  0  0  0  0  0  0  0  0  0  0  0
  139.4933   79.6411  222.9015 H   0  0  0  0  0  0  0  0  0  0  0  0
  141.7778   78.7487  222.5655 H   0  0  0  0  0  0  0  0  0  0  0  0
  142.0719   76.3340  222.2026 H   0  0  0  0  0  0  0  0  0  0  0  0
  137.3412   68.9799  222.5724 H   0  0  0  0  0  0  0  0  0  0  0  0
  138.1684   67.6912  224.5185 H   0  0  0  0  0  0  0  0  0  0  0  0
  139.4433   67.6044  226.5372 H   0  0  0  0  0  0  0  0  0  0  0  0
  141.4942   71.1603  227.9019 H   0  0  0  0  0  0  0  0  0  0  0  0
  140.6395   72.4146  225.9313 H   0  0  0  0  0  0  0  0  0  0  0  0
  1  2  2  0
  2  3  1  0
  3  4  1  0
  4  5  1  0
  5  6  2  0
  5  7  1  0
  7  8  1  0
  8  9  1  0
  9 10  1  0
  9 11  1  0
 11 12  1  0
 12 13  1  0
 13 14  1  0
 14 15  1  0
 15 16  2  0
 16 17  1  0
 17 18  2  0
 18 19  1  0
 19 20  2  0
  2 21  1  0
 21 22  2  0
 22 23  1  0
 23 24  2  0
 24 25  1  0
 25 26  2  0
 26 27  1  0
 26 28  1  0
 28 29  2  0
 29 30  1  0
 30 31  2  0
 12  7  1  0
 20 15  1  0
 31 21  1  0
 30 24  1  0
  3 32  1  0
  4 33  1  0
  4 34  1  0
  8 35  1  0
  8 36  1  0
  9 37  1  6
 11 38  1  0
 11 39  1  0
 12 40  1  1
 13 41  1  0
 13 42  1  0
 16 43  1  0
 17 44  1  0
 18 45  1  0
 19 46  1  0
 20 47  1  0
 22 48  1  0
 23 49  1  0
 25 50  1  0
 28 51  1  0
 29 52  1  0
M  END
>  <smiles>  (16) 
O=C(NCC(=O)N1C[C@@H](F)C[C@H]1COc1ccccc1)c1ccc2cc(Cl)ccc2n1

>  <score_type>  (16) 
oracle

>  <origin>  (16) 
autodockgpu

>  <m_score__min__energy>  (16) 
-8.5399999999999991

>  <m_primary>  (16) 
energy

>  <rmsd>  (16) 
2.418736922593774

>  <m_score__min__rmsd>  (16) 
2.418736922593774

>  <meeko>  (16) 
{"free_energy": -6.59, "intermolecular_energy": -8.68, "internal_energy": -2.98, "cluster_size": 1, "cluster_id": 8, "rank_in_cluster": 1}

>  <energy>  (16) 
-8.0

>  <cluster_rmsd>  (16) 
0.0

>  <cluster>  (16) 
2

$$$$

     RDKit          3D

 52 55  0  0  0  0  0  0  0  0999 V2000
  141.6760   73.0800  221.0010 O   0  0  0  0  0  0  0  0  0  0  0  0
  140.8830   73.8710  221.5800 C   0  0  0  0  0  0  0  0  0  0  0  0
  139.7730   73.4350  222.3550 N   0  0  0  0  0  0  0  0  0  0  0  0
  139.4790   71.9950  222.5290 C   0  0  0  0  0  0  0  0  0  0  0  0
  138.0800   71.8540  222.9040 C   0  0  0  0  0  0  0  0  0  0  0  0
  137.3030   72.8250  222.5530 O   0  0  0  0  0  0  0  0  0  0  0  0
  137.4540   70.8130  223.5920 N   0  0  0  0  0  0  0  0  0  0  0  0
  136.0570   70.9360  224.0820 C   0  0  0  0  0  0  0  0  0  0  0  0
  135.5200   69.6130  223.5750 C   0  0  1  0  0  0  0  0  0  0  0  0
  134.7970   69.7710  222.4160 F   0  0  0  0  0  0  0  0  0  0  0  0
  136.7400   68.6980  223.3700 C   0  0  0  0  0  0  0  0  0  0  0  0
  137.8260   69.4780  224.0120 C   0  0  1  0  0  0  0  0  0  0  0  0
  139.2270   69.0790  223.7950 C   0  0  0  0  0  0  0  0  0  0  0  0
  140.0730   69.4070  224.7870 O   0  0  0  0  0  0  0  0  0  0  0  0
  140.3590   70.2440  225.7750 C   0  0  0  0  0  0  0  0  0  0  0  0
  139.8800   69.8810  227.0600 C   0  0  0  0  0  0  0  0  0  0  0  0
  140.0940   70.6450  228.1660 C   0  0  0  0  0  0  0  0  0  0  0  0
  140.7960   71.8030  228.0520 C   0  0  0  0  0  0  0  0  0  0  0  0
  141.2920   72.2200  226.8460 C   0  0  0  0  0  0  0  0  0  0  0  0
  141.0570   71.4280  225.7440 C   0  0  0  0  0  0  0  0  0  0  0  0
  141.1260   75.3240  221.4450 C   0  0  0  0  0  0  0  0  0  0  0  0
  141.9130   75.8110  220.4230 C   0  0  0  0  0  0  0  0  0  0  0  0
  142.1560   77.1640  220.2740 C   0  0  0  0  0  0  0  0  0  0  0  0
  141.5870   78.0600  221.1820 C   0  0  0  0  0  0  0  0  0  0  0  0
  141.8270   79.3900  221.0340 C   0  0  0  0  0  0  0  0  0  0  0  0
  141.2420   80.2570  221.9590 C   0  0  0  0  0  0  0  0  0  0  0  0
  141.5200   81.9890  221.8120 Cl  0  0  0  0  0  0  0  0  0  0  0  0
  140.4520   79.7770  222.9850 C   0  0  0  0  0  0  0  0  0  0  0  0
  140.2280   78.4150  223.1080 C   0  0  0  0  0  0  0  0  0  0  0  0
  140.8000   77.5390  222.1970 C   0  0  0  0  0  0  0  0  0  0  0  0
  140.5840   76.2080  222.3130 N   0  0  0  0  0  0  0  0  0  0  0  0
  139.1810   74.1730  222.7900 H   0  0  0  0  0  0  0  0  0  0  0  0
  139.6665   71.4609  221.5858 H   0  0  0  0  0  0  0  0  0  0  0  0
  140.1248   71.5692  223.3111 H   0  0  0  0  0  0  0  0  0  0  0  0
  136.0080   71.0097  225.1784 H   0  0  0  0  0  0  0  0  0  0  0  0
  135.5119   71.8310  223.7475 H   0  0  0  0  0  0  0  0  0  0  0  0
  134.8195   69.1696  224.2980 H   0  0  0  0  0  0  0  0  0  0  0  0
  136.5986   67.7269  223.8670 H   0  0  0  0  0  0  0  0  0  0  0  0
  136.9360   68.4518  222.3160 H   0  0  0  0  0  0  0  0  0  0  0  0
  137.8733   69.3216  225.0998 H   0  0  0  0  0  0  0  0  0  0  0  0
  139.2549   67.9864  223.6705 H   0  0  0  0  0  0  0  0  0  0  0  0
  139.5685   69.6298  222.9061 H   0  0  0  0  0  0  0  0  0  0  0  0
  139.3129   68.9445  227.1669 H   0  0  0  0  0  0  0  0  0  0  0  0
  139.7021   70.3278  229.1436 H   0  0  0  0  0  0  0  0  0  0  0  0
  140.9693   72.4181  228.9473 H   0  0  0  0  0  0  0  0  0  0  0  0
  141.8602   73.1579  226.7599 H   0  0  0  0  0  0  0  0  0  0  0  0
  141.4540   71.7650  224.7751 H   0  0  0  0  0  0  0  0  0  0  0  0
  142.3592   75.1047  219.7075 H   0  0  0  0  0  0  0  0  0  0  0  0
  142.7887   77.5297  219.4518 H   0  0  0  0  0  0  0  0  0  0  0  0
  142.4581   79.7687  220.2165 H   0  0  0  0  0  0  0  0  0  0  0  0
  140.0005   80.4758  223.7046 H   0  0  0  0  0  0  0  0  0  0  0  0
  139.5993   78.0301  223.9245 H   0  0  0  0  0  0  0  0  0  0  0  0
  1  2  2  0
  2  3  1  0
  3  4  1  0
  4  5  1  0
  5  6  2  0
  5  7  1  0
  7  8  1  0
  8  9  1  0
  9 10  1  0
  9 11  1  0
 11 12  1  0
 12 13  1  0
 13 14  1  0
 14 15  1  0
 15 16  2  0
 16 17  1  0
 17 18  2  0
 18 19  1  0
 19 20  2  0
  2 21  1  0
 21 22  2  0
 22 23  1  0
 23 24  2  0
 24 25  1  0
 25 26  2  0
 26 27  1  0
 26 28  1  0
 28 29  2  0
 29 30  1  0
 30 31  2  0
 12  7  1  0
 20 15  1  0
 31 21  1  0
 30 24  1  0
  3 32  1  0
  4 33  1  0
  4 34  1  0
  8 35  1  0
  8 36  1  0
  9 37  1  1
 11 38  1  0
 11 39  1  0
 12 40  1  1
 13 41  1  0
 13 42  1  0
 16 43  1  0
 17 44  1  0
 18 45  1  0
 19 46  1  0
 20 47  1  0
 22 48  1  0
 23 49  1  0
 25 50  1  0
 28 51  1  0
 29 52  1  0
M  END
>  <smiles>  (17) 
O=C(NCC(=O)N1C[C@@H](F)C[C@H]1COc1ccccc1)c1ccc2cc(Cl)ccc2n1

>  <score_type>  (17) 
oracle

>  <origin>  (17) 
autodockgpu

>  <m_score__min__energy>  (17) 
-8.5399999999999991

>  <m_primary>  (17) 
energy

>  <rmsd>  (17) 
8.451116526887374

>  <m_score__min__rmsd>  (17) 
8.451116526887374

>  <meeko>  (17) 
{"free_energy": -7.78, "intermolecular_energy": -9.87, "internal_energy": -2.22, "cluster_size": 5, "cluster_id": 5, "rank_in_cluster": 2}

>  <energy>  (17) 
-7.89

>  <cluster_rmsd>  (17) 
1.31

>  <cluster>  (17) 
2

$$$$

     RDKit          3D

 52 55  0  0  0  0  0  0  0  0999 V2000
  139.8790   72.1910  220.6010 O   0  0  0  0  0  0  0  0  0  0  0  0
  139.5950   72.6200  221.7510 C   0  0  0  0  0  0  0  0  0  0  0  0
  139.1220   73.9390  221.9980 N   0  0  0  0  0  0  0  0  0  0  0  0
  138.9360   74.9040  220.8920 C   0  0  0  0  0  0  0  0  0  0  0  0
  139.9620   75.9300  221.0000 C   0  0  0  0  0  0  0  0  0  0  0  0
  139.5660   77.0770  221.4470 O   0  0  0  0  0  0  0  0  0  0  0  0
  141.3210   75.8530  220.6890 N   0  0  0  0  0  0  0  0  0  0  0  0
  142.1740   74.7540  221.2080 C   0  0  0  0  0  0  0  0  0  0  0  0
  142.8610   74.3670  219.9130 C   0  0  1  0  0  0  0  0  0  0  0  0
  142.2940   73.2440  219.3570 F   0  0  0  0  0  0  0  0  0  0  0  0
  142.7510   75.5860  218.9810 C   0  0  0  0  0  0  0  0  0  0  0  0
  142.2480   76.6370  219.9000 C   0  0  1  0  0  0  0  0  0  0  0  0
  141.7420   77.9020  219.3420 C   0  0  0  0  0  0  0  0  0  0  0  0
  141.6840   78.9260  220.2110 O   0  0  0  0  0  0  0  0  0  0  0  0
  141.8100   79.3270  221.4690 C   0  0  0  0  0  0  0  0  0  0  0  0
  142.0270   80.7150  221.6640 C   0  0  0  0  0  0  0  0  0  0  0  0
  142.1780   81.2680  222.8980 C   0  0  0  0  0  0  0  0  0  0  0  0
  142.1210   80.4730  223.9980 C   0  0  0  0  0  0  0  0  0  0  0  0
  141.9140   79.1240  223.8920 C   0  0  0  0  0  0  0  0  0  0  0  0
  141.7670   78.5920  222.6290 C   0  0  0  0  0  0  0  0  0  0  0  0
  139.7590   71.7000  222.8990 C   0  0  0  0  0  0  0  0  0  0  0  0
  139.4130   70.3700  222.7850 C   0  0  0  0  0  0  0  0  0  0  0  0
  139.5570   69.4900  223.8410 C   0  0  0  0  0  0  0  0  0  0  0  0
  140.0650   69.9610  225.0540 C   0  0  0  0  0  0  0  0  0  0  0  0
  140.2060   69.0920  226.0910 C   0  0  0  0  0  0  0  0  0  0  0  0
  140.7170   69.5970  227.2890 C   0  0  0  0  0  0  0  0  0  0  0  0
  140.9190   68.5160  228.6630 Cl  0  0  0  0  0  0  0  0  0  0  0  0
  141.0650   70.9290  227.4100 C   0  0  0  0  0  0  0  0  0  0  0  0
  140.9100   71.7860  226.3330 C   0  0  0  0  0  0  0  0  0  0  0  0
  140.4030   71.3010  225.1350 C   0  0  0  0  0  0  0  0  0  0  0  0
  140.2490   72.1360  224.0800 N   0  0  0  0  0  0  0  0  0  0  0  0
  138.9180   74.1900  222.9870 H   0  0  0  0  0  0  0  0  0  0  0  0
  139.0297   74.3851  219.9266 H   0  0  0  0  0  0  0  0  0  0  0  0
  137.9371   75.3606  220.9529 H   0  0  0  0  0  0  0  0  0  0  0  0
  142.8885   75.1074  221.9660 H   0  0  0  0  0  0  0  0  0  0  0  0
  141.6422   73.9424  221.7261 H   0  0  0  0  0  0  0  0  0  0  0  0
  143.9153   74.1069  220.0885 H   0  0  0  0  0  0  0  0  0  0  0  0
  143.7311   75.8578  218.5622 H   0  0  0  0  0  0  0  0  0  0  0  0
  142.1053   75.4172  218.1066 H   0  0  0  0  0  0  0  0  0  0  0  0
  143.0544   77.1252  220.4669 H   0  0  0  0  0  0  0  0  0  0  0  0
  142.4014   78.1963  218.5122 H   0  0  0  0  0  0  0  0  0  0  0  0
  140.7056   77.7062  219.0298 H   0  0  0  0  0  0  0  0  0  0  0  0
  142.0751   81.3708  220.7822 H   0  0  0  0  0  0  0  0  0  0  0  0
  142.3449   82.3501  223.0040 H   0  0  0  0  0  0  0  0  0  0  0  0
  142.2437   80.9225  224.9944 H   0  0  0  0  0  0  0  0  0  0  0  0
  141.8665   78.4850  224.7861 H   0  0  0  0  0  0  0  0  0  0  0  0
  141.6045   77.5074  222.5442 H   0  0  0  0  0  0  0  0  0  0  0  0
  139.0123   70.0002  221.8297 H   0  0  0  0  0  0  0  0  0  0  0  0
  139.2753   68.4327  223.7277 H   0  0  0  0  0  0  0  0  0  0  0  0
  139.9283   68.0324  225.9901 H   0  0  0  0  0  0  0  0  0  0  0  0
  141.4651   71.3086  228.3617 H   0  0  0  0  0  0  0  0  0  0  0  0
  141.1874   72.8463  226.4264 H   0  0  0  0  0  0  0  0  0  0  0  0
  1  2  2  0
  2  3  1  0
  3  4  1  0
  4  5  1  0
  5  6  2  0
  5  7  1  0
  7  8  1  0
  8  9  1  0
  9 10  1  0
  9 11  1  0
 11 12  1  0
 12 13  1  0
 13 14  1  0
 14 15  1  0
 15 16  2  0
 16 17  1  0
 17 18  2  0
 18 19  1  0
 19 20  2  0
  2 21  1  0
 21 22  2  0
 22 23  1  0
 23 24  2  0
 24 25  1  0
 25 26  2  0
 26 27  1  0
 26 28  1  0
 28 29  2  0
 29 30  1  0
 30 31  2  0
 12  7  1  0
 20 15  1  0
 31 21  1  0
 30 24  1  0
  3 32  1  0
  4 33  1  0
  4 34  1  0
  8 35  1  0
  8 36  1  0
  9 37  1  1
 11 38  1  0
 11 39  1  0
 12 40  1  1
 13 41  1  0
 13 42  1  0
 16 43  1  0
 17 44  1  0
 18 45  1  0
 19 46  1  0
 20 47  1  0
 22 48  1  0
 23 49  1  0
 25 50  1  0
 28 51  1  0
 29 52  1  0
M  END
>  <smiles>  (18) 
O=C(NCC(=O)N1C[C@@H](F)C[C@H]1COc1ccccc1)c1ccc2cc(Cl)ccc2n1

>  <score_type>  (18) 
oracle

>  <origin>  (18) 
autodockgpu

>  <m_score__min__energy>  (18) 
-8.5399999999999991

>  <m_primary>  (18) 
energy

>  <rmsd>  (18) 
2.262537921705735

>  <m_score__min__rmsd>  (18) 
2.262537921705735

>  <meeko>  (18) 
{"free_energy": -8.21, "intermolecular_energy": -10.3, "internal_energy": -1.86, "cluster_size": 15, "cluster_id": 1, "rank_in_cluster": 7}

>  <energy>  (18) 
-7.89

>  <cluster_rmsd>  (18) 
1.22

>  <cluster>  (18) 
2

$$$$

     RDKit          3D

 52 55  0  0  0  0  0  0  0  0999 V2000
  138.1870   70.6660  221.1650 O   0  0  0  0  0  0  0  0  0  0  0  0
  138.2970   71.2620  222.2690 C   0  0  0  0  0  0  0  0  0  0  0  0
  137.9570   72.6310  222.4550 N   0  0  0  0  0  0  0  0  0  0  0  0
  137.4440   73.4510  221.3360 C   0  0  0  0  0  0  0  0  0  0  0  0
  138.5760   74.0660  220.6600 C   0  0  0  0  0  0  0  0  0  0  0  0
  138.4860   74.1480  219.3730 O   0  0  0  0  0  0  0  0  0  0  0  0
  139.7530   74.5820  221.2060 N   0  0  0  0  0  0  0  0  0  0  0  0
  140.9970   73.7750  221.2740 C   0  0  0  0  0  0  0  0  0  0  0  0
  141.9660   74.7990  220.7180 C   0  0  1  0  0  0  0  0  0  0  0  0
  142.2530   74.5580  219.3950 F   0  0  0  0  0  0  0  0  0  0  0  0
  141.3080   76.1750  220.9210 C   0  0  0  0  0  0  0  0  0  0  0  0
  140.1550   75.8440  221.7940 C   0  0  1  0  0  0  0  0  0  0  0  0
  139.0970   76.8460  222.0050 C   0  0  0  0  0  0  0  0  0  0  0  0
  139.5330   78.0800  222.3120 O   0  0  0  0  0  0  0  0  0  0  0  0
  140.5680   78.8520  222.6140 C   0  0  0  0  0  0  0  0  0  0  0  0
  141.1370   79.5840  221.5410 C   0  0  0  0  0  0  0  0  0  0  0  0
  142.2050   80.4130  221.7020 C   0  0  0  0  0  0  0  0  0  0  0  0
  142.7590   80.5570  222.9340 C   0  0  0  0  0  0  0  0  0  0  0  0
  142.2660   79.8840  224.0200 C   0  0  0  0  0  0  0  0  0  0  0  0
  141.1860   79.0510  223.8260 C   0  0  0  0  0  0  0  0  0  0  0  0
  138.8030   70.4940  223.4290 C   0  0  0  0  0  0  0  0  0  0  0  0
  138.7050   69.1190  223.4540 C   0  0  0  0  0  0  0  0  0  0  0  0
  139.1700   68.3780  224.5250 C   0  0  0  0  0  0  0  0  0  0  0  0
  139.7550   69.0400  225.6060 C   0  0  0  0  0  0  0  0  0  0  0  0
  140.2120   68.3080  226.6580 C   0  0  0  0  0  0  0  0  0  0  0  0
  140.7920   69.0030  227.7220 C   0  0  0  0  0  0  0  0  0  0  0  0
  141.4000   68.1040  229.1080 Cl  0  0  0  0  0  0  0  0  0  0  0  0
  140.8940   70.3800  227.7030 C   0  0  0  0  0  0  0  0  0  0  0  0
  140.4180   71.0950  226.6150 C   0  0  0  0  0  0  0  0  0  0  0  0
  139.8400   70.4210  225.5490 C   0  0  0  0  0  0  0  0  0  0  0  0
  139.3730   71.1160  224.4850 N   0  0  0  0  0  0  0  0  0  0  0  0
  138.0880   73.0250  223.4100 H   0  0  0  0  0  0  0  0  0  0  0  0
  136.8921   72.8127  220.6304 H   0  0  0  0  0  0  0  0  0  0  0  0
  136.7644   74.2274  221.7172 H   0  0  0  0  0  0  0  0  0  0  0  0
  141.2470   73.4865  222.3056 H   0  0  0  0  0  0  0  0  0  0  0  0
  140.9682   72.8110  220.7450 H   0  0  0  0  0  0  0  0  0  0  0  0
  142.9330   74.7502  221.2400 H   0  0  0  0  0  0  0  0  0  0  0  0
  141.9951   76.8767  221.4164 H   0  0  0  0  0  0  0  0  0  0  0  0
  141.0230   76.6716  219.9817 H   0  0  0  0  0  0  0  0  0  0  0  0
  140.4288   75.8030  222.8586 H   0  0  0  0  0  0  0  0  0  0  0  0
  138.5034   76.9143  221.0815 H   0  0  0  0  0  0  0  0  0  0  0  0
  138.5174   76.5010  222.8740 H   0  0  0  0  0  0  0  0  0  0  0  0
  140.6978   79.4778  220.5381 H   0  0  0  0  0  0  0  0  0  0  0  0
  142.6159   80.9616  220.8416 H   0  0  0  0  0  0  0  0  0  0  0  0
  143.6213   81.2279  223.0619 H   0  0  0  0  0  0  0  0  0  0  0  0
  142.7180   80.0047  225.0156 H   0  0  0  0  0  0  0  0  0  0  0  0
  140.7920   78.5092  224.6985 H   0  0  0  0  0  0  0  0  0  0  0  0
  138.2455   68.5985  222.6008 H   0  0  0  0  0  0  0  0  0  0  0  0
  139.0801   67.2817  224.5252 H   0  0  0  0  0  0  0  0  0  0  0  0
  140.1280   67.2113  226.6702 H   0  0  0  0  0  0  0  0  0  0  0  0
  141.3529   70.9094  228.5511 H   0  0  0  0  0  0  0  0  0  0  0  0
  140.4982   72.1919  226.5969 H   0  0  0  0  0  0  0  0  0  0  0  0
  1  2  2  0
  2  3  1  0
  3  4  1  0
  4  5  1  0
  5  6  2  0
  5  7  1  0
  7  8  1  0
  8  9  1  0
  9 10  1  0
  9 11  1  0
 11 12  1  0
 12 13  1  0
 13 14  1  0
 14 15  1  0
 15 16  2  0
 16 17  1  0
 17 18  2  0
 18 19  1  0
 19 20  2  0
  2 21  1  0
 21 22  2  0
 22 23  1  0
 23 24  2  0
 24 25  1  0
 25 26  2  0
 26 27  1  0
 26 28  1  0
 28 29  2  0
 29 30  1  0
 30 31  2  0
 12  7  1  0
 20 15  1  0
 31 21  1  0
 30 24  1  0
  3 32  1  0
  4 33  1  0
  4 34  1  0
  8 35  1  0
  8 36  1  0
  9 37  1  1
 11 38  1  0
 11 39  1  0
 12 40  1  1
 13 41  1  0
 13 42  1  0
 16 43  1  0
 17 44  1  0
 18 45  1  0
 19 46  1  0
 20 47  1  0
 22 48  1  0
 23 49  1  0
 25 50  1  0
 28 51  1  0
 29 52  1  0
M  END
>  <smiles>  (19) 
O=C(NCC(=O)N1C[C@@H](F)C[C@H]1COc1ccccc1)c1ccc2cc(Cl)ccc2n1

>  <score_type>  (19) 
oracle

>  <origin>  (19) 
autodockgpu

>  <m_score__min__energy>  (19) 
-8.5399999999999991

>  <m_primary>  (19) 
energy

>  <rmsd>  (19) 
2.1160545004450393

>  <m_score__min__rmsd>  (19) 
2.1160545004450393

>  <meeko>  (19) 
{"free_energy": -7.86, "intermolecular_energy": -9.94, "internal_energy": -1.68, "cluster_size": 15, "cluster_id": 1, "rank_in_cluster": 11}

>  <energy>  (19) 
-7.79

>  <cluster_rmsd>  (19) 
1.3

>  <cluster>  (19) 
2

$$$$

     RDKit          3D

 52 55  0  0  0  0  0  0  0  0999 V2000
  133.5990   69.9860  226.5020 O   0  0  0  0  0  0  0  0  0  0  0  0
  133.9900   71.0920  226.0430 C   0  0  0  0  0  0  0  0  0  0  0  0
  135.0220   71.2150  225.0710 N   0  0  0  0  0  0  0  0  0  0  0  0
  135.7110   70.0210  224.5330 C   0  0  0  0  0  0  0  0  0  0  0  0
  136.9110   70.4580  223.8370 C   0  0  0  0  0  0  0  0  0  0  0  0
  137.0220   71.7330  223.6530 O   0  0  0  0  0  0  0  0  0  0  0  0
  137.9670   69.6930  223.3370 N   0  0  0  0  0  0  0  0  0  0  0  0
  137.7980   68.2540  223.0130 C   0  0  0  0  0  0  0  0  0  0  0  0
  138.4390   68.2520  221.6390 C   0  0  1  0  0  0  0  0  0  0  0  0
  137.4940   68.2680  220.6400 F   0  0  0  0  0  0  0  0  0  0  0  0
  139.3530   69.4880  221.5840 C   0  0  0  0  0  0  0  0  0  0  0  0
  139.3540   69.9390  222.9980 C   0  0  1  0  0  0  0  0  0  0  0  0
  139.8940   71.2670  223.3320 C   0  0  0  0  0  0  0  0  0  0  0  0
  139.9380   71.5510  224.6460 O   0  0  0  0  0  0  0  0  0  0  0  0
  140.2740   71.1450  225.8620 C   0  0  0  0  0  0  0  0  0  0  0  0
  140.0920   69.7650  226.1340 C   0  0  0  0  0  0  0  0  0  0  0  0
  140.3910   69.2080  227.3400 C   0  0  0  0  0  0  0  0  0  0  0  0
  140.8860   69.9920  228.3330 C   0  0  0  0  0  0  0  0  0  0  0  0
  141.0910   71.3330  228.1470 C   0  0  0  0  0  0  0  0  0  0  0  0
  140.7770   71.8690  226.9170 C   0  0  0  0  0  0  0  0  0  0  0  0
  133.3380   72.3240  226.5410 C   0  0  0  0  0  0  0  0  0  0  0  0
  132.1410   72.2550  227.2230 C   0  0  0  0  0  0  0  0  0  0  0  0
  131.5110   73.3900  227.7000 C   0  0  0  0  0  0  0  0  0  0  0  0
  132.1030   74.6360  227.4840 C   0  0  0  0  0  0  0  0  0  0  0  0
  131.4810   75.7510  227.9540 C   0  0  0  0  0  0  0  0  0  0  0  0
  132.1000   76.9810  227.7210 C   0  0  0  0  0  0  0  0  0  0  0  0
  131.3370   78.4550  228.3090 Cl  0  0  0  0  0  0  0  0  0  0  0  0
  133.2990   77.0570  227.0390 C   0  0  0  0  0  0  0  0  0  0  0  0
  133.9060   75.9010  226.5740 C   0  0  0  0  0  0  0  0  0  0  0  0
  133.3050   74.6710  226.7970 C   0  0  0  0  0  0  0  0  0  0  0  0
  133.8940   73.5400  226.3440 N   0  0  0  0  0  0  0  0  0  0  0  0
  135.2680   72.1770  224.7610 H   0  0  0  0  0  0  0  0  0  0  0  0
  135.9847   69.3468  225.3580 H   0  0  0  0  0  0  0  0  0  0  0  0
  135.0477   69.4819  223.8406 H   0  0  0  0  0  0  0  0  0  0  0  0
  138.3343   67.6047  223.7207 H   0  0  0  0  0  0  0  0  0  0  0  0
  136.7668   67.8737  223.0579 H   0  0  0  0  0  0  0  0  0  0  0  0
  139.0200   67.3322  221.4767 H   0  0  0  0  0  0  0  0  0  0  0  0
  140.3663   69.2204  221.2498 H   0  0  0  0  0  0  0  0  0  0  0  0
  139.0137   70.2574  220.8749 H   0  0  0  0  0  0  0  0  0  0  0  0
  140.0926   69.4035  223.6126 H   0  0  0  0  0  0  0  0  0  0  0  0
  140.9183   71.3279  222.9357 H   0  0  0  0  0  0  0  0  0  0  0  0
  139.2064   71.9990  222.8832 H   0  0  0  0  0  0  0  0  0  0  0  0
  139.6931   69.1185  225.3385 H   0  0  0  0  0  0  0  0  0  0  0  0
  140.2331   68.1326  227.5088 H   0  0  0  0  0  0  0  0  0  0  0  0
  141.1271   69.5402  229.3065 H   0  0  0  0  0  0  0  0  0  0  0  0
  141.4937   71.9626  228.9541 H   0  0  0  0  0  0  0  0  0  0  0  0
  140.9394   72.9469  226.7695 H   0  0  0  0  0  0  0  0  0  0  0  0
  131.6759   71.2726  227.3917 H   0  0  0  0  0  0  0  0  0  0  0  0
  130.5569   73.3122  228.2419 H   0  0  0  0  0  0  0  0  0  0  0  0
  130.5266   75.6861  228.4970 H   0  0  0  0  0  0  0  0  0  0  0  0
  133.7719   78.0348  226.8650 H   0  0  0  0  0  0  0  0  0  0  0  0
  134.8605   75.9588  226.0303 H   0  0  0  0  0  0  0  0  0  0  0  0
  1  2  2  0
  2  3  1  0
  3  4  1  0
  4  5  1  0
  5  6  2  0
  5  7  1  0
  7  8  1  0
  8  9  1  0
  9 10  1  0
  9 11  1  0
 11 12  1  0
 12 13  1  0
 13 14  1  0
 14 15  1  0
 15 16  2  0
 16 17  1  0
 17 18  2  0
 18 19  1  0
 19 20  2  0
  2 21  1  0
 21 22  2  0
 22 23  1  0
 23 24  2  0
 24 25  1  0
 25 26  2  0
 26 27  1  0
 26 28  1  0
 28 29  2  0
 29 30  1  0
 30 31  2  0
 12  7  1  0
 20 15  1  0
 31 21  1  0
 30 24  1  0
  3 32  1  0
  4 33  1  0
  4 34  1  0
  8 35  1  0
  8 36  1  0
  9 37  1  6
 11 38  1  0
 11 39  1  0
 12 40  1  1
 13 41  1  0
 13 42  1  0
 16 43  1  0
 17 44  1  0
 18 45  1  0
 19 46  1  0
 20 47  1  0
 22 48  1  0
 23 49  1  0
 25 50  1  0
 28 51  1  0
 29 52  1  0
M  END
>  <smiles>  (20) 
O=C(NCC(=O)N1C[C@@H](F)C[C@H]1COc1ccccc1)c1ccc2cc(Cl)ccc2n1

>  <score_type>  (20) 
oracle

>  <origin>  (20) 
autodockgpu

>  <m_score__min__energy>  (20) 
-8.5399999999999991

>  <m_primary>  (20) 
energy

>  <rmsd>  (20) 
8.310827954905507

>  <m_score__min__rmsd>  (20) 
8.310827954905507

>  <meeko>  (20) 
{"free_energy": -7.93, "intermolecular_energy": -10.02, "internal_energy": -2.3, "cluster_size": 7, "cluster_id": 3, "rank_in_cluster": 2}

>  <energy>  (20) 
-7.77

>  <cluster_rmsd>  (20) 
1.41

>  <cluster>  (20) 
2

$$$$

     RDKit          3D

 52 55  0  0  0  0  0  0  0  0999 V2000
  139.5470   72.1260  220.8150 O   0  0  0  0  0  0  0  0  0  0  0  0
  139.5010   72.5620  221.9960 C   0  0  0  0  0  0  0  0  0  0  0  0
  139.2920   73.9320  222.3160 N   0  0  0  0  0  0  0  0  0  0  0  0
  139.1120   74.9470  221.2540 C   0  0  0  0  0  0  0  0  0  0  0  0
  138.9910   76.2530  221.8820 C   0  0  0  0  0  0  0  0  0  0  0  0
  138.0740   76.3590  222.7870 O   0  0  0  0  0  0  0  0  0  0  0  0
  139.7270   77.4160  221.6470 N   0  0  0  0  0  0  0  0  0  0  0  0
  139.8170   78.4960  222.6610 C   0  0  0  0  0  0  0  0  0  0  0  0
  141.3170   78.7150  222.6310 C   0  0  1  0  0  0  0  0  0  0  0  0
  141.9390   78.0960  223.6900 F   0  0  0  0  0  0  0  0  0  0  0  0
  141.8080   78.1700  221.2790 C   0  0  0  0  0  0  0  0  0  0  0  0
  140.5350   77.9270  220.5580 C   0  0  1  0  0  0  0  0  0  0  0  0
  140.5470   77.1410  219.3140 C   0  0  0  0  0  0  0  0  0  0  0  0
  141.0480   75.8990  219.4290 O   0  0  0  0  0  0  0  0  0  0  0  0
  142.0490   75.1360  219.8470 C   0  0  0  0  0  0  0  0  0  0  0  0
  143.3500   75.6860  219.7190 C   0  0  0  0  0  0  0  0  0  0  0  0
  144.4710   75.0160  220.1030 C   0  0  0  0  0  0  0  0  0  0  0  0
  144.3560   73.7700  220.6320 C   0  0  0  0  0  0  0  0  0  0  0  0
  143.1350   73.1720  220.7880 C   0  0  0  0  0  0  0  0  0  0  0  0
  142.0180   73.8730  220.3890 C   0  0  0  0  0  0  0  0  0  0  0  0
  139.6720   71.5950  223.1030 C   0  0  0  0  0  0  0  0  0  0  0  0
  139.2980   70.2770  222.9450 C   0  0  0  0  0  0  0  0  0  0  0  0
  139.4470   69.3530  223.9630 C   0  0  0  0  0  0  0  0  0  0  0  0
  139.9920   69.7660  225.1810 C   0  0  0  0  0  0  0  0  0  0  0  0
  140.1380   68.8560  226.1810 C   0  0  0  0  0  0  0  0  0  0  0  0
  140.6850   69.3030  227.3850 C   0  0  0  0  0  0  0  0  0  0  0  0
  140.8960   68.1650  228.7110 Cl  0  0  0  0  0  0  0  0  0  0  0  0
  141.0630   70.6220  227.5490 C   0  0  0  0  0  0  0  0  0  0  0  0
  140.9000   71.5230  226.5100 C   0  0  0  0  0  0  0  0  0  0  0  0
  140.3580   71.0960  225.3070 C   0  0  0  0  0  0  0  0  0  0  0  0
  140.1970   71.9740  224.2890 N   0  0  0  0  0  0  0  0  0  0  0  0
  139.2730   74.1840  223.3250 H   0  0  0  0  0  0  0  0  0  0  0  0
  139.9816   74.9380  220.5804 H   0  0  0  0  0  0  0  0  0  0  0  0
  138.2079   74.7244  220.6683 H   0  0  0  0  0  0  0  0  0  0  0  0
  139.2615   79.3956  222.3575 H   0  0  0  0  0  0  0  0  0  0  0  0
  139.3903   78.2597  223.6469 H   0  0  0  0  0  0  0  0  0  0  0  0
  141.5621   79.7826  222.7313 H   0  0  0  0  0  0  0  0  0  0  0  0
  142.4294   78.9096  220.7528 H   0  0  0  0  0  0  0  0  0  0  0  0
  142.4428   77.2760  221.3676 H   0  0  0  0  0  0  0  0  0  0  0  0
  140.1482   78.8321  220.0668 H   0  0  0  0  0  0  0  0  0  0  0  0
  139.5112   77.0585  218.9530 H   0  0  0  0  0  0  0  0  0  0  0  0
  141.2115   77.6763  218.6198 H   0  0  0  0  0  0  0  0  0  0  0  0
  143.4575   76.6942  219.2924 H   0  0  0  0  0  0  0  0  0  0  0  0
  145.4616   75.4796  219.9859 H   0  0  0  0  0  0  0  0  0  0  0  0
  145.2633   73.2305  220.9414 H   0  0  0  0  0  0  0  0  0  0  0  0
  143.0481   72.1634  221.2184 H   0  0  0  0  0  0  0  0  0  0  0  0
  141.0372   73.3905  220.5122 H   0  0  0  0  0  0  0  0  0  0  0  0
  138.8703   69.9525  221.9849 H   0  0  0  0  0  0  0  0  0  0  0  0
  139.1405   68.3069  223.8156 H   0  0  0  0  0  0  0  0  0  0  0  0
  139.8363   67.8068  226.0461 H   0  0  0  0  0  0  0  0  0  0  0  0
  141.4933   70.9562  228.5046 H   0  0  0  0  0  0  0  0  0  0  0  0
  141.1994   72.5737  226.6385 H   0  0  0  0  0  0  0  0  0  0  0  0
  1  2  2  0
  2  3  1  0
  3  4  1  0
  4  5  1  0
  5  6  2  0
  5  7  1  0
  7  8  1  0
  8  9  1  0
  9 10  1  0
  9 11  1  0
 11 12  1  0
 12 13  1  0
 13 14  1  0
 14 15  1  0
 15 16  2  0
 16 17  1  0
 17 18  2  0
 18 19  1  0
 19 20  2  0
  2 21  1  0
 21 22  2  0
 22 23  1  0
 23 24  2  0
 24 25  1  0
 25 26  2  0
 26 27  1  0
 26 28  1  0
 28 29  2  0
 29 30  1  0
 30 31  2  0
 12  7  1  0
 20 15  1  0
 31 21  1  0
 30 24  1  0
  3 32  1  0
  4 33  1  0
  4 34  1  0
  8 35  1  0
  8 36  1  0
  9 37  1  6
 11 38  1  0
 11 39  1  0
 12 40  1  6
 13 41  1  0
 13 42  1  0
 16 43  1  0
 17 44  1  0
 18 45  1  0
 19 46  1  0
 20 47  1  0
 22 48  1  0
 23 49  1  0
 25 50  1  0
 28 51  1  0
 29 52  1  0
M  END
>  <smiles>  (21) 
O=C(NCC(=O)N1C[C@@H](F)C[C@H]1COc1ccccc1)c1ccc2cc(Cl)ccc2n1

>  <score_type>  (21) 
oracle

>  <origin>  (21) 
autodockgpu

>  <m_score__min__energy>  (21) 
-8.5399999999999991

>  <m_primary>  (21) 
energy

>  <rmsd>  (21) 
2.8570922357282957

>  <m_score__min__rmsd>  (21) 
2.8570922357282957

>  <meeko>  (21) 
{"free_energy": -7.64, "intermolecular_energy": -9.73, "internal_energy": -2.24, "cluster_size": 11, "cluster_id": 4, "rank_in_cluster": 7}

>  <energy>  (21) 
-7.75

>  <cluster_rmsd>  (21) 
0.9

>  <cluster>  (21) 
2

$$$$

     RDKit          3D

 52 55  0  0  0  0  0  0  0  0999 V2000
  139.4580   71.9700  220.6900 O   0  0  0  0  0  0  0  0  0  0  0  0
  139.6120   72.4550  221.8430 C   0  0  0  0  0  0  0  0  0  0  0  0
  139.6690   73.8540  222.1000 N   0  0  0  0  0  0  0  0  0  0  0  0
  139.5510   74.8390  221.0030 C   0  0  0  0  0  0  0  0  0  0  0  0
  140.3380   76.0110  221.3510 C   0  0  0  0  0  0  0  0  0  0  0  0
  141.0720   75.9020  222.4090 O   0  0  0  0  0  0  0  0  0  0  0  0
  140.4160   77.2450  220.7010 N   0  0  0  0  0  0  0  0  0  0  0  0
  139.4150   78.3140  220.9440 C   0  0  0  0  0  0  0  0  0  0  0  0
  140.3680   79.4740  221.1580 C   0  0  1  0  0  0  0  0  0  0  0  0
  140.5300   79.7550  222.4950 F   0  0  0  0  0  0  0  0  0  0  0  0
  141.6950   79.0770  220.4900 C   0  0  0  0  0  0  0  0  0  0  0  0
  141.3130   77.8540  219.7400 C   0  0  1  0  0  0  0  0  0  0  0  0
  142.3660   76.9940  219.1760 C   0  0  0  0  0  0  0  0  0  0  0  0
  142.3600   75.7230  219.6140 O   0  0  0  0  0  0  0  0  0  0  0  0
  143.0710   74.6900  220.0440 C   0  0  0  0  0  0  0  0  0  0  0  0
  144.4650   74.9080  220.1920 C   0  0  0  0  0  0  0  0  0  0  0  0
  145.3180   73.9380  220.6210 C   0  0  0  0  0  0  0  0  0  0  0  0
  144.8320   72.7070  220.9240 C   0  0  0  0  0  0  0  0  0  0  0  0
  143.4980   72.4190  220.8070 C   0  0  0  0  0  0  0  0  0  0  0  0
  142.6590   73.4200  220.3690 C   0  0  0  0  0  0  0  0  0  0  0  0
  139.7350   71.5200  222.9830 C   0  0  0  0  0  0  0  0  0  0  0  0
  139.3020   70.2160  222.8680 C   0  0  0  0  0  0  0  0  0  0  0  0
  139.4050   69.3220  223.9170 C   0  0  0  0  0  0  0  0  0  0  0  0
  139.9640   69.7510  225.1230 C   0  0  0  0  0  0  0  0  0  0  0  0
  140.0650   68.8690  226.1540 C   0  0  0  0  0  0  0  0  0  0  0  0
  140.6280   69.3320  227.3450 C   0  0  0  0  0  0  0  0  0  0  0  0
  140.7820   68.2320  228.7100 Cl  0  0  0  0  0  0  0  0  0  0  0  0
  141.0640   70.6380  227.4670 C   0  0  0  0  0  0  0  0  0  0  0  0
  140.9460   71.5100  226.3970 C   0  0  0  0  0  0  0  0  0  0  0  0
  140.3900   71.0670  225.2060 C   0  0  0  0  0  0  0  0  0  0  0  0
  140.2720   71.9160  224.1580 N   0  0  0  0  0  0  0  0  0  0  0  0
  139.8000   74.1470  223.0900 H   0  0  0  0  0  0  0  0  0  0  0  0
  139.9306   74.4009  220.0681 H   0  0  0  0  0  0  0  0  0  0  0  0
  138.4973   75.1205  220.8600 H   0  0  0  0  0  0  0  0  0  0  0  0
  138.7589   78.4721  220.0753 H   0  0  0  0  0  0  0  0  0  0  0  0
  138.7040   78.1242  221.7616 H   0  0  0  0  0  0  0  0  0  0  0  0
  139.9708   80.3973  220.7111 H   0  0  0  0  0  0  0  0  0  0  0  0
  142.0521   79.8659  219.8117 H   0  0  0  0  0  0  0  0  0  0  0  0
  142.5188   78.9200  221.2018 H   0  0  0  0  0  0  0  0  0  0  0  0
  140.8711   78.0801  218.7584 H   0  0  0  0  0  0  0  0  0  0  0  0
  142.2439   76.9783  218.0829 H   0  0  0  0  0  0  0  0  0  0  0  0
  143.3228   77.4264  219.5039 H   0  0  0  0  0  0  0  0  0  0  0  0
  144.8728   75.9006  219.9504 H   0  0  0  0  0  0  0  0  0  0  0  0
  146.3927   74.1498  220.7214 H   0  0  0  0  0  0  0  0  0  0  0  0
  145.5237   71.9250  221.2705 H   0  0  0  0  0  0  0  0  0  0  0  0
  143.1091   71.4204  221.0549 H   0  0  0  0  0  0  0  0  0  0  0  0
  141.5882   73.1872  220.2731 H   0  0  0  0  0  0  0  0  0  0  0  0
  138.8635   69.8787  221.9173 H   0  0  0  0  0  0  0  0  0  0  0  0
  139.0515   68.2865  223.8036 H   0  0  0  0  0  0  0  0  0  0  0  0
  139.7164   67.8306  226.0532 H   0  0  0  0  0  0  0  0  0  0  0  0
  141.5045   70.9848  228.4134 H   0  0  0  0  0  0  0  0  0  0  0  0
  141.2920   72.5499  226.4916 H   0  0  0  0  0  0  0  0  0  0  0  0
  1  2  2  0
  2  3  1  0
  3  4  1  0
  4  5  1  0
  5  6  2  0
  5  7  1  0
  7  8  1  0
  8  9  1  0
  9 10  1  0
  9 11  1  0
 11 12  1  0
 12 13  1  0
 13 14  1  0
 14 15  1  0
 15 16  2  0
 16 17  1  0
 17 18  2  0
 18 19  1  0
 19 20  2  0
  2 21  1  0
 21 22  2  0
 22 23  1  0
 23 24  2  0
 24 25  1  0
 25 26  2  0
 26 27  1  0
 26 28  1  0
 28 29  2  0
 29 30  1  0
 30 31  2  0
 12  7  1  0
 20 15  1  0
 31 21  1  0
 30 24  1  0
  3 32  1  0
  4 33  1  0
  4 34  1  0
  8 35  1  0
  8 36  1  0
  9 37  1  6
 11 38  1  0
 11 39  1  0
 12 40  1  6
 13 41  1  0
 13 42  1  0
 16 43  1  0
 17 44  1  0
 18 45  1  0
 19 46  1  0
 20 47  1  0
 22 48  1  0
 23 49  1  0
 25 50  1  0
 28 51  1  0
 29 52  1  0
M  END
>  <smiles>  (22) 
O=C(NCC(=O)N1C[C@@H](F)C[C@H]1COc1ccccc1)c1ccc2cc(Cl)ccc2n1

>  <score_type>  (22) 
oracle

>  <origin>  (22) 
autodockgpu

>  <m_score__min__energy>  (22) 
-8.5399999999999991

>  <m_primary>  (22) 
energy

>  <rmsd>  (22) 
2.376863164090605

>  <m_score__min__rmsd>  (22) 
2.376863164090605

>  <meeko>  (22) 
{"free_energy": -7.76, "intermolecular_energy": -9.84, "internal_energy": -2.56, "cluster_size": 11, "cluster_id": 4, "rank_in_cluster": 5}

>  <energy>  (22) 
-7.61

>  <cluster_rmsd>  (22) 
1.36

>  <cluster>  (22) 
2

$$$$

     RDKit          3D

 52 55  0  0  0  0  0  0  0  0999 V2000
  140.2400   72.3160  220.6870 O   0  0  0  0  0  0  0  0  0  0  0  0
  140.0160   72.7720  221.8400 C   0  0  0  0  0  0  0  0  0  0  0  0
  139.7650   74.1480  222.1010 N   0  0  0  0  0  0  0  0  0  0  0  0
  139.7520   75.1440  221.0060 C   0  0  0  0  0  0  0  0  0  0  0  0
  140.9670   75.9390  221.0950 C   0  0  0  0  0  0  0  0  0  0  0  0
  141.4420   76.1090  222.2840 O   0  0  0  0  0  0  0  0  0  0  0  0
  141.6970   76.5470  220.0720 N   0  0  0  0  0  0  0  0  0  0  0  0
  143.0140   76.0150  219.6360 C   0  0  0  0  0  0  0  0  0  0  0  0
  142.7800   76.0240  218.1390 C   0  0  1  0  0  0  0  0  0  0  0  0
  142.4680   74.7690  217.6690 F   0  0  0  0  0  0  0  0  0  0  0  0
  141.6460   77.0310  217.8810 C   0  0  0  0  0  0  0  0  0  0  0  0
  141.5080   77.6910  219.2030 C   0  0  1  0  0  0  0  0  0  0  0  0
  140.3350   78.5400  219.4680 C   0  0  0  0  0  0  0  0  0  0  0  0
  140.3300   79.1470  220.6680 O   0  0  0  0  0  0  0  0  0  0  0  0
  140.9880   79.3990  221.7910 C   0  0  0  0  0  0  0  0  0  0  0  0
  142.1610   80.1860  221.6660 C   0  0  0  0  0  0  0  0  0  0  0  0
  142.9380   80.5200  222.7330 C   0  0  0  0  0  0  0  0  0  0  0  0
  142.5890   80.0910  223.9740 C   0  0  0  0  0  0  0  0  0  0  0  0
  141.4710   79.3270  224.1760 C   0  0  0  0  0  0  0  0  0  0  0  0
  140.7050   79.0030  223.0770 C   0  0  0  0  0  0  0  0  0  0  0  0
  140.0140   71.8250  222.9770 C   0  0  0  0  0  0  0  0  0  0  0  0
  139.4810   70.5620  222.8340 C   0  0  0  0  0  0  0  0  0  0  0  0
  139.4660   69.6570  223.8790 C   0  0  0  0  0  0  0  0  0  0  0  0
  140.0060   70.0330  225.1110 C   0  0  0  0  0  0  0  0  0  0  0  0
  139.9910   69.1410  226.1380 C   0  0  0  0  0  0  0  0  0  0  0  0
  140.5400   69.5510  227.3550 C   0  0  0  0  0  0  0  0  0  0  0  0
  140.5450   68.4350  228.7160 Cl  0  0  0  0  0  0  0  0  0  0  0  0
  141.0760   70.8150  227.5050 C   0  0  0  0  0  0  0  0  0  0  0  0
  141.0760   71.6990  226.4380 C   0  0  0  0  0  0  0  0  0  0  0  0
  140.5350   71.3090  225.2210 C   0  0  0  0  0  0  0  0  0  0  0  0
  140.5320   72.1690  224.1770 N   0  0  0  0  0  0  0  0  0  0  0  0
  139.5930   74.4180  223.0910 H   0  0  0  0  0  0  0  0  0  0  0  0
  139.7156   74.6284  220.0350 H   0  0  0  0  0  0  0  0  0  0  0  0
  138.8681   75.7927  221.0952 H   0  0  0  0  0  0  0  0  0  0  0  0
  143.8442   76.6744  219.9290 H   0  0  0  0  0  0  0  0  0  0  0  0
  143.3021   75.0449  220.0671 H   0  0  0  0  0  0  0  0  0  0  0  0
  143.6917   76.3207  217.5998 H   0  0  0  0  0  0  0  0  0  0  0  0
  141.9247   77.7546  217.1008 H   0  0  0  0  0  0  0  0  0  0  0  0
  140.7165   76.5671  217.5193 H   0  0  0  0  0  0  0  0  0  0  0  0
  142.2252   78.5134  219.3419 H   0  0  0  0  0  0  0  0  0  0  0  0
  140.2955   79.3186  218.6920 H   0  0  0  0  0  0  0  0  0  0  0  0
  139.4631   77.8693  219.4601 H   0  0  0  0  0  0  0  0  0  0  0  0
  142.4549   80.5408  220.6671 H   0  0  0  0  0  0  0  0  0  0  0  0
  143.8409   81.1321  222.5915 H   0  0  0  0  0  0  0  0  0  0  0  0
  143.2179   80.3632  224.8345 H   0  0  0  0  0  0  0  0  0  0  0  0
  141.1930   78.9828  225.1831 H   0  0  0  0  0  0  0  0  0  0  0  0
  139.8082   78.3870  223.2393 H   0  0  0  0  0  0  0  0  0  0  0  0
  139.0565   70.2664  221.8632 H   0  0  0  0  0  0  0  0  0  0  0  0
  139.0346   68.6544  223.7420 H   0  0  0  0  0  0  0  0  0  0  0  0
  139.5629   68.1353  226.0146 H   0  0  0  0  0  0  0  0  0  0  0  0
  141.5030   71.1200  228.4718 H   0  0  0  0  0  0  0  0  0  0  0  0
  141.5031   72.7059  226.5551 H   0  0  0  0  0  0  0  0  0  0  0  0
  1  2  2  0
  2  3  1  0
  3  4  1  0
  4  5  1  0
  5  6  2  0
  5  7  1  0
  7  8  1  0
  8  9  1  0
  9 10  1  0
  9 11  1  0
 11 12  1  0
 12 13  1  0
 13 14  1  0
 14 15  1  0
 15 16  2  0
 16 17  1  0
 17 18  2  0
 18 19  1  0
 19 20  2  0
  2 21  1  0
 21 22  2  0
 22 23  1  0
 23 24  2  0
 24 25  1  0
 25 26  2  0
 26 27  1  0
 26 28  1  0
 28 29  2  0
 29 30  1  0
 30 31  2  0
 12  7  1  0
 20 15  1  0
 31 21  1  0
 30 24  1  0
  3 32  1  0
  4 33  1  0
  4 34  1  0
  8 35  1  0
  8 36  1  0
  9 37  1  6
 11 38  1  0
 11 39  1  0
 12 40  1  1
 13 41  1  0
 13 42  1  0
 16 43  1  0
 17 44  1  0
 18 45  1  0
 19 46  1  0
 20 47  1  0
 22 48  1  0
 23 49  1  0
 25 50  1  0
 28 51  1  0
 29 52  1  0
M  END
>  <smiles>  (23) 
O=C(NCC(=O)N1C[C@@H](F)C[C@H]1COc1ccccc1)c1ccc2cc(Cl)ccc2n1

>  <score_type>  (23) 
oracle

>  <origin>  (23) 
autodockgpu

>  <m_score__min__energy>  (23) 
-8.5399999999999991

>  <m_primary>  (23) 
energy

>  <rmsd>  (23) 
2.148376827206228

>  <m_score__min__rmsd>  (23) 
2.148376827206228

>  <meeko>  (23) 
{"free_energy": -8.24, "intermolecular_energy": -10.33, "internal_energy": -2.02, "cluster_size": 15, "cluster_id": 1, "rank_in_cluster": 6}

>  <energy>  (23) 
-7.4

>  <cluster_rmsd>  (23) 
1.22

>  <cluster>  (23) 
2

$$$$

     RDKit          3D

 52 55  0  0  0  0  0  0  0  0999 V2000
  138.9070   72.8150  220.7420 O   0  0  0  0  0  0  0  0  0  0  0  0
  138.5270   73.6520  221.6030 C   0  0  0  0  0  0  0  0  0  0  0  0
  137.3900   73.4550  222.4350 N   0  0  0  0  0  0  0  0  0  0  0  0
  136.5710   72.2270  222.3340 C   0  0  0  0  0  0  0  0  0  0  0  0
  137.1990   71.1890  223.1370 C   0  0  0  0  0  0  0  0  0  0  0  0
  136.8680   71.1670  224.3860 O   0  0  0  0  0  0  0  0  0  0  0  0
  138.1120   70.2070  222.7480 N   0  0  0  0  0  0  0  0  0  0  0  0
  137.6690   68.8420  222.3680 C   0  0  0  0  0  0  0  0  0  0  0  0
  138.4590   68.6940  221.0820 C   0  0  1  0  0  0  0  0  0  0  0  0
  137.6720   68.9190  219.9770 F   0  0  0  0  0  0  0  0  0  0  0  0
  139.6240   69.6950  221.1710 C   0  0  0  0  0  0  0  0  0  0  0  0
  139.5500   70.1360  222.5860 C   0  0  1  0  0  0  0  0  0  0  0  0
  140.3260   71.3100  223.0180 C   0  0  0  0  0  0  0  0  0  0  0  0
  140.8390   71.2300  224.2580 O   0  0  0  0  0  0  0  0  0  0  0  0
  140.6220   70.9580  225.5370 C   0  0  0  0  0  0  0  0  0  0  0  0
  141.1250   71.8990  226.4710 C   0  0  0  0  0  0  0  0  0  0  0  0
  140.9800   71.7480  227.8160 C   0  0  0  0  0  0  0  0  0  0  0  0
  140.3270   70.6590  228.3000 C   0  0  0  0  0  0  0  0  0  0  0  0
  139.8120   69.7070  227.4620 C   0  0  0  0  0  0  0  0  0  0  0  0
  139.9770   69.8850  226.1050 C   0  0  0  0  0  0  0  0  0  0  0  0
  139.3060   74.9010  221.7540 C   0  0  0  0  0  0  0  0  0  0  0  0
  140.6030   74.9770  221.2910 C   0  0  0  0  0  0  0  0  0  0  0  0
  141.3530   76.1310  221.4180 C   0  0  0  0  0  0  0  0  0  0  0  0
  140.7820   77.2490  222.0310 C   0  0  0  0  0  0  0  0  0  0  0  0
  141.5220   78.3830  222.1550 C   0  0  0  0  0  0  0  0  0  0  0  0
  140.9190   79.4810  222.7730 C   0  0  0  0  0  0  0  0  0  0  0  0
  141.8330   80.9740  222.9590 Cl  0  0  0  0  0  0  0  0  0  0  0  0
  139.6200   79.4120  223.2390 C   0  0  0  0  0  0  0  0  0  0  0  0
  138.8940   78.2410  223.0960 C   0  0  0  0  0  0  0  0  0  0  0  0
  139.4770   77.1400  222.4840 C   0  0  0  0  0  0  0  0  0  0  0  0
  138.7720   75.9930  222.3430 N   0  0  0  0  0  0  0  0  0  0  0  0
  137.1630   74.2120  223.1130 H   0  0  0  0  0  0  0  0  0  0  0  0
  135.5565   72.4250  222.7103 H   0  0  0  0  0  0  0  0  0  0  0  0
  136.5024   71.9036  221.2848 H   0  0  0  0  0  0  0  0  0  0  0  0
  137.9554   68.0903  223.1183 H   0  0  0  0  0  0  0  0  0  0  0  0
  136.5817   68.7025  222.2773 H   0  0  0  0  0  0  0  0  0  0  0  0
  138.8373   67.6675  220.9668 H   0  0  0  0  0  0  0  0  0  0  0  0
  140.5861   69.2076  220.9548 H   0  0  0  0  0  0  0  0  0  0  0  0
  139.5539   70.5200  220.4468 H   0  0  0  0  0  0  0  0  0  0  0  0
  140.0692   69.4496  223.2710 H   0  0  0  0  0  0  0  0  0  0  0  0
  141.1591   71.4461  222.3127 H   0  0  0  0  0  0  0  0  0  0  0  0
  139.6213   72.1545  223.0321 H   0  0  0  0  0  0  0  0  0  0  0  0
  141.6536   72.7867  226.0934 H   0  0  0  0  0  0  0  0  0  0  0  0
  141.3882   72.5015  228.5056 H   0  0  0  0  0  0  0  0  0  0  0  0
  140.2099   70.5401  229.3873 H   0  0  0  0  0  0  0  0  0  0  0  0
  139.2832   68.8278  227.8588 H   0  0  0  0  0  0  0  0  0  0  0  0
  139.5655   69.1180  225.4324 H   0  0  0  0  0  0  0  0  0  0  0  0
  141.0521   74.0965  220.8082 H   0  0  0  0  0  0  0  0  0  0  0  0
  142.3858   76.1686  221.0414 H   0  0  0  0  0  0  0  0  0  0  0  0
  142.5559   78.4338  221.7829 H   0  0  0  0  0  0  0  0  0  0  0  0
  139.1624   80.2871  223.7236 H   0  0  0  0  0  0  0  0  0  0  0  0
  137.8596   78.1839  223.4659 H   0  0  0  0  0  0  0  0  0  0  0  0
  1  2  2  0
  2  3  1  0
  3  4  1  0
  4  5  1  0
  5  6  2  0
  5  7  1  0
  7  8  1  0
  8  9  1  0
  9 10  1  0
  9 11  1  0
 11 12  1  0
 12 13  1  0
 13 14  1  0
 14 15  1  0
 15 16  2  0
 16 17  1  0
 17 18  2  0
 18 19  1  0
 19 20  2  0
  2 21  1  0
 21 22  2  0
 22 23  1  0
 23 24  2  0
 24 25  1  0
 25 26  2  0
 26 27  1  0
 26 28  1  0
 28 29  2  0
 29 30  1  0
 30 31  2  0
 12  7  1  0
 20 15  1  0
 31 21  1  0
 30 24  1  0
  3 32  1  0
  4 33  1  0
  4 34  1  0
  8 35  1  0
  8 36  1  0
  9 37  1  6
 11 38  1  0
 11 39  1  0
 12 40  1  1
 13 41  1  0
 13 42  1  0
 16 43  1  0
 17 44  1  0
 18 45  1  0
 19 46  1  0
 20 47  1  0
 22 48  1  0
 23 49  1  0
 25 50  1  0
 28 51  1  0
 29 52  1  0
M  END
>  <smiles>  (24) 
O=C(NCC(=O)N1C[C@@H](F)C[C@H]1COc1ccccc1)c1ccc2cc(Cl)ccc2n1

>  <score_type>  (24) 
oracle

>  <origin>  (24) 
autodockgpu

>  <m_score__min__energy>  (24) 
-8.5399999999999991

>  <m_primary>  (24) 
energy

>  <rmsd>  (24) 
7.425755336948042

>  <m_score__min__rmsd>  (24) 
7.425755336948042

>  <meeko>  (24) 
{"free_energy": -7.31, "intermolecular_energy": -9.4, "internal_energy": -2.19, "cluster_size": 5, "cluster_id": 5, "rank_in_cluster": 5}

>  <energy>  (24) 
-7.96

>  <cluster_rmsd>  (24) 
0.0

>  <cluster>  (24) 
3

$$$$

     RDKit          3D

 52 55  0  0  0  0  0  0  0  0999 V2000
  133.4990   69.8470  226.4780 O   0  0  0  0  0  0  0  0  0  0  0  0
  133.9520   70.9590  226.0980 C   0  0  0  0  0  0  0  0  0  0  0  0
  135.0720   71.0910  225.2310 N   0  0  0  0  0  0  0  0  0  0  0  0
  135.7850   69.9010  224.7160 C   0  0  0  0  0  0  0  0  0  0  0  0
  137.0290   70.3410  224.1020 C   0  0  0  0  0  0  0  0  0  0  0  0
  137.3010   71.5990  224.2210 O   0  0  0  0  0  0  0  0  0  0  0  0
  137.9750   69.5940  223.3980 N   0  0  0  0  0  0  0  0  0  0  0  0
  137.7330   68.1730  223.0400 C   0  0  0  0  0  0  0  0  0  0  0  0
  138.1370   68.2320  221.5800 C   0  0  1  0  0  0  0  0  0  0  0  0
  137.0390   68.3020  220.7550 F   0  0  0  0  0  0  0  0  0  0  0  0
  139.0460   69.4640  221.4300 C   0  0  0  0  0  0  0  0  0  0  0  0
  139.2890   69.8470  222.8430 C   0  0  1  0  0  0  0  0  0  0  0  0
  139.8970   71.1530  223.1430 C   0  0  0  0  0  0  0  0  0  0  0  0
  140.6000   71.2060  224.2880 O   0  0  0  0  0  0  0  0  0  0  0  0
  140.5930   71.0640  225.6060 C   0  0  0  0  0  0  0  0  0  0  0  0
  139.9710   69.8910  226.1050 C   0  0  0  0  0  0  0  0  0  0  0  0
  139.8860   69.6150  227.4360 C   0  0  0  0  0  0  0  0  0  0  0  0
  140.4150   70.4860  228.3340 C   0  0  0  0  0  0  0  0  0  0  0  0
  141.0320   71.6390  227.9300 C   0  0  0  0  0  0  0  0  0  0  0  0
  141.1010   71.8930  226.5770 C   0  0  0  0  0  0  0  0  0  0  0  0
  133.2800   72.1870  226.5770 C   0  0  0  0  0  0  0  0  0  0  0  0
  132.0620   72.1130  227.2190 C   0  0  0  0  0  0  0  0  0  0  0  0
  131.4120   73.2450  227.6770 C   0  0  0  0  0  0  0  0  0  0  0  0
  132.0070   74.4940  227.4860 C   0  0  0  0  0  0  0  0  0  0  0  0
  131.3670   75.6050  227.9380 C   0  0  0  0  0  0  0  0  0  0  0  0
  131.9900   76.8370  227.7290 C   0  0  0  0  0  0  0  0  0  0  0  0
  131.2040   78.3070  228.2950 Cl  0  0  0  0  0  0  0  0  0  0  0  0
  133.2110   76.9190  227.0880 C   0  0  0  0  0  0  0  0  0  0  0  0
  133.8360   75.7660  226.6400 C   0  0  0  0  0  0  0  0  0  0  0  0
  133.2320   74.5340  226.8390 C   0  0  0  0  0  0  0  0  0  0  0  0
  133.8390   73.4050  226.4020 N   0  0  0  0  0  0  0  0  0  0  0  0
  135.3650   72.0580  224.9800 H   0  0  0  0  0  0  0  0  0  0  0  0
  136.0033   69.2112  225.5446 H   0  0  0  0  0  0  0  0  0  0  0  0
  135.1621   69.3783  223.9753 H   0  0  0  0  0  0  0  0  0  0  0  0
  138.3694   67.4867  223.6179 H   0  0  0  0  0  0  0  0  0  0  0  0
  136.7178   67.7986  223.2381 H   0  0  0  0  0  0  0  0  0  0  0  0
  138.6703   67.3175  221.2812 H   0  0  0  0  0  0  0  0  0  0  0  0
  139.9856   69.2068  220.9191 H   0  0  0  0  0  0  0  0  0  0  0  0
  138.6037   70.2684  220.8239 H   0  0  0  0  0  0  0  0  0  0  0  0
  140.1119   69.2778  223.3000 H   0  0  0  0  0  0  0  0  0  0  0  0
  140.5738   71.4118  222.3154 H   0  0  0  0  0  0  0  0  0  0  0  0
  139.0620   71.8589  223.2636 H   0  0  0  0  0  0  0  0  0  0  0  0
  139.5402   69.1759  225.3887 H   0  0  0  0  0  0  0  0  0  0  0  0
  139.3930   68.6942  227.7809 H   0  0  0  0  0  0  0  0  0  0  0  0
  140.3461   70.2600  229.4083 H   0  0  0  0  0  0  0  0  0  0  0  0
  141.4592   72.3405  228.6617 H   0  0  0  0  0  0  0  0  0  0  0  0
  141.5954   72.8207  226.2531 H   0  0  0  0  0  0  0  0  0  0  0  0
  131.5952   71.1286  227.3709 H   0  0  0  0  0  0  0  0  0  0  0  0
  130.4397   73.1625  228.1848 H   0  0  0  0  0  0  0  0  0  0  0  0
  130.3953   75.5360  228.4490 H   0  0  0  0  0  0  0  0  0  0  0  0
  133.6868   77.8986  226.9333 H   0  0  0  0  0  0  0  0  0  0  0  0
  134.8078   75.8281  226.1284 H   0  0  0  0  0  0  0  0  0  0  0  0
  1  2  2  0
  2  3  1  0
  3  4  1  0
  4  5  1  0
  5  6  2  0
  5  7  1  0
  7  8  1  0
  8  9  1  0
  9 10  1  0
  9 11  1  0
 11 12  1  0
 12 13  1  0
 13 14  1  0
 14 15  1  0
 15 16  2  0
 16 17  1  0
 17 18  2  0
 18 19  1  0
 19 20  2  0
  2 21  1  0
 21 22  2  0
 22 23  1  0
 23 24  2  0
 24 25  1  0
 25 26  2  0
 26 27  1  0
 26 28  1  0
 28 29  2  0
 29 30  1  0
 30 31  2  0
 12  7  1  0
 20 15  1  0
 31 21  1  0
 30 24  1  0
  3 32  1  0
  4 33  1  0
  4 34  1  0
  8 35  1  0
  8 36  1  0
  9 37  1  6
 11 38  1  0
 11 39  1  0
 12 40  1  1
 13 41  1  0
 13 42  1  0
 16 43  1  0
 17 44  1  0
 18 45  1  0
 19 46  1  0
 20 47  1  0
 22 48  1  0
 23 49  1  0
 25 50  1  0
 28 51  1  0
 29 52  1  0
M  END
>  <smiles>  (25) 
O=C(NCC(=O)N1C[C@@H](F)C[C@H]1COc1ccccc1)c1ccc2cc(Cl)ccc2n1

>  <score_type>  (25) 
oracle

>  <origin>  (25) 
autodockgpu

>  <m_score__min__energy>  (25) 
-8.5399999999999991

>  <m_primary>  (25) 
energy

>  <rmsd>  (25) 
8.341211475364759

>  <m_score__min__rmsd>  (25) 
8.341211475364759

>  <meeko>  (25) 
{"free_energy": -7.96, "intermolecular_energy": -10.05, "internal_energy": -2.37, "cluster_size": 7, "cluster_id": 3, "rank_in_cluster": 1}

>  <energy>  (25) 
-7.93

>  <cluster_rmsd>  (25) 
0.34

>  <cluster>  (25) 
3

$$$$

     RDKit          3D

 52 55  0  0  0  0  0  0  0  0999 V2000
  139.6920   72.1590  220.8260 O   0  0  0  0  0  0  0  0  0  0  0  0
  139.6660   72.5940  222.0080 C   0  0  0  0  0  0  0  0  0  0  0  0
  139.5040   73.9700  222.3310 N   0  0  0  0  0  0  0  0  0  0  0  0
  139.3540   74.9920  221.2710 C   0  0  0  0  0  0  0  0  0  0  0  0
  138.4820   76.0450  221.7680 C   0  0  0  0  0  0  0  0  0  0  0  0
  138.2870   76.0570  223.0460 O   0  0  0  0  0  0  0  0  0  0  0  0
  137.8230   77.0510  221.0590 N   0  0  0  0  0  0  0  0  0  0  0  0
  137.2500   76.8020  219.7110 C   0  0  0  0  0  0  0  0  0  0  0  0
  135.8810   77.4150  219.9280 C   0  0  1  0  0  0  0  0  0  0  0  0
  134.9280   76.4530  220.1680 F   0  0  0  0  0  0  0  0  0  0  0  0
  136.0230   78.3890  221.1100 C   0  0  0  0  0  0  0  0  0  0  0  0
  137.4940   78.4410  221.2970 C   0  0  1  0  0  0  0  0  0  0  0  0
  138.0460   79.0550  222.5160 C   0  0  0  0  0  0  0  0  0  0  0  0
  139.3840   78.9980  222.6270 O   0  0  0  0  0  0  0  0  0  0  0  0
  140.5000   79.6240  222.9750 C   0  0  0  0  0  0  0  0  0  0  0  0
  141.7090   78.9170  222.7550 C   0  0  0  0  0  0  0  0  0  0  0  0
  142.9300   79.4330  223.0680 C   0  0  0  0  0  0  0  0  0  0  0  0
  143.0100   80.6760  223.6110 C   0  0  0  0  0  0  0  0  0  0  0  0
  141.8870   81.4220  223.8530 C   0  0  0  0  0  0  0  0  0  0  0  0
  140.6660   80.8720  223.5280 C   0  0  0  0  0  0  0  0  0  0  0  0
  139.8090   71.6200  223.1130 C   0  0  0  0  0  0  0  0  0  0  0  0
  139.4380   70.3040  222.9380 C   0  0  0  0  0  0  0  0  0  0  0  0
  139.5620   69.3730  223.9540 C   0  0  0  0  0  0  0  0  0  0  0  0
  140.0760   69.7790  225.1870 C   0  0  0  0  0  0  0  0  0  0  0  0
  140.1970   68.8610  226.1840 C   0  0  0  0  0  0  0  0  0  0  0  0
  140.7150   69.3010  227.4050 C   0  0  0  0  0  0  0  0  0  0  0  0
  140.8920   68.1540  228.7280 Cl  0  0  0  0  0  0  0  0  0  0  0  0
  141.0890   70.6180  227.5860 C   0  0  0  0  0  0  0  0  0  0  0  0
  140.9530   71.5270  226.5490 C   0  0  0  0  0  0  0  0  0  0  0  0
  140.4400   71.1070  225.3300 C   0  0  0  0  0  0  0  0  0  0  0  0
  140.3050   71.9920  224.3140 N   0  0  0  0  0  0  0  0  0  0  0  0
  139.4980   74.2210  223.3410 H   0  0  0  0  0  0  0  0  0  0  0  0
  140.3385   75.4131  221.0190 H   0  0  0  0  0  0  0  0  0  0  0  0
  138.9212   74.5382  220.3672 H   0  0  0  0  0  0  0  0  0  0  0  0
  137.8138   77.3180  218.9199 H   0  0  0  0  0  0  0  0  0  0  0  0
  137.2551   75.7538  219.3775 H   0  0  0  0  0  0  0  0  0  0  0  0
  135.5400   77.9455  219.0267 H   0  0  0  0  0  0  0  0  0  0  0  0
  135.6171   79.3806  220.8609 H   0  0  0  0  0  0  0  0  0  0  0  0
  135.4739   78.0749  222.0099 H   0  0  0  0  0  0  0  0  0  0  0  0
  137.9806   79.1633  220.6251 H   0  0  0  0  0  0  0  0  0  0  0  0
  137.7477   80.1137  222.5295 H   0  0  0  0  0  0  0  0  0  0  0  0
  137.6435   78.4758  223.3601 H   0  0  0  0  0  0  0  0  0  0  0  0
  141.6589   77.9107  222.3135 H   0  0  0  0  0  0  0  0  0  0  0  0
  143.8433   78.8486  222.8828 H   0  0  0  0  0  0  0  0  0  0  0  0
  143.9971   81.0918  223.8614 H   0  0  0  0  0  0  0  0  0  0  0  0
  141.9575   82.4278  224.2927 H   0  0  0  0  0  0  0  0  0  0  0  0
  139.7644   81.4710  223.7239 H   0  0  0  0  0  0  0  0  0  0  0  0
  139.0331   69.9859  221.9660 H   0  0  0  0  0  0  0  0  0  0  0  0
  139.2599   68.3277  223.7926 H   0  0  0  0  0  0  0  0  0  0  0  0
  139.8986   67.8128  226.0346 H   0  0  0  0  0  0  0  0  0  0  0  0
  141.4953   70.9457  228.5543 H   0  0  0  0  0  0  0  0  0  0  0  0
  141.2503   72.5765  226.6914 H   0  0  0  0  0  0  0  0  0  0  0  0
  1  2  2  0
  2  3  1  0
  3  4  1  0
  4  5  1  0
  5  6  2  0
  5  7  1  0
  7  8  1  0
  8  9  1  0
  9 10  1  0
  9 11  1  0
 11 12  1  0
 12 13  1  0
 13 14  1  0
 14 15  1  0
 15 16  2  0
 16 17  1  0
 17 18  2  0
 18 19  1  0
 19 20  2  0
  2 21  1  0
 21 22  2  0
 22 23  1  0
 23 24  2  0
 24 25  1  0
 25 26  2  0
 26 27  1  0
 26 28  1  0
 28 29  2  0
 29 30  1  0
 30 31  2  0
 12  7  1  0
 20 15  1  0
 31 21  1  0
 30 24  1  0
  3 32  1  0
  4 33  1  0
  4 34  1  0
  8 35  1  0
  8 36  1  0
  9 37  1  6
 11 38  1  0
 11 39  1  0
 12 40  1  6
 13 41  1  0
 13 42  1  0
 16 43  1  0
 17 44  1  0
 18 45  1  0
 19 46  1  0
 20 47  1  0
 22 48  1  0
 23 49  1  0
 25 50  1  0
 28 51  1  0
 29 52  1  0
M  END
>  <smiles>  (26) 
O=C(NCC(=O)N1C[C@@H](F)C[C@H]1COc1ccccc1)c1ccc2cc(Cl)ccc2n1

>  <score_type>  (26) 
oracle

>  <origin>  (26) 
autodockgpu

>  <m_score__min__energy>  (26) 
-8.5399999999999991

>  <m_primary>  (26) 
energy

>  <rmsd>  (26) 
2.883596056024827

>  <m_score__min__rmsd>  (26) 
2.883596056024827

>  <meeko>  (26) 
{"free_energy": -7.75, "intermolecular_energy": -9.83, "internal_energy": -2.09, "cluster_size": 8, "cluster_id": 2, "rank_in_cluster": 6}

>  <energy>  (26) 
-7.93

>  <cluster_rmsd>  (26) 
0.84

>  <cluster>  (26) 
3

$$$$

     RDKit          3D

 52 55  0  0  0  0  0  0  0  0999 V2000
  133.0790   69.8470  226.4840 O   0  0  0  0  0  0  0  0  0  0  0  0
  133.6930   70.9060  226.1870 C   0  0  0  0  0  0  0  0  0  0  0  0
  134.9090   70.9240  225.4490 N   0  0  0  0  0  0  0  0  0  0  0  0
  135.5370   69.6700  224.9780 C   0  0  0  0  0  0  0  0  0  0  0  0
  136.7260   70.0100  224.2130 C   0  0  0  0  0  0  0  0  0  0  0  0
  137.2600   71.1560  224.4840 O   0  0  0  0  0  0  0  0  0  0  0  0
  137.3780   69.2720  223.2240 N   0  0  0  0  0  0  0  0  0  0  0  0
  136.8920   69.2560  221.8200 C   0  0  0  0  0  0  0  0  0  0  0  0
  138.2110   69.5120  221.1180 C   0  0  1  0  0  0  0  0  0  0  0  0
  138.3320   70.8260  220.7330 F   0  0  0  0  0  0  0  0  0  0  0  0
  139.3160   69.1000  222.1060 C   0  0  0  0  0  0  0  0  0  0  0  0
  138.5440   68.4130  223.1710 C   0  0  1  0  0  0  0  0  0  0  0  0
  139.1980   68.1020  224.4520 C   0  0  0  0  0  0  0  0  0  0  0  0
  139.9190   69.1050  224.9820 O   0  0  0  0  0  0  0  0  0  0  0  0
  140.1240   69.9000  226.0240 C   0  0  0  0  0  0  0  0  0  0  0  0
  140.9150   71.0530  225.7860 C   0  0  0  0  0  0  0  0  0  0  0  0
  141.2110   71.9550  226.7610 C   0  0  0  0  0  0  0  0  0  0  0  0
  140.7360   71.7580  228.0190 C   0  0  0  0  0  0  0  0  0  0  0  0
  139.9650   70.6690  228.3280 C   0  0  0  0  0  0  0  0  0  0  0  0
  139.6840   69.7720  227.3200 C   0  0  0  0  0  0  0  0  0  0  0  0
  133.1140   72.1950  226.6290 C   0  0  0  0  0  0  0  0  0  0  0  0
  131.8920   72.2310  227.2660 C   0  0  0  0  0  0  0  0  0  0  0  0
  131.3290   73.4200  227.6890 C   0  0  0  0  0  0  0  0  0  0  0  0
  132.0160   74.6150  227.4650 C   0  0  0  0  0  0  0  0  0  0  0  0
  131.4600   75.7840  227.8830 C   0  0  0  0  0  0  0  0  0  0  0  0
  132.1750   76.9600  227.6420 C   0  0  0  0  0  0  0  0  0  0  0  0
  131.5000   78.5000  228.1630 Cl  0  0  0  0  0  0  0  0  0  0  0  0
  133.4000   76.9300  227.0050 C   0  0  0  0  0  0  0  0  0  0  0  0
  133.9380   75.7220  226.5930 C   0  0  0  0  0  0  0  0  0  0  0  0
  133.2420   74.5440  226.8230 C   0  0  0  0  0  0  0  0  0  0  0  0
  133.7630   73.3620  226.4220 N   0  0  0  0  0  0  0  0  0  0  0  0
  135.3330   71.8560  225.2600 H   0  0  0  0  0  0  0  0  0  0  0  0
  135.8161   69.0476  225.8410 H   0  0  0  0  0  0  0  0  0  0  0  0
  134.8314   69.1076  224.3489 H   0  0  0  0  0  0  0  0  0  0  0  0
  136.4580   68.2838  221.5435 H   0  0  0  0  0  0  0  0  0  0  0  0
  136.0837   69.9651  221.5879 H   0  0  0  0  0  0  0  0  0  0  0  0
  138.2828   68.9274  220.1890 H   0  0  0  0  0  0  0  0  0  0  0  0
  140.0388   68.4180  221.6343 H   0  0  0  0  0  0  0  0  0  0  0  0
  139.9183   69.9445  222.4721 H   0  0  0  0  0  0  0  0  0  0  0  0
  138.3439   67.3576  222.9342 H   0  0  0  0  0  0  0  0  0  0  0  0
  138.4168   67.8247  225.1751 H   0  0  0  0  0  0  0  0  0  0  0  0
  139.9098   67.2897  224.2435 H   0  0  0  0  0  0  0  0  0  0  0  0
  141.3051   71.2251  224.7720 H   0  0  0  0  0  0  0  0  0  0  0  0
  141.8293   72.8358  226.5329 H   0  0  0  0  0  0  0  0  0  0  0  0
  140.9758   72.4886  228.8056 H   0  0  0  0  0  0  0  0  0  0  0  0
  139.5824   70.5152  229.3478 H   0  0  0  0  0  0  0  0  0  0  0  0
  139.0670   68.8960  227.5690 H   0  0  0  0  0  0  0  0  0  0  0  0
  131.3513   71.2894  227.4421 H   0  0  0  0  0  0  0  0  0  0  0  0
  130.3525   73.4251  228.1955 H   0  0  0  0  0  0  0  0  0  0  0  0
  130.4847   75.8028  228.3914 H   0  0  0  0  0  0  0  0  0  0  0  0
  133.9488   77.8661  226.8247 H   0  0  0  0  0  0  0  0  0  0  0  0
  134.9135   75.6967  226.0853 H   0  0  0  0  0  0  0  0  0  0  0  0
  1  2  2  0
  2  3  1  0
  3  4  1  0
  4  5  1  0
  5  6  2  0
  5  7  1  0
  7  8  1  0
  8  9  1  0
  9 10  1  0
  9 11  1  0
 11 12  1  0
 12 13  1  0
 13 14  1  0
 14 15  1  0
 15 16  2  0
 16 17  1  0
 17 18  2  0
 18 19  1  0
 19 20  2  0
  2 21  1  0
 21 22  2  0
 22 23  1  0
 23 24  2  0
 24 25  1  0
 25 26  2  0
 26 27  1  0
 26 28  1  0
 28 29  2  0
 29 30  1  0
 30 31  2  0
 12  7  1  0
 20 15  1  0
 31 21  1  0
 30 24  1  0
  3 32  1  0
  4 33  1  0
  4 34  1  0
  8 35  1  0
  8 36  1  0
  9 37  1  6
 11 38  1  0
 11 39  1  0
 12 40  1  6
 13 41  1  0
 13 42  1  0
 16 43  1  0
 17 44  1  0
 18 45  1  0
 19 46  1  0
 20 47  1  0
 22 48  1  0
 23 49  1  0
 25 50  1  0
 28 51  1  0
 29 52  1  0
M  END
>  <smiles>  (27) 
O=C(NCC(=O)N1C[C@@H](F)C[C@H]1COc1ccccc1)c1ccc2cc(Cl)ccc2n1

>  <score_type>  (27) 
oracle

>  <origin>  (27) 
autodockgpu

>  <m_score__min__energy>  (27) 
-8.5399999999999991

>  <m_primary>  (27) 
energy

>  <rmsd>  (27) 
8.48241090615845

>  <m_score__min__rmsd>  (27) 
8.48241090615845

>  <meeko>  (27) 
{"free_energy": -7.67, "intermolecular_energy": -9.76, "internal_energy": -2.38, "cluster_size": 7, "cluster_id": 3, "rank_in_cluster": 6}

>  <energy>  (27) 
-7.75

>  <cluster_rmsd>  (27) 
0.84

>  <cluster>  (27) 
3

$$$$

     RDKit          3D

 52 55  0  0  0  0  0  0  0  0999 V2000
  138.7090   71.6030  220.6810 O   0  0  0  0  0  0  0  0  0  0  0  0
  138.8560   72.1580  221.8030 C   0  0  0  0  0  0  0  0  0  0  0  0
  138.7310   73.5610  222.0030 N   0  0  0  0  0  0  0  0  0  0  0  0
  138.4150   74.4690  220.8780 C   0  0  0  0  0  0  0  0  0  0  0  0
  139.5110   75.4150  220.7300 C   0  0  0  0  0  0  0  0  0  0  0  0
  139.1690   76.6380  220.4910 O   0  0  0  0  0  0  0  0  0  0  0  0
  140.8860   75.1890  220.8110 N   0  0  0  0  0  0  0  0  0  0  0  0
  141.4400   74.0380  221.5680 C   0  0  0  0  0  0  0  0  0  0  0  0
  142.4100   73.5230  220.5240 C   0  0  1  0  0  0  0  0  0  0  0  0
  141.9000   72.4350  219.8540 F   0  0  0  0  0  0  0  0  0  0  0  0
  142.6940   74.7000  219.5750 C   0  0  0  0  0  0  0  0  0  0  0  0
  142.0740   75.8390  220.2970 C   0  0  1  0  0  0  0  0  0  0  0  0
  141.8810   77.1190  219.5960 C   0  0  0  0  0  0  0  0  0  0  0  0
  141.4800   78.1400  220.3730 O   0  0  0  0  0  0  0  0  0  0  0  0
  141.7200   78.8850  221.4440 C   0  0  0  0  0  0  0  0  0  0  0  0
  141.4400   78.2850  222.6980 C   0  0  0  0  0  0  0  0  0  0  0  0
  141.6330   78.9320  223.8810 C   0  0  0  0  0  0  0  0  0  0  0  0
  142.1150   80.2020  223.8760 C   0  0  0  0  0  0  0  0  0  0  0  0
  142.4100   80.8480  222.7060 C   0  0  0  0  0  0  0  0  0  0  0  0
  142.2020   80.1690  221.5250 C   0  0  0  0  0  0  0  0  0  0  0  0
  139.1720   71.3020  222.9680 C   0  0  0  0  0  0  0  0  0  0  0  0
  138.8240   69.9680  222.9710 C   0  0  0  0  0  0  0  0  0  0  0  0
  139.1070   69.1460  224.0460 C   0  0  0  0  0  0  0  0  0  0  0  0
  139.7630   69.6820  225.1570 C   0  0  0  0  0  0  0  0  0  0  0  0
  140.0410   68.8710  226.2130 C   0  0  0  0  0  0  0  0  0  0  0  0
  140.6980   69.4400  227.3060 C   0  0  0  0  0  0  0  0  0  0  0  0
  141.0810   68.4350  228.6990 Cl  0  0  0  0  0  0  0  0  0  0  0  0
  141.0500   70.7760  227.3090 C   0  0  0  0  0  0  0  0  0  0  0  0
  140.7520   71.5730  226.2170 C   0  0  0  0  0  0  0  0  0  0  0  0
  140.1000   71.0250  225.1220 C   0  0  0  0  0  0  0  0  0  0  0  0
  139.8070   71.8010  224.0520 N   0  0  0  0  0  0  0  0  0  0  0  0
  138.8740   73.9140  222.9720 H   0  0  0  0  0  0  0  0  0  0  0  0
  138.2990   73.8868  219.9519 H   0  0  0  0  0  0  0  0  0  0  0  0
  137.4762   75.0062  221.0779 H   0  0  0  0  0  0  0  0  0  0  0  0
  141.9525   74.3559  222.4879 H   0  0  0  0  0  0  0  0  0  0  0  0
  140.7019   73.3086  221.9330 H   0  0  0  0  0  0  0  0  0  0  0  0
  143.3408   73.1691  220.9914 H   0  0  0  0  0  0  0  0  0  0  0  0
  143.7751   74.8531  219.4413 H   0  0  0  0  0  0  0  0  0  0  0  0
  142.3001   74.5535  218.5584 H   0  0  0  0  0  0  0  0  0  0  0  0
  142.7410   76.2723  221.0568 H   0  0  0  0  0  0  0  0  0  0  0  0
  142.8372   77.4002  219.1305 H   0  0  0  0  0  0  0  0  0  0  0  0
  141.0725   76.9513  218.8692 H   0  0  0  0  0  0  0  0  0  0  0  0
  141.0515   77.2561  222.7161 H   0  0  0  0  0  0  0  0  0  0  0  0
  141.4006   78.4305  224.8320 H   0  0  0  0  0  0  0  0  0  0  0  0
  142.2715   80.7222  224.8325 H   0  0  0  0  0  0  0  0  0  0  0  0
  142.8006   81.8763  222.7083 H   0  0  0  0  0  0  0  0  0  0  0  0
  142.4374   80.6895  220.5850 H   0  0  0  0  0  0  0  0  0  0  0  0
  138.3080   69.5468  222.0956 H   0  0  0  0  0  0  0  0  0  0  0  0
  138.8196   68.0844  224.0269 H   0  0  0  0  0  0  0  0  0  0  0  0
  139.7591   67.8078  226.2063 H   0  0  0  0  0  0  0  0  0  0  0  0
  141.5671   71.2065  228.1792 H   0  0  0  0  0  0  0  0  0  0  0  0
  141.0312   72.6370  226.2176 H   0  0  0  0  0  0  0  0  0  0  0  0
  1  2  2  0
  2  3  1  0
  3  4  1  0
  4  5  1  0
  5  6  2  0
  5  7  1  0
  7  8  1  0
  8  9  1  0
  9 10  1  0
  9 11  1  0
 11 12  1  0
 12 13  1  0
 13 14  1  0
 14 15  1  0
 15 16  2  0
 16 17  1  0
 17 18  2  0
 18 19  1  0
 19 20  2  0
  2 21  1  0
 21 22  2  0
 22 23  1  0
 23 24  2  0
 24 25  1  0
 25 26  2  0
 26 27  1  0
 26 28  1  0
 28 29  2  0
 29 30  1  0
 30 31  2  0
 12  7  1  0
 20 15  1  0
 31 21  1  0
 30 24  1  0
  3 32  1  0
  4 33  1  0
  4 34  1  0
  8 35  1  0
  8 36  1  0
  9 37  1  1
 11 38  1  0
 11 39  1  0
 12 40  1  1
 13 41  1  0
 13 42  1  0
 16 43  1  0
 17 44  1  0
 18 45  1  0
 19 46  1  0
 20 47  1  0
 22 48  1  0
 23 49  1  0
 25 50  1  0
 28 51  1  0
 29 52  1  0
M  END
>  <smiles>  (28) 
O=C(NCC(=O)N1C[C@@H](F)C[C@H]1COc1ccccc1)c1ccc2cc(Cl)ccc2n1

>  <score_type>  (28) 
oracle

>  <origin>  (28) 
autodockgpu

>  <m_score__min__energy>  (28) 
-8.5399999999999991

>  <m_primary>  (28) 
energy

>  <rmsd>  (28) 
2.281554844993687

>  <m_score__min__rmsd>  (28) 
2.281554844993687

>  <meeko>  (28) 
{"free_energy": -8.0, "intermolecular_energy": -10.09, "internal_energy": -1.73, "cluster_size": 15, "cluster_id": 1, "rank_in_cluster": 9}

>  <energy>  (28) 
-7.68

>  <cluster_rmsd>  (28) 
0.9

>  <cluster>  (28) 
3

$$$$

     RDKit          3D

 52 55  0  0  0  0  0  0  0  0999 V2000
  139.5270   71.9930  220.7250 O   0  0  0  0  0  0  0  0  0  0  0  0
  139.5720   72.4670  221.8910 C   0  0  0  0  0  0  0  0  0  0  0  0
  139.4980   73.8600  222.1710 N   0  0  0  0  0  0  0  0  0  0  0  0
  139.3600   74.8530  221.0830 C   0  0  0  0  0  0  0  0  0  0  0  0
  140.2400   75.9760  221.3720 C   0  0  0  0  0  0  0  0  0  0  0  0
  141.0700   75.8030  222.3470 O   0  0  0  0  0  0  0  0  0  0  0  0
  140.3170   77.2190  220.7420 N   0  0  0  0  0  0  0  0  0  0  0  0
  139.1890   78.1840  220.7900 C   0  0  0  0  0  0  0  0  0  0  0  0
  139.9670   79.4280  221.1710 C   0  0  1  0  0  0  0  0  0  0  0  0
  139.8510   79.7040  222.5130 F   0  0  0  0  0  0  0  0  0  0  0  0
  141.4280   79.1690  220.7630 C   0  0  0  0  0  0  0  0  0  0  0  0
  141.3120   77.9250  219.9610 C   0  0  1  0  0  0  0  0  0  0  0  0
  142.5300   77.1790  219.6070 C   0  0  0  0  0  0  0  0  0  0  0  0
  142.4270   75.8410  219.7020 O   0  0  0  0  0  0  0  0  0  0  0  0
  142.9960   74.7050  220.0810 C   0  0  0  0  0  0  0  0  0  0  0  0
  144.4080   74.7250  220.2130 C   0  0  0  0  0  0  0  0  0  0  0  0
  145.1260   73.6320  220.5900 C   0  0  0  0  0  0  0  0  0  0  0  0
  144.4790   72.4670  220.8560 C   0  0  0  0  0  0  0  0  0  0  0  0
  143.1170   72.3680  220.7510 C   0  0  0  0  0  0  0  0  0  0  0  0
  142.4180   73.4910  220.3650 C   0  0  0  0  0  0  0  0  0  0  0  0
  139.7070   71.5240  223.0230 C   0  0  0  0  0  0  0  0  0  0  0  0
  139.3220   70.2070  222.8860 C   0  0  0  0  0  0  0  0  0  0  0  0
  139.4370   69.3050  223.9270 C   0  0  0  0  0  0  0  0  0  0  0  0
  139.9580   69.7390  225.1480 C   0  0  0  0  0  0  0  0  0  0  0  0
  140.0710   68.8490  226.1710 C   0  0  0  0  0  0  0  0  0  0  0  0
  140.5960   69.3180  227.3770 C   0  0  0  0  0  0  0  0  0  0  0  0
  140.7630   68.2080  228.7330 Cl  0  0  0  0  0  0  0  0  0  0  0  0
  140.9840   70.6360  227.5210 C   0  0  0  0  0  0  0  0  0  0  0  0
  140.8550   71.5160  226.4590 C   0  0  0  0  0  0  0  0  0  0  0  0
  140.3360   71.0680  225.2530 C   0  0  0  0  0  0  0  0  0  0  0  0
  140.2090   71.9240  224.2120 N   0  0  0  0  0  0  0  0  0  0  0  0
  139.5450   74.1440  223.1720 H   0  0  0  0  0  0  0  0  0  0  0  0
  139.6443   74.3953  220.1240 H   0  0  0  0  0  0  0  0  0  0  0  0
  138.3175   75.1973  221.0153 H   0  0  0  0  0  0  0  0  0  0  0  0
  138.6928   78.2892  219.8139 H   0  0  0  0  0  0  0  0  0  0  0  0
  138.3615   77.9155  221.4631 H   0  0  0  0  0  0  0  0  0  0  0  0
  139.5712   80.3147  220.6541 H   0  0  0  0  0  0  0  0  0  0  0  0
  141.8266   79.9975  220.1591 H   0  0  0  0  0  0  0  0  0  0  0  0
  142.1168   79.0824  221.6163 H   0  0  0  0  0  0  0  0  0  0  0  0
  141.0385   78.1203  218.9136 H   0  0  0  0  0  0  0  0  0  0  0  0
  142.7922   77.4278  218.5681 H   0  0  0  0  0  0  0  0  0  0  0  0
  143.2967   77.4800  220.3361 H   0  0  0  0  0  0  0  0  0  0  0  0
  144.9445   75.6618  220.0021 H   0  0  0  0  0  0  0  0  0  0  0  0
  146.2208   73.6912  220.6786 H   0  0  0  0  0  0  0  0  0  0  0  0
  145.0612   71.5853  221.1620 H   0  0  0  0  0  0  0  0  0  0  0  0
  142.5980   71.4227  220.9678 H   0  0  0  0  0  0  0  0  0  0  0  0
  141.3244   73.4104  220.2784 H   0  0  0  0  0  0  0  0  0  0  0  0
  138.9129   69.8655  221.9237 H   0  0  0  0  0  0  0  0  0  0  0  0
  139.1223   68.2592  223.7955 H   0  0  0  0  0  0  0  0  0  0  0  0
  139.7607   67.8003  226.0526 H   0  0  0  0  0  0  0  0  0  0  0  0
  141.3954   70.9867  228.4790 H   0  0  0  0  0  0  0  0  0  0  0  0
  141.1629   72.5660  226.5715 H   0  0  0  0  0  0  0  0  0  0  0  0
  1  2  2  0
  2  3  1  0
  3  4  1  0
  4  5  1  0
  5  6  2  0
  5  7  1  0
  7  8  1  0
  8  9  1  0
  9 10  1  0
  9 11  1  0
 11 12  1  0
 12 13  1  0
 13 14  1  0
 14 15  1  0
 15 16  2  0
 16 17  1  0
 17 18  2  0
 18 19  1  0
 19 20  2  0
  2 21  1  0
 21 22  2  0
 22 23  1  0
 23 24  2  0
 24 25  1  0
 25 26  2  0
 26 27  1  0
 26 28  1  0
 28 29  2  0
 29 30  1  0
 30 31  2  0
 12  7  1  0
 20 15  1  0
 31 21  1  0
 30 24  1  0
  3 32  1  0
  4 33  1  0
  4 34  1  0
  8 35  1  0
  8 36  1  0
  9 37  1  6
 11 38  1  0
 11 39  1  0
 12 40  1  6
 13 41  1  0
 13 42  1  0
 16 43  1  0
 17 44  1  0
 18 45  1  0
 19 46  1  0
 20 47  1  0
 22 48  1  0
 23 49  1  0
 25 50  1  0
 28 51  1  0
 29 52  1  0
M  END
>  <smiles>  (29) 
O=C(NCC(=O)N1C[C@@H](F)C[C@H]1COc1ccccc1)c1ccc2cc(Cl)ccc2n1

>  <score_type>  (29) 
oracle

>  <origin>  (29) 
autodockgpu

>  <m_score__min__energy>  (29) 
-8.5399999999999991

>  <m_primary>  (29) 
energy

>  <rmsd>  (29) 
2.3297149681509306

>  <m_score__min__rmsd>  (29) 
2.3297149681509306

>  <meeko>  (29) 
{"free_energy": -7.86, "intermolecular_energy": -9.94, "internal_energy": -2.46, "cluster_size": 11, "cluster_id": 4, "rank_in_cluster": 3}

>  <energy>  (29) 
-7.67

>  <cluster_rmsd>  (29) 
0.89

>  <cluster>  (29) 
3

$$$$

     RDKit          3D

 52 55  0  0  0  0  0  0  0  0999 V2000
  137.7770   71.1590  221.4900 O   0  0  0  0  0  0  0  0  0  0  0  0
  138.4840   71.7030  222.3790 C   0  0  0  0  0  0  0  0  0  0  0  0
  138.8550   73.0770  222.3500 N   0  0  0  0  0  0  0  0  0  0  0  0
  138.4210   73.9630  221.2460 C   0  0  0  0  0  0  0  0  0  0  0  0
  139.3040   75.1180  221.2120 C   0  0  0  0  0  0  0  0  0  0  0  0
  140.3150   75.0780  222.0160 O   0  0  0  0  0  0  0  0  0  0  0  0
  139.2160   76.2710  220.4290 N   0  0  0  0  0  0  0  0  0  0  0  0
  139.6200   76.2720  219.0000 C   0  0  0  0  0  0  0  0  0  0  0  0
  138.4060   76.9690  218.4190 C   0  0  1  0  0  0  0  0  0  0  0  0
  137.5340   76.0720  217.8490 F   0  0  0  0  0  0  0  0  0  0  0  0
  137.7540   77.7450  219.5770 C   0  0  0  0  0  0  0  0  0  0  0  0
  138.7810   77.6370  220.6420 C   0  0  1  0  0  0  0  0  0  0  0  0
  138.4330   78.0150  222.0220 C   0  0  0  0  0  0  0  0  0  0  0  0
  139.4740   78.3710  222.7950 O   0  0  0  0  0  0  0  0  0  0  0  0
  140.6070   79.0540  222.8920 C   0  0  0  0  0  0  0  0  0  0  0  0
  141.0860   79.6450  221.6960 C   0  0  0  0  0  0  0  0  0  0  0  0
  142.2370   80.3700  221.6450 C   0  0  0  0  0  0  0  0  0  0  0  0
  142.9660   80.5460  222.7770 C   0  0  0  0  0  0  0  0  0  0  0  0
  142.5690   80.0070  223.9710 C   0  0  0  0  0  0  0  0  0  0  0  0
  141.4010   79.2760  223.9920 C   0  0  0  0  0  0  0  0  0  0  0  0
  138.9470   70.8690  223.5100 C   0  0  0  0  0  0  0  0  0  0  0  0
  138.7360   69.5070  223.5070 C   0  0  0  0  0  0  0  0  0  0  0  0
  139.1590   68.7040  224.5500 C   0  0  0  0  0  0  0  0  0  0  0  0
  139.8160   69.2900  225.6350 C   0  0  0  0  0  0  0  0  0  0  0  0
  140.2310   68.4980  226.6600 C   0  0  0  0  0  0  0  0  0  0  0  0
  140.8850   69.1170  227.7280 C   0  0  0  0  0  0  0  0  0  0  0  0
  141.4420   68.1380  229.0800 Cl  0  0  0  0  0  0  0  0  0  0  0  0
  141.0990   70.4820  227.7370 C   0  0  0  0  0  0  0  0  0  0  0  0
  140.6630   71.2590  226.6760 C   0  0  0  0  0  0  0  0  0  0  0  0
  140.0120   70.6610  225.6070 C   0  0  0  0  0  0  0  0  0  0  0  0
  139.5850   71.4160  224.5690 N   0  0  0  0  0  0  0  0  0  0  0  0
  139.4420   73.4240  223.1350 H   0  0  0  0  0  0  0  0  0  0  0  0
  138.4797   73.4219  220.2901 H   0  0  0  0  0  0  0  0  0  0  0  0
  137.3816   74.2857  221.4059 H   0  0  0  0  0  0  0  0  0  0  0  0
  140.5449   76.8432  218.8319 H   0  0  0  0  0  0  0  0  0  0  0  0
  139.8538   75.2866  218.5708 H   0  0  0  0  0  0  0  0  0  0  0  0
  138.6952   77.6532  217.6076 H   0  0  0  0  0  0  0  0  0  0  0  0
  137.5730   78.7946  219.3021 H   0  0  0  0  0  0  0  0  0  0  0  0
  136.7688   77.3545  219.8716 H   0  0  0  0  0  0  0  0  0  0  0  0
  139.5658   78.4025  220.5518 H   0  0  0  0  0  0  0  0  0  0  0  0
  137.7355   78.8644  221.9772 H   0  0  0  0  0  0  0  0  0  0  0  0
  137.9996   77.1167  222.4860 H   0  0  0  0  0  0  0  0  0  0  0  0
  140.5042   79.5124  220.7719 H   0  0  0  0  0  0  0  0  0  0  0  0
  142.5738   80.8097  220.6946 H   0  0  0  0  0  0  0  0  0  0  0  0
  143.8948   81.1338  222.7336 H   0  0  0  0  0  0  0  0  0  0  0  0
  143.1636   80.1528  224.8849 H   0  0  0  0  0  0  0  0  0  0  0  0
  141.0833   78.8419  224.9515 H   0  0  0  0  0  0  0  0  0  0  0  0
  138.2177   69.0470  222.6528 H   0  0  0  0  0  0  0  0  0  0  0  0
  138.9808   67.6188  224.5260 H   0  0  0  0  0  0  0  0  0  0  0  0
  140.0583   67.4117  226.6484 H   0  0  0  0  0  0  0  0  0  0  0  0
  141.6157   70.9520  228.5868 H   0  0  0  0  0  0  0  0  0  0  0  0
  140.8324   72.3459  226.6813 H   0  0  0  0  0  0  0  0  0  0  0  0
  1  2  2  0
  2  3  1  0
  3  4  1  0
  4  5  1  0
  5  6  2  0
  5  7  1  0
  7  8  1  0
  8  9  1  0
  9 10  1  0
  9 11  1  0
 11 12  1  0
 12 13  1  0
 13 14  1  0
 14 15  1  0
 15 16  2  0
 16 17  1  0
 17 18  2  0
 18 19  1  0
 19 20  2  0
  2 21  1  0
 21 22  2  0
 22 23  1  0
 23 24  2  0
 24 25  1  0
 25 26  2  0
 26 27  1  0
 26 28  1  0
 28 29  2  0
 29 30  1  0
 30 31  2  0
 12  7  1  0
 20 15  1  0
 31 21  1  0
 30 24  1  0
  3 32  1  0
  4 33  1  0
  4 34  1  0
  8 35  1  0
  8 36  1  0
  9 37  1  6
 11 38  1  0
 11 39  1  0
 12 40  1  6
 13 41  1  0
 13 42  1  0
 16 43  1  0
 17 44  1  0
 18 45  1  0
 19 46  1  0
 20 47  1  0
 22 48  1  0
 23 49  1  0
 25 50  1  0
 28 51  1  0
 29 52  1  0
M  END
>  <smiles>  (30) 
O=C(NCC(=O)N1C[C@@H](F)C[C@H]1COc1ccccc1)c1ccc2cc(Cl)ccc2n1

>  <score_type>  (30) 
oracle

>  <origin>  (30) 
autodockgpu

>  <m_score__min__energy>  (30) 
-8.5399999999999991

>  <m_primary>  (30) 
energy

>  <rmsd>  (30) 
1.6624571459425197

>  <m_score__min__rmsd>  (30) 
1.6624571459425197

>  <meeko>  (30) 
{"free_energy": -7.8, "intermolecular_energy": -9.89, "internal_energy": -2.22, "cluster_size": 15, "cluster_id": 1, "rank_in_cluster": 13}

>  <energy>  (30) 
-7.3

>  <cluster_rmsd>  (30) 
1.56

>  <cluster>  (30) 
3

$$$$

     RDKit          3D

 52 55  0  0  0  0  0  0  0  0999 V2000
  141.6610   73.0600  220.9890 O   0  0  0  0  0  0  0  0  0  0  0  0
  140.8770   73.8400  221.5920 C   0  0  0  0  0  0  0  0  0  0  0  0
  139.7860   73.3900  222.3870 N   0  0  0  0  0  0  0  0  0  0  0  0
  139.5050   71.9470  222.5530 C   0  0  0  0  0  0  0  0  0  0  0  0
  138.0830   71.7830  222.8160 C   0  0  0  0  0  0  0  0  0  0  0  0
  137.3440   72.8160  222.5750 O   0  0  0  0  0  0  0  0  0  0  0  0
  137.3990   70.6640  223.2930 N   0  0  0  0  0  0  0  0  0  0  0  0
  135.9160   70.6330  223.3660 C   0  0  0  0  0  0  0  0  0  0  0  0
  135.6830   69.2810  222.7210 C   0  0  1  0  0  0  0  0  0  0  0  0
  135.3050   69.4070  221.4050 F   0  0  0  0  0  0  0  0  0  0  0  0
  136.9990   68.4970  222.8680 C   0  0  0  0  0  0  0  0  0  0  0  0
  137.7740   69.3580  223.7960 C   0  0  1  0  0  0  0  0  0  0  0  0
  139.2120   69.1060  223.9840 C   0  0  0  0  0  0  0  0  0  0  0  0
  139.8670   70.0420  224.6940 O   0  0  0  0  0  0  0  0  0  0  0  0
  140.2060   70.4950  225.8930 C   0  0  0  0  0  0  0  0  0  0  0  0
  141.0230   71.6540  225.9150 C   0  0  0  0  0  0  0  0  0  0  0  0
  141.4510   72.2280  227.0730 C   0  0  0  0  0  0  0  0  0  0  0  0
  141.0890   71.6820  228.2630 C   0  0  0  0  0  0  0  0  0  0  0  0
  140.3020   70.5640  228.3240 C   0  0  0  0  0  0  0  0  0  0  0  0
  139.8860   70.0040  227.1360 C   0  0  0  0  0  0  0  0  0  0  0  0
  141.1070   75.2970  221.4660 C   0  0  0  0  0  0  0  0  0  0  0  0
  141.9010   75.7950  220.4540 C   0  0  0  0  0  0  0  0  0  0  0  0
  142.1320   77.1500  220.3140 C   0  0  0  0  0  0  0  0  0  0  0  0
  141.5460   78.0370  221.2190 C   0  0  0  0  0  0  0  0  0  0  0  0
  141.7750   79.3710  221.0790 C   0  0  0  0  0  0  0  0  0  0  0  0
  141.1730   80.2280  222.0020 C   0  0  0  0  0  0  0  0  0  0  0  0
  141.4370   81.9630  221.8650 Cl  0  0  0  0  0  0  0  0  0  0  0  0
  140.3760   79.7360  223.0180 C   0  0  0  0  0  0  0  0  0  0  0  0
  140.1640   78.3720  223.1320 C   0  0  0  0  0  0  0  0  0  0  0  0
  140.7540   77.5050  222.2230 C   0  0  0  0  0  0  0  0  0  0  0  0
  140.5490   76.1710  222.3320 N   0  0  0  0  0  0  0  0  0  0  0  0
  139.1990   74.1200  222.8410 H   0  0  0  0  0  0  0  0  0  0  0  0
  139.7775   71.4074  221.6340 H   0  0  0  0  0  0  0  0  0  0  0  0
  140.0932   71.5413  223.3893 H   0  0  0  0  0  0  0  0  0  0  0  0
  135.5521   70.6646  224.4036 H   0  0  0  0  0  0  0  0  0  0  0  0
  135.3983   71.4811  222.8941 H   0  0  0  0  0  0  0  0  0  0  0  0
  134.8562   68.7470  223.2122 H   0  0  0  0  0  0  0  0  0  0  0  0
  136.8238   67.5009  223.3004 H   0  0  0  0  0  0  0  0  0  0  0  0
  137.5090   68.3065  221.9122 H   0  0  0  0  0  0  0  0  0  0  0  0
  137.5290   69.1704  224.8518 H   0  0  0  0  0  0  0  0  0  0  0  0
  139.3242   68.1432  224.5041 H   0  0  0  0  0  0  0  0  0  0  0  0
  139.6588   69.1154  222.9788 H   0  0  0  0  0  0  0  0  0  0  0  0
  141.3228   72.1072  224.9586 H   0  0  0  0  0  0  0  0  0  0  0  0
  142.0848   73.1266  227.0452 H   0  0  0  0  0  0  0  0  0  0  0  0
  141.4357   72.1482  229.1971 H   0  0  0  0  0  0  0  0  0  0  0  0
  140.0110   70.1266  229.2904 H   0  0  0  0  0  0  0  0  0  0  0  0
  139.2557   69.1039  227.1857 H   0  0  0  0  0  0  0  0  0  0  0  0
  142.3618   75.0959  219.7406 H   0  0  0  0  0  0  0  0  0  0  0  0
  142.7695   77.5251  219.4998 H   0  0  0  0  0  0  0  0  0  0  0  0
  142.4103   79.7593  220.2693 H   0  0  0  0  0  0  0  0  0  0  0  0
  139.9102   80.4272  223.7358 H   0  0  0  0  0  0  0  0  0  0  0  0
  139.5304   77.9774  223.9400 H   0  0  0  0  0  0  0  0  0  0  0  0
  1  2  2  0
  2  3  1  0
  3  4  1  0
  4  5  1  0
  5  6  2  0
  5  7  1  0
  7  8  1  0
  8  9  1  0
  9 10  1  0
  9 11  1  0
 11 12  1  0
 12 13  1  0
 13 14  1  0
 14 15  1  0
 15 16  2  0
 16 17  1  0
 17 18  2  0
 18 19  1  0
 19 20  2  0
  2 21  1  0
 21 22  2  0
 22 23  1  0
 23 24  2  0
 24 25  1  0
 25 26  2  0
 26 27  1  0
 26 28  1  0
 28 29  2  0
 29 30  1  0
 30 31  2  0
 12  7  1  0
 20 15  1  0
 31 21  1  0
 30 24  1  0
  3 32  1  0
  4 33  1  0
  4 34  1  0
  8 35  1  0
  8 36  1  0
  9 37  1  1
 11 38  1  0
 11 39  1  0
 12 40  1  1
 13 41  1  0
 13 42  1  0
 16 43  1  0
 17 44  1  0
 18 45  1  0
 19 46  1  0
 20 47  1  0
 22 48  1  0
 23 49  1  0
 25 50  1  0
 28 51  1  0
 29 52  1  0
M  END
>  <smiles>  (31) 
O=C(NCC(=O)N1C[C@@H](F)C[C@H]1COc1ccccc1)c1ccc2cc(Cl)ccc2n1

>  <score_type>  (31) 
oracle

>  <origin>  (31) 
autodockgpu

>  <m_score__min__energy>  (31) 
-8.5399999999999991

>  <m_primary>  (31) 
energy

>  <rmsd>  (31) 
8.369955419925406

>  <m_score__min__rmsd>  (31) 
8.369955419925406

>  <meeko>  (31) 
{"free_energy": -7.81, "intermolecular_energy": -9.9, "internal_energy": -2.2, "cluster_size": 5, "cluster_id": 5, "rank_in_cluster": 1}

>  <energy>  (31) 
-7.95

>  <cluster_rmsd>  (31) 
0.0

>  <cluster>  (31) 
4

$$$$

     RDKit          3D

 52 55  0  0  0  0  0  0  0  0999 V2000
  140.5200   72.1340  220.8510 O   0  0  0  0  0  0  0  0  0  0  0  0
  140.0360   72.5200  221.9480 C   0  0  0  0  0  0  0  0  0  0  0  0
  139.4890   73.8190  222.1460 N   0  0  0  0  0  0  0  0  0  0  0  0
  139.4580   74.8120  221.0500 C   0  0  0  0  0  0  0  0  0  0  0  0
  140.6520   75.6380  221.1450 C   0  0  0  0  0  0  0  0  0  0  0  0
  140.7980   76.2900  222.2520 O   0  0  0  0  0  0  0  0  0  0  0  0
  141.6680   75.8290  220.2070 N   0  0  0  0  0  0  0  0  0  0  0  0
  142.5610   74.7160  219.7940 C   0  0  0  0  0  0  0  0  0  0  0  0
  142.4830   74.9060  218.2920 C   0  0  1  0  0  0  0  0  0  0  0  0
  141.6160   74.0100  217.7130 F   0  0  0  0  0  0  0  0  0  0  0  0
  142.0430   76.3620  218.0600 C   0  0  0  0  0  0  0  0  0  0  0  0
  142.1560   76.9430  219.4210 C   0  0  1  0  0  0  0  0  0  0  0  0
  141.5610   78.2610  219.6950 C   0  0  0  0  0  0  0  0  0  0  0  0
  142.1850   78.9820  220.6420 O   0  0  0  0  0  0  0  0  0  0  0  0
  142.0720   79.8720  221.6200 C   0  0  0  0  0  0  0  0  0  0  0  0
  142.6290   79.5010  222.8700 C   0  0  0  0  0  0  0  0  0  0  0  0
  142.5840   80.3120  223.9630 C   0  0  0  0  0  0  0  0  0  0  0  0
  141.9860   81.5280  223.8680 C   0  0  0  0  0  0  0  0  0  0  0  0
  141.4260   81.9570  222.6950 C   0  0  0  0  0  0  0  0  0  0  0  0
  141.4850   81.1150  221.6070 C   0  0  0  0  0  0  0  0  0  0  0  0
  140.0360   71.5720  223.0840 C   0  0  0  0  0  0  0  0  0  0  0  0
  139.5300   70.2980  222.9310 C   0  0  0  0  0  0  0  0  0  0  0  0
  139.5180   69.3920  223.9750 C   0  0  0  0  0  0  0  0  0  0  0  0
  140.0330   69.7770  225.2150 C   0  0  0  0  0  0  0  0  0  0  0  0
  140.0210   68.8830  226.2400 C   0  0  0  0  0  0  0  0  0  0  0  0
  140.5440   69.3020  227.4660 C   0  0  0  0  0  0  0  0  0  0  0  0
  140.5520   68.1840  228.8260 Cl  0  0  0  0  0  0  0  0  0  0  0  0
  141.0530   70.5760  227.6250 C   0  0  0  0  0  0  0  0  0  0  0  0
  141.0500   71.4610  226.5600 C   0  0  0  0  0  0  0  0  0  0  0  0
  140.5350   71.0620  225.3350 C   0  0  0  0  0  0  0  0  0  0  0  0
  140.5300   71.9240  224.2910 N   0  0  0  0  0  0  0  0  0  0  0  0
  139.1160   74.0350  223.0940 H   0  0  0  0  0  0  0  0  0  0  0  0
  139.4408   74.2940  220.0797 H   0  0  0  0  0  0  0  0  0  0  0  0
  138.5575   75.4383  221.1327 H   0  0  0  0  0  0  0  0  0  0  0  0
  143.5851   74.8440  220.1747 H   0  0  0  0  0  0  0  0  0  0  0  0
  142.2808   73.7184  220.1631 H   0  0  0  0  0  0  0  0  0  0  0  0
  143.4581   74.7153  217.8200 H   0  0  0  0  0  0  0  0  0  0  0  0
  142.7115   76.8728  217.3513 H   0  0  0  0  0  0  0  0  0  0  0  0
  141.0386   76.4557  217.6213 H   0  0  0  0  0  0  0  0  0  0  0  0
  143.1781   77.2747  219.6562 H   0  0  0  0  0  0  0  0  0  0  0  0
  141.5738   78.8416  218.7608 H   0  0  0  0  0  0  0  0  0  0  0  0
  140.5475   78.0666  220.0758 H   0  0  0  0  0  0  0  0  0  0  0  0
  143.1168   78.5192  222.9604 H   0  0  0  0  0  0  0  0  0  0  0  0
  143.0281   79.9852  224.9148 H   0  0  0  0  0  0  0  0  0  0  0  0
  141.9511   82.1815  224.7521 H   0  0  0  0  0  0  0  0  0  0  0  0
  140.9440   82.9432  222.6237 H   0  0  0  0  0  0  0  0  0  0  0  0
  141.0326   81.4597  220.6654 H   0  0  0  0  0  0  0  0  0  0  0  0
  139.1259   69.9953  221.9537 H   0  0  0  0  0  0  0  0  0  0  0  0
  139.1083   68.3813  223.8312 H   0  0  0  0  0  0  0  0  0  0  0  0
  139.6151   67.8691  226.1088 H   0  0  0  0  0  0  0  0  0  0  0  0
  141.4609   70.8877  228.5979 H   0  0  0  0  0  0  0  0  0  0  0  0
  141.4543   72.4764  226.6847 H   0  0  0  0  0  0  0  0  0  0  0  0
  1  2  2  0
  2  3  1  0
  3  4  1  0
  4  5  1  0
  5  6  2  0
  5  7  1  0
  7  8  1  0
  8  9  1  0
  9 10  1  0
  9 11  1  0
 11 12  1  0
 12 13  1  0
 13 14  1  0
 14 15  1  0
 15 16  2  0
 16 17  1  0
 17 18  2  0
 18 19  1  0
 19 20  2  0
  2 21  1  0
 21 22  2  0
 22 23  1  0
 23 24  2  0
 24 25  1  0
 25 26  2  0
 26 27  1  0
 26 28  1  0
 28 29  2  0
 29 30  1  0
 30 31  2  0
 12  7  1  0
 20 15  1  0
 31 21  1  0
 30 24  1  0
  3 32  1  0
  4 33  1  0
  4 34  1  0
  8 35  1  0
  8 36  1  0
  9 37  1  6
 11 38  1  0
 11 39  1  0
 12 40  1  1
 13 41  1  0
 13 42  1  0
 16 43  1  0
 17 44  1  0
 18 45  1  0
 19 46  1  0
 20 47  1  0
 22 48  1  0
 23 49  1  0
 25 50  1  0
 28 51  1  0
 29 52  1  0
M  END
>  <smiles>  (32) 
O=C(NCC(=O)N1C[C@@H](F)C[C@H]1COc1ccccc1)c1ccc2cc(Cl)ccc2n1

>  <score_type>  (32) 
oracle

>  <origin>  (32) 
autodockgpu

>  <m_score__min__energy>  (32) 
-8.5399999999999991

>  <m_primary>  (32) 
energy

>  <rmsd>  (32) 
1.91708376298398

>  <m_score__min__rmsd>  (32) 
1.91708376298398

>  <meeko>  (32) 
{"free_energy": -8.33, "intermolecular_energy": -10.42, "internal_energy": -1.57, "cluster_size": 15, "cluster_id": 1, "rank_in_cluster": 4}

>  <energy>  (32) 
-7.94

>  <cluster_rmsd>  (32) 
0.1

>  <cluster>  (32) 
4

$$$$

     RDKit          3D

 52 55  0  0  0  0  0  0  0  0999 V2000
  139.3500   72.0090  220.8440 O   0  0  0  0  0  0  0  0  0  0  0  0
  139.4730   72.4730  222.0090 C   0  0  0  0  0  0  0  0  0  0  0  0
  139.4210   73.8640  222.3050 N   0  0  0  0  0  0  0  0  0  0  0  0
  139.2160   74.8670  221.2360 C   0  0  0  0  0  0  0  0  0  0  0  0
  139.1650   76.1860  221.8480 C   0  0  0  0  0  0  0  0  0  0  0  0
  138.3860   76.3000  222.8730 O   0  0  0  0  0  0  0  0  0  0  0  0
  139.8410   77.3520  221.4840 N   0  0  0  0  0  0  0  0  0  0  0  0
  139.4640   78.6740  222.0450 C   0  0  0  0  0  0  0  0  0  0  0  0
  140.8470   79.1630  222.4280 C   0  0  1  0  0  0  0  0  0  0  0  0
  141.0830   79.0090  223.7730 F   0  0  0  0  0  0  0  0  0  0  0  0
  141.8440   78.3600  221.5750 C   0  0  0  0  0  0  0  0  0  0  0  0
  140.9490   77.6770  220.6080 C   0  0  1  0  0  0  0  0  0  0  0  0
  141.4810   76.5840  219.7780 C   0  0  0  0  0  0  0  0  0  0  0  0
  142.5730   75.9740  220.2710 O   0  0  0  0  0  0  0  0  0  0  0  0
  143.2350   74.8360  220.4330 C   0  0  0  0  0  0  0  0  0  0  0  0
  142.4450   73.6780  220.6480 C   0  0  0  0  0  0  0  0  0  0  0  0
  142.9870   72.4430  220.8340 C   0  0  0  0  0  0  0  0  0  0  0  0
  144.3380   72.2970  220.8150 C   0  0  0  0  0  0  0  0  0  0  0  0
  145.1670   73.3680  220.6130 C   0  0  0  0  0  0  0  0  0  0  0  0
  144.5900   74.6050  220.4300 C   0  0  0  0  0  0  0  0  0  0  0  0
  139.6780   71.5200  223.1210 C   0  0  0  0  0  0  0  0  0  0  0  0
  139.3530   70.1880  222.9710 C   0  0  0  0  0  0  0  0  0  0  0  0
  139.5360   69.2760  223.9940 C   0  0  0  0  0  0  0  0  0  0  0  0
  140.0630   69.7160  225.2100 C   0  0  0  0  0  0  0  0  0  0  0  0
  140.2420   68.8170  226.2150 C   0  0  0  0  0  0  0  0  0  0  0  0
  140.7710   69.2910  227.4170 C   0  0  0  0  0  0  0  0  0  0  0  0
  141.0220   68.1690  228.7500 Cl  0  0  0  0  0  0  0  0  0  0  0  0
  141.0980   70.6240  227.5740 C   0  0  0  0  0  0  0  0  0  0  0  0
  140.9040   71.5130  226.5300 C   0  0  0  0  0  0  0  0  0  0  0  0
  140.3800   71.0600  225.3290 C   0  0  0  0  0  0  0  0  0  0  0  0
  140.1870   71.9250  224.3060 N   0  0  0  0  0  0  0  0  0  0  0  0
  139.5350   74.1390  223.3020 H   0  0  0  0  0  0  0  0  0  0  0  0
  140.0493   74.8219  220.5194 H   0  0  0  0  0  0  0  0  0  0  0  0
  138.2774   74.6622  220.7003 H   0  0  0  0  0  0  0  0  0  0  0  0
  138.9893   79.3222  221.2937 H   0  0  0  0  0  0  0  0  0  0  0  0
  138.7243   78.6524  222.8589 H   0  0  0  0  0  0  0  0  0  0  0  0
  140.9511   80.2409  222.2346 H   0  0  0  0  0  0  0  0  0  0  0  0
  142.5544   79.0240  221.0608 H   0  0  0  0  0  0  0  0  0  0  0  0
  142.4710   77.6708  222.1597 H   0  0  0  0  0  0  0  0  0  0  0  0
  140.6992   78.3098  219.7436 H   0  0  0  0  0  0  0  0  0  0  0  0
  140.6907   75.8276  219.6629 H   0  0  0  0  0  0  0  0  0  0  0  0
  141.7892   77.0431  218.8271 H   0  0  0  0  0  0  0  0  0  0  0  0
  141.3501   73.7818  220.6652 H   0  0  0  0  0  0  0  0  0  0  0  0
  142.3370   71.5709  220.9982 H   0  0  0  0  0  0  0  0  0  0  0  0
  144.7743   71.2984  220.9649 H   0  0  0  0  0  0  0  0  0  0  0  0
  146.2599   73.2441  220.5974 H   0  0  0  0  0  0  0  0  0  0  0  0
  145.2574   75.4648  220.2709 H   0  0  0  0  0  0  0  0  0  0  0  0
  138.9376   69.8424  222.0129 H   0  0  0  0  0  0  0  0  0  0  0  0
  139.2700   68.2181  223.8519 H   0  0  0  0  0  0  0  0  0  0  0  0
  139.9799   67.7566  226.0856 H   0  0  0  0  0  0  0  0  0  0  0  0
  141.5127   70.9795  228.5288 H   0  0  0  0  0  0  0  0  0  0  0  0
  141.1647   72.5745  226.6532 H   0  0  0  0  0  0  0  0  0  0  0  0
  1  2  2  0
  2  3  1  0
  3  4  1  0
  4  5  1  0
  5  6  2  0
  5  7  1  0
  7  8  1  0
  8  9  1  0
  9 10  1  0
  9 11  1  0
 11 12  1  0
 12 13  1  0
 13 14  1  0
 14 15  1  0
 15 16  2  0
 16 17  1  0
 17 18  2  0
 18 19  1  0
 19 20  2  0
  2 21  1  0
 21 22  2  0
 22 23  1  0
 23 24  2  0
 24 25  1  0
 25 26  2  0
 26 27  1  0
 26 28  1  0
 28 29  2  0
 29 30  1  0
 30 31  2  0
 12  7  1  0
 20 15  1  0
 31 21  1  0
 30 24  1  0
  3 32  1  0
  4 33  1  0
  4 34  1  0
  8 35  1  0
  8 36  1  0
  9 37  1  6
 11 38  1  0
 11 39  1  0
 12 40  1  6
 13 41  1  0
 13 42  1  0
 16 43  1  0
 17 44  1  0
 18 45  1  0
 19 46  1  0
 20 47  1  0
 22 48  1  0
 23 49  1  0
 25 50  1  0
 28 51  1  0
 29 52  1  0
M  END
>  <smiles>  (33) 
O=C(NCC(=O)N1C[C@@H](F)C[C@H]1COc1ccccc1)c1ccc2cc(Cl)ccc2n1

>  <score_type>  (33) 
oracle

>  <origin>  (33) 
autodockgpu

>  <m_score__min__energy>  (33) 
-8.5399999999999991

>  <m_primary>  (33) 
energy

>  <rmsd>  (33) 
2.7666079188589427

>  <m_score__min__rmsd>  (33) 
2.7666079188589427

>  <meeko>  (33) 
{"free_energy": -7.95, "intermolecular_energy": -10.04, "internal_energy": -2.29, "cluster_size": 11, "cluster_id": 4, "rank_in_cluster": 1}

>  <energy>  (33) 
-7.86

>  <cluster_rmsd>  (33) 
0.81

>  <cluster>  (33) 
4

$$$$

     RDKit          3D

 52 55  0  0  0  0  0  0  0  0999 V2000
  140.6510   72.5750  221.2620 O   0  0  0  0  0  0  0  0  0  0  0  0
  139.9300   73.5020  221.7190 C   0  0  0  0  0  0  0  0  0  0  0  0
  138.6750   73.2770  222.3500 N   0  0  0  0  0  0  0  0  0  0  0  0
  138.1330   71.9090  222.5080 C   0  0  0  0  0  0  0  0  0  0  0  0
  136.9620   71.9770  223.3690 C   0  0  0  0  0  0  0  0  0  0  0  0
  136.3690   73.1240  223.4230 O   0  0  0  0  0  0  0  0  0  0  0  0
  136.3830   70.9730  224.1480 N   0  0  0  0  0  0  0  0  0  0  0  0
  135.0780   71.1740  224.8280 C   0  0  0  0  0  0  0  0  0  0  0  0
  134.4030   69.8810  224.4150 C   0  0  1  0  0  0  0  0  0  0  0  0
  133.5340   70.0780  223.3680 F   0  0  0  0  0  0  0  0  0  0  0  0
  135.5300   68.9000  224.0480 C   0  0  0  0  0  0  0  0  0  0  0  0
  136.7380   69.6190  224.5240 C   0  0  1  0  0  0  0  0  0  0  0  0
  138.0690   69.1440  224.1150 C   0  0  0  0  0  0  0  0  0  0  0  0
  139.1000   69.8870  224.5540 O   0  0  0  0  0  0  0  0  0  0  0  0
  139.7440   70.3920  225.5970 C   0  0  0  0  0  0  0  0  0  0  0  0
  139.5770   69.7060  226.8270 C   0  0  0  0  0  0  0  0  0  0  0  0
  140.1740   70.1120  227.9810 C   0  0  0  0  0  0  0  0  0  0  0  0
  140.9650   71.2170  227.9710 C   0  0  0  0  0  0  0  0  0  0  0  0
  141.1750   71.9330  226.8230 C   0  0  0  0  0  0  0  0  0  0  0  0
  140.5560   71.4990  225.6710 C   0  0  0  0  0  0  0  0  0  0  0  0
  140.4200   74.8930  221.5930 C   0  0  0  0  0  0  0  0  0  0  0  0
  141.4160   75.2050  220.6930 C   0  0  0  0  0  0  0  0  0  0  0  0
  141.8920   76.4960  220.5550 C   0  0  0  0  0  0  0  0  0  0  0  0
  141.3480   77.5090  221.3480 C   0  0  0  0  0  0  0  0  0  0  0  0
  141.8170   78.7780  221.2100 C   0  0  0  0  0  0  0  0  0  0  0  0
  141.2510   79.7650  222.0190 C   0  0  0  0  0  0  0  0  0  0  0  0
  141.8220   81.4250  221.8800 Cl  0  0  0  0  0  0  0  0  0  0  0  0
  140.2520   79.4590  222.9230 C   0  0  0  0  0  0  0  0  0  0  0  0
  139.7970   78.1560  223.0370 C   0  0  0  0  0  0  0  0  0  0  0  0
  140.3480   77.1620  222.2420 C   0  0  0  0  0  0  0  0  0  0  0  0
  139.9070   75.8870  222.3510 N   0  0  0  0  0  0  0  0  0  0  0  0
  138.1610   74.1150  222.6920 H   0  0  0  0  0  0  0  0  0  0  0  0
  137.8486   71.5060  221.5248 H   0  0  0  0  0  0  0  0  0  0  0  0
  138.8927   71.2500  222.9536 H   0  0  0  0  0  0  0  0  0  0  0  0
  135.1881   71.2530  225.9196 H   0  0  0  0  0  0  0  0  0  0  0  0
  134.5408   72.0969  224.5641 H   0  0  0  0  0  0  0  0  0  0  0  0
  133.7890   69.4775  225.2337 H   0  0  0  0  0  0  0  0  0  0  0  0
  135.4071   67.9386  224.5682 H   0  0  0  0  0  0  0  0  0  0  0  0
  135.5614   68.6431  222.9789 H   0  0  0  0  0  0  0  0  0  0  0  0
  136.9305   69.4606  225.5954 H   0  0  0  0  0  0  0  0  0  0  0  0
  138.1984   68.1212  224.4987 H   0  0  0  0  0  0  0  0  0  0  0  0
  138.0923   69.2065  223.0170 H   0  0  0  0  0  0  0  0  0  0  0  0
  138.9394   68.8099  226.8494 H   0  0  0  0  0  0  0  0  0  0  0  0
  140.0175   69.5504  228.9138 H   0  0  0  0  0  0  0  0  0  0  0  0
  141.4466   71.5430  228.9047 H   0  0  0  0  0  0  0  0  0  0  0  0
  141.8173   72.8260  226.8204 H   0  0  0  0  0  0  0  0  0  0  0  0
  140.7225   72.0764  224.7496 H   0  0  0  0  0  0  0  0  0  0  0  0
  141.8433   74.4067  220.0684 H   0  0  0  0  0  0  0  0  0  0  0  0
  142.6882   76.7221  219.8305 H   0  0  0  0  0  0  0  0  0  0  0  0
  142.6120   79.0176  220.4885 H   0  0  0  0  0  0  0  0  0  0  0  0
  139.8181   80.2502  223.5521 H   0  0  0  0  0  0  0  0  0  0  0  0
  139.0013   77.9102  223.7556 H   0  0  0  0  0  0  0  0  0  0  0  0
  1  2  2  0
  2  3  1  0
  3  4  1  0
  4  5  1  0
  5  6  2  0
  5  7  1  0
  7  8  1  0
  8  9  1  0
  9 10  1  0
  9 11  1  0
 11 12  1  0
 12 13  1  0
 13 14  1  0
 14 15  1  0
 15 16  2  0
 16 17  1  0
 17 18  2  0
 18 19  1  0
 19 20  2  0
  2 21  1  0
 21 22  2  0
 22 23  1  0
 23 24  2  0
 24 25  1  0
 25 26  2  0
 26 27  1  0
 26 28  1  0
 28 29  2  0
 29 30  1  0
 30 31  2  0
 12  7  1  0
 20 15  1  0
 31 21  1  0
 30 24  1  0
  3 32  1  0
  4 33  1  0
  4 34  1  0
  8 35  1  0
  8 36  1  0
  9 37  1  1
 11 38  1  0
 11 39  1  0
 12 40  1  1
 13 41  1  0
 13 42  1  0
 16 43  1  0
 17 44  1  0
 18 45  1  0
 19 46  1  0
 20 47  1  0
 22 48  1  0
 23 49  1  0
 25 50  1  0
 28 51  1  0
 29 52  1  0
M  END
>  <smiles>  (34) 
O=C(NCC(=O)N1C[C@@H](F)C[C@H]1COc1ccccc1)c1ccc2cc(Cl)ccc2n1

>  <score_type>  (34) 
oracle

>  <origin>  (34) 
autodockgpu

>  <m_score__min__energy>  (34) 
-8.5399999999999991

>  <m_primary>  (34) 
energy

>  <rmsd>  (34) 
8.47980845615011

>  <m_score__min__rmsd>  (34) 
8.47980845615011

>  <meeko>  (34) 
{"free_energy": -7.37, "intermolecular_energy": -9.46, "internal_energy": -2.43, "cluster_size": 5, "cluster_id": 5, "rank_in_cluster": 4}

>  <energy>  (34) 
-7.79

>  <cluster_rmsd>  (34) 
0.75

>  <cluster>  (34) 
4

$$$$

     RDKit          3D

 52 55  0  0  0  0  0  0  0  0999 V2000
  139.6190   72.3420  220.5930 O   0  0  0  0  0  0  0  0  0  0  0  0
  139.6360   72.8060  221.7650 C   0  0  0  0  0  0  0  0  0  0  0  0
  139.5120   74.1930  222.0570 N   0  0  0  0  0  0  0  0  0  0  0  0
  139.3550   75.1920  220.9770 C   0  0  0  0  0  0  0  0  0  0  0  0
  140.4070   74.9760  219.9960 C   0  0  0  0  0  0  0  0  0  0  0  0
  140.0190   74.5500  218.8390 O   0  0  0  0  0  0  0  0  0  0  0  0
  141.7840   75.1660  220.1260 N   0  0  0  0  0  0  0  0  0  0  0  0
  142.6470   74.1580  220.7920 C   0  0  0  0  0  0  0  0  0  0  0  0
  143.7480   74.0760  219.7530 C   0  0  1  0  0  0  0  0  0  0  0  0
  143.6060   72.9670  218.9530 F   0  0  0  0  0  0  0  0  0  0  0  0
  143.6790   75.3820  218.9430 C   0  0  0  0  0  0  0  0  0  0  0  0
  142.7290   76.1950  219.7410 C   0  0  1  0  0  0  0  0  0  0  0  0
  142.1690   77.4280  219.1620 C   0  0  0  0  0  0  0  0  0  0  0  0
  141.4000   78.1510  219.9950 O   0  0  0  0  0  0  0  0  0  0  0  0
  141.1710   78.5430  221.2400 C   0  0  0  0  0  0  0  0  0  0  0  0
  142.2630   79.1440  221.9170 C   0  0  0  0  0  0  0  0  0  0  0  0
  142.1750   79.5920  223.2000 C   0  0  0  0  0  0  0  0  0  0  0  0
  141.0010   79.4660  223.8720 C   0  0  0  0  0  0  0  0  0  0  0  0
  139.9020   78.8970  223.2870 C   0  0  0  0  0  0  0  0  0  0  0  0
  140.0220   78.4520  221.9880 C   0  0  0  0  0  0  0  0  0  0  0  0
  139.7890   71.8560  222.8890 C   0  0  0  0  0  0  0  0  0  0  0  0
  139.4000   70.5410  222.7510 C   0  0  0  0  0  0  0  0  0  0  0  0
  139.5320   69.6320  223.7850 C   0  0  0  0  0  0  0  0  0  0  0  0
  140.0740   70.0600  225.0000 C   0  0  0  0  0  0  0  0  0  0  0  0
  140.2040   69.1640  226.0150 C   0  0  0  0  0  0  0  0  0  0  0  0
  140.7500   69.6260  227.2150 C   0  0  0  0  0  0  0  0  0  0  0  0
  140.9390   68.5080  228.5620 Cl  0  0  0  0  0  0  0  0  0  0  0  0
  141.1420   70.9430  227.3590 C   0  0  0  0  0  0  0  0  0  0  0  0
  140.9960   71.8280  226.3040 C   0  0  0  0  0  0  0  0  0  0  0  0
  140.4560   71.3870  225.1050 C   0  0  0  0  0  0  0  0  0  0  0  0
  140.3110   72.2490  224.0720 N   0  0  0  0  0  0  0  0  0  0  0  0
  139.5400   74.4680  223.0610 H   0  0  0  0  0  0  0  0  0  0  0  0
  138.3713   75.0717  220.4996 H   0  0  0  0  0  0  0  0  0  0  0  0
  139.4257   76.2092  221.3896 H   0  0  0  0  0  0  0  0  0  0  0  0
  143.0211   74.5113  221.7642 H   0  0  0  0  0  0  0  0  0  0  0  0
  142.1584   73.2052  221.0439 H   0  0  0  0  0  0  0  0  0  0  0  0
  144.7333   73.9674  220.2298 H   0  0  0  0  0  0  0  0  0  0  0  0
  144.6649   75.8661  218.8819 H   0  0  0  0  0  0  0  0  0  0  0  0
  143.3676   75.2378  217.8979 H   0  0  0  0  0  0  0  0  0  0  0  0
  143.2191   76.7215  220.5732 H   0  0  0  0  0  0  0  0  0  0  0  0
  143.0064   78.0618  218.8349 H   0  0  0  0  0  0  0  0  0  0  0  0
  141.5131   77.1094  218.3384 H   0  0  0  0  0  0  0  0  0  0  0  0
  143.2193   79.2525  221.3843 H   0  0  0  0  0  0  0  0  0  0  0  0
  143.0470   80.0519  223.6880 H   0  0  0  0  0  0  0  0  0  0  0  0
  140.9321   79.8289  224.9081 H   0  0  0  0  0  0  0  0  0  0  0  0
  138.9538   78.7981  223.8358 H   0  0  0  0  0  0  0  0  0  0  0  0
  139.1390   77.9934  221.5189 H   0  0  0  0  0  0  0  0  0  0  0  0
  138.9736   70.2059  221.7940 H   0  0  0  0  0  0  0  0  0  0  0  0
  139.2149   68.5870  223.6529 H   0  0  0  0  0  0  0  0  0  0  0  0
  139.8913   68.1162  225.8956 H   0  0  0  0  0  0  0  0  0  0  0  0
  141.5700   71.2885  228.3116 H   0  0  0  0  0  0  0  0  0  0  0  0
  141.3072   72.8771  226.4165 H   0  0  0  0  0  0  0  0  0  0  0  0
  1  2  2  0
  2  3  1  0
  3  4  1  0
  4  5  1  0
  5  6  2  0
  5  7  1  0
  7  8  1  0
  8  9  1  0
  9 10  1  0
  9 11  1  0
 11 12  1  0
 12 13  1  0
 13 14  1  0
 14 15  1  0
 15 16  2  0
 16 17  1  0
 17 18  2  0
 18 19  1  0
 19 20  2  0
  2 21  1  0
 21 22  2  0
 22 23  1  0
 23 24  2  0
 24 25  1  0
 25 26  2  0
 26 27  1  0
 26 28  1  0
 28 29  2  0
 29 30  1  0
 30 31  2  0
 12  7  1  0
 20 15  1  0
 31 21  1  0
 30 24  1  0
  3 32  1  0
  4 33  1  0
  4 34  1  0
  8 35  1  0
  8 36  1  0
  9 37  1  1
 11 38  1  0
 11 39  1  0
 12 40  1  1
 13 41  1  0
 13 42  1  0
 16 43  1  0
 17 44  1  0
 18 45  1  0
 19 46  1  0
 20 47  1  0
 22 48  1  0
 23 49  1  0
 25 50  1  0
 28 51  1  0
 29 52  1  0
M  END
>  <smiles>  (35) 
O=C(NCC(=O)N1C[C@@H](F)C[C@H]1COc1ccccc1)c1ccc2cc(Cl)ccc2n1

>  <score_type>  (35) 
oracle

>  <origin>  (35) 
autodockgpu

>  <m_score__min__energy>  (35) 
-8.5399999999999991

>  <m_primary>  (35) 
energy

>  <rmsd>  (35) 
2.600516493885106

>  <m_score__min__rmsd>  (35) 
2.600516493885106

>  <meeko>  (35) 
{"free_energy": -7.78, "intermolecular_energy": -9.87, "internal_energy": -1.96, "cluster_size": 15, "cluster_id": 1, "rank_in_cluster": 14}

>  <energy>  (35) 
-7.76

>  <cluster_rmsd>  (35) 
0.83

>  <cluster>  (35) 
4

$$$$

     RDKit          3D

 52 55  0  0  0  0  0  0  0  0999 V2000
  138.5250   72.5340  221.2520 O   0  0  0  0  0  0  0  0  0  0  0  0
  139.5790   72.5530  221.9430 C   0  0  0  0  0  0  0  0  0  0  0  0
  140.6540   73.4530  221.7040 N   0  0  0  0  0  0  0  0  0  0  0  0
  140.5940   74.4410  220.6040 C   0  0  0  0  0  0  0  0  0  0  0  0
  141.9420   74.9260  220.3490 C   0  0  0  0  0  0  0  0  0  0  0  0
  142.8960   74.2560  220.9060 O   0  0  0  0  0  0  0  0  0  0  0  0
  142.3540   76.0190  219.5830 N   0  0  0  0  0  0  0  0  0  0  0  0
  143.6940   76.0560  218.9430 C   0  0  0  0  0  0  0  0  0  0  0  0
  143.2720   76.4920  217.5540 C   0  0  1  0  0  0  0  0  0  0  0  0
  143.2300   75.4300  216.6820 F   0  0  0  0  0  0  0  0  0  0  0  0
  141.8960   77.1630  217.7080 C   0  0  0  0  0  0  0  0  0  0  0  0
  141.7700   77.2820  219.1810 C   0  0  1  0  0  0  0  0  0  0  0  0
  140.4650   77.6260  219.7690 C   0  0  0  0  0  0  0  0  0  0  0  0
  140.5070   78.5400  220.7550 O   0  0  0  0  0  0  0  0  0  0  0  0
  141.1280   78.9770  221.8420 C   0  0  0  0  0  0  0  0  0  0  0  0
  141.8880   80.1650  221.6930 C   0  0  0  0  0  0  0  0  0  0  0  0
  142.5810   80.7270  222.7210 C   0  0  0  0  0  0  0  0  0  0  0  0
  142.5520   80.1400  223.9460 C   0  0  0  0  0  0  0  0  0  0  0  0
  141.8400   78.9920  224.1690 C   0  0  0  0  0  0  0  0  0  0  0  0
  141.1510   78.4450  223.1090 C   0  0  0  0  0  0  0  0  0  0  0  0
  139.6980   71.5890  223.0600 C   0  0  0  0  0  0  0  0  0  0  0  0
  139.2270   70.3000  222.9240 C   0  0  0  0  0  0  0  0  0  0  0  0
  139.3260   69.3800  223.9510 C   0  0  0  0  0  0  0  0  0  0  0  0
  139.9190   69.7670  225.1560 C   0  0  0  0  0  0  0  0  0  0  0  0
  140.0150   68.8590  226.1640 C   0  0  0  0  0  0  0  0  0  0  0  0
  140.6130   69.2800  227.3540 C   0  0  0  0  0  0  0  0  0  0  0  0
  140.7630   68.1450  228.6910 Cl  0  0  0  0  0  0  0  0  0  0  0  0
  141.0870   70.5700  227.4960 C   0  0  0  0  0  0  0  0  0  0  0  0
  140.9730   71.4690  226.4480 C   0  0  0  0  0  0  0  0  0  0  0  0
  140.3820   71.0680  225.2580 C   0  0  0  0  0  0  0  0  0  0  0  0
  140.2680   71.9430  224.2320 N   0  0  0  0  0  0  0  0  0  0  0  0
  141.4790   73.3820  222.3350 H   0  0  0  0  0  0  0  0  0  0  0  0
  140.1930   73.9640  219.6975 H   0  0  0  0  0  0  0  0  0  0  0  0
  139.9373   75.2782  220.8830 H   0  0  0  0  0  0  0  0  0  0  0  0
  144.3611   76.7880  219.4217 H   0  0  0  0  0  0  0  0  0  0  0  0
  144.2719   75.1214  218.9937 H   0  0  0  0  0  0  0  0  0  0  0  0
  144.0003   77.1950  217.1235 H   0  0  0  0  0  0  0  0  0  0  0  0
  141.8775   78.1510  217.2248 H   0  0  0  0  0  0  0  0  0  0  0  0
  141.0752   76.6014  217.2380 H   0  0  0  0  0  0  0  0  0  0  0  0
  142.2677   78.1799  219.5761 H   0  0  0  0  0  0  0  0  0  0  0  0
  139.8228   78.0190  218.9671 H   0  0  0  0  0  0  0  0  0  0  0  0
  140.0806   76.7014  220.2243 H   0  0  0  0  0  0  0  0  0  0  0  0
  141.9187   80.6519  220.7071 H   0  0  0  0  0  0  0  0  0  0  0  0
  143.1597   81.6487  222.5613 H   0  0  0  0  0  0  0  0  0  0  0  0
  143.1120   80.5964  224.7755 H   0  0  0  0  0  0  0  0  0  0  0  0
  141.8188   78.5214  225.1630 H   0  0  0  0  0  0  0  0  0  0  0  0
  140.5815   77.5212  223.2885 H   0  0  0  0  0  0  0  0  0  0  0  0
  138.7611   69.9965  221.9749 H   0  0  0  0  0  0  0  0  0  0  0  0
  138.9432   68.3569  223.8216 H   0  0  0  0  0  0  0  0  0  0  0  0
  139.6364   67.8329  226.0467 H   0  0  0  0  0  0  0  0  0  0  0  0
  141.5548   70.8832  228.4410 H   0  0  0  0  0  0  0  0  0  0  0  0
  141.3495   72.4966  226.5587 H   0  0  0  0  0  0  0  0  0  0  0  0
  1  2  2  0
  2  3  1  0
  3  4  1  0
  4  5  1  0
  5  6  2  0
  5  7  1  0
  7  8  1  0
  8  9  1  0
  9 10  1  0
  9 11  1  0
 11 12  1  0
 12 13  1  0
 13 14  1  0
 14 15  1  0
 15 16  2  0
 16 17  1  0
 17 18  2  0
 18 19  1  0
 19 20  2  0
  2 21  1  0
 21 22  2  0
 22 23  1  0
 23 24  2  0
 24 25  1  0
 25 26  2  0
 26 27  1  0
 26 28  1  0
 28 29  2  0
 29 30  1  0
 30 31  2  0
 12  7  1  0
 20 15  1  0
 31 21  1  0
 30 24  1  0
  3 32  1  0
  4 33  1  0
  4 34  1  0
  8 35  1  0
  8 36  1  0
  9 37  1  6
 11 38  1  0
 11 39  1  0
 12 40  1  1
 13 41  1  0
 13 42  1  0
 16 43  1  0
 17 44  1  0
 18 45  1  0
 19 46  1  0
 20 47  1  0
 22 48  1  0
 23 49  1  0
 25 50  1  0
 28 51  1  0
 29 52  1  0
M  END
>  <smiles>  (36) 
O=C(NCC(=O)N1C[C@@H](F)C[C@H]1COc1ccccc1)c1ccc2cc(Cl)ccc2n1

>  <score_type>  (36) 
oracle

>  <origin>  (36) 
autodockgpu

>  <m_score__min__energy>  (36) 
-8.5399999999999991

>  <m_primary>  (36) 
energy

>  <rmsd>  (36) 
2.34973955886202

>  <m_score__min__rmsd>  (36) 
2.34973955886202

>  <meeko>  (36) 
{"free_energy": -7.78, "intermolecular_energy": -9.87, "internal_energy": -2.06, "cluster_size": 15, "cluster_id": 1, "rank_in_cluster": 15}

>  <energy>  (36) 
-7.74

>  <cluster_rmsd>  (36) 
0.7

>  <cluster>  (36) 
4

$$$$

     RDKit          3D

 52 55  0  0  0  0  0  0  0  0999 V2000
  133.6270   69.2580  226.4700 O   0  0  0  0  0  0  0  0  0  0  0  0
  134.2150   70.3090  226.1010 C   0  0  0  0  0  0  0  0  0  0  0  0
  135.4220   70.3060  225.3470 N   0  0  0  0  0  0  0  0  0  0  0  0
  136.0690   69.0370  224.9460 C   0  0  0  0  0  0  0  0  0  0  0  0
  137.0850   69.3350  223.9480 C   0  0  0  0  0  0  0  0  0  0  0  0
  138.1120   68.5510  223.9390 O   0  0  0  0  0  0  0  0  0  0  0  0
  137.1080   70.3530  222.9930 N   0  0  0  0  0  0  0  0  0  0  0  0
  135.9480   70.6070  222.1000 C   0  0  0  0  0  0  0  0  0  0  0  0
  135.8530   72.1100  222.2700 C   0  0  1  0  0  0  0  0  0  0  0  0
  134.8550   72.4570  223.1500 F   0  0  0  0  0  0  0  0  0  0  0  0
  137.2350   72.5810  222.7560 C   0  0  0  0  0  0  0  0  0  0  0  0
  138.0610   71.3620  222.5770 C   0  0  1  0  0  0  0  0  0  0  0  0
  139.4000   71.3010  223.1850 C   0  0  0  0  0  0  0  0  0  0  0  0
  139.4310   71.4870  224.5170 O   0  0  0  0  0  0  0  0  0  0  0  0
  139.9610   71.1320  225.6790 C   0  0  0  0  0  0  0  0  0  0  0  0
  139.8110   69.7700  226.0440 C   0  0  0  0  0  0  0  0  0  0  0  0
  140.3000   69.2640  227.2100 C   0  0  0  0  0  0  0  0  0  0  0  0
  140.9620   70.0830  228.0680 C   0  0  0  0  0  0  0  0  0  0  0  0
  141.1470   71.4100  227.7860 C   0  0  0  0  0  0  0  0  0  0  0  0
  140.6390   71.8940  226.6000 C   0  0  0  0  0  0  0  0  0  0  0  0
  133.6150   71.6110  226.4700 C   0  0  0  0  0  0  0  0  0  0  0  0
  132.4350   71.6600  227.1810 C   0  0  0  0  0  0  0  0  0  0  0  0
  131.8530   72.8620  227.5390 C   0  0  0  0  0  0  0  0  0  0  0  0
  132.4780   74.0560  227.1720 C   0  0  0  0  0  0  0  0  0  0  0  0
  131.9040   75.2370  227.5250 C   0  0  0  0  0  0  0  0  0  0  0  0
  132.5570   76.4110  227.1420 C   0  0  0  0  0  0  0  0  0  0  0  0
  131.8560   77.9670  227.5740 Cl  0  0  0  0  0  0  0  0  0  0  0  0
  133.7400   76.3680  226.4300 C   0  0  0  0  0  0  0  0  0  0  0  0
  134.2970   75.1470  226.0860 C   0  0  0  0  0  0  0  0  0  0  0  0
  133.6630   73.9710  226.4590 C   0  0  0  0  0  0  0  0  0  0  0  0
  134.2040   72.7770  226.1250 N   0  0  0  0  0  0  0  0  0  0  0  0
  135.8240   71.2320  225.0950 H   0  0  0  0  0  0  0  0  0  0  0  0
  136.5366   68.5651  225.8228 H   0  0  0  0  0  0  0  0  0  0  0  0
  135.3210   68.3465  224.5294 H   0  0  0  0  0  0  0  0  0  0  0  0
  136.1570   70.3208  221.0587 H   0  0  0  0  0  0  0  0  0  0  0  0
  135.0336   70.0425  222.3351 H   0  0  0  0  0  0  0  0  0  0  0  0
  135.5884   72.5978  221.3202 H   0  0  0  0  0  0  0  0  0  0  0  0
  137.6120   73.4122  222.1419 H   0  0  0  0  0  0  0  0  0  0  0  0
  137.2335   72.9666  223.7862 H   0  0  0  0  0  0  0  0  0  0  0  0
  138.4422   71.2570  221.5505 H   0  0  0  0  0  0  0  0  0  0  0  0
  139.8274   70.3107  222.9692 H   0  0  0  0  0  0  0  0  0  0  0  0
  139.9736   72.1308  222.7464 H   0  0  0  0  0  0  0  0  0  0  0  0
  139.2783   69.0951  225.3579 H   0  0  0  0  0  0  0  0  0  0  0  0
  140.1600   68.2008  227.4550 H   0  0  0  0  0  0  0  0  0  0  0  0
  141.3575   69.6718  229.0085 H   0  0  0  0  0  0  0  0  0  0  0  0
  141.6841   72.0689  228.4841 H   0  0  0  0  0  0  0  0  0  0  0  0
  140.7859   72.9608  226.3756 H   0  0  0  0  0  0  0  0  0  0  0  0
  131.9441   70.7192  227.4708 H   0  0  0  0  0  0  0  0  0  0  0  0
  130.9102   72.8778  228.1054 H   0  0  0  0  0  0  0  0  0  0  0  0
  130.9611   75.2668  228.0908 H   0  0  0  0  0  0  0  0  0  0  0  0
  134.2396   77.3029  226.1362 H   0  0  0  0  0  0  0  0  0  0  0  0
  135.2389   75.1103  225.5190 H   0  0  0  0  0  0  0  0  0  0  0  0
  1  2  2  0
  2  3  1  0
  3  4  1  0
  4  5  1  0
  5  6  2  0
  5  7  1  0
  7  8  1  0
  8  9  1  0
  9 10  1  0
  9 11  1  0
 11 12  1  0
 12 13  1  0
 13 14  1  0
 14 15  1  0
 15 16  2  0
 16 17  1  0
 17 18  2  0
 18 19  1  0
 19 20  2  0
  2 21  1  0
 21 22  2  0
 22 23  1  0
 23 24  2  0
 24 25  1  0
 25 26  2  0
 26 27  1  0
 26 28  1  0
 28 29  2  0
 29 30  1  0
 30 31  2  0
 12  7  1  0
 20 15  1  0
 31 21  1  0
 30 24  1  0
  3 32  1  0
  4 33  1  0
  4 34  1  0
  8 35  1  0
  8 36  1  0
  9 37  1  6
 11 38  1  0
 11 39  1  0
 12 40  1  6
 13 41  1  0
 13 42  1  0
 16 43  1  0
 17 44  1  0
 18 45  1  0
 19 46  1  0
 20 47  1  0
 22 48  1  0
 23 49  1  0
 25 50  1  0
 28 51  1  0
 29 52  1  0
M  END
>  <smiles>  (37) 
O=C(NCC(=O)N1C[C@@H](F)C[C@H]1COc1ccccc1)c1ccc2cc(Cl)ccc2n1

>  <score_type>  (37) 
oracle

>  <origin>  (37) 
autodockgpu

>  <m_score__min__energy>  (37) 
-8.5399999999999991

>  <m_primary>  (37) 
energy

>  <rmsd>  (37) 
7.704862803388666

>  <m_score__min__rmsd>  (37) 
7.704862803388666

>  <meeko>  (37) 
{"free_energy": -7.3, "intermolecular_energy": -9.39, "internal_energy": -2.28, "cluster_size": 7, "cluster_id": 3, "rank_in_cluster": 7}

>  <energy>  (37) 
-7.64

>  <cluster_rmsd>  (37) 
0.63

>  <cluster>  (37) 
4

$$$$

     RDKit          3D

 52 55  0  0  0  0  0  0  0  0999 V2000
  139.4470   71.5520  220.8310 O   0  0  0  0  0  0  0  0  0  0  0  0
  139.5380   72.0900  221.9670 C   0  0  0  0  0  0  0  0  0  0  0  0
  139.5050   73.4980  222.1690 N   0  0  0  0  0  0  0  0  0  0  0  0
  139.3600   74.4310  221.0300 C   0  0  0  0  0  0  0  0  0  0  0  0
  140.6210   74.4710  220.3060 C   0  0  0  0  0  0  0  0  0  0  0  0
  140.8890   73.4330  219.5840 O   0  0  0  0  0  0  0  0  0  0  0  0
  141.5900   75.4770  220.2790 N   0  0  0  0  0  0  0  0  0  0  0  0
  143.0230   75.1680  220.0430 C   0  0  0  0  0  0  0  0  0  0  0  0
  143.3130   76.2190  218.9890 C   0  0  1  0  0  0  0  0  0  0  0  0
  143.3110   75.6800  217.7240 F   0  0  0  0  0  0  0  0  0  0  0  0
  142.2370   77.3060  219.1520 C   0  0  0  0  0  0  0  0  0  0  0  0
  141.5910   76.9180  220.4300 C   0  0  1  0  0  0  0  0  0  0  0  0
  140.3170   77.5460  220.8150 C   0  0  0  0  0  0  0  0  0  0  0  0
  140.4220   78.5470  221.7070 O   0  0  0  0  0  0  0  0  0  0  0  0
  141.2270   79.3460  222.3940 C   0  0  0  0  0  0  0  0  0  0  0  0
  140.5970   80.3640  223.1550 C   0  0  0  0  0  0  0  0  0  0  0  0
  141.2960   81.2590  223.9050 C   0  0  0  0  0  0  0  0  0  0  0  0
  142.6530   81.1860  223.9400 C   0  0  0  0  0  0  0  0  0  0  0  0
  143.3330   80.2310  223.2330 C   0  0  0  0  0  0  0  0  0  0  0  0
  142.5980   79.3410  222.4800 C   0  0  0  0  0  0  0  0  0  0  0  0
  139.6830   71.2090  223.1470 C   0  0  0  0  0  0  0  0  0  0  0  0
  139.2640   69.8960  223.0960 C   0  0  0  0  0  0  0  0  0  0  0  0
  139.3890   69.0520  224.1830 C   0  0  0  0  0  0  0  0  0  0  0  0
  139.9530   69.5420  225.3630 C   0  0  0  0  0  0  0  0  0  0  0  0
  140.0750   68.7090  226.4320 C   0  0  0  0  0  0  0  0  0  0  0  0
  140.6440   69.2320  227.5950 C   0  0  0  0  0  0  0  0  0  0  0  0
  140.8240   68.1960  229.0070 Cl  0  0  0  0  0  0  0  0  0  0  0  0
  141.0660   70.5460  227.6530 C   0  0  0  0  0  0  0  0  0  0  0  0
  140.9270   71.3670  226.5460 C   0  0  0  0  0  0  0  0  0  0  0  0
  140.3650   70.8640  225.3810 C   0  0  0  0  0  0  0  0  0  0  0  0
  140.2270   71.6640  224.2980 N   0  0  0  0  0  0  0  0  0  0  0  0
  139.5890   73.8370  223.1500 H   0  0  0  0  0  0  0  0  0  0  0  0
  138.5592   74.0805  220.3623 H   0  0  0  0  0  0  0  0  0  0  0  0
  139.1017   75.4360  221.3951 H   0  0  0  0  0  0  0  0  0  0  0  0
  143.6316   75.3107  220.9481 H   0  0  0  0  0  0  0  0  0  0  0  0
  143.2451   74.1301  219.7543 H   0  0  0  0  0  0  0  0  0  0  0  0
  144.3182   76.6453  219.1230 H   0  0  0  0  0  0  0  0  0  0  0  0
  142.6883   78.3068  219.2209 H   0  0  0  0  0  0  0  0  0  0  0  0
  141.5384   77.3665  218.3045 H   0  0  0  0  0  0  0  0  0  0  0  0
  142.1295   77.3007  221.3095 H   0  0  0  0  0  0  0  0  0  0  0  0
  139.8463   77.9477  219.9056 H   0  0  0  0  0  0  0  0  0  0  0  0
  139.7231   76.7600  221.3044 H   0  0  0  0  0  0  0  0  0  0  0  0
  139.4993   80.4327  223.1382 H   0  0  0  0  0  0  0  0  0  0  0  0
  140.7674   82.0350  224.4781 H   0  0  0  0  0  0  0  0  0  0  0  0
  143.2160   81.9088  224.5487 H   0  0  0  0  0  0  0  0  0  0  0  0
  144.4311   80.1758  223.2649 H   0  0  0  0  0  0  0  0  0  0  0  0
  143.1455   78.5759  221.9100 H   0  0  0  0  0  0  0  0  0  0  0  0
  138.8191   69.5109  222.1666 H   0  0  0  0  0  0  0  0  0  0  0  0
  139.0487   68.0079  224.1197 H   0  0  0  0  0  0  0  0  0  0  0  0
  139.7381   67.6631  226.3819 H   0  0  0  0  0  0  0  0  0  0  0  0
  141.5122   70.9403  228.5779 H   0  0  0  0  0  0  0  0  0  0  0  0
  141.2610   72.4141  226.5902 H   0  0  0  0  0  0  0  0  0  0  0  0
  1  2  2  0
  2  3  1  0
  3  4  1  0
  4  5  1  0
  5  6  2  0
  5  7  1  0
  7  8  1  0
  8  9  1  0
  9 10  1  0
  9 11  1  0
 11 12  1  0
 12 13  1  0
 13 14  1  0
 14 15  1  0
 15 16  2  0
 16 17  1  0
 17 18  2  0
 18 19  1  0
 19 20  2  0
  2 21  1  0
 21 22  2  0
 22 23  1  0
 23 24  2  0
 24 25  1  0
 25 26  2  0
 26 27  1  0
 26 28  1  0
 28 29  2  0
 29 30  1  0
 30 31  2  0
 12  7  1  0
 20 15  1  0
 31 21  1  0
 30 24  1  0
  3 32  1  0
  4 33  1  0
  4 34  1  0
  8 35  1  0
  8 36  1  0
  9 37  1  1
 11 38  1  0
 11 39  1  0
 12 40  1  1
 13 41  1  0
 13 42  1  0
 16 43  1  0
 17 44  1  0
 18 45  1  0
 19 46  1  0
 20 47  1  0
 22 48  1  0
 23 49  1  0
 25 50  1  0
 28 51  1  0
 29 52  1  0
M  END
>  <smiles>  (38) 
O=C(NCC(=O)N1C[C@@H](F)C[C@H]1COc1ccccc1)c1ccc2cc(Cl)ccc2n1

>  <score_type>  (38) 
oracle

>  <origin>  (38) 
autodockgpu

>  <m_score__min__energy>  (38) 
-8.5399999999999991

>  <m_primary>  (38) 
energy

>  <rmsd>  (38) 
2.0312073736165903

>  <m_score__min__rmsd>  (38) 
2.0312073736165903

>  <meeko>  (38) 
{"free_energy": -8.28, "intermolecular_energy": -10.37, "internal_energy": -1.43, "cluster_size": 15, "cluster_id": 1, "rank_in_cluster": 5}

>  <energy>  (38) 
-7.58

>  <cluster_rmsd>  (38) 
0.88

>  <cluster>  (38) 
4

$$$$

     RDKit          3D

 52 55  0  0  0  0  0  0  0  0999 V2000
  138.6340   71.9260  220.8870 O   0  0  0  0  0  0  0  0  0  0  0  0
  139.3540   72.3060  221.8490 C   0  0  0  0  0  0  0  0  0  0  0  0
  140.0020   73.5720  221.8870 N   0  0  0  0  0  0  0  0  0  0  0  0
  139.8650   74.5350  220.7720 C   0  0  0  0  0  0  0  0  0  0  0  0
  140.5710   75.7550  221.1300 C   0  0  0  0  0  0  0  0  0  0  0  0
  141.2320   75.7180  222.2400 O   0  0  0  0  0  0  0  0  0  0  0  0
  140.6390   76.9680  220.4410 N   0  0  0  0  0  0  0  0  0  0  0  0
  139.5550   77.9780  220.5410 C   0  0  0  0  0  0  0  0  0  0  0  0
  140.4080   79.2040  220.8000 C   0  0  1  0  0  0  0  0  0  0  0  0
  140.4190   79.5400  222.1330 F   0  0  0  0  0  0  0  0  0  0  0  0
  141.8180   78.8700  220.2810 C   0  0  0  0  0  0  0  0  0  0  0  0
  141.5880   77.6010  219.5480 C   0  0  1  0  0  0  0  0  0  0  0  0
  142.7430   76.7920  219.1260 C   0  0  0  0  0  0  0  0  0  0  0  0
  142.7540   75.5290  219.5860 O   0  0  0  0  0  0  0  0  0  0  0  0
  143.4720   74.5310  220.0840 C   0  0  0  0  0  0  0  0  0  0  0  0
  144.8060   74.8430  220.4510 C   0  0  0  0  0  0  0  0  0  0  0  0
  145.6590   73.9190  220.9710 C   0  0  0  0  0  0  0  0  0  0  0  0
  145.2310   72.6420  221.1530 C   0  0  0  0  0  0  0  0  0  0  0  0
  143.9580   72.2640  220.8220 C   0  0  0  0  0  0  0  0  0  0  0  0
  143.1170   73.2200  220.2960 C   0  0  0  0  0  0  0  0  0  0  0  0
  139.5280   71.3870  222.9960 C   0  0  0  0  0  0  0  0  0  0  0  0
  139.0750   70.0870  222.9260 C   0  0  0  0  0  0  0  0  0  0  0  0
  139.2250   69.2080  223.9830 C   0  0  0  0  0  0  0  0  0  0  0  0
  139.8530   69.6490  225.1500 C   0  0  0  0  0  0  0  0  0  0  0  0
  140.0000   68.7830  226.1880 C   0  0  0  0  0  0  0  0  0  0  0  0
  140.6310   69.2570  227.3390 C   0  0  0  0  0  0  0  0  0  0  0  0
  140.8470   68.1770  228.7120 Cl  0  0  0  0  0  0  0  0  0  0  0  0
  141.0880   70.5590  227.4160 C   0  0  0  0  0  0  0  0  0  0  0  0
  140.9220   71.4160  226.3400 C   0  0  0  0  0  0  0  0  0  0  0  0
  140.2970   70.9610  225.1880 C   0  0  0  0  0  0  0  0  0  0  0  0
  140.1320   71.7950  224.1340 N   0  0  0  0  0  0  0  0  0  0  0  0
  140.5740   73.7850  222.7300 H   0  0  0  0  0  0  0  0  0  0  0  0
  140.3012   74.1083  219.8568 H   0  0  0  0  0  0  0  0  0  0  0  0
  138.8024   74.7529  220.5892 H   0  0  0  0  0  0  0  0  0  0  0  0
  138.9811   78.0631  219.6064 H   0  0  0  0  0  0  0  0  0  0  0  0
  138.7787   77.7706  221.2922 H   0  0  0  0  0  0  0  0  0  0  0  0
  140.0011   80.0839  220.2802 H   0  0  0  0  0  0  0  0  0  0  0  0
  142.1928   79.6565  219.6095 H   0  0  0  0  0  0  0  0  0  0  0  0
  142.5744   78.7907  221.0757 H   0  0  0  0  0  0  0  0  0  0  0  0
  141.2328   77.7646  218.5199 H   0  0  0  0  0  0  0  0  0  0  0  0
  142.7489   76.7542  218.0267 H   0  0  0  0  0  0  0  0  0  0  0  0
  143.6312   77.2808  219.5528 H   0  0  0  0  0  0  0  0  0  0  0  0
  145.1654   75.8730  220.3097 H   0  0  0  0  0  0  0  0  0  0  0  0
  146.6865   74.2033  221.2418 H   0  0  0  0  0  0  0  0  0  0  0  0
  145.9218   71.8971  221.5749 H   0  0  0  0  0  0  0  0  0  0  0  0
  143.6169   71.2289  220.9713 H   0  0  0  0  0  0  0  0  0  0  0  0
  142.0948   72.9144  220.0282 H   0  0  0  0  0  0  0  0  0  0  0  0
  138.5817   69.7400  222.0061 H   0  0  0  0  0  0  0  0  0  0  0  0
  138.8546   68.1751  223.9057 H   0  0  0  0  0  0  0  0  0  0  0  0
  139.6351   67.7473  226.1229 H   0  0  0  0  0  0  0  0  0  0  0  0
  141.5834   70.9149  228.3314 H   0  0  0  0  0  0  0  0  0  0  0  0
  141.2843   72.4530  226.3989 H   0  0  0  0  0  0  0  0  0  0  0  0
  1  2  2  0
  2  3  1  0
  3  4  1  0
  4  5  1  0
  5  6  2  0
  5  7  1  0
  7  8  1  0
  8  9  1  0
  9 10  1  0
  9 11  1  0
 11 12  1  0
 12 13  1  0
 13 14  1  0
 14 15  1  0
 15 16  2  0
 16 17  1  0
 17 18  2  0
 18 19  1  0
 19 20  2  0
  2 21  1  0
 21 22  2  0
 22 23  1  0
 23 24  2  0
 24 25  1  0
 25 26  2  0
 26 27  1  0
 26 28  1  0
 28 29  2  0
 29 30  1  0
 30 31  2  0
 12  7  1  0
 20 15  1  0
 31 21  1  0
 30 24  1  0
  3 32  1  0
  4 33  1  0
  4 34  1  0
  8 35  1  0
  8 36  1  0
  9 37  1  6
 11 38  1  0
 11 39  1  0
 12 40  1  6
 13 41  1  0
 13 42  1  0
 16 43  1  0
 17 44  1  0
 18 45  1  0
 19 46  1  0
 20 47  1  0
 22 48  1  0
 23 49  1  0
 25 50  1  0
 28 51  1  0
 29 52  1  0
M  END
>  <smiles>  (39) 
O=C(NCC(=O)N1C[C@@H](F)C[C@H]1COc1ccccc1)c1ccc2cc(Cl)ccc2n1

>  <score_type>  (39) 
oracle

>  <origin>  (39) 
autodockgpu

>  <m_score__min__energy>  (39) 
-8.5399999999999991

>  <m_primary>  (39) 
energy

>  <rmsd>  (39) 
2.2109684506978002

>  <m_score__min__rmsd>  (39) 
2.2109684506978002

>  <meeko>  (39) 
{"free_energy": -7.38, "intermolecular_energy": -9.47, "internal_energy": -2.56, "cluster_size": 11, "cluster_id": 4, "rank_in_cluster": 9}

>  <energy>  (39) 
-7.38

>  <cluster_rmsd>  (39) 
0.98

>  <cluster>  (39) 
4

$$$$

     RDKit          3D

 52 55  0  0  0  0  0  0  0  0999 V2000
  139.2910   71.9860  220.8020 O   0  0  0  0  0  0  0  0  0  0  0  0
  139.4330   72.4540  221.9630 C   0  0  0  0  0  0  0  0  0  0  0  0
  139.3990   73.8470  222.2540 N   0  0  0  0  0  0  0  0  0  0  0  0
  139.1890   74.8470  221.1830 C   0  0  0  0  0  0  0  0  0  0  0  0
  139.0780   76.1610  221.7980 C   0  0  0  0  0  0  0  0  0  0  0  0
  138.1980   76.2700  222.7380 O   0  0  0  0  0  0  0  0  0  0  0  0
  139.7910   77.3270  221.5160 N   0  0  0  0  0  0  0  0  0  0  0  0
  139.4520   78.6200  222.1640 C   0  0  0  0  0  0  0  0  0  0  0  0
  140.8470   79.0390  222.5840 C   0  0  1  0  0  0  0  0  0  0  0  0
  141.0710   78.7870  223.9170 F   0  0  0  0  0  0  0  0  0  0  0  0
  141.8240   78.2650  221.6810 C   0  0  0  0  0  0  0  0  0  0  0  0
  140.9130   77.6760  220.6680 C   0  0  1  0  0  0  0  0  0  0  0  0
  141.4170   76.6270  219.7670 C   0  0  0  0  0  0  0  0  0  0  0  0
  142.5480   76.0230  220.1710 O   0  0  0  0  0  0  0  0  0  0  0  0
  143.1910   74.8800  220.3670 C   0  0  0  0  0  0  0  0  0  0  0  0
  142.3820   73.7330  220.5680 C   0  0  0  0  0  0  0  0  0  0  0  0
  142.9050   72.4950  220.7850 C   0  0  0  0  0  0  0  0  0  0  0  0
  144.2530   72.3340  220.8110 C   0  0  0  0  0  0  0  0  0  0  0  0
  145.1010   73.3940  220.6260 C   0  0  0  0  0  0  0  0  0  0  0  0
  144.5430   74.6350  220.4110 C   0  0  0  0  0  0  0  0  0  0  0  0
  139.6440   71.5040  223.0780 C   0  0  0  0  0  0  0  0  0  0  0  0
  139.3410   70.1680  222.9250 C   0  0  0  0  0  0  0  0  0  0  0  0
  139.5290   69.2580  223.9490 C   0  0  0  0  0  0  0  0  0  0  0  0
  140.0400   69.7060  225.1690 C   0  0  0  0  0  0  0  0  0  0  0  0
  140.2240   68.8100  226.1760 C   0  0  0  0  0  0  0  0  0  0  0  0
  140.7360   69.2920  227.3820 C   0  0  0  0  0  0  0  0  0  0  0  0
  140.9940   68.1730  228.7170 Cl  0  0  0  0  0  0  0  0  0  0  0  0
  141.0430   70.6290  227.5420 C   0  0  0  0  0  0  0  0  0  0  0  0
  140.8430   71.5150  226.4960 C   0  0  0  0  0  0  0  0  0  0  0  0
  140.3350   71.0540  225.2900 C   0  0  0  0  0  0  0  0  0  0  0  0
  140.1380   71.9170  224.2660 N   0  0  0  0  0  0  0  0  0  0  0  0
  139.5280   74.1250  223.2490 H   0  0  0  0  0  0  0  0  0  0  0  0
  140.0420   74.8325  220.4886 H   0  0  0  0  0  0  0  0  0  0  0  0
  138.2723   74.6134  220.6217 H   0  0  0  0  0  0  0  0  0  0  0  0
  139.0017   79.3318  221.4565 H   0  0  0  0  0  0  0  0  0  0  0  0
  138.7076   78.5666  222.9721 H   0  0  0  0  0  0  0  0  0  0  0  0
  140.9851   80.1238  222.4648 H   0  0  0  0  0  0  0  0  0  0  0  0
  142.5564   78.9402  221.2144 H   0  0  0  0  0  0  0  0  0  0  0  0
  142.4275   77.5195  222.2195 H   0  0  0  0  0  0  0  0  0  0  0  0
  140.6853   78.3727  219.8477 H   0  0  0  0  0  0  0  0  0  0  0  0
  140.6365   75.8582  219.6689 H   0  0  0  0  0  0  0  0  0  0  0  0
  141.6597   77.1286  218.8186 H   0  0  0  0  0  0  0  0  0  0  0  0
  141.2882   73.8481  220.5478 H   0  0  0  0  0  0  0  0  0  0  0  0
  142.2407   71.6317  220.9381 H   0  0  0  0  0  0  0  0  0  0  0  0
  144.6727   71.3321  220.9841 H   0  0  0  0  0  0  0  0  0  0  0  0
  146.1924   73.2585  220.6484 H   0  0  0  0  0  0  0  0  0  0  0  0
  145.2243   75.4862  220.2648 H   0  0  0  0  0  0  0  0  0  0  0  0
  138.9392   69.8166  221.9632 H   0  0  0  0  0  0  0  0  0  0  0  0
  139.2796   68.1964  223.8047 H   0  0  0  0  0  0  0  0  0  0  0  0
  139.9786   67.7458  226.0449 H   0  0  0  0  0  0  0  0  0  0  0  0
  141.4462   70.9902  228.4996 H   0  0  0  0  0  0  0  0  0  0  0  0
  141.0861   72.5805  226.6212 H   0  0  0  0  0  0  0  0  0  0  0  0
  1  2  2  0
  2  3  1  0
  3  4  1  0
  4  5  1  0
  5  6  2  0
  5  7  1  0
  7  8  1  0
  8  9  1  0
  9 10  1  0
  9 11  1  0
 11 12  1  0
 12 13  1  0
 13 14  1  0
 14 15  1  0
 15 16  2  0
 16 17  1  0
 17 18  2  0
 18 19  1  0
 19 20  2  0
  2 21  1  0
 21 22  2  0
 22 23  1  0
 23 24  2  0
 24 25  1  0
 25 26  2  0
 26 27  1  0
 26 28  1  0
 28 29  2  0
 29 30  1  0
 30 31  2  0
 12  7  1  0
 20 15  1  0
 31 21  1  0
 30 24  1  0
  3 32  1  0
  4 33  1  0
  4 34  1  0
  8 35  1  0
  8 36  1  0
  9 37  1  1
 11 38  1  0
 11 39  1  0
 12 40  1  6
 13 41  1  0
 13 42  1  0
 16 43  1  0
 17 44  1  0
 18 45  1  0
 19 46  1  0
 20 47  1  0
 22 48  1  0
 23 49  1  0
 25 50  1  0
 28 51  1  0
 29 52  1  0
M  END
>  <smiles>  (40) 
O=C(NCC(=O)N1C[C@@H](F)C[C@H]1COc1ccccc1)c1ccc2cc(Cl)ccc2n1

>  <score_type>  (40) 
oracle

>  <origin>  (40) 
autodockgpu

>  <m_score__min__energy>  (40) 
-8.5399999999999991

>  <m_primary>  (40) 
energy

>  <rmsd>  (40) 
2.7954771420985263

>  <m_score__min__rmsd>  (40) 
2.7954771420985263

>  <meeko>  (40) 
{"free_energy": -7.94, "intermolecular_energy": -10.03, "internal_energy": -2.22, "cluster_size": 11, "cluster_id": 4, "rank_in_cluster": 2}

>  <energy>  (40) 
-7.3

>  <cluster_rmsd>  (40) 
0.94

>  <cluster>  (40) 
4

$$$$

     RDKit          3D

 52 55  0  0  0  0  0  0  0  0999 V2000
  137.3810   70.6270  221.2360 O   0  0  0  0  0  0  0  0  0  0  0  0
  137.8880   71.2750  222.1900 C   0  0  0  0  0  0  0  0  0  0  0  0
  137.9390   72.6960  222.2290 N   0  0  0  0  0  0  0  0  0  0  0  0
  137.3870   73.5120  221.1250 C   0  0  0  0  0  0  0  0  0  0  0  0
  138.0620   74.8000  221.1240 C   0  0  0  0  0  0  0  0  0  0  0  0
  137.4200   75.7710  220.5620 O   0  0  0  0  0  0  0  0  0  0  0  0
  139.3110   75.1400  221.6470 N   0  0  0  0  0  0  0  0  0  0  0  0
  140.4660   74.2110  221.5630 C   0  0  0  0  0  0  0  0  0  0  0  0
  141.5080   75.1860  221.0510 C   0  0  1  0  0  0  0  0  0  0  0  0
  141.7030   75.0530  219.6970 F   0  0  0  0  0  0  0  0  0  0  0  0
  141.0070   76.5920  221.4240 C   0  0  0  0  0  0  0  0  0  0  0  0
  139.8710   76.2900  222.3280 C   0  0  1  0  0  0  0  0  0  0  0  0
  138.9350   77.3650  222.6960 C   0  0  0  0  0  0  0  0  0  0  0  0
  139.4090   78.6130  222.5390 O   0  0  0  0  0  0  0  0  0  0  0  0
  140.3900   79.4700  222.7860 C   0  0  0  0  0  0  0  0  0  0  0  0
  141.4640   78.9820  223.5730 C   0  0  0  0  0  0  0  0  0  0  0  0
  142.5370   79.7510  223.9090 C   0  0  0  0  0  0  0  0  0  0  0  0
  142.5970   81.0380  223.4790 C   0  0  0  0  0  0  0  0  0  0  0  0
  141.5990   81.5810  222.7150 C   0  0  0  0  0  0  0  0  0  0  0  0
  140.5260   80.7800  222.3920 C   0  0  0  0  0  0  0  0  0  0  0  0
  138.4560   70.5150  223.3260 C   0  0  0  0  0  0  0  0  0  0  0  0
  138.3010   69.1470  223.4000 C   0  0  0  0  0  0  0  0  0  0  0  0
  138.8210   68.4120  224.4490 C   0  0  0  0  0  0  0  0  0  0  0  0
  139.5230   69.0750  225.4590 C   0  0  0  0  0  0  0  0  0  0  0  0
  140.0340   68.3500  226.4900 C   0  0  0  0  0  0  0  0  0  0  0  0
  140.7300   69.0440  227.4830 C   0  0  0  0  0  0  0  0  0  0  0  0
  141.4120   68.1540  228.8400 Cl  0  0  0  0  0  0  0  0  0  0  0  0
  140.8890   70.4150  227.4140 C   0  0  0  0  0  0  0  0  0  0  0  0
  140.3560   71.1220  226.3500 C   0  0  0  0  0  0  0  0  0  0  0  0
  139.6620   70.4490  225.3550 C   0  0  0  0  0  0  0  0  0  0  0  0
  139.1380   71.1360  224.3130 N   0  0  0  0  0  0  0  0  0  0  0  0
  138.3820   73.1300  223.0650 H   0  0  0  0  0  0  0  0  0  0  0  0
  137.5576   73.0024  220.1652 H   0  0  0  0  0  0  0  0  0  0  0  0
  136.3049   73.6526  221.2636 H   0  0  0  0  0  0  0  0  0  0  0  0
  140.7353   73.7958  222.5454 H   0  0  0  0  0  0  0  0  0  0  0  0
  140.3108   73.3132  220.9467 H   0  0  0  0  0  0  0  0  0  0  0  0
  142.4895   74.9899  221.5073 H   0  0  0  0  0  0  0  0  0  0  0  0
  141.7870   77.1688  221.9426 H   0  0  0  0  0  0  0  0  0  0  0  0
  140.7287   77.2066  220.5552 H   0  0  0  0  0  0  0  0  0  0  0  0
  140.1914   76.1145  223.3656 H   0  0  0  0  0  0  0  0  0  0  0  0
  138.0350   77.2614  222.0721 H   0  0  0  0  0  0  0  0  0  0  0  0
  138.7389   77.2451  223.7717 H   0  0  0  0  0  0  0  0  0  0  0  0
  141.4292   77.9409  223.9263 H   0  0  0  0  0  0  0  0  0  0  0  0
  143.3481   79.3332  224.5234 H   0  0  0  0  0  0  0  0  0  0  0  0
  143.4652   81.6567  223.7501 H   0  0  0  0  0  0  0  0  0  0  0  0
  141.6524   82.6241  222.3700 H   0  0  0  0  0  0  0  0  0  0  0  0
  139.7249   81.2175  221.7781 H   0  0  0  0  0  0  0  0  0  0  0  0
  137.7490   68.6267  222.6033 H   0  0  0  0  0  0  0  0  0  0  0  0
  138.6841   67.3212  224.4880 H   0  0  0  0  0  0  0  0  0  0  0  0
  139.9043   67.2588  226.5402 H   0  0  0  0  0  0  0  0  0  0  0  0
  141.4396   70.9449  228.2052 H   0  0  0  0  0  0  0  0  0  0  0  0
  140.4822   72.2133  226.2936 H   0  0  0  0  0  0  0  0  0  0  0  0
  1  2  2  0
  2  3  1  0
  3  4  1  0
  4  5  1  0
  5  6  2  0
  5  7  1  0
  7  8  1  0
  8  9  1  0
  9 10  1  0
  9 11  1  0
 11 12  1  0
 12 13  1  0
 13 14  1  0
 14 15  1  0
 15 16  2  0
 16 17  1  0
 17 18  2  0
 18 19  1  0
 19 20  2  0
  2 21  1  0
 21 22  2  0
 22 23  1  0
 23 24  2  0
 24 25  1  0
 25 26  2  0
 26 27  1  0
 26 28  1  0
 28 29  2  0
 29 30  1  0
 30 31  2  0
 12  7  1  0
 20 15  1  0
 31 21  1  0
 30 24  1  0
  3 32  1  0
  4 33  1  0
  4 34  1  0
  8 35  1  0
  8 36  1  0
  9 37  1  1
 11 38  1  0
 11 39  1  0
 12 40  1  1
 13 41  1  0
 13 42  1  0
 16 43  1  0
 17 44  1  0
 18 45  1  0
 19 46  1  0
 20 47  1  0
 22 48  1  0
 23 49  1  0
 25 50  1  0
 28 51  1  0
 29 52  1  0
M  END
>  <smiles>  (41) 
O=C(NCC(=O)N1C[C@@H](F)C[C@H]1COc1ccccc1)c1ccc2cc(Cl)ccc2n1

>  <score_type>  (41) 
oracle

>  <origin>  (41) 
autodockgpu

>  <m_score__min__energy>  (41) 
-8.5399999999999991

>  <m_primary>  (41) 
energy

>  <rmsd>  (41) 
2.2127676039241053

>  <m_score__min__rmsd>  (41) 
2.2127676039241053

>  <meeko>  (41) 
{"free_energy": -7.92, "intermolecular_energy": -10.01, "internal_energy": -1.61, "cluster_size": 15, "cluster_id": 1, "rank_in_cluster": 10}

>  <energy>  (41) 
-7.28

>  <cluster_rmsd>  (41) 
1.03

>  <cluster>  (41) 
4

$$$$

     RDKit          3D

 52 55  0  0  0  0  0  0  0  0999 V2000
  139.5010   74.5730  221.0280 O   0  0  0  0  0  0  0  0  0  0  0  0
  140.0270   75.6420  221.4370 C   0  0  0  0  0  0  0  0  0  0  0  0
  141.4260   75.8970  221.3760 N   0  0  0  0  0  0  0  0  0  0  0  0
  142.3620   74.8980  220.8160 C   0  0  0  0  0  0  0  0  0  0  0  0
  142.3780   75.0440  219.3680 C   0  0  0  0  0  0  0  0  0  0  0  0
  142.0120   74.0040  218.6940 O   0  0  0  0  0  0  0  0  0  0  0  0
  142.7340   76.1540  218.5990 N   0  0  0  0  0  0  0  0  0  0  0  0
  143.7260   76.0500  217.4990 C   0  0  0  0  0  0  0  0  0  0  0  0
  142.9510   76.7820  216.4220 C   0  0  1  0  0  0  0  0  0  0  0  0
  142.3530   75.9070  215.5460 F   0  0  0  0  0  0  0  0  0  0  0  0
  141.9180   77.6600  217.1500 C   0  0  0  0  0  0  0  0  0  0  0  0
  142.3580   77.5520  218.5630 C   0  0  1  0  0  0  0  0  0  0  0  0
  141.4680   78.0290  219.6350 C   0  0  0  0  0  0  0  0  0  0  0  0
  142.0860   78.6480  220.6560 O   0  0  0  0  0  0  0  0  0  0  0  0
  142.0620   79.6400  221.5350 C   0  0  0  0  0  0  0  0  0  0  0  0
  142.6460   79.3710  222.7990 C   0  0  0  0  0  0  0  0  0  0  0  0
  142.6900   80.2940  223.7990 C   0  0  0  0  0  0  0  0  0  0  0  0
  142.1570   81.5270  223.5940 C   0  0  0  0  0  0  0  0  0  0  0  0
  141.5750   81.8620  222.4010 C   0  0  0  0  0  0  0  0  0  0  0  0
  141.5440   80.9080  221.4080 C   0  0  0  0  0  0  0  0  0  0  0  0
  139.1420   76.6820  222.0060 C   0  0  0  0  0  0  0  0  0  0  0  0
  137.7720   76.5690  221.9020 C   0  0  0  0  0  0  0  0  0  0  0  0
  136.9220   77.5250  222.4260 C   0  0  0  0  0  0  0  0  0  0  0  0
  137.4670   78.6350  223.0770 C   0  0  0  0  0  0  0  0  0  0  0  0
  136.6290   79.5750  223.5910 C   0  0  0  0  0  0  0  0  0  0  0  0
  137.2080   80.6700  224.2350 C   0  0  0  0  0  0  0  0  0  0  0  0
  136.1680   81.9160  224.9180 Cl  0  0  0  0  0  0  0  0  0  0  0  0
  138.5800   80.7900  224.3430 C   0  0  0  0  0  0  0  0  0  0  0  0
  139.4050   79.8140  223.8070 C   0  0  0  0  0  0  0  0  0  0  0  0
  138.8470   78.7180  223.1650 C   0  0  0  0  0  0  0  0  0  0  0  0
  139.6490   77.7630  222.6400 N   0  0  0  0  0  0  0  0  0  0  0  0
  141.7550   76.8140  221.7420 H   0  0  0  0  0  0  0  0  0  0  0  0
  143.3717   75.0689  221.2177 H   0  0  0  0  0  0  0  0  0  0  0  0
  142.0392   73.8827  221.0898 H   0  0  0  0  0  0  0  0  0  0  0  0
  144.6712   76.5561  217.7450 H   0  0  0  0  0  0  0  0  0  0  0  0
  144.0484   75.0298  217.2435 H   0  0  0  0  0  0  0  0  0  0  0  0
  143.6209   77.4001  215.8063 H   0  0  0  0  0  0  0  0  0  0  0  0
  141.9598   78.7011  216.7974 H   0  0  0  0  0  0  0  0  0  0  0  0
  140.8766   77.3462  216.9858 H   0  0  0  0  0  0  0  0  0  0  0  0
  143.1595   78.2629  218.8123 H   0  0  0  0  0  0  0  0  0  0  0  0
  140.7499   78.7352  219.1927 H   0  0  0  0  0  0  0  0  0  0  0  0
  140.9945   77.1325  220.0617 H   0  0  0  0  0  0  0  0  0  0  0  0
  143.0809   78.3767  222.9788 H   0  0  0  0  0  0  0  0  0  0  0  0
  143.1532   80.0436  224.7648 H   0  0  0  0  0  0  0  0  0  0  0  0
  142.1939   82.2712  224.4032 H   0  0  0  0  0  0  0  0  0  0  0  0
  141.1455   82.8619  222.2405 H   0  0  0  0  0  0  0  0  0  0  0  0
  141.0742   81.1778  220.4506 H   0  0  0  0  0  0  0  0  0  0  0  0
  137.3440   75.6953  221.3886 H   0  0  0  0  0  0  0  0  0  0  0  0
  135.8317   77.4135  222.3318 H   0  0  0  0  0  0  0  0  0  0  0  0
  135.5370   79.4762  223.5027 H   0  0  0  0  0  0  0  0  0  0  0  0
  139.0175   81.6601  224.8544 H   0  0  0  0  0  0  0  0  0  0  0  0
  140.4978   79.9079  223.8903 H   0  0  0  0  0  0  0  0  0  0  0  0
  1  2  2  0
  2  3  1  0
  3  4  1  0
  4  5  1  0
  5  6  2  0
  5  7  1  0
  7  8  1  0
  8  9  1  0
  9 10  1  0
  9 11  1  0
 11 12  1  0
 12 13  1  0
 13 14  1  0
 14 15  1  0
 15 16  2  0
 16 17  1  0
 17 18  2  0
 18 19  1  0
 19 20  2  0
  2 21  1  0
 21 22  2  0
 22 23  1  0
 23 24  2  0
 24 25  1  0
 25 26  2  0
 26 27  1  0
 26 28  1  0
 28 29  2  0
 29 30  1  0
 30 31  2  0
 12  7  1  0
 20 15  1  0
 31 21  1  0
 30 24  1  0
  3 32  1  0
  4 33  1  0
  4 34  1  0
  8 35  1  0
  8 36  1  0
  9 37  1  6
 11 38  1  0
 11 39  1  0
 12 40  1  6
 13 41  1  0
 13 42  1  0
 16 43  1  0
 17 44  1  0
 18 45  1  0
 19 46  1  0
 20 47  1  0
 22 48  1  0
 23 49  1  0
 25 50  1  0
 28 51  1  0
 29 52  1  0
M  END
>  <smiles>  (42) 
O=C(NCC(=O)N1C[C@@H](F)C[C@H]1COc1ccccc1)c1ccc2cc(Cl)ccc2n1

>  <score_type>  (42) 
oracle

>  <origin>  (42) 
autodockgpu

>  <m_score__min__energy>  (42) 
-8.5399999999999991

>  <m_primary>  (42) 
energy

>  <rmsd>  (42) 
7.009821100339834

>  <m_score__min__rmsd>  (42) 
7.009821100339834

>  <meeko>  (42) 
{"free_energy": -6.06, "intermolecular_energy": -8.15, "internal_energy": -3.24, "cluster_size": 1, "cluster_id": 9, "rank_in_cluster": 1}

>  <energy>  (42) 
-7.81

>  <cluster_rmsd>  (42) 
0.0

>  <cluster>  (42) 
5

$$$$

     RDKit          3D

 52 55  0  0  0  0  0  0  0  0999 V2000
  138.0480   71.1110  221.3090 O   0  0  0  0  0  0  0  0  0  0  0  0
  138.6080   71.6870  222.2790 C   0  0  0  0  0  0  0  0  0  0  0  0
  138.8490   73.0890  222.3230 N   0  0  0  0  0  0  0  0  0  0  0  0
  138.4460   73.9690  221.2030 C   0  0  0  0  0  0  0  0  0  0  0  0
  138.7610   75.3430  221.5640 C   0  0  0  0  0  0  0  0  0  0  0  0
  139.5930   75.4920  222.5410 O   0  0  0  0  0  0  0  0  0  0  0  0
  138.2900   76.5310  221.0000 N   0  0  0  0  0  0  0  0  0  0  0  0
  136.8540   76.9040  221.0640 C   0  0  0  0  0  0  0  0  0  0  0  0
  137.0110   78.3380  221.5310 C   0  0  1  0  0  0  0  0  0  0  0  0
  136.7800   78.4570  222.8820 F   0  0  0  0  0  0  0  0  0  0  0  0
  138.4400   78.7640  221.1530 C   0  0  0  0  0  0  0  0  0  0  0  0
  138.8820   77.6440  220.2870 C   0  0  1  0  0  0  0  0  0  0  0  0
  140.3050   77.5240  219.9300 C   0  0  0  0  0  0  0  0  0  0  0  0
  141.1670   77.8230  220.9180 O   0  0  0  0  0  0  0  0  0  0  0  0
  141.5810   78.7230  221.8000 C   0  0  0  0  0  0  0  0  0  0  0  0
  141.4350   78.3730  223.1660 C   0  0  0  0  0  0  0  0  0  0  0  0
  141.8130   79.1980  224.1800 C   0  0  0  0  0  0  0  0  0  0  0  0
  142.3540   80.4100  223.8890 C   0  0  0  0  0  0  0  0  0  0  0  0
  142.5280   80.8200  222.5940 C   0  0  0  0  0  0  0  0  0  0  0  0
  142.1340   79.9630  221.5890 C   0  0  0  0  0  0  0  0  0  0  0  0
  139.0330   70.8610  223.4310 C   0  0  0  0  0  0  0  0  0  0  0  0
  138.7940   69.5020  223.4430 C   0  0  0  0  0  0  0  0  0  0  0  0
  139.1810   68.7070  224.5060 C   0  0  0  0  0  0  0  0  0  0  0  0
  139.8300   69.2950  225.5930 C   0  0  0  0  0  0  0  0  0  0  0  0
  140.2100   68.5100  226.6370 C   0  0  0  0  0  0  0  0  0  0  0  0
  140.8570   69.1310  227.7080 C   0  0  0  0  0  0  0  0  0  0  0  0
  141.3690   68.1610  229.0850 Cl  0  0  0  0  0  0  0  0  0  0  0  0
  141.1000   70.4910  227.7020 C   0  0  0  0  0  0  0  0  0  0  0  0
  140.7000   71.2610  226.6220 C   0  0  0  0  0  0  0  0  0  0  0  0
  140.0560   70.6610  225.5500 C   0  0  0  0  0  0  0  0  0  0  0  0
  139.6630   71.4100  224.4930 N   0  0  0  0  0  0  0  0  0  0  0  0
  139.3200   73.4610  223.1730 H   0  0  0  0  0  0  0  0  0  0  0  0
  138.9964   73.6882  220.2930 H   0  0  0  0  0  0  0  0  0  0  0  0
  137.3680   73.8660  221.0097 H   0  0  0  0  0  0  0  0  0  0  0  0
  136.3656   76.8402  220.0804 H   0  0  0  0  0  0  0  0  0  0  0  0
  136.2232   76.2631  221.6975 H   0  0  0  0  0  0  0  0  0  0  0  0
  136.2708   78.9935  221.0489 H   0  0  0  0  0  0  0  0  0  0  0  0
  138.4399   79.7170  220.6036 H   0  0  0  0  0  0  0  0  0  0  0  0
  139.0937   78.9357  222.0208 H   0  0  0  0  0  0  0  0  0  0  0  0
  138.5565   77.7628  219.2430 H   0  0  0  0  0  0  0  0  0  0  0  0
  140.4917   76.4861  219.6170 H   0  0  0  0  0  0  0  0  0  0  0  0
  140.4846   78.2603  219.1327 H   0  0  0  0  0  0  0  0  0  0  0  0
  140.9984   77.3949  223.4164 H   0  0  0  0  0  0  0  0  0  0  0  0
  141.6817   78.8863  225.2267 H   0  0  0  0  0  0  0  0  0  0  0  0
  142.6584   81.0754  224.7104 H   0  0  0  0  0  0  0  0  0  0  0  0
  142.9679   81.8015  222.3633 H   0  0  0  0  0  0  0  0  0  0  0  0
  142.2714   80.2937  220.5489 H   0  0  0  0  0  0  0  0  0  0  0  0
  138.2829   69.0397  222.5856 H   0  0  0  0  0  0  0  0  0  0  0  0
  138.9801   67.6256  224.4952 H   0  0  0  0  0  0  0  0  0  0  0  0
  140.0152   67.4274  226.6378 H   0  0  0  0  0  0  0  0  0  0  0  0
  141.6110   70.9623  228.5545 H   0  0  0  0  0  0  0  0  0  0  0  0
  140.8924   72.3440  226.6146 H   0  0  0  0  0  0  0  0  0  0  0  0
  1  2  2  0
  2  3  1  0
  3  4  1  0
  4  5  1  0
  5  6  2  0
  5  7  1  0
  7  8  1  0
  8  9  1  0
  9 10  1  0
  9 11  1  0
 11 12  1  0
 12 13  1  0
 13 14  1  0
 14 15  1  0
 15 16  2  0
 16 17  1  0
 17 18  2  0
 18 19  1  0
 19 20  2  0
  2 21  1  0
 21 22  2  0
 22 23  1  0
 23 24  2  0
 24 25  1  0
 25 26  2  0
 26 27  1  0
 26 28  1  0
 28 29  2  0
 29 30  1  0
 30 31  2  0
 12  7  1  0
 20 15  1  0
 31 21  1  0
 30 24  1  0
  3 32  1  0
  4 33  1  0
  4 34  1  0
  8 35  1  0
  8 36  1  0
  9 37  1  6
 11 38  1  0
 11 39  1  0
 12 40  1  6
 13 41  1  0
 13 42  1  0
 16 43  1  0
 17 44  1  0
 18 45  1  0
 19 46  1  0
 20 47  1  0
 22 48  1  0
 23 49  1  0
 25 50  1  0
 28 51  1  0
 29 52  1  0
M  END
>  <smiles>  (43) 
O=C(NCC(=O)N1C[C@@H](F)C[C@H]1COc1ccccc1)c1ccc2cc(Cl)ccc2n1

>  <score_type>  (43) 
oracle

>  <origin>  (43) 
autodockgpu

>  <m_score__min__energy>  (43) 
-8.5399999999999991

>  <m_primary>  (43) 
energy

>  <rmsd>  (43) 
2.415053298612152

>  <m_score__min__rmsd>  (43) 
2.415053298612152

>  <meeko>  (43) 
{"free_energy": -7.89, "intermolecular_energy": -9.98, "internal_energy": -2.35, "cluster_size": 8, "cluster_id": 2, "rank_in_cluster": 3}

>  <energy>  (43) 
-7.78

>  <cluster_rmsd>  (43) 
0.38

>  <cluster>  (43) 
5

$$$$

     RDKit          3D

 52 55  0  0  0  0  0  0  0  0999 V2000
  139.5660   71.9560  220.6850 O   0  0  0  0  0  0  0  0  0  0  0  0
  139.6050   72.4380  221.8480 C   0  0  0  0  0  0  0  0  0  0  0  0
  139.5190   73.8320  222.1200 N   0  0  0  0  0  0  0  0  0  0  0  0
  139.3760   74.8170  221.0250 C   0  0  0  0  0  0  0  0  0  0  0  0
  139.9670   76.0740  221.4580 C   0  0  0  0  0  0  0  0  0  0  0  0
  140.3390   76.1240  222.6950 O   0  0  0  0  0  0  0  0  0  0  0  0
  140.1920   77.2410  220.7240 N   0  0  0  0  0  0  0  0  0  0  0  0
  139.5250   78.5200  221.0770 C   0  0  0  0  0  0  0  0  0  0  0  0
  140.7360   79.4300  221.0330 C   0  0  1  0  0  0  0  0  0  0  0  0
  141.2170   79.6930  222.2940 F   0  0  0  0  0  0  0  0  0  0  0  0
  141.7830   78.7180  220.1580 C   0  0  0  0  0  0  0  0  0  0  0  0
  140.9960   77.6030  219.5750 C   0  0  1  0  0  0  0  0  0  0  0  0
  141.6970   76.5090  218.8840 C   0  0  0  0  0  0  0  0  0  0  0  0
  142.0740   75.4860  219.6710 O   0  0  0  0  0  0  0  0  0  0  0  0
  143.0520   74.6750  220.0510 C   0  0  0  0  0  0  0  0  0  0  0  0
  142.6730   73.3490  220.3820 C   0  0  0  0  0  0  0  0  0  0  0  0
  143.5700   72.4100  220.7910 C   0  0  0  0  0  0  0  0  0  0  0  0
  144.8840   72.7400  220.8910 C   0  0  0  0  0  0  0  0  0  0  0  0
  145.3280   73.9990  220.5900 C   0  0  0  0  0  0  0  0  0  0  0  0
  144.3970   74.9290  220.1800 C   0  0  0  0  0  0  0  0  0  0  0  0
  139.7450   71.5030  222.9870 C   0  0  0  0  0  0  0  0  0  0  0  0
  139.3660   70.1830  222.8590 C   0  0  0  0  0  0  0  0  0  0  0  0
  139.4860   69.2880  223.9060 C   0  0  0  0  0  0  0  0  0  0  0  0
  140.0060   69.7340  225.1230 C   0  0  0  0  0  0  0  0  0  0  0  0
  140.1230   68.8520  226.1520 C   0  0  0  0  0  0  0  0  0  0  0  0
  140.6460   69.3310  227.3550 C   0  0  0  0  0  0  0  0  0  0  0  0
  140.8200   68.2300  228.7180 Cl  0  0  0  0  0  0  0  0  0  0  0  0
  141.0280   70.6510  227.4900 C   0  0  0  0  0  0  0  0  0  0  0  0
  140.8950   71.5230  226.4220 C   0  0  0  0  0  0  0  0  0  0  0  0
  140.3780   71.0650  225.2190 C   0  0  0  0  0  0  0  0  0  0  0  0
  140.2450   71.9130  224.1730 N   0  0  0  0  0  0  0  0  0  0  0  0
  139.5630   74.1230  223.1180 H   0  0  0  0  0  0  0  0  0  0  0  0
  139.8957   74.4521  220.1268 H   0  0  0  0  0  0  0  0  0  0  0  0
  138.3126   74.9625  220.7840 H   0  0  0  0  0  0  0  0  0  0  0  0
  138.7641   78.8079  220.3366 H   0  0  0  0  0  0  0  0  0  0  0  0
  138.9645   78.5191  222.0235 H   0  0  0  0  0  0  0  0  0  0  0  0
  140.4761   80.4108  220.6082 H   0  0  0  0  0  0  0  0  0  0  0  0
  142.1693   79.3863  219.3743 H   0  0  0  0  0  0  0  0  0  0  0  0
  142.6730   78.3878  220.7138 H   0  0  0  0  0  0  0  0  0  0  0  0
  140.4322   77.9052  218.6801 H   0  0  0  0  0  0  0  0  0  0  0  0
  141.0271   76.1122  218.1070 H   0  0  0  0  0  0  0  0  0  0  0  0
  142.6240   76.9445  218.4827 H   0  0  0  0  0  0  0  0  0  0  0  0
  141.6123   73.0681  220.3052 H   0  0  0  0  0  0  0  0  0  0  0  0
  143.2335   71.3924  221.0385 H   0  0  0  0  0  0  0  0  0  0  0  0
  145.6065   71.9790  221.2210 H   0  0  0  0  0  0  0  0  0  0  0  0
  146.3933   74.2603  220.6726 H   0  0  0  0  0  0  0  0  0  0  0  0
  144.7538   75.9415  219.9401 H   0  0  0  0  0  0  0  0  0  0  0  0
  138.9578   69.8333  221.8993 H   0  0  0  0  0  0  0  0  0  0  0  0
  139.1763   68.2398  223.7822 H   0  0  0  0  0  0  0  0  0  0  0  0
  139.8172   67.8012  226.0407 H   0  0  0  0  0  0  0  0  0  0  0  0
  141.4379   71.0101  228.4456 H   0  0  0  0  0  0  0  0  0  0  0  0
  141.1983   72.5751  226.5275 H   0  0  0  0  0  0  0  0  0  0  0  0
  1  2  2  0
  2  3  1  0
  3  4  1  0
  4  5  1  0
  5  6  2  0
  5  7  1  0
  7  8  1  0
  8  9  1  0
  9 10  1  0
  9 11  1  0
 11 12  1  0
 12 13  1  0
 13 14  1  0
 14 15  1  0
 15 16  2  0
 16 17  1  0
 17 18  2  0
 18 19  1  0
 19 20  2  0
  2 21  1  0
 21 22  2  0
 22 23  1  0
 23 24  2  0
 24 25  1  0
 25 26  2  0
 26 27  1  0
 26 28  1  0
 28 29  2  0
 29 30  1  0
 30 31  2  0
 12  7  1  0
 20 15  1  0
 31 21  1  0
 30 24  1  0
  3 32  1  0
  4 33  1  0
  4 34  1  0
  8 35  1  0
  8 36  1  0
  9 37  1  6
 11 38  1  0
 11 39  1  0
 12 40  1  6
 13 41  1  0
 13 42  1  0
 16 43  1  0
 17 44  1  0
 18 45  1  0
 19 46  1  0
 20 47  1  0
 22 48  1  0
 23 49  1  0
 25 50  1  0
 28 51  1  0
 29 52  1  0
M  END
>  <smiles>  (44) 
O=C(NCC(=O)N1C[C@@H](F)C[C@H]1COc1ccccc1)c1ccc2cc(Cl)ccc2n1

>  <score_type>  (44) 
oracle

>  <origin>  (44) 
autodockgpu

>  <m_score__min__energy>  (44) 
-8.5399999999999991

>  <m_primary>  (44) 
energy

>  <rmsd>  (44) 
2.366341394528345

>  <m_score__min__rmsd>  (44) 
2.366341394528345

>  <meeko>  (44) 
{"free_energy": -7.79, "intermolecular_energy": -9.88, "internal_energy": -2.71, "cluster_size": 11, "cluster_id": 4, "rank_in_cluster": 4}

>  <energy>  (44) 
-7.45

>  <cluster_rmsd>  (44) 
1.39

>  <cluster>  (44) 
5

$$$$

     RDKit          3D

 52 55  0  0  0  0  0  0  0  0999 V2000
  139.2920   71.9970  220.7240 O   0  0  0  0  0  0  0  0  0  0  0  0
  139.4340   72.4800  221.8800 C   0  0  0  0  0  0  0  0  0  0  0  0
  139.4130   73.8770  222.1510 N   0  0  0  0  0  0  0  0  0  0  0  0
  139.2190   74.8640  221.0660 C   0  0  0  0  0  0  0  0  0  0  0  0
  140.3210   74.7350  220.1250 C   0  0  0  0  0  0  0  0  0  0  0  0
  140.0530   74.1070  219.0270 O   0  0  0  0  0  0  0  0  0  0  0  0
  141.6340   75.1960  220.2390 N   0  0  0  0  0  0  0  0  0  0  0  0
  142.7030   74.3530  220.8340 C   0  0  0  0  0  0  0  0  0  0  0  0
  143.7670   74.5500  219.7720 C   0  0  1  0  0  0  0  0  0  0  0  0
  143.8290   73.4760  218.9150 F   0  0  0  0  0  0  0  0  0  0  0  0
  143.4100   75.8520  219.0340 C   0  0  0  0  0  0  0  0  0  0  0  0
  142.3380   76.4140  219.8930 C   0  0  1  0  0  0  0  0  0  0  0  0
  141.5230   77.5320  219.3920 C   0  0  0  0  0  0  0  0  0  0  0  0
  141.2700   78.5000  220.2910 O   0  0  0  0  0  0  0  0  0  0  0  0
  141.6420   79.1050  221.4110 C   0  0  0  0  0  0  0  0  0  0  0  0
  141.4610   78.3680  222.6090 C   0  0  0  0  0  0  0  0  0  0  0  0
  141.7940   78.8630  223.8330 C   0  0  0  0  0  0  0  0  0  0  0  0
  142.3230   80.1110  223.9270 C   0  0  0  0  0  0  0  0  0  0  0  0
  142.5280   80.8840  222.8150 C   0  0  0  0  0  0  0  0  0  0  0  0
  142.1790   80.3570  221.5910 C   0  0  0  0  0  0  0  0  0  0  0  0
  139.6310   71.5430  223.0080 C   0  0  0  0  0  0  0  0  0  0  0  0
  139.2840   70.2140  222.8830 C   0  0  0  0  0  0  0  0  0  0  0  0
  139.4570   69.3180  223.9210 C   0  0  0  0  0  0  0  0  0  0  0  0
  139.9980   69.7700  225.1260 C   0  0  0  0  0  0  0  0  0  0  0  0
  140.1680   68.8860  226.1460 C   0  0  0  0  0  0  0  0  0  0  0  0
  140.7110   69.3730  227.3370 C   0  0  0  0  0  0  0  0  0  0  0  0
  140.9520   68.2710  228.6880 Cl  0  0  0  0  0  0  0  0  0  0  0  0
  141.0620   70.7030  227.4690 C   0  0  0  0  0  0  0  0  0  0  0  0
  140.8760   71.5760  226.4100 C   0  0  0  0  0  0  0  0  0  0  0  0
  140.3370   71.1100  225.2190 C   0  0  0  0  0  0  0  0  0  0  0  0
  140.1530   71.9610  224.1820 N   0  0  0  0  0  0  0  0  0  0  0  0
  139.5410   74.1680  223.1420 H   0  0  0  0  0  0  0  0  0  0  0  0
  138.2665   74.6682  220.5517 H   0  0  0  0  0  0  0  0  0  0  0  0
  139.1942   75.8822  221.4815 H   0  0  0  0  0  0  0  0  0  0  0  0
  143.0254   74.7264  221.8172 H   0  0  0  0  0  0  0  0  0  0  0  0
  142.4257   73.3091  221.0426 H   0  0  0  0  0  0  0  0  0  0  0  0
  144.7669   74.6227  220.2246 H   0  0  0  0  0  0  0  0  0  0  0  0
  144.2746   76.5299  218.9799 H   0  0  0  0  0  0  0  0  0  0  0  0
  143.1037   75.6979  217.9888 H   0  0  0  0  0  0  0  0  0  0  0  0
  142.7348   76.9883  220.7432 H   0  0  0  0  0  0  0  0  0  0  0  0
  142.0530   77.9862  218.5419 H   0  0  0  0  0  0  0  0  0  0  0  0
  140.5473   77.1029  219.1203 H   0  0  0  0  0  0  0  0  0  0  0  0
  141.0345   77.3559  222.5470 H   0  0  0  0  0  0  0  0  0  0  0  0
  141.6361   78.2578  224.7379 H   0  0  0  0  0  0  0  0  0  0  0  0
  142.5922   80.5088  224.9166 H   0  0  0  0  0  0  0  0  0  0  0  0
  142.9576   81.8933  222.8967 H   0  0  0  0  0  0  0  0  0  0  0  0
  142.3409   80.9796  220.6987 H   0  0  0  0  0  0  0  0  0  0  0  0
  138.8587   69.8581  221.9330 H   0  0  0  0  0  0  0  0  0  0  0  0
  139.1721   68.2625  223.7993 H   0  0  0  0  0  0  0  0  0  0  0  0
  139.8884   67.8278  226.0368 H   0  0  0  0  0  0  0  0  0  0  0  0
  141.4889   71.0682  228.4147 H   0  0  0  0  0  0  0  0  0  0  0  0
  141.1546   72.6352  226.5125 H   0  0  0  0  0  0  0  0  0  0  0  0
  1  2  2  0
  2  3  1  0
  3  4  1  0
  4  5  1  0
  5  6  2  0
  5  7  1  0
  7  8  1  0
  8  9  1  0
  9 10  1  0
  9 11  1  0
 11 12  1  0
 12 13  1  0
 13 14  1  0
 14 15  1  0
 15 16  2  0
 16 17  1  0
 17 18  2  0
 18 19  1  0
 19 20  2  0
  2 21  1  0
 21 22  2  0
 22 23  1  0
 23 24  2  0
 24 25  1  0
 25 26  2  0
 26 27  1  0
 26 28  1  0
 28 29  2  0
 29 30  1  0
 30 31  2  0
 12  7  1  0
 20 15  1  0
 31 21  1  0
 30 24  1  0
  3 32  1  0
  4 33  1  0
  4 34  1  0
  8 35  1  0
  8 36  1  0
  9 37  1  1
 11 38  1  0
 11 39  1  0
 12 40  1  1
 13 41  1  0
 13 42  1  0
 16 43  1  0
 17 44  1  0
 18 45  1  0
 19 46  1  0
 20 47  1  0
 22 48  1  0
 23 49  1  0
 25 50  1  0
 28 51  1  0
 29 52  1  0
M  END
>  <smiles>  (45) 
O=C(NCC(=O)N1C[C@@H](F)C[C@H]1COc1ccccc1)c1ccc2cc(Cl)ccc2n1

>  <score_type>  (45) 
oracle

>  <origin>  (45) 
autodockgpu

>  <m_score__min__energy>  (45) 
-8.5399999999999991

>  <m_primary>  (45) 
energy

>  <rmsd>  (45) 
2.405665338958793

>  <m_score__min__rmsd>  (45) 
2.405665338958793

>  <meeko>  (45) 
{"free_energy": -8.35, "intermolecular_energy": -10.44, "internal_energy": -1.77, "cluster_size": 15, "cluster_id": 1, "rank_in_cluster": 3}

>  <energy>  (45) 
-7.37

>  <cluster_rmsd>  (45) 
1.05

>  <cluster>  (45) 
5

$$$$

     RDKit          3D

 52 55  0  0  0  0  0  0  0  0999 V2000
  136.8070   77.3000  222.6510 O   0  0  0  0  0  0  0  0  0  0  0  0
  137.0610   76.0900  222.8900 C   0  0  0  0  0  0  0  0  0  0  0  0
  138.2600   75.4460  222.4740 N   0  0  0  0  0  0  0  0  0  0  0  0
  139.2990   76.1800  221.7180 C   0  0  0  0  0  0  0  0  0  0  0  0
  140.4220   75.2830  221.4930 C   0  0  0  0  0  0  0  0  0  0  0  0
  140.3310   74.1180  222.0450 O   0  0  0  0  0  0  0  0  0  0  0  0
  141.5910   75.5020  220.7620 N   0  0  0  0  0  0  0  0  0  0  0  0
  142.7460   74.5720  220.8470 C   0  0  0  0  0  0  0  0  0  0  0  0
  143.0180   74.4080  219.3650 C   0  0  1  0  0  0  0  0  0  0  0  0
  142.5020   73.2270  218.8850 F   0  0  0  0  0  0  0  0  0  0  0  0
  142.3940   75.6310  218.6700 C   0  0  0  0  0  0  0  0  0  0  0  0
  142.0520   76.5030  219.8210 C   0  0  1  0  0  0  0  0  0  0  0  0
  141.1780   77.6680  219.6090 C   0  0  0  0  0  0  0  0  0  0  0  0
  141.4910   78.7550  220.3370 O   0  0  0  0  0  0  0  0  0  0  0  0
  141.7610   79.2520  221.5360 C   0  0  0  0  0  0  0  0  0  0  0  0
  141.4620   78.4160  222.6420 C   0  0  0  0  0  0  0  0  0  0  0  0
  141.6820   78.7960  223.9300 C   0  0  0  0  0  0  0  0  0  0  0  0
  142.2120   80.0220  224.1840 C   0  0  0  0  0  0  0  0  0  0  0  0
  142.5270   80.8850  223.1690 C   0  0  0  0  0  0  0  0  0  0  0  0
  142.2910   80.4740  221.8760 C   0  0  0  0  0  0  0  0  0  0  0  0
  136.0610   75.3030  223.6450 C   0  0  0  0  0  0  0  0  0  0  0  0
  135.8440   73.9750  223.3440 C   0  0  0  0  0  0  0  0  0  0  0  0
  134.9160   73.2160  224.0330 C   0  0  0  0  0  0  0  0  0  0  0  0
  134.1810   73.8110  225.0610 C   0  0  0  0  0  0  0  0  0  0  0  0
  133.2690   73.0630  225.7380 C   0  0  0  0  0  0  0  0  0  0  0  0
  132.5520   73.6900  226.7590 C   0  0  0  0  0  0  0  0  0  0  0  0
  131.3590   72.7670  227.6670 Cl  0  0  0  0  0  0  0  0  0  0  0  0
  132.7650   75.0200  227.0660 C   0  0  0  0  0  0  0  0  0  0  0  0
  133.7020   75.7530  226.3570 C   0  0  0  0  0  0  0  0  0  0  0  0
  134.4240   75.1470  225.3390 C   0  0  0  0  0  0  0  0  0  0  0  0
  135.3400   75.8590  224.6430 N   0  0  0  0  0  0  0  0  0  0  0  0
  138.3680   74.4410  222.7240 H   0  0  0  0  0  0  0  0  0  0  0  0
  138.8904   76.5133  220.7526 H   0  0  0  0  0  0  0  0  0  0  0  0
  139.6278   77.0625  222.2864 H   0  0  0  0  0  0  0  0  0  0  0  0
  143.5995   75.0197  221.3772 H   0  0  0  0  0  0  0  0  0  0  0  0
  142.5670   73.6405  221.4040 H   0  0  0  0  0  0  0  0  0  0  0  0
  144.0986   74.3582  219.1656 H   0  0  0  0  0  0  0  0  0  0  0  0
  143.1156   76.1202  217.9992 H   0  0  0  0  0  0  0  0  0  0  0  0
  141.5334   75.3849  218.0306 H   0  0  0  0  0  0  0  0  0  0  0  0
  142.9038   77.1115  220.1589 H   0  0  0  0  0  0  0  0  0  0  0  0
  141.2293   77.9437  218.5453 H   0  0  0  0  0  0  0  0  0  0  0  0
  140.1729   77.3605  219.9333 H   0  0  0  0  0  0  0  0  0  0  0  0
  141.0351   77.4204  222.4509 H   0  0  0  0  0  0  0  0  0  0  0  0
  141.4331   78.1169  224.7588 H   0  0  0  0  0  0  0  0  0  0  0  0
  142.3913   80.3265  225.2257 H   0  0  0  0  0  0  0  0  0  0  0  0
  142.9553   81.8760  223.3797 H   0  0  0  0  0  0  0  0  0  0  0  0
  142.5432   81.1692  221.0617 H   0  0  0  0  0  0  0  0  0  0  0  0
  136.4241   73.5073  222.5348 H   0  0  0  0  0  0  0  0  0  0  0  0
  134.7588   72.1583  223.7751 H   0  0  0  0  0  0  0  0  0  0  0  0
  133.1025   72.0042  225.4906 H   0  0  0  0  0  0  0  0  0  0  0  0
  132.1903   75.4968  227.8737 H   0  0  0  0  0  0  0  0  0  0  0  0
  133.8732   76.8120  226.6001 H   0  0  0  0  0  0  0  0  0  0  0  0
  1  2  2  0
  2  3  1  0
  3  4  1  0
  4  5  1  0
  5  6  2  0
  5  7  1  0
  7  8  1  0
  8  9  1  0
  9 10  1  0
  9 11  1  0
 11 12  1  0
 12 13  1  0
 13 14  1  0
 14 15  1  0
 15 16  2  0
 16 17  1  0
 17 18  2  0
 18 19  1  0
 19 20  2  0
  2 21  1  0
 21 22  2  0
 22 23  1  0
 23 24  2  0
 24 25  1  0
 25 26  2  0
 26 27  1  0
 26 28  1  0
 28 29  2  0
 29 30  1  0
 30 31  2  0
 12  7  1  0
 20 15  1  0
 31 21  1  0
 30 24  1  0
  3 32  1  0
  4 33  1  0
  4 34  1  0
  8 35  1  0
  8 36  1  0
  9 37  1  1
 11 38  1  0
 11 39  1  0
 12 40  1  1
 13 41  1  0
 13 42  1  0
 16 43  1  0
 17 44  1  0
 18 45  1  0
 19 46  1  0
 20 47  1  0
 22 48  1  0
 23 49  1  0
 25 50  1  0
 28 51  1  0
 29 52  1  0
M  END
>  <smiles>  (46) 
O=C(NCC(=O)N1C[C@@H](F)C[C@H]1COc1ccccc1)c1ccc2cc(Cl)ccc2n1

>  <score_type>  (46) 
oracle

>  <origin>  (46) 
autodockgpu

>  <m_score__min__energy>  (46) 
-8.5399999999999991

>  <m_primary>  (46) 
energy

>  <rmsd>  (46) 
5.597514624628441

>  <m_score__min__rmsd>  (46) 
5.597514624628441

>  <meeko>  (46) 
{"free_energy": -7.54, "intermolecular_energy": -9.63, "internal_energy": -2.01, "cluster_size": 1, "cluster_id": 6, "rank_in_cluster": 1}

>  <energy>  (46) 
-7.31

>  <cluster_rmsd>  (46) 
1.56

>  <cluster>  (46) 
5

$$$$

     RDKit          3D

 52 55  0  0  0  0  0  0  0  0999 V2000
  139.2760   71.8730  220.7450 O   0  0  0  0  0  0  0  0  0  0  0  0
  139.4290   72.3740  221.8910 C   0  0  0  0  0  0  0  0  0  0  0  0
  139.4370   73.7760  222.1360 N   0  0  0  0  0  0  0  0  0  0  0  0
  139.2610   74.7460  221.0330 C   0  0  0  0  0  0  0  0  0  0  0  0
  139.9530   75.9760  221.3890 C   0  0  0  0  0  0  0  0  0  0  0  0
  140.5050   75.9930  222.5580 O   0  0  0  0  0  0  0  0  0  0  0  0
  140.1060   77.1470  220.6440 N   0  0  0  0  0  0  0  0  0  0  0  0
  138.9470   78.0170  220.3190 C   0  0  0  0  0  0  0  0  0  0  0  0
  139.5480   79.3530  220.7100 C   0  0  1  0  0  0  0  0  0  0  0  0
  139.1090   79.7620  221.9480 F   0  0  0  0  0  0  0  0  0  0  0  0
  141.0750   79.1700  220.6740 C   0  0  0  0  0  0  0  0  0  0  0  0
  141.2160   77.8430  220.0260 C   0  0  1  0  0  0  0  0  0  0  0  0
  142.5210   77.1630  220.0480 C   0  0  0  0  0  0  0  0  0  0  0  0
  142.4710   75.8270  219.9040 O   0  0  0  0  0  0  0  0  0  0  0  0
  143.0010   74.6530  220.2170 C   0  0  0  0  0  0  0  0  0  0  0  0
  144.4170   74.6020  220.2760 C   0  0  0  0  0  0  0  0  0  0  0  0
  145.0980   73.4630  220.5810 C   0  0  0  0  0  0  0  0  0  0  0  0
  144.4090   72.3220  220.8440 C   0  0  0  0  0  0  0  0  0  0  0  0
  143.0410   72.2920  220.8070 C   0  0  0  0  0  0  0  0  0  0  0  0
  142.3790   73.4590  220.4940 C   0  0  0  0  0  0  0  0  0  0  0  0
  139.6080   71.4540  223.0370 C   0  0  0  0  0  0  0  0  0  0  0  0
  139.2180   70.1350  222.9420 C   0  0  0  0  0  0  0  0  0  0  0  0
  139.3740   69.2550  223.9960 C   0  0  0  0  0  0  0  0  0  0  0  0
  139.9420   69.7140  225.1870 C   0  0  0  0  0  0  0  0  0  0  0  0
  140.0940   68.8460  226.2230 C   0  0  0  0  0  0  0  0  0  0  0  0
  140.6650   69.3390  227.3980 C   0  0  0  0  0  0  0  0  0  0  0  0
  140.8850   68.2570  228.7690 Cl  0  0  0  0  0  0  0  0  0  0  0  0
  141.0580   70.6600  227.4990 C   0  0  0  0  0  0  0  0  0  0  0  0
  140.8890   71.5170  226.4250 C   0  0  0  0  0  0  0  0  0  0  0  0
  140.3240   71.0440  225.2490 C   0  0  0  0  0  0  0  0  0  0  0  0
  140.1560   71.8790  224.1970 N   0  0  0  0  0  0  0  0  0  0  0  0
  139.5720   74.0820  223.1220 H   0  0  0  0  0  0  0  0  0  0  0  0
  139.6865   74.3353  220.1055 H   0  0  0  0  0  0  0  0  0  0  0  0
  138.1914   74.9466  220.8728 H   0  0  0  0  0  0  0  0  0  0  0  0
  138.6861   77.9771  219.2511 H   0  0  0  0  0  0  0  0  0  0  0  0
  138.0012   77.7562  220.8164 H   0  0  0  0  0  0  0  0  0  0  0  0
  139.2358   80.1447  220.0131 H   0  0  0  0  0  0  0  0  0  0  0  0
  141.5573   79.9584  220.0775 H   0  0  0  0  0  0  0  0  0  0  0  0
  141.5506   79.2309  221.6640 H   0  0  0  0  0  0  0  0  0  0  0  0
  141.1842   77.9030  218.9281 H   0  0  0  0  0  0  0  0  0  0  0  0
  143.1317   77.5713  219.2293 H   0  0  0  0  0  0  0  0  0  0  0  0
  142.9456   77.3477  221.0458 H   0  0  0  0  0  0  0  0  0  0  0  0
  144.9878   75.5188  220.0671 H   0  0  0  0  0  0  0  0  0  0  0  0
  146.1975   73.4667  220.6142 H   0  0  0  0  0  0  0  0  0  0  0  0
  144.9616   71.4037  221.0917 H   0  0  0  0  0  0  0  0  0  0  0  0
  142.4878   71.3655  221.0204 H   0  0  0  0  0  0  0  0  0  0  0  0
  141.2797   73.4335  220.4638 H   0  0  0  0  0  0  0  0  0  0  0  0
  138.7715   69.7741  222.0037 H   0  0  0  0  0  0  0  0  0  0  0  0
  139.0551   68.2068  223.8985 H   0  0  0  0  0  0  0  0  0  0  0  0
  139.7790   67.7955  226.1385 H   0  0  0  0  0  0  0  0  0  0  0  0
  141.5053   71.0307  228.4331 H   0  0  0  0  0  0  0  0  0  0  0  0
  141.2014   72.5688  226.5035 H   0  0  0  0  0  0  0  0  0  0  0  0
  1  2  2  0
  2  3  1  0
  3  4  1  0
  4  5  1  0
  5  6  2  0
  5  7  1  0
  7  8  1  0
  8  9  1  0
  9 10  1  0
  9 11  1  0
 11 12  1  0
 12 13  1  0
 13 14  1  0
 14 15  1  0
 15 16  2  0
 16 17  1  0
 17 18  2  0
 18 19  1  0
 19 20  2  0
  2 21  1  0
 21 22  2  0
 22 23  1  0
 23 24  2  0
 24 25  1  0
 25 26  2  0
 26 27  1  0
 26 28  1  0
 28 29  2  0
 29 30  1  0
 30 31  2  0
 12  7  1  0
 20 15  1  0
 31 21  1  0
 30 24  1  0
  3 32  1  0
  4 33  1  0
  4 34  1  0
  8 35  1  0
  8 36  1  0
  9 37  1  6
 11 38  1  0
 11 39  1  0
 12 40  1  6
 13 41  1  0
 13 42  1  0
 16 43  1  0
 17 44  1  0
 18 45  1  0
 19 46  1  0
 20 47  1  0
 22 48  1  0
 23 49  1  0
 25 50  1  0
 28 51  1  0
 29 52  1  0
M  END
>  <smiles>  (47) 
O=C(NCC(=O)N1C[C@@H](F)C[C@H]1COc1ccccc1)c1ccc2cc(Cl)ccc2n1

>  <score_type>  (47) 
oracle

>  <origin>  (47) 
autodockgpu

>  <m_score__min__energy>  (47) 
-8.5399999999999991

>  <m_primary>  (47) 
energy

>  <rmsd>  (47) 
2.157249255537857

>  <m_score__min__rmsd>  (47) 
2.157249255537857

>  <meeko>  (47) 
{"free_energy": -7.58, "intermolecular_energy": -9.67, "internal_energy": -2.74, "cluster_size": 11, "cluster_id": 4, "rank_in_cluster": 8}

>  <energy>  (47) 
-7.54

>  <cluster_rmsd>  (47) 
0.0

>  <cluster>  (47) 
6

$$$$

     RDKit          3D

 52 55  0  0  0  0  0  0  0  0999 V2000
  138.1850   70.6350  221.0970 O   0  0  0  0  0  0  0  0  0  0  0  0
  138.2970   71.2490  222.1920 C   0  0  0  0  0  0  0  0  0  0  0  0
  137.9720   72.6250  222.3530 N   0  0  0  0  0  0  0  0  0  0  0  0
  137.4740   73.4310  221.2160 C   0  0  0  0  0  0  0  0  0  0  0  0
  138.5560   74.2830  220.7480 C   0  0  0  0  0  0  0  0  0  0  0  0
  138.2460   75.1260  219.8180 O   0  0  0  0  0  0  0  0  0  0  0  0
  139.8880   74.3220  221.1630 N   0  0  0  0  0  0  0  0  0  0  0  0
  140.7650   73.1270  221.0710 C   0  0  0  0  0  0  0  0  0  0  0  0
  141.9720   73.7780  220.4250 C   0  0  1  0  0  0  0  0  0  0  0  0
  142.0170   73.5290  219.0730 F   0  0  0  0  0  0  0  0  0  0  0  0
  141.8690   75.2830  220.7280 C   0  0  0  0  0  0  0  0  0  0  0  0
  140.7700   75.3260  221.7240 C   0  0  1  0  0  0  0  0  0  0  0  0
  140.1640   76.6210  222.0740 C   0  0  0  0  0  0  0  0  0  0  0  0
  140.9520   77.4460  222.7850 O   0  0  0  0  0  0  0  0  0  0  0  0
  141.3130   78.6960  223.0400 C   0  0  0  0  0  0  0  0  0  0  0  0
  140.2590   79.6170  223.2690 C   0  0  0  0  0  0  0  0  0  0  0  0
  140.4800   80.9330  223.5390 C   0  0  0  0  0  0  0  0  0  0  0  0
  141.7550   81.3990  223.5960 C   0  0  0  0  0  0  0  0  0  0  0  0
  142.8250   80.5720  223.3860 C   0  0  0  0  0  0  0  0  0  0  0  0
  142.5710   79.2450  223.1130 C   0  0  0  0  0  0  0  0  0  0  0  0
  138.7890   70.4960  223.3670 C   0  0  0  0  0  0  0  0  0  0  0  0
  138.6600   69.1250  223.4240 C   0  0  0  0  0  0  0  0  0  0  0  0
  139.1110   68.3970  224.5090 C   0  0  0  0  0  0  0  0  0  0  0  0
  139.7140   69.0690  225.5740 C   0  0  0  0  0  0  0  0  0  0  0  0
  140.1580   68.3510  226.6410 C   0  0  0  0  0  0  0  0  0  0  0  0
  140.7550   69.0560  227.6880 C   0  0  0  0  0  0  0  0  0  0  0  0
  141.3470   68.1740  229.0930 Cl  0  0  0  0  0  0  0  0  0  0  0  0
  140.8880   70.4300  227.6380 C   0  0  0  0  0  0  0  0  0  0  0  0
  140.4260   71.1310  226.5360 C   0  0  0  0  0  0  0  0  0  0  0  0
  139.8300   70.4470  225.4860 C   0  0  0  0  0  0  0  0  0  0  0  0
  139.3760   71.1280  224.4080 N   0  0  0  0  0  0  0  0  0  0  0  0
  138.1030   73.0340  223.3010 H   0  0  0  0  0  0  0  0  0  0  0  0
  137.1475   72.7652  220.4035 H   0  0  0  0  0  0  0  0  0  0  0  0
  136.6195   74.0461  221.5346 H   0  0  0  0  0  0  0  0  0  0  0  0
  141.0005   72.7093  222.0610 H   0  0  0  0  0  0  0  0  0  0  0  0
  140.3423   72.2666  220.5315 H   0  0  0  0  0  0  0  0  0  0  0  0
  142.9071   73.3640  220.8302 H   0  0  0  0  0  0  0  0  0  0  0  0
  142.8073   75.6699  221.1521 H   0  0  0  0  0  0  0  0  0  0  0  0
  141.6833   75.9017  219.8376 H   0  0  0  0  0  0  0  0  0  0  0  0
  141.1190   75.1287  222.7483 H   0  0  0  0  0  0  0  0  0  0  0  0
  139.8902   77.1327  221.1396 H   0  0  0  0  0  0  0  0  0  0  0  0
  139.3015   76.3917  222.7170 H   0  0  0  0  0  0  0  0  0  0  0  0
  139.2216   79.2535  223.2268 H   0  0  0  0  0  0  0  0  0  0  0  0
  139.6329   81.6137  223.7097 H   0  0  0  0  0  0  0  0  0  0  0  0
  141.9308   82.4625  223.8153 H   0  0  0  0  0  0  0  0  0  0  0  0
  143.8553   80.9542  223.4336 H   0  0  0  0  0  0  0  0  0  0  0  0
  143.4317   78.5817  222.9423 H   0  0  0  0  0  0  0  0  0  0  0  0
  138.1857   68.5963  222.5840 H   0  0  0  0  0  0  0  0  0  0  0  0
  138.9964   67.3033  224.5331 H   0  0  0  0  0  0  0  0  0  0  0  0
  140.0507   67.2568  226.6774 H   0  0  0  0  0  0  0  0  0  0  0  0
  141.3607   70.9676  228.4732 H   0  0  0  0  0  0  0  0  0  0  0  0
  140.5312   72.2251  226.4935 H   0  0  0  0  0  0  0  0  0  0  0  0
  1  2  2  0
  2  3  1  0
  3  4  1  0
  4  5  1  0
  5  6  2  0
  5  7  1  0
  7  8  1  0
  8  9  1  0
  9 10  1  0
  9 11  1  0
 11 12  1  0
 12 13  1  0
 13 14  1  0
 14 15  1  0
 15 16  2  0
 16 17  1  0
 17 18  2  0
 18 19  1  0
 19 20  2  0
  2 21  1  0
 21 22  2  0
 22 23  1  0
 23 24  2  0
 24 25  1  0
 25 26  2  0
 26 27  1  0
 26 28  1  0
 28 29  2  0
 29 30  1  0
 30 31  2  0
 12  7  1  0
 20 15  1  0
 31 21  1  0
 30 24  1  0
  3 32  1  0
  4 33  1  0
  4 34  1  0
  8 35  1  0
  8 36  1  0
  9 37  1  1
 11 38  1  0
 11 39  1  0
 12 40  1  1
 13 41  1  0
 13 42  1  0
 16 43  1  0
 17 44  1  0
 18 45  1  0
 19 46  1  0
 20 47  1  0
 22 48  1  0
 23 49  1  0
 25 50  1  0
 28 51  1  0
 29 52  1  0
M  END
>  <smiles>  (48) 
O=C(NCC(=O)N1C[C@@H](F)C[C@H]1COc1ccccc1)c1ccc2cc(Cl)ccc2n1

>  <score_type>  (48) 
oracle

>  <origin>  (48) 
autodockgpu

>  <m_score__min__energy>  (48) 
-8.5399999999999991

>  <m_primary>  (48) 
energy

>  <rmsd>  (48) 
2.1526027699691923

>  <m_score__min__rmsd>  (48) 
2.1526027699691923

>  <meeko>  (48) 
{"free_energy": -8.09, "intermolecular_energy": -10.18, "internal_energy": -1.59, "cluster_size": 15, "cluster_id": 1, "rank_in_cluster": 8}

>  <energy>  (48) 
-7.3

>  <cluster_rmsd>  (48) 
0.0

>  <cluster>  (48) 
7

$$$$

     RDKit          3D

 52 55  0  0  0  0  0  0  0  0999 V2000
  138.8330   71.6790  220.7730 O   0  0  0  0  0  0  0  0  0  0  0  0
  139.1050   72.2010  221.8870 C   0  0  0  0  0  0  0  0  0  0  0  0
  139.1810   73.6070  222.0930 N   0  0  0  0  0  0  0  0  0  0  0  0
  138.9390   74.5570  220.9850 C   0  0  0  0  0  0  0  0  0  0  0  0
  139.3570   75.8820  221.4160 C   0  0  0  0  0  0  0  0  0  0  0  0
  140.2330   75.9140  222.3660 O   0  0  0  0  0  0  0  0  0  0  0  0
  138.9450   77.1310  220.9480 N   0  0  0  0  0  0  0  0  0  0  0  0
  139.0430   77.4910  219.5100 C   0  0  0  0  0  0  0  0  0  0  0  0
  137.6480   78.0530  219.3190 C   0  0  1  0  0  0  0  0  0  0  0  0
  136.8150   77.1430  218.7130 F   0  0  0  0  0  0  0  0  0  0  0  0
  137.1440   78.4500  220.7180 C   0  0  0  0  0  0  0  0  0  0  0  0
  138.3730   78.3220  221.5400 C   0  0  1  0  0  0  0  0  0  0  0  0
  138.2650   78.3480  223.0080 C   0  0  0  0  0  0  0  0  0  0  0  0
  139.2490   79.0110  223.6410 O   0  0  0  0  0  0  0  0  0  0  0  0
  140.4390   79.5890  223.5500 C   0  0  0  0  0  0  0  0  0  0  0  0
  141.5030   78.7650  223.1040 C   0  0  0  0  0  0  0  0  0  0  0  0
  142.7780   79.2210  222.9670 C   0  0  0  0  0  0  0  0  0  0  0  0
  143.0590   80.5170  223.2640 C   0  0  0  0  0  0  0  0  0  0  0  0
  142.0860   81.3750  223.7010 C   0  0  0  0  0  0  0  0  0  0  0  0
  140.8050   80.8840  223.8320 C   0  0  0  0  0  0  0  0  0  0  0  0
  139.3550   71.3030  223.0360 C   0  0  0  0  0  0  0  0  0  0  0  0
  138.9670   69.9800  222.9880 C   0  0  0  0  0  0  0  0  0  0  0  0
  139.1890   69.1200  224.0470 C   0  0  0  0  0  0  0  0  0  0  0  0
  139.8230   69.6030  225.1930 C   0  0  0  0  0  0  0  0  0  0  0  0
  140.0400   68.7540  226.2340 C   0  0  0  0  0  0  0  0  0  0  0  0
  140.6770   69.2700  227.3650 C   0  0  0  0  0  0  0  0  0  0  0  0
  140.9820   68.2140  228.7390 Cl  0  0  0  0  0  0  0  0  0  0  0  0
  141.0680   70.5940  227.4190 C   0  0  0  0  0  0  0  0  0  0  0  0
  140.8320   71.4310  226.3410 C   0  0  0  0  0  0  0  0  0  0  0  0
  140.2010   70.9350  225.2100 C   0  0  0  0  0  0  0  0  0  0  0  0
  139.9670   71.7500  224.1540 N   0  0  0  0  0  0  0  0  0  0  0  0
  139.4140   73.9310  223.0540 H   0  0  0  0  0  0  0  0  0  0  0  0
  139.5200   74.2532  220.1017 H   0  0  0  0  0  0  0  0  0  0  0  0
  137.8712   74.5651  220.7208 H   0  0  0  0  0  0  0  0  0  0  0  0
  139.8219   78.2452  219.3244 H   0  0  0  0  0  0  0  0  0  0  0  0
  139.3230   76.6713  218.8320 H   0  0  0  0  0  0  0  0  0  0  0  0
  137.6630   78.9259  218.6498 H   0  0  0  0  0  0  0  0  0  0  0  0
  136.7634   79.4820  220.7271 H   0  0  0  0  0  0  0  0  0  0  0  0
  136.3057   77.8349  221.0771 H   0  0  0  0  0  0  0  0  0  0  0  0
  139.0061   79.2205  221.4970 H   0  0  0  0  0  0  0  0  0  0  0  0
  137.3091   78.8246  223.2709 H   0  0  0  0  0  0  0  0  0  0  0  0
  138.3386   77.3016  223.3390 H   0  0  0  0  0  0  0  0  0  0  0  0
  141.2893   77.7142  222.8587 H   0  0  0  0  0  0  0  0  0  0  0  0
  143.5741   78.5464  222.6189 H   0  0  0  0  0  0  0  0  0  0  0  0
  144.0897   80.8842  223.1509 H   0  0  0  0  0  0  0  0  0  0  0  0
  142.3192   82.4231  223.9400 H   0  0  0  0  0  0  0  0  0  0  0  0
  140.0240   81.5734  224.1854 H   0  0  0  0  0  0  0  0  0  0  0  0
  138.4684   69.6000  222.0842 H   0  0  0  0  0  0  0  0  0  0  0  0
  138.8703   68.0689  223.9875 H   0  0  0  0  0  0  0  0  0  0  0  0
  139.7256   67.7009  226.1867 H   0  0  0  0  0  0  0  0  0  0  0  0
  141.5670   70.9836  228.3186 H   0  0  0  0  0  0  0  0  0  0  0  0
  141.1439   72.4851  226.3818 H   0  0  0  0  0  0  0  0  0  0  0  0
  1  2  2  0
  2  3  1  0
  3  4  1  0
  4  5  1  0
  5  6  2  0
  5  7  1  0
  7  8  1  0
  8  9  1  0
  9 10  1  0
  9 11  1  0
 11 12  1  0
 12 13  1  0
 13 14  1  0
 14 15  1  0
 15 16  2  0
 16 17  1  0
 17 18  2  0
 18 19  1  0
 19 20  2  0
  2 21  1  0
 21 22  2  0
 22 23  1  0
 23 24  2  0
 24 25  1  0
 25 26  2  0
 26 27  1  0
 26 28  1  0
 28 29  2  0
 29 30  1  0
 30 31  2  0
 12  7  1  0
 20 15  1  0
 31 21  1  0
 30 24  1  0
  3 32  1  0
  4 33  1  0
  4 34  1  0
  8 35  1  0
  8 36  1  0
  9 37  1  6
 11 38  1  0
 11 39  1  0
 12 40  1  6
 13 41  1  0
 13 42  1  0
 16 43  1  0
 17 44  1  0
 18 45  1  0
 19 46  1  0
 20 47  1  0
 22 48  1  0
 23 49  1  0
 25 50  1  0
 28 51  1  0
 29 52  1  0
M  END
>  <smiles>  (49) 
O=C(NCC(=O)N1C[C@@H](F)C[C@H]1COc1ccccc1)c1ccc2cc(Cl)ccc2n1

>  <score_type>  (49) 
oracle

>  <origin>  (49) 
autodockgpu

>  <m_score__min__energy>  (49) 
-8.5399999999999991

>  <m_primary>  (49) 
energy

>  <rmsd>  (49) 
2.3635651431275773

>  <m_score__min__rmsd>  (49) 
2.3635651431275773

>  <meeko>  (49) 
{"free_energy": -8.0, "intermolecular_energy": -10.09, "internal_energy": -2.24, "cluster_size": 8, "cluster_id": 2, "rank_in_cluster": 1}

>  <energy>  (49) 
-6.59

>  <cluster_rmsd>  (49) 
0.0

>  <cluster>  (49) 
8

$$$$

     RDKit          3D

 52 55  0  0  0  0  0  0  0  0999 V2000
  138.5240   71.6220  221.1380 O   0  0  0  0  0  0  0  0  0  0  0  0
  139.0870   72.1120  222.1540 C   0  0  0  0  0  0  0  0  0  0  0  0
  139.4610   73.4810  222.2570 N   0  0  0  0  0  0  0  0  0  0  0  0
  139.2050   74.4280  221.1500 C   0  0  0  0  0  0  0  0  0  0  0  0
  140.1500   75.5290  221.2610 C   0  0  0  0  0  0  0  0  0  0  0  0
  141.0760   75.3880  222.1510 O   0  0  0  0  0  0  0  0  0  0  0  0
  140.1990   76.7230  220.5390 N   0  0  0  0  0  0  0  0  0  0  0  0
  139.5600   77.9640  221.0460 C   0  0  0  0  0  0  0  0  0  0  0  0
  140.7110   78.9240  220.8200 C   0  0  1  0  0  0  0  0  0  0  0  0
  141.3980   79.1730  221.9850 F   0  0  0  0  0  0  0  0  0  0  0  0
  141.6110   78.2800  219.7510 C   0  0  0  0  0  0  0  0  0  0  0  0
  140.7740   77.1490  219.2790 C   0  0  1  0  0  0  0  0  0  0  0  0
  141.3790   76.1030  218.4380 C   0  0  0  0  0  0  0  0  0  0  0  0
  142.5400   75.6040  218.8970 O   0  0  0  0  0  0  0  0  0  0  0  0
  143.1490   74.6270  219.5550 C   0  0  0  0  0  0  0  0  0  0  0  0
  144.4190   74.9390  220.1040 C   0  0  0  0  0  0  0  0  0  0  0  0
  145.1610   74.0350  220.8010 C   0  0  0  0  0  0  0  0  0  0  0  0
  144.6790   72.7780  220.9870 C   0  0  0  0  0  0  0  0  0  0  0  0
  143.4610   72.4010  220.4880 C   0  0  0  0  0  0  0  0  0  0  0  0
  142.7340   73.3370  219.7860 C   0  0  0  0  0  0  0  0  0  0  0  0
  139.3670   71.2140  223.2970 C   0  0  0  0  0  0  0  0  0  0  0  0
  139.0490   69.8740  223.2290 C   0  0  0  0  0  0  0  0  0  0  0  0
  139.3000   69.0130  224.2810 C   0  0  0  0  0  0  0  0  0  0  0  0
  139.8930   69.5150  225.4420 C   0  0  0  0  0  0  0  0  0  0  0  0
  140.1400   68.6660  226.4750 C   0  0  0  0  0  0  0  0  0  0  0  0
  140.7340   69.2010  227.6210 C   0  0  0  0  0  0  0  0  0  0  0  0
  141.0750   68.1460  228.9880 Cl  0  0  0  0  0  0  0  0  0  0  0  0
  141.0560   70.5430  227.6950 C   0  0  0  0  0  0  0  0  0  0  0  0
  140.7910   71.3790  226.6240 C   0  0  0  0  0  0  0  0  0  0  0  0
  140.2020   70.8650  225.4780 C   0  0  0  0  0  0  0  0  0  0  0  0
  139.9410   71.6790  224.4290 N   0  0  0  0  0  0  0  0  0  0  0  0
  139.9210   73.7800  223.1410 H   0  0  0  0  0  0  0  0  0  0  0  0
  139.3408   73.9174  220.1852 H   0  0  0  0  0  0  0  0  0  0  0  0
  138.1740   74.8071  221.2071 H   0  0  0  0  0  0  0  0  0  0  0  0
  138.6703   78.2399  220.4609 H   0  0  0  0  0  0  0  0  0  0  0  0
  139.1764   77.9151  222.0758 H   0  0  0  0  0  0  0  0  0  0  0  0
  140.3450   79.9043  220.4806 H   0  0  0  0  0  0  0  0  0  0  0  0
  141.8274   78.9844  218.9343 H   0  0  0  0  0  0  0  0  0  0  0  0
  142.5969   77.9726  220.1297 H   0  0  0  0  0  0  0  0  0  0  0  0
  140.0506   77.4523  218.5078 H   0  0  0  0  0  0  0  0  0  0  0  0
  140.6606   75.2741  218.3553 H   0  0  0  0  0  0  0  0  0  0  0  0
  141.6098   76.5798  217.4740 H   0  0  0  0  0  0  0  0  0  0  0  0
  144.8209   75.9529  219.9608 H   0  0  0  0  0  0  0  0  0  0  0  0
  146.1418   74.3195  221.2099 H   0  0  0  0  0  0  0  0  0  0  0  0
  145.2797   72.0485  221.5500 H   0  0  0  0  0  0  0  0  0  0  0  0
  143.0751   71.3826  220.6429 H   0  0  0  0  0  0  0  0  0  0  0  0
  141.7567   73.0320  219.3836 H   0  0  0  0  0  0  0  0  0  0  0  0
  138.5834   69.4798  222.3137 H   0  0  0  0  0  0  0  0  0  0  0  0
  139.0365   67.9477  224.2050 H   0  0  0  0  0  0  0  0  0  0  0  0
  139.8820   67.5986  226.4109 H   0  0  0  0  0  0  0  0  0  0  0  0
  141.5230   70.9469  228.6053 H   0  0  0  0  0  0  0  0  0  0  0  0
  141.0466   72.4473  226.6814 H   0  0  0  0  0  0  0  0  0  0  0  0
  1  2  2  0
  2  3  1  0
  3  4  1  0
  4  5  1  0
  5  6  2  0
  5  7  1  0
  7  8  1  0
  8  9  1  0
  9 10  1  0
  9 11  1  0
 11 12  1  0
 12 13  1  0
 13 14  1  0
 14 15  1  0
 15 16  2  0
 16 17  1  0
 17 18  2  0
 18 19  1  0
 19 20  2  0
  2 21  1  0
 21 22  2  0
 22 23  1  0
 23 24  2  0
 24 25  1  0
 25 26  2  0
 26 27  1  0
 26 28  1  0
 28 29  2  0
 29 30  1  0
 30 31  2  0
 12  7  1  0
 20 15  1  0
 31 21  1  0
 30 24  1  0
  3 32  1  0
  4 33  1  0
  4 34  1  0
  8 35  1  0
  8 36  1  0
  9 37  1  6
 11 38  1  0
 11 39  1  0
 12 40  1  6
 13 41  1  0
 13 42  1  0
 16 43  1  0
 17 44  1  0
 18 45  1  0
 19 46  1  0
 20 47  1  0
 22 48  1  0
 23 49  1  0
 25 50  1  0
 28 51  1  0
 29 52  1  0
M  END
>  <smiles>  (50) 
O=C(NCC(=O)N1C[C@@H](F)C[C@H]1COc1ccccc1)c1ccc2cc(Cl)ccc2n1

>  <score_type>  (50) 
oracle

>  <origin>  (50) 
autodockgpu

>  <m_score__min__energy>  (50) 
-8.5399999999999991

>  <m_primary>  (50) 
energy

>  <rmsd>  (50) 
2.083756564753796

>  <m_score__min__rmsd>  (50) 
2.083756564753796

>  <meeko>  (50) 
{"free_energy": -7.3, "intermolecular_energy": -9.39, "internal_energy": -2.71, "cluster_size": 11, "cluster_id": 4, "rank_in_cluster": 10}

>  <energy>  (50) 
-6.06

>  <cluster_rmsd>  (50) 
0.0

>  <cluster>  (50) 
9

$$$$
