
     RDKit          3D

 45 48  0  0  0  0  0  0  0  0999 V2000
  138.9190   75.2460  221.5320 O   0  0  0  0  0  0  0  0  0  0  0  0
  140.0450   75.7030  221.8350 C   0  0  0  0  0  0  0  0  0  0  0  0
  141.1560   74.8100  221.6650 N   0  0  0  0  0  0  0  0  0  0  0  0
  141.0870   73.4910  221.1950 C   0  0  0  0  0  0  0  0  0  0  0  0
  142.0560   72.8940  220.3190 C   0  0  0  0  0  0  0  0  0  0  0  0
  141.5470   71.9430  219.5580 O   0  0  0  0  0  0  0  0  0  0  0  0
  143.4160   73.1060  220.1060 N   0  0  0  0  0  0  0  0  0  0  0  0
  144.6160   72.3150  220.4440 C   0  0  0  0  0  0  0  0  0  0  0  0
  145.4000   73.3390  221.2270 C   0  0  0  0  0  0  0  0  0  0  0  0
  145.1590   74.6180  220.4770 C   0  0  0  0  0  0  0  0  0  0  0  0
  144.1000   74.2630  219.4690 C   0  0  2  0  0  0  0  0  0  0  0  0
  143.2450   75.4180  219.2170 C   0  0  0  0  0  0  0  0  0  0  0  0
  142.7540   75.7760  217.9930 N   0  0  0  0  0  0  0  0  0  0  0  0
  141.9710   76.8600  218.1020 C   0  0  0  0  0  0  0  0  0  0  0  0
  141.9550   77.2110  219.4310 C   0  0  0  0  0  0  0  0  0  0  0  0
  142.7280   76.3330  220.0900 N   0  0  0  0  0  0  0  0  0  0  0  0
  140.2310   77.0730  222.3360 C   0  0  0  0  0  0  0  0  0  0  0  0
  139.1040   77.7710  222.6930 C   0  0  0  0  0  0  0  0  0  0  0  0
  139.2730   79.0740  223.1700 C   0  0  0  0  0  0  0  0  0  0  0  0
  140.5490   79.6330  223.2750 C   0  0  0  0  0  0  0  0  0  0  0  0
  140.7530   80.9110  223.7400 C   0  0  0  0  0  0  0  0  0  0  0  0
  142.0340   81.4580  223.8410 C   0  0  0  0  0  0  0  0  0  0  0  0
  143.1140   80.6800  223.4580 C   0  0  0  0  0  0  0  0  0  0  0  0
  142.9240   79.3980  222.9910 C   0  0  0  0  0  0  0  0  0  0  0  0
  141.6490   78.8840  222.9020 C   0  0  0  0  0  0  0  0  0  0  0  0
  141.4480   77.6340  222.4470 N   0  0  0  0  0  0  0  0  0  0  0  0
  142.0920   75.2530  221.9410 H   0  0  0  0  0  0  0  0  0  0  0  0
  141.0676   72.8562  222.0932 H   0  0  0  0  0  0  0  0  0  0  0  0
  140.2157   73.5550  220.5266 H   0  0  0  0  0  0  0  0  0  0  0  0
  144.3656   71.4372  221.0579 H   0  0  0  0  0  0  0  0  0  0  0  0
  145.1470   71.8904  219.5793 H   0  0  0  0  0  0  0  0  0  0  0  0
  145.0278   73.4131  222.2595 H   0  0  0  0  0  0  0  0  0  0  0  0
  146.4676   73.0873  221.3105 H   0  0  0  0  0  0  0  0  0  0  0  0
  144.8023   75.4066  221.1558 H   0  0  0  0  0  0  0  0  0  0  0  0
  146.0735   75.0084  220.0066 H   0  0  0  0  0  0  0  0  0  0  0  0
  144.4697   73.9931  218.4687 H   0  0  0  0  0  0  0  0  0  0  0  0
  141.4424   77.3707  217.2836 H   0  0  0  0  0  0  0  0  0  0  0  0
  141.4086   78.0568  219.8738 H   0  0  0  0  0  0  0  0  0  0  0  0
  142.8900   76.3610  221.1330 H   0  0  0  0  0  0  0  0  0  0  0  0
  138.1039   77.3211  222.6068 H   0  0  0  0  0  0  0  0  0  0  0  0
  138.3933   79.6646  223.4654 H   0  0  0  0  0  0  0  0  0  0  0  0
  139.8857   81.5175  224.0399 H   0  0  0  0  0  0  0  0  0  0  0  0
  142.1816   82.4817  224.2156 H   0  0  0  0  0  0  0  0  0  0  0  0
  144.1326   81.0895  223.5273 H   0  0  0  0  0  0  0  0  0  0  0  0
  143.7876   78.7867  222.6901 H   0  0  0  0  0  0  0  0  0  0  0  0
  1  2  2  0
  2  3  1  0
  3  4  1  0
  4  5  1  0
  5  6  2  0
  5  7  1  0
  7  8  1  0
  8  9  1  0
  9 10  1  0
 10 11  1  0
 11 12  1  0
 12 13  2  0
 13 14  1  0
 14 15  2  0
 15 16  1  0
  2 17  1  0
 17 18  2  0
 18 19  1  0
 19 20  2  0
 20 21  1  0
 21 22  2  0
 22 23  1  0
 23 24  2  0
 24 25  1  0
 25 26  2  0
 11  7  1  0
 16 12  1  0
 26 17  1  0
 25 20  1  0
  3 27  1  0
  4 28  1  0
  4 29  1  0
  8 30  1  0
  8 31  1  0
  9 32  1  0
  9 33  1  0
 10 34  1  0
 10 35  1  0
 11 36  1  6
 14 37  1  0
 15 38  1  0
 16 39  1  0
 18 40  1  0
 19 41  1  0
 21 42  1  0
 22 43  1  0
 23 44  1  0
 24 45  1  0
M  END
>  <smiles>  (1) 
O=C(NCC(=O)N1CCC[C@@H]1c1ncc[nH]1)c1ccc2ccccc2n1

>  <score_type>  (1) 
oracle

>  <origin>  (1) 
autodockgpu

>  <m_score__min__energy>  (1) 
-7.8600000000000003

>  <m_primary>  (1) 
energy

>  <rmsd>  (1) 
7.384597817154933

>  <m_score__min__rmsd>  (1) 
7.384597817154933

>  <meeko>  (1) 
{"free_energy": -7.11, "intermolecular_energy": -8.6, "internal_energy": -2.48, "cluster_size": 17, "cluster_id": 3, "rank_in_cluster": 9}

>  <energy>  (1) 
-7.86

>  <cluster_rmsd>  (1) 
0.0

>  <cluster>  (1) 
1

$$$$

     RDKit          3D

 45 48  0  0  0  0  0  0  0  0999 V2000
  141.4520   72.8890  221.9460 O   0  0  0  0  0  0  0  0  0  0  0  0
  140.3700   72.7360  222.5570 C   0  0  0  0  0  0  0  0  0  0  0  0
  139.3050   73.6240  222.1870 N   0  0  0  0  0  0  0  0  0  0  0  0
  139.3740   74.6310  221.2150 C   0  0  0  0  0  0  0  0  0  0  0  0
  140.3400   75.6940  221.2190 C   0  0  0  0  0  0  0  0  0  0  0  0
  140.9540   75.8290  222.3790 O   0  0  0  0  0  0  0  0  0  0  0  0
  140.7610   76.6100  220.2590 N   0  0  0  0  0  0  0  0  0  0  0  0
  140.1020   77.7700  219.6260 C   0  0  0  0  0  0  0  0  0  0  0  0
  140.2440   77.3990  218.1710 C   0  0  0  0  0  0  0  0  0  0  0  0
  141.6190   76.7970  218.0920 C   0  0  0  0  0  0  0  0  0  0  0  0
  142.0540   76.6800  219.5270 C   0  0  2  0  0  0  0  0  0  0  0  0
  142.9160   75.5140  219.6930 C   0  0  0  0  0  0  0  0  0  0  0  0
  143.7790   75.0380  218.7460 N   0  0  0  0  0  0  0  0  0  0  0  0
  144.4540   73.9790  219.2200 C   0  0  0  0  0  0  0  0  0  0  0  0
  144.0160   73.7660  220.5050 C   0  0  0  0  0  0  0  0  0  0  0  0
  143.0890   74.6990  220.7750 N   0  0  0  0  0  0  0  0  0  0  0  0
  140.1880   71.7090  223.5940 C   0  0  0  0  0  0  0  0  0  0  0  0
  139.5020   70.5730  223.2430 C   0  0  0  0  0  0  0  0  0  0  0  0
  139.3260   69.5930  224.2240 C   0  0  0  0  0  0  0  0  0  0  0  0
  139.8360   69.7750  225.5120 C   0  0  0  0  0  0  0  0  0  0  0  0
  139.6820   68.8340  226.5020 C   0  0  0  0  0  0  0  0  0  0  0  0
  140.1970   69.0280  227.7850 C   0  0  0  0  0  0  0  0  0  0  0  0
  140.8760   70.2050  228.0500 C   0  0  0  0  0  0  0  0  0  0  0  0
  141.0380   71.1580  227.0680 C   0  0  0  0  0  0  0  0  0  0  0  0
  140.5190   70.9390  225.8110 C   0  0  0  0  0  0  0  0  0  0  0  0
  140.6690   71.8600  224.8420 N   0  0  0  0  0  0  0  0  0  0  0  0
  138.4050   73.4490  222.7430 H   0  0  0  0  0  0  0  0  0  0  0  0
  139.5106   74.1093  220.2563 H   0  0  0  0  0  0  0  0  0  0  0  0
  138.4515   75.1898  221.4311 H   0  0  0  0  0  0  0  0  0  0  0  0
  139.0463   77.8512  219.9242 H   0  0  0  0  0  0  0  0  0  0  0  0
  140.5297   78.7468  219.8962 H   0  0  0  0  0  0  0  0  0  0  0  0
  139.4775   76.6674  217.8757 H   0  0  0  0  0  0  0  0  0  0  0  0
  140.1143   78.2581  217.4964 H   0  0  0  0  0  0  0  0  0  0  0  0
  141.5846   75.8074  217.6129 H   0  0  0  0  0  0  0  0  0  0  0  0
  142.3109   77.4047  217.4904 H   0  0  0  0  0  0  0  0  0  0  0  0
  142.6683   77.5110  219.9037 H   0  0  0  0  0  0  0  0  0  0  0  0
  145.2136   73.3929  218.6819 H   0  0  0  0  0  0  0  0  0  0  0  0
  144.3617   72.9757  221.1876 H   0  0  0  0  0  0  0  0  0  0  0  0
  142.5880   74.7760  221.7020 H   0  0  0  0  0  0  0  0  0  0  0  0
  139.1049   70.4387  222.2260 H   0  0  0  0  0  0  0  0  0  0  0  0
  138.7807   68.6695  223.9796 H   0  0  0  0  0  0  0  0  0  0  0  0
  139.1390   67.9041  226.2776 H   0  0  0  0  0  0  0  0  0  0  0  0
  140.0665   68.2645  228.5661 H   0  0  0  0  0  0  0  0  0  0  0  0
  141.2900   70.3811  229.0538 H   0  0  0  0  0  0  0  0  0  0  0  0
  141.5797   72.0900  227.2870 H   0  0  0  0  0  0  0  0  0  0  0  0
  1  2  2  0
  2  3  1  0
  3  4  1  0
  4  5  1  0
  5  6  2  0
  5  7  1  0
  7  8  1  0
  8  9  1  0
  9 10  1  0
 10 11  1  0
 11 12  1  0
 12 13  2  0
 13 14  1  0
 14 15  2  0
 15 16  1  0
  2 17  1  0
 17 18  2  0
 18 19  1  0
 19 20  2  0
 20 21  1  0
 21 22  2  0
 22 23  1  0
 23 24  2  0
 24 25  1  0
 25 26  2  0
 11  7  1  0
 16 12  1  0
 26 17  1  0
 25 20  1  0
  3 27  1  0
  4 28  1  0
  4 29  1  0
  8 30  1  0
  8 31  1  0
  9 32  1  0
  9 33  1  0
 10 34  1  0
 10 35  1  0
 11 36  1  1
 14 37  1  0
 15 38  1  0
 16 39  1  0
 18 40  1  0
 19 41  1  0
 21 42  1  0
 22 43  1  0
 23 44  1  0
 24 45  1  0
M  END
>  <smiles>  (2) 
O=C(NCC(=O)N1CCC[C@@H]1c1ncc[nH]1)c1ccc2ccccc2n1

>  <score_type>  (2) 
oracle

>  <origin>  (2) 
autodockgpu

>  <m_score__min__energy>  (2) 
-7.8600000000000003

>  <m_primary>  (2) 
energy

>  <rmsd>  (2) 
3.0330048768438647

>  <m_score__min__rmsd>  (2) 
3.0330048768438647

>  <meeko>  (2) 
{"free_energy": -6.91, "intermolecular_energy": -8.41, "internal_energy": -2.53, "cluster_size": 22, "cluster_id": 2, "rank_in_cluster": 14}

>  <energy>  (2) 
-7.77

>  <cluster_rmsd>  (2) 
1.77

>  <cluster>  (2) 
1

$$$$

     RDKit          3D

 45 48  0  0  0  0  0  0  0  0999 V2000
  141.2030   71.7710  221.3660 O   0  0  0  0  0  0  0  0  0  0  0  0
  140.5780   72.2370  222.3460 C   0  0  0  0  0  0  0  0  0  0  0  0
  140.1230   73.5930  222.2190 N   0  0  0  0  0  0  0  0  0  0  0  0
  140.3170   74.4250  221.1080 C   0  0  0  0  0  0  0  0  0  0  0  0
  141.1210   75.6140  221.1200 C   0  0  0  0  0  0  0  0  0  0  0  0
  141.1330   76.2180  222.2940 O   0  0  0  0  0  0  0  0  0  0  0  0
  141.8870   76.2640  220.1550 N   0  0  0  0  0  0  0  0  0  0  0  0
  141.6160   77.4150  219.2710 C   0  0  0  0  0  0  0  0  0  0  0  0
  141.9050   76.7950  217.9260 C   0  0  0  0  0  0  0  0  0  0  0  0
  143.1040   75.9280  218.1870 C   0  0  0  0  0  0  0  0  0  0  0  0
  143.2640   75.9580  219.6830 C   0  0  2  0  0  0  0  0  0  0  0  0
  143.8040   74.6860  220.1520 C   0  0  0  0  0  0  0  0  0  0  0  0
  145.0950   74.4850  220.5530 N   0  0  0  0  0  0  0  0  0  0  0  0
  145.2650   73.2180  220.9630 C   0  0  0  0  0  0  0  0  0  0  0  0
  144.0530   72.5850  220.8220 C   0  0  0  0  0  0  0  0  0  0  0  0
  143.1830   73.4830  220.3320 N   0  0  0  0  0  0  0  0  0  0  0  0
  140.3180   71.4510  223.5610 C   0  0  0  0  0  0  0  0  0  0  0  0
  139.6590   70.2560  223.4090 C   0  0  0  0  0  0  0  0  0  0  0  0
  139.4090   69.5030  224.5600 C   0  0  0  0  0  0  0  0  0  0  0  0
  139.8200   69.9610  225.8140 C   0  0  0  0  0  0  0  0  0  0  0  0
  139.5910   69.2480  226.9670 C   0  0  0  0  0  0  0  0  0  0  0  0
  140.0080   69.7170  228.2140 C   0  0  0  0  0  0  0  0  0  0  0  0
  140.6660   70.9340  228.2730 C   0  0  0  0  0  0  0  0  0  0  0  0
  140.9020   71.6600  227.1260 C   0  0  0  0  0  0  0  0  0  0  0  0
  140.4800   71.1720  225.9090 C   0  0  0  0  0  0  0  0  0  0  0  0
  140.7030   71.8700  224.7800 N   0  0  0  0  0  0  0  0  0  0  0  0
  139.5970   73.9380  223.0870 H   0  0  0  0  0  0  0  0  0  0  0  0
  140.7494   73.7819  220.3273 H   0  0  0  0  0  0  0  0  0  0  0  0
  139.3116   74.8567  220.9953 H   0  0  0  0  0  0  0  0  0  0  0  0
  140.5714   77.7507  219.3485 H   0  0  0  0  0  0  0  0  0  0  0  0
  142.2020   78.3179  219.4976 H   0  0  0  0  0  0  0  0  0  0  0  0
  141.0523   76.1923  217.5800 H   0  0  0  0  0  0  0  0  0  0  0  0
  142.0817   77.5434  217.1394 H   0  0  0  0  0  0  0  0  0  0  0  0
  142.9270   74.9012  217.8343 H   0  0  0  0  0  0  0  0  0  0  0  0
  144.0024   76.2825  217.6604 H   0  0  0  0  0  0  0  0  0  0  0  0
  143.9798   76.6996  220.0673 H   0  0  0  0  0  0  0  0  0  0  0  0
  146.1969   72.7714  221.3400 H   0  0  0  0  0  0  0  0  0  0  0  0
  143.8355   71.5347  221.0660 H   0  0  0  0  0  0  0  0  0  0  0  0
  142.1690   73.2680  220.1320 H   0  0  0  0  0  0  0  0  0  0  0  0
  139.3393   69.9038  222.4172 H   0  0  0  0  0  0  0  0  0  0  0  0
  138.8834   68.5402  224.4773 H   0  0  0  0  0  0  0  0  0  0  0  0
  139.0658   68.2834  226.9053 H   0  0  0  0  0  0  0  0  0  0  0  0
  139.8185   69.1341  229.1274 H   0  0  0  0  0  0  0  0  0  0  0  0
  141.0033   71.3247  229.2444 H   0  0  0  0  0  0  0  0  0  0  0  0
  141.4255   72.6258  227.1820 H   0  0  0  0  0  0  0  0  0  0  0  0
  1  2  2  0
  2  3  1  0
  3  4  1  0
  4  5  1  0
  5  6  2  0
  5  7  1  0
  7  8  1  0
  8  9  1  0
  9 10  1  0
 10 11  1  0
 11 12  1  0
 12 13  2  0
 13 14  1  0
 14 15  2  0
 15 16  1  0
  2 17  1  0
 17 18  2  0
 18 19  1  0
 19 20  2  0
 20 21  1  0
 21 22  2  0
 22 23  1  0
 23 24  2  0
 24 25  1  0
 25 26  2  0
 11  7  1  0
 16 12  1  0
 26 17  1  0
 25 20  1  0
  3 27  1  0
  4 28  1  0
  4 29  1  0
  8 30  1  0
  8 31  1  0
  9 32  1  0
  9 33  1  0
 10 34  1  0
 10 35  1  0
 11 36  1  6
 14 37  1  0
 15 38  1  0
 16 39  1  0
 18 40  1  0
 19 41  1  0
 21 42  1  0
 22 43  1  0
 23 44  1  0
 24 45  1  0
M  END
>  <smiles>  (3) 
O=C(NCC(=O)N1CCC[C@@H]1c1ncc[nH]1)c1ccc2ccccc2n1

>  <score_type>  (3) 
oracle

>  <origin>  (3) 
autodockgpu

>  <m_score__min__energy>  (3) 
-7.8600000000000003

>  <m_primary>  (3) 
energy

>  <rmsd>  (3) 
3.4426741625043946

>  <m_score__min__rmsd>  (3) 
3.4426741625043946

>  <meeko>  (3) 
{"free_energy": -7.62, "intermolecular_energy": -9.11, "internal_energy": -2.13, "cluster_size": 22, "cluster_id": 2, "rank_in_cluster": 5}

>  <energy>  (3) 
-7.39

>  <cluster_rmsd>  (3) 
1.46

>  <cluster>  (3) 
1

$$$$

     RDKit          3D

 45 48  0  0  0  0  0  0  0  0999 V2000
  139.9360   71.0850  221.5170 O   0  0  0  0  0  0  0  0  0  0  0  0
  139.8600   71.7450  222.5790 C   0  0  0  0  0  0  0  0  0  0  0  0
  139.5420   73.1370  222.4350 N   0  0  0  0  0  0  0  0  0  0  0  0
  139.3130   73.8090  221.2260 C   0  0  0  0  0  0  0  0  0  0  0  0
  140.3480   74.2090  220.3150 C   0  0  0  0  0  0  0  0  0  0  0  0
  140.1620   73.7540  219.0900 O   0  0  0  0  0  0  0  0  0  0  0  0
  141.5050   74.9710  220.4530 N   0  0  0  0  0  0  0  0  0  0  0  0
  141.7460   76.4280  220.4830 C   0  0  0  0  0  0  0  0  0  0  0  0
  142.7580   76.5560  219.3720 C   0  0  0  0  0  0  0  0  0  0  0  0
  143.6270   75.3420  219.5440 C   0  0  0  0  0  0  0  0  0  0  0  0
  142.9180   74.5240  220.5880 C   0  0  2  0  0  0  0  0  0  0  0  0
  143.1370   73.1020  220.3400 C   0  0  0  0  0  0  0  0  0  0  0  0
  144.3610   72.4990  220.2740 N   0  0  0  0  0  0  0  0  0  0  0  0
  144.2210   71.1790  220.0730 C   0  0  0  0  0  0  0  0  0  0  0  0
  142.8730   70.9240  220.0070 C   0  0  0  0  0  0  0  0  0  0  0  0
  142.2320   72.0930  220.1700 N   0  0  0  0  0  0  0  0  0  0  0  0
  140.0800   71.1400  223.9010 C   0  0  0  0  0  0  0  0  0  0  0  0
  140.7140   71.9070  224.8470 C   0  0  0  0  0  0  0  0  0  0  0  0
  140.9270   71.3390  226.1060 C   0  0  0  0  0  0  0  0  0  0  0  0
  140.5040   70.0360  226.3790 C   0  0  0  0  0  0  0  0  0  0  0  0
  140.6970   69.4440  227.6050 C   0  0  0  0  0  0  0  0  0  0  0  0
  140.2690   68.1410  227.8650 C   0  0  0  0  0  0  0  0  0  0  0  0
  139.6380   67.4410  226.8500 C   0  0  0  0  0  0  0  0  0  0  0  0
  139.4380   68.0210  225.6170 C   0  0  0  0  0  0  0  0  0  0  0  0
  139.8710   69.3080  225.3880 C   0  0  0  0  0  0  0  0  0  0  0  0
  139.6840   69.8880  224.1890 N   0  0  0  0  0  0  0  0  0  0  0  0
  139.4920   73.6520  223.3740 H   0  0  0  0  0  0  0  0  0  0  0  0
  138.6429   73.1571  220.6463 H   0  0  0  0  0  0  0  0  0  0  0  0
  138.9735   74.7880  221.5952 H   0  0  0  0  0  0  0  0  0  0  0  0
  140.8297   76.9967  220.2665 H   0  0  0  0  0  0  0  0  0  0  0  0
  142.0777   76.8202  221.4557 H   0  0  0  0  0  0  0  0  0  0  0  0
  142.2647   76.5498  218.3888 H   0  0  0  0  0  0  0  0  0  0  0  0
  143.3251   77.4975  219.4168 H   0  0  0  0  0  0  0  0  0  0  0  0
  143.7080   74.7835  218.5998 H   0  0  0  0  0  0  0  0  0  0  0  0
  144.6555   75.5989  219.8376 H   0  0  0  0  0  0  0  0  0  0  0  0
  143.2725   74.6642  221.6198 H   0  0  0  0  0  0  0  0  0  0  0  0
  145.0319   70.4417  219.9790 H   0  0  0  0  0  0  0  0  0  0  0  0
  142.4039   69.9416  219.8494 H   0  0  0  0  0  0  0  0  0  0  0  0
  141.1800   72.1900  220.1710 H   0  0  0  0  0  0  0  0  0  0  0  0
  141.0427   72.9323  224.6219 H   0  0  0  0  0  0  0  0  0  0  0  0
  141.4323   71.9233  226.8891 H   0  0  0  0  0  0  0  0  0  0  0  0
  141.2014   70.0115  228.4009 H   0  0  0  0  0  0  0  0  0  0  0  0
  140.4289   67.6815  228.8516 H   0  0  0  0  0  0  0  0  0  0  0  0
  139.2934   66.4121  227.0304 H   0  0  0  0  0  0  0  0  0  0  0  0
  138.9340   67.4580  224.8176 H   0  0  0  0  0  0  0  0  0  0  0  0
  1  2  2  0
  2  3  1  0
  3  4  1  0
  4  5  1  0
  5  6  2  0
  5  7  1  0
  7  8  1  0
  8  9  1  0
  9 10  1  0
 10 11  1  0
 11 12  1  0
 12 13  2  0
 13 14  1  0
 14 15  2  0
 15 16  1  0
  2 17  1  0
 17 18  2  0
 18 19  1  0
 19 20  2  0
 20 21  1  0
 21 22  2  0
 22 23  1  0
 23 24  2  0
 24 25  1  0
 25 26  2  0
 11  7  1  0
 16 12  1  0
 26 17  1  0
 25 20  1  0
  3 27  1  0
  4 28  1  0
  4 29  1  0
  8 30  1  0
  8 31  1  0
  9 32  1  0
  9 33  1  0
 10 34  1  0
 10 35  1  0
 11 36  1  1
 14 37  1  0
 15 38  1  0
 16 39  1  0
 18 40  1  0
 19 41  1  0
 21 42  1  0
 22 43  1  0
 23 44  1  0
 24 45  1  0
M  END
>  <smiles>  (4) 
O=C(NCC(=O)N1CCC[C@@H]1c1ncc[nH]1)c1ccc2ccccc2n1

>  <score_type>  (4) 
oracle

>  <origin>  (4) 
autodockgpu

>  <m_score__min__energy>  (4) 
-7.8600000000000003

>  <m_primary>  (4) 
energy

>  <rmsd>  (4) 
4.493603591156229

>  <m_score__min__rmsd>  (4) 
4.493603591156229

>  <meeko>  (4) 
{"free_energy": -6.55, "intermolecular_energy": -8.04, "internal_energy": -2.61, "cluster_size": 22, "cluster_id": 2, "rank_in_cluster": 21}

>  <energy>  (4) 
-7.29

>  <cluster_rmsd>  (4) 
0.74

>  <cluster>  (4) 
1

$$$$

     RDKit          3D

 45 48  0  0  0  0  0  0  0  0999 V2000
  140.3690   71.3310  221.1520 O   0  0  0  0  0  0  0  0  0  0  0  0
  139.9480   71.9050  222.1820 C   0  0  0  0  0  0  0  0  0  0  0  0
  139.4300   73.2310  221.9990 N   0  0  0  0  0  0  0  0  0  0  0  0
  139.3560   73.9250  220.7830 C   0  0  0  0  0  0  0  0  0  0  0  0
  140.4990   74.3290  220.0130 C   0  0  0  0  0  0  0  0  0  0  0  0
  140.6780   73.5950  218.9310 O   0  0  0  0  0  0  0  0  0  0  0  0
  141.4570   75.3280  220.1690 N   0  0  0  0  0  0  0  0  0  0  0  0
  141.3880   76.8010  220.0900 C   0  0  0  0  0  0  0  0  0  0  0  0
  142.4480   77.0640  219.0500 C   0  0  0  0  0  0  0  0  0  0  0  0
  143.5300   76.0780  219.3900 C   0  0  0  0  0  0  0  0  0  0  0  0
  142.9130   75.2010  220.4460 C   0  0  2  0  0  0  0  0  0  0  0  0
  143.4420   73.8460  220.3400 C   0  0  0  0  0  0  0  0  0  0  0  0
  144.7660   73.5290  220.2230 N   0  0  0  0  0  0  0  0  0  0  0  0
  144.9270   72.1970  220.1860 C   0  0  0  0  0  0  0  0  0  0  0  0
  143.6740   71.6390  220.2820 C   0  0  0  0  0  0  0  0  0  0  0  0
  142.7900   72.6460  220.3740 N   0  0  0  0  0  0  0  0  0  0  0  0
  139.9760   71.2680  223.5070 C   0  0  0  0  0  0  0  0  0  0  0  0
  139.4770   69.9930  223.6040 C   0  0  0  0  0  0  0  0  0  0  0  0
  139.5020   69.3810  224.8610 C   0  0  0  0  0  0  0  0  0  0  0  0
  140.0180   70.0550  225.9700 C   0  0  0  0  0  0  0  0  0  0  0  0
  140.0580   69.4850  227.2210 C   0  0  0  0  0  0  0  0  0  0  0  0
  140.5780   70.1690  228.3210 C   0  0  0  0  0  0  0  0  0  0  0  0
  141.0600   71.4530  228.1310 C   0  0  0  0  0  0  0  0  0  0  0  0
  141.0260   72.0370  226.8830 C   0  0  0  0  0  0  0  0  0  0  0  0
  140.5080   71.3380  225.8150 C   0  0  0  0  0  0  0  0  0  0  0  0
  140.4680   71.8950  224.5910 N   0  0  0  0  0  0  0  0  0  0  0  0
  139.0870   73.6740  222.9120 H   0  0  0  0  0  0  0  0  0  0  0  0
  138.7567   73.2896  220.1143 H   0  0  0  0  0  0  0  0  0  0  0  0
  138.9812   74.9012  221.1245 H   0  0  0  0  0  0  0  0  0  0  0  0
  140.3974   77.1450  219.7577 H   0  0  0  0  0  0  0  0  0  0  0  0
  141.5419   77.3215  221.0467 H   0  0  0  0  0  0  0  0  0  0  0  0
  142.0575   76.8848  218.0374 H   0  0  0  0  0  0  0  0  0  0  0  0
  142.8022   78.1054  219.0550 H   0  0  0  0  0  0  0  0  0  0  0  0
  143.8099   75.4860  218.5061 H   0  0  0  0  0  0  0  0  0  0  0  0
  144.4523   76.5677  219.7356 H   0  0  0  0  0  0  0  0  0  0  0  0
  143.1360   75.4834  221.4855 H   0  0  0  0  0  0  0  0  0  0  0  0
  145.8799   71.6550  220.0960 H   0  0  0  0  0  0  0  0  0  0  0  0
  143.4386   70.5645  220.2832 H   0  0  0  0  0  0  0  0  0  0  0  0
  141.7480   72.5040  220.4670 H   0  0  0  0  0  0  0  0  0  0  0  0
  139.0719   69.4713  222.7244 H   0  0  0  0  0  0  0  0  0  0  0  0
  139.1116   68.3592  224.9774 H   0  0  0  0  0  0  0  0  0  0  0  0
  139.6705   68.4647  227.3581 H   0  0  0  0  0  0  0  0  0  0  0  0
  140.6043   69.6991  229.3152 H   0  0  0  0  0  0  0  0  0  0  0  0
  141.4736   72.0118  228.9834 H   0  0  0  0  0  0  0  0  0  0  0  0
  141.4111   73.0575  226.7404 H   0  0  0  0  0  0  0  0  0  0  0  0
  1  2  2  0
  2  3  1  0
  3  4  1  0
  4  5  1  0
  5  6  2  0
  5  7  1  0
  7  8  1  0
  8  9  1  0
  9 10  1  0
 10 11  1  0
 11 12  1  0
 12 13  2  0
 13 14  1  0
 14 15  2  0
 15 16  1  0
  2 17  1  0
 17 18  2  0
 18 19  1  0
 19 20  2  0
 20 21  1  0
 21 22  2  0
 22 23  1  0
 23 24  2  0
 24 25  1  0
 25 26  2  0
 11  7  1  0
 16 12  1  0
 26 17  1  0
 25 20  1  0
  3 27  1  0
  4 28  1  0
  4 29  1  0
  8 30  1  0
  8 31  1  0
  9 32  1  0
  9 33  1  0
 10 34  1  0
 10 35  1  0
 11 36  1  1
 14 37  1  0
 15 38  1  0
 16 39  1  0
 18 40  1  0
 19 41  1  0
 21 42  1  0
 22 43  1  0
 23 44  1  0
 24 45  1  0
M  END
>  <smiles>  (5) 
O=C(NCC(=O)N1CCC[C@@H]1c1ncc[nH]1)c1ccc2ccccc2n1

>  <score_type>  (5) 
oracle

>  <origin>  (5) 
autodockgpu

>  <m_score__min__energy>  (5) 
-7.8600000000000003

>  <m_primary>  (5) 
energy

>  <rmsd>  (5) 
3.727221706426405

>  <m_score__min__rmsd>  (5) 
3.727221706426405

>  <meeko>  (5) 
{"free_energy": -6.92, "intermolecular_energy": -8.41, "internal_energy": -2.68, "cluster_size": 22, "cluster_id": 2, "rank_in_cluster": 12}

>  <energy>  (5) 
-7.25

>  <cluster_rmsd>  (5) 
1.13

>  <cluster>  (5) 
1

$$$$

     RDKit          3D

 45 48  0  0  0  0  0  0  0  0999 V2000
  138.9530   75.2890  221.5140 O   0  0  0  0  0  0  0  0  0  0  0  0
  140.0720   75.7510  221.8330 C   0  0  0  0  0  0  0  0  0  0  0  0
  141.1890   74.8640  221.6770 N   0  0  0  0  0  0  0  0  0  0  0  0
  141.1340   73.5460  221.2040 C   0  0  0  0  0  0  0  0  0  0  0  0
  142.0600   72.9860  220.2590 C   0  0  0  0  0  0  0  0  0  0  0  0
  141.4830   72.1820  219.3860 O   0  0  0  0  0  0  0  0  0  0  0  0
  143.4340   73.1130  220.0740 N   0  0  0  0  0  0  0  0  0  0  0  0
  144.5750   72.2440  220.4280 C   0  0  0  0  0  0  0  0  0  0  0  0
  145.4070   73.2100  221.2340 C   0  0  0  0  0  0  0  0  0  0  0  0
  145.2630   74.5080  220.4900 C   0  0  0  0  0  0  0  0  0  0  0  0
  144.2030   74.2280  219.4600 C   0  0  2  0  0  0  0  0  0  0  0  0
  143.4280   75.4370  219.2020 C   0  0  0  0  0  0  0  0  0  0  0  0
  143.0910   75.9010  217.9610 N   0  0  0  0  0  0  0  0  0  0  0  0
  142.3440   77.0110  218.0640 C   0  0  0  0  0  0  0  0  0  0  0  0
  142.1950   77.2710  219.4050 C   0  0  0  0  0  0  0  0  0  0  0  0
  142.8540   76.3140  220.0780 N   0  0  0  0  0  0  0  0  0  0  0  0
  140.2440   77.1210  222.3390 C   0  0  0  0  0  0  0  0  0  0  0  0
  139.1100   77.8110  222.6880 C   0  0  0  0  0  0  0  0  0  0  0  0
  139.2660   79.1140  223.1690 C   0  0  0  0  0  0  0  0  0  0  0  0
  140.5370   79.6810  223.2880 C   0  0  0  0  0  0  0  0  0  0  0  0
  140.7290   80.9590  223.7570 C   0  0  0  0  0  0  0  0  0  0  0  0
  142.0050   81.5140  223.8710 C   0  0  0  0  0  0  0  0  0  0  0  0
  143.0930   80.7450  223.4960 C   0  0  0  0  0  0  0  0  0  0  0  0
  142.9160   79.4620  223.0230 C   0  0  0  0  0  0  0  0  0  0  0  0
  141.6450   78.9400  222.9220 C   0  0  0  0  0  0  0  0  0  0  0  0
  141.4560   77.6900  222.4620 N   0  0  0  0  0  0  0  0  0  0  0  0
  142.1190   75.3100  221.9670 H   0  0  0  0  0  0  0  0  0  0  0  0
  141.1988   72.9072  222.0972 H   0  0  0  0  0  0  0  0  0  0  0  0
  140.2174   73.5830  220.5970 H   0  0  0  0  0  0  0  0  0  0  0  0
  144.2574   71.3796  221.0296 H   0  0  0  0  0  0  0  0  0  0  0  0
  145.0944   71.7925  219.5699 H   0  0  0  0  0  0  0  0  0  0  0  0
  145.0201   73.3004  222.2597 H   0  0  0  0  0  0  0  0  0  0  0  0
  146.4545   72.8899  221.3356 H   0  0  0  0  0  0  0  0  0  0  0  0
  144.9446   75.3132  221.1685 H   0  0  0  0  0  0  0  0  0  0  0  0
  146.2093   74.8427  220.0401 H   0  0  0  0  0  0  0  0  0  0  0  0
  144.5743   73.9416  218.4650 H   0  0  0  0  0  0  0  0  0  0  0  0
  141.9297   77.6006  217.2329 H   0  0  0  0  0  0  0  0  0  0  0  0
  141.6375   78.1101  219.8467 H   0  0  0  0  0  0  0  0  0  0  0  0
  142.8990   76.2630  221.1320 H   0  0  0  0  0  0  0  0  0  0  0  0
  138.1137   77.3547  222.5925 H   0  0  0  0  0  0  0  0  0  0  0  0
  138.3796   79.6984  223.4565 H   0  0  0  0  0  0  0  0  0  0  0  0
  139.8551   81.5595  224.0499 H   0  0  0  0  0  0  0  0  0  0  0  0
  142.1423   82.5376  224.2497 H   0  0  0  0  0  0  0  0  0  0  0  0
  144.1081   81.1612  223.5761 H   0  0  0  0  0  0  0  0  0  0  0  0
  143.7862   78.8576  222.7274 H   0  0  0  0  0  0  0  0  0  0  0  0
  1  2  2  0
  2  3  1  0
  3  4  1  0
  4  5  1  0
  5  6  2  0
  5  7  1  0
  7  8  1  0
  8  9  1  0
  9 10  1  0
 10 11  1  0
 11 12  1  0
 12 13  2  0
 13 14  1  0
 14 15  2  0
 15 16  1  0
  2 17  1  0
 17 18  2  0
 18 19  1  0
 19 20  2  0
 20 21  1  0
 21 22  2  0
 22 23  1  0
 23 24  2  0
 24 25  1  0
 25 26  2  0
 11  7  1  0
 16 12  1  0
 26 17  1  0
 25 20  1  0
  3 27  1  0
  4 28  1  0
  4 29  1  0
  8 30  1  0
  8 31  1  0
  9 32  1  0
  9 33  1  0
 10 34  1  0
 10 35  1  0
 11 36  1  6
 14 37  1  0
 15 38  1  0
 16 39  1  0
 18 40  1  0
 19 41  1  0
 21 42  1  0
 22 43  1  0
 23 44  1  0
 24 45  1  0
M  END
>  <smiles>  (6) 
O=C(NCC(=O)N1CCC[C@@H]1c1ncc[nH]1)c1ccc2ccccc2n1

>  <score_type>  (6) 
oracle

>  <origin>  (6) 
autodockgpu

>  <m_score__min__energy>  (6) 
-7.8600000000000003

>  <m_primary>  (6) 
energy

>  <rmsd>  (6) 
7.420243667199839

>  <m_score__min__rmsd>  (6) 
7.420243667199839

>  <meeko>  (6) 
{"free_energy": -7.24, "intermolecular_energy": -8.74, "internal_energy": -2.35, "cluster_size": 17, "cluster_id": 3, "rank_in_cluster": 1}

>  <energy>  (6) 
-7.23

>  <cluster_rmsd>  (6) 
1.1

>  <cluster>  (6) 
1

$$$$

     RDKit          3D

 45 48  0  0  0  0  0  0  0  0999 V2000
  139.9590   71.4800  221.2840 O   0  0  0  0  0  0  0  0  0  0  0  0
  139.8470   72.0400  222.3980 C   0  0  0  0  0  0  0  0  0  0  0  0
  139.5840   73.4510  222.3720 N   0  0  0  0  0  0  0  0  0  0  0  0
  139.4420   74.2410  221.2230 C   0  0  0  0  0  0  0  0  0  0  0  0
  140.5000   74.5010  220.2860 C   0  0  0  0  0  0  0  0  0  0  0  0
  140.3730   73.8200  219.1620 O   0  0  0  0  0  0  0  0  0  0  0  0
  141.6290   75.3160  220.3150 N   0  0  0  0  0  0  0  0  0  0  0  0
  141.8110   76.7770  220.2000 C   0  0  0  0  0  0  0  0  0  0  0  0
  142.7870   76.8350  219.0510 C   0  0  0  0  0  0  0  0  0  0  0  0
  143.7080   75.6770  219.3110 C   0  0  0  0  0  0  0  0  0  0  0  0
  143.0610   74.9360  220.4490 C   0  0  2  0  0  0  0  0  0  0  0  0
  143.3300   73.5070  220.3310 C   0  0  0  0  0  0  0  0  0  0  0  0
  144.5700   72.9540  220.1760 N   0  0  0  0  0  0  0  0  0  0  0  0
  144.4840   71.6160  220.1380 C   0  0  0  0  0  0  0  0  0  0  0  0
  143.1540   71.2960  220.2710 C   0  0  0  0  0  0  0  0  0  0  0  0
  142.4710   72.4460  220.3870 N   0  0  0  0  0  0  0  0  0  0  0  0
  139.9760   71.3070  223.6660 C   0  0  0  0  0  0  0  0  0  0  0  0
  139.6120   69.9830  223.6680 C   0  0  0  0  0  0  0  0  0  0  0  0
  139.7320   69.2790  224.8690 C   0  0  0  0  0  0  0  0  0  0  0  0
  140.2060   69.9120  226.0210 C   0  0  0  0  0  0  0  0  0  0  0  0
  140.3370   69.2530  227.2200 C   0  0  0  0  0  0  0  0  0  0  0  0
  140.8140   69.8970  228.3630 C   0  0  0  0  0  0  0  0  0  0  0  0
  141.1580   71.2350  228.2690 C   0  0  0  0  0  0  0  0  0  0  0  0
  141.0320   71.9100  227.0740 C   0  0  0  0  0  0  0  0  0  0  0  0
  140.5590   71.2480  225.9620 C   0  0  0  0  0  0  0  0  0  0  0  0
  140.4300   71.8930  224.7880 N   0  0  0  0  0  0  0  0  0  0  0  0
  139.5000   73.8780  223.3520 H   0  0  0  0  0  0  0  0  0  0  0  0
  138.6357   73.7736  220.6387 H   0  0  0  0  0  0  0  0  0  0  0  0
  139.3130   75.2372  221.6713 H   0  0  0  0  0  0  0  0  0  0  0  0
  140.8669   77.2874  219.9587 H   0  0  0  0  0  0  0  0  0  0  0  0
  142.1521   77.2733  221.1205 H   0  0  0  0  0  0  0  0  0  0  0  0
  142.2681   76.7156  218.0885 H   0  0  0  0  0  0  0  0  0  0  0  0
  143.3169   77.7969  218.9885 H   0  0  0  0  0  0  0  0  0  0  0  0
  143.7864   75.0341  218.4219 H   0  0  0  0  0  0  0  0  0  0  0  0
  144.7325   75.9998  219.5480 H   0  0  0  0  0  0  0  0  0  0  0  0
  143.4374   75.1863  221.4518 H   0  0  0  0  0  0  0  0  0  0  0  0
  145.3190   70.9093  220.0224 H   0  0  0  0  0  0  0  0  0  0  0  0
  142.7270   70.2823  220.2806 H   0  0  0  0  0  0  0  0  0  0  0  0
  141.4240   72.4960  220.5100 H   0  0  0  0  0  0  0  0  0  0  0  0
  139.2390   69.4937  222.7561 H   0  0  0  0  0  0  0  0  0  0  0  0
  139.4506   68.2163  224.9080 H   0  0  0  0  0  0  0  0  0  0  0  0
  140.0588   68.1905  227.2805 H   0  0  0  0  0  0  0  0  0  0  0  0
  140.9141   69.3549  229.3149 H   0  0  0  0  0  0  0  0  0  0  0  0
  141.5354   71.7641  229.1564 H   0  0  0  0  0  0  0  0  0  0  0  0
  141.3079   72.9728  227.0083 H   0  0  0  0  0  0  0  0  0  0  0  0
  1  2  2  0
  2  3  1  0
  3  4  1  0
  4  5  1  0
  5  6  2  0
  5  7  1  0
  7  8  1  0
  8  9  1  0
  9 10  1  0
 10 11  1  0
 11 12  1  0
 12 13  2  0
 13 14  1  0
 14 15  2  0
 15 16  1  0
  2 17  1  0
 17 18  2  0
 18 19  1  0
 19 20  2  0
 20 21  1  0
 21 22  2  0
 22 23  1  0
 23 24  2  0
 24 25  1  0
 25 26  2  0
 11  7  1  0
 16 12  1  0
 26 17  1  0
 25 20  1  0
  3 27  1  0
  4 28  1  0
  4 29  1  0
  8 30  1  0
  8 31  1  0
  9 32  1  0
  9 33  1  0
 10 34  1  0
 10 35  1  0
 11 36  1  1
 14 37  1  0
 15 38  1  0
 16 39  1  0
 18 40  1  0
 19 41  1  0
 21 42  1  0
 22 43  1  0
 23 44  1  0
 24 45  1  0
M  END
>  <smiles>  (7) 
O=C(NCC(=O)N1CCC[C@@H]1c1ncc[nH]1)c1ccc2ccccc2n1

>  <score_type>  (7) 
oracle

>  <origin>  (7) 
autodockgpu

>  <m_score__min__energy>  (7) 
-7.8600000000000003

>  <m_primary>  (7) 
energy

>  <rmsd>  (7) 
3.877557325755368

>  <m_score__min__rmsd>  (7) 
3.877557325755368

>  <meeko>  (7) 
{"free_energy": -6.78, "intermolecular_energy": -8.27, "internal_energy": -2.8, "cluster_size": 22, "cluster_id": 2, "rank_in_cluster": 18}

>  <energy>  (7) 
-7.63

>  <cluster_rmsd>  (7) 
0.0

>  <cluster>  (7) 
2

$$$$

     RDKit          3D

 45 48  0  0  0  0  0  0  0  0999 V2000
  141.3980   72.5870  221.6400 O   0  0  0  0  0  0  0  0  0  0  0  0
  140.4650   72.7150  222.4660 C   0  0  0  0  0  0  0  0  0  0  0  0
  139.6490   73.8880  222.3210 N   0  0  0  0  0  0  0  0  0  0  0  0
  139.8070   74.8850  221.3490 C   0  0  0  0  0  0  0  0  0  0  0  0
  139.7260   76.2940  221.6160 C   0  0  0  0  0  0  0  0  0  0  0  0
  140.7410   76.9730  221.1160 O   0  0  0  0  0  0  0  0  0  0  0  0
  138.8060   77.0900  222.2920 N   0  0  0  0  0  0  0  0  0  0  0  0
  137.3360   77.0280  222.4250 C   0  0  0  0  0  0  0  0  0  0  0  0
  136.9630   78.4070  221.9420 C   0  0  0  0  0  0  0  0  0  0  0  0
  138.0360   79.2860  222.5200 C   0  0  0  0  0  0  0  0  0  0  0  0
  139.0360   78.3200  223.0960 C   0  0  2  0  0  0  0  0  0  0  0  0
  140.3810   78.8760  222.9940 C   0  0  0  0  0  0  0  0  0  0  0  0
  140.6740   80.2090  222.9240 N   0  0  0  0  0  0  0  0  0  0  0  0
  142.0020   80.3940  222.8780 C   0  0  0  0  0  0  0  0  0  0  0  0
  142.5820   79.1490  222.9190 C   0  0  0  0  0  0  0  0  0  0  0  0
  141.5920   78.2450  222.9880 N   0  0  0  0  0  0  0  0  0  0  0  0
  140.2090   71.7280  223.5250 C   0  0  0  0  0  0  0  0  0  0  0  0
  139.4710   70.6200  223.1890 C   0  0  0  0  0  0  0  0  0  0  0  0
  139.2240   69.6770  224.1910 C   0  0  0  0  0  0  0  0  0  0  0  0
  139.7160   69.8680  225.4840 C   0  0  0  0  0  0  0  0  0  0  0  0
  139.4930   68.9630  226.4950 C   0  0  0  0  0  0  0  0  0  0  0  0
  139.9920   69.1650  227.7830 C   0  0  0  0  0  0  0  0  0  0  0  0
  140.7260   70.3120  228.0320 C   0  0  0  0  0  0  0  0  0  0  0  0
  140.9580   71.2280  227.0290 C   0  0  0  0  0  0  0  0  0  0  0  0
  140.4540   71.0020  225.7670 C   0  0  0  0  0  0  0  0  0  0  0  0
  140.6710   71.8880  224.7780 N   0  0  0  0  0  0  0  0  0  0  0  0
  138.8700   73.9460  223.0540 H   0  0  0  0  0  0  0  0  0  0  0  0
  140.8047   74.7217  220.9155 H   0  0  0  0  0  0  0  0  0  0  0  0
  138.8966   74.7356  220.7500 H   0  0  0  0  0  0  0  0  0  0  0  0
  136.9026   76.2427  221.7882 H   0  0  0  0  0  0  0  0  0  0  0  0
  136.9752   76.7805  223.4342 H   0  0  0  0  0  0  0  0  0  0  0  0
  136.9675   78.4528  220.8430 H   0  0  0  0  0  0  0  0  0  0  0  0
  135.9511   78.7087  222.2503 H   0  0  0  0  0  0  0  0  0  0  0  0
  138.4979   79.9042  221.7361 H   0  0  0  0  0  0  0  0  0  0  0  0
  137.6458   79.9866  223.2730 H   0  0  0  0  0  0  0  0  0  0  0  0
  138.9249   78.1081  224.1697 H   0  0  0  0  0  0  0  0  0  0  0  0
  142.5268   81.3589  222.8187 H   0  0  0  0  0  0  0  0  0  0  0  0
  143.6603   78.9327  222.8990 H   0  0  0  0  0  0  0  0  0  0  0  0
  141.7530   77.2020  223.0400 H   0  0  0  0  0  0  0  0  0  0  0  0
  139.0877   70.4793  222.1676 H   0  0  0  0  0  0  0  0  0  0  0  0
  138.6367   68.7763  223.9589 H   0  0  0  0  0  0  0  0  0  0  0  0
  138.9065   68.0568  226.2834 H   0  0  0  0  0  0  0  0  0  0  0  0
  139.8065   68.4306  228.5807 H   0  0  0  0  0  0  0  0  0  0  0  0
  141.1277   70.4939  229.0397 H   0  0  0  0  0  0  0  0  0  0  0  0
  141.5434   72.1362  227.2353 H   0  0  0  0  0  0  0  0  0  0  0  0
  1  2  2  0
  2  3  1  0
  3  4  1  0
  4  5  1  0
  5  6  2  0
  5  7  1  0
  7  8  1  0
  8  9  1  0
  9 10  1  0
 10 11  1  0
 11 12  1  0
 12 13  2  0
 13 14  1  0
 14 15  2  0
 15 16  1  0
  2 17  1  0
 17 18  2  0
 18 19  1  0
 19 20  2  0
 20 21  1  0
 21 22  2  0
 22 23  1  0
 23 24  2  0
 24 25  1  0
 25 26  2  0
 11  7  1  0
 16 12  1  0
 26 17  1  0
 25 20  1  0
  3 27  1  0
  4 28  1  0
  4 29  1  0
  8 30  1  0
  8 31  1  0
  9 32  1  0
  9 33  1  0
 10 34  1  0
 10 35  1  0
 11 36  1  1
 14 37  1  0
 15 38  1  0
 16 39  1  0
 18 40  1  0
 19 41  1  0
 21 42  1  0
 22 43  1  0
 23 44  1  0
 24 45  1  0
M  END
>  <smiles>  (8) 
O=C(NCC(=O)N1CCC[C@@H]1c1ncc[nH]1)c1ccc2ccccc2n1

>  <score_type>  (8) 
oracle

>  <origin>  (8) 
autodockgpu

>  <m_score__min__energy>  (8) 
-7.8600000000000003

>  <m_primary>  (8) 
energy

>  <rmsd>  (8) 
3.014699836440936

>  <m_score__min__rmsd>  (8) 
3.014699836440936

>  <meeko>  (8) 
{"free_energy": -7.77, "intermolecular_energy": -9.26, "internal_energy": -1.32, "cluster_size": 6, "cluster_id": 1, "rank_in_cluster": 2}

>  <energy>  (8) 
-7.62

>  <cluster_rmsd>  (8) 
0.11

>  <cluster>  (8) 
2

$$$$

     RDKit          3D

 45 48  0  0  0  0  0  0  0  0999 V2000
  141.2580   71.8380  221.4450 O   0  0  0  0  0  0  0  0  0  0  0  0
  140.5630   72.2670  222.3930 C   0  0  0  0  0  0  0  0  0  0  0  0
  140.0450   73.5980  222.2450 N   0  0  0  0  0  0  0  0  0  0  0  0
  140.2490   74.4430  221.1450 C   0  0  0  0  0  0  0  0  0  0  0  0
  141.1860   75.5320  221.1260 C   0  0  0  0  0  0  0  0  0  0  0  0
  141.4110   76.0410  222.3220 O   0  0  0  0  0  0  0  0  0  0  0  0
  141.9020   76.1620  220.1120 N   0  0  0  0  0  0  0  0  0  0  0  0
  141.5680   77.2640  219.1870 C   0  0  0  0  0  0  0  0  0  0  0  0
  141.8390   76.5950  217.8630 C   0  0  0  0  0  0  0  0  0  0  0  0
  143.0740   75.7790  218.1250 C   0  0  0  0  0  0  0  0  0  0  0  0
  143.2750   75.8800  219.6130 C   0  0  2  0  0  0  0  0  0  0  0  0
  143.8700   74.6480  220.1200 C   0  0  0  0  0  0  0  0  0  0  0  0
  145.1600   74.5230  220.5540 N   0  0  0  0  0  0  0  0  0  0  0  0
  145.3860   73.2760  220.9930 C   0  0  0  0  0  0  0  0  0  0  0  0
  144.2130   72.5770  220.8380 C   0  0  0  0  0  0  0  0  0  0  0  0
  143.3090   73.4180  220.3100 N   0  0  0  0  0  0  0  0  0  0  0  0
  140.2850   71.4650  223.5930 C   0  0  0  0  0  0  0  0  0  0  0  0
  139.6030   70.2860  223.4190 C   0  0  0  0  0  0  0  0  0  0  0  0
  139.3350   69.5180  224.5550 C   0  0  0  0  0  0  0  0  0  0  0  0
  139.7520   69.9450  225.8180 C   0  0  0  0  0  0  0  0  0  0  0  0
  139.5070   69.2160  226.9580 C   0  0  0  0  0  0  0  0  0  0  0  0
  139.9310   69.6550  228.2130 C   0  0  0  0  0  0  0  0  0  0  0  0
  140.6130   70.8570  228.2950 C   0  0  0  0  0  0  0  0  0  0  0  0
  140.8660   71.5980  227.1620 C   0  0  0  0  0  0  0  0  0  0  0  0
  140.4360   71.1410  225.9360 C   0  0  0  0  0  0  0  0  0  0  0  0
  140.6760   71.8540  224.8200 N   0  0  0  0  0  0  0  0  0  0  0  0
  139.4610   73.9130  223.0860 H   0  0  0  0  0  0  0  0  0  0  0  0
  140.5423   73.7841  220.3145 H   0  0  0  0  0  0  0  0  0  0  0  0
  139.2951   74.9904  221.1249 H   0  0  0  0  0  0  0  0  0  0  0  0
  140.5154   77.5694  219.2809 H   0  0  0  0  0  0  0  0  0  0  0  0
  142.1300   78.1942  219.3567 H   0  0  0  0  0  0  0  0  0  0  0  0
  140.9975   75.9504  217.5692 H   0  0  0  0  0  0  0  0  0  0  0  0
  141.9681   77.3132  217.0399 H   0  0  0  0  0  0  0  0  0  0  0  0
  142.9216   74.7326  217.8221 H   0  0  0  0  0  0  0  0  0  0  0  0
  143.9447   76.1386  217.5571 H   0  0  0  0  0  0  0  0  0  0  0  0
  143.9761   76.6604  219.9437 H   0  0  0  0  0  0  0  0  0  0  0  0
  146.3309   72.8867  221.3999 H   0  0  0  0  0  0  0  0  0  0  0  0
  144.0453   71.5216  221.0988 H   0  0  0  0  0  0  0  0  0  0  0  0
  142.3120   73.1450  220.0920 H   0  0  0  0  0  0  0  0  0  0  0  0
  139.2790   69.9577  222.4204 H   0  0  0  0  0  0  0  0  0  0  0  0
  138.7903   68.5677  224.4538 H   0  0  0  0  0  0  0  0  0  0  0  0
  138.9633   68.2631  226.8787 H   0  0  0  0  0  0  0  0  0  0  0  0
  139.7281   69.0601  229.1157 H   0  0  0  0  0  0  0  0  0  0  0  0
  140.9559   71.2235  229.2738 H   0  0  0  0  0  0  0  0  0  0  0  0
  141.4096   72.5514  227.2360 H   0  0  0  0  0  0  0  0  0  0  0  0
  1  2  2  0
  2  3  1  0
  3  4  1  0
  4  5  1  0
  5  6  2  0
  5  7  1  0
  7  8  1  0
  8  9  1  0
  9 10  1  0
 10 11  1  0
 11 12  1  0
 12 13  2  0
 13 14  1  0
 14 15  2  0
 15 16  1  0
  2 17  1  0
 17 18  2  0
 18 19  1  0
 19 20  2  0
 20 21  1  0
 21 22  2  0
 22 23  1  0
 23 24  2  0
 24 25  1  0
 25 26  2  0
 11  7  1  0
 16 12  1  0
 26 17  1  0
 25 20  1  0
  3 27  1  0
  4 28  1  0
  4 29  1  0
  8 30  1  0
  8 31  1  0
  9 32  1  0
  9 33  1  0
 10 34  1  0
 10 35  1  0
 11 36  1  6
 14 37  1  0
 15 38  1  0
 16 39  1  0
 18 40  1  0
 19 41  1  0
 21 42  1  0
 22 43  1  0
 23 44  1  0
 24 45  1  0
M  END
>  <smiles>  (9) 
O=C(NCC(=O)N1CCC[C@@H]1c1ncc[nH]1)c1ccc2ccccc2n1

>  <score_type>  (9) 
oracle

>  <origin>  (9) 
autodockgpu

>  <m_score__min__energy>  (9) 
-7.8600000000000003

>  <m_primary>  (9) 
energy

>  <rmsd>  (9) 
3.443041494610267

>  <m_score__min__rmsd>  (9) 
3.443041494610267

>  <meeko>  (9) 
{"free_energy": -7.55, "intermolecular_energy": -9.04, "internal_energy": -2.14, "cluster_size": 22, "cluster_id": 2, "rank_in_cluster": 7}

>  <energy>  (9) 
-7.62

>  <cluster_rmsd>  (9) 
0.07

>  <cluster>  (9) 
2

$$$$

     RDKit          3D

 45 48  0  0  0  0  0  0  0  0999 V2000
  137.5260   70.8880  221.7470 O   0  0  0  0  0  0  0  0  0  0  0  0
  138.2280   71.4920  222.5900 C   0  0  0  0  0  0  0  0  0  0  0  0
  138.4540   72.8870  222.3410 N   0  0  0  0  0  0  0  0  0  0  0  0
  137.9620   73.6180  221.2510 C   0  0  0  0  0  0  0  0  0  0  0  0
  138.1020   75.0400  221.1020 C   0  0  0  0  0  0  0  0  0  0  0  0
  137.5250   75.5040  220.0090 O   0  0  0  0  0  0  0  0  0  0  0  0
  138.7190   76.0280  221.8650 N   0  0  0  0  0  0  0  0  0  0  0  0
  138.2420   77.3150  222.4100 C   0  0  0  0  0  0  0  0  0  0  0  0
  139.2700   78.2520  221.8280 C   0  0  0  0  0  0  0  0  0  0  0  0
  140.5530   77.4760  221.9300 C   0  0  0  0  0  0  0  0  0  0  0  0
  140.1210   76.1000  222.3570 C   0  0  2  0  0  0  0  0  0  0  0  0
  141.0200   75.0980  221.7940 C   0  0  0  0  0  0  0  0  0  0  0  0
  140.8570   73.7460  221.9100 N   0  0  0  0  0  0  0  0  0  0  0  0
  141.8300   73.1000  221.2490 C   0  0  0  0  0  0  0  0  0  0  0  0
  142.6430   74.0590  220.6930 C   0  0  0  0  0  0  0  0  0  0  0  0
  142.1420   75.2580  221.0310 N   0  0  0  0  0  0  0  0  0  0  0  0
  138.7930   70.8220  223.7710 C   0  0  0  0  0  0  0  0  0  0  0  0
  138.6480   69.4590  223.8520 C   0  0  0  0  0  0  0  0  0  0  0  0
  139.1830   68.8160  224.9720 C   0  0  0  0  0  0  0  0  0  0  0  0
  139.8380   69.5460  225.9660 C   0  0  0  0  0  0  0  0  0  0  0  0
  140.3760   68.9470  227.0810 C   0  0  0  0  0  0  0  0  0  0  0  0
  141.0300   69.6880  228.0670 C   0  0  0  0  0  0  0  0  0  0  0  0
  141.1290   71.0590  227.9030 C   0  0  0  0  0  0  0  0  0  0  0  0
  140.5950   71.6730  226.7910 C   0  0  0  0  0  0  0  0  0  0  0  0
  139.9550   70.9170  225.8340 C   0  0  0  0  0  0  0  0  0  0  0  0
  139.4290   71.5010  224.7430 N   0  0  0  0  0  0  0  0  0  0  0  0
  139.0610   73.3520  223.0910 H   0  0  0  0  0  0  0  0  0  0  0  0
  138.4350   73.1781  220.3606 H   0  0  0  0  0  0  0  0  0  0  0  0
  136.8781   73.5336  221.4182 H   0  0  0  0  0  0  0  0  0  0  0  0
  137.2276   77.5548  222.0586 H   0  0  0  0  0  0  0  0  0  0  0  0
  138.1577   77.3477  223.5063 H   0  0  0  0  0  0  0  0  0  0  0  0
  139.0366   78.4889  220.7795 H   0  0  0  0  0  0  0  0  0  0  0  0
  139.3123   79.2186  222.3513 H   0  0  0  0  0  0  0  0  0  0  0  0
  141.0649   77.4395  220.9570 H   0  0  0  0  0  0  0  0  0  0  0  0
  141.2649   77.9309  222.6344 H   0  0  0  0  0  0  0  0  0  0  0  0
  140.1634   75.9056  223.4389 H   0  0  0  0  0  0  0  0  0  0  0  0
  141.9535   72.0100  221.1675 H   0  0  0  0  0  0  0  0  0  0  0  0
  143.5400   73.8773  220.0828 H   0  0  0  0  0  0  0  0  0  0  0  0
  142.5660   76.1770  220.7290 H   0  0  0  0  0  0  0  0  0  0  0  0
  138.1294   68.8934  223.0639 H   0  0  0  0  0  0  0  0  0  0  0  0
  139.0871   67.7247  225.0713 H   0  0  0  0  0  0  0  0  0  0  0  0
  140.2888   67.8568  227.1988 H   0  0  0  0  0  0  0  0  0  0  0  0
  141.4563   69.1944  228.9528 H   0  0  0  0  0  0  0  0  0  0  0  0
  141.6387   71.6639  228.6675 H   0  0  0  0  0  0  0  0  0  0  0  0
  140.6795   72.7628  226.6681 H   0  0  0  0  0  0  0  0  0  0  0  0
  1  2  2  0
  2  3  1  0
  3  4  1  0
  4  5  1  0
  5  6  2  0
  5  7  1  0
  7  8  1  0
  8  9  1  0
  9 10  1  0
 10 11  1  0
 11 12  1  0
 12 13  2  0
 13 14  1  0
 14 15  2  0
 15 16  1  0
  2 17  1  0
 17 18  2  0
 18 19  1  0
 19 20  2  0
 20 21  1  0
 21 22  2  0
 22 23  1  0
 23 24  2  0
 24 25  1  0
 25 26  2  0
 11  7  1  0
 16 12  1  0
 26 17  1  0
 25 20  1  0
  3 27  1  0
  4 28  1  0
  4 29  1  0
  8 30  1  0
  8 31  1  0
  9 32  1  0
  9 33  1  0
 10 34  1  0
 10 35  1  0
 11 36  1  1
 14 37  1  0
 15 38  1  0
 16 39  1  0
 18 40  1  0
 19 41  1  0
 21 42  1  0
 22 43  1  0
 23 44  1  0
 24 45  1  0
M  END
>  <smiles>  (10) 
O=C(NCC(=O)N1CCC[C@@H]1c1ncc[nH]1)c1ccc2ccccc2n1

>  <score_type>  (10) 
oracle

>  <origin>  (10) 
autodockgpu

>  <m_score__min__energy>  (10) 
-7.8600000000000003

>  <m_primary>  (10) 
energy

>  <rmsd>  (10) 
3.306287521993725

>  <m_score__min__rmsd>  (10) 
3.306287521993725

>  <meeko>  (10) 
{"free_energy": -7.02, "intermolecular_energy": -8.51, "internal_energy": -2.17, "cluster_size": 2, "cluster_id": 4, "rank_in_cluster": 2}

>  <energy>  (10) 
-7.62

>  <cluster_rmsd>  (10) 
0.11

>  <cluster>  (10) 
2

$$$$

     RDKit          3D

 45 48  0  0  0  0  0  0  0  0999 V2000
  140.0830   71.3440  221.2000 O   0  0  0  0  0  0  0  0  0  0  0  0
  139.8800   71.9330  222.2870 C   0  0  0  0  0  0  0  0  0  0  0  0
  139.5350   73.3230  222.1960 N   0  0  0  0  0  0  0  0  0  0  0  0
  139.4070   74.0640  221.0130 C   0  0  0  0  0  0  0  0  0  0  0  0
  140.5040   74.4050  220.1510 C   0  0  0  0  0  0  0  0  0  0  0  0
  140.6040   73.6090  219.1030 O   0  0  0  0  0  0  0  0  0  0  0  0
  141.4830   75.3950  220.1910 N   0  0  0  0  0  0  0  0  0  0  0  0
  141.4370   76.8570  219.9870 C   0  0  0  0  0  0  0  0  0  0  0  0
  142.4660   77.0090  218.8950 C   0  0  0  0  0  0  0  0  0  0  0  0
  143.5420   76.0340  219.2850 C   0  0  0  0  0  0  0  0  0  0  0  0
  142.9450   75.2640  220.4320 C   0  0  2  0  0  0  0  0  0  0  0  0
  143.4480   73.8940  220.4260 C   0  0  0  0  0  0  0  0  0  0  0  0
  144.7650   73.5440  220.3350 N   0  0  0  0  0  0  0  0  0  0  0  0
  144.9000   72.2100  220.3960 C   0  0  0  0  0  0  0  0  0  0  0  0
  143.6370   71.6850  220.5300 C   0  0  0  0  0  0  0  0  0  0  0  0
  142.7720   72.7130  220.5470 N   0  0  0  0  0  0  0  0  0  0  0  0
  139.9850   71.2510  223.5850 C   0  0  0  0  0  0  0  0  0  0  0  0
  139.5760   69.9420  223.6440 C   0  0  0  0  0  0  0  0  0  0  0  0
  139.6730   69.2870  224.8750 C   0  0  0  0  0  0  0  0  0  0  0  0
  140.1710   69.9530  225.9980 C   0  0  0  0  0  0  0  0  0  0  0  0
  140.2800   69.3410  227.2240 C   0  0  0  0  0  0  0  0  0  0  0  0
  140.7800   70.0180  228.3380 C   0  0  0  0  0  0  0  0  0  0  0  0
  141.1690   71.3380  228.1870 C   0  0  0  0  0  0  0  0  0  0  0  0
  141.0640   71.9640  226.9640 C   0  0  0  0  0  0  0  0  0  0  0  0
  140.5680   71.2720  225.8810 C   0  0  0  0  0  0  0  0  0  0  0  0
  140.4600   71.8690  224.6810 N   0  0  0  0  0  0  0  0  0  0  0  0
  139.3750   73.7760  223.1540 H   0  0  0  0  0  0  0  0  0  0  0  0
  138.6996   73.5020  220.3855 H   0  0  0  0  0  0  0  0  0  0  0  0
  139.1454   75.0535  221.4161 H   0  0  0  0  0  0  0  0  0  0  0  0
  140.4419   77.1909  219.6579 H   0  0  0  0  0  0  0  0  0  0  0  0
  141.6320   77.4543  220.8899 H   0  0  0  0  0  0  0  0  0  0  0  0
  142.0391   76.7514  217.9145 H   0  0  0  0  0  0  0  0  0  0  0  0
  142.8378   78.0398  218.7985 H   0  0  0  0  0  0  0  0  0  0  0  0
  143.7822   75.3625  218.4475 H   0  0  0  0  0  0  0  0  0  0  0  0
  144.4838   76.5328  219.5575 H   0  0  0  0  0  0  0  0  0  0  0  0
  143.2061   75.6306  221.4357 H   0  0  0  0  0  0  0  0  0  0  0  0
  145.8423   71.6445  220.3479 H   0  0  0  0  0  0  0  0  0  0  0  0
  143.3810   70.6181  220.6089 H   0  0  0  0  0  0  0  0  0  0  0  0
  141.7270   72.5980  220.6480 H   0  0  0  0  0  0  0  0  0  0  0  0
  139.1857   69.4267  222.7540 H   0  0  0  0  0  0  0  0  0  0  0  0
  139.3544   68.2376  224.9605 H   0  0  0  0  0  0  0  0  0  0  0  0
  139.9656   68.2922  227.3300 H   0  0  0  0  0  0  0  0  0  0  0  0
  140.8629   69.5145  229.3125 H   0  0  0  0  0  0  0  0  0  0  0  0
  141.5653   71.8919  229.0508 H   0  0  0  0  0  0  0  0  0  0  0  0
  141.3753   73.0132  226.8528 H   0  0  0  0  0  0  0  0  0  0  0  0
  1  2  2  0
  2  3  1  0
  3  4  1  0
  4  5  1  0
  5  6  2  0
  5  7  1  0
  7  8  1  0
  8  9  1  0
  9 10  1  0
 10 11  1  0
 11 12  1  0
 12 13  2  0
 13 14  1  0
 14 15  2  0
 15 16  1  0
  2 17  1  0
 17 18  2  0
 18 19  1  0
 19 20  2  0
 20 21  1  0
 21 22  2  0
 22 23  1  0
 23 24  2  0
 24 25  1  0
 25 26  2  0
 11  7  1  0
 16 12  1  0
 26 17  1  0
 25 20  1  0
  3 27  1  0
  4 28  1  0
  4 29  1  0
  8 30  1  0
  8 31  1  0
  9 32  1  0
  9 33  1  0
 10 34  1  0
 10 35  1  0
 11 36  1  1
 14 37  1  0
 15 38  1  0
 16 39  1  0
 18 40  1  0
 19 41  1  0
 21 42  1  0
 22 43  1  0
 23 44  1  0
 24 45  1  0
M  END
>  <smiles>  (11) 
O=C(NCC(=O)N1CCC[C@@H]1c1ncc[nH]1)c1ccc2ccccc2n1

>  <score_type>  (11) 
oracle

>  <origin>  (11) 
autodockgpu

>  <m_score__min__energy>  (11) 
-7.8600000000000003

>  <m_primary>  (11) 
energy

>  <rmsd>  (11) 
3.687210311807928

>  <m_score__min__rmsd>  (11) 
3.687210311807928

>  <meeko>  (11) 
{"free_energy": -6.93, "intermolecular_energy": -8.42, "internal_energy": -2.73, "cluster_size": 22, "cluster_id": 2, "rank_in_cluster": 11}

>  <energy>  (11) 
-7.62

>  <cluster_rmsd>  (11) 
0.04

>  <cluster>  (11) 
2

$$$$

     RDKit          3D

 45 48  0  0  0  0  0  0  0  0999 V2000
  140.5050   71.6770  221.2630 O   0  0  0  0  0  0  0  0  0  0  0  0
  140.1740   72.1820  222.3610 C   0  0  0  0  0  0  0  0  0  0  0  0
  139.8270   73.5750  222.3370 N   0  0  0  0  0  0  0  0  0  0  0  0
  139.8270   74.4030  221.2060 C   0  0  0  0  0  0  0  0  0  0  0  0
  140.9720   75.1350  220.7410 C   0  0  0  0  0  0  0  0  0  0  0  0
  142.0640   74.8850  221.4400 O   0  0  0  0  0  0  0  0  0  0  0  0
  141.1710   76.0510  219.7120 N   0  0  0  0  0  0  0  0  0  0  0  0
  141.3310   75.8960  218.2510 C   0  0  0  0  0  0  0  0  0  0  0  0
  142.6500   76.6000  218.0500 C   0  0  0  0  0  0  0  0  0  0  0  0
  142.5690   77.7770  218.9810 C   0  0  0  0  0  0  0  0  0  0  0  0
  141.3200   77.5290  219.7830 C   0  0  2  0  0  0  0  0  0  0  0  0
  141.4790   78.0660  221.1300 C   0  0  0  0  0  0  0  0  0  0  0  0
  141.8150   79.3570  221.4240 N   0  0  0  0  0  0  0  0  0  0  0  0
  141.8420   79.5420  222.7530 C   0  0  0  0  0  0  0  0  0  0  0  0
  141.5150   78.3400  223.3320 C   0  0  0  0  0  0  0  0  0  0  0  0
  141.2990   77.4600  222.3410 N   0  0  0  0  0  0  0  0  0  0  0  0
  140.1380   71.4030  223.6070 C   0  0  0  0  0  0  0  0  0  0  0  0
  139.5980   70.1420  223.5470 C   0  0  0  0  0  0  0  0  0  0  0  0
  139.5610   69.3960  224.7280 C   0  0  0  0  0  0  0  0  0  0  0  0
  140.0580   69.9260  225.9210 C   0  0  0  0  0  0  0  0  0  0  0  0
  140.0380   69.2220  227.1020 C   0  0  0  0  0  0  0  0  0  0  0  0
  140.5390   69.7640  228.2870 C   0  0  0  0  0  0  0  0  0  0  0  0
  141.0650   71.0440  228.2550 C   0  0  0  0  0  0  0  0  0  0  0  0
  141.0920   71.7620  227.0790 C   0  0  0  0  0  0  0  0  0  0  0  0
  140.5910   71.2020  225.9240 C   0  0  0  0  0  0  0  0  0  0  0  0
  140.6100   71.8900  224.7690 N   0  0  0  0  0  0  0  0  0  0  0  0
  139.5550   73.9530  223.3020 H   0  0  0  0  0  0  0  0  0  0  0  0
  139.5248   73.7594  220.3666 H   0  0  0  0  0  0  0  0  0  0  0  0
  139.1824   75.2248  221.5513 H   0  0  0  0  0  0  0  0  0  0  0  0
  141.3854   74.8373  217.9573 H   0  0  0  0  0  0  0  0  0  0  0  0
  140.4995   76.2945  217.6512 H   0  0  0  0  0  0  0  0  0  0  0  0
  143.4905   75.9435  218.3194 H   0  0  0  0  0  0  0  0  0  0  0  0
  142.8221   76.8939  217.0041 H   0  0  0  0  0  0  0  0  0  0  0  0
  143.4516   77.8174  219.6362 H   0  0  0  0  0  0  0  0  0  0  0  0
  142.5413   78.7370  218.4446 H   0  0  0  0  0  0  0  0  0  0  0  0
  140.4124   78.0277  219.4122 H   0  0  0  0  0  0  0  0  0  0  0  0
  142.0806   80.4783  223.2788 H   0  0  0  0  0  0  0  0  0  0  0  0
  141.4432   78.1357  224.4105 H   0  0  0  0  0  0  0  0  0  0  0  0
  141.0220   76.4530  222.5010 H   0  0  0  0  0  0  0  0  0  0  0  0
  139.2084   69.7336  222.6029 H   0  0  0  0  0  0  0  0  0  0  0  0
  139.1363   68.3813  224.7181 H   0  0  0  0  0  0  0  0  0  0  0  0
  139.6165   68.2060  227.1134 H   0  0  0  0  0  0  0  0  0  0  0  0
  140.5163   69.1877  229.2237 H   0  0  0  0  0  0  0  0  0  0  0  0
  141.4650   71.4921  229.1765 H   0  0  0  0  0  0  0  0  0  0  0  0
  141.5120   72.7785  227.0624 H   0  0  0  0  0  0  0  0  0  0  0  0
  1  2  2  0
  2  3  1  0
  3  4  1  0
  4  5  1  0
  5  6  2  0
  5  7  1  0
  7  8  1  0
  8  9  1  0
  9 10  1  0
 10 11  1  0
 11 12  1  0
 12 13  2  0
 13 14  1  0
 14 15  2  0
 15 16  1  0
  2 17  1  0
 17 18  2  0
 18 19  1  0
 19 20  2  0
 20 21  1  0
 21 22  2  0
 22 23  1  0
 23 24  2  0
 24 25  1  0
 25 26  2  0
 11  7  1  0
 16 12  1  0
 26 17  1  0
 25 20  1  0
  3 27  1  0
  4 28  1  0
  4 29  1  0
  8 30  1  0
  8 31  1  0
  9 32  1  0
  9 33  1  0
 10 34  1  0
 10 35  1  0
 11 36  1  6
 14 37  1  0
 15 38  1  0
 16 39  1  0
 18 40  1  0
 19 41  1  0
 21 42  1  0
 22 43  1  0
 23 44  1  0
 24 45  1  0
M  END
>  <smiles>  (12) 
O=C(NCC(=O)N1CCC[C@@H]1c1ncc[nH]1)c1ccc2ccccc2n1

>  <score_type>  (12) 
oracle

>  <origin>  (12) 
autodockgpu

>  <m_score__min__energy>  (12) 
-7.8600000000000003

>  <m_primary>  (12) 
energy

>  <rmsd>  (12) 
1.709921180102705

>  <m_score__min__rmsd>  (12) 
1.709921180102705

>  <meeko>  (12) 
{"free_energy": -7.29, "intermolecular_energy": -8.79, "internal_energy": -1.78, "cluster_size": 6, "cluster_id": 1, "rank_in_cluster": 4}

>  <energy>  (12) 
-7.62

>  <cluster_rmsd>  (12) 
0.06

>  <cluster>  (12) 
2

$$$$

     RDKit          3D

 45 48  0  0  0  0  0  0  0  0999 V2000
  141.1230   71.6680  221.3940 O   0  0  0  0  0  0  0  0  0  0  0  0
  140.5170   72.1490  222.3790 C   0  0  0  0  0  0  0  0  0  0  0  0
  140.0870   73.5130  222.2510 N   0  0  0  0  0  0  0  0  0  0  0  0
  140.2850   74.3370  221.1350 C   0  0  0  0  0  0  0  0  0  0  0  0
  141.0680   75.5410  221.1490 C   0  0  0  0  0  0  0  0  0  0  0  0
  141.0690   76.1430  222.3240 O   0  0  0  0  0  0  0  0  0  0  0  0
  141.8220   76.2070  220.1850 N   0  0  0  0  0  0  0  0  0  0  0  0
  141.5320   77.3590  219.3090 C   0  0  0  0  0  0  0  0  0  0  0  0
  141.8240   76.7510  217.9600 C   0  0  0  0  0  0  0  0  0  0  0  0
  143.0350   75.8980  218.2110 C   0  0  0  0  0  0  0  0  0  0  0  0
  143.2010   75.9220  219.7060 C   0  0  2  0  0  0  0  0  0  0  0  0
  143.7600   74.6540  220.1650 C   0  0  0  0  0  0  0  0  0  0  0  0
  145.0660   74.4550  220.5130 N   0  0  0  0  0  0  0  0  0  0  0  0
  145.2520   73.1930  220.9290 C   0  0  0  0  0  0  0  0  0  0  0  0
  144.0340   72.5610  220.8480 C   0  0  0  0  0  0  0  0  0  0  0  0
  143.1450   73.4540  220.3860 N   0  0  0  0  0  0  0  0  0  0  0  0
  140.2530   71.3720  223.5990 C   0  0  0  0  0  0  0  0  0  0  0  0
  139.6270   70.1600  223.4510 C   0  0  0  0  0  0  0  0  0  0  0  0
  139.3740   69.4160  224.6070 C   0  0  0  0  0  0  0  0  0  0  0  0
  139.7510   69.9000  225.8620 C   0  0  0  0  0  0  0  0  0  0  0  0
  139.5180   69.1960  227.0200 C   0  0  0  0  0  0  0  0  0  0  0  0
  139.9000   69.6910  228.2680 C   0  0  0  0  0  0  0  0  0  0  0  0
  140.5270   70.9250  228.3220 C   0  0  0  0  0  0  0  0  0  0  0  0
  140.7670   71.6410  227.1700 C   0  0  0  0  0  0  0  0  0  0  0  0
  140.3790   71.1280  225.9520 C   0  0  0  0  0  0  0  0  0  0  0  0
  140.6060   71.8160  224.8190 N   0  0  0  0  0  0  0  0  0  0  0  0
  139.5770   73.8720  223.1230 H   0  0  0  0  0  0  0  0  0  0  0  0
  140.7422   73.6941  220.3684 H   0  0  0  0  0  0  0  0  0  0  0  0
  139.2741   74.7492  221.0003 H   0  0  0  0  0  0  0  0  0  0  0  0
  140.4832   77.6800  219.3925 H   0  0  0  0  0  0  0  0  0  0  0  0
  142.1066   78.2685  219.5386 H   0  0  0  0  0  0  0  0  0  0  0  0
  140.9779   76.1394  217.6135 H   0  0  0  0  0  0  0  0  0  0  0  0
  141.9883   77.5064  217.1775 H   0  0  0  0  0  0  0  0  0  0  0  0
  142.8695   74.8710  217.8534 H   0  0  0  0  0  0  0  0  0  0  0  0
  143.9265   76.2667  217.6825 H   0  0  0  0  0  0  0  0  0  0  0  0
  143.9083   76.6708  220.0921 H   0  0  0  0  0  0  0  0  0  0  0  0
  146.1988   72.7488  221.2699 H   0  0  0  0  0  0  0  0  0  0  0  0
  143.8258   71.5140  221.1135 H   0  0  0  0  0  0  0  0  0  0  0  0
  142.1230   73.2390  220.2330 H   0  0  0  0  0  0  0  0  0  0  0  0
  139.3347   69.7872  222.4582 H   0  0  0  0  0  0  0  0  0  0  0  0
  138.8731   68.4399  224.5277 H   0  0  0  0  0  0  0  0  0  0  0  0
  139.0179   68.2180  226.9614 H   0  0  0  0  0  0  0  0  0  0  0  0
  139.7079   69.1156  229.1856 H   0  0  0  0  0  0  0  0  0  0  0  0
  140.8361   71.3370  229.2940 H   0  0  0  0  0  0  0  0  0  0  0  0
  141.2670   72.6194  227.2226 H   0  0  0  0  0  0  0  0  0  0  0  0
  1  2  2  0
  2  3  1  0
  3  4  1  0
  4  5  1  0
  5  6  2  0
  5  7  1  0
  7  8  1  0
  8  9  1  0
  9 10  1  0
 10 11  1  0
 11 12  1  0
 12 13  2  0
 13 14  1  0
 14 15  2  0
 15 16  1  0
  2 17  1  0
 17 18  2  0
 18 19  1  0
 19 20  2  0
 20 21  1  0
 21 22  2  0
 22 23  1  0
 23 24  2  0
 24 25  1  0
 25 26  2  0
 11  7  1  0
 16 12  1  0
 26 17  1  0
 25 20  1  0
  3 27  1  0
  4 28  1  0
  4 29  1  0
  8 30  1  0
  8 31  1  0
  9 32  1  0
  9 33  1  0
 10 34  1  0
 10 35  1  0
 11 36  1  6
 14 37  1  0
 15 38  1  0
 16 39  1  0
 18 40  1  0
 19 41  1  0
 21 42  1  0
 22 43  1  0
 23 44  1  0
 24 45  1  0
M  END
>  <smiles>  (13) 
O=C(NCC(=O)N1CCC[C@@H]1c1ncc[nH]1)c1ccc2ccccc2n1

>  <score_type>  (13) 
oracle

>  <origin>  (13) 
autodockgpu

>  <m_score__min__energy>  (13) 
-7.8600000000000003

>  <m_primary>  (13) 
energy

>  <rmsd>  (13) 
3.4205332201260537

>  <m_score__min__rmsd>  (13) 
3.4205332201260537

>  <meeko>  (13) 
{"free_energy": -7.62, "intermolecular_energy": -9.11, "internal_energy": -2.12, "cluster_size": 22, "cluster_id": 2, "rank_in_cluster": 2}

>  <energy>  (13) 
-7.55

>  <cluster_rmsd>  (13) 
0.12

>  <cluster>  (13) 
2

$$$$

     RDKit          3D

 45 48  0  0  0  0  0  0  0  0999 V2000
  138.9770   75.0200  222.1090 O   0  0  0  0  0  0  0  0  0  0  0  0
  140.0840   75.6060  222.0780 C   0  0  0  0  0  0  0  0  0  0  0  0
  141.2060   74.8130  221.6640 N   0  0  0  0  0  0  0  0  0  0  0  0
  141.1680   73.4600  221.2970 C   0  0  0  0  0  0  0  0  0  0  0  0
  142.1190   72.8330  220.4220 C   0  0  0  0  0  0  0  0  0  0  0  0
  141.6060   71.8290  219.7370 O   0  0  0  0  0  0  0  0  0  0  0  0
  143.4650   73.0600  220.1490 N   0  0  0  0  0  0  0  0  0  0  0  0
  144.6810   72.2500  220.3670 C   0  0  0  0  0  0  0  0  0  0  0  0
  145.5090   73.2190  221.1720 C   0  0  0  0  0  0  0  0  0  0  0  0
  145.2310   74.5460  220.5240 C   0  0  0  0  0  0  0  0  0  0  0  0
  144.1170   74.2580  219.5550 C   0  0  2  0  0  0  0  0  0  0  0  0
  143.2520   75.4270  219.4280 C   0  0  0  0  0  0  0  0  0  0  0  0
  141.9620   75.4010  218.9800 N   0  0  0  0  0  0  0  0  0  0  0  0
  141.4280   76.6310  219.0190 C   0  0  0  0  0  0  0  0  0  0  0  0
  142.3990   77.4740  219.5050 C   0  0  0  0  0  0  0  0  0  0  0  0
  143.4930   76.7330  219.7470 N   0  0  0  0  0  0  0  0  0  0  0  0
  140.2370   77.0220  222.4410 C   0  0  0  0  0  0  0  0  0  0  0  0
  139.0890   77.7540  222.6220 C   0  0  0  0  0  0  0  0  0  0  0  0
  139.2270   79.1010  222.9670 C   0  0  0  0  0  0  0  0  0  0  0  0
  140.4940   79.6700  223.1210 C   0  0  0  0  0  0  0  0  0  0  0  0
  140.6680   80.9910  223.4600 C   0  0  0  0  0  0  0  0  0  0  0  0
  141.9390   81.5470  223.6110 C   0  0  0  0  0  0  0  0  0  0  0  0
  143.0420   80.7340  223.4100 C   0  0  0  0  0  0  0  0  0  0  0  0
  142.8830   79.4090  223.0700 C   0  0  0  0  0  0  0  0  0  0  0  0
  141.6160   78.8860  222.9280 C   0  0  0  0  0  0  0  0  0  0  0  0
  141.4440   77.5940  222.5950 N   0  0  0  0  0  0  0  0  0  0  0  0
  142.1250   75.3630  221.6580 H   0  0  0  0  0  0  0  0  0  0  0  0
  141.2144   72.8951  222.2397 H   0  0  0  0  0  0  0  0  0  0  0  0
  140.2656   73.4418  220.6683 H   0  0  0  0  0  0  0  0  0  0  0  0
  144.4629   71.3326  220.9334 H   0  0  0  0  0  0  0  0  0  0  0  0
  145.1627   71.8857  219.4476 H   0  0  0  0  0  0  0  0  0  0  0  0
  145.1942   73.2232  222.2260 H   0  0  0  0  0  0  0  0  0  0  0  0
  146.5788   72.9631  221.1794 H   0  0  0  0  0  0  0  0  0  0  0  0
  144.9147   75.2871  221.2728 H   0  0  0  0  0  0  0  0  0  0  0  0
  146.1192   74.9682  220.0312 H   0  0  0  0  0  0  0  0  0  0  0  0
  144.4310   74.0557  218.5204 H   0  0  0  0  0  0  0  0  0  0  0  0
  140.4075   76.9116  218.7192 H   0  0  0  0  0  0  0  0  0  0  0  0
  142.2985   78.5575  219.6663 H   0  0  0  0  0  0  0  0  0  0  0  0
  144.3930   77.1260  220.1360 H   0  0  0  0  0  0  0  0  0  0  0  0
  138.0963   77.2962  222.4997 H   0  0  0  0  0  0  0  0  0  0  0  0
  138.3299   79.7193  223.1188 H   0  0  0  0  0  0  0  0  0  0  0  0
  139.7831   81.6255  223.6161 H   0  0  0  0  0  0  0  0  0  0  0  0
  142.0618   82.6057  223.8831 H   0  0  0  0  0  0  0  0  0  0  0  0
  144.0539   81.1502  223.5229 H   0  0  0  0  0  0  0  0  0  0  0  0
  143.7645   78.7702  222.9123 H   0  0  0  0  0  0  0  0  0  0  0  0
  1  2  2  0
  2  3  1  0
  3  4  1  0
  4  5  1  0
  5  6  2  0
  5  7  1  0
  7  8  1  0
  8  9  1  0
  9 10  1  0
 10 11  1  0
 11 12  1  0
 12 13  2  0
 13 14  1  0
 14 15  2  0
 15 16  1  0
  2 17  1  0
 17 18  2  0
 18 19  1  0
 19 20  2  0
 20 21  1  0
 21 22  2  0
 22 23  1  0
 23 24  2  0
 24 25  1  0
 25 26  2  0
 11  7  1  0
 16 12  1  0
 26 17  1  0
 25 20  1  0
  3 27  1  0
  4 28  1  0
  4 29  1  0
  8 30  1  0
  8 31  1  0
  9 32  1  0
  9 33  1  0
 10 34  1  0
 10 35  1  0
 11 36  1  6
 14 37  1  0
 15 38  1  0
 16 39  1  0
 18 40  1  0
 19 41  1  0
 21 42  1  0
 22 43  1  0
 23 44  1  0
 24 45  1  0
M  END
>  <smiles>  (14) 
O=C(NCC(=O)N1CCC[C@@H]1c1ncc[nH]1)c1ccc2ccccc2n1

>  <score_type>  (14) 
oracle

>  <origin>  (14) 
autodockgpu

>  <m_score__min__energy>  (14) 
-7.8600000000000003

>  <m_primary>  (14) 
energy

>  <rmsd>  (14) 
7.413060723628059

>  <m_score__min__rmsd>  (14) 
7.413060723628059

>  <meeko>  (14) 
{"free_energy": -7.24, "intermolecular_energy": -8.73, "internal_energy": -2.26, "cluster_size": 17, "cluster_id": 3, "rank_in_cluster": 2}

>  <energy>  (14) 
-7.4

>  <cluster_rmsd>  (14) 
0.33

>  <cluster>  (14) 
2

$$$$

     RDKit          3D

 45 48  0  0  0  0  0  0  0  0999 V2000
  139.5510   70.9720  221.3500 O   0  0  0  0  0  0  0  0  0  0  0  0
  139.6880   71.5140  222.4710 C   0  0  0  0  0  0  0  0  0  0  0  0
  139.7930   72.9450  222.4730 N   0  0  0  0  0  0  0  0  0  0  0  0
  139.7530   73.7740  221.3430 C   0  0  0  0  0  0  0  0  0  0  0  0
  140.5130   74.9850  221.2030 C   0  0  0  0  0  0  0  0  0  0  0  0
  140.8090   75.5460  222.3610 O   0  0  0  0  0  0  0  0  0  0  0  0
  140.9990   75.6910  220.1060 N   0  0  0  0  0  0  0  0  0  0  0  0
  141.4120   75.2730  218.7500 C   0  0  0  0  0  0  0  0  0  0  0  0
  142.8130   75.8290  218.7120 C   0  0  0  0  0  0  0  0  0  0  0  0
  142.6880   77.1520  219.4130 C   0  0  0  0  0  0  0  0  0  0  0  0
  141.2920   77.1430  219.9740 C   0  0  2  0  0  0  0  0  0  0  0  0
  141.2530   77.8920  221.2260 C   0  0  0  0  0  0  0  0  0  0  0  0
  142.1820   78.8160  221.6140 N   0  0  0  0  0  0  0  0  0  0  0  0
  141.8410   79.3550  222.7950 C   0  0  0  0  0  0  0  0  0  0  0  0
  140.6620   78.7630  223.1790 C   0  0  0  0  0  0  0  0  0  0  0  0
  140.3200   77.8830  222.2230 N   0  0  0  0  0  0  0  0  0  0  0  0
  139.7400   70.7390  223.7190 C   0  0  0  0  0  0  0  0  0  0  0  0
  139.2230   69.4670  223.6940 C   0  0  0  0  0  0  0  0  0  0  0  0
  139.2690   68.7250  224.8770 C   0  0  0  0  0  0  0  0  0  0  0  0
  139.8250   69.2680  226.0370 C   0  0  0  0  0  0  0  0  0  0  0  0
  139.8870   68.5680  227.2190 C   0  0  0  0  0  0  0  0  0  0  0  0
  140.4470   69.1240  228.3710 C   0  0  0  0  0  0  0  0  0  0  0  0
  140.9450   70.4130  228.3050 C   0  0  0  0  0  0  0  0  0  0  0  0
  140.8890   71.1280  227.1280 C   0  0  0  0  0  0  0  0  0  0  0  0
  140.3320   70.5540  226.0060 C   0  0  0  0  0  0  0  0  0  0  0  0
  140.2700   71.2390  224.8500 N   0  0  0  0  0  0  0  0  0  0  0  0
  139.9110   73.3530  223.4570 H   0  0  0  0  0  0  0  0  0  0  0  0
  140.0498   73.1373  220.4966 H   0  0  0  0  0  0  0  0  0  0  0  0
  138.7325   74.1775  221.4182 H   0  0  0  0  0  0  0  0  0  0  0  0
  141.4054   74.1784  218.6418 H   0  0  0  0  0  0  0  0  0  0  0  0
  140.7553   75.6234  217.9401 H   0  0  0  0  0  0  0  0  0  0  0  0
  143.5125   75.1674  219.2439 H   0  0  0  0  0  0  0  0  0  0  0  0
  143.2076   75.9230  217.6895 H   0  0  0  0  0  0  0  0  0  0  0  0
  143.4316   77.2381  220.2190 H   0  0  0  0  0  0  0  0  0  0  0  0
  142.8657   78.0036  218.7398 H   0  0  0  0  0  0  0  0  0  0  0  0
  140.5303   77.6376  219.3533 H   0  0  0  0  0  0  0  0  0  0  0  0
  142.3989   80.1239  223.3496 H   0  0  0  0  0  0  0  0  0  0  0  0
  140.1002   78.9716  224.1014 H   0  0  0  0  0  0  0  0  0  0  0  0
  139.4480   77.2900  222.2570 H   0  0  0  0  0  0  0  0  0  0  0  0
  138.7880   69.0471  222.7750 H   0  0  0  0  0  0  0  0  0  0  0  0
  138.8631   67.7028  224.8947 H   0  0  0  0  0  0  0  0  0  0  0  0
  139.4855   67.5446  227.2580 H   0  0  0  0  0  0  0  0  0  0  0  0
  140.4911   68.5507  229.3087 H   0  0  0  0  0  0  0  0  0  0  0  0
  141.3899   70.8716  229.2004 H   0  0  0  0  0  0  0  0  0  0  0  0
  141.2873   72.1525  227.0846 H   0  0  0  0  0  0  0  0  0  0  0  0
  1  2  2  0
  2  3  1  0
  3  4  1  0
  4  5  1  0
  5  6  2  0
  5  7  1  0
  7  8  1  0
  8  9  1  0
  9 10  1  0
 10 11  1  0
 11 12  1  0
 12 13  2  0
 13 14  1  0
 14 15  2  0
 15 16  1  0
  2 17  1  0
 17 18  2  0
 18 19  1  0
 19 20  2  0
 20 21  1  0
 21 22  2  0
 22 23  1  0
 23 24  2  0
 24 25  1  0
 25 26  2  0
 11  7  1  0
 16 12  1  0
 26 17  1  0
 25 20  1  0
  3 27  1  0
  4 28  1  0
  4 29  1  0
  8 30  1  0
  8 31  1  0
  9 32  1  0
  9 33  1  0
 10 34  1  0
 10 35  1  0
 11 36  1  6
 14 37  1  0
 15 38  1  0
 16 39  1  0
 18 40  1  0
 19 41  1  0
 21 42  1  0
 22 43  1  0
 23 44  1  0
 24 45  1  0
M  END
>  <smiles>  (15) 
O=C(NCC(=O)N1CCC[C@@H]1c1ncc[nH]1)c1ccc2ccccc2n1

>  <score_type>  (15) 
oracle

>  <origin>  (15) 
autodockgpu

>  <m_score__min__energy>  (15) 
-7.8600000000000003

>  <m_primary>  (15) 
energy

>  <rmsd>  (15) 
1.60406471985318

>  <m_score__min__rmsd>  (15) 
1.60406471985318

>  <meeko>  (15) 
{"free_energy": -7.23, "intermolecular_energy": -8.72, "internal_energy": -1.6, "cluster_size": 6, "cluster_id": 1, "rank_in_cluster": 6}

>  <energy>  (15) 
-7.11

>  <cluster_rmsd>  (15) 
0.79

>  <cluster>  (15) 
2

$$$$

     RDKit          3D

 45 48  0  0  0  0  0  0  0  0999 V2000
  138.9680   74.9720  222.0320 O   0  0  0  0  0  0  0  0  0  0  0  0
  140.0760   75.5560  222.0010 C   0  0  0  0  0  0  0  0  0  0  0  0
  141.1920   74.7700  221.5570 N   0  0  0  0  0  0  0  0  0  0  0  0
  141.1470   73.4260  221.1630 C   0  0  0  0  0  0  0  0  0  0  0  0
  142.1790   72.7710  220.4070 C   0  0  0  0  0  0  0  0  0  0  0  0
  141.7680   71.6570  219.8310 O   0  0  0  0  0  0  0  0  0  0  0  0
  143.5170   73.0630  220.1580 N   0  0  0  0  0  0  0  0  0  0  0  0
  144.7710   72.3420  220.4560 C   0  0  0  0  0  0  0  0  0  0  0  0
  145.5160   73.4050  221.2250 C   0  0  0  0  0  0  0  0  0  0  0  0
  145.1800   74.6730  220.4910 C   0  0  0  0  0  0  0  0  0  0  0  0
  144.1150   74.2620  219.5110 C   0  0  2  0  0  0  0  0  0  0  0  0
  143.1870   75.3670  219.2920 C   0  0  0  0  0  0  0  0  0  0  0  0
  143.1290   76.5020  220.0500 N   0  0  0  0  0  0  0  0  0  0  0  0
  142.1980   77.3400  219.5670 C   0  0  0  0  0  0  0  0  0  0  0  0
  141.6410   76.7300  218.4690 C   0  0  0  0  0  0  0  0  0  0  0  0
  142.2480   75.5420  218.3150 N   0  0  0  0  0  0  0  0  0  0  0  0
  140.2350   76.9650  222.3920 C   0  0  0  0  0  0  0  0  0  0  0  0
  139.0900   77.6960  222.5900 C   0  0  0  0  0  0  0  0  0  0  0  0
  139.2340   79.0360  222.9620 C   0  0  0  0  0  0  0  0  0  0  0  0
  140.5030   79.5980  223.1230 C   0  0  0  0  0  0  0  0  0  0  0  0
  140.6830   80.9110  223.4880 C   0  0  0  0  0  0  0  0  0  0  0  0
  141.9570   81.4600  223.6460 C   0  0  0  0  0  0  0  0  0  0  0  0
  143.0560   80.6470  223.4260 C   0  0  0  0  0  0  0  0  0  0  0  0
  142.8910   79.3290  223.0590 C   0  0  0  0  0  0  0  0  0  0  0  0
  141.6220   78.8140  222.9110 C   0  0  0  0  0  0  0  0  0  0  0  0
  141.4450   77.5290  222.5530 N   0  0  0  0  0  0  0  0  0  0  0  0
  142.1120   75.3200  221.5530 H   0  0  0  0  0  0  0  0  0  0  0  0
  141.0467   72.8469  222.0928 H   0  0  0  0  0  0  0  0  0  0  0  0
  140.3342   73.4545  220.4224 H   0  0  0  0  0  0  0  0  0  0  0  0
  144.5901   71.4471  221.0695 H   0  0  0  0  0  0  0  0  0  0  0  0
  145.3011   71.9553  219.5731 H   0  0  0  0  0  0  0  0  0  0  0  0
  145.1691   73.4511  222.2679 H   0  0  0  0  0  0  0  0  0  0  0  0
  146.5983   73.2153  221.2774 H   0  0  0  0  0  0  0  0  0  0  0  0
  144.7977   75.4359  221.1852 H   0  0  0  0  0  0  0  0  0  0  0  0
  146.0564   75.1189  219.9979 H   0  0  0  0  0  0  0  0  0  0  0  0
  144.4716   74.0194  218.4991 H   0  0  0  0  0  0  0  0  0  0  0  0
  141.9318   78.3271  219.9730 H   0  0  0  0  0  0  0  0  0  0  0  0
  140.8433   77.1400  217.8322 H   0  0  0  0  0  0  0  0  0  0  0  0
  142.0200   74.8630  217.5390 H   0  0  0  0  0  0  0  0  0  0  0  0
  138.0955   77.2440  222.4607 H   0  0  0  0  0  0  0  0  0  0  0  0
  138.3395   79.6539  223.1296 H   0  0  0  0  0  0  0  0  0  0  0  0
  139.8009   81.5453  223.6600 H   0  0  0  0  0  0  0  0  0  0  0  0
  142.0845   82.5128  223.9381 H   0  0  0  0  0  0  0  0  0  0  0  0
  144.0698   81.0568  223.5452 H   0  0  0  0  0  0  0  0  0  0  0  0
  143.7696   78.6904  222.8849 H   0  0  0  0  0  0  0  0  0  0  0  0
  1  2  2  0
  2  3  1  0
  3  4  1  0
  4  5  1  0
  5  6  2  0
  5  7  1  0
  7  8  1  0
  8  9  1  0
  9 10  1  0
 10 11  1  0
 11 12  1  0
 12 13  2  0
 13 14  1  0
 14 15  2  0
 15 16  1  0
  2 17  1  0
 17 18  2  0
 18 19  1  0
 19 20  2  0
 20 21  1  0
 21 22  2  0
 22 23  1  0
 23 24  2  0
 24 25  1  0
 25 26  2  0
 11  7  1  0
 16 12  1  0
 26 17  1  0
 25 20  1  0
  3 27  1  0
  4 28  1  0
  4 29  1  0
  8 30  1  0
  8 31  1  0
  9 32  1  0
  9 33  1  0
 10 34  1  0
 10 35  1  0
 11 36  1  6
 14 37  1  0
 15 38  1  0
 16 39  1  0
 18 40  1  0
 19 41  1  0
 21 42  1  0
 22 43  1  0
 23 44  1  0
 24 45  1  0
M  END
>  <smiles>  (16) 
O=C(NCC(=O)N1CCC[C@@H]1c1ncc[nH]1)c1ccc2ccccc2n1

>  <score_type>  (16) 
oracle

>  <origin>  (16) 
autodockgpu

>  <m_score__min__energy>  (16) 
-7.8600000000000003

>  <m_primary>  (16) 
energy

>  <rmsd>  (16) 
7.406074090699122

>  <m_score__min__rmsd>  (16) 
7.406074090699122

>  <meeko>  (16) 
{"free_energy": -6.5, "intermolecular_energy": -7.99, "internal_energy": -2.8, "cluster_size": 17, "cluster_id": 3, "rank_in_cluster": 16}

>  <energy>  (16) 
-7.05

>  <cluster_rmsd>  (16) 
0.84

>  <cluster>  (16) 
2

$$$$

     RDKit          3D

 45 48  0  0  0  0  0  0  0  0999 V2000
  141.1790   71.3520  221.3580 O   0  0  0  0  0  0  0  0  0  0  0  0
  140.6550   71.9270  222.3400 C   0  0  0  0  0  0  0  0  0  0  0  0
  140.3850   73.3280  222.1810 N   0  0  0  0  0  0  0  0  0  0  0  0
  140.6540   74.0930  221.0380 C   0  0  0  0  0  0  0  0  0  0  0  0
  141.0850   75.4630  221.0660 C   0  0  0  0  0  0  0  0  0  0  0  0
  140.6300   76.1270  222.1130 O   0  0  0  0  0  0  0  0  0  0  0  0
  141.8790   76.2360  220.2230 N   0  0  0  0  0  0  0  0  0  0  0  0
  141.6250   77.4880  219.4800 C   0  0  0  0  0  0  0  0  0  0  0  0
  141.9750   77.0460  218.0810 C   0  0  0  0  0  0  0  0  0  0  0  0
  143.1750   76.1630  218.2790 C   0  0  0  0  0  0  0  0  0  0  0  0
  143.2770   76.0050  219.7710 C   0  0  2  0  0  0  0  0  0  0  0  0
  143.8170   74.6890  220.0970 C   0  0  0  0  0  0  0  0  0  0  0  0
  145.0030   74.4670  220.7380 N   0  0  0  0  0  0  0  0  0  0  0  0
  145.1950   73.1510  220.9230 C   0  0  0  0  0  0  0  0  0  0  0  0
  144.1040   72.5080  220.3880 C   0  0  0  0  0  0  0  0  0  0  0  0
  143.2830   73.4480  219.8940 N   0  0  0  0  0  0  0  0  0  0  0  0
  140.3300   71.2190  223.5870 C   0  0  0  0  0  0  0  0  0  0  0  0
  139.6290   70.0430  223.4790 C   0  0  0  0  0  0  0  0  0  0  0  0
  139.3160   69.3650  224.6600 C   0  0  0  0  0  0  0  0  0  0  0  0
  139.7100   69.8750  225.9000 C   0  0  0  0  0  0  0  0  0  0  0  0
  139.4200   69.2350  227.0820 C   0  0  0  0  0  0  0  0  0  0  0  0
  139.8200   69.7560  228.3140 C   0  0  0  0  0  0  0  0  0  0  0  0
  140.5240   70.9480  228.3270 C   0  0  0  0  0  0  0  0  0  0  0  0
  140.8210   71.6000  227.1510 C   0  0  0  0  0  0  0  0  0  0  0  0
  140.4140   71.0630  225.9490 C   0  0  0  0  0  0  0  0  0  0  0  0
  140.6970   71.6890  224.7920 N   0  0  0  0  0  0  0  0  0  0  0  0
  139.9400   73.7670  223.0510 H   0  0  0  0  0  0  0  0  0  0  0  0
  141.4370   73.5463  220.4921 H   0  0  0  0  0  0  0  0  0  0  0  0
  139.6425   74.2030  220.6200 H   0  0  0  0  0  0  0  0  0  0  0  0
  140.5732   77.8008  219.5569 H   0  0  0  0  0  0  0  0  0  0  0  0
  142.1882   78.3608  219.8419 H   0  0  0  0  0  0  0  0  0  0  0  0
  141.1449   76.4846  217.6273 H   0  0  0  0  0  0  0  0  0  0  0  0
  142.1723   77.8895  217.4031 H   0  0  0  0  0  0  0  0  0  0  0  0
  143.0256   75.1875  217.7930 H   0  0  0  0  0  0  0  0  0  0  0  0
  144.0881   76.5891  217.8378 H   0  0  0  0  0  0  0  0  0  0  0  0
  143.9668   76.6988  220.2738 H   0  0  0  0  0  0  0  0  0  0  0  0
  146.0604   72.6776  221.4099 H   0  0  0  0  0  0  0  0  0  0  0  0
  143.9347   71.4213  220.3683 H   0  0  0  0  0  0  0  0  0  0  0  0
  142.3600   73.2350  219.4280 H   0  0  0  0  0  0  0  0  0  0  0  0
  139.3249   69.6490  222.4981 H   0  0  0  0  0  0  0  0  0  0  0  0
  138.7540   68.4206  224.6132 H   0  0  0  0  0  0  0  0  0  0  0  0
  138.8590   68.2892  227.0563 H   0  0  0  0  0  0  0  0  0  0  0  0
  139.5816   69.2322  229.2514 H   0  0  0  0  0  0  0  0  0  0  0  0
  140.8492   71.3783  229.2857 H   0  0  0  0  0  0  0  0  0  0  0  0
  141.3813   72.5464  227.1711 H   0  0  0  0  0  0  0  0  0  0  0  0
  1  2  2  0
  2  3  1  0
  3  4  1  0
  4  5  1  0
  5  6  2  0
  5  7  1  0
  7  8  1  0
  8  9  1  0
  9 10  1  0
 10 11  1  0
 11 12  1  0
 12 13  2  0
 13 14  1  0
 14 15  2  0
 15 16  1  0
  2 17  1  0
 17 18  2  0
 18 19  1  0
 19 20  2  0
 20 21  1  0
 21 22  2  0
 22 23  1  0
 23 24  2  0
 24 25  1  0
 25 26  2  0
 11  7  1  0
 16 12  1  0
 26 17  1  0
 25 20  1  0
  3 27  1  0
  4 28  1  0
  4 29  1  0
  8 30  1  0
  8 31  1  0
  9 32  1  0
  9 33  1  0
 10 34  1  0
 10 35  1  0
 11 36  1  1
 14 37  1  0
 15 38  1  0
 16 39  1  0
 18 40  1  0
 19 41  1  0
 21 42  1  0
 22 43  1  0
 23 44  1  0
 24 45  1  0
M  END
>  <smiles>  (17) 
O=C(NCC(=O)N1CCC[C@@H]1c1ncc[nH]1)c1ccc2ccccc2n1

>  <score_type>  (17) 
oracle

>  <origin>  (17) 
autodockgpu

>  <m_score__min__energy>  (17) 
-7.8600000000000003

>  <m_primary>  (17) 
energy

>  <rmsd>  (17) 
3.510522854487085

>  <m_score__min__rmsd>  (17) 
3.510522854487085

>  <meeko>  (17) 
{"free_energy": -7.4, "intermolecular_energy": -8.89, "internal_energy": -1.64, "cluster_size": 22, "cluster_id": 2, "rank_in_cluster": 8}

>  <energy>  (17) 
-6.93

>  <cluster_rmsd>  (17) 
0.97

>  <cluster>  (17) 
2

$$$$

     RDKit          3D

 45 48  0  0  0  0  0  0  0  0999 V2000
  141.3740   71.9470  221.5490 O   0  0  0  0  0  0  0  0  0  0  0  0
  140.6320   72.3590  222.4700 C   0  0  0  0  0  0  0  0  0  0  0  0
  140.1150   73.6890  222.3180 N   0  0  0  0  0  0  0  0  0  0  0  0
  140.3670   74.5520  221.2420 C   0  0  0  0  0  0  0  0  0  0  0  0
  140.0810   75.9590  221.2510 C   0  0  0  0  0  0  0  0  0  0  0  0
  139.5550   76.3720  222.3900 O   0  0  0  0  0  0  0  0  0  0  0  0
  140.2380   76.9760  220.3130 N   0  0  0  0  0  0  0  0  0  0  0  0
  140.1050   77.0100  218.8430 C   0  0  0  0  0  0  0  0  0  0  0  0
  141.4630   77.5450  218.4620 C   0  0  0  0  0  0  0  0  0  0  0  0
  141.7450   78.5770  219.5170 C   0  0  0  0  0  0  0  0  0  0  0  0
  140.6380   78.3940  220.5190 C   0  0  2  0  0  0  0  0  0  0  0  0
  141.1220   78.7060  221.8600 C   0  0  0  0  0  0  0  0  0  0  0  0
  142.3740   79.1690  222.1510 N   0  0  0  0  0  0  0  0  0  0  0  0
  142.4940   79.3950  223.4690 C   0  0  0  0  0  0  0  0  0  0  0  0
  141.2890   79.0690  224.0430 C   0  0  0  0  0  0  0  0  0  0  0  0
  140.4720   78.6560  223.0600 N   0  0  0  0  0  0  0  0  0  0  0  0
  140.3020   71.5360  223.6430 C   0  0  0  0  0  0  0  0  0  0  0  0
  139.5690   70.3950  223.4270 C   0  0  0  0  0  0  0  0  0  0  0  0
  139.2520   69.6090  224.5370 C   0  0  0  0  0  0  0  0  0  0  0  0
  139.6720   69.9800  225.8170 C   0  0  0  0  0  0  0  0  0  0  0  0
  139.3790   69.2320  226.9320 C   0  0  0  0  0  0  0  0  0  0  0  0
  139.8050   69.6150  228.2050 C   0  0  0  0  0  0  0  0  0  0  0  0
  140.5400   70.7810  228.3290 C   0  0  0  0  0  0  0  0  0  0  0  0
  140.8420   71.5420  227.2210 C   0  0  0  0  0  0  0  0  0  0  0  0
  140.4080   71.1400  225.9770 C   0  0  0  0  0  0  0  0  0  0  0  0
  140.6940   71.8720  224.8850 N   0  0  0  0  0  0  0  0  0  0  0  0
  139.4900   73.9890  223.1350 H   0  0  0  0  0  0  0  0  0  0  0  0
  141.4454   74.4694  221.0412 H   0  0  0  0  0  0  0  0  0  0  0  0
  139.6250   74.1950  220.5127 H   0  0  0  0  0  0  0  0  0  0  0  0
  139.9313   76.0067  218.4267 H   0  0  0  0  0  0  0  0  0  0  0  0
  139.2558   77.6021  218.4710 H   0  0  0  0  0  0  0  0  0  0  0  0
  142.2193   76.7465  218.4816 H   0  0  0  0  0  0  0  0  0  0  0  0
  141.4892   77.9576  217.4427 H   0  0  0  0  0  0  0  0  0  0  0  0
  142.7257   78.4005  219.9828 H   0  0  0  0  0  0  0  0  0  0  0  0
  141.7787   79.5979  219.1088 H   0  0  0  0  0  0  0  0  0  0  0  0
  139.7734   79.0627  220.3953 H   0  0  0  0  0  0  0  0  0  0  0  0
  143.3872   79.7699  223.9902 H   0  0  0  0  0  0  0  0  0  0  0  0
  141.0390   79.1343  225.1122 H   0  0  0  0  0  0  0  0  0  0  0  0
  139.4740   78.3500  223.2180 H   0  0  0  0  0  0  0  0  0  0  0  0
  139.2431   70.1103  222.4157 H   0  0  0  0  0  0  0  0  0  0  0  0
  138.6655   68.6882  224.4022 H   0  0  0  0  0  0  0  0  0  0  0  0
  138.7937   68.3076  226.8184 H   0  0  0  0  0  0  0  0  0  0  0  0
  139.5625   69.0051  229.0877 H   0  0  0  0  0  0  0  0  0  0  0  0
  140.8865   71.1034  229.3220 H   0  0  0  0  0  0  0  0  0  0  0  0
  141.4274   72.4670  227.3293 H   0  0  0  0  0  0  0  0  0  0  0  0
  1  2  2  0
  2  3  1  0
  3  4  1  0
  4  5  1  0
  5  6  2  0
  5  7  1  0
  7  8  1  0
  8  9  1  0
  9 10  1  0
 10 11  1  0
 11 12  1  0
 12 13  2  0
 13 14  1  0
 14 15  2  0
 15 16  1  0
  2 17  1  0
 17 18  2  0
 18 19  1  0
 19 20  2  0
 20 21  1  0
 21 22  2  0
 22 23  1  0
 23 24  2  0
 24 25  1  0
 25 26  2  0
 11  7  1  0
 16 12  1  0
 26 17  1  0
 25 20  1  0
  3 27  1  0
  4 28  1  0
  4 29  1  0
  8 30  1  0
  8 31  1  0
  9 32  1  0
  9 33  1  0
 10 34  1  0
 10 35  1  0
 11 36  1  6
 14 37  1  0
 15 38  1  0
 16 39  1  0
 18 40  1  0
 19 41  1  0
 21 42  1  0
 22 43  1  0
 23 44  1  0
 24 45  1  0
M  END
>  <smiles>  (18) 
O=C(NCC(=O)N1CCC[C@@H]1c1ncc[nH]1)c1ccc2ccccc2n1

>  <score_type>  (18) 
oracle

>  <origin>  (18) 
autodockgpu

>  <m_score__min__energy>  (18) 
-7.8600000000000003

>  <m_primary>  (18) 
energy

>  <rmsd>  (18) 
1.95795948538874

>  <m_score__min__rmsd>  (18) 
1.95795948538874

>  <meeko>  (18) 
{"free_energy": -7.25, "intermolecular_energy": -8.74, "internal_energy": -1.89, "cluster_size": 6, "cluster_id": 1, "rank_in_cluster": 5}

>  <energy>  (18) 
-6.92

>  <cluster_rmsd>  (18) 
1.01

>  <cluster>  (18) 
2

$$$$

     RDKit          3D

 45 48  0  0  0  0  0  0  0  0999 V2000
  140.3040   74.3260  222.3250 O   0  0  0  0  0  0  0  0  0  0  0  0
  140.3960   75.3390  221.5930 C   0  0  0  0  0  0  0  0  0  0  0  0
  140.5580   75.0910  220.1890 N   0  0  0  0  0  0  0  0  0  0  0  0
  140.6210   73.8310  219.5770 C   0  0  0  0  0  0  0  0  0  0  0  0
  141.7880   73.3070  218.9250 C   0  0  0  0  0  0  0  0  0  0  0  0
  141.5040   72.6150  217.8370 O   0  0  0  0  0  0  0  0  0  0  0  0
  143.1520   73.3740  219.1990 N   0  0  0  0  0  0  0  0  0  0  0  0
  144.1330   72.3640  219.6440 C   0  0  0  0  0  0  0  0  0  0  0  0
  144.6690   73.0370  220.8820 C   0  0  0  0  0  0  0  0  0  0  0  0
  144.7540   74.4850  220.4890 C   0  0  0  0  0  0  0  0  0  0  0  0
  144.0650   74.5470  219.1520 C   0  0  2  0  0  0  0  0  0  0  0  0
  143.4000   75.8360  218.9930 C   0  0  0  0  0  0  0  0  0  0  0  0
  143.1590   76.4490  217.7960 N   0  0  0  0  0  0  0  0  0  0  0  0
  142.4980   77.6010  217.9860 C   0  0  0  0  0  0  0  0  0  0  0  0
  142.3060   77.7350  219.3410 C   0  0  0  0  0  0  0  0  0  0  0  0
  142.8560   76.6630  219.9340 N   0  0  0  0  0  0  0  0  0  0  0  0
  140.3400   76.7060  222.1300 C   0  0  0  0  0  0  0  0  0  0  0  0
  139.1020   77.2140  222.4360 C   0  0  0  0  0  0  0  0  0  0  0  0
  139.0420   78.5130  222.9470 C   0  0  0  0  0  0  0  0  0  0  0  0
  140.2090   79.2590  223.1350 C   0  0  0  0  0  0  0  0  0  0  0  0
  140.1880   80.5390  223.6350 C   0  0  0  0  0  0  0  0  0  0  0  0
  141.3620   81.2730  223.8190 C   0  0  0  0  0  0  0  0  0  0  0  0
  142.5680   80.6810  223.4840 C   0  0  0  0  0  0  0  0  0  0  0  0
  142.6030   79.3980  222.9810 C   0  0  0  0  0  0  0  0  0  0  0  0
  141.4300   78.6980  222.8100 C   0  0  0  0  0  0  0  0  0  0  0  0
  141.4480   77.4450  222.3210 N   0  0  0  0  0  0  0  0  0  0  0  0
  140.6330   75.9910  219.6130 H   0  0  0  0  0  0  0  0  0  0  0  0
  140.3699   73.1054  220.3646 H   0  0  0  0  0  0  0  0  0  0  0  0
  139.9553   73.9865  218.7152 H   0  0  0  0  0  0  0  0  0  0  0  0
  143.6505   71.4038  219.8791 H   0  0  0  0  0  0  0  0  0  0  0  0
  144.8953   72.1014  218.8958 H   0  0  0  0  0  0  0  0  0  0  0  0
  143.9835   72.9002  221.7313 H   0  0  0  0  0  0  0  0  0  0  0  0
  145.6357   72.6252  221.2076 H   0  0  0  0  0  0  0  0  0  0  0  0
  144.2370   75.1195  221.2239 H   0  0  0  0  0  0  0  0  0  0  0  0
  145.7911   74.8491  220.4453 H   0  0  0  0  0  0  0  0  0  0  0  0
  144.7268   74.4892  218.2752 H   0  0  0  0  0  0  0  0  0  0  0  0
  142.1717   78.3046  217.2060 H   0  0  0  0  0  0  0  0  0  0  0  0
  141.7954   78.5678  219.8466 H   0  0  0  0  0  0  0  0  0  0  0  0
  142.8470   76.5020  220.9770 H   0  0  0  0  0  0  0  0  0  0  0  0
  138.1892   76.6192  222.2842 H   0  0  0  0  0  0  0  0  0  0  0  0
  138.0670   78.9528  223.2038 H   0  0  0  0  0  0  0  0  0  0  0  0
  139.2227   80.9968  223.8968 H   0  0  0  0  0  0  0  0  0  0  0  0
  141.3293   82.2966  224.2204 H   0  0  0  0  0  0  0  0  0  0  0  0
  143.5060   81.2391  223.6204 H   0  0  0  0  0  0  0  0  0  0  0  0
  143.5653   78.9350  222.7171 H   0  0  0  0  0  0  0  0  0  0  0  0
  1  2  2  0
  2  3  1  0
  3  4  1  0
  4  5  1  0
  5  6  2  0
  5  7  1  0
  7  8  1  0
  8  9  1  0
  9 10  1  0
 10 11  1  0
 11 12  1  0
 12 13  2  0
 13 14  1  0
 14 15  2  0
 15 16  1  0
  2 17  1  0
 17 18  2  0
 18 19  1  0
 19 20  2  0
 20 21  1  0
 21 22  2  0
 22 23  1  0
 23 24  2  0
 24 25  1  0
 25 26  2  0
 11  7  1  0
 16 12  1  0
 26 17  1  0
 25 20  1  0
  3 27  1  0
  4 28  1  0
  4 29  1  0
  8 30  1  0
  8 31  1  0
  9 32  1  0
  9 33  1  0
 10 34  1  0
 10 35  1  0
 11 36  1  6
 14 37  1  0
 15 38  1  0
 16 39  1  0
 18 40  1  0
 19 41  1  0
 21 42  1  0
 22 43  1  0
 23 44  1  0
 24 45  1  0
M  END
>  <smiles>  (19) 
O=C(NCC(=O)N1CCC[C@@H]1c1ncc[nH]1)c1ccc2ccccc2n1

>  <score_type>  (19) 
oracle

>  <origin>  (19) 
autodockgpu

>  <m_score__min__energy>  (19) 
-7.8600000000000003

>  <m_primary>  (19) 
energy

>  <rmsd>  (19) 
7.136945184953462

>  <m_score__min__rmsd>  (19) 
7.136945184953462

>  <meeko>  (19) 
{"free_energy": -6.74, "intermolecular_energy": -8.23, "internal_energy": -2.6, "cluster_size": 17, "cluster_id": 3, "rank_in_cluster": 11}

>  <energy>  (19) 
-6.91

>  <cluster_rmsd>  (19) 
1.05

>  <cluster>  (19) 
2

$$$$

     RDKit          3D

 45 48  0  0  0  0  0  0  0  0999 V2000
  134.9640   68.5240  225.0220 O   0  0  0  0  0  0  0  0  0  0  0  0
  135.4200   69.6770  225.1980 C   0  0  0  0  0  0  0  0  0  0  0  0
  136.7970   69.8720  224.8390 N   0  0  0  0  0  0  0  0  0  0  0  0
  137.6570   68.8970  224.3170 C   0  0  0  0  0  0  0  0  0  0  0  0
  138.9110   68.5240  224.9110 C   0  0  0  0  0  0  0  0  0  0  0  0
  139.2040   67.2480  224.7410 O   0  0  0  0  0  0  0  0  0  0  0  0
  139.8780   69.2240  225.6280 N   0  0  0  0  0  0  0  0  0  0  0  0
  140.4670   69.0280  226.9680 C   0  0  0  0  0  0  0  0  0  0  0  0
  140.1880   70.3760  227.5840 C   0  0  0  0  0  0  0  0  0  0  0  0
  140.4360   71.3380  226.4560 C   0  0  0  0  0  0  0  0  0  0  0  0
  140.6220   70.4560  225.2510 C   0  0  2  0  0  0  0  0  0  0  0  0
  140.1250   71.1310  224.0570 C   0  0  0  0  0  0  0  0  0  0  0  0
  138.8280   71.5110  223.8560 N   0  0  0  0  0  0  0  0  0  0  0  0
  138.7040   72.1430  222.6780 C   0  0  0  0  0  0  0  0  0  0  0  0
  139.9520   72.1710  222.1040 C   0  0  0  0  0  0  0  0  0  0  0  0
  140.7980   71.5570  222.9480 N   0  0  0  0  0  0  0  0  0  0  0  0
  134.6050   70.7740  225.7380 C   0  0  0  0  0  0  0  0  0  0  0  0
  133.6000   70.4410  226.6130 C   0  0  0  0  0  0  0  0  0  0  0  0
  132.8210   71.4800  227.1300 C   0  0  0  0  0  0  0  0  0  0  0  0
  133.0660   72.8050  226.7620 C   0  0  0  0  0  0  0  0  0  0  0  0
  132.3200   73.8520  227.2510 C   0  0  0  0  0  0  0  0  0  0  0  0
  132.5760   75.1720  226.8760 C   0  0  0  0  0  0  0  0  0  0  0  0
  133.6100   75.4150  225.9880 C   0  0  0  0  0  0  0  0  0  0  0  0
  134.3660   74.3760  225.4900 C   0  0  0  0  0  0  0  0  0  0  0  0
  134.0910   73.0830  225.8780 C   0  0  0  0  0  0  0  0  0  0  0  0
  134.8200   72.0580  225.4000 N   0  0  0  0  0  0  0  0  0  0  0  0
  137.1340   70.8740  225.0120 H   0  0  0  0  0  0  0  0  0  0  0  0
  137.0637   67.9719  224.2701 H   0  0  0  0  0  0  0  0  0  0  0  0
  138.0030   69.3962  223.3999 H   0  0  0  0  0  0  0  0  0  0  0  0
  139.9664   68.2176  227.5181 H   0  0  0  0  0  0  0  0  0  0  0  0
  141.5265   68.7324  226.9668 H   0  0  0  0  0  0  0  0  0  0  0  0
  139.1469   70.4403  227.9334 H   0  0  0  0  0  0  0  0  0  0  0  0
  140.8131   70.5807  228.4657 H   0  0  0  0  0  0  0  0  0  0  0  0
  139.5749   72.0087  226.3191 H   0  0  0  0  0  0  0  0  0  0  0  0
  141.3045   71.9875  226.6401 H   0  0  0  0  0  0  0  0  0  0  0  0
  141.6651   70.2173  224.9961 H   0  0  0  0  0  0  0  0  0  0  0  0
  137.7788   72.5594  222.2530 H   0  0  0  0  0  0  0  0  0  0  0  0
  140.2111   72.6149  221.1315 H   0  0  0  0  0  0  0  0  0  0  0  0
  141.8310   71.4420  222.7610 H   0  0  0  0  0  0  0  0  0  0  0  0
  133.4149   69.3944  226.8966 H   0  0  0  0  0  0  0  0  0  0  0  0
  132.0069   71.2520  227.8337 H   0  0  0  0  0  0  0  0  0  0  0  0
  131.5011   73.6439  227.9553 H   0  0  0  0  0  0  0  0  0  0  0  0
  131.9710   75.9989  227.2763 H   0  0  0  0  0  0  0  0  0  0  0  0
  133.8301   76.4469  225.6771 H   0  0  0  0  0  0  0  0  0  0  0  0
  135.1860   74.5783  224.7853 H   0  0  0  0  0  0  0  0  0  0  0  0
  1  2  2  0
  2  3  1  0
  3  4  1  0
  4  5  1  0
  5  6  2  0
  5  7  1  0
  7  8  1  0
  8  9  1  0
  9 10  1  0
 10 11  1  0
 11 12  1  0
 12 13  2  0
 13 14  1  0
 14 15  2  0
 15 16  1  0
  2 17  1  0
 17 18  2  0
 18 19  1  0
 19 20  2  0
 20 21  1  0
 21 22  2  0
 22 23  1  0
 23 24  2  0
 24 25  1  0
 25 26  2  0
 11  7  1  0
 16 12  1  0
 26 17  1  0
 25 20  1  0
  3 27  1  0
  4 28  1  0
  4 29  1  0
  8 30  1  0
  8 31  1  0
  9 32  1  0
  9 33  1  0
 10 34  1  0
 10 35  1  0
 11 36  1  6
 14 37  1  0
 15 38  1  0
 16 39  1  0
 18 40  1  0
 19 41  1  0
 21 42  1  0
 22 43  1  0
 23 44  1  0
 24 45  1  0
M  END
>  <smiles>  (20) 
O=C(NCC(=O)N1CCC[C@@H]1c1ncc[nH]1)c1ccc2ccccc2n1

>  <score_type>  (20) 
oracle

>  <origin>  (20) 
autodockgpu

>  <m_score__min__energy>  (20) 
-7.8600000000000003

>  <m_primary>  (20) 
energy

>  <rmsd>  (20) 
8.159489895966361

>  <m_score__min__rmsd>  (20) 
8.159489895966361

>  <meeko>  (20) 
{"free_energy": -6.91, "intermolecular_energy": -8.4, "internal_energy": -2.14, "cluster_size": 1, "cluster_id": 5, "rank_in_cluster": 1}

>  <energy>  (20) 
-6.91

>  <cluster_rmsd>  (20) 
1.08

>  <cluster>  (20) 
2

$$$$

     RDKit          3D

 45 48  0  0  0  0  0  0  0  0999 V2000
  140.1140   71.3330  221.2020 O   0  0  0  0  0  0  0  0  0  0  0  0
  139.9020   71.9250  222.2850 C   0  0  0  0  0  0  0  0  0  0  0  0
  139.5570   73.3150  222.1880 N   0  0  0  0  0  0  0  0  0  0  0  0
  139.4380   74.0520  221.0020 C   0  0  0  0  0  0  0  0  0  0  0  0
  140.5440   74.4060  220.1560 C   0  0  0  0  0  0  0  0  0  0  0  0
  140.5860   73.7030  219.0400 O   0  0  0  0  0  0  0  0  0  0  0  0
  141.5790   75.3300  220.2680 N   0  0  0  0  0  0  0  0  0  0  0  0
  141.6150   76.8060  220.2050 C   0  0  0  0  0  0  0  0  0  0  0  0
  142.6330   77.0040  219.1100 C   0  0  0  0  0  0  0  0  0  0  0  0
  143.6560   75.9370  219.3820 C   0  0  0  0  0  0  0  0  0  0  0  0
  143.0350   75.0950  220.4630 C   0  0  2  0  0  0  0  0  0  0  0  0
  143.4560   73.7050  220.3160 C   0  0  0  0  0  0  0  0  0  0  0  0
  144.7490   73.2920  220.1540 N   0  0  0  0  0  0  0  0  0  0  0  0
  144.8070   71.9530  220.0880 C   0  0  0  0  0  0  0  0  0  0  0  0
  143.5190   71.4900  220.2090 C   0  0  0  0  0  0  0  0  0  0  0  0
  142.7160   72.5580  220.3460 N   0  0  0  0  0  0  0  0  0  0  0  0
  139.9980   71.2470  223.5860 C   0  0  0  0  0  0  0  0  0  0  0  0
  139.5800   69.9400  223.6480 C   0  0  0  0  0  0  0  0  0  0  0  0
  139.6690   69.2890  224.8810 C   0  0  0  0  0  0  0  0  0  0  0  0
  140.1660   69.9560  226.0040 C   0  0  0  0  0  0  0  0  0  0  0  0
  140.2670   69.3480  227.2330 C   0  0  0  0  0  0  0  0  0  0  0  0
  140.7660   70.0260  228.3470 C   0  0  0  0  0  0  0  0  0  0  0  0
  141.1640   71.3430  228.1920 C   0  0  0  0  0  0  0  0  0  0  0  0
  141.0680   71.9650  226.9670 C   0  0  0  0  0  0  0  0  0  0  0  0
  140.5720   71.2720  225.8850 C   0  0  0  0  0  0  0  0  0  0  0  0
  140.4720   71.8660  224.6820 N   0  0  0  0  0  0  0  0  0  0  0  0
  139.3890   73.7700  223.1430 H   0  0  0  0  0  0  0  0  0  0  0  0
  138.7478   73.4798  220.3647 H   0  0  0  0  0  0  0  0  0  0  0  0
  139.1576   75.0387  221.3992 H   0  0  0  0  0  0  0  0  0  0  0  0
  140.6358   77.2257  219.9311 H   0  0  0  0  0  0  0  0  0  0  0  0
  141.8594   77.3017  221.1561 H   0  0  0  0  0  0  0  0  0  0  0  0
  142.1758   76.8664  218.1190 H   0  0  0  0  0  0  0  0  0  0  0  0
  143.0626   78.0166  219.1036 H   0  0  0  0  0  0  0  0  0  0  0  0
  143.8428   75.3368  218.4793 H   0  0  0  0  0  0  0  0  0  0  0  0
  144.6293   76.3537  219.6803 H   0  0  0  0  0  0  0  0  0  0  0  0
  143.3350   75.3486  221.4905 H   0  0  0  0  0  0  0  0  0  0  0  0
  145.7131   71.3423  219.9612 H   0  0  0  0  0  0  0  0  0  0  0  0
  143.2030   70.4364  220.1960 H   0  0  0  0  0  0  0  0  0  0  0  0
  141.6690   72.4920  220.4660 H   0  0  0  0  0  0  0  0  0  0  0  0
  139.1891   69.4242  222.7585 H   0  0  0  0  0  0  0  0  0  0  0  0
  139.3448   68.2415  224.9687 H   0  0  0  0  0  0  0  0  0  0  0  0
  139.9467   68.3013  227.3414 H   0  0  0  0  0  0  0  0  0  0  0  0
  140.8411   69.5260  229.3239 H   0  0  0  0  0  0  0  0  0  0  0  0
  141.5605   71.8977  229.0552 H   0  0  0  0  0  0  0  0  0  0  0  0
  141.3864   73.0117  226.8531 H   0  0  0  0  0  0  0  0  0  0  0  0
  1  2  2  0
  2  3  1  0
  3  4  1  0
  4  5  1  0
  5  6  2  0
  5  7  1  0
  7  8  1  0
  8  9  1  0
  9 10  1  0
 10 11  1  0
 11 12  1  0
 12 13  2  0
 13 14  1  0
 14 15  2  0
 15 16  1  0
  2 17  1  0
 17 18  2  0
 18 19  1  0
 19 20  2  0
 20 21  1  0
 21 22  2  0
 22 23  1  0
 23 24  2  0
 24 25  1  0
 25 26  2  0
 11  7  1  0
 16 12  1  0
 26 17  1  0
 25 20  1  0
  3 27  1  0
  4 28  1  0
  4 29  1  0
  8 30  1  0
  8 31  1  0
  9 32  1  0
  9 33  1  0
 10 34  1  0
 10 35  1  0
 11 36  1  1
 14 37  1  0
 15 38  1  0
 16 39  1  0
 18 40  1  0
 19 41  1  0
 21 42  1  0
 22 43  1  0
 23 44  1  0
 24 45  1  0
M  END
>  <smiles>  (21) 
O=C(NCC(=O)N1CCC[C@@H]1c1ncc[nH]1)c1ccc2ccccc2n1

>  <score_type>  (21) 
oracle

>  <origin>  (21) 
autodockgpu

>  <m_score__min__energy>  (21) 
-7.8600000000000003

>  <m_primary>  (21) 
energy

>  <rmsd>  (21) 
3.8115810791112894

>  <m_score__min__rmsd>  (21) 
3.8115810791112894

>  <meeko>  (21) 
{"free_energy": -6.91, "intermolecular_energy": -8.41, "internal_energy": -2.73, "cluster_size": 22, "cluster_id": 2, "rank_in_cluster": 13}

>  <energy>  (21) 
-6.85

>  <cluster_rmsd>  (21) 
1.14

>  <cluster>  (21) 
2

$$$$

     RDKit          3D

 45 48  0  0  0  0  0  0  0  0999 V2000
  137.6520   70.8750  221.6970 O   0  0  0  0  0  0  0  0  0  0  0  0
  138.3090   71.4870  222.5700 C   0  0  0  0  0  0  0  0  0  0  0  0
  138.5190   72.8870  222.3350 N   0  0  0  0  0  0  0  0  0  0  0  0
  138.0580   73.6150  221.2290 C   0  0  0  0  0  0  0  0  0  0  0  0
  138.1090   75.0460  221.1260 C   0  0  0  0  0  0  0  0  0  0  0  0
  137.4330   75.5140  220.0930 O   0  0  0  0  0  0  0  0  0  0  0  0
  138.7220   76.0410  221.8830 N   0  0  0  0  0  0  0  0  0  0  0  0
  138.2370   77.3260  222.4280 C   0  0  0  0  0  0  0  0  0  0  0  0
  139.2550   78.2690  221.8370 C   0  0  0  0  0  0  0  0  0  0  0  0
  140.5450   77.5050  221.9340 C   0  0  0  0  0  0  0  0  0  0  0  0
  140.1260   76.1260  222.3670 C   0  0  2  0  0  0  0  0  0  0  0  0
  141.0300   75.1300  221.8020 C   0  0  0  0  0  0  0  0  0  0  0  0
  140.8790   73.7770  221.9220 N   0  0  0  0  0  0  0  0  0  0  0  0
  141.8530   73.1370  221.2580 C   0  0  0  0  0  0  0  0  0  0  0  0
  142.6550   74.1010  220.6940 C   0  0  0  0  0  0  0  0  0  0  0  0
  142.1460   75.2970  221.0310 N   0  0  0  0  0  0  0  0  0  0  0  0
  138.8380   70.8210  223.7690 C   0  0  0  0  0  0  0  0  0  0  0  0
  138.6680   69.4620  223.8620 C   0  0  0  0  0  0  0  0  0  0  0  0
  139.1680   68.8230  225.0000 C   0  0  0  0  0  0  0  0  0  0  0  0
  139.8170   69.5530  225.9990 C   0  0  0  0  0  0  0  0  0  0  0  0
  140.3210   68.9580  227.1320 C   0  0  0  0  0  0  0  0  0  0  0  0
  140.9680   69.6990  228.1220 C   0  0  0  0  0  0  0  0  0  0  0  0
  141.0950   71.0660  227.9440 C   0  0  0  0  0  0  0  0  0  0  0  0
  140.5940   71.6760  226.8150 C   0  0  0  0  0  0  0  0  0  0  0  0
  139.9600   70.9200  225.8530 C   0  0  0  0  0  0  0  0  0  0  0  0
  139.4660   71.5010  224.7450 N   0  0  0  0  0  0  0  0  0  0  0  0
  139.0880   73.3590  223.1110 H   0  0  0  0  0  0  0  0  0  0  0  0
  138.6243   73.2347  220.3661 H   0  0  0  0  0  0  0  0  0  0  0  0
  136.9733   73.4523  221.3121 H   0  0  0  0  0  0  0  0  0  0  0  0
  137.2188   77.5568  222.0817 H   0  0  0  0  0  0  0  0  0  0  0  0
  138.1580   77.3612  223.5246 H   0  0  0  0  0  0  0  0  0  0  0  0
  139.0138   78.5003  220.7890 H   0  0  0  0  0  0  0  0  0  0  0  0
  139.2924   79.2374  222.3575 H   0  0  0  0  0  0  0  0  0  0  0  0
  141.0521   77.4703  220.9585 H   0  0  0  0  0  0  0  0  0  0  0  0
  141.2571   77.9678  222.6331 H   0  0  0  0  0  0  0  0  0  0  0  0
  140.1756   75.9351  223.4492 H   0  0  0  0  0  0  0  0  0  0  0  0
  141.9851   72.0478  221.1796 H   0  0  0  0  0  0  0  0  0  0  0  0
  143.5499   73.9247  220.0792 H   0  0  0  0  0  0  0  0  0  0  0  0
  142.5610   76.2180  220.7240 H   0  0  0  0  0  0  0  0  0  0  0  0
  138.1566   68.8962  223.0693 H   0  0  0  0  0  0  0  0  0  0  0  0
  139.0494   67.7350  225.1102 H   0  0  0  0  0  0  0  0  0  0  0  0
  140.2114   67.8711  227.2611 H   0  0  0  0  0  0  0  0  0  0  0  0
  141.3674   69.2087  229.0220 H   0  0  0  0  0  0  0  0  0  0  0  0
  141.6007   71.6707  228.7112 H   0  0  0  0  0  0  0  0  0  0  0  0
  140.6997   72.7628  226.6819 H   0  0  0  0  0  0  0  0  0  0  0  0
  1  2  2  0
  2  3  1  0
  3  4  1  0
  4  5  1  0
  5  6  2  0
  5  7  1  0
  7  8  1  0
  8  9  1  0
  9 10  1  0
 10 11  1  0
 11 12  1  0
 12 13  2  0
 13 14  1  0
 14 15  2  0
 15 16  1  0
  2 17  1  0
 17 18  2  0
 18 19  1  0
 19 20  2  0
 20 21  1  0
 21 22  2  0
 22 23  1  0
 23 24  2  0
 24 25  1  0
 25 26  2  0
 11  7  1  0
 16 12  1  0
 26 17  1  0
 25 20  1  0
  3 27  1  0
  4 28  1  0
  4 29  1  0
  8 30  1  0
  8 31  1  0
  9 32  1  0
  9 33  1  0
 10 34  1  0
 10 35  1  0
 11 36  1  1
 14 37  1  0
 15 38  1  0
 16 39  1  0
 18 40  1  0
 19 41  1  0
 21 42  1  0
 22 43  1  0
 23 44  1  0
 24 45  1  0
M  END
>  <smiles>  (22) 
O=C(NCC(=O)N1CCC[C@@H]1c1ncc[nH]1)c1ccc2ccccc2n1

>  <score_type>  (22) 
oracle

>  <origin>  (22) 
autodockgpu

>  <m_score__min__energy>  (22) 
-7.8600000000000003

>  <m_primary>  (22) 
energy

>  <rmsd>  (22) 
3.2995316396328733

>  <m_score__min__rmsd>  (22) 
3.2995316396328733

>  <meeko>  (22) 
{"free_energy": -7.04, "intermolecular_energy": -8.54, "internal_energy": -2.11, "cluster_size": 2, "cluster_id": 4, "rank_in_cluster": 1}

>  <energy>  (22) 
-6.82

>  <cluster_rmsd>  (22) 
1.18

>  <cluster>  (22) 
2

$$$$

     RDKit          3D

 45 48  0  0  0  0  0  0  0  0999 V2000
  141.1670   71.7440  221.3690 O   0  0  0  0  0  0  0  0  0  0  0  0
  140.5500   72.2230  222.3480 C   0  0  0  0  0  0  0  0  0  0  0  0
  140.1130   73.5840  222.2140 N   0  0  0  0  0  0  0  0  0  0  0  0
  140.3160   74.4070  221.0980 C   0  0  0  0  0  0  0  0  0  0  0  0
  141.1060   75.6070  221.1120 C   0  0  0  0  0  0  0  0  0  0  0  0
  141.0730   76.2340  222.2730 O   0  0  0  0  0  0  0  0  0  0  0  0
  141.8940   76.2470  220.1590 N   0  0  0  0  0  0  0  0  0  0  0  0
  141.6510   77.4040  219.2730 C   0  0  0  0  0  0  0  0  0  0  0  0
  141.9500   76.7820  217.9320 C   0  0  0  0  0  0  0  0  0  0  0  0
  143.1330   75.8980  218.2070 C   0  0  0  0  0  0  0  0  0  0  0  0
  143.2730   75.9230  219.7050 C   0  0  2  0  0  0  0  0  0  0  0  0
  143.7890   74.6430  220.1790 C   0  0  0  0  0  0  0  0  0  0  0  0
  145.0710   74.4210  220.5940 N   0  0  0  0  0  0  0  0  0  0  0  0
  145.2170   73.1510  221.0040 C   0  0  0  0  0  0  0  0  0  0  0  0
  143.9970   72.5380  220.8500 C   0  0  0  0  0  0  0  0  0  0  0  0
  143.1470   73.4490  220.3510 N   0  0  0  0  0  0  0  0  0  0  0  0
  140.2810   71.4470  223.5680 C   0  0  0  0  0  0  0  0  0  0  0  0
  139.6180   70.2540  223.4220 C   0  0  0  0  0  0  0  0  0  0  0  0
  139.3590   69.5110  224.5770 C   0  0  0  0  0  0  0  0  0  0  0  0
  139.7670   69.9770  225.8290 C   0  0  0  0  0  0  0  0  0  0  0  0
  139.5300   69.2730  226.9860 C   0  0  0  0  0  0  0  0  0  0  0  0
  139.9440   69.7500  228.2320 C   0  0  0  0  0  0  0  0  0  0  0  0
  140.6070   70.9640  228.2840 C   0  0  0  0  0  0  0  0  0  0  0  0
  140.8520   71.6800  227.1330 C   0  0  0  0  0  0  0  0  0  0  0  0
  140.4320   71.1850  225.9180 C   0  0  0  0  0  0  0  0  0  0  0  0
  140.6630   71.8730  224.7850 N   0  0  0  0  0  0  0  0  0  0  0  0
  139.5940   73.9420  223.0810 H   0  0  0  0  0  0  0  0  0  0  0  0
  140.7697   73.7616  220.3315 H   0  0  0  0  0  0  0  0  0  0  0  0
  139.3075   74.8250  220.9632 H   0  0  0  0  0  0  0  0  0  0  0  0
  140.6101   77.7541  219.3365 H   0  0  0  0  0  0  0  0  0  0  0  0
  142.2460   78.2985  219.5092 H   0  0  0  0  0  0  0  0  0  0  0  0
  141.0938   76.1917  217.5735 H   0  0  0  0  0  0  0  0  0  0  0  0
  142.1482   77.5293  217.1495 H   0  0  0  0  0  0  0  0  0  0  0  0
  142.9465   74.8745  217.8497 H   0  0  0  0  0  0  0  0  0  0  0  0
  144.0432   76.2408  217.6932 H   0  0  0  0  0  0  0  0  0  0  0  0
  143.9937   76.6540  220.1002 H   0  0  0  0  0  0  0  0  0  0  0  0
  146.1378   72.6892  221.3897 H   0  0  0  0  0  0  0  0  0  0  0  0
  143.7601   71.4914  221.0917 H   0  0  0  0  0  0  0  0  0  0  0  0
  142.1310   73.2500  220.1410 H   0  0  0  0  0  0  0  0  0  0  0  0
  139.3018   69.8956  222.4313 H   0  0  0  0  0  0  0  0  0  0  0  0
  138.8289   68.5503  224.4994 H   0  0  0  0  0  0  0  0  0  0  0  0
  139.0012   68.3101  226.9291 H   0  0  0  0  0  0  0  0  0  0  0  0
  139.7480   69.1751  229.1491 H   0  0  0  0  0  0  0  0  0  0  0  0
  140.9415   71.3608  229.2539 H   0  0  0  0  0  0  0  0  0  0  0  0
  141.3809   72.6432  227.1839 H   0  0  0  0  0  0  0  0  0  0  0  0
  1  2  2  0
  2  3  1  0
  3  4  1  0
  4  5  1  0
  5  6  2  0
  5  7  1  0
  7  8  1  0
  8  9  1  0
  9 10  1  0
 10 11  1  0
 11 12  1  0
 12 13  2  0
 13 14  1  0
 14 15  2  0
 15 16  1  0
  2 17  1  0
 17 18  2  0
 18 19  1  0
 19 20  2  0
 20 21  1  0
 21 22  2  0
 22 23  1  0
 23 24  2  0
 24 25  1  0
 25 26  2  0
 11  7  1  0
 16 12  1  0
 26 17  1  0
 25 20  1  0
  3 27  1  0
  4 28  1  0
  4 29  1  0
  8 30  1  0
  8 31  1  0
  9 32  1  0
  9 33  1  0
 10 34  1  0
 10 35  1  0
 11 36  1  6
 14 37  1  0
 15 38  1  0
 16 39  1  0
 18 40  1  0
 19 41  1  0
 21 42  1  0
 22 43  1  0
 23 44  1  0
 24 45  1  0
M  END
>  <smiles>  (23) 
O=C(NCC(=O)N1CCC[C@@H]1c1ncc[nH]1)c1ccc2ccccc2n1

>  <score_type>  (23) 
oracle

>  <origin>  (23) 
autodockgpu

>  <m_score__min__energy>  (23) 
-7.8600000000000003

>  <m_primary>  (23) 
energy

>  <rmsd>  (23) 
3.4532971286168523

>  <m_score__min__rmsd>  (23) 
3.4532971286168523

>  <meeko>  (23) 
{"free_energy": -7.62, "intermolecular_energy": -9.11, "internal_energy": -2.12, "cluster_size": 22, "cluster_id": 2, "rank_in_cluster": 3}

>  <energy>  (23) 
-6.81

>  <cluster_rmsd>  (23) 
1.1

>  <cluster>  (23) 
2

$$$$

     RDKit          3D

 45 48  0  0  0  0  0  0  0  0999 V2000
  141.7230   72.4880  221.7510 O   0  0  0  0  0  0  0  0  0  0  0  0
  140.6830   72.5500  222.4460 C   0  0  0  0  0  0  0  0  0  0  0  0
  139.9230   73.7630  222.3390 N   0  0  0  0  0  0  0  0  0  0  0  0
  140.2410   74.8650  221.5340 C   0  0  0  0  0  0  0  0  0  0  0  0
  140.9890   74.7830  220.3100 C   0  0  0  0  0  0  0  0  0  0  0  0
  140.8610   73.6180  219.7040 O   0  0  0  0  0  0  0  0  0  0  0  0
  141.8210   75.6710  219.6330 N   0  0  0  0  0  0  0  0  0  0  0  0
  141.5460   76.8200  218.7450 C   0  0  0  0  0  0  0  0  0  0  0  0
  142.3320   76.4090  217.5250 C   0  0  0  0  0  0  0  0  0  0  0  0
  143.5790   75.7950  218.0970 C   0  0  0  0  0  0  0  0  0  0  0  0
  143.3060   75.7120  219.5740 C   0  0  2  0  0  0  0  0  0  0  0  0
  143.9750   74.5440  220.1390 C   0  0  0  0  0  0  0  0  0  0  0  0
  145.1860   74.5650  220.7690 N   0  0  0  0  0  0  0  0  0  0  0  0
  145.5060   73.3380  221.2080 C   0  0  0  0  0  0  0  0  0  0  0  0
  144.4740   72.5030  220.8520 C   0  0  0  0  0  0  0  0  0  0  0  0
  143.5580   73.2450  220.2080 N   0  0  0  0  0  0  0  0  0  0  0  0
  140.2550   71.4510  223.3240 C   0  0  0  0  0  0  0  0  0  0  0  0
  139.3300   70.5680  222.8230 C   0  0  0  0  0  0  0  0  0  0  0  0
  138.9190   69.5210  223.6510 C   0  0  0  0  0  0  0  0  0  0  0  0
  139.4380   69.3880  224.9410 C   0  0  0  0  0  0  0  0  0  0  0  0
  139.0570   68.3710  225.7840 C   0  0  0  0  0  0  0  0  0  0  0  0
  139.5850   68.2490  227.0710 C   0  0  0  0  0  0  0  0  0  0  0  0
  140.5130   69.1850  227.4930 C   0  0  0  0  0  0  0  0  0  0  0  0
  140.9040   70.2100  226.6590 C   0  0  0  0  0  0  0  0  0  0  0  0
  140.3670   70.3050  225.3950 C   0  0  0  0  0  0  0  0  0  0  0  0
  140.7390   71.3000  224.5690 N   0  0  0  0  0  0  0  0  0  0  0  0
  139.0460   73.7610  222.9550 H   0  0  0  0  0  0  0  0  0  0  0  0
  139.2781   75.3229  221.2635 H   0  0  0  0  0  0  0  0  0  0  0  0
  140.9587   75.3922  222.1797 H   0  0  0  0  0  0  0  0  0  0  0  0
  140.4727   76.9167  218.5245 H   0  0  0  0  0  0  0  0  0  0  0  0
  141.8198   77.8007  219.1613 H   0  0  0  0  0  0  0  0  0  0  0  0
  141.7723   75.6754  216.9262 H   0  0  0  0  0  0  0  0  0  0  0  0
  142.5420   77.2508  216.8487 H   0  0  0  0  0  0  0  0  0  0  0  0
  143.7496   74.7936  217.6750 H   0  0  0  0  0  0  0  0  0  0  0  0
  144.4807   76.3818  217.8677 H   0  0  0  0  0  0  0  0  0  0  0  0
  143.6945   76.5477  220.1746 H   0  0  0  0  0  0  0  0  0  0  0  0
  146.4204   73.0544  221.7497 H   0  0  0  0  0  0  0  0  0  0  0  0
  144.4099   71.4242  221.0570 H   0  0  0  0  0  0  0  0  0  0  0  0
  142.6530   72.8580  219.8280 H   0  0  0  0  0  0  0  0  0  0  0  0
  138.9271   70.6814  221.8057 H   0  0  0  0  0  0  0  0  0  0  0  0
  138.1795   68.7942  223.2837 H   0  0  0  0  0  0  0  0  0  0  0  0
  138.3176   67.6348  225.4359 H   0  0  0  0  0  0  0  0  0  0  0  0
  139.2709   67.4288  227.7333 H   0  0  0  0  0  0  0  0  0  0  0  0
  140.9423   69.1101  228.5030 H   0  0  0  0  0  0  0  0  0  0  0  0
  141.6425   70.9496  227.0020 H   0  0  0  0  0  0  0  0  0  0  0  0
  1  2  2  0
  2  3  1  0
  3  4  1  0
  4  5  1  0
  5  6  2  0
  5  7  1  0
  7  8  1  0
  8  9  1  0
  9 10  1  0
 10 11  1  0
 11 12  1  0
 12 13  2  0
 13 14  1  0
 14 15  2  0
 15 16  1  0
  2 17  1  0
 17 18  2  0
 18 19  1  0
 19 20  2  0
 20 21  1  0
 21 22  2  0
 22 23  1  0
 23 24  2  0
 24 25  1  0
 25 26  2  0
 11  7  1  0
 16 12  1  0
 26 17  1  0
 25 20  1  0
  3 27  1  0
  4 28  1  0
  4 29  1  0
  8 30  1  0
  8 31  1  0
  9 32  1  0
  9 33  1  0
 10 34  1  0
 10 35  1  0
 11 36  1  1
 14 37  1  0
 15 38  1  0
 16 39  1  0
 18 40  1  0
 19 41  1  0
 21 42  1  0
 22 43  1  0
 23 44  1  0
 24 45  1  0
M  END
>  <smiles>  (24) 
O=C(NCC(=O)N1CCC[C@@H]1c1ncc[nH]1)c1ccc2ccccc2n1

>  <score_type>  (24) 
oracle

>  <origin>  (24) 
autodockgpu

>  <m_score__min__energy>  (24) 
-7.8600000000000003

>  <m_primary>  (24) 
energy

>  <rmsd>  (24) 
3.6031652396785128

>  <m_score__min__rmsd>  (24) 
3.6031652396785128

>  <meeko>  (24) 
{"free_energy": -6.7, "intermolecular_energy": -8.19, "internal_energy": -2.33, "cluster_size": 22, "cluster_id": 2, "rank_in_cluster": 19}

>  <energy>  (24) 
-6.78

>  <cluster_rmsd>  (24) 
1.11

>  <cluster>  (24) 
2

$$$$

     RDKit          3D

 45 48  0  0  0  0  0  0  0  0999 V2000
  139.9790   73.2220  222.8000 O   0  0  0  0  0  0  0  0  0  0  0  0
  139.7430   72.0000  222.9340 C   0  0  0  0  0  0  0  0  0  0  0  0
  139.1590   71.3410  221.8000 N   0  0  0  0  0  0  0  0  0  0  0  0
  138.8380   71.9410  220.5750 C   0  0  0  0  0  0  0  0  0  0  0  0
  138.8850   73.3560  220.3320 C   0  0  0  0  0  0  0  0  0  0  0  0
  137.6870   73.9040  220.2390 O   0  0  0  0  0  0  0  0  0  0  0  0
  139.9250   74.2680  220.1700 N   0  0  0  0  0  0  0  0  0  0  0  0
  141.2480   74.1710  219.5220 C   0  0  0  0  0  0  0  0  0  0  0  0
  142.1390   74.5810  220.6680 C   0  0  0  0  0  0  0  0  0  0  0  0
  141.3720   75.6880  221.3340 C   0  0  0  0  0  0  0  0  0  0  0  0
  140.0310   75.6710  220.6530 C   0  0  2  0  0  0  0  0  0  0  0  0
  138.9900   76.0760  221.5920 C   0  0  0  0  0  0  0  0  0  0  0  0
  138.6230   77.3680  221.8440 N   0  0  0  0  0  0  0  0  0  0  0  0
  137.6120   77.4040  222.7250 C   0  0  0  0  0  0  0  0  0  0  0  0
  137.3180   76.1020  223.0510 C   0  0  0  0  0  0  0  0  0  0  0  0
  138.1570   75.3130  222.3600 N   0  0  0  0  0  0  0  0  0  0  0  0
  140.0420   71.2710  224.1750 C   0  0  0  0  0  0  0  0  0  0  0  0
  140.8370   71.9010  225.1000 C   0  0  0  0  0  0  0  0  0  0  0  0
  141.1250   71.2140  226.2830 C   0  0  0  0  0  0  0  0  0  0  0  0
  140.6160   69.9320  226.5040 C   0  0  0  0  0  0  0  0  0  0  0  0
  140.8780   69.2270  227.6540 C   0  0  0  0  0  0  0  0  0  0  0  0
  140.3630   67.9460  227.8620 C   0  0  0  0  0  0  0  0  0  0  0  0
  139.5700   67.3870  226.8740 C   0  0  0  0  0  0  0  0  0  0  0  0
  139.2980   68.0830  225.7160 C   0  0  0  0  0  0  0  0  0  0  0  0
  139.8200   69.3450  225.5380 C   0  0  0  0  0  0  0  0  0  0  0  0
  139.5640   70.0360  224.4120 N   0  0  0  0  0  0  0  0  0  0  0  0
  138.9780   70.2990  221.9720 H   0  0  0  0  0  0  0  0  0  0  0  0
  139.5168   71.4899  219.8363 H   0  0  0  0  0  0  0  0  0  0  0  0
  137.7538   71.7599  220.5337 H   0  0  0  0  0  0  0  0  0  0  0  0
  141.4626   73.1458  219.1860 H   0  0  0  0  0  0  0  0  0  0  0  0
  141.3605   74.7773  218.6111 H   0  0  0  0  0  0  0  0  0  0  0  0
  142.2986   73.7418  221.3610 H   0  0  0  0  0  0  0  0  0  0  0  0
  143.1412   74.8933  220.3394 H   0  0  0  0  0  0  0  0  0  0  0  0
  141.2646   75.4945  222.4115 H   0  0  0  0  0  0  0  0  0  0  0  0
  141.8764   76.6616  221.2460 H   0  0  0  0  0  0  0  0  0  0  0  0
  139.9154   76.3785  219.8187 H   0  0  0  0  0  0  0  0  0  0  0  0
  137.1133   78.3045  223.1127 H   0  0  0  0  0  0  0  0  0  0  0  0
  136.5378   75.7670  223.7503 H   0  0  0  0  0  0  0  0  0  0  0  0
  138.1480   74.2590  222.4130 H   0  0  0  0  0  0  0  0  0  0  0  0
  141.2334   72.9106  224.9169 H   0  0  0  0  0  0  0  0  0  0  0  0
  141.7586   71.6876  227.0473 H   0  0  0  0  0  0  0  0  0  0  0  0
  141.5095   69.6834  228.4304 H   0  0  0  0  0  0  0  0  0  0  0  0
  140.5819   67.3943  228.7881 H   0  0  0  0  0  0  0  0  0  0  0  0
  139.1535   66.3786  227.0146 H   0  0  0  0  0  0  0  0  0  0  0  0
  138.6662   67.6321  224.9366 H   0  0  0  0  0  0  0  0  0  0  0  0
  1  2  2  0
  2  3  1  0
  3  4  1  0
  4  5  1  0
  5  6  2  0
  5  7  1  0
  7  8  1  0
  8  9  1  0
  9 10  1  0
 10 11  1  0
 11 12  1  0
 12 13  2  0
 13 14  1  0
 14 15  2  0
 15 16  1  0
  2 17  1  0
 17 18  2  0
 18 19  1  0
 19 20  2  0
 20 21  1  0
 21 22  2  0
 22 23  1  0
 23 24  2  0
 24 25  1  0
 25 26  2  0
 11  7  1  0
 16 12  1  0
 26 17  1  0
 25 20  1  0
  3 27  1  0
  4 28  1  0
  4 29  1  0
  8 30  1  0
  8 31  1  0
  9 32  1  0
  9 33  1  0
 10 34  1  0
 10 35  1  0
 11 36  1  6
 14 37  1  0
 15 38  1  0
 16 39  1  0
 18 40  1  0
 19 41  1  0
 21 42  1  0
 22 43  1  0
 23 44  1  0
 24 45  1  0
M  END
>  <smiles>  (25) 
O=C(NCC(=O)N1CCC[C@@H]1c1ncc[nH]1)c1ccc2ccccc2n1

>  <score_type>  (25) 
oracle

>  <origin>  (25) 
autodockgpu

>  <m_score__min__energy>  (25) 
-7.8600000000000003

>  <m_primary>  (25) 
energy

>  <rmsd>  (25) 
3.5951297097319963

>  <m_score__min__rmsd>  (25) 
3.5951297097319963

>  <meeko>  (25) 
{"free_energy": -6.21, "intermolecular_energy": -7.71, "internal_energy": -2.76, "cluster_size": 1, "cluster_id": 7, "rank_in_cluster": 1}

>  <energy>  (25) 
-6.7

>  <cluster_rmsd>  (25) 
0.88

>  <cluster>  (25) 
2

$$$$

     RDKit          3D

 45 48  0  0  0  0  0  0  0  0999 V2000
  139.0900   74.8780  222.3550 O   0  0  0  0  0  0  0  0  0  0  0  0
  140.1320   75.5340  222.1250 C   0  0  0  0  0  0  0  0  0  0  0  0
  141.2150   74.8080  221.5260 N   0  0  0  0  0  0  0  0  0  0  0  0
  141.2040   73.4490  221.1810 C   0  0  0  0  0  0  0  0  0  0  0  0
  142.1970   72.8170  220.3580 C   0  0  0  0  0  0  0  0  0  0  0  0
  141.7230   71.7940  219.6710 O   0  0  0  0  0  0  0  0  0  0  0  0
  143.5510   73.0540  220.1350 N   0  0  0  0  0  0  0  0  0  0  0  0
  144.7610   72.2420  220.3750 C   0  0  0  0  0  0  0  0  0  0  0  0
  145.5590   73.1970  221.2280 C   0  0  0  0  0  0  0  0  0  0  0  0
  145.2980   74.5360  220.6000 C   0  0  0  0  0  0  0  0  0  0  0  0
  144.2170   74.2660  219.5880 C   0  0  2  0  0  0  0  0  0  0  0  0
  143.3530   75.4350  219.4580 C   0  0  0  0  0  0  0  0  0  0  0  0
  142.0500   75.4030  219.0470 N   0  0  0  0  0  0  0  0  0  0  0  0
  141.5220   76.6360  219.0720 C   0  0  0  0  0  0  0  0  0  0  0  0
  142.5080   77.4860  219.5110 C   0  0  0  0  0  0  0  0  0  0  0  0
  143.6060   76.7470  219.7390 N   0  0  0  0  0  0  0  0  0  0  0  0
  140.2500   76.9640  222.4460 C   0  0  0  0  0  0  0  0  0  0  0  0
  139.0850   77.6750  222.5930 C   0  0  0  0  0  0  0  0  0  0  0  0
  139.1900   79.0350  222.8980 C   0  0  0  0  0  0  0  0  0  0  0  0
  140.4420   79.6370  223.0450 C   0  0  0  0  0  0  0  0  0  0  0  0
  140.5840   80.9710  223.3440 C   0  0  0  0  0  0  0  0  0  0  0  0
  141.8410   81.5600  223.4880 C   0  0  0  0  0  0  0  0  0  0  0  0
  142.9630   80.7660  223.3220 C   0  0  0  0  0  0  0  0  0  0  0  0
  142.8370   79.4270  223.0220 C   0  0  0  0  0  0  0  0  0  0  0  0
  141.5830   78.8730  222.8850 C   0  0  0  0  0  0  0  0  0  0  0  0
  141.4430   77.5670  222.5920 N   0  0  0  0  0  0  0  0  0  0  0  0
  142.0800   75.4170  221.3540 H   0  0  0  0  0  0  0  0  0  0  0  0
  141.2150   72.9003  222.1343 H   0  0  0  0  0  0  0  0  0  0  0  0
  140.3291   73.4116  220.5153 H   0  0  0  0  0  0  0  0  0  0  0  0
  144.5272   71.3122  220.9142 H   0  0  0  0  0  0  0  0  0  0  0  0
  145.2737   71.8980  219.4646 H   0  0  0  0  0  0  0  0  0  0  0  0
  145.2095   73.1777  222.2708 H   0  0  0  0  0  0  0  0  0  0  0  0
  146.6289   72.9442  221.2652 H   0  0  0  0  0  0  0  0  0  0  0  0
  144.9546   75.2599  221.3537 H   0  0  0  0  0  0  0  0  0  0  0  0
  146.2005   74.9710  220.1459 H   0  0  0  0  0  0  0  0  0  0  0  0
  144.5647   74.0872  218.5598 H   0  0  0  0  0  0  0  0  0  0  0  0
  140.4946   76.9137  218.7938 H   0  0  0  0  0  0  0  0  0  0  0  0
  142.4151   78.5732  219.6503 H   0  0  0  0  0  0  0  0  0  0  0  0
  144.5180   77.1460  220.0930 H   0  0  0  0  0  0  0  0  0  0  0  0
  138.1039   77.1917  222.4750 H   0  0  0  0  0  0  0  0  0  0  0  0
  138.2780   79.6371  223.0235 H   0  0  0  0  0  0  0  0  0  0  0  0
  139.6840   81.5901  223.4731 H   0  0  0  0  0  0  0  0  0  0  0  0
  141.9380   82.6292  223.7276 H   0  0  0  0  0  0  0  0  0  0  0  0
  143.9643   81.2082  223.4306 H   0  0  0  0  0  0  0  0  0  0  0  0
  143.7337   78.8032  222.8925 H   0  0  0  0  0  0  0  0  0  0  0  0
  1  2  2  0
  2  3  1  0
  3  4  1  0
  4  5  1  0
  5  6  2  0
  5  7  1  0
  7  8  1  0
  8  9  1  0
  9 10  1  0
 10 11  1  0
 11 12  1  0
 12 13  2  0
 13 14  1  0
 14 15  2  0
 15 16  1  0
  2 17  1  0
 17 18  2  0
 18 19  1  0
 19 20  2  0
 20 21  1  0
 21 22  2  0
 22 23  1  0
 23 24  2  0
 24 25  1  0
 25 26  2  0
 11  7  1  0
 16 12  1  0
 26 17  1  0
 25 20  1  0
  3 27  1  0
  4 28  1  0
  4 29  1  0
  8 30  1  0
  8 31  1  0
  9 32  1  0
  9 33  1  0
 10 34  1  0
 10 35  1  0
 11 36  1  6
 14 37  1  0
 15 38  1  0
 16 39  1  0
 18 40  1  0
 19 41  1  0
 21 42  1  0
 22 43  1  0
 23 44  1  0
 24 45  1  0
M  END
>  <smiles>  (26) 
O=C(NCC(=O)N1CCC[C@@H]1c1ncc[nH]1)c1ccc2ccccc2n1

>  <score_type>  (26) 
oracle

>  <origin>  (26) 
autodockgpu

>  <m_score__min__energy>  (26) 
-7.8600000000000003

>  <m_primary>  (26) 
energy

>  <rmsd>  (26) 
7.428073447018508

>  <m_score__min__rmsd>  (26) 
7.428073447018508

>  <meeko>  (26) 
{"free_energy": -7.17, "intermolecular_energy": -8.66, "internal_energy": -2.36, "cluster_size": 17, "cluster_id": 3, "rank_in_cluster": 7}

>  <energy>  (26) 
-6.61

>  <cluster_rmsd>  (26) 
1.74

>  <cluster>  (26) 
2

$$$$

     RDKit          3D

 45 48  0  0  0  0  0  0  0  0999 V2000
  138.8990   75.1780  221.8750 O   0  0  0  0  0  0  0  0  0  0  0  0
  140.0280   75.7180  221.9180 C   0  0  0  0  0  0  0  0  0  0  0  0
  141.1300   74.9140  221.4710 N   0  0  0  0  0  0  0  0  0  0  0  0
  141.0490   73.5970  220.9970 C   0  0  0  0  0  0  0  0  0  0  0  0
  142.1830   72.7380  220.8020 C   0  0  0  0  0  0  0  0  0  0  0  0
  141.9160   71.4680  221.0460 O   0  0  0  0  0  0  0  0  0  0  0  0
  143.5010   72.9620  220.4130 N   0  0  0  0  0  0  0  0  0  0  0  0
  144.7580   72.2290  220.6660 C   0  0  0  0  0  0  0  0  0  0  0  0
  145.5940   73.3300  221.2690 C   0  0  0  0  0  0  0  0  0  0  0  0
  145.2270   74.5390  220.4550 C   0  0  0  0  0  0  0  0  0  0  0  0
  144.0690   74.0790  219.6110 C   0  0  2  0  0  0  0  0  0  0  0  0
  143.1530   75.1910  219.3740 C   0  0  0  0  0  0  0  0  0  0  0  0
  143.2300   76.4110  219.9820 N   0  0  0  0  0  0  0  0  0  0  0  0
  142.2680   77.2260  219.5200 C   0  0  0  0  0  0  0  0  0  0  0  0
  141.5530   76.5120  218.5890 C   0  0  0  0  0  0  0  0  0  0  0  0
  142.0980   75.2870  218.5110 N   0  0  0  0  0  0  0  0  0  0  0  0
  140.2260   77.0950  222.3950 C   0  0  0  0  0  0  0  0  0  0  0  0
  139.1050   77.8170  222.7200 C   0  0  0  0  0  0  0  0  0  0  0  0
  139.2860   79.1260  223.1740 C   0  0  0  0  0  0  0  0  0  0  0  0
  140.5680   79.6680  223.2910 C   0  0  0  0  0  0  0  0  0  0  0  0
  140.7840   80.9520  223.7340 C   0  0  0  0  0  0  0  0  0  0  0  0
  142.0710   81.4810  223.8460 C   0  0  0  0  0  0  0  0  0  0  0  0
  143.1450   80.6800  223.4970 C   0  0  0  0  0  0  0  0  0  0  0  0
  142.9430   79.3920  223.0510 C   0  0  0  0  0  0  0  0  0  0  0  0
  141.6620   78.8960  222.9500 C   0  0  0  0  0  0  0  0  0  0  0  0
  141.4500   77.6400  222.5160 N   0  0  0  0  0  0  0  0  0  0  0  0
  142.0700   75.4250  221.5310 H   0  0  0  0  0  0  0  0  0  0  0  0
  140.3927   73.0670  221.7029 H   0  0  0  0  0  0  0  0  0  0  0  0
  140.7395   73.7706  219.9558 H   0  0  0  0  0  0  0  0  0  0  0  0
  144.6097   71.3977  221.3710 H   0  0  0  0  0  0  0  0  0  0  0  0
  145.1981   71.7491  219.7794 H   0  0  0  0  0  0  0  0  0  0  0  0
  145.3415   73.4790  222.3292 H   0  0  0  0  0  0  0  0  0  0  0  0
  146.6715   73.1100  221.2455 H   0  0  0  0  0  0  0  0  0  0  0  0
  144.9272   75.3722  221.1076 H   0  0  0  0  0  0  0  0  0  0  0  0
  146.0675   74.9104  219.8503 H   0  0  0  0  0  0  0  0  0  0  0  0
  144.3280   73.7371  218.5981 H   0  0  0  0  0  0  0  0  0  0  0  0
  142.0870   78.2664  219.8280 H   0  0  0  0  0  0  0  0  0  0  0  0
  140.6906   76.8774  218.0122 H   0  0  0  0  0  0  0  0  0  0  0  0
  141.7490   74.5300  217.8640 H   0  0  0  0  0  0  0  0  0  0  0  0
  138.0996   77.3806  222.6264 H   0  0  0  0  0  0  0  0  0  0  0  0
  138.4104   79.7356  223.4419 H   0  0  0  0  0  0  0  0  0  0  0  0
  139.9213   81.5776  224.0068 H   0  0  0  0  0  0  0  0  0  0  0  0
  142.2281   82.5095  224.2030 H   0  0  0  0  0  0  0  0  0  0  0  0
  144.1685   81.0753  223.5764 H   0  0  0  0  0  0  0  0  0  0  0  0
  143.8019   78.7620  222.7765 H   0  0  0  0  0  0  0  0  0  0  0  0
  1  2  2  0
  2  3  1  0
  3  4  1  0
  4  5  1  0
  5  6  2  0
  5  7  1  0
  7  8  1  0
  8  9  1  0
  9 10  1  0
 10 11  1  0
 11 12  1  0
 12 13  2  0
 13 14  1  0
 14 15  2  0
 15 16  1  0
  2 17  1  0
 17 18  2  0
 18 19  1  0
 19 20  2  0
 20 21  1  0
 21 22  2  0
 22 23  1  0
 23 24  2  0
 24 25  1  0
 25 26  2  0
 11  7  1  0
 16 12  1  0
 26 17  1  0
 25 20  1  0
  3 27  1  0
  4 28  1  0
  4 29  1  0
  8 30  1  0
  8 31  1  0
  9 32  1  0
  9 33  1  0
 10 34  1  0
 10 35  1  0
 11 36  1  6
 14 37  1  0
 15 38  1  0
 16 39  1  0
 18 40  1  0
 19 41  1  0
 21 42  1  0
 22 43  1  0
 23 44  1  0
 24 45  1  0
M  END
>  <smiles>  (27) 
O=C(NCC(=O)N1CCC[C@@H]1c1ncc[nH]1)c1ccc2ccccc2n1

>  <score_type>  (27) 
oracle

>  <origin>  (27) 
autodockgpu

>  <m_score__min__energy>  (27) 
-7.8600000000000003

>  <m_primary>  (27) 
energy

>  <rmsd>  (27) 
7.449214939145654

>  <m_score__min__rmsd>  (27) 
7.449214939145654

>  <meeko>  (27) 
{"free_energy": -6.64, "intermolecular_energy": -8.14, "internal_energy": -2.61, "cluster_size": 17, "cluster_id": 3, "rank_in_cluster": 14}

>  <energy>  (27) 
-6.55

>  <cluster_rmsd>  (27) 
1.49

>  <cluster>  (27) 
2

$$$$

     RDKit          3D

 45 48  0  0  0  0  0  0  0  0999 V2000
  138.9860   75.0490  222.1450 O   0  0  0  0  0  0  0  0  0  0  0  0
  140.0830   75.6480  222.0710 C   0  0  0  0  0  0  0  0  0  0  0  0
  141.1970   74.8720  221.6050 N   0  0  0  0  0  0  0  0  0  0  0  0
  141.1600   73.5220  221.2310 C   0  0  0  0  0  0  0  0  0  0  0  0
  142.1010   72.9040  220.3390 C   0  0  0  0  0  0  0  0  0  0  0  0
  141.5560   71.9770  219.5740 O   0  0  0  0  0  0  0  0  0  0  0  0
  143.4650   73.0760  220.1150 N   0  0  0  0  0  0  0  0  0  0  0  0
  144.6440   72.2470  220.4380 C   0  0  0  0  0  0  0  0  0  0  0  0
  145.4650   73.2410  221.2200 C   0  0  0  0  0  0  0  0  0  0  0  0
  145.2570   74.5320  220.4790 C   0  0  0  0  0  0  0  0  0  0  0  0
  144.1790   74.2150  219.4780 C   0  0  2  0  0  0  0  0  0  0  0  0
  143.3570   75.3970  219.2400 C   0  0  0  0  0  0  0  0  0  0  0  0
  143.2810   76.4770  220.0730 N   0  0  0  0  0  0  0  0  0  0  0  0
  142.4710   77.4120  219.5530 C   0  0  0  0  0  0  0  0  0  0  0  0
  142.0120   76.9230  218.3530 C   0  0  0  0  0  0  0  0  0  0  0  0
  142.5560   75.7070  218.1790 N   0  0  0  0  0  0  0  0  0  0  0  0
  140.2340   77.0650  222.4360 C   0  0  0  0  0  0  0  0  0  0  0  0
  139.0850   77.7940  222.6180 C   0  0  0  0  0  0  0  0  0  0  0  0
  139.2210   79.1410  222.9660 C   0  0  0  0  0  0  0  0  0  0  0  0
  140.4870   79.7120  223.1210 C   0  0  0  0  0  0  0  0  0  0  0  0
  140.6590   81.0330  223.4620 C   0  0  0  0  0  0  0  0  0  0  0  0
  141.9290   81.5910  223.6130 C   0  0  0  0  0  0  0  0  0  0  0  0
  143.0330   80.7800  223.4100 C   0  0  0  0  0  0  0  0  0  0  0  0
  142.8760   79.4540  223.0680 C   0  0  0  0  0  0  0  0  0  0  0  0
  141.6100   78.9300  222.9250 C   0  0  0  0  0  0  0  0  0  0  0  0
  141.4410   77.6380  222.5910 N   0  0  0  0  0  0  0  0  0  0  0  0
  142.1090   75.4340  221.5640 H   0  0  0  0  0  0  0  0  0  0  0  0
  141.2224   72.9521  222.1698 H   0  0  0  0  0  0  0  0  0  0  0  0
  140.2489   73.5035  220.6149 H   0  0  0  0  0  0  0  0  0  0  0  0
  144.3724   71.3733  221.0486 H   0  0  0  0  0  0  0  0  0  0  0  0
  145.1545   71.8124  219.5660 H   0  0  0  0  0  0  0  0  0  0  0  0
  145.1037   73.3202  222.2559 H   0  0  0  0  0  0  0  0  0  0  0  0
  146.5250   72.9562  221.2932 H   0  0  0  0  0  0  0  0  0  0  0  0
  144.9302   75.3272  221.1652 H   0  0  0  0  0  0  0  0  0  0  0  0
  146.1790   74.8973  220.0031 H   0  0  0  0  0  0  0  0  0  0  0  0
  144.5321   73.9396  218.4733 H   0  0  0  0  0  0  0  0  0  0  0  0
  142.2217   78.3849  220.0017 H   0  0  0  0  0  0  0  0  0  0  0  0
  141.3252   77.4337  217.6620 H   0  0  0  0  0  0  0  0  0  0  0  0
  142.3800   75.1030  217.3310 H   0  0  0  0  0  0  0  0  0  0  0  0
  138.0932   77.3347  222.4944 H   0  0  0  0  0  0  0  0  0  0  0  0
  138.3229   79.7574  223.1193 H   0  0  0  0  0  0  0  0  0  0  0  0
  139.7731   81.6657  223.6197 H   0  0  0  0  0  0  0  0  0  0  0  0
  142.0503   82.6495  223.8867 H   0  0  0  0  0  0  0  0  0  0  0  0
  144.0443   81.1978  223.5227 H   0  0  0  0  0  0  0  0  0  0  0  0
  143.7584   78.8165  222.9098 H   0  0  0  0  0  0  0  0  0  0  0  0
  1  2  2  0
  2  3  1  0
  3  4  1  0
  4  5  1  0
  5  6  2  0
  5  7  1  0
  7  8  1  0
  8  9  1  0
  9 10  1  0
 10 11  1  0
 11 12  1  0
 12 13  2  0
 13 14  1  0
 14 15  2  0
 15 16  1  0
  2 17  1  0
 17 18  2  0
 18 19  1  0
 19 20  2  0
 20 21  1  0
 21 22  2  0
 22 23  1  0
 23 24  2  0
 24 25  1  0
 25 26  2  0
 11  7  1  0
 16 12  1  0
 26 17  1  0
 25 20  1  0
  3 27  1  0
  4 28  1  0
  4 29  1  0
  8 30  1  0
  8 31  1  0
  9 32  1  0
  9 33  1  0
 10 34  1  0
 10 35  1  0
 11 36  1  6
 14 37  1  0
 15 38  1  0
 16 39  1  0
 18 40  1  0
 19 41  1  0
 21 42  1  0
 22 43  1  0
 23 44  1  0
 24 45  1  0
M  END
>  <smiles>  (28) 
O=C(NCC(=O)N1CCC[C@@H]1c1ncc[nH]1)c1ccc2ccccc2n1

>  <score_type>  (28) 
oracle

>  <origin>  (28) 
autodockgpu

>  <m_score__min__energy>  (28) 
-7.8600000000000003

>  <m_primary>  (28) 
energy

>  <rmsd>  (28) 
7.469379280613359

>  <m_score__min__rmsd>  (28) 
7.469379280613359

>  <meeko>  (28) 
{"free_energy": -6.65, "intermolecular_energy": -8.14, "internal_energy": -2.77, "cluster_size": 17, "cluster_id": 3, "rank_in_cluster": 13}

>  <energy>  (28) 
-6.54

>  <cluster_rmsd>  (28) 
1.33

>  <cluster>  (28) 
2

$$$$

     RDKit          3D

 45 48  0  0  0  0  0  0  0  0999 V2000
  140.3140   71.4460  221.2070 O   0  0  0  0  0  0  0  0  0  0  0  0
  139.9750   71.9960  222.2800 C   0  0  0  0  0  0  0  0  0  0  0  0
  139.5420   73.3610  222.1810 N   0  0  0  0  0  0  0  0  0  0  0  0
  139.4690   74.1180  221.0030 C   0  0  0  0  0  0  0  0  0  0  0  0
  140.5800   74.3550  220.1250 C   0  0  0  0  0  0  0  0  0  0  0  0
  140.7980   73.3580  219.2880 O   0  0  0  0  0  0  0  0  0  0  0  0
  141.4730   75.4120  219.9720 N   0  0  0  0  0  0  0  0  0  0  0  0
  141.2990   76.8160  219.5480 C   0  0  0  0  0  0  0  0  0  0  0  0
  142.2820   76.8750  218.4060 C   0  0  0  0  0  0  0  0  0  0  0  0
  143.4460   76.0610  218.8970 C   0  0  0  0  0  0  0  0  0  0  0  0
  142.9470   75.4350  220.1720 C   0  0  2  0  0  0  0  0  0  0  0  0
  143.5620   74.1240  220.3570 C   0  0  0  0  0  0  0  0  0  0  0  0
  144.8900   73.8520  220.1880 N   0  0  0  0  0  0  0  0  0  0  0  0
  145.1430   72.5650  220.4710 C   0  0  0  0  0  0  0  0  0  0  0  0
  143.9470   71.9910  220.8320 C   0  0  0  0  0  0  0  0  0  0  0  0
  143.0040   72.9440  220.7580 N   0  0  0  0  0  0  0  0  0  0  0  0
  140.0120   71.2940  223.5720 C   0  0  0  0  0  0  0  0  0  0  0  0
  139.5410   70.0050  223.6020 C   0  0  0  0  0  0  0  0  0  0  0  0
  139.5740   69.3320  224.8260 C   0  0  0  0  0  0  0  0  0  0  0  0
  140.0700   69.9600  225.9710 C   0  0  0  0  0  0  0  0  0  0  0  0
  140.1170   69.3290  227.1920 C   0  0  0  0  0  0  0  0  0  0  0  0
  140.6160   69.9690  228.3280 C   0  0  0  0  0  0  0  0  0  0  0  0
  141.0700   71.2710  228.2050 C   0  0  0  0  0  0  0  0  0  0  0  0
  141.0290   71.9160  226.9880 C   0  0  0  0  0  0  0  0  0  0  0  0
  140.5310   71.2600  225.8830 C   0  0  0  0  0  0  0  0  0  0  0  0
  140.4840   71.8760  224.6880 N   0  0  0  0  0  0  0  0  0  0  0  0
  139.2670   73.7800  223.1280 H   0  0  0  0  0  0  0  0  0  0  0  0
  138.7002   73.6316  220.3846 H   0  0  0  0  0  0  0  0  0  0  0  0
  139.3123   75.1260  221.4146 H   0  0  0  0  0  0  0  0  0  0  0  0
  140.2710   77.0152  219.2111 H   0  0  0  0  0  0  0  0  0  0  0  0
  141.4671   77.5608  220.3398 H   0  0  0  0  0  0  0  0  0  0  0  0
  141.8516   76.4344  217.4946 H   0  0  0  0  0  0  0  0  0  0  0  0
  142.5636   77.9040  218.1381 H   0  0  0  0  0  0  0  0  0  0  0  0
  143.7186   75.2880  218.1634 H   0  0  0  0  0  0  0  0  0  0  0  0
  144.3498   76.6686  219.0515 H   0  0  0  0  0  0  0  0  0  0  0  0
  143.2045   75.9732  221.0962 H   0  0  0  0  0  0  0  0  0  0  0  0
  146.1213   72.0644  220.4232 H   0  0  0  0  0  0  0  0  0  0  0  0
  143.7912   70.9429  221.1274 H   0  0  0  0  0  0  0  0  0  0  0  0
  141.9870   72.7810  220.9910 H   0  0  0  0  0  0  0  0  0  0  0  0
  139.1516   69.5194  222.6951 H   0  0  0  0  0  0  0  0  0  0  0  0
  139.2058   68.2974  224.8886 H   0  0  0  0  0  0  0  0  0  0  0  0
  139.7525   68.2945  227.2756 H   0  0  0  0  0  0  0  0  0  0  0  0
  140.6477   69.4510  229.2979 H   0  0  0  0  0  0  0  0  0  0  0  0
  141.4671   71.7954  229.0867 H   0  0  0  0  0  0  0  0  0  0  0  0
  141.3923   72.9504  226.8988 H   0  0  0  0  0  0  0  0  0  0  0  0
  1  2  2  0
  2  3  1  0
  3  4  1  0
  4  5  1  0
  5  6  2  0
  5  7  1  0
  7  8  1  0
  8  9  1  0
  9 10  1  0
 10 11  1  0
 11 12  1  0
 12 13  2  0
 13 14  1  0
 14 15  2  0
 15 16  1  0
  2 17  1  0
 17 18  2  0
 18 19  1  0
 19 20  2  0
 20 21  1  0
 21 22  2  0
 22 23  1  0
 23 24  2  0
 24 25  1  0
 25 26  2  0
 11  7  1  0
 16 12  1  0
 26 17  1  0
 25 20  1  0
  3 27  1  0
  4 28  1  0
  4 29  1  0
  8 30  1  0
  8 31  1  0
  9 32  1  0
  9 33  1  0
 10 34  1  0
 10 35  1  0
 11 36  1  1
 14 37  1  0
 15 38  1  0
 16 39  1  0
 18 40  1  0
 19 41  1  0
 21 42  1  0
 22 43  1  0
 23 44  1  0
 24 45  1  0
M  END
>  <smiles>  (29) 
O=C(NCC(=O)N1CCC[C@@H]1c1ncc[nH]1)c1ccc2ccccc2n1

>  <score_type>  (29) 
oracle

>  <origin>  (29) 
autodockgpu

>  <m_score__min__energy>  (29) 
-7.8600000000000003

>  <m_primary>  (29) 
energy

>  <rmsd>  (29) 
3.5542057282379154

>  <m_score__min__rmsd>  (29) 
3.5542057282379154

>  <meeko>  (29) 
{"free_energy": -7.05, "intermolecular_energy": -8.54, "internal_energy": -2.63, "cluster_size": 22, "cluster_id": 2, "rank_in_cluster": 10}

>  <energy>  (29) 
-7.24

>  <cluster_rmsd>  (29) 
0.0

>  <cluster>  (29) 
3

$$$$

     RDKit          3D

 45 48  0  0  0  0  0  0  0  0999 V2000
  138.9230   75.2160  221.6140 O   0  0  0  0  0  0  0  0  0  0  0  0
  140.0510   75.6900  221.8820 C   0  0  0  0  0  0  0  0  0  0  0  0
  141.1680   74.8110  221.6840 N   0  0  0  0  0  0  0  0  0  0  0  0
  141.1030   73.4890  221.2230 C   0  0  0  0  0  0  0  0  0  0  0  0
  142.0610   72.8960  220.3320 C   0  0  0  0  0  0  0  0  0  0  0  0
  141.5380   71.9630  219.5580 O   0  0  0  0  0  0  0  0  0  0  0  0
  143.4220   73.0970  220.1150 N   0  0  0  0  0  0  0  0  0  0  0  0
  144.6170   72.2970  220.4510 C   0  0  0  0  0  0  0  0  0  0  0  0
  145.4110   73.3160  221.2310 C   0  0  0  0  0  0  0  0  0  0  0  0
  145.1780   74.5960  220.4790 C   0  0  0  0  0  0  0  0  0  0  0  0
  144.1140   74.2480  219.4750 C   0  0  2  0  0  0  0  0  0  0  0  0
  143.2670   75.4090  219.2230 C   0  0  0  0  0  0  0  0  0  0  0  0
  142.7840   75.7750  217.9980 N   0  0  0  0  0  0  0  0  0  0  0  0
  142.0070   76.8640  218.1090 C   0  0  0  0  0  0  0  0  0  0  0  0
  141.9870   77.2090  219.4390 C   0  0  0  0  0  0  0  0  0  0  0  0
  142.7510   76.3230  220.0980 N   0  0  0  0  0  0  0  0  0  0  0  0
  140.2330   77.0650  222.3710 C   0  0  0  0  0  0  0  0  0  0  0  0
  139.1040   77.7670  222.7100 C   0  0  0  0  0  0  0  0  0  0  0  0
  139.2690   79.0750  223.1750 C   0  0  0  0  0  0  0  0  0  0  0  0
  140.5440   79.6350  223.2870 C   0  0  0  0  0  0  0  0  0  0  0  0
  140.7460   80.9170  223.7400 C   0  0  0  0  0  0  0  0  0  0  0  0
  142.0260   81.4640  223.8470 C   0  0  0  0  0  0  0  0  0  0  0  0
  143.1080   80.6820  223.4820 C   0  0  0  0  0  0  0  0  0  0  0  0
  142.9220   79.3950  223.0260 C   0  0  0  0  0  0  0  0  0  0  0  0
  141.6470   78.8810  222.9310 C   0  0  0  0  0  0  0  0  0  0  0  0
  141.4490   77.6270  222.4870 N   0  0  0  0  0  0  0  0  0  0  0  0
  142.1060   75.2670  221.9310 H   0  0  0  0  0  0  0  0  0  0  0  0
  141.1068   72.8594  222.1250 H   0  0  0  0  0  0  0  0  0  0  0  0
  140.2187   73.5408  220.5708 H   0  0  0  0  0  0  0  0  0  0  0  0
  144.3614   71.4219  221.0665 H   0  0  0  0  0  0  0  0  0  0  0  0
  145.1425   71.8673  219.5854 H   0  0  0  0  0  0  0  0  0  0  0  0
  145.0417   73.3946  222.2642 H   0  0  0  0  0  0  0  0  0  0  0  0
  146.4767   73.0561  221.3128 H   0  0  0  0  0  0  0  0  0  0  0  0
  144.8295   75.3887  221.1574 H   0  0  0  0  0  0  0  0  0  0  0  0
  146.0943   74.9782  220.0053 H   0  0  0  0  0  0  0  0  0  0  0  0
  144.4797   73.9739  218.4744 H   0  0  0  0  0  0  0  0  0  0  0  0
  141.4853   77.3819  217.2907 H   0  0  0  0  0  0  0  0  0  0  0  0
  141.4441   78.0565  219.8829 H   0  0  0  0  0  0  0  0  0  0  0  0
  142.9070   76.3460  221.1420 H   0  0  0  0  0  0  0  0  0  0  0  0
  138.1045   77.3166  222.6192 H   0  0  0  0  0  0  0  0  0  0  0  0
  138.3866   79.6689  223.4554 H   0  0  0  0  0  0  0  0  0  0  0  0
  139.8767   81.5276  224.0256 H   0  0  0  0  0  0  0  0  0  0  0  0
  142.1710   82.4913  224.2124 H   0  0  0  0  0  0  0  0  0  0  0  0
  144.1261   81.0917  223.5566 H   0  0  0  0  0  0  0  0  0  0  0  0
  143.7879   78.7804  222.7390 H   0  0  0  0  0  0  0  0  0  0  0  0
  1  2  2  0
  2  3  1  0
  3  4  1  0
  4  5  1  0
  5  6  2  0
  5  7  1  0
  7  8  1  0
  8  9  1  0
  9 10  1  0
 10 11  1  0
 11 12  1  0
 12 13  2  0
 13 14  1  0
 14 15  2  0
 15 16  1  0
  2 17  1  0
 17 18  2  0
 18 19  1  0
 19 20  2  0
 20 21  1  0
 21 22  2  0
 22 23  1  0
 23 24  2  0
 24 25  1  0
 25 26  2  0
 11  7  1  0
 16 12  1  0
 26 17  1  0
 25 20  1  0
  3 27  1  0
  4 28  1  0
  4 29  1  0
  8 30  1  0
  8 31  1  0
  9 32  1  0
  9 33  1  0
 10 34  1  0
 10 35  1  0
 11 36  1  6
 14 37  1  0
 15 38  1  0
 16 39  1  0
 18 40  1  0
 19 41  1  0
 21 42  1  0
 22 43  1  0
 23 44  1  0
 24 45  1  0
M  END
>  <smiles>  (30) 
O=C(NCC(=O)N1CCC[C@@H]1c1ncc[nH]1)c1ccc2ccccc2n1

>  <score_type>  (30) 
oracle

>  <origin>  (30) 
autodockgpu

>  <m_score__min__energy>  (30) 
-7.8600000000000003

>  <m_primary>  (30) 
energy

>  <rmsd>  (30) 
7.386417407231812

>  <m_score__min__rmsd>  (30) 
7.386417407231812

>  <meeko>  (30) 
{"free_energy": -7.15, "intermolecular_energy": -8.65, "internal_energy": -2.45, "cluster_size": 17, "cluster_id": 3, "rank_in_cluster": 8}

>  <energy>  (30) 
-7.24

>  <cluster_rmsd>  (30) 
0.59

>  <cluster>  (30) 
3

$$$$

     RDKit          3D

 45 48  0  0  0  0  0  0  0  0999 V2000
  138.9380   75.4650  221.4620 O   0  0  0  0  0  0  0  0  0  0  0  0
  140.0420   75.8880  221.8730 C   0  0  0  0  0  0  0  0  0  0  0  0
  141.1350   74.9590  221.8150 N   0  0  0  0  0  0  0  0  0  0  0  0
  141.0700   73.6400  221.3440 C   0  0  0  0  0  0  0  0  0  0  0  0
  141.9450   73.0960  220.3430 C   0  0  0  0  0  0  0  0  0  0  0  0
  141.3100   72.3690  219.4430 O   0  0  0  0  0  0  0  0  0  0  0  0
  143.3180   73.1720  220.1250 N   0  0  0  0  0  0  0  0  0  0  0  0
  144.4360   72.2670  220.4600 C   0  0  0  0  0  0  0  0  0  0  0  0
  145.3200   73.2080  221.2400 C   0  0  0  0  0  0  0  0  0  0  0  0
  145.2040   74.5050  220.4890 C   0  0  0  0  0  0  0  0  0  0  0  0
  144.1110   74.2550  219.4850 C   0  0  2  0  0  0  0  0  0  0  0  0
  143.3740   75.4890  219.2340 C   0  0  0  0  0  0  0  0  0  0  0  0
  143.0240   75.9540  217.9980 N   0  0  0  0  0  0  0  0  0  0  0  0
  142.3190   77.0910  218.1080 C   0  0  0  0  0  0  0  0  0  0  0  0
  142.2120   77.3670  219.4500 C   0  0  0  0  0  0  0  0  0  0  0  0
  142.8520   76.3930  220.1160 N   0  0  0  0  0  0  0  0  0  0  0  0
  140.2220   77.2540  222.3860 C   0  0  0  0  0  0  0  0  0  0  0  0
  139.0910   77.9520  222.7280 C   0  0  0  0  0  0  0  0  0  0  0  0
  139.2550   79.2510  223.2170 C   0  0  0  0  0  0  0  0  0  0  0  0
  140.5300   79.8070  223.3480 C   0  0  0  0  0  0  0  0  0  0  0  0
  140.7290   81.0820  223.8240 C   0  0  0  0  0  0  0  0  0  0  0  0
  142.0090   81.6250  223.9510 C   0  0  0  0  0  0  0  0  0  0  0  0
  143.0930   80.8470  223.5810 C   0  0  0  0  0  0  0  0  0  0  0  0
  142.9090   79.5690  223.1020 C   0  0  0  0  0  0  0  0  0  0  0  0
  141.6350   79.0580  222.9880 C   0  0  0  0  0  0  0  0  0  0  0  0
  141.4390   77.8120  222.5210 N   0  0  0  0  0  0  0  0  0  0  0  0
  142.0540   75.3730  222.1800 H   0  0  0  0  0  0  0  0  0  0  0  0
  141.1989   73.0013  222.2302 H   0  0  0  0  0  0  0  0  0  0  0  0
  140.1169   73.6629  220.7953 H   0  0  0  0  0  0  0  0  0  0  0  0
  144.1023   71.4183  221.0751 H   0  0  0  0  0  0  0  0  0  0  0  0
  144.9199   71.7926  219.5935 H   0  0  0  0  0  0  0  0  0  0  0  0
  144.9603   73.3190  222.2736 H   0  0  0  0  0  0  0  0  0  0  0  0
  146.3576   72.8519  221.3208 H   0  0  0  0  0  0  0  0  0  0  0  0
  144.9294   75.3256  221.1681 H   0  0  0  0  0  0  0  0  0  0  0  0
  146.1508   74.8031  220.0150 H   0  0  0  0  0  0  0  0  0  0  0  0
  144.4486   73.9483  218.4840 H   0  0  0  0  0  0  0  0  0  0  0  0
  141.9058   77.6879  217.2816 H   0  0  0  0  0  0  0  0  0  0  0  0
  141.6958   78.2293  219.8971 H   0  0  0  0  0  0  0  0  0  0  0  0
  142.9210   76.3490  221.1690 H   0  0  0  0  0  0  0  0  0  0  0  0
  138.0915   77.5053  222.6211 H   0  0  0  0  0  0  0  0  0  0  0  0
  138.3716   79.8414  223.5015 H   0  0  0  0  0  0  0  0  0  0  0  0
  139.8580   81.6890  224.1118 H   0  0  0  0  0  0  0  0  0  0  0  0
  142.1527   82.6456  224.3355 H   0  0  0  0  0  0  0  0  0  0  0  0
  144.1111   81.2537  223.6705 H   0  0  0  0  0  0  0  0  0  0  0  0
  143.7766   78.9583  222.8114 H   0  0  0  0  0  0  0  0  0  0  0  0
  1  2  2  0
  2  3  1  0
  3  4  1  0
  4  5  1  0
  5  6  2  0
  5  7  1  0
  7  8  1  0
  8  9  1  0
  9 10  1  0
 10 11  1  0
 11 12  1  0
 12 13  2  0
 13 14  1  0
 14 15  2  0
 15 16  1  0
  2 17  1  0
 17 18  2  0
 18 19  1  0
 19 20  2  0
 20 21  1  0
 21 22  2  0
 22 23  1  0
 23 24  2  0
 24 25  1  0
 25 26  2  0
 11  7  1  0
 16 12  1  0
 26 17  1  0
 25 20  1  0
  3 27  1  0
  4 28  1  0
  4 29  1  0
  8 30  1  0
  8 31  1  0
  9 32  1  0
  9 33  1  0
 10 34  1  0
 10 35  1  0
 11 36  1  6
 14 37  1  0
 15 38  1  0
 16 39  1  0
 18 40  1  0
 19 41  1  0
 21 42  1  0
 22 43  1  0
 23 44  1  0
 24 45  1  0
M  END
>  <smiles>  (31) 
O=C(NCC(=O)N1CCC[C@@H]1c1ncc[nH]1)c1ccc2ccccc2n1

>  <score_type>  (31) 
oracle

>  <origin>  (31) 
autodockgpu

>  <m_score__min__energy>  (31) 
-7.8600000000000003

>  <m_primary>  (31) 
energy

>  <rmsd>  (31) 
7.444077159774454

>  <m_score__min__rmsd>  (31) 
7.444077159774454

>  <meeko>  (31) 
{"free_energy": -7.19, "intermolecular_energy": -8.69, "internal_energy": -2.33, "cluster_size": 17, "cluster_id": 3, "rank_in_cluster": 5}

>  <energy>  (31) 
-7.21

>  <cluster_rmsd>  (31) 
0.64

>  <cluster>  (31) 
3

$$$$

     RDKit          3D

 45 48  0  0  0  0  0  0  0  0999 V2000
  141.2590   71.8000  221.4370 O   0  0  0  0  0  0  0  0  0  0  0  0
  140.5890   72.2490  222.3940 C   0  0  0  0  0  0  0  0  0  0  0  0
  140.1010   73.5920  222.2490 N   0  0  0  0  0  0  0  0  0  0  0  0
  140.3090   74.4270  221.1430 C   0  0  0  0  0  0  0  0  0  0  0  0
  141.1750   75.5740  221.1480 C   0  0  0  0  0  0  0  0  0  0  0  0
  141.2900   76.1290  222.3400 O   0  0  0  0  0  0  0  0  0  0  0  0
  141.9130   76.2220  220.1620 N   0  0  0  0  0  0  0  0  0  0  0  0
  141.6070   77.3550  219.2650 C   0  0  0  0  0  0  0  0  0  0  0  0
  141.8850   76.7200  217.9250 C   0  0  0  0  0  0  0  0  0  0  0  0
  143.1040   75.8780  218.1800 C   0  0  0  0  0  0  0  0  0  0  0  0
  143.2880   75.9340  219.6720 C   0  0  2  0  0  0  0  0  0  0  0  0
  143.8580   74.6790  220.1500 C   0  0  0  0  0  0  0  0  0  0  0  0
  145.1530   74.5100  220.5510 N   0  0  0  0  0  0  0  0  0  0  0  0
  145.3530   73.2510  220.9710 C   0  0  0  0  0  0  0  0  0  0  0  0
  144.1560   72.5900  220.8380 C   0  0  0  0  0  0  0  0  0  0  0  0
  143.2650   73.4630  220.3420 N   0  0  0  0  0  0  0  0  0  0  0  0
  140.3090   71.4570  223.6020 C   0  0  0  0  0  0  0  0  0  0  0  0
  139.6290   70.2760  223.4370 C   0  0  0  0  0  0  0  0  0  0  0  0
  139.3610   69.5180  224.5800 C   0  0  0  0  0  0  0  0  0  0  0  0
  139.7750   69.9580  225.8390 C   0  0  0  0  0  0  0  0  0  0  0  0
  139.5290   69.2400  226.9850 C   0  0  0  0  0  0  0  0  0  0  0  0
  139.9490   69.6910  228.2380 C   0  0  0  0  0  0  0  0  0  0  0  0
  140.6300   70.8940  228.3100 C   0  0  0  0  0  0  0  0  0  0  0  0
  140.8840   71.6250  227.1700 C   0  0  0  0  0  0  0  0  0  0  0  0
  140.4570   71.1560  225.9470 C   0  0  0  0  0  0  0  0  0  0  0  0
  140.6970   71.8590  224.8250 N   0  0  0  0  0  0  0  0  0  0  0  0
  139.5370   73.9240  223.0980 H   0  0  0  0  0  0  0  0  0  0  0  0
  140.6871   73.7727  220.3437 H   0  0  0  0  0  0  0  0  0  0  0  0
  139.3247   74.9113  221.0615 H   0  0  0  0  0  0  0  0  0  0  0  0
  140.5579   77.6734  219.3548 H   0  0  0  0  0  0  0  0  0  0  0  0
  142.1805   78.2714  219.4683 H   0  0  0  0  0  0  0  0  0  0  0  0
  141.0378   76.0972  217.6020 H   0  0  0  0  0  0  0  0  0  0  0  0
  142.0354   77.4591  217.1243 H   0  0  0  0  0  0  0  0  0  0  0  0
  142.9396   74.8429  217.8461 H   0  0  0  0  0  0  0  0  0  0  0  0
  143.9872   76.2402  217.6334 H   0  0  0  0  0  0  0  0  0  0  0  0
  143.9961   76.6941  220.0336 H   0  0  0  0  0  0  0  0  0  0  0  0
  146.2956   72.8289  221.3495 H   0  0  0  0  0  0  0  0  0  0  0  0
  143.9629   71.5372  221.0917 H   0  0  0  0  0  0  0  0  0  0  0  0
  142.2550   73.2230  220.1460 H   0  0  0  0  0  0  0  0  0  0  0  0
  139.3067   69.9385  222.4409 H   0  0  0  0  0  0  0  0  0  0  0  0
  138.8187   68.5655  224.4871 H   0  0  0  0  0  0  0  0  0  0  0  0
  138.9872   68.2854  226.9132 H   0  0  0  0  0  0  0  0  0  0  0  0
  139.7437   69.1046  229.1457 H   0  0  0  0  0  0  0  0  0  0  0  0
  140.9714   71.2697  229.2859 H   0  0  0  0  0  0  0  0  0  0  0  0
  141.4259   72.5799  227.2362 H   0  0  0  0  0  0  0  0  0  0  0  0
  1  2  2  0
  2  3  1  0
  3  4  1  0
  4  5  1  0
  5  6  2  0
  5  7  1  0
  7  8  1  0
  8  9  1  0
  9 10  1  0
 10 11  1  0
 11 12  1  0
 12 13  2  0
 13 14  1  0
 14 15  2  0
 15 16  1  0
  2 17  1  0
 17 18  2  0
 18 19  1  0
 19 20  2  0
 20 21  1  0
 21 22  2  0
 22 23  1  0
 23 24  2  0
 24 25  1  0
 25 26  2  0
 11  7  1  0
 16 12  1  0
 26 17  1  0
 25 20  1  0
  3 27  1  0
  4 28  1  0
  4 29  1  0
  8 30  1  0
  8 31  1  0
  9 32  1  0
  9 33  1  0
 10 34  1  0
 10 35  1  0
 11 36  1  6
 14 37  1  0
 15 38  1  0
 16 39  1  0
 18 40  1  0
 19 41  1  0
 21 42  1  0
 22 43  1  0
 23 44  1  0
 24 45  1  0
M  END
>  <smiles>  (32) 
O=C(NCC(=O)N1CCC[C@@H]1c1ncc[nH]1)c1ccc2ccccc2n1

>  <score_type>  (32) 
oracle

>  <origin>  (32) 
autodockgpu

>  <m_score__min__energy>  (32) 
-7.8600000000000003

>  <m_primary>  (32) 
energy

>  <rmsd>  (32) 
3.4504345870281963

>  <m_score__min__rmsd>  (32) 
3.4504345870281963

>  <meeko>  (32) 
{"free_energy": -7.62, "intermolecular_energy": -9.11, "internal_energy": -2.13, "cluster_size": 22, "cluster_id": 2, "rank_in_cluster": 6}

>  <energy>  (32) 
-7.19

>  <cluster_rmsd>  (32) 
0.61

>  <cluster>  (32) 
3

$$$$

     RDKit          3D

 45 48  0  0  0  0  0  0  0  0999 V2000
  138.8450   75.4420  221.6620 O   0  0  0  0  0  0  0  0  0  0  0  0
  139.9900   75.9230  221.8220 C   0  0  0  0  0  0  0  0  0  0  0  0
  141.0890   75.0760  221.4540 N   0  0  0  0  0  0  0  0  0  0  0  0
  140.9900   73.7770  220.9380 C   0  0  0  0  0  0  0  0  0  0  0  0
  142.1050   72.8890  220.7640 C   0  0  0  0  0  0  0  0  0  0  0  0
  141.7980   71.6250  220.9860 O   0  0  0  0  0  0  0  0  0  0  0  0
  143.4390   73.0820  220.4150 N   0  0  0  0  0  0  0  0  0  0  0  0
  144.6690   72.3170  220.7010 C   0  0  0  0  0  0  0  0  0  0  0  0
  145.5150   73.3940  221.3330 C   0  0  0  0  0  0  0  0  0  0  0  0
  145.2020   74.6150  220.5140 C   0  0  0  0  0  0  0  0  0  0  0  0
  144.0580   74.1880  219.6350 C   0  0  2  0  0  0  0  0  0  0  0  0
  143.1780   75.3220  219.3760 C   0  0  0  0  0  0  0  0  0  0  0  0
  142.0410   75.2740  218.6200 N   0  0  0  0  0  0  0  0  0  0  0  0
  141.4360   76.4720  218.6080 C   0  0  0  0  0  0  0  0  0  0  0  0
  142.2030   77.3160  219.3750 C   0  0  0  0  0  0  0  0  0  0  0  0
  143.2490   76.6080  219.8310 N   0  0  0  0  0  0  0  0  0  0  0  0
  140.2080   77.2770  222.3550 C   0  0  0  0  0  0  0  0  0  0  0  0
  139.0990   77.9910  222.7330 C   0  0  0  0  0  0  0  0  0  0  0  0
  139.2990   79.2780  223.2400 C   0  0  0  0  0  0  0  0  0  0  0  0
  140.5880   79.8060  223.3530 C   0  0  0  0  0  0  0  0  0  0  0  0
  140.8230   81.0680  223.8470 C   0  0  0  0  0  0  0  0  0  0  0  0
  142.1160   81.5830  223.9560 C   0  0  0  0  0  0  0  0  0  0  0  0
  143.1760   80.7910  223.5510 C   0  0  0  0  0  0  0  0  0  0  0  0
  142.9560   79.5250  223.0540 C   0  0  0  0  0  0  0  0  0  0  0  0
  141.6690   79.0420  222.9580 C   0  0  0  0  0  0  0  0  0  0  0  0
  141.4380   77.8080  222.4740 N   0  0  0  0  0  0  0  0  0  0  0  0
  142.0430   75.5380  221.6140 H   0  0  0  0  0  0  0  0  0  0  0  0
  140.2891   73.2473  221.5999 H   0  0  0  0  0  0  0  0  0  0  0  0
  140.7309   73.9904  219.8905 H   0  0  0  0  0  0  0  0  0  0  0  0
  144.4794   71.4871  221.3976 H   0  0  0  0  0  0  0  0  0  0  0  0
  145.1224   71.8297  219.8252 H   0  0  0  0  0  0  0  0  0  0  0  0
  145.2359   73.5453  222.3862 H   0  0  0  0  0  0  0  0  0  0  0  0
  146.5869   73.1469  221.3397 H   0  0  0  0  0  0  0  0  0  0  0  0
  144.9045   75.4530  221.1615 H   0  0  0  0  0  0  0  0  0  0  0  0
  146.0687   74.9671  219.9353 H   0  0  0  0  0  0  0  0  0  0  0  0
  144.3380   73.8440  218.6284 H   0  0  0  0  0  0  0  0  0  0  0  0
  140.5037   76.7294  218.0840 H   0  0  0  0  0  0  0  0  0  0  0  0
  141.9976   78.3774  219.5782 H   0  0  0  0  0  0  0  0  0  0  0  0
  144.0000   77.0090  220.4570 H   0  0  0  0  0  0  0  0  0  0  0  0
  138.0888   77.5658  222.6404 H   0  0  0  0  0  0  0  0  0  0  0  0
  138.4338   79.8809  223.5530 H   0  0  0  0  0  0  0  0  0  0  0  0
  139.9708   81.6870  224.1641 H   0  0  0  0  0  0  0  0  0  0  0  0
  142.2880   82.5939  224.3542 H   0  0  0  0  0  0  0  0  0  0  0  0
  144.2037   81.1758  223.6266 H   0  0  0  0  0  0  0  0  0  0  0  0
  143.8046   78.9020  222.7350 H   0  0  0  0  0  0  0  0  0  0  0  0
  1  2  2  0
  2  3  1  0
  3  4  1  0
  4  5  1  0
  5  6  2  0
  5  7  1  0
  7  8  1  0
  8  9  1  0
  9 10  1  0
 10 11  1  0
 11 12  1  0
 12 13  2  0
 13 14  1  0
 14 15  2  0
 15 16  1  0
  2 17  1  0
 17 18  2  0
 18 19  1  0
 19 20  2  0
 20 21  1  0
 21 22  2  0
 22 23  1  0
 23 24  2  0
 24 25  1  0
 25 26  2  0
 11  7  1  0
 16 12  1  0
 26 17  1  0
 25 20  1  0
  3 27  1  0
  4 28  1  0
  4 29  1  0
  8 30  1  0
  8 31  1  0
  9 32  1  0
  9 33  1  0
 10 34  1  0
 10 35  1  0
 11 36  1  6
 14 37  1  0
 15 38  1  0
 16 39  1  0
 18 40  1  0
 19 41  1  0
 21 42  1  0
 22 43  1  0
 23 44  1  0
 24 45  1  0
M  END
>  <smiles>  (33) 
O=C(NCC(=O)N1CCC[C@@H]1c1ncc[nH]1)c1ccc2ccccc2n1

>  <score_type>  (33) 
oracle

>  <origin>  (33) 
autodockgpu

>  <m_score__min__energy>  (33) 
-7.8600000000000003

>  <m_primary>  (33) 
energy

>  <rmsd>  (33) 
7.4780196188311505

>  <m_score__min__rmsd>  (33) 
7.4780196188311505

>  <meeko>  (33) 
{"free_energy": -7.19, "intermolecular_energy": -8.69, "internal_energy": -2.0, "cluster_size": 17, "cluster_id": 3, "rank_in_cluster": 4}

>  <energy>  (33) 
-7.19

>  <cluster_rmsd>  (33) 
0.14

>  <cluster>  (33) 
3

$$$$

     RDKit          3D

 45 48  0  0  0  0  0  0  0  0999 V2000
  140.7770   71.6210  221.3130 O   0  0  0  0  0  0  0  0  0  0  0  0
  140.1830   72.0700  222.3200 C   0  0  0  0  0  0  0  0  0  0  0  0
  139.5350   73.3410  222.1560 N   0  0  0  0  0  0  0  0  0  0  0  0
  139.5110   74.1070  220.9830 C   0  0  0  0  0  0  0  0  0  0  0  0
  140.6540   74.3380  220.1450 C   0  0  0  0  0  0  0  0  0  0  0  0
  140.9380   73.3120  219.3650 O   0  0  0  0  0  0  0  0  0  0  0  0
  141.5250   75.4130  219.9850 N   0  0  0  0  0  0  0  0  0  0  0  0
  141.3180   76.8140  219.5660 C   0  0  0  0  0  0  0  0  0  0  0  0
  142.2870   76.8950  218.4130 C   0  0  0  0  0  0  0  0  0  0  0  0
  143.4720   76.1030  218.8900 C   0  0  0  0  0  0  0  0  0  0  0  0
  143.0000   75.4650  220.1680 C   0  0  2  0  0  0  0  0  0  0  0  0
  143.6420   74.1670  220.3440 C   0  0  0  0  0  0  0  0  0  0  0  0
  144.9620   73.9070  220.1020 N   0  0  0  0  0  0  0  0  0  0  0  0
  145.2490   72.6300  220.3970 C   0  0  0  0  0  0  0  0  0  0  0  0
  144.0850   72.0490  220.8400 C   0  0  0  0  0  0  0  0  0  0  0  0
  143.1250   72.9880  220.8030 N   0  0  0  0  0  0  0  0  0  0  0  0
  140.1440   71.3470  223.6000 C   0  0  0  0  0  0  0  0  0  0  0  0
  139.5740   70.0990  223.6010 C   0  0  0  0  0  0  0  0  0  0  0  0
  139.5340   69.4060  224.8140 C   0  0  0  0  0  0  0  0  0  0  0  0
  140.0600   69.9750  225.9770 C   0  0  0  0  0  0  0  0  0  0  0  0
  140.0380   69.3230  227.1870 C   0  0  0  0  0  0  0  0  0  0  0  0
  140.5670   69.9030  228.3410 C   0  0  0  0  0  0  0  0  0  0  0  0
  141.1240   71.1680  228.2470 C   0  0  0  0  0  0  0  0  0  0  0  0
  141.1530   71.8330  227.0400 C   0  0  0  0  0  0  0  0  0  0  0  0
  140.6230   71.2360  225.9170 C   0  0  0  0  0  0  0  0  0  0  0  0
  140.6430   71.8730  224.7330 N   0  0  0  0  0  0  0  0  0  0  0  0
  139.0460   73.6760  223.0490 H   0  0  0  0  0  0  0  0  0  0  0  0
  138.7584   73.6341  220.3349 H   0  0  0  0  0  0  0  0  0  0  0  0
  139.3519   75.1136  221.3971 H   0  0  0  0  0  0  0  0  0  0  0  0
  140.2825   76.9931  219.2410 H   0  0  0  0  0  0  0  0  0  0  0  0
  141.4799   77.5606  220.3575 H   0  0  0  0  0  0  0  0  0  0  0  0
  141.8555   76.4478  217.5053 H   0  0  0  0  0  0  0  0  0  0  0  0
  142.5452   77.9299  218.1439 H   0  0  0  0  0  0  0  0  0  0  0  0
  143.7518   75.3370  218.1518 H   0  0  0  0  0  0  0  0  0  0  0  0
  144.3651   76.7283  219.0363 H   0  0  0  0  0  0  0  0  0  0  0  0
  143.2575   76.0068  221.0900 H   0  0  0  0  0  0  0  0  0  0  0  0
  146.2297   72.1409  220.3023 H   0  0  0  0  0  0  0  0  0  0  0  0
  143.9619   71.0055  221.1655 H   0  0  0  0  0  0  0  0  0  0  0  0
  142.1260   72.8180  221.0990 H   0  0  0  0  0  0  0  0  0  0  0  0
  139.1632   69.6596  222.6800 H   0  0  0  0  0  0  0  0  0  0  0  0
  139.0841   68.4030  224.8537 H   0  0  0  0  0  0  0  0  0  0  0  0
  139.5923   68.3191  227.2472 H   0  0  0  0  0  0  0  0  0  0  0  0
  140.5423   69.3685  229.3021 H   0  0  0  0  0  0  0  0  0  0  0  0
  141.5467   71.6457  229.1432 H   0  0  0  0  0  0  0  0  0  0  0  0
  141.5978   72.8369  226.9735 H   0  0  0  0  0  0  0  0  0  0  0  0
  1  2  2  0
  2  3  1  0
  3  4  1  0
  4  5  1  0
  5  6  2  0
  5  7  1  0
  7  8  1  0
  8  9  1  0
  9 10  1  0
 10 11  1  0
 11 12  1  0
 12 13  2  0
 13 14  1  0
 14 15  2  0
 15 16  1  0
  2 17  1  0
 17 18  2  0
 18 19  1  0
 19 20  2  0
 20 21  1  0
 21 22  2  0
 22 23  1  0
 23 24  2  0
 24 25  1  0
 25 26  2  0
 11  7  1  0
 16 12  1  0
 26 17  1  0
 25 20  1  0
  3 27  1  0
  4 28  1  0
  4 29  1  0
  8 30  1  0
  8 31  1  0
  9 32  1  0
  9 33  1  0
 10 34  1  0
 10 35  1  0
 11 36  1  1
 14 37  1  0
 15 38  1  0
 16 39  1  0
 18 40  1  0
 19 41  1  0
 21 42  1  0
 22 43  1  0
 23 44  1  0
 24 45  1  0
M  END
>  <smiles>  (34) 
O=C(NCC(=O)N1CCC[C@@H]1c1ncc[nH]1)c1ccc2ccccc2n1

>  <score_type>  (34) 
oracle

>  <origin>  (34) 
autodockgpu

>  <m_score__min__energy>  (34) 
-7.8600000000000003

>  <m_primary>  (34) 
energy

>  <rmsd>  (34) 
3.5669840241144266

>  <m_score__min__rmsd>  (34) 
3.5669840241144266

>  <meeko>  (34) 
{"free_energy": -7.11, "intermolecular_energy": -8.61, "internal_energy": -2.51, "cluster_size": 22, "cluster_id": 2, "rank_in_cluster": 9}

>  <energy>  (34) 
-7.17

>  <cluster_rmsd>  (34) 
0.64

>  <cluster>  (34) 
3

$$$$

     RDKit          3D

 45 48  0  0  0  0  0  0  0  0999 V2000
  140.4530   71.2790  221.1660 O   0  0  0  0  0  0  0  0  0  0  0  0
  139.9810   71.8550  222.1740 C   0  0  0  0  0  0  0  0  0  0  0  0
  139.4290   73.1610  221.9530 N   0  0  0  0  0  0  0  0  0  0  0  0
  139.3730   73.8350  220.7250 C   0  0  0  0  0  0  0  0  0  0  0  0
  140.5270   74.2760  219.9920 C   0  0  0  0  0  0  0  0  0  0  0  0
  140.6400   73.6970  218.8110 O   0  0  0  0  0  0  0  0  0  0  0  0
  141.5490   75.1810  220.2660 N   0  0  0  0  0  0  0  0  0  0  0  0
  141.5780   76.6540  220.3760 C   0  0  0  0  0  0  0  0  0  0  0  0
  142.6530   76.9770  219.3680 C   0  0  0  0  0  0  0  0  0  0  0  0
  143.6660   75.8860  219.5700 C   0  0  0  0  0  0  0  0  0  0  0  0
  142.9930   74.9250  220.5110 C   0  0  2  0  0  0  0  0  0  0  0  0
  143.4310   73.5620  220.2280 C   0  0  0  0  0  0  0  0  0  0  0  0
  144.7320   73.1720  220.0820 N   0  0  0  0  0  0  0  0  0  0  0  0
  144.8030   71.8490  219.8670 C   0  0  0  0  0  0  0  0  0  0  0  0
  143.5140   71.3720  219.8750 C   0  0  0  0  0  0  0  0  0  0  0  0
  142.6980   72.4160  220.0940 N   0  0  0  0  0  0  0  0  0  0  0  0
  139.9870   71.2390  223.5090 C   0  0  0  0  0  0  0  0  0  0  0  0
  139.4460   69.9830  223.6250 C   0  0  0  0  0  0  0  0  0  0  0  0
  139.4490   69.3910  224.8910 C   0  0  0  0  0  0  0  0  0  0  0  0
  139.9850   70.0650  225.9910 C   0  0  0  0  0  0  0  0  0  0  0  0
  140.0050   69.5150  227.2510 C   0  0  0  0  0  0  0  0  0  0  0  0
  140.5450   70.1990  228.3410 C   0  0  0  0  0  0  0  0  0  0  0  0
  141.0690   71.4630  228.1310 C   0  0  0  0  0  0  0  0  0  0  0  0
  141.0570   72.0270  226.8740 C   0  0  0  0  0  0  0  0  0  0  0  0
  140.5170   71.3290  225.8160 C   0  0  0  0  0  0  0  0  0  0  0  0
  140.4970   71.8670  224.5830 N   0  0  0  0  0  0  0  0  0  0  0  0
  139.0430   73.6070  222.8480 H   0  0  0  0  0  0  0  0  0  0  0  0
  138.8261   73.1664  220.0439 H   0  0  0  0  0  0  0  0  0  0  0  0
  138.9460   74.7993  221.0378 H   0  0  0  0  0  0  0  0  0  0  0  0
  140.6123   77.1021  220.0992 H   0  0  0  0  0  0  0  0  0  0  0  0
  141.7666   77.0369  221.3898 H   0  0  0  0  0  0  0  0  0  0  0  0
  142.2509   76.9550  218.3443 H   0  0  0  0  0  0  0  0  0  0  0  0
  143.0762   77.9834  219.5021 H   0  0  0  0  0  0  0  0  0  0  0  0
  143.9049   75.3942  218.6155 H   0  0  0  0  0  0  0  0  0  0  0  0
  144.6193   76.2653  219.9668 H   0  0  0  0  0  0  0  0  0  0  0  0
  143.2348   75.0579  221.5758 H   0  0  0  0  0  0  0  0  0  0  0  0
  145.7185   71.2588  219.7136 H   0  0  0  0  0  0  0  0  0  0  0  0
  143.2068   70.3260  219.7287 H   0  0  0  0  0  0  0  0  0  0  0  0
  141.6470   72.3360  220.1570 H   0  0  0  0  0  0  0  0  0  0  0  0
  139.0252   69.4611  222.7529 H   0  0  0  0  0  0  0  0  0  0  0  0
  139.0252   68.3845  225.0226 H   0  0  0  0  0  0  0  0  0  0  0  0
  139.5846   68.5101  227.4038 H   0  0  0  0  0  0  0  0  0  0  0  0
  140.5540   69.7448  229.3428 H   0  0  0  0  0  0  0  0  0  0  0  0
  141.4988   72.0221  228.9752 H   0  0  0  0  0  0  0  0  0  0  0  0
  141.4772   73.0312  226.7157 H   0  0  0  0  0  0  0  0  0  0  0  0
  1  2  2  0
  2  3  1  0
  3  4  1  0
  4  5  1  0
  5  6  2  0
  5  7  1  0
  7  8  1  0
  8  9  1  0
  9 10  1  0
 10 11  1  0
 11 12  1  0
 12 13  2  0
 13 14  1  0
 14 15  2  0
 15 16  1  0
  2 17  1  0
 17 18  2  0
 18 19  1  0
 19 20  2  0
 20 21  1  0
 21 22  2  0
 22 23  1  0
 23 24  2  0
 24 25  1  0
 25 26  2  0
 11  7  1  0
 16 12  1  0
 26 17  1  0
 25 20  1  0
  3 27  1  0
  4 28  1  0
  4 29  1  0
  8 30  1  0
  8 31  1  0
  9 32  1  0
  9 33  1  0
 10 34  1  0
 10 35  1  0
 11 36  1  1
 14 37  1  0
 15 38  1  0
 16 39  1  0
 18 40  1  0
 19 41  1  0
 21 42  1  0
 22 43  1  0
 23 44  1  0
 24 45  1  0
M  END
>  <smiles>  (35) 
O=C(NCC(=O)N1CCC[C@@H]1c1ncc[nH]1)c1ccc2ccccc2n1

>  <score_type>  (35) 
oracle

>  <origin>  (35) 
autodockgpu

>  <m_score__min__energy>  (35) 
-7.8600000000000003

>  <m_primary>  (35) 
energy

>  <rmsd>  (35) 
3.8915894313470285

>  <m_score__min__rmsd>  (35) 
3.8915894313470285

>  <meeko>  (35) 
{"free_energy": -6.85, "intermolecular_energy": -8.34, "internal_energy": -2.67, "cluster_size": 22, "cluster_id": 2, "rank_in_cluster": 15}

>  <energy>  (35) 
-7.17

>  <cluster_rmsd>  (35) 
0.65

>  <cluster>  (35) 
3

$$$$

     RDKit          3D

 45 48  0  0  0  0  0  0  0  0999 V2000
  138.9800   75.1200  221.9760 O   0  0  0  0  0  0  0  0  0  0  0  0
  140.0830   75.7110  222.0200 C   0  0  0  0  0  0  0  0  0  0  0  0
  141.2280   74.9430  221.6220 N   0  0  0  0  0  0  0  0  0  0  0  0
  141.2150   73.6090  221.1940 C   0  0  0  0  0  0  0  0  0  0  0  0
  142.1050   73.0690  220.2030 C   0  0  0  0  0  0  0  0  0  0  0  0
  141.4740   72.4240  219.2400 O   0  0  0  0  0  0  0  0  0  0  0  0
  143.4880   73.0820  220.0480 N   0  0  0  0  0  0  0  0  0  0  0  0
  144.5470   72.1290  220.4370 C   0  0  0  0  0  0  0  0  0  0  0  0
  145.4370   73.0340  221.2520 C   0  0  0  0  0  0  0  0  0  0  0  0
  145.4150   74.3300  220.4920 C   0  0  0  0  0  0  0  0  0  0  0  0
  144.3580   74.1240  219.4410 C   0  0  2  0  0  0  0  0  0  0  0  0
  143.6900   75.3890  219.1520 C   0  0  0  0  0  0  0  0  0  0  0  0
  142.9460   76.1030  220.0490 N   0  0  0  0  0  0  0  0  0  0  0  0
  142.5000   77.2380  219.4870 C   0  0  0  0  0  0  0  0  0  0  0  0
  142.9680   77.2560  218.1950 C   0  0  0  0  0  0  0  0  0  0  0  0
  143.6830   76.1350  218.0080 N   0  0  0  0  0  0  0  0  0  0  0  0
  140.2100   77.1110  222.4520 C   0  0  0  0  0  0  0  0  0  0  0  0
  139.0500   77.7980  222.7130 C   0  0  0  0  0  0  0  0  0  0  0  0
  139.1630   79.1280  223.1240 C   0  0  0  0  0  0  0  0  0  0  0  0
  140.4180   79.7270  223.2610 C   0  0  0  0  0  0  0  0  0  0  0  0
  140.5670   81.0330  223.6630 C   0  0  0  0  0  0  0  0  0  0  0  0
  141.8280   81.6190  223.7970 C   0  0  0  0  0  0  0  0  0  0  0  0
  142.9440   80.8510  223.5120 C   0  0  0  0  0  0  0  0  0  0  0  0
  142.8090   79.5410  223.1080 C   0  0  0  0  0  0  0  0  0  0  0  0
  141.5530   78.9890  222.9850 C   0  0  0  0  0  0  0  0  0  0  0  0
  141.4060   77.7110  222.5920 N   0  0  0  0  0  0  0  0  0  0  0  0
  142.1430   75.4980  221.6810 H   0  0  0  0  0  0  0  0  0  0  0  0
  141.3768   73.0051  222.0991 H   0  0  0  0  0  0  0  0  0  0  0  0
  140.2581   73.5751  220.6526 H   0  0  0  0  0  0  0  0  0  0  0  0
  144.1475   71.3003  221.0400 H   0  0  0  0  0  0  0  0  0  0  0  0
  145.0470   71.6273  219.5954 H   0  0  0  0  0  0  0  0  0  0  0  0
  145.0364   73.1676  222.2677 H   0  0  0  0  0  0  0  0  0  0  0  0
  146.4526   72.6314  221.3806 H   0  0  0  0  0  0  0  0  0  0  0  0
  145.1483   75.1664  221.1548 H   0  0  0  0  0  0  0  0  0  0  0  0
  146.3949   74.5818  220.0603 H   0  0  0  0  0  0  0  0  0  0  0  0
  144.7263   73.7962  218.4577 H   0  0  0  0  0  0  0  0  0  0  0  0
  141.8784   78.0070  219.9690 H   0  0  0  0  0  0  0  0  0  0  0  0
  142.7894   78.0451  217.4498 H   0  0  0  0  0  0  0  0  0  0  0  0
  144.1680   75.8940  217.1020 H   0  0  0  0  0  0  0  0  0  0  0  0
  138.0666   77.3178  222.6023 H   0  0  0  0  0  0  0  0  0  0  0  0
  138.2552   79.7097  223.3420 H   0  0  0  0  0  0  0  0  0  0  0  0
  139.6711   81.6315  223.8847 H   0  0  0  0  0  0  0  0  0  0  0  0
  141.9317   82.6651  224.1210 H   0  0  0  0  0  0  0  0  0  0  0  0
  143.9476   81.2908  223.6090 H   0  0  0  0  0  0  0  0  0  0  0  0
  143.7012   78.9377  222.8844 H   0  0  0  0  0  0  0  0  0  0  0  0
  1  2  2  0
  2  3  1  0
  3  4  1  0
  4  5  1  0
  5  6  2  0
  5  7  1  0
  7  8  1  0
  8  9  1  0
  9 10  1  0
 10 11  1  0
 11 12  1  0
 12 13  2  0
 13 14  1  0
 14 15  2  0
 15 16  1  0
  2 17  1  0
 17 18  2  0
 18 19  1  0
 19 20  2  0
 20 21  1  0
 21 22  2  0
 22 23  1  0
 23 24  2  0
 24 25  1  0
 25 26  2  0
 11  7  1  0
 16 12  1  0
 26 17  1  0
 25 20  1  0
  3 27  1  0
  4 28  1  0
  4 29  1  0
  8 30  1  0
  8 31  1  0
  9 32  1  0
  9 33  1  0
 10 34  1  0
 10 35  1  0
 11 36  1  6
 14 37  1  0
 15 38  1  0
 16 39  1  0
 18 40  1  0
 19 41  1  0
 21 42  1  0
 22 43  1  0
 23 44  1  0
 24 45  1  0
M  END
>  <smiles>  (36) 
O=C(NCC(=O)N1CCC[C@@H]1c1ncc[nH]1)c1ccc2ccccc2n1

>  <score_type>  (36) 
oracle

>  <origin>  (36) 
autodockgpu

>  <m_score__min__energy>  (36) 
-7.8600000000000003

>  <m_primary>  (36) 
energy

>  <rmsd>  (36) 
7.513057148203588

>  <m_score__min__rmsd>  (36) 
7.513057148203588

>  <meeko>  (36) 
{"free_energy": -7.05, "intermolecular_energy": -8.54, "internal_energy": -2.47, "cluster_size": 17, "cluster_id": 3, "rank_in_cluster": 10}

>  <energy>  (36) 
-7.15

>  <cluster_rmsd>  (36) 
0.14

>  <cluster>  (36) 
3

$$$$

     RDKit          3D

 45 48  0  0  0  0  0  0  0  0999 V2000
  139.0900   74.8900  222.3520 O   0  0  0  0  0  0  0  0  0  0  0  0
  140.1320   75.5450  222.1220 C   0  0  0  0  0  0  0  0  0  0  0  0
  141.2150   74.8180  221.5230 N   0  0  0  0  0  0  0  0  0  0  0  0
  141.2040   73.4590  221.1800 C   0  0  0  0  0  0  0  0  0  0  0  0
  142.1800   72.8310  220.3350 C   0  0  0  0  0  0  0  0  0  0  0  0
  141.6850   71.8340  219.6260 O   0  0  0  0  0  0  0  0  0  0  0  0
  143.5370   73.0510  220.1090 N   0  0  0  0  0  0  0  0  0  0  0  0
  144.7370   72.2210  220.3410 C   0  0  0  0  0  0  0  0  0  0  0  0
  145.5500   73.1590  221.1980 C   0  0  0  0  0  0  0  0  0  0  0  0
  145.3050   74.5060  220.5790 C   0  0  0  0  0  0  0  0  0  0  0  0
  144.2180   74.2570  219.5690 C   0  0  2  0  0  0  0  0  0  0  0  0
  143.3700   75.4390  219.4490 C   0  0  0  0  0  0  0  0  0  0  0  0
  142.0640   75.4270  219.0460 N   0  0  0  0  0  0  0  0  0  0  0  0
  141.5530   76.6670  219.0790 C   0  0  0  0  0  0  0  0  0  0  0  0
  142.5540   77.5020  219.5140 C   0  0  0  0  0  0  0  0  0  0  0  0
  143.6430   76.7460  219.7330 N   0  0  0  0  0  0  0  0  0  0  0  0
  140.2510   76.9760  222.4400 C   0  0  0  0  0  0  0  0  0  0  0  0
  139.0860   77.6890  222.5790 C   0  0  0  0  0  0  0  0  0  0  0  0
  139.1920   79.0490  222.8820 C   0  0  0  0  0  0  0  0  0  0  0  0
  140.4440   79.6490  223.0360 C   0  0  0  0  0  0  0  0  0  0  0  0
  140.5860   80.9840  223.3340 C   0  0  0  0  0  0  0  0  0  0  0  0
  141.8440   81.5710  223.4860 C   0  0  0  0  0  0  0  0  0  0  0  0
  142.9650   80.7740  223.3280 C   0  0  0  0  0  0  0  0  0  0  0  0
  142.8380   79.4350  223.0290 C   0  0  0  0  0  0  0  0  0  0  0  0
  141.5840   78.8830  222.8850 C   0  0  0  0  0  0  0  0  0  0  0  0
  141.4440   77.5770  222.5930 N   0  0  0  0  0  0  0  0  0  0  0  0
  142.0800   75.4270  221.3500 H   0  0  0  0  0  0  0  0  0  0  0  0
  141.2407   72.9118  222.1335 H   0  0  0  0  0  0  0  0  0  0  0  0
  140.3142   73.4162  220.5347 H   0  0  0  0  0  0  0  0  0  0  0  0
  144.4919   71.2909  220.8747 H   0  0  0  0  0  0  0  0  0  0  0  0
  145.2428   71.8762  219.4271 H   0  0  0  0  0  0  0  0  0  0  0  0
  145.2031   73.1375  222.2417 H   0  0  0  0  0  0  0  0  0  0  0  0
  146.6165   72.8916  221.2309 H   0  0  0  0  0  0  0  0  0  0  0  0
  144.9735   75.2296  221.3383 H   0  0  0  0  0  0  0  0  0  0  0  0
  146.2119   74.9318  220.1250 H   0  0  0  0  0  0  0  0  0  0  0  0
  144.5605   74.0796  218.5388 H   0  0  0  0  0  0  0  0  0  0  0  0
  140.5276   76.9597  218.8091 H   0  0  0  0  0  0  0  0  0  0  0  0
  142.4777   78.5900  219.6568 H   0  0  0  0  0  0  0  0  0  0  0  0
  144.5620   77.1300  220.0830 H   0  0  0  0  0  0  0  0  0  0  0  0
  138.1048   77.2072  222.4563 H   0  0  0  0  0  0  0  0  0  0  0  0
  138.2804   79.6531  223.0004 H   0  0  0  0  0  0  0  0  0  0  0  0
  139.6862   81.6050  223.4557 H   0  0  0  0  0  0  0  0  0  0  0  0
  141.9418   82.6402  223.7253 H   0  0  0  0  0  0  0  0  0  0  0  0
  143.9667   81.2140  223.4423 H   0  0  0  0  0  0  0  0  0  0  0  0
  143.7343   78.8093  222.9058 H   0  0  0  0  0  0  0  0  0  0  0  0
  1  2  2  0
  2  3  1  0
  3  4  1  0
  4  5  1  0
  5  6  2  0
  5  7  1  0
  7  8  1  0
  8  9  1  0
  9 10  1  0
 10 11  1  0
 11 12  1  0
 12 13  2  0
 13 14  1  0
 14 15  2  0
 15 16  1  0
  2 17  1  0
 17 18  2  0
 18 19  1  0
 19 20  2  0
 20 21  1  0
 21 22  2  0
 22 23  1  0
 23 24  2  0
 24 25  1  0
 25 26  2  0
 11  7  1  0
 16 12  1  0
 26 17  1  0
 25 20  1  0
  3 27  1  0
  4 28  1  0
  4 29  1  0
  8 30  1  0
  8 31  1  0
  9 32  1  0
  9 33  1  0
 10 34  1  0
 10 35  1  0
 11 36  1  6
 14 37  1  0
 15 38  1  0
 16 39  1  0
 18 40  1  0
 19 41  1  0
 21 42  1  0
 22 43  1  0
 23 44  1  0
 24 45  1  0
M  END
>  <smiles>  (37) 
O=C(NCC(=O)N1CCC[C@@H]1c1ncc[nH]1)c1ccc2ccccc2n1

>  <score_type>  (37) 
oracle

>  <origin>  (37) 
autodockgpu

>  <m_score__min__energy>  (37) 
-7.8600000000000003

>  <m_primary>  (37) 
energy

>  <rmsd>  (37) 
7.432417359607835

>  <m_score__min__rmsd>  (37) 
7.432417359607835

>  <meeko>  (37) 
{"free_energy": -7.17, "intermolecular_energy": -8.66, "internal_energy": -2.39, "cluster_size": 17, "cluster_id": 3, "rank_in_cluster": 6}

>  <energy>  (37) 
-7.11

>  <cluster_rmsd>  (37) 
0.15

>  <cluster>  (37) 
3

$$$$

     RDKit          3D

 45 48  0  0  0  0  0  0  0  0999 V2000
  139.7500   71.0330  221.4250 O   0  0  0  0  0  0  0  0  0  0  0  0
  139.7790   71.4890  222.5910 C   0  0  0  0  0  0  0  0  0  0  0  0
  139.8100   72.9190  222.7100 N   0  0  0  0  0  0  0  0  0  0  0  0
  139.8110   73.8330  221.6480 C   0  0  0  0  0  0  0  0  0  0  0  0
  140.8730   74.7630  221.3830 C   0  0  0  0  0  0  0  0  0  0  0  0
  140.9590   75.7200  222.2890 O   0  0  0  0  0  0  0  0  0  0  0  0
  141.8260   74.8690  220.3730 N   0  0  0  0  0  0  0  0  0  0  0  0
  142.7790   73.9020  219.7920 C   0  0  0  0  0  0  0  0  0  0  0  0
  144.0740   74.6510  219.9880 C   0  0  0  0  0  0  0  0  0  0  0  0
  143.7060   76.0770  219.6870 C   0  0  0  0  0  0  0  0  0  0  0  0
  142.2070   76.0540  219.5590 C   0  0  2  0  0  0  0  0  0  0  0  0
  141.6480   77.3200  220.0200 C   0  0  0  0  0  0  0  0  0  0  0  0
  140.9080   78.1750  219.2520 N   0  0  0  0  0  0  0  0  0  0  0  0
  140.5100   79.2300  219.9780 C   0  0  0  0  0  0  0  0  0  0  0  0
  141.0050   79.0530  221.2480 C   0  0  0  0  0  0  0  0  0  0  0  0
  141.6890   77.8980  221.2570 N   0  0  0  0  0  0  0  0  0  0  0  0
  139.7790   70.6190  223.7770 C   0  0  0  0  0  0  0  0  0  0  0  0
  139.2170   69.3740  223.6450 C   0  0  0  0  0  0  0  0  0  0  0  0
  139.2140   68.5420  224.7680 C   0  0  0  0  0  0  0  0  0  0  0  0
  139.7670   68.9740  225.9760 C   0  0  0  0  0  0  0  0  0  0  0  0
  139.7820   68.1840  227.1000 C   0  0  0  0  0  0  0  0  0  0  0  0
  140.3390   68.6290  228.3010 C   0  0  0  0  0  0  0  0  0  0  0  0
  140.8850   69.9010  228.3430 C   0  0  0  0  0  0  0  0  0  0  0  0
  140.8770   70.7040  227.2230 C   0  0  0  0  0  0  0  0  0  0  0  0
  140.3210   70.2390  226.0520 C   0  0  0  0  0  0  0  0  0  0  0  0
  140.3050   71.0120  224.9510 N   0  0  0  0  0  0  0  0  0  0  0  0
  139.8360   73.2510  223.7280 H   0  0  0  0  0  0  0  0  0  0  0  0
  139.7118   73.2275  220.7350 H   0  0  0  0  0  0  0  0  0  0  0  0
  139.0108   74.5182  221.9645 H   0  0  0  0  0  0  0  0  0  0  0  0
  142.7741   72.9472  220.3382 H   0  0  0  0  0  0  0  0  0  0  0  0
  142.5663   73.6132  218.7521 H   0  0  0  0  0  0  0  0  0  0  0  0
  144.4346   74.5483  221.0221 H   0  0  0  0  0  0  0  0  0  0  0  0
  144.8865   74.2750  219.3488 H   0  0  0  0  0  0  0  0  0  0  0  0
  144.0171   76.7413  220.5067 H   0  0  0  0  0  0  0  0  0  0  0  0
  144.1998   76.4565  218.7803 H   0  0  0  0  0  0  0  0  0  0  0  0
  141.8210   75.9605  218.5332 H   0  0  0  0  0  0  0  0  0  0  0  0
  139.9027   80.0763  219.6243 H   0  0  0  0  0  0  0  0  0  0  0  0
  140.8661   79.7334  222.1011 H   0  0  0  0  0  0  0  0  0  0  0  0
  142.1720   77.5090  222.1120 H   0  0  0  0  0  0  0  0  0  0  0  0
  138.7843   69.0427  222.6895 H   0  0  0  0  0  0  0  0  0  0  0  0
  138.7719   67.5371  224.7000 H   0  0  0  0  0  0  0  0  0  0  0  0
  139.3444   67.1759  227.0528 H   0  0  0  0  0  0  0  0  0  0  0  0
  140.3439   67.9844  229.1924 H   0  0  0  0  0  0  0  0  0  0  0  0
  141.3287   70.2735  229.2781 H   0  0  0  0  0  0  0  0  0  0  0  0
  141.3132   71.7130  227.2642 H   0  0  0  0  0  0  0  0  0  0  0  0
  1  2  2  0
  2  3  1  0
  3  4  1  0
  4  5  1  0
  5  6  2  0
  5  7  1  0
  7  8  1  0
  8  9  1  0
  9 10  1  0
 10 11  1  0
 11 12  1  0
 12 13  2  0
 13 14  1  0
 14 15  2  0
 15 16  1  0
  2 17  1  0
 17 18  2  0
 18 19  1  0
 19 20  2  0
 20 21  1  0
 21 22  2  0
 22 23  1  0
 23 24  2  0
 24 25  1  0
 25 26  2  0
 11  7  1  0
 16 12  1  0
 26 17  1  0
 25 20  1  0
  3 27  1  0
  4 28  1  0
  4 29  1  0
  8 30  1  0
  8 31  1  0
  9 32  1  0
  9 33  1  0
 10 34  1  0
 10 35  1  0
 11 36  1  6
 14 37  1  0
 15 38  1  0
 16 39  1  0
 18 40  1  0
 19 41  1  0
 21 42  1  0
 22 43  1  0
 23 44  1  0
 24 45  1  0
M  END
>  <smiles>  (38) 
O=C(NCC(=O)N1CCC[C@@H]1c1ncc[nH]1)c1ccc2ccccc2n1

>  <score_type>  (38) 
oracle

>  <origin>  (38) 
autodockgpu

>  <m_score__min__energy>  (38) 
-7.8600000000000003

>  <m_primary>  (38) 
energy

>  <rmsd>  (38) 
2.3414543882124446

>  <m_score__min__rmsd>  (38) 
2.3414543882124446

>  <meeko>  (38) 
{"free_energy": -7.39, "intermolecular_energy": -8.88, "internal_energy": -1.87, "cluster_size": 6, "cluster_id": 1, "rank_in_cluster": 3}

>  <energy>  (38) 
-7.05

>  <cluster_rmsd>  (38) 
1.02

>  <cluster>  (38) 
3

$$$$

     RDKit          3D

 45 48  0  0  0  0  0  0  0  0999 V2000
  141.2930   72.4810  221.8360 O   0  0  0  0  0  0  0  0  0  0  0  0
  140.3160   72.5210  222.6190 C   0  0  0  0  0  0  0  0  0  0  0  0
  139.3340   73.5340  222.3520 N   0  0  0  0  0  0  0  0  0  0  0  0
  139.3770   74.4660  221.3060 C   0  0  0  0  0  0  0  0  0  0  0  0
  140.4940   75.3260  221.0350 C   0  0  0  0  0  0  0  0  0  0  0  0
  141.4320   75.2620  221.9620 O   0  0  0  0  0  0  0  0  0  0  0  0
  140.7940   76.2120  220.0040 N   0  0  0  0  0  0  0  0  0  0  0  0
  141.1680   76.0120  218.5890 C   0  0  0  0  0  0  0  0  0  0  0  0
  142.4670   76.7770  218.5430 C   0  0  0  0  0  0  0  0  0  0  0  0
  142.1980   77.9820  219.4000 C   0  0  0  0  0  0  0  0  0  0  0  0
  140.8600   77.6980  220.0280 C   0  0  2  0  0  0  0  0  0  0  0  0
  140.7990   78.2930  221.3590 C   0  0  0  0  0  0  0  0  0  0  0  0
  140.0040   79.3470  221.7100 N   0  0  0  0  0  0  0  0  0  0  0  0
  140.1500   79.6290  223.0140 C   0  0  0  0  0  0  0  0  0  0  0  0
  141.0630   78.7340  223.5180 C   0  0  0  0  0  0  0  0  0  0  0  0
  141.4450   77.9350  222.5090 N   0  0  0  0  0  0  0  0  0  0  0  0
  140.1720   71.5900  223.7480 C   0  0  0  0  0  0  0  0  0  0  0  0
  139.5140   70.4090  223.5100 C   0  0  0  0  0  0  0  0  0  0  0  0
  139.3740   69.5190  224.5790 C   0  0  0  0  0  0  0  0  0  0  0  0
  139.8880   69.8330  225.8390 C   0  0  0  0  0  0  0  0  0  0  0  0
  139.7690   68.9830  226.9130 C   0  0  0  0  0  0  0  0  0  0  0  0
  140.2890   69.3090  228.1670 C   0  0  0  0  0  0  0  0  0  0  0  0
  140.9370   70.5230  228.3150 C   0  0  0  0  0  0  0  0  0  0  0  0
  141.0650   71.3850  227.2480 C   0  0  0  0  0  0  0  0  0  0  0  0
  140.5420   71.0370  226.0220 C   0  0  0  0  0  0  0  0  0  0  0  0
  140.6580   71.8690  224.9710 N   0  0  0  0  0  0  0  0  0  0  0  0
  138.5240   73.5230  223.0530 H   0  0  0  0  0  0  0  0  0  0  0  0
  139.2187   73.8859  220.3849 H   0  0  0  0  0  0  0  0  0  0  0  0
  138.6322   75.1981  221.6514 H   0  0  0  0  0  0  0  0  0  0  0  0
  141.3140   74.9475  218.3531 H   0  0  0  0  0  0  0  0  0  0  0  0
  140.4123   76.3436  217.8617 H   0  0  0  0  0  0  0  0  0  0  0  0
  143.2910   76.1770  218.9565 H   0  0  0  0  0  0  0  0  0  0  0  0
  142.7721   77.0400  217.5194 H   0  0  0  0  0  0  0  0  0  0  0  0
  142.9748   78.0937  220.1708 H   0  0  0  0  0  0  0  0  0  0  0  0
  142.2020   78.9185  218.8229 H   0  0  0  0  0  0  0  0  0  0  0  0
  139.9922   78.1330  219.5105 H   0  0  0  0  0  0  0  0  0  0  0  0
  139.6365   80.4251  223.5731 H   0  0  0  0  0  0  0  0  0  0  0  0
  141.4164   78.6818  224.5584 H   0  0  0  0  0  0  0  0  0  0  0  0
  142.1390   77.1460  222.6160 H   0  0  0  0  0  0  0  0  0  0  0  0
  139.1115   70.1715  222.5142 H   0  0  0  0  0  0  0  0  0  0  0  0
  138.8538   68.5619  224.4262 H   0  0  0  0  0  0  0  0  0  0  0  0
  139.2509   68.0217  226.7809 H   0  0  0  0  0  0  0  0  0  0  0  0
  140.1862   68.6179  229.0166 H   0  0  0  0  0  0  0  0  0  0  0  0
  141.3538   70.8022  229.2939 H   0  0  0  0  0  0  0  0  0  0  0  0
  141.5827   72.3473  227.3745 H   0  0  0  0  0  0  0  0  0  0  0  0
  1  2  2  0
  2  3  1  0
  3  4  1  0
  4  5  1  0
  5  6  2  0
  5  7  1  0
  7  8  1  0
  8  9  1  0
  9 10  1  0
 10 11  1  0
 11 12  1  0
 12 13  2  0
 13 14  1  0
 14 15  2  0
 15 16  1  0
  2 17  1  0
 17 18  2  0
 18 19  1  0
 19 20  2  0
 20 21  1  0
 21 22  2  0
 22 23  1  0
 23 24  2  0
 24 25  1  0
 25 26  2  0
 11  7  1  0
 16 12  1  0
 26 17  1  0
 25 20  1  0
  3 27  1  0
  4 28  1  0
  4 29  1  0
  8 30  1  0
  8 31  1  0
  9 32  1  0
  9 33  1  0
 10 34  1  0
 10 35  1  0
 11 36  1  6
 14 37  1  0
 15 38  1  0
 16 39  1  0
 18 40  1  0
 19 41  1  0
 21 42  1  0
 22 43  1  0
 23 44  1  0
 24 45  1  0
M  END
>  <smiles>  (39) 
O=C(NCC(=O)N1CCC[C@@H]1c1ncc[nH]1)c1ccc2ccccc2n1

>  <score_type>  (39) 
oracle

>  <origin>  (39) 
autodockgpu

>  <m_score__min__energy>  (39) 
-7.8600000000000003

>  <m_primary>  (39) 
energy

>  <rmsd>  (39) 
1.7538993874657094

>  <m_score__min__rmsd>  (39) 
1.7538993874657094

>  <meeko>  (39) 
{"free_energy": -7.86, "intermolecular_energy": -9.35, "internal_energy": -1.8, "cluster_size": 6, "cluster_id": 1, "rank_in_cluster": 1}

>  <energy>  (39) 
-6.74

>  <cluster_rmsd>  (39) 
1.01

>  <cluster>  (39) 
3

$$$$

     RDKit          3D

 45 48  0  0  0  0  0  0  0  0999 V2000
  140.1640   74.3510  222.3140 O   0  0  0  0  0  0  0  0  0  0  0  0
  140.3060   75.3620  221.5890 C   0  0  0  0  0  0  0  0  0  0  0  0
  140.4820   75.1130  220.1860 N   0  0  0  0  0  0  0  0  0  0  0  0
  140.5060   73.8550  219.5700 C   0  0  0  0  0  0  0  0  0  0  0  0
  141.7020   73.1990  219.1210 C   0  0  0  0  0  0  0  0  0  0  0  0
  141.4590   72.1360  218.3750 O   0  0  0  0  0  0  0  0  0  0  0  0
  143.0600   73.4450  219.3070 N   0  0  0  0  0  0  0  0  0  0  0  0
  144.1840   72.5850  219.7270 C   0  0  0  0  0  0  0  0  0  0  0  0
  144.7010   73.3720  220.9050 C   0  0  0  0  0  0  0  0  0  0  0  0
  144.5790   74.8010  220.4560 C   0  0  0  0  0  0  0  0  0  0  0  0
  143.8140   74.7190  219.1630 C   0  0  2  0  0  0  0  0  0  0  0  0
  142.9840   75.9080  218.9990 C   0  0  0  0  0  0  0  0  0  0  0  0
  142.2650   76.2120  217.8780 N   0  0  0  0  0  0  0  0  0  0  0  0
  141.5770   77.3500  218.0580 C   0  0  0  0  0  0  0  0  0  0  0  0
  141.8590   77.7930  219.3280 C   0  0  0  0  0  0  0  0  0  0  0  0
  142.7080   76.9130  219.8830 N   0  0  0  0  0  0  0  0  0  0  0  0
  140.2940   76.7290  222.1310 C   0  0  0  0  0  0  0  0  0  0  0  0
  139.0800   77.2460  222.5100 C   0  0  0  0  0  0  0  0  0  0  0  0
  139.0620   78.5440  223.0260 C   0  0  0  0  0  0  0  0  0  0  0  0
  140.2440   79.2790  223.1480 C   0  0  0  0  0  0  0  0  0  0  0  0
  140.2640   80.5580  223.6510 C   0  0  0  0  0  0  0  0  0  0  0  0
  141.4530   81.2810  223.7690 C   0  0  0  0  0  0  0  0  0  0  0  0
  142.6320   80.6790  223.3620 C   0  0  0  0  0  0  0  0  0  0  0  0
  142.6270   79.3980  222.8560 C   0  0  0  0  0  0  0  0  0  0  0  0
  141.4390   78.7080  222.7520 C   0  0  0  0  0  0  0  0  0  0  0  0
  141.4180   77.4560  222.2590 N   0  0  0  0  0  0  0  0  0  0  0  0
  140.6000   76.0130  219.6160 H   0  0  0  0  0  0  0  0  0  0  0  0
  140.0393   73.1639  220.2873 H   0  0  0  0  0  0  0  0  0  0  0  0
  140.0232   74.0858  218.6090 H   0  0  0  0  0  0  0  0  0  0  0  0
  143.8405   71.5837  220.0259 H   0  0  0  0  0  0  0  0  0  0  0  0
  144.9297   72.3870  218.9430 H   0  0  0  0  0  0  0  0  0  0  0  0
  144.0883   73.1878  221.7998 H   0  0  0  0  0  0  0  0  0  0  0  0
  145.7291   73.0979  221.1842 H   0  0  0  0  0  0  0  0  0  0  0  0
  144.0277   75.3971  221.1981 H   0  0  0  0  0  0  0  0  0  0  0  0
  145.5573   75.2893  220.3359 H   0  0  0  0  0  0  0  0  0  0  0  0
  144.4276   74.7052  218.2502 H   0  0  0  0  0  0  0  0  0  0  0  0
  140.9133   77.8360  217.3277 H   0  0  0  0  0  0  0  0  0  0  0  0
  141.4619   78.7022  219.8030 H   0  0  0  0  0  0  0  0  0  0  0  0
  143.0870   77.0020  220.8640 H   0  0  0  0  0  0  0  0  0  0  0  0
  138.1548   76.6593  222.4109 H   0  0  0  0  0  0  0  0  0  0  0  0
  138.1075   78.9920  223.3395 H   0  0  0  0  0  0  0  0  0  0  0  0
  139.3195   81.0239  223.9687 H   0  0  0  0  0  0  0  0  0  0  0  0
  141.4531   82.3033  224.1751 H   0  0  0  0  0  0  0  0  0  0  0  0
  143.5811   81.2290  223.4436 H   0  0  0  0  0  0  0  0  0  0  0  0
  143.5683   78.9274  222.5360 H   0  0  0  0  0  0  0  0  0  0  0  0
  1  2  2  0
  2  3  1  0
  3  4  1  0
  4  5  1  0
  5  6  2  0
  5  7  1  0
  7  8  1  0
  8  9  1  0
  9 10  1  0
 10 11  1  0
 11 12  1  0
 12 13  2  0
 13 14  1  0
 14 15  2  0
 15 16  1  0
  2 17  1  0
 17 18  2  0
 18 19  1  0
 19 20  2  0
 20 21  1  0
 21 22  2  0
 22 23  1  0
 23 24  2  0
 24 25  1  0
 25 26  2  0
 11  7  1  0
 16 12  1  0
 26 17  1  0
 25 20  1  0
  3 27  1  0
  4 28  1  0
  4 29  1  0
  8 30  1  0
  8 31  1  0
  9 32  1  0
  9 33  1  0
 10 34  1  0
 10 35  1  0
 11 36  1  6
 14 37  1  0
 15 38  1  0
 16 39  1  0
 18 40  1  0
 19 41  1  0
 21 42  1  0
 22 43  1  0
 23 44  1  0
 24 45  1  0
M  END
>  <smiles>  (40) 
O=C(NCC(=O)N1CCC[C@@H]1c1ncc[nH]1)c1ccc2ccccc2n1

>  <score_type>  (40) 
oracle

>  <origin>  (40) 
autodockgpu

>  <m_score__min__energy>  (40) 
-7.8600000000000003

>  <m_primary>  (40) 
energy

>  <rmsd>  (40) 
7.113259368466737

>  <m_score__min__rmsd>  (40) 
7.113259368466737

>  <meeko>  (40) 
{"free_energy": -6.45, "intermolecular_energy": -7.94, "internal_energy": -2.74, "cluster_size": 17, "cluster_id": 3, "rank_in_cluster": 17}

>  <energy>  (40) 
-6.67

>  <cluster_rmsd>  (40) 
1.05

>  <cluster>  (40) 
3

$$$$

     RDKit          3D

 45 48  0  0  0  0  0  0  0  0999 V2000
  140.0930   71.3010  221.1880 O   0  0  0  0  0  0  0  0  0  0  0  0
  139.8420   71.8990  222.2590 C   0  0  0  0  0  0  0  0  0  0  0  0
  139.4440   73.2730  222.1370 N   0  0  0  0  0  0  0  0  0  0  0  0
  139.3150   73.9890  220.9390 C   0  0  0  0  0  0  0  0  0  0  0  0
  140.4210   74.3910  220.1150 C   0  0  0  0  0  0  0  0  0  0  0  0
  140.3900   73.8540  218.9100 O   0  0  0  0  0  0  0  0  0  0  0  0
  141.5170   75.2250  220.3220 N   0  0  0  0  0  0  0  0  0  0  0  0
  141.6620   76.6950  220.3600 C   0  0  0  0  0  0  0  0  0  0  0  0
  142.7320   76.8860  219.3140 C   0  0  0  0  0  0  0  0  0  0  0  0
  143.6630   75.7300  219.5440 C   0  0  0  0  0  0  0  0  0  0  0  0
  142.9430   74.8680  220.5460 C   0  0  2  0  0  0  0  0  0  0  0  0
  143.2660   73.4640  220.3190 C   0  0  0  0  0  0  0  0  0  0  0  0
  144.5320   72.9520  220.2580 N   0  0  0  0  0  0  0  0  0  0  0  0
  144.4900   71.6230  220.0770 C   0  0  0  0  0  0  0  0  0  0  0  0
  143.1640   71.2670  220.0200 C   0  0  0  0  0  0  0  0  0  0  0  0
  142.4390   72.3880  220.1670 N   0  0  0  0  0  0  0  0  0  0  0  0
  139.9430   71.2430  223.5710 C   0  0  0  0  0  0  0  0  0  0  0  0
  139.5280   69.9370  223.6570 C   0  0  0  0  0  0  0  0  0  0  0  0
  139.6220   69.3070  224.9010 C   0  0  0  0  0  0  0  0  0  0  0  0
  140.1230   69.9930  226.0100 C   0  0  0  0  0  0  0  0  0  0  0  0
  140.2300   69.4060  227.2490 C   0  0  0  0  0  0  0  0  0  0  0  0
  140.7320   70.1030  228.3490 C   0  0  0  0  0  0  0  0  0  0  0  0
  141.1280   71.4180  228.1710 C   0  0  0  0  0  0  0  0  0  0  0  0
  141.0260   72.0200  226.9350 C   0  0  0  0  0  0  0  0  0  0  0  0
  140.5270   71.3080  225.8670 C   0  0  0  0  0  0  0  0  0  0  0  0
  140.4210   71.8810  224.6550 N   0  0  0  0  0  0  0  0  0  0  0  0
  139.2440   73.7340  223.0840 H   0  0  0  0  0  0  0  0  0  0  0  0
  138.6715   73.3737  220.2930 H   0  0  0  0  0  0  0  0  0  0  0  0
  138.9734   74.9640  221.3166 H   0  0  0  0  0  0  0  0  0  0  0  0
  140.7267   77.2037  220.0834 H   0  0  0  0  0  0  0  0  0  0  0  0
  141.9058   77.1087  221.3497 H   0  0  0  0  0  0  0  0  0  0  0  0
  142.3026   76.8488  218.3019 H   0  0  0  0  0  0  0  0  0  0  0  0
  143.2351   77.8612  219.3911 H   0  0  0  0  0  0  0  0  0  0  0  0
  143.8375   75.1779  218.6088 H   0  0  0  0  0  0  0  0  0  0  0  0
  144.6530   76.0514  219.8998 H   0  0  0  0  0  0  0  0  0  0  0  0
  143.2233   75.0301  221.5973 H   0  0  0  0  0  0  0  0  0  0  0  0
  145.3533   70.9468  219.9906 H   0  0  0  0  0  0  0  0  0  0  0  0
  142.7687   70.2501  219.8797 H   0  0  0  0  0  0  0  0  0  0  0  0
  141.3830   72.4060  220.1700 H   0  0  0  0  0  0  0  0  0  0  0  0
  139.1354   69.4053  222.7777 H   0  0  0  0  0  0  0  0  0  0  0  0
  139.2984   68.2611  225.0079 H   0  0  0  0  0  0  0  0  0  0  0  0
  139.9119   68.3607  227.3763 H   0  0  0  0  0  0  0  0  0  0  0  0
  140.8112   69.6194  229.3338 H   0  0  0  0  0  0  0  0  0  0  0  0
  141.5275   71.9872  229.0233 H   0  0  0  0  0  0  0  0  0  0  0  0
  141.3420   73.0652  226.8023 H   0  0  0  0  0  0  0  0  0  0  0  0
  1  2  2  0
  2  3  1  0
  3  4  1  0
  4  5  1  0
  5  6  2  0
  5  7  1  0
  7  8  1  0
  8  9  1  0
  9 10  1  0
 10 11  1  0
 11 12  1  0
 12 13  2  0
 13 14  1  0
 14 15  2  0
 15 16  1  0
  2 17  1  0
 17 18  2  0
 18 19  1  0
 19 20  2  0
 20 21  1  0
 21 22  2  0
 22 23  1  0
 23 24  2  0
 24 25  1  0
 25 26  2  0
 11  7  1  0
 16 12  1  0
 26 17  1  0
 25 20  1  0
  3 27  1  0
  4 28  1  0
  4 29  1  0
  8 30  1  0
  8 31  1  0
  9 32  1  0
  9 33  1  0
 10 34  1  0
 10 35  1  0
 11 36  1  1
 14 37  1  0
 15 38  1  0
 16 39  1  0
 18 40  1  0
 19 41  1  0
 21 42  1  0
 22 43  1  0
 23 44  1  0
 24 45  1  0
M  END
>  <smiles>  (41) 
O=C(NCC(=O)N1CCC[C@@H]1c1ncc[nH]1)c1ccc2ccccc2n1

>  <score_type>  (41) 
oracle

>  <origin>  (41) 
autodockgpu

>  <m_score__min__energy>  (41) 
-7.8600000000000003

>  <m_primary>  (41) 
energy

>  <rmsd>  (41) 
3.89201564494965

>  <m_score__min__rmsd>  (41) 
3.89201564494965

>  <meeko>  (41) 
{"free_energy": -6.82, "intermolecular_energy": -8.31, "internal_energy": -2.76, "cluster_size": 22, "cluster_id": 2, "rank_in_cluster": 16}

>  <energy>  (41) 
-6.65

>  <cluster_rmsd>  (41) 
0.97

>  <cluster>  (41) 
3

$$$$

     RDKit          3D

 45 48  0  0  0  0  0  0  0  0999 V2000
  139.0580   74.9010  222.3480 O   0  0  0  0  0  0  0  0  0  0  0  0
  140.1100   75.5480  222.1420 C   0  0  0  0  0  0  0  0  0  0  0  0
  141.2020   74.8130  221.5700 N   0  0  0  0  0  0  0  0  0  0  0  0
  141.1890   73.4540  221.2270 C   0  0  0  0  0  0  0  0  0  0  0  0
  142.1620   72.8260  220.3770 C   0  0  0  0  0  0  0  0  0  0  0  0
  141.6640   71.8250  219.6750 O   0  0  0  0  0  0  0  0  0  0  0  0
  143.5160   73.0490  220.1410 N   0  0  0  0  0  0  0  0  0  0  0  0
  144.7200   72.2260  220.3700 C   0  0  0  0  0  0  0  0  0  0  0  0
  145.5360   73.1720  221.2150 C   0  0  0  0  0  0  0  0  0  0  0  0
  145.2820   74.5150  220.5890 C   0  0  0  0  0  0  0  0  0  0  0  0
  144.1890   74.2550  219.5880 C   0  0  2  0  0  0  0  0  0  0  0  0
  143.3350   75.4320  219.4650 C   0  0  0  0  0  0  0  0  0  0  0  0
  142.0240   75.4110  219.0830 N   0  0  0  0  0  0  0  0  0  0  0  0
  141.5100   76.6510  219.1080 C   0  0  0  0  0  0  0  0  0  0  0  0
  142.5150   77.4930  219.5170 C   0  0  0  0  0  0  0  0  0  0  0  0
  143.6090   76.7440  219.7280 N   0  0  0  0  0  0  0  0  0  0  0  0
  140.2320   76.9780  222.4630 C   0  0  0  0  0  0  0  0  0  0  0  0
  139.0680   77.6930  222.6050 C   0  0  0  0  0  0  0  0  0  0  0  0
  139.1760   79.0520  222.9110 C   0  0  0  0  0  0  0  0  0  0  0  0
  140.4300   79.6500  223.0630 C   0  0  0  0  0  0  0  0  0  0  0  0
  140.5750   80.9840  223.3630 C   0  0  0  0  0  0  0  0  0  0  0  0
  141.8330   81.5690  223.5140 C   0  0  0  0  0  0  0  0  0  0  0  0
  142.9530   80.7710  223.3530 C   0  0  0  0  0  0  0  0  0  0  0  0
  142.8240   79.4330  223.0520 C   0  0  0  0  0  0  0  0  0  0  0  0
  141.5690   78.8820  222.9090 C   0  0  0  0  0  0  0  0  0  0  0  0
  141.4260   77.5770  222.6150 N   0  0  0  0  0  0  0  0  0  0  0  0
  142.0750   75.4150  221.4180 H   0  0  0  0  0  0  0  0  0  0  0  0
  141.2298   72.9066  222.1803 H   0  0  0  0  0  0  0  0  0  0  0  0
  140.2961   73.4111  220.5860 H   0  0  0  0  0  0  0  0  0  0  0  0
  144.4821   71.2985  220.9115 H   0  0  0  0  0  0  0  0  0  0  0  0
  145.2206   71.8776  219.4546 H   0  0  0  0  0  0  0  0  0  0  0  0
  145.1968   73.1560  222.2613 H   0  0  0  0  0  0  0  0  0  0  0  0
  146.6036   72.9082  221.2417 H   0  0  0  0  0  0  0  0  0  0  0  0
  144.9529   75.2422  221.3459 H   0  0  0  0  0  0  0  0  0  0  0  0
  146.1842   74.9416  220.1264 H   0  0  0  0  0  0  0  0  0  0  0  0
  144.5258   74.0725  218.5569 H   0  0  0  0  0  0  0  0  0  0  0  0
  140.4799   76.9380  218.8500 H   0  0  0  0  0  0  0  0  0  0  0  0
  142.4377   78.5824  219.6478 H   0  0  0  0  0  0  0  0  0  0  0  0
  144.5330   77.1350  220.0590 H   0  0  0  0  0  0  0  0  0  0  0  0
  138.0859   77.2130  222.4822 H   0  0  0  0  0  0  0  0  0  0  0  0
  138.2655   79.6569  223.0334 H   0  0  0  0  0  0  0  0  0  0  0  0
  139.6763   81.6061  223.4872 H   0  0  0  0  0  0  0  0  0  0  0  0
  141.9323   82.6377  223.7550 H   0  0  0  0  0  0  0  0  0  0  0  0
  143.9553   81.2097  223.4665 H   0  0  0  0  0  0  0  0  0  0  0  0
  143.7195   78.8066  222.9263 H   0  0  0  0  0  0  0  0  0  0  0  0
  1  2  2  0
  2  3  1  0
  3  4  1  0
  4  5  1  0
  5  6  2  0
  5  7  1  0
  7  8  1  0
  8  9  1  0
  9 10  1  0
 10 11  1  0
 11 12  1  0
 12 13  2  0
 13 14  1  0
 14 15  2  0
 15 16  1  0
  2 17  1  0
 17 18  2  0
 18 19  1  0
 19 20  2  0
 20 21  1  0
 21 22  2  0
 22 23  1  0
 23 24  2  0
 24 25  1  0
 25 26  2  0
 11  7  1  0
 16 12  1  0
 26 17  1  0
 25 20  1  0
  3 27  1  0
  4 28  1  0
  4 29  1  0
  8 30  1  0
  8 31  1  0
  9 32  1  0
  9 33  1  0
 10 34  1  0
 10 35  1  0
 11 36  1  6
 14 37  1  0
 15 38  1  0
 16 39  1  0
 18 40  1  0
 19 41  1  0
 21 42  1  0
 22 43  1  0
 23 44  1  0
 24 45  1  0
M  END
>  <smiles>  (42) 
O=C(NCC(=O)N1CCC[C@@H]1c1ncc[nH]1)c1ccc2ccccc2n1

>  <score_type>  (42) 
oracle

>  <origin>  (42) 
autodockgpu

>  <m_score__min__energy>  (42) 
-7.8600000000000003

>  <m_primary>  (42) 
energy

>  <rmsd>  (42) 
7.42357824819159

>  <m_score__min__rmsd>  (42) 
7.42357824819159

>  <meeko>  (42) 
{"free_energy": -7.21, "intermolecular_energy": -8.7, "internal_energy": -2.34, "cluster_size": 17, "cluster_id": 3, "rank_in_cluster": 3}

>  <energy>  (42) 
-6.64

>  <cluster_rmsd>  (42) 
1.03

>  <cluster>  (42) 
3

$$$$

     RDKit          3D

 45 48  0  0  0  0  0  0  0  0999 V2000
  141.1940   71.7050  221.3790 O   0  0  0  0  0  0  0  0  0  0  0  0
  140.5920   72.1970  222.3600 C   0  0  0  0  0  0  0  0  0  0  0  0
  140.1710   73.5620  222.2230 N   0  0  0  0  0  0  0  0  0  0  0  0
  140.3720   74.3770  221.1000 C   0  0  0  0  0  0  0  0  0  0  0  0
  141.1450   75.5870  221.1090 C   0  0  0  0  0  0  0  0  0  0  0  0
  141.0750   76.2370  222.2560 O   0  0  0  0  0  0  0  0  0  0  0  0
  141.9490   76.2180  220.1630 N   0  0  0  0  0  0  0  0  0  0  0  0
  141.7320   77.3880  219.2870 C   0  0  0  0  0  0  0  0  0  0  0  0
  142.0200   76.7720  217.9410 C   0  0  0  0  0  0  0  0  0  0  0  0
  143.1830   75.8600  218.2100 C   0  0  0  0  0  0  0  0  0  0  0  0
  143.3210   75.8680  219.7080 C   0  0  2  0  0  0  0  0  0  0  0  0
  143.8080   74.5730  220.1710 C   0  0  0  0  0  0  0  0  0  0  0  0
  145.0820   74.3220  220.5960 N   0  0  0  0  0  0  0  0  0  0  0  0
  145.2000   73.0450  220.9920 C   0  0  0  0  0  0  0  0  0  0  0  0
  143.9710   72.4560  220.8180 C   0  0  0  0  0  0  0  0  0  0  0  0
  143.1420   73.3900  220.3220 N   0  0  0  0  0  0  0  0  0  0  0  0
  140.3260   71.4310  223.5870 C   0  0  0  0  0  0  0  0  0  0  0  0
  139.6690   70.2330  223.4520 C   0  0  0  0  0  0  0  0  0  0  0  0
  139.4140   69.4990  224.6130 C   0  0  0  0  0  0  0  0  0  0  0  0
  139.8180   69.9790  225.8620 C   0  0  0  0  0  0  0  0  0  0  0  0
  139.5830   69.2850  227.0250 C   0  0  0  0  0  0  0  0  0  0  0  0
  139.9930   69.7760  228.2660 C   0  0  0  0  0  0  0  0  0  0  0  0
  140.6500   70.9940  228.3080 C   0  0  0  0  0  0  0  0  0  0  0  0
  140.8920   71.7000  227.1500 C   0  0  0  0  0  0  0  0  0  0  0  0
  140.4760   71.1920  225.9390 C   0  0  0  0  0  0  0  0  0  0  0  0
  140.7050   71.8700  224.8010 N   0  0  0  0  0  0  0  0  0  0  0  0
  139.6640   73.9310  223.0920 H   0  0  0  0  0  0  0  0  0  0  0  0
  140.8408   73.7304  220.3436 H   0  0  0  0  0  0  0  0  0  0  0  0
  139.3590   74.7796  220.9525 H   0  0  0  0  0  0  0  0  0  0  0  0
  140.6987   77.7594  219.3522 H   0  0  0  0  0  0  0  0  0  0  0  0
  142.3454   78.2676  219.5322 H   0  0  0  0  0  0  0  0  0  0  0  0
  141.1519   76.2038  217.5755 H   0  0  0  0  0  0  0  0  0  0  0  0
  142.2360   77.5219  217.1657 H   0  0  0  0  0  0  0  0  0  0  0  0
  142.9749   74.8441  217.8430 H   0  0  0  0  0  0  0  0  0  0  0  0
  144.1014   76.1878  217.7010 H   0  0  0  0  0  0  0  0  0  0  0  0
  144.0570   76.5793  220.1109 H   0  0  0  0  0  0  0  0  0  0  0  0
  146.1081   72.5618  221.3818 H   0  0  0  0  0  0  0  0  0  0  0  0
  143.7128   71.4108  221.0435 H   0  0  0  0  0  0  0  0  0  0  0  0
  142.1260   73.2120  220.0990 H   0  0  0  0  0  0  0  0  0  0  0  0
  139.3545   69.8642  222.4645 H   0  0  0  0  0  0  0  0  0  0  0  0
  138.8903   68.5342  224.5435 H   0  0  0  0  0  0  0  0  0  0  0  0
  139.0590   68.3190  226.9767 H   0  0  0  0  0  0  0  0  0  0  0  0
  139.7987   69.2088  229.1882 H   0  0  0  0  0  0  0  0  0  0  0  0
  140.9816   71.4015  229.2744 H   0  0  0  0  0  0  0  0  0  0  0  0
  141.4158   72.6664  227.1923 H   0  0  0  0  0  0  0  0  0  0  0  0
  1  2  2  0
  2  3  1  0
  3  4  1  0
  4  5  1  0
  5  6  2  0
  5  7  1  0
  7  8  1  0
  8  9  1  0
  9 10  1  0
 10 11  1  0
 11 12  1  0
 12 13  2  0
 13 14  1  0
 14 15  2  0
 15 16  1  0
  2 17  1  0
 17 18  2  0
 18 19  1  0
 19 20  2  0
 20 21  1  0
 21 22  2  0
 22 23  1  0
 23 24  2  0
 24 25  1  0
 25 26  2  0
 11  7  1  0
 16 12  1  0
 26 17  1  0
 25 20  1  0
  3 27  1  0
  4 28  1  0
  4 29  1  0
  8 30  1  0
  8 31  1  0
  9 32  1  0
  9 33  1  0
 10 34  1  0
 10 35  1  0
 11 36  1  6
 14 37  1  0
 15 38  1  0
 16 39  1  0
 18 40  1  0
 19 41  1  0
 21 42  1  0
 22 43  1  0
 23 44  1  0
 24 45  1  0
M  END
>  <smiles>  (43) 
O=C(NCC(=O)N1CCC[C@@H]1c1ncc[nH]1)c1ccc2ccccc2n1

>  <score_type>  (43) 
oracle

>  <origin>  (43) 
autodockgpu

>  <m_score__min__energy>  (43) 
-7.8600000000000003

>  <m_primary>  (43) 
energy

>  <rmsd>  (43) 
3.4947885039358737

>  <m_score__min__rmsd>  (43) 
3.4947885039358737

>  <meeko>  (43) 
{"free_energy": -7.62, "intermolecular_energy": -9.11, "internal_energy": -2.09, "cluster_size": 22, "cluster_id": 2, "rank_in_cluster": 4}

>  <energy>  (43) 
-6.6

>  <cluster_rmsd>  (43) 
0.99

>  <cluster>  (43) 
3

$$$$

     RDKit          3D

 45 48  0  0  0  0  0  0  0  0999 V2000
  140.5790   76.9840  218.6370 O   0  0  0  0  0  0  0  0  0  0  0  0
  141.7380   76.9700  219.1120 C   0  0  0  0  0  0  0  0  0  0  0  0
  142.2390   78.2260  219.5920 N   0  0  0  0  0  0  0  0  0  0  0  0
  141.5510   79.4470  219.5750 C   0  0  0  0  0  0  0  0  0  0  0  0
  140.7100   79.9150  220.6410 C   0  0  0  0  0  0  0  0  0  0  0  0
  139.5120   80.2850  220.2290 O   0  0  0  0  0  0  0  0  0  0  0  0
  140.8940   80.0630  222.0130 N   0  0  0  0  0  0  0  0  0  0  0  0
  141.4500   81.1570  222.8360 C   0  0  0  0  0  0  0  0  0  0  0  0
  142.5240   80.4090  223.5850 C   0  0  0  0  0  0  0  0  0  0  0  0
  141.8860   79.0830  223.8900 C   0  0  0  0  0  0  0  0  0  0  0  0
  140.5980   79.1050  223.1120 C   0  0  2  0  0  0  0  0  0  0  0  0
  140.2590   77.7550  222.6730 C   0  0  0  0  0  0  0  0  0  0  0  0
  138.9980   77.2290  222.6650 N   0  0  0  0  0  0  0  0  0  0  0  0
  139.0140   75.9820  222.1690 C   0  0  0  0  0  0  0  0  0  0  0  0
  140.3200   75.6960  221.8490 C   0  0  0  0  0  0  0  0  0  0  0  0
  141.0580   76.7740  222.1580 N   0  0  0  0  0  0  0  0  0  0  0  0
  142.5470   75.7440  219.1790 C   0  0  0  0  0  0  0  0  0  0  0  0
  142.1400   74.6770  218.4170 C   0  0  0  0  0  0  0  0  0  0  0  0
  142.9050   73.5090  218.4760 C   0  0  0  0  0  0  0  0  0  0  0  0
  144.0410   73.4420  219.2860 C   0  0  0  0  0  0  0  0  0  0  0  0
  144.8170   72.3100  219.3700 C   0  0  0  0  0  0  0  0  0  0  0  0
  145.9510   72.2570  220.1830 C   0  0  0  0  0  0  0  0  0  0  0  0
  146.2870   73.3820  220.9170 C   0  0  0  0  0  0  0  0  0  0  0  0
  145.5190   74.5230  220.8440 C   0  0  0  0  0  0  0  0  0  0  0  0
  144.4050   74.5470  220.0330 C   0  0  0  0  0  0  0  0  0  0  0  0
  143.6450   75.6540  219.9510 N   0  0  0  0  0  0  0  0  0  0  0  0
  143.2340   78.1550  219.9840 H   0  0  0  0  0  0  0  0  0  0  0  0
  142.3219   80.2206  219.4433 H   0  0  0  0  0  0  0  0  0  0  0  0
  140.8033   79.2521  218.7921 H   0  0  0  0  0  0  0  0  0  0  0  0
  141.8714   81.9607  222.2143 H   0  0  0  0  0  0  0  0  0  0  0  0
  140.7169   81.6727  223.4737 H   0  0  0  0  0  0  0  0  0  0  0  0
  143.4201   80.2790  222.9604 H   0  0  0  0  0  0  0  0  0  0  0  0
  142.8618   80.9380  224.4884 H   0  0  0  0  0  0  0  0  0  0  0  0
  142.5289   78.2550  223.5568 H   0  0  0  0  0  0  0  0  0  0  0  0
  141.7247   78.9311  224.9675 H   0  0  0  0  0  0  0  0  0  0  0  0
  139.7095   79.4243  223.6764 H   0  0  0  0  0  0  0  0  0  0  0  0
  138.1477   75.3161  222.0427 H   0  0  0  0  0  0  0  0  0  0  0  0
  140.6926   74.7550  221.4181 H   0  0  0  0  0  0  0  0  0  0  0  0
  142.1010   76.8340  222.0080 H   0  0  0  0  0  0  0  0  0  0  0  0
  141.2436   74.7392  217.7826 H   0  0  0  0  0  0  0  0  0  0  0  0
  142.6096   72.6338  217.8787 H   0  0  0  0  0  0  0  0  0  0  0  0
  144.5373   71.4236  218.7817 H   0  0  0  0  0  0  0  0  0  0  0  0
  146.5623   71.3442  220.2390 H   0  0  0  0  0  0  0  0  0  0  0  0
  147.1759   73.3643  221.5647 H   0  0  0  0  0  0  0  0  0  0  0  0
  145.7938   75.4119  221.4309 H   0  0  0  0  0  0  0  0  0  0  0  0
  1  2  2  0
  2  3  1  0
  3  4  1  0
  4  5  1  0
  5  6  2  0
  5  7  1  0
  7  8  1  0
  8  9  1  0
  9 10  1  0
 10 11  1  0
 11 12  1  0
 12 13  2  0
 13 14  1  0
 14 15  2  0
 15 16  1  0
  2 17  1  0
 17 18  2  0
 18 19  1  0
 19 20  2  0
 20 21  1  0
 21 22  2  0
 22 23  1  0
 23 24  2  0
 24 25  1  0
 25 26  2  0
 11  7  1  0
 16 12  1  0
 26 17  1  0
 25 20  1  0
  3 27  1  0
  4 28  1  0
  4 29  1  0
  8 30  1  0
  8 31  1  0
  9 32  1  0
  9 33  1  0
 10 34  1  0
 10 35  1  0
 11 36  1  1
 14 37  1  0
 15 38  1  0
 16 39  1  0
 18 40  1  0
 19 41  1  0
 21 42  1  0
 22 43  1  0
 23 44  1  0
 24 45  1  0
M  END
>  <smiles>  (44) 
O=C(NCC(=O)N1CCC[C@@H]1c1ncc[nH]1)c1ccc2ccccc2n1

>  <score_type>  (44) 
oracle

>  <origin>  (44) 
autodockgpu

>  <m_score__min__energy>  (44) 
-7.8600000000000003

>  <m_primary>  (44) 
energy

>  <rmsd>  (44) 
7.2354931159283336

>  <m_score__min__rmsd>  (44) 
7.2354931159283336

>  <meeko>  (44) 
{"free_energy": -6.86, "intermolecular_energy": -8.35, "internal_energy": -2.21, "cluster_size": 1, "cluster_id": 6, "rank_in_cluster": 1}

>  <energy>  (44) 
-6.5

>  <cluster_rmsd>  (44) 
0.98

>  <cluster>  (44) 
3

$$$$

     RDKit          3D

 45 48  0  0  0  0  0  0  0  0999 V2000
  141.2290   71.8010  221.4170 O   0  0  0  0  0  0  0  0  0  0  0  0
  140.5850   72.2590  222.3890 C   0  0  0  0  0  0  0  0  0  0  0  0
  140.1140   73.6080  222.2540 N   0  0  0  0  0  0  0  0  0  0  0  0
  140.3100   74.4420  221.1450 C   0  0  0  0  0  0  0  0  0  0  0  0
  141.1320   75.6200  221.1540 C   0  0  0  0  0  0  0  0  0  0  0  0
  141.1770   76.2080  222.3350 O   0  0  0  0  0  0  0  0  0  0  0  0
  141.8860   76.2700  220.1810 N   0  0  0  0  0  0  0  0  0  0  0  0
  141.5980   77.4130  219.2910 C   0  0  0  0  0  0  0  0  0  0  0  0
  141.8860   76.7880  217.9490 C   0  0  0  0  0  0  0  0  0  0  0  0
  143.0960   75.9340  218.2090 C   0  0  0  0  0  0  0  0  0  0  0  0
  143.2630   75.9750  219.7030 C   0  0  2  0  0  0  0  0  0  0  0  0
  143.8190   74.7120  220.1770 C   0  0  0  0  0  0  0  0  0  0  0  0
  145.1130   74.5260  220.5760 N   0  0  0  0  0  0  0  0  0  0  0  0
  145.2970   73.2640  220.9920 C   0  0  0  0  0  0  0  0  0  0  0  0
  144.0920   72.6170  220.8580 C   0  0  0  0  0  0  0  0  0  0  0  0
  143.2110   73.5030  220.3660 N   0  0  0  0  0  0  0  0  0  0  0  0
  140.3200   71.4710  223.6010 C   0  0  0  0  0  0  0  0  0  0  0  0
  139.6590   70.2780  223.4450 C   0  0  0  0  0  0  0  0  0  0  0  0
  139.4050   69.5230  224.5930 C   0  0  0  0  0  0  0  0  0  0  0  0
  139.8140   69.9770  225.8490 C   0  0  0  0  0  0  0  0  0  0  0  0
  139.5810   69.2620  227.0000 C   0  0  0  0  0  0  0  0  0  0  0  0
  139.9960   69.7270  228.2490 C   0  0  0  0  0  0  0  0  0  0  0  0
  140.6560   70.9420  228.3120 C   0  0  0  0  0  0  0  0  0  0  0  0
  140.8970   71.6700  227.1670 C   0  0  0  0  0  0  0  0  0  0  0  0
  140.4760   71.1860  225.9480 C   0  0  0  0  0  0  0  0  0  0  0  0
  140.7040   71.8860  224.8220 N   0  0  0  0  0  0  0  0  0  0  0  0
  139.5720   73.9480  223.1150 H   0  0  0  0  0  0  0  0  0  0  0  0
  140.7256   73.7960  220.3576 H   0  0  0  0  0  0  0  0  0  0  0  0
  139.3101   74.8891  221.0440 H   0  0  0  0  0  0  0  0  0  0  0  0
  140.5503   77.7383  219.3722 H   0  0  0  0  0  0  0  0  0  0  0  0
  142.1758   78.3234  219.5087 H   0  0  0  0  0  0  0  0  0  0  0  0
  141.0376   76.1747  217.6112 H   0  0  0  0  0  0  0  0  0  0  0  0
  142.0511   77.5333  217.1570 H   0  0  0  0  0  0  0  0  0  0  0  0
  142.9275   74.9033  217.8635 H   0  0  0  0  0  0  0  0  0  0  0  0
  143.9881   76.2940  217.6755 H   0  0  0  0  0  0  0  0  0  0  0  0
  143.9729   76.7266  220.0787 H   0  0  0  0  0  0  0  0  0  0  0  0
  146.2346   72.8294  221.3689 H   0  0  0  0  0  0  0  0  0  0  0  0
  143.8867   71.5656  221.1080 H   0  0  0  0  0  0  0  0  0  0  0  0
  142.1980   73.2770  220.1710 H   0  0  0  0  0  0  0  0  0  0  0  0
  139.3406   69.9289  222.4517 H   0  0  0  0  0  0  0  0  0  0  0  0
  138.8777   68.5615  224.5067 H   0  0  0  0  0  0  0  0  0  0  0  0
  139.0539   68.2987  226.9349 H   0  0  0  0  0  0  0  0  0  0  0  0
  139.8033   69.1423  229.1606 H   0  0  0  0  0  0  0  0  0  0  0  0
  140.9913   71.3301  229.2851 H   0  0  0  0  0  0  0  0  0  0  0  0
  141.4236   72.6340  227.2263 H   0  0  0  0  0  0  0  0  0  0  0  0
  1  2  2  0
  2  3  1  0
  3  4  1  0
  4  5  1  0
  5  6  2  0
  5  7  1  0
  7  8  1  0
  8  9  1  0
  9 10  1  0
 10 11  1  0
 11 12  1  0
 12 13  2  0
 13 14  1  0
 14 15  2  0
 15 16  1  0
  2 17  1  0
 17 18  2  0
 18 19  1  0
 19 20  2  0
 20 21  1  0
 21 22  2  0
 22 23  1  0
 23 24  2  0
 24 25  1  0
 25 26  2  0
 11  7  1  0
 16 12  1  0
 26 17  1  0
 25 20  1  0
  3 27  1  0
  4 28  1  0
  4 29  1  0
  8 30  1  0
  8 31  1  0
  9 32  1  0
  9 33  1  0
 10 34  1  0
 10 35  1  0
 11 36  1  6
 14 37  1  0
 15 38  1  0
 16 39  1  0
 18 40  1  0
 19 41  1  0
 21 42  1  0
 22 43  1  0
 23 44  1  0
 24 45  1  0
M  END
>  <smiles>  (45) 
O=C(NCC(=O)N1CCC[C@@H]1c1ncc[nH]1)c1ccc2ccccc2n1

>  <score_type>  (45) 
oracle

>  <origin>  (45) 
autodockgpu

>  <m_score__min__energy>  (45) 
-7.8600000000000003

>  <m_primary>  (45) 
energy

>  <rmsd>  (45) 
3.4369277983864492

>  <m_score__min__rmsd>  (45) 
3.4369277983864492

>  <meeko>  (45) 
{"free_energy": -7.63, "intermolecular_energy": -9.12, "internal_energy": -2.13, "cluster_size": 22, "cluster_id": 2, "rank_in_cluster": 1}

>  <energy>  (45) 
-6.45

>  <cluster_rmsd>  (45) 
1.01

>  <cluster>  (45) 
3

$$$$

     RDKit          3D

 45 48  0  0  0  0  0  0  0  0999 V2000
  141.4760   71.7810  221.5190 O   0  0  0  0  0  0  0  0  0  0  0  0
  140.7060   72.2160  222.4060 C   0  0  0  0  0  0  0  0  0  0  0  0
  140.1440   73.5160  222.1740 N   0  0  0  0  0  0  0  0  0  0  0  0
  140.3800   74.3260  221.0550 C   0  0  0  0  0  0  0  0  0  0  0  0
  141.5430   74.2290  220.2180 C   0  0  0  0  0  0  0  0  0  0  0  0
  142.5630   74.9360  220.6670 O   0  0  0  0  0  0  0  0  0  0  0  0
  141.8190   73.5490  219.0340 N   0  0  0  0  0  0  0  0  0  0  0  0
  140.9680   73.1160  217.9080 C   0  0  0  0  0  0  0  0  0  0  0  0
  141.2820   71.6410  217.8850 C   0  0  0  0  0  0  0  0  0  0  0  0
  142.7560   71.5890  218.1710 C   0  0  0  0  0  0  0  0  0  0  0  0
  143.1120   73.0030  218.5410 C   0  0  2  0  0  0  0  0  0  0  0  0
  144.1920   73.0050  219.5220 C   0  0  0  0  0  0  0  0  0  0  0  0
  145.5240   73.0430  219.2190 N   0  0  0  0  0  0  0  0  0  0  0  0
  146.2580   73.0740  220.3420 C   0  0  0  0  0  0  0  0  0  0  0  0
  145.3780   73.0550  221.3970 C   0  0  0  0  0  0  0  0  0  0  0  0
  144.1370   73.0140  220.8860 N   0  0  0  0  0  0  0  0  0  0  0  0
  140.3880   71.4480  223.6190 C   0  0  0  0  0  0  0  0  0  0  0  0
  139.7050   70.2670  223.4560 C   0  0  0  0  0  0  0  0  0  0  0  0
  139.4000   69.5320  224.6050 C   0  0  0  0  0  0  0  0  0  0  0  0
  139.7810   69.9920  225.8680 C   0  0  0  0  0  0  0  0  0  0  0  0
  139.4980   69.2960  227.0190 C   0  0  0  0  0  0  0  0  0  0  0  0
  139.8860   69.7680  228.2740 C   0  0  0  0  0  0  0  0  0  0  0  0
  140.5710   70.9690  228.3440 C   0  0  0  0  0  0  0  0  0  0  0  0
  140.8620   71.6770  227.1990 C   0  0  0  0  0  0  0  0  0  0  0  0
  140.4670   71.1880  225.9730 C   0  0  0  0  0  0  0  0  0  0  0  0
  140.7430   71.8690  224.8460 N   0  0  0  0  0  0  0  0  0  0  0  0
  139.4960   73.8370  222.9640 H   0  0  0  0  0  0  0  0  0  0  0  0
  139.5199   74.1685  220.3876 H   0  0  0  0  0  0  0  0  0  0  0  0
  140.5534   75.2992  221.5375 H   0  0  0  0  0  0  0  0  0  0  0  0
  139.9025   73.3023  218.1080 H   0  0  0  0  0  0  0  0  0  0  0  0
  141.1557   73.6417  216.9601 H   0  0  0  0  0  0  0  0  0  0  0  0
  140.7126   71.1061  218.6594 H   0  0  0  0  0  0  0  0  0  0  0  0
  141.0145   71.1619  216.9316 H   0  0  0  0  0  0  0  0  0  0  0  0
  142.9674   70.9030  219.0045 H   0  0  0  0  0  0  0  0  0  0  0  0
  143.3380   71.2192  217.3139 H   0  0  0  0  0  0  0  0  0  0  0  0
  143.5074   73.6211  217.7215 H   0  0  0  0  0  0  0  0  0  0  0  0
  147.3556   73.1081  220.4058 H   0  0  0  0  0  0  0  0  0  0  0  0
  145.6419   73.0705  222.4648 H   0  0  0  0  0  0  0  0  0  0  0  0
  143.2610   73.0010  221.4760 H   0  0  0  0  0  0  0  0  0  0  0  0
  139.4090   69.9128  222.4575 H   0  0  0  0  0  0  0  0  0  0  0  0
  138.8542   68.5813  224.5139 H   0  0  0  0  0  0  0  0  0  0  0  0
  138.9522   68.3435  226.9494 H   0  0  0  0  0  0  0  0  0  0  0  0
  139.6529   69.1990  229.1861 H   0  0  0  0  0  0  0  0  0  0  0  0
  140.8855   71.3612  229.3224 H   0  0  0  0  0  0  0  0  0  0  0  0
  141.4080   72.6298  227.2632 H   0  0  0  0  0  0  0  0  0  0  0  0
  1  2  2  0
  2  3  1  0
  3  4  1  0
  4  5  1  0
  5  6  2  0
  5  7  1  0
  7  8  1  0
  8  9  1  0
  9 10  1  0
 10 11  1  0
 11 12  1  0
 12 13  2  0
 13 14  1  0
 14 15  2  0
 15 16  1  0
  2 17  1  0
 17 18  2  0
 18 19  1  0
 19 20  2  0
 20 21  1  0
 21 22  2  0
 22 23  1  0
 23 24  2  0
 24 25  1  0
 25 26  2  0
 11  7  1  0
 16 12  1  0
 26 17  1  0
 25 20  1  0
  3 27  1  0
  4 28  1  0
  4 29  1  0
  8 30  1  0
  8 31  1  0
  9 32  1  0
  9 33  1  0
 10 34  1  0
 10 35  1  0
 11 36  1  6
 14 37  1  0
 15 38  1  0
 16 39  1  0
 18 40  1  0
 19 41  1  0
 21 42  1  0
 22 43  1  0
 23 44  1  0
 24 45  1  0
M  END
>  <smiles>  (46) 
O=C(NCC(=O)N1CCC[C@@H]1c1ncc[nH]1)c1ccc2ccccc2n1

>  <score_type>  (46) 
oracle

>  <origin>  (46) 
autodockgpu

>  <m_score__min__energy>  (46) 
-7.8600000000000003

>  <m_primary>  (46) 
energy

>  <rmsd>  (46) 
4.049628077886941

>  <m_score__min__rmsd>  (46) 
4.049628077886941

>  <meeko>  (46) 
{"free_energy": -6.61, "intermolecular_energy": -8.11, "internal_energy": -2.45, "cluster_size": 22, "cluster_id": 2, "rank_in_cluster": 20}

>  <energy>  (46) 
-7.04

>  <cluster_rmsd>  (46) 
0.0

>  <cluster>  (46) 
4

$$$$

     RDKit          3D

 45 48  0  0  0  0  0  0  0  0999 V2000
  139.9310   71.3360  221.2270 O   0  0  0  0  0  0  0  0  0  0  0  0
  139.7910   71.9240  222.3240 C   0  0  0  0  0  0  0  0  0  0  0  0
  139.4930   73.3260  222.2560 N   0  0  0  0  0  0  0  0  0  0  0  0
  139.3470   74.0800  221.0840 C   0  0  0  0  0  0  0  0  0  0  0  0
  140.4270   74.4160  220.1990 C   0  0  0  0  0  0  0  0  0  0  0  0
  140.3930   73.7420  219.0640 O   0  0  0  0  0  0  0  0  0  0  0  0
  141.5010   75.2980  220.2870 N   0  0  0  0  0  0  0  0  0  0  0  0
  141.5970   76.7690  220.1960 C   0  0  0  0  0  0  0  0  0  0  0  0
  142.6170   76.9040  219.0930 C   0  0  0  0  0  0  0  0  0  0  0  0
  143.5960   75.8000  219.3790 C   0  0  0  0  0  0  0  0  0  0  0  0
  142.9460   75.0060  220.4790 C   0  0  2  0  0  0  0  0  0  0  0  0
  143.3080   73.5970  220.3570 C   0  0  0  0  0  0  0  0  0  0  0  0
  144.5860   73.1240  220.2460 N   0  0  0  0  0  0  0  0  0  0  0  0
  144.5850   71.7830  220.1910 C   0  0  0  0  0  0  0  0  0  0  0  0
  143.2730   71.3800  220.2680 C   0  0  0  0  0  0  0  0  0  0  0  0
  142.5160   72.4850  220.3680 N   0  0  0  0  0  0  0  0  0  0  0  0
  139.9220   71.2280  223.6130 C   0  0  0  0  0  0  0  0  0  0  0  0
  139.5370   69.9110  223.6600 C   0  0  0  0  0  0  0  0  0  0  0  0
  139.6580   69.2440  224.8820 C   0  0  0  0  0  0  0  0  0  0  0  0
  140.1560   69.9050  226.0080 C   0  0  0  0  0  0  0  0  0  0  0  0
  140.2890   69.2810  227.2250 C   0  0  0  0  0  0  0  0  0  0  0  0
  140.7880   69.9530  228.3420 C   0  0  0  0  0  0  0  0  0  0  0  0
  141.1530   71.2810  228.2030 C   0  0  0  0  0  0  0  0  0  0  0  0
  141.0240   71.9200  226.9890 C   0  0  0  0  0  0  0  0  0  0  0  0
  140.5290   71.2320  225.9030 C   0  0  0  0  0  0  0  0  0  0  0  0
  140.3980   71.8420  224.7110 N   0  0  0  0  0  0  0  0  0  0  0  0
  139.3860   73.7760  223.2220 H   0  0  0  0  0  0  0  0  0  0  0  0
  138.6177   73.5333  220.4682 H   0  0  0  0  0  0  0  0  0  0  0  0
  139.1086   75.0687  221.5031 H   0  0  0  0  0  0  0  0  0  0  0  0
  140.6345   77.2234  219.9183 H   0  0  0  0  0  0  0  0  0  0  0  0
  141.8660   77.2722  221.1364 H   0  0  0  0  0  0  0  0  0  0  0  0
  142.1491   76.7682  218.1068 H   0  0  0  0  0  0  0  0  0  0  0  0
  143.0889   77.8973  219.0668 H   0  0  0  0  0  0  0  0  0  0  0  0
  143.7515   75.1757  218.4868 H   0  0  0  0  0  0  0  0  0  0  0  0
  144.5882   76.1801  219.6635 H   0  0  0  0  0  0  0  0  0  0  0  0
  143.2617   75.2666  221.5000 H   0  0  0  0  0  0  0  0  0  0  0  0
  145.4662   71.1307  220.1014 H   0  0  0  0  0  0  0  0  0  0  0  0
  142.9094   70.3420  220.2509 H   0  0  0  0  0  0  0  0  0  0  0  0
  141.4630   72.4680  220.4500 H   0  0  0  0  0  0  0  0  0  0  0  0
  139.1473   69.3992  222.7677 H   0  0  0  0  0  0  0  0  0  0  0  0
  139.3583   68.1884  224.9583 H   0  0  0  0  0  0  0  0  0  0  0  0
  139.9949   68.2254  227.3214 H   0  0  0  0  0  0  0  0  0  0  0  0
  140.8888   69.4396  229.3096 H   0  0  0  0  0  0  0  0  0  0  0  0
  141.5495   71.8310  229.0692 H   0  0  0  0  0  0  0  0  0  0  0  0
  141.3153   72.9759  226.8874 H   0  0  0  0  0  0  0  0  0  0  0  0
  1  2  2  0
  2  3  1  0
  3  4  1  0
  4  5  1  0
  5  6  2  0
  5  7  1  0
  7  8  1  0
  8  9  1  0
  9 10  1  0
 10 11  1  0
 11 12  1  0
 12 13  2  0
 13 14  1  0
 14 15  2  0
 15 16  1  0
  2 17  1  0
 17 18  2  0
 18 19  1  0
 19 20  2  0
 20 21  1  0
 21 22  2  0
 22 23  1  0
 23 24  2  0
 24 25  1  0
 25 26  2  0
 11  7  1  0
 16 12  1  0
 26 17  1  0
 25 20  1  0
  3 27  1  0
  4 28  1  0
  4 29  1  0
  8 30  1  0
  8 31  1  0
  9 32  1  0
  9 33  1  0
 10 34  1  0
 10 35  1  0
 11 36  1  1
 14 37  1  0
 15 38  1  0
 16 39  1  0
 18 40  1  0
 19 41  1  0
 21 42  1  0
 22 43  1  0
 23 44  1  0
 24 45  1  0
M  END
>  <smiles>  (47) 
O=C(NCC(=O)N1CCC[C@@H]1c1ncc[nH]1)c1ccc2ccccc2n1

>  <score_type>  (47) 
oracle

>  <origin>  (47) 
autodockgpu

>  <m_score__min__energy>  (47) 
-7.8600000000000003

>  <m_primary>  (47) 
energy

>  <rmsd>  (47) 
3.8102718343576165

>  <m_score__min__rmsd>  (47) 
3.8102718343576165

>  <meeko>  (47) 
{"free_energy": -6.81, "intermolecular_energy": -8.3, "internal_energy": -2.77, "cluster_size": 22, "cluster_id": 2, "rank_in_cluster": 17}

>  <energy>  (47) 
-7.02

>  <cluster_rmsd>  (47) 
0.06

>  <cluster>  (47) 
4

$$$$

     RDKit          3D

 45 48  0  0  0  0  0  0  0  0999 V2000
  139.0080   75.2730  221.8970 O   0  0  0  0  0  0  0  0  0  0  0  0
  140.1020   75.8800  221.8550 C   0  0  0  0  0  0  0  0  0  0  0  0
  141.2020   75.1620  221.2750 N   0  0  0  0  0  0  0  0  0  0  0  0
  141.1540   73.8600  220.7600 C   0  0  0  0  0  0  0  0  0  0  0  0
  142.2570   72.9400  220.7830 C   0  0  0  0  0  0  0  0  0  0  0  0
  141.9200   71.7390  221.2130 O   0  0  0  0  0  0  0  0  0  0  0  0
  143.6050   73.0510  220.4510 N   0  0  0  0  0  0  0  0  0  0  0  0
  144.7950   72.2590  220.8220 C   0  0  0  0  0  0  0  0  0  0  0  0
  145.6740   73.3440  221.3920 C   0  0  0  0  0  0  0  0  0  0  0  0
  145.4300   74.5130  220.4790 C   0  0  0  0  0  0  0  0  0  0  0  0
  144.2860   74.0690  219.6070 C   0  0  2  0  0  0  0  0  0  0  0  0
  143.4610   75.2170  219.2450 C   0  0  0  0  0  0  0  0  0  0  0  0
  143.5370   76.4500  219.8290 N   0  0  0  0  0  0  0  0  0  0  0  0
  142.6740   77.2970  219.2460 C   0  0  0  0  0  0  0  0  0  0  0  0
  142.0250   76.5930  218.2610 C   0  0  0  0  0  0  0  0  0  0  0  0
  142.5110   75.3410  218.2720 N   0  0  0  0  0  0  0  0  0  0  0  0
  140.2640   77.2500  222.3650 C   0  0  0  0  0  0  0  0  0  0  0  0
  139.1240   77.9290  222.7180 C   0  0  0  0  0  0  0  0  0  0  0  0
  139.2700   79.2310  223.2040 C   0  0  0  0  0  0  0  0  0  0  0  0
  140.5360   79.8100  223.3220 C   0  0  0  0  0  0  0  0  0  0  0  0
  140.7170   81.0870  223.7960 C   0  0  0  0  0  0  0  0  0  0  0  0
  141.9890   81.6530  223.9100 C   0  0  0  0  0  0  0  0  0  0  0  0
  143.0830   80.8940  223.5310 C   0  0  0  0  0  0  0  0  0  0  0  0
  142.9160   79.6120  223.0540 C   0  0  0  0  0  0  0  0  0  0  0  0
  141.6500   79.0790  222.9530 C   0  0  0  0  0  0  0  0  0  0  0  0
  141.4710   77.8290  222.4890 N   0  0  0  0  0  0  0  0  0  0  0  0
  142.1110   75.7290  221.2670 H   0  0  0  0  0  0  0  0  0  0  0  0
  140.3371   73.3576  221.2987 H   0  0  0  0  0  0  0  0  0  0  0  0
  141.0807   74.0671  219.6822 H   0  0  0  0  0  0  0  0  0  0  0  0
  144.5555   71.4924  221.5737 H   0  0  0  0  0  0  0  0  0  0  0  0
  145.2446   71.6889  219.9956 H   0  0  0  0  0  0  0  0  0  0  0  0
  145.3813   73.5845  222.4247 H   0  0  0  0  0  0  0  0  0  0  0  0
  146.7339   73.0538  221.4407 H   0  0  0  0  0  0  0  0  0  0  0  0
  145.1556   75.4082  221.0564 H   0  0  0  0  0  0  0  0  0  0  0  0
  146.3223   74.7856  219.8964 H   0  0  0  0  0  0  0  0  0  0  0  0
  144.5707   73.6394  218.6352 H   0  0  0  0  0  0  0  0  0  0  0  0
  142.5165   78.3538  219.5073 H   0  0  0  0  0  0  0  0  0  0  0  0
  141.2489   76.9834  217.5863 H   0  0  0  0  0  0  0  0  0  0  0  0
  142.1930   74.5830  217.6090 H   0  0  0  0  0  0  0  0  0  0  0  0
  138.1314   77.4647  222.6217 H   0  0  0  0  0  0  0  0  0  0  0  0
  138.3790   79.8059  223.4966 H   0  0  0  0  0  0  0  0  0  0  0  0
  139.8383   81.6783  224.0931 H   0  0  0  0  0  0  0  0  0  0  0  0
  142.1182   82.6766  224.2915 H   0  0  0  0  0  0  0  0  0  0  0  0
  144.0948   81.3181  223.6114 H   0  0  0  0  0  0  0  0  0  0  0  0
  143.7910   79.0162  222.7549 H   0  0  0  0  0  0  0  0  0  0  0  0
  1  2  2  0
  2  3  1  0
  3  4  1  0
  4  5  1  0
  5  6  2  0
  5  7  1  0
  7  8  1  0
  8  9  1  0
  9 10  1  0
 10 11  1  0
 11 12  1  0
 12 13  2  0
 13 14  1  0
 14 15  2  0
 15 16  1  0
  2 17  1  0
 17 18  2  0
 18 19  1  0
 19 20  2  0
 20 21  1  0
 21 22  2  0
 22 23  1  0
 23 24  2  0
 24 25  1  0
 25 26  2  0
 11  7  1  0
 16 12  1  0
 26 17  1  0
 25 20  1  0
  3 27  1  0
  4 28  1  0
  4 29  1  0
  8 30  1  0
  8 31  1  0
  9 32  1  0
  9 33  1  0
 10 34  1  0
 10 35  1  0
 11 36  1  6
 14 37  1  0
 15 38  1  0
 16 39  1  0
 18 40  1  0
 19 41  1  0
 21 42  1  0
 22 43  1  0
 23 44  1  0
 24 45  1  0
M  END
>  <smiles>  (48) 
O=C(NCC(=O)N1CCC[C@@H]1c1ncc[nH]1)c1ccc2ccccc2n1

>  <score_type>  (48) 
oracle

>  <origin>  (48) 
autodockgpu

>  <m_score__min__energy>  (48) 
-7.8600000000000003

>  <m_primary>  (48) 
energy

>  <rmsd>  (48) 
7.576415056613128

>  <m_score__min__rmsd>  (48) 
7.576415056613128

>  <meeko>  (48) 
{"free_energy": -6.67, "intermolecular_energy": -8.16, "internal_energy": -2.53, "cluster_size": 17, "cluster_id": 3, "rank_in_cluster": 12}

>  <energy>  (48) 
-6.91

>  <cluster_rmsd>  (48) 
0.0

>  <cluster>  (48) 
5

$$$$

     RDKit          3D

 45 48  0  0  0  0  0  0  0  0999 V2000
  140.4600   71.2480  221.1260 O   0  0  0  0  0  0  0  0  0  0  0  0
  139.9250   71.8150  222.1050 C   0  0  0  0  0  0  0  0  0  0  0  0
  139.2940   73.0760  221.8370 N   0  0  0  0  0  0  0  0  0  0  0  0
  139.2270   73.7150  220.5910 C   0  0  0  0  0  0  0  0  0  0  0  0
  140.3650   74.2410  219.8900 C   0  0  0  0  0  0  0  0  0  0  0  0
  140.3740   73.9250  218.6090 O   0  0  0  0  0  0  0  0  0  0  0  0
  141.4580   75.0110  220.2790 N   0  0  0  0  0  0  0  0  0  0  0  0
  141.6210   76.4540  220.5480 C   0  0  0  0  0  0  0  0  0  0  0  0
  142.7500   76.7780  219.6010 C   0  0  0  0  0  0  0  0  0  0  0  0
  143.6510   75.5800  219.7030 C   0  0  0  0  0  0  0  0  0  0  0  0
  142.8650   74.5930  220.5220 C   0  0  2  0  0  0  0  0  0  0  0  0
  143.1810   73.2320  220.1020 C   0  0  0  0  0  0  0  0  0  0  0  0
  144.4230   72.6650  220.1580 N   0  0  0  0  0  0  0  0  0  0  0  0
  144.3750   71.3910  219.7360 C   0  0  0  0  0  0  0  0  0  0  0  0
  143.0680   71.1300  219.4000 C   0  0  0  0  0  0  0  0  0  0  0  0
  142.3610   72.2490  219.6260 N   0  0  0  0  0  0  0  0  0  0  0  0
  139.9350   71.2340  223.4560 C   0  0  0  0  0  0  0  0  0  0  0  0
  139.2510   70.0580  223.6400 C   0  0  0  0  0  0  0  0  0  0  0  0
  139.2570   69.4990  224.9210 C   0  0  0  0  0  0  0  0  0  0  0  0
  139.9390   70.1250  225.9680 C   0  0  0  0  0  0  0  0  0  0  0  0
  139.9660   69.6050  227.2400 C   0  0  0  0  0  0  0  0  0  0  0  0
  140.6520   70.2400  228.2770 C   0  0  0  0  0  0  0  0  0  0  0  0
  141.3160   71.4240  227.9990 C   0  0  0  0  0  0  0  0  0  0  0  0
  141.2970   71.9570  226.7290 C   0  0  0  0  0  0  0  0  0  0  0  0
  140.6120   71.3080  225.7250 C   0  0  0  0  0  0  0  0  0  0  0  0
  140.5840   71.8160  224.4800 N   0  0  0  0  0  0  0  0  0  0  0  0
  138.8550   73.5170  222.7100 H   0  0  0  0  0  0  0  0  0  0  0  0
  138.7684   72.9854  219.9074 H   0  0  0  0  0  0  0  0  0  0  0  0
  138.7048   74.6441  220.8633 H   0  0  0  0  0  0  0  0  0  0  0  0
  140.7096   77.0192  220.3034 H   0  0  0  0  0  0  0  0  0  0  0  0
  141.8154   76.7074  221.6006 H   0  0  0  0  0  0  0  0  0  0  0  0
  142.3773   76.9029  218.5736 H   0  0  0  0  0  0  0  0  0  0  0  0
  143.2608   77.7196  219.8509 H   0  0  0  0  0  0  0  0  0  0  0  0
  143.8706   75.1714  218.7056 H   0  0  0  0  0  0  0  0  0  0  0  0
  144.6234   75.8226  220.1564 H   0  0  0  0  0  0  0  0  0  0  0  0
  143.0885   74.5884  221.5990 H   0  0  0  0  0  0  0  0  0  0  0  0
  145.2203   70.6901  219.6715 H   0  0  0  0  0  0  0  0  0  0  0  0
  142.6731   70.1779  219.0159 H   0  0  0  0  0  0  0  0  0  0  0  0
  141.3220   72.3290  219.4600 H   0  0  0  0  0  0  0  0  0  0  0  0
  138.7175   69.5731  222.8092 H   0  0  0  0  0  0  0  0  0  0  0  0
  138.7198   68.5573  225.1069 H   0  0  0  0  0  0  0  0  0  0  0  0
  139.4337   68.6647  227.4462 H   0  0  0  0  0  0  0  0  0  0  0  0
  140.6650   69.8110  229.2898 H   0  0  0  0  0  0  0  0  0  0  0  0
  141.8632   71.9430  228.7997 H   0  0  0  0  0  0  0  0  0  0  0  0
  141.8268   72.8974  226.5171 H   0  0  0  0  0  0  0  0  0  0  0  0
  1  2  2  0
  2  3  1  0
  3  4  1  0
  4  5  1  0
  5  6  2  0
  5  7  1  0
  7  8  1  0
  8  9  1  0
  9 10  1  0
 10 11  1  0
 11 12  1  0
 12 13  2  0
 13 14  1  0
 14 15  2  0
 15 16  1  0
  2 17  1  0
 17 18  2  0
 18 19  1  0
 19 20  2  0
 20 21  1  0
 21 22  2  0
 22 23  1  0
 23 24  2  0
 24 25  1  0
 25 26  2  0
 11  7  1  0
 16 12  1  0
 26 17  1  0
 25 20  1  0
  3 27  1  0
  4 28  1  0
  4 29  1  0
  8 30  1  0
  8 31  1  0
  9 32  1  0
  9 33  1  0
 10 34  1  0
 10 35  1  0
 11 36  1  1
 14 37  1  0
 15 38  1  0
 16 39  1  0
 18 40  1  0
 19 41  1  0
 21 42  1  0
 22 43  1  0
 23 44  1  0
 24 45  1  0
M  END
>  <smiles>  (49) 
O=C(NCC(=O)N1CCC[C@@H]1c1ncc[nH]1)c1ccc2ccccc2n1

>  <score_type>  (49) 
oracle

>  <origin>  (49) 
autodockgpu

>  <m_score__min__energy>  (49) 
-7.8600000000000003

>  <m_primary>  (49) 
energy

>  <rmsd>  (49) 
4.015752839496173

>  <m_score__min__rmsd>  (49) 
4.015752839496173

>  <meeko>  (49) 
{"free_energy": -6.54, "intermolecular_energy": -8.03, "internal_energy": -2.61, "cluster_size": 22, "cluster_id": 2, "rank_in_cluster": 22}

>  <energy>  (49) 
-6.86

>  <cluster_rmsd>  (49) 
0.0

>  <cluster>  (49) 
6

$$$$

     RDKit          3D

 45 48  0  0  0  0  0  0  0  0999 V2000
  140.0050   74.4080  222.2380 O   0  0  0  0  0  0  0  0  0  0  0  0
  140.2570   75.4220  221.5470 C   0  0  0  0  0  0  0  0  0  0  0  0
  140.5020   75.1910  220.1520 N   0  0  0  0  0  0  0  0  0  0  0  0
  140.4830   73.9460  219.5080 C   0  0  0  0  0  0  0  0  0  0  0  0
  141.6440   73.3020  218.9600 C   0  0  0  0  0  0  0  0  0  0  0  0
  141.3520   72.4320  218.0110 O   0  0  0  0  0  0  0  0  0  0  0  0
  143.0080   73.4010  219.2200 N   0  0  0  0  0  0  0  0  0  0  0  0
  144.0100   72.4240  219.6930 C   0  0  0  0  0  0  0  0  0  0  0  0
  144.5450   73.1510  220.9010 C   0  0  0  0  0  0  0  0  0  0  0  0
  144.6020   74.5850  220.4540 C   0  0  0  0  0  0  0  0  0  0  0  0
  143.9020   74.5860  219.1220 C   0  0  2  0  0  0  0  0  0  0  0  0
  143.2150   75.8570  218.9210 C   0  0  0  0  0  0  0  0  0  0  0  0
  142.7860   76.3330  217.7140 N   0  0  0  0  0  0  0  0  0  0  0  0
  142.1580   77.5080  217.8710 C   0  0  0  0  0  0  0  0  0  0  0  0
  142.1810   77.7990  219.2150 C   0  0  0  0  0  0  0  0  0  0  0  0
  142.8210   76.7940  219.8340 N   0  0  0  0  0  0  0  0  0  0  0  0
  140.3000   76.7750  222.1200 C   0  0  0  0  0  0  0  0  0  0  0  0
  139.1150   77.3130  222.5570 C   0  0  0  0  0  0  0  0  0  0  0  0
  139.1490   78.5990  223.1040 C   0  0  0  0  0  0  0  0  0  0  0  0
  140.3530   79.3010  223.1960 C   0  0  0  0  0  0  0  0  0  0  0  0
  140.4250   80.5680  223.7270 C   0  0  0  0  0  0  0  0  0  0  0  0
  141.6350   81.2580  223.8140 C   0  0  0  0  0  0  0  0  0  0  0  0
  142.7820   80.6380  223.3480 C   0  0  0  0  0  0  0  0  0  0  0  0
  142.7250   79.3690  222.8140 C   0  0  0  0  0  0  0  0  0  0  0  0
  141.5170   78.7110  222.7400 C   0  0  0  0  0  0  0  0  0  0  0  0
  141.4460   77.4730  222.2200 N   0  0  0  0  0  0  0  0  0  0  0  0
  140.7140   76.0920  219.6110 H   0  0  0  0  0  0  0  0  0  0  0  0
  140.0693   73.2384  220.2416 H   0  0  0  0  0  0  0  0  0  0  0  0
  139.9330   74.1971  218.5891 H   0  0  0  0  0  0  0  0  0  0  0  0
  143.5458   71.4653  219.9674 H   0  0  0  0  0  0  0  0  0  0  0  0
  144.7704   72.1467  218.9481 H   0  0  0  0  0  0  0  0  0  0  0  0
  143.8690   73.0342  221.7609 H   0  0  0  0  0  0  0  0  0  0  0  0
  145.5211   72.7676  221.2329 H   0  0  0  0  0  0  0  0  0  0  0  0
  144.0799   75.2374  221.1693 H   0  0  0  0  0  0  0  0  0  0  0  0
  145.6323   74.9646  220.3881 H   0  0  0  0  0  0  0  0  0  0  0  0
  144.5580   74.5059  218.2426 H   0  0  0  0  0  0  0  0  0  0  0  0
  141.7099   78.1220  217.0759 H   0  0  0  0  0  0  0  0  0  0  0  0
  141.7534   78.6916  219.6949 H   0  0  0  0  0  0  0  0  0  0  0  0
  142.9770   76.7540  220.8780 H   0  0  0  0  0  0  0  0  0  0  0  0
  138.1720   76.7519  222.4795 H   0  0  0  0  0  0  0  0  0  0  0  0
  138.2190   79.0623  223.4653 H   0  0  0  0  0  0  0  0  0  0  0  0
  139.5058   81.0494  224.0922 H   0  0  0  0  0  0  0  0  0  0  0  0
  141.6765   82.2702  224.2425 H   0  0  0  0  0  0  0  0  0  0  0  0
  143.7470   81.1630  223.4046 H   0  0  0  0  0  0  0  0  0  0  0  0
  143.6413   78.8829  222.4479 H   0  0  0  0  0  0  0  0  0  0  0  0
  1  2  2  0
  2  3  1  0
  3  4  1  0
  4  5  1  0
  5  6  2  0
  5  7  1  0
  7  8  1  0
  8  9  1  0
  9 10  1  0
 10 11  1  0
 11 12  1  0
 12 13  2  0
 13 14  1  0
 14 15  2  0
 15 16  1  0
  2 17  1  0
 17 18  2  0
 18 19  1  0
 19 20  2  0
 20 21  1  0
 21 22  2  0
 22 23  1  0
 23 24  2  0
 24 25  1  0
 25 26  2  0
 11  7  1  0
 16 12  1  0
 26 17  1  0
 25 20  1  0
  3 27  1  0
  4 28  1  0
  4 29  1  0
  8 30  1  0
  8 31  1  0
  9 32  1  0
  9 33  1  0
 10 34  1  0
 10 35  1  0
 11 36  1  6
 14 37  1  0
 15 38  1  0
 16 39  1  0
 18 40  1  0
 19 41  1  0
 21 42  1  0
 22 43  1  0
 23 44  1  0
 24 45  1  0
M  END
>  <smiles>  (50) 
O=C(NCC(=O)N1CCC[C@@H]1c1ncc[nH]1)c1ccc2ccccc2n1

>  <score_type>  (50) 
oracle

>  <origin>  (50) 
autodockgpu

>  <m_score__min__energy>  (50) 
-7.8600000000000003

>  <m_primary>  (50) 
energy

>  <rmsd>  (50) 
7.141012729081047

>  <m_score__min__rmsd>  (50) 
7.141012729081047

>  <meeko>  (50) 
{"free_energy": -6.6, "intermolecular_energy": -8.09, "internal_energy": -2.67, "cluster_size": 17, "cluster_id": 3, "rank_in_cluster": 15}

>  <energy>  (50) 
-6.21

>  <cluster_rmsd>  (50) 
0.0

>  <cluster>  (50) 
7

$$$$
