
     RDKit          3D

 54 57  0  0  0  0  0  0  0  0999 V2000
  140.8050   71.4220  221.3430 O   0  0  0  0  0  0  0  0  0  0  0  0
  140.3920   72.0000  222.3900 C   0  0  0  0  0  0  0  0  0  0  0  0
  140.0940   73.3880  222.2580 N   0  0  0  0  0  0  0  0  0  0  0  0
  140.2950   73.9790  220.9500 C   0  0  0  0  0  0  0  0  0  0  0  0
  141.0070   75.2730  221.1420 C   0  0  0  0  0  0  0  0  0  0  0  0
  141.1310   75.6690  222.3320 O   0  0  0  0  0  0  0  0  0  0  0  0
  141.5240   76.0290  220.0280 N   0  0  0  0  0  0  0  0  0  0  0  0
  140.5670   76.8420  219.3090 C   0  0  0  0  0  0  0  0  0  0  0  0
  140.9750   76.9450  217.8680 C   0  0  0  0  0  0  0  0  0  0  0  0
  142.4380   77.3360  217.7270 C   0  0  0  0  0  0  0  0  0  0  0  0
  143.3180   76.3110  218.3600 C   0  0  0  0  0  0  0  0  0  0  0  0
  142.9100   75.9100  219.7440 C   0  0  2  0  0  0  0  0  0  0  0  0
  143.4640   74.5560  220.0000 C   0  0  0  0  0  0  0  0  0  0  0  0
  144.5540   74.3410  220.8320 C   0  0  0  0  0  0  0  0  0  0  0  0
  145.0350   73.0440  221.0400 C   0  0  0  0  0  0  0  0  0  0  0  0
  144.4510   71.9510  220.4310 C   0  0  0  0  0  0  0  0  0  0  0  0
  143.3680   72.1630  219.6030 C   0  0  0  0  0  0  0  0  0  0  0  0
  142.6720   71.0510  218.9030 C   0  0  0  0  0  0  0  0  0  0  0  0
  142.5480   69.9460  219.7040 F   0  0  0  0  0  0  0  0  0  0  0  0
  141.3710   71.4840  218.6120 F   0  0  0  0  0  0  0  0  0  0  0  0
  143.2450   70.7610  217.6800 F   0  0  0  0  0  0  0  0  0  0  0  0
  142.8970   73.4360  219.4010 C   0  0  0  0  0  0  0  0  0  0  0  0
  140.2260   71.3010  223.6630 C   0  0  0  0  0  0  0  0  0  0  0  0
  139.5800   70.0770  223.6290 C   0  0  0  0  0  0  0  0  0  0  0  0
  139.3780   69.3420  224.7930 C   0  0  0  0  0  0  0  0  0  0  0  0
  139.8600   69.9140  225.9640 C   0  0  0  0  0  0  0  0  0  0  0  0
  139.6920   69.2340  227.1570 C   0  0  0  0  0  0  0  0  0  0  0  0
  140.1640   69.7810  228.3460 C   0  0  0  0  0  0  0  0  0  0  0  0
  140.7970   71.0040  228.3070 C   0  0  0  0  0  0  0  0  0  0  0  0
  140.9820   71.7120  227.1220 C   0  0  0  0  0  0  0  0  0  0  0  0
  140.4950   71.1330  225.9460 C   0  0  0  0  0  0  0  0  0  0  0  0
  140.6870   71.8420  224.8050 N   0  0  0  0  0  0  0  0  0  0  0  0
  139.7450   73.9420  223.0830 H   0  0  0  0  0  0  0  0  0  0  0  0
  140.9011   73.3071  220.3245 H   0  0  0  0  0  0  0  0  0  0  0  0
  139.3296   74.1413  220.4482 H   0  0  0  0  0  0  0  0  0  0  0  0
  139.5711   76.3797  219.3753 H   0  0  0  0  0  0  0  0  0  0  0  0
  140.5364   77.8481  219.7526 H   0  0  0  0  0  0  0  0  0  0  0  0
  140.8174   75.9709  217.3818 H   0  0  0  0  0  0  0  0  0  0  0  0
  140.3629   77.7252  217.3920 H   0  0  0  0  0  0  0  0  0  0  0  0
  142.6890   77.4185  216.6592 H   0  0  0  0  0  0  0  0  0  0  0  0
  142.5977   78.3008  218.2307 H   0  0  0  0  0  0  0  0  0  0  0  0
  143.3097   75.4124  217.7257 H   0  0  0  0  0  0  0  0  0  0  0  0
  144.3152   76.7669  218.4481 H   0  0  0  0  0  0  0  0  0  0  0  0
  143.3365   76.6323  220.4556 H   0  0  0  0  0  0  0  0  0  0  0  0
  145.0409   75.1929  221.3292 H   0  0  0  0  0  0  0  0  0  0  0  0
  145.8985   72.8913  221.7041 H   0  0  0  0  0  0  0  0  0  0  0  0
  144.8397   70.9362  220.6018 H   0  0  0  0  0  0  0  0  0  0  0  0
  142.0324   73.5770  218.7357 H   0  0  0  0  0  0  0  0  0  0  0  0
  139.2213   69.6799  222.6680 H   0  0  0  0  0  0  0  0  0  0  0  0
  138.8678   68.3675  224.7866 H   0  0  0  0  0  0  0  0  0  0  0  0
  139.1840   68.2584  227.1655 H   0  0  0  0  0  0  0  0  0  0  0  0
  140.0342   69.2472  229.2990 H   0  0  0  0  0  0  0  0  0  0  0  0
  141.1701   71.4374  229.2466 H   0  0  0  0  0  0  0  0  0  0  0  0
  141.4907   72.6873  227.1116 H   0  0  0  0  0  0  0  0  0  0  0  0
  1  2  2  0
  2  3  1  0
  3  4  1  0
  4  5  1  0
  5  6  2  0
  5  7  1  0
  7  8  1  0
  8  9  1  0
  9 10  1  0
 10 11  1  0
 11 12  1  0
 12 13  1  0
 13 14  2  0
 14 15  1  0
 15 16  2  0
 16 17  1  0
 17 18  1  0
 18 19  1  0
 18 20  1  0
 18 21  1  0
 17 22  2  0
  2 23  1  0
 23 24  2  0
 24 25  1  0
 25 26  2  0
 26 27  1  0
 27 28  2  0
 28 29  1  0
 29 30  2  0
 30 31  1  0
 31 32  2  0
 12  7  1  0
 22 13  1  0
 32 23  1  0
 31 26  1  0
  3 33  1  0
  4 34  1  0
  4 35  1  0
  8 36  1  0
  8 37  1  0
  9 38  1  0
  9 39  1  0
 10 40  1  0
 10 41  1  0
 11 42  1  0
 11 43  1  0
 12 44  1  1
 14 45  1  0
 15 46  1  0
 16 47  1  0
 22 48  1  0
 24 49  1  0
 25 50  1  0
 27 51  1  0
 28 52  1  0
 29 53  1  0
 30 54  1  0
M  END
>  <smiles>  (1) 
O=C(NCC(=O)N1CCCCC1c1cccc(C(F)(F)F)c1)c1ccc2ccccc2n1

>  <score_type>  (1) 
oracle

>  <origin>  (1) 
autodockgpu

>  <m_score__min__energy>  (1) 
-9.1799999999999997

>  <m_primary>  (1) 
energy

>  <rmsd>  (1) 
1.950801419939684

>  <m_score__min__rmsd>  (1) 
1.950801419939684

>  <meeko>  (1) 
{"free_energy": -7.91, "intermolecular_energy": -9.7, "internal_energy": -2.43, "cluster_size": 12, "cluster_id": 3, "rank_in_cluster": 4}

>  <energy>  (1) 
-9.18

>  <cluster_rmsd>  (1) 
0.0

>  <cluster>  (1) 
1

$$$$

     RDKit          3D

 54 57  0  0  0  0  0  0  0  0999 V2000
  141.2770   72.0900  221.7880 O   0  0  0  0  0  0  0  0  0  0  0  0
  140.2910   72.2910  222.5570 C   0  0  0  0  0  0  0  0  0  0  0  0
  139.3890   73.3190  222.1550 N   0  0  0  0  0  0  0  0  0  0  0  0
  139.6970   74.0150  220.9210 C   0  0  0  0  0  0  0  0  0  0  0  0
  138.9800   75.3200  220.9470 C   0  0  0  0  0  0  0  0  0  0  0  0
  137.9980   75.4320  220.1660 O   0  0  0  0  0  0  0  0  0  0  0  0
  139.3890   76.3950  221.8180 N   0  0  0  0  0  0  0  0  0  0  0  0
  138.3230   77.1450  222.4470 C   0  0  0  0  0  0  0  0  0  0  0  0
  138.7670   78.5630  222.6660 C   0  0  0  0  0  0  0  0  0  0  0  0
  140.1300   78.6260  223.3380 C   0  0  0  0  0  0  0  0  0  0  0  0
  141.1640   77.9690  222.4880 C   0  0  0  0  0  0  0  0  0  0  0  0
  140.7820   76.6140  221.9790 C   0  0  2  0  0  0  0  0  0  0  0  0
  141.5790   76.3540  220.7530 C   0  0  0  0  0  0  0  0  0  0  0  0
  141.4740   77.1390  219.6140 C   0  0  0  0  0  0  0  0  0  0  0  0
  142.2480   76.8500  218.4860 C   0  0  0  0  0  0  0  0  0  0  0  0
  143.1290   75.7870  218.4680 C   0  0  0  0  0  0  0  0  0  0  0  0
  143.2360   75.0050  219.6000 C   0  0  0  0  0  0  0  0  0  0  0  0
  144.1560   73.8390  219.6780 C   0  0  0  0  0  0  0  0  0  0  0  0
  145.1610   74.0460  220.5860 F   0  0  0  0  0  0  0  0  0  0  0  0
  143.4130   72.7460  220.1430 F   0  0  0  0  0  0  0  0  0  0  0  0
  144.6290   73.4610  218.4360 F   0  0  0  0  0  0  0  0  0  0  0  0
  142.4750   75.2900  220.7060 C   0  0  0  0  0  0  0  0  0  0  0  0
  140.0800   71.5240  223.7830 C   0  0  0  0  0  0  0  0  0  0  0  0
  139.2400   70.4270  223.7020 C   0  0  0  0  0  0  0  0  0  0  0  0
  138.9810   69.6400  224.8190 C   0  0  0  0  0  0  0  0  0  0  0  0
  139.6130   70.0280  225.9950 C   0  0  0  0  0  0  0  0  0  0  0  0
  139.3980   69.2870  227.1440 C   0  0  0  0  0  0  0  0  0  0  0  0
  140.0160   69.6510  228.3360 C   0  0  0  0  0  0  0  0  0  0  0  0
  140.8400   70.7560  228.3450 C   0  0  0  0  0  0  0  0  0  0  0  0
  141.0760   71.5200  227.2050 C   0  0  0  0  0  0  0  0  0  0  0  0
  140.4380   71.1260  226.0240 C   0  0  0  0  0  0  0  0  0  0  0  0
  140.6840   71.8880  224.9280 N   0  0  0  0  0  0  0  0  0  0  0  0
  138.5440   73.5480  222.7410 H   0  0  0  0  0  0  0  0  0  0  0  0
  140.7813   74.1846  220.8470 H   0  0  0  0  0  0  0  0  0  0  0  0
  139.3807   73.4185  220.0526 H   0  0  0  0  0  0  0  0  0  0  0  0
  137.4355   77.1353  221.7972 H   0  0  0  0  0  0  0  0  0  0  0  0
  138.0749   76.6858  223.4153 H   0  0  0  0  0  0  0  0  0  0  0  0
  138.8248   79.0732  221.6932 H   0  0  0  0  0  0  0  0  0  0  0  0
  138.0358   79.0544  223.3247 H   0  0  0  0  0  0  0  0  0  0  0  0
  140.4071   79.6788  223.4959 H   0  0  0  0  0  0  0  0  0  0  0  0
  140.0754   78.0988  224.3019 H   0  0  0  0  0  0  0  0  0  0  0  0
  141.3597   78.6184  221.6220 H   0  0  0  0  0  0  0  0  0  0  0  0
  142.0477   77.8247  223.1270 H   0  0  0  0  0  0  0  0  0  0  0  0
  141.0269   75.8708  222.7521 H   0  0  0  0  0  0  0  0  0  0  0  0
  140.7794   77.9918  219.5982 H   0  0  0  0  0  0  0  0  0  0  0  0
  142.1529   77.4842  217.5922 H   0  0  0  0  0  0  0  0  0  0  0  0
  143.7307   75.5689  217.5734 H   0  0  0  0  0  0  0  0  0  0  0  0
  142.5777   74.6494  221.5943 H   0  0  0  0  0  0  0  0  0  0  0  0
  138.7704   70.1739  222.7400 H   0  0  0  0  0  0  0  0  0  0  0  0
  138.3168   68.7643  224.7748 H   0  0  0  0  0  0  0  0  0  0  0  0
  138.7370   68.4083  227.1146 H   0  0  0  0  0  0  0  0  0  0  0  0
  139.8503   69.0680  229.2540 H   0  0  0  0  0  0  0  0  0  0  0  0
  141.3289   71.0448  229.2871 H   0  0  0  0  0  0  0  0  0  0  0  0
  141.7377   72.3983  227.2320 H   0  0  0  0  0  0  0  0  0  0  0  0
  1  2  2  0
  2  3  1  0
  3  4  1  0
  4  5  1  0
  5  6  2  0
  5  7  1  0
  7  8  1  0
  8  9  1  0
  9 10  1  0
 10 11  1  0
 11 12  1  0
 12 13  1  0
 13 14  2  0
 14 15  1  0
 15 16  2  0
 16 17  1  0
 17 18  1  0
 18 19  1  0
 18 20  1  0
 18 21  1  0
 17 22  2  0
  2 23  1  0
 23 24  2  0
 24 25  1  0
 25 26  2  0
 26 27  1  0
 27 28  2  0
 28 29  1  0
 29 30  2  0
 30 31  1  0
 31 32  2  0
 12  7  1  0
 22 13  1  0
 32 23  1  0
 31 26  1  0
  3 33  1  0
  4 34  1  0
  4 35  1  0
  8 36  1  0
  8 37  1  0
  9 38  1  0
  9 39  1  0
 10 40  1  0
 10 41  1  0
 11 42  1  0
 11 43  1  0
 12 44  1  1
 14 45  1  0
 15 46  1  0
 16 47  1  0
 22 48  1  0
 24 49  1  0
 25 50  1  0
 27 51  1  0
 28 52  1  0
 29 53  1  0
 30 54  1  0
M  END
>  <smiles>  (2) 
O=C(NCC(=O)N1CCCCC1c1cccc(C(F)(F)F)c1)c1ccc2ccccc2n1

>  <score_type>  (2) 
oracle

>  <origin>  (2) 
autodockgpu

>  <m_score__min__energy>  (2) 
-9.1799999999999997

>  <m_primary>  (2) 
energy

>  <rmsd>  (2) 
2.9897469797659113

>  <m_score__min__rmsd>  (2) 
2.9897469797659113

>  <meeko>  (2) 
{"free_energy": -8.19, "intermolecular_energy": -9.98, "internal_energy": -1.6, "cluster_size": 12, "cluster_id": 3, "rank_in_cluster": 2}

>  <energy>  (2) 
-9.18

>  <cluster_rmsd>  (2) 
0.27

>  <cluster>  (2) 
1

$$$$

     RDKit          3D

 54 57  0  0  0  0  0  0  0  0999 V2000
  140.4030   71.6900  221.1830 O   0  0  0  0  0  0  0  0  0  0  0  0
  140.1110   72.1840  222.3110 C   0  0  0  0  0  0  0  0  0  0  0  0
  139.8200   73.5800  222.3220 N   0  0  0  0  0  0  0  0  0  0  0  0
  139.8900   74.2730  221.0510 C   0  0  0  0  0  0  0  0  0  0  0  0
  140.6000   75.5620  221.2760 C   0  0  0  0  0  0  0  0  0  0  0  0
  140.5460   76.0310  222.4450 O   0  0  0  0  0  0  0  0  0  0  0  0
  141.3110   76.2340  220.2170 N   0  0  0  0  0  0  0  0  0  0  0  0
  142.1950   75.4100  219.4200 C   0  0  0  0  0  0  0  0  0  0  0  0
  143.3480   76.2370  218.9290 C   0  0  0  0  0  0  0  0  0  0  0  0
  142.8760   77.5370  218.2960 C   0  0  0  0  0  0  0  0  0  0  0  0
  142.1340   78.3650  219.2900 C   0  0  0  0  0  0  0  0  0  0  0  0
  141.0800   77.6250  220.0520 C   0  0  2  0  0  0  0  0  0  0  0  0
  140.8540   78.3540  221.3270 C   0  0  0  0  0  0  0  0  0  0  0  0
  141.8860   78.6770  222.1950 C   0  0  0  0  0  0  0  0  0  0  0  0
  141.6180   79.3640  223.3830 C   0  0  0  0  0  0  0  0  0  0  0  0
  140.3340   79.7380  223.7270 C   0  0  0  0  0  0  0  0  0  0  0  0
  139.3050   79.4170  222.8650 C   0  0  0  0  0  0  0  0  0  0  0  0
  137.8900   79.7760  223.1460 C   0  0  0  0  0  0  0  0  0  0  0  0
  137.0620   78.6890  223.0480 F   0  0  0  0  0  0  0  0  0  0  0  0
  137.8220   80.2140  224.4760 F   0  0  0  0  0  0  0  0  0  0  0  0
  137.4580   80.8450  222.3850 F   0  0  0  0  0  0  0  0  0  0  0  0
  139.5710   78.7430  221.6990 C   0  0  0  0  0  0  0  0  0  0  0  0
  140.0700   71.3850  223.5340 C   0  0  0  0  0  0  0  0  0  0  0  0
  139.5320   70.1140  223.4380 C   0  0  0  0  0  0  0  0  0  0  0  0
  139.4530   69.2840  224.5520 C   0  0  0  0  0  0  0  0  0  0  0  0
  139.9420   69.8140  225.7400 C   0  0  0  0  0  0  0  0  0  0  0  0
  139.8940   69.0400  226.8860 C   0  0  0  0  0  0  0  0  0  0  0  0
  140.3760   69.5430  228.0900 C   0  0  0  0  0  0  0  0  0  0  0  0
  140.8980   70.8180  228.1140 C   0  0  0  0  0  0  0  0  0  0  0  0
  140.9610   71.6210  226.9780 C   0  0  0  0  0  0  0  0  0  0  0  0
  140.4670   71.0830  225.7840 C   0  0  0  0  0  0  0  0  0  0  0  0
  140.5400   71.8850  224.6910 N   0  0  0  0  0  0  0  0  0  0  0  0
  139.5680   74.0670  223.2210 H   0  0  0  0  0  0  0  0  0  0  0  0
  140.4433   73.6630  220.3218 H   0  0  0  0  0  0  0  0  0  0  0  0
  138.8798   74.4539  220.6550 H   0  0  0  0  0  0  0  0  0  0  0  0
  142.5749   74.5803  220.0342 H   0  0  0  0  0  0  0  0  0  0  0  0
  141.6415   75.0073  218.5589 H   0  0  0  0  0  0  0  0  0  0  0  0
  144.0059   76.4721  219.7786 H   0  0  0  0  0  0  0  0  0  0  0  0
  143.8856   75.6575  218.1640 H   0  0  0  0  0  0  0  0  0  0  0  0
  143.7486   78.1011  217.9349 H   0  0  0  0  0  0  0  0  0  0  0  0
  142.2032   77.3002  217.4586 H   0  0  0  0  0  0  0  0  0  0  0  0
  142.8600   78.7681  220.0114 H   0  0  0  0  0  0  0  0  0  0  0  0
  141.6145   79.1482  218.7185 H   0  0  0  0  0  0  0  0  0  0  0  0
  140.1579   77.6182  219.4523 H   0  0  0  0  0  0  0  0  0  0  0  0
  142.9193   78.3917  221.9481 H   0  0  0  0  0  0  0  0  0  0  0  0
  142.4493   79.6123  224.0593 H   0  0  0  0  0  0  0  0  0  0  0  0
  140.1362   80.2782  224.6646 H   0  0  0  0  0  0  0  0  0  0  0  0
  138.7329   78.4998  221.0294 H   0  0  0  0  0  0  0  0  0  0  0  0
  139.1613   69.7543  222.4668 H   0  0  0  0  0  0  0  0  0  0  0  0
  139.0294   68.2704  224.4958 H   0  0  0  0  0  0  0  0  0  0  0  0
  139.4736   68.0243  226.8448 H   0  0  0  0  0  0  0  0  0  0  0  0
  140.3411   68.9344  229.0056 H   0  0  0  0  0  0  0  0  0  0  0  0
  141.2791   71.2164  229.0659 H   0  0  0  0  0  0  0  0  0  0  0  0
  141.3818   72.6366  227.0174 H   0  0  0  0  0  0  0  0  0  0  0  0
  1  2  2  0
  2  3  1  0
  3  4  1  0
  4  5  1  0
  5  6  2  0
  5  7  1  0
  7  8  1  0
  8  9  1  0
  9 10  1  0
 10 11  1  0
 11 12  1  0
 12 13  1  0
 13 14  2  0
 14 15  1  0
 15 16  2  0
 16 17  1  0
 17 18  1  0
 18 19  1  0
 18 20  1  0
 18 21  1  0
 17 22  2  0
  2 23  1  0
 23 24  2  0
 24 25  1  0
 25 26  2  0
 26 27  1  0
 27 28  2  0
 28 29  1  0
 29 30  2  0
 30 31  1  0
 31 32  2  0
 12  7  1  0
 22 13  1  0
 32 23  1  0
 31 26  1  0
  3 33  1  0
  4 34  1  0
  4 35  1  0
  8 36  1  0
  8 37  1  0
  9 38  1  0
  9 39  1  0
 10 40  1  0
 10 41  1  0
 11 42  1  0
 11 43  1  0
 12 44  1  6
 14 45  1  0
 15 46  1  0
 16 47  1  0
 22 48  1  0
 24 49  1  0
 25 50  1  0
 27 51  1  0
 28 52  1  0
 29 53  1  0
 30 54  1  0
M  END
>  <smiles>  (3) 
O=C(NCC(=O)N1CCCCC1c1cccc(C(F)(F)F)c1)c1ccc2ccccc2n1

>  <score_type>  (3) 
oracle

>  <origin>  (3) 
autodockgpu

>  <m_score__min__energy>  (3) 
-9.1799999999999997

>  <m_primary>  (3) 
energy

>  <rmsd>  (3) 
1.9646208293415293

>  <m_score__min__rmsd>  (3) 
1.9646208293415293

>  <meeko>  (3) 
{"free_energy": -8.81, "intermolecular_energy": -10.6, "internal_energy": -1.75, "cluster_size": 35, "cluster_id": 1, "rank_in_cluster": 28}

>  <energy>  (3) 
-9.18

>  <cluster_rmsd>  (3) 
0.36

>  <cluster>  (3) 
1

$$$$

     RDKit          3D

 54 57  0  0  0  0  0  0  0  0999 V2000
  139.8730   71.0610  221.4090 O   0  0  0  0  0  0  0  0  0  0  0  0
  139.8430   71.5970  222.5560 C   0  0  0  0  0  0  0  0  0  0  0  0
  139.8030   73.0220  222.5760 N   0  0  0  0  0  0  0  0  0  0  0  0
  139.8020   73.6950  221.2920 C   0  0  0  0  0  0  0  0  0  0  0  0
  140.5370   74.9800  221.4540 C   0  0  0  0  0  0  0  0  0  0  0  0
  140.3360   75.6040  222.5300 O   0  0  0  0  0  0  0  0  0  0  0  0
  141.4280   75.4790  220.4360 N   0  0  0  0  0  0  0  0  0  0  0  0
  142.5160   74.6040  220.0570 C   0  0  0  0  0  0  0  0  0  0  0  0
  143.7000   75.4260  219.6340 C   0  0  0  0  0  0  0  0  0  0  0  0
  143.3070   76.4970  218.6280 C   0  0  0  0  0  0  0  0  0  0  0  0
  142.3110   77.4350  219.2220 C   0  0  0  0  0  0  0  0  0  0  0  0
  141.1570   76.7670  219.9030 C   0  0  2  0  0  0  0  0  0  0  0  0
  140.6050   77.7260  220.8940 C   0  0  0  0  0  0  0  0  0  0  0  0
  139.2540   77.7860  221.2020 C   0  0  0  0  0  0  0  0  0  0  0  0
  138.7870   78.7090  222.1440 C   0  0  0  0  0  0  0  0  0  0  0  0
  139.6440   79.5780  222.7890 C   0  0  0  0  0  0  0  0  0  0  0  0
  140.9890   79.5200  222.4850 C   0  0  0  0  0  0  0  0  0  0  0  0
  141.9890   80.4140  223.1260 C   0  0  0  0  0  0  0  0  0  0  0  0
  142.5470   81.2800  222.2220 F   0  0  0  0  0  0  0  0  0  0  0  0
  141.3110   81.1990  224.0680 F   0  0  0  0  0  0  0  0  0  0  0  0
  142.9360   79.7110  223.8450 F   0  0  0  0  0  0  0  0  0  0  0  0
  141.4450   78.6140  221.5600 C   0  0  0  0  0  0  0  0  0  0  0  0
  139.8480   70.8140  223.7910 C   0  0  0  0  0  0  0  0  0  0  0  0
  139.3020   69.5440  223.7330 C   0  0  0  0  0  0  0  0  0  0  0  0
  139.2640   68.7290  224.8600 C   0  0  0  0  0  0  0  0  0  0  0  0
  139.8010   69.2730  226.0200 C   0  0  0  0  0  0  0  0  0  0  0  0
  139.7960   68.5150  227.1780 C   0  0  0  0  0  0  0  0  0  0  0  0
  140.3260   69.0320  228.3560 C   0  0  0  0  0  0  0  0  0  0  0  0
  140.8520   70.3050  228.3420 C   0  0  0  0  0  0  0  0  0  0  0  0
  140.8730   71.0920  227.1930 C   0  0  0  0  0  0  0  0  0  0  0  0
  140.3320   70.5410  226.0270 C   0  0  0  0  0  0  0  0  0  0  0  0
  140.3640   71.3280  224.9220 N   0  0  0  0  0  0  0  0  0  0  0  0
  139.7770   73.5430  223.4910 H   0  0  0  0  0  0  0  0  0  0  0  0
  140.3041   73.0684  220.5402 H   0  0  0  0  0  0  0  0  0  0  0  0
  138.7715   73.8804  220.9549 H   0  0  0  0  0  0  0  0  0  0  0  0
  142.7952   73.9744  220.9147 H   0  0  0  0  0  0  0  0  0  0  0  0
  142.1967   73.9657  219.2200 H   0  0  0  0  0  0  0  0  0  0  0  0
  144.1331   75.9112  220.5212 H   0  0  0  0  0  0  0  0  0  0  0  0
  144.4307   74.7567  219.1564 H   0  0  0  0  0  0  0  0  0  0  0  0
  144.2036   77.0615  218.3322 H   0  0  0  0  0  0  0  0  0  0  0  0
  142.8566   76.0108  217.7501 H   0  0  0  0  0  0  0  0  0  0  0  0
  142.8293   78.0631  219.9615 H   0  0  0  0  0  0  0  0  0  0  0  0
  141.8889   78.0128  218.3865 H   0  0  0  0  0  0  0  0  0  0  0  0
  140.3961   76.5288  219.1451 H   0  0  0  0  0  0  0  0  0  0  0  0
  138.5474   77.1057  220.7040 H   0  0  0  0  0  0  0  0  0  0  0  0
  137.7123   78.7430  222.3760 H   0  0  0  0  0  0  0  0  0  0  0  0
  139.2641   80.2993  223.5275 H   0  0  0  0  0  0  0  0  0  0  0  0
  142.5215   78.5886  221.3352 H   0  0  0  0  0  0  0  0  0  0  0  0
  138.8920   69.1733  222.7820 H   0  0  0  0  0  0  0  0  0  0  0  0
  138.8352   67.7163  224.8341 H   0  0  0  0  0  0  0  0  0  0  0  0
  139.3715   67.5003  227.1670 H   0  0  0  0  0  0  0  0  0  0  0  0
  140.3250   68.4358  229.2804 H   0  0  0  0  0  0  0  0  0  0  0  0
  141.2710   70.7152  229.2727 H   0  0  0  0  0  0  0  0  0  0  0  0
  141.2982   72.1065  227.2023 H   0  0  0  0  0  0  0  0  0  0  0  0
  1  2  2  0
  2  3  1  0
  3  4  1  0
  4  5  1  0
  5  6  2  0
  5  7  1  0
  7  8  1  0
  8  9  1  0
  9 10  1  0
 10 11  1  0
 11 12  1  0
 12 13  1  0
 13 14  2  0
 14 15  1  0
 15 16  2  0
 16 17  1  0
 17 18  1  0
 18 19  1  0
 18 20  1  0
 18 21  1  0
 17 22  2  0
  2 23  1  0
 23 24  2  0
 24 25  1  0
 25 26  2  0
 26 27  1  0
 27 28  2  0
 28 29  1  0
 29 30  2  0
 30 31  1  0
 31 32  2  0
 12  7  1  0
 22 13  1  0
 32 23  1  0
 31 26  1  0
  3 33  1  0
  4 34  1  0
  4 35  1  0
  8 36  1  0
  8 37  1  0
  9 38  1  0
  9 39  1  0
 10 40  1  0
 10 41  1  0
 11 42  1  0
 11 43  1  0
 12 44  1  6
 14 45  1  0
 15 46  1  0
 16 47  1  0
 22 48  1  0
 24 49  1  0
 25 50  1  0
 27 51  1  0
 28 52  1  0
 29 53  1  0
 30 54  1  0
M  END
>  <smiles>  (4) 
O=C(NCC(=O)N1CCCCC1c1cccc(C(F)(F)F)c1)c1ccc2ccccc2n1

>  <score_type>  (4) 
oracle

>  <origin>  (4) 
autodockgpu

>  <m_score__min__energy>  (4) 
-9.1799999999999997

>  <m_primary>  (4) 
energy

>  <rmsd>  (4) 
1.9857229606683358

>  <m_score__min__rmsd>  (4) 
1.9857229606683358

>  <meeko>  (4) 
{"free_energy": -8.72, "intermolecular_energy": -10.51, "internal_energy": -1.77, "cluster_size": 35, "cluster_id": 1, "rank_in_cluster": 33}

>  <energy>  (4) 
-9.14

>  <cluster_rmsd>  (4) 
0.28

>  <cluster>  (4) 
1

$$$$

     RDKit          3D

 54 57  0  0  0  0  0  0  0  0999 V2000
  140.6090   71.8010  221.1210 O   0  0  0  0  0  0  0  0  0  0  0  0
  140.2190   72.2870  222.2230 C   0  0  0  0  0  0  0  0  0  0  0  0
  139.9040   73.6770  222.2120 N   0  0  0  0  0  0  0  0  0  0  0  0
  140.0640   74.3750  220.9520 C   0  0  0  0  0  0  0  0  0  0  0  0
  140.8390   75.6180  221.2170 C   0  0  0  0  0  0  0  0  0  0  0  0
  141.0940   75.8690  222.4250 O   0  0  0  0  0  0  0  0  0  0  0  0
  141.2750   76.4850  220.1500 N   0  0  0  0  0  0  0  0  0  0  0  0
  140.3080   77.4550  219.6820 C   0  0  0  0  0  0  0  0  0  0  0  0
  140.5360   77.7310  218.2240 C   0  0  0  0  0  0  0  0  0  0  0  0
  141.9980   78.0350  217.9330 C   0  0  0  0  0  0  0  0  0  0  0  0
  142.8580   76.8720  218.2990 C   0  0  0  0  0  0  0  0  0  0  0  0
  142.5970   76.3110  219.6620 C   0  0  2  0  0  0  0  0  0  0  0  0
  143.0580   74.8990  219.6620 C   0  0  0  0  0  0  0  0  0  0  0  0
  142.3200   73.8730  219.0890 C   0  0  0  0  0  0  0  0  0  0  0  0
  142.8010   72.5600  219.1160 C   0  0  0  0  0  0  0  0  0  0  0  0
  144.0090   72.2460  219.7060 C   0  0  0  0  0  0  0  0  0  0  0  0
  144.7440   73.2640  220.2770 C   0  0  0  0  0  0  0  0  0  0  0  0
  146.0560   73.0260  220.9360 C   0  0  0  0  0  0  0  0  0  0  0  0
  146.6680   71.8990  220.4540 F   0  0  0  0  0  0  0  0  0  0  0  0
  146.8910   74.1050  220.6160 F   0  0  0  0  0  0  0  0  0  0  0  0
  145.9590   73.0310  222.3140 F   0  0  0  0  0  0  0  0  0  0  0  0
  144.2700   74.5520  220.2490 C   0  0  0  0  0  0  0  0  0  0  0  0
  140.0960   71.4840  223.4380 C   0  0  0  0  0  0  0  0  0  0  0  0
  139.3970   70.2930  223.3370 C   0  0  0  0  0  0  0  0  0  0  0  0
  139.2300   69.4660  224.4430 C   0  0  0  0  0  0  0  0  0  0  0  0
  139.8010   69.9140  225.6280 C   0  0  0  0  0  0  0  0  0  0  0  0
  139.6720   69.1380  226.7660 C   0  0  0  0  0  0  0  0  0  0  0  0
  140.2330   69.5590  227.9680 C   0  0  0  0  0  0  0  0  0  0  0  0
  140.9140   70.7570  227.9960 C   0  0  0  0  0  0  0  0  0  0  0  0
  141.0620   71.5590  226.8680 C   0  0  0  0  0  0  0  0  0  0  0  0
  140.4850   71.1050  225.6770 C   0  0  0  0  0  0  0  0  0  0  0  0
  140.6430   71.9050  224.5920 N   0  0  0  0  0  0  0  0  0  0  0  0
  139.5730   74.1580  223.0890 H   0  0  0  0  0  0  0  0  0  0  0  0
  140.6085   73.7393  220.2383 H   0  0  0  0  0  0  0  0  0  0  0  0
  139.0823   74.6185  220.5197 H   0  0  0  0  0  0  0  0  0  0  0  0
  139.2923   77.0575  219.8248 H   0  0  0  0  0  0  0  0  0  0  0  0
  140.4219   78.3886  220.2525 H   0  0  0  0  0  0  0  0  0  0  0  0
  140.2323   76.8484  217.6419 H   0  0  0  0  0  0  0  0  0  0  0  0
  139.9393   78.6114  217.9433 H   0  0  0  0  0  0  0  0  0  0  0  0
  142.1164   78.2491  216.8606 H   0  0  0  0  0  0  0  0  0  0  0  0
  142.3054   78.9059  218.5305 H   0  0  0  0  0  0  0  0  0  0  0  0
  142.6889   76.0741  217.5610 H   0  0  0  0  0  0  0  0  0  0  0  0
  143.8947   77.2396  218.3055 H   0  0  0  0  0  0  0  0  0  0  0  0
  143.1732   76.8962  220.3938 H   0  0  0  0  0  0  0  0  0  0  0  0
  141.3536   74.0931  218.6120 H   0  0  0  0  0  0  0  0  0  0  0  0
  142.2031   71.7591  218.6566 H   0  0  0  0  0  0  0  0  0  0  0  0
  144.3764   71.2093  219.7204 H   0  0  0  0  0  0  0  0  0  0  0  0
  144.8759   75.3450  220.7115 H   0  0  0  0  0  0  0  0  0  0  0  0
  138.9677   69.9966  222.3686 H   0  0  0  0  0  0  0  0  0  0  0  0
  138.6796   68.5155  224.3832 H   0  0  0  0  0  0  0  0  0  0  0  0
  139.1242   68.1852  226.7206 H   0  0  0  0  0  0  0  0  0  0  0  0
  140.1349   68.9480  228.8774 H   0  0  0  0  0  0  0  0  0  0  0  0
  141.3572   71.0919  228.9454 H   0  0  0  0  0  0  0  0  0  0  0  0
  141.6106   72.5115  226.9112 H   0  0  0  0  0  0  0  0  0  0  0  0
  1  2  2  0
  2  3  1  0
  3  4  1  0
  4  5  1  0
  5  6  2  0
  5  7  1  0
  7  8  1  0
  8  9  1  0
  9 10  1  0
 10 11  1  0
 11 12  1  0
 12 13  1  0
 13 14  2  0
 14 15  1  0
 15 16  2  0
 16 17  1  0
 17 18  1  0
 18 19  1  0
 18 20  1  0
 18 21  1  0
 17 22  2  0
  2 23  1  0
 23 24  2  0
 24 25  1  0
 25 26  2  0
 26 27  1  0
 27 28  2  0
 28 29  1  0
 29 30  2  0
 30 31  1  0
 31 32  2  0
 12  7  1  0
 22 13  1  0
 32 23  1  0
 31 26  1  0
  3 33  1  0
  4 34  1  0
  4 35  1  0
  8 36  1  0
  8 37  1  0
  9 38  1  0
  9 39  1  0
 10 40  1  0
 10 41  1  0
 11 42  1  0
 11 43  1  0
 12 44  1  1
 14 45  1  0
 15 46  1  0
 16 47  1  0
 22 48  1  0
 24 49  1  0
 25 50  1  0
 27 51  1  0
 28 52  1  0
 29 53  1  0
 30 54  1  0
M  END
>  <smiles>  (5) 
O=C(NCC(=O)N1CCCCC1c1cccc(C(F)(F)F)c1)c1ccc2ccccc2n1

>  <score_type>  (5) 
oracle

>  <origin>  (5) 
autodockgpu

>  <m_score__min__energy>  (5) 
-9.1799999999999997

>  <m_primary>  (5) 
energy

>  <rmsd>  (5) 
1.922457276020243

>  <m_score__min__rmsd>  (5) 
1.922457276020243

>  <meeko>  (5) 
{"free_energy": -8.31, "intermolecular_energy": -10.1, "internal_energy": -2.05, "cluster_size": 12, "cluster_id": 3, "rank_in_cluster": 1}

>  <energy>  (5) 
-9.12

>  <cluster_rmsd>  (5) 
0.28

>  <cluster>  (5) 
1

$$$$

     RDKit          3D

 54 57  0  0  0  0  0  0  0  0999 V2000
  139.1500   72.5470  221.8860 O   0  0  0  0  0  0  0  0  0  0  0  0
  140.1890   72.0690  222.4290 C   0  0  0  0  0  0  0  0  0  0  0  0
  141.4120   72.2810  221.7260 N   0  0  0  0  0  0  0  0  0  0  0  0
  141.3310   73.0150  220.4790 C   0  0  0  0  0  0  0  0  0  0  0  0
  141.3830   74.4670  220.8040 C   0  0  0  0  0  0  0  0  0  0  0  0
  141.1410   74.7790  222.0010 O   0  0  0  0  0  0  0  0  0  0  0  0
  141.6930   75.4590  219.8050 N   0  0  0  0  0  0  0  0  0  0  0  0
  140.5640   76.0360  219.1070 C   0  0  0  0  0  0  0  0  0  0  0  0
  140.9730   76.4130  217.7120 C   0  0  0  0  0  0  0  0  0  0  0  0
  142.2600   77.2230  217.7060 C   0  0  0  0  0  0  0  0  0  0  0  0
  143.3800   76.4310  218.2930 C   0  0  0  0  0  0  0  0  0  0  0  0
  143.0620   75.7780  219.6010 C   0  0  2  0  0  0  0  0  0  0  0  0
  143.9800   74.6220  219.7610 C   0  0  0  0  0  0  0  0  0  0  0  0
  144.8320   74.4900  220.8490 C   0  0  0  0  0  0  0  0  0  0  0  0
  145.6770   73.3800  220.9510 C   0  0  0  0  0  0  0  0  0  0  0  0
  145.6920   72.3940  219.9850 C   0  0  0  0  0  0  0  0  0  0  0  0
  144.8450   72.5220  218.9030 C   0  0  0  0  0  0  0  0  0  0  0  0
  144.7890   71.5130  217.8120 C   0  0  0  0  0  0  0  0  0  0  0  0
  143.5020   71.1260  217.5460 F   0  0  0  0  0  0  0  0  0  0  0  0
  145.2740   72.1230  216.6470 F   0  0  0  0  0  0  0  0  0  0  0  0
  145.6300   70.4420  218.0450 F   0  0  0  0  0  0  0  0  0  0  0  0
  144.0170   73.6120  218.8050 C   0  0  0  0  0  0  0  0  0  0  0  0
  140.1520   71.3420  223.6960 C   0  0  0  0  0  0  0  0  0  0  0  0
  139.5890   70.0770  223.6800 C   0  0  0  0  0  0  0  0  0  0  0  0
  139.5110   69.3140  224.8400 C   0  0  0  0  0  0  0  0  0  0  0  0
  140.0270   69.9000  225.9890 C   0  0  0  0  0  0  0  0  0  0  0  0
  139.9810   69.1940  227.1780 C   0  0  0  0  0  0  0  0  0  0  0  0
  140.4890   69.7550  228.3450 C   0  0  0  0  0  0  0  0  0  0  0  0
  141.0350   71.0190  228.2890 C   0  0  0  0  0  0  0  0  0  0  0  0
  141.0960   71.7550  227.1080 C   0  0  0  0  0  0  0  0  0  0  0  0
  140.5750   71.1600  225.9540 C   0  0  0  0  0  0  0  0  0  0  0  0
  140.6470   71.8970  224.8160 N   0  0  0  0  0  0  0  0  0  0  0  0
  142.3200   71.9130  222.1110 H   0  0  0  0  0  0  0  0  0  0  0  0
  142.1775   72.7458  219.8302 H   0  0  0  0  0  0  0  0  0  0  0  0
  140.3982   72.7721  219.9490 H   0  0  0  0  0  0  0  0  0  0  0  0
  139.7465   75.3013  219.0628 H   0  0  0  0  0  0  0  0  0  0  0  0
  140.2234   76.9341  219.6430 H   0  0  0  0  0  0  0  0  0  0  0  0
  141.1257   75.4957  217.1245 H   0  0  0  0  0  0  0  0  0  0  0  0
  140.1752   77.0312  217.2746 H   0  0  0  0  0  0  0  0  0  0  0  0
  142.5123   77.4936  216.6701 H   0  0  0  0  0  0  0  0  0  0  0  0
  142.1116   78.1302  218.3101 H   0  0  0  0  0  0  0  0  0  0  0  0
  143.6573   75.6448  217.5754 H   0  0  0  0  0  0  0  0  0  0  0  0
  144.1955   77.1425  218.4897 H   0  0  0  0  0  0  0  0  0  0  0  0
  143.2336   76.5092  220.4047 H   0  0  0  0  0  0  0  0  0  0  0  0
  144.8426   75.2609  221.6336 H   0  0  0  0  0  0  0  0  0  0  0  0
  146.3447   73.2908  221.8206 H   0  0  0  0  0  0  0  0  0  0  0  0
  146.3630   71.5271  220.0755 H   0  0  0  0  0  0  0  0  0  0  0  0
  143.3529   73.6906  217.9316 H   0  0  0  0  0  0  0  0  0  0  0  0
  139.1978   69.6697  222.7360 H   0  0  0  0  0  0  0  0  0  0  0  0
  139.0676   68.3074  224.8473 H   0  0  0  0  0  0  0  0  0  0  0  0
  139.5413   68.1859  227.2005 H   0  0  0  0  0  0  0  0  0  0  0  0
  140.4555   69.2004  229.2943 H   0  0  0  0  0  0  0  0  0  0  0  0
  141.4376   71.4633  229.2112 H   0  0  0  0  0  0  0  0  0  0  0  0
  141.5359   72.7629  227.0837 H   0  0  0  0  0  0  0  0  0  0  0  0
  1  2  2  0
  2  3  1  0
  3  4  1  0
  4  5  1  0
  5  6  2  0
  5  7  1  0
  7  8  1  0
  8  9  1  0
  9 10  1  0
 10 11  1  0
 11 12  1  0
 12 13  1  0
 13 14  2  0
 14 15  1  0
 15 16  2  0
 16 17  1  0
 17 18  1  0
 18 19  1  0
 18 20  1  0
 18 21  1  0
 17 22  2  0
  2 23  1  0
 23 24  2  0
 24 25  1  0
 25 26  2  0
 26 27  1  0
 27 28  2  0
 28 29  1  0
 29 30  2  0
 30 31  1  0
 31 32  2  0
 12  7  1  0
 22 13  1  0
 32 23  1  0
 31 26  1  0
  3 33  1  0
  4 34  1  0
  4 35  1  0
  8 36  1  0
  8 37  1  0
  9 38  1  0
  9 39  1  0
 10 40  1  0
 10 41  1  0
 11 42  1  0
 11 43  1  0
 12 44  1  1
 14 45  1  0
 15 46  1  0
 16 47  1  0
 22 48  1  0
 24 49  1  0
 25 50  1  0
 27 51  1  0
 28 52  1  0
 29 53  1  0
 30 54  1  0
M  END
>  <smiles>  (6) 
O=C(NCC(=O)N1CCCCC1c1cccc(C(F)(F)F)c1)c1ccc2ccccc2n1

>  <score_type>  (6) 
oracle

>  <origin>  (6) 
autodockgpu

>  <m_score__min__energy>  (6) 
-9.1799999999999997

>  <m_primary>  (6) 
energy

>  <rmsd>  (6) 
2.1662450964419864

>  <m_score__min__rmsd>  (6) 
2.1662450964419864

>  <meeko>  (6) 
{"free_energy": -7.86, "intermolecular_energy": -9.65, "internal_energy": -1.65, "cluster_size": 12, "cluster_id": 3, "rank_in_cluster": 9}

>  <energy>  (6) 
-9.09

>  <cluster_rmsd>  (6) 
0.27

>  <cluster>  (6) 
1

$$$$

     RDKit          3D

 54 57  0  0  0  0  0  0  0  0999 V2000
  141.0810   72.1070  221.6720 O   0  0  0  0  0  0  0  0  0  0  0  0
  140.2030   72.2620  222.5710 C   0  0  0  0  0  0  0  0  0  0  0  0
  139.2590   73.3070  222.3440 N   0  0  0  0  0  0  0  0  0  0  0  0
  139.4080   74.0680  221.1200 C   0  0  0  0  0  0  0  0  0  0  0  0
  140.4060   75.1440  221.3740 C   0  0  0  0  0  0  0  0  0  0  0  0
  140.2610   75.7980  222.4410 O   0  0  0  0  0  0  0  0  0  0  0  0
  141.4790   75.4180  220.4500 N   0  0  0  0  0  0  0  0  0  0  0  0
  142.4750   74.3780  220.3020 C   0  0  0  0  0  0  0  0  0  0  0  0
  143.8050   74.9950  219.9790 C   0  0  0  0  0  0  0  0  0  0  0  0
  143.6950   75.9970  218.8400 C   0  0  0  0  0  0  0  0  0  0  0  0
  142.7730   77.1100  219.2080 C   0  0  0  0  0  0  0  0  0  0  0  0
  141.4610   76.6680  219.7770 C   0  0  2  0  0  0  0  0  0  0  0  0
  140.9270   77.7860  220.5960 C   0  0  0  0  0  0  0  0  0  0  0  0
  139.6600   78.3160  220.4020 C   0  0  0  0  0  0  0  0  0  0  0  0
  139.2070   79.3690  221.2020 C   0  0  0  0  0  0  0  0  0  0  0  0
  139.9950   79.9100  222.1980 C   0  0  0  0  0  0  0  0  0  0  0  0
  141.2560   79.3850  222.3940 C   0  0  0  0  0  0  0  0  0  0  0  0
  142.1790   79.8990  223.4400 C   0  0  0  0  0  0  0  0  0  0  0  0
  143.4370   80.1190  222.9440 F   0  0  0  0  0  0  0  0  0  0  0  0
  141.6900   81.1430  223.8600 F   0  0  0  0  0  0  0  0  0  0  0  0
  142.1840   79.1050  224.5710 F   0  0  0  0  0  0  0  0  0  0  0  0
  141.6990   78.3510  221.6070 C   0  0  0  0  0  0  0  0  0  0  0  0
  140.1490   71.4300  223.7710 C   0  0  0  0  0  0  0  0  0  0  0  0
  139.5720   70.1790  223.6440 C   0  0  0  0  0  0  0  0  0  0  0  0
  139.4780   69.3200  224.7350 C   0  0  0  0  0  0  0  0  0  0  0  0
  139.9920   69.8010  225.9320 C   0  0  0  0  0  0  0  0  0  0  0  0
  139.9300   68.9970  227.0570 C   0  0  0  0  0  0  0  0  0  0  0  0
  140.4370   69.4500  228.2700 C   0  0  0  0  0  0  0  0  0  0  0  0
  140.9960   70.7080  228.3260 C   0  0  0  0  0  0  0  0  0  0  0  0
  141.0740   71.5410  227.2120 C   0  0  0  0  0  0  0  0  0  0  0  0
  140.5550   71.0530  226.0080 C   0  0  0  0  0  0  0  0  0  0  0  0
  140.6420   71.8830  224.9380 N   0  0  0  0  0  0  0  0  0  0  0  0
  138.4970   73.5010  223.0440 H   0  0  0  0  0  0  0  0  0  0  0  0
  139.7625   73.4116  220.3116 H   0  0  0  0  0  0  0  0  0  0  0  0
  138.4437   74.5011  220.8160 H   0  0  0  0  0  0  0  0  0  0  0  0
  142.5534   73.8102  221.2409 H   0  0  0  0  0  0  0  0  0  0  0  0
  142.1785   73.7024  219.4861 H   0  0  0  0  0  0  0  0  0  0  0  0
  144.1858   75.5108  220.8728 H   0  0  0  0  0  0  0  0  0  0  0  0
  144.4899   74.1928  219.6669 H   0  0  0  0  0  0  0  0  0  0  0  0
  144.6915   76.4095  218.6237 H   0  0  0  0  0  0  0  0  0  0  0  0
  143.2953   75.4836  217.9530 H   0  0  0  0  0  0  0  0  0  0  0  0
  143.2767   77.7402  219.9557 H   0  0  0  0  0  0  0  0  0  0  0  0
  142.5441   77.6473  218.2758 H   0  0  0  0  0  0  0  0  0  0  0  0
  140.7768   76.4515  218.9434 H   0  0  0  0  0  0  0  0  0  0  0  0
  139.0092   77.9061  219.6156 H   0  0  0  0  0  0  0  0  0  0  0  0
  138.1990   79.7761  221.0339 H   0  0  0  0  0  0  0  0  0  0  0  0
  139.6268   80.7391  222.8201 H   0  0  0  0  0  0  0  0  0  0  0  0
  142.7086   77.9514  221.7832 H   0  0  0  0  0  0  0  0  0  0  0  0
  139.1819   69.8587  222.6666 H   0  0  0  0  0  0  0  0  0  0  0  0
  139.0243   68.3212  224.6541 H   0  0  0  0  0  0  0  0  0  0  0  0
  139.4781   67.9963  226.9913 H   0  0  0  0  0  0  0  0  0  0  0  0
  140.3926   68.8160  229.1678 H   0  0  0  0  0  0  0  0  0  0  0  0
  141.3954   71.0680  229.2856 H   0  0  0  0  0  0  0  0  0  0  0  0
  141.5255   72.5420  227.2765 H   0  0  0  0  0  0  0  0  0  0  0  0
  1  2  2  0
  2  3  1  0
  3  4  1  0
  4  5  1  0
  5  6  2  0
  5  7  1  0
  7  8  1  0
  8  9  1  0
  9 10  1  0
 10 11  1  0
 11 12  1  0
 12 13  1  0
 13 14  2  0
 14 15  1  0
 15 16  2  0
 16 17  1  0
 17 18  1  0
 18 19  1  0
 18 20  1  0
 18 21  1  0
 17 22  2  0
  2 23  1  0
 23 24  2  0
 24 25  1  0
 25 26  2  0
 26 27  1  0
 27 28  2  0
 28 29  1  0
 29 30  2  0
 30 31  1  0
 31 32  2  0
 12  7  1  0
 22 13  1  0
 32 23  1  0
 31 26  1  0
  3 33  1  0
  4 34  1  0
  4 35  1  0
  8 36  1  0
  8 37  1  0
  9 38  1  0
  9 39  1  0
 10 40  1  0
 10 41  1  0
 11 42  1  0
 11 43  1  0
 12 44  1  6
 14 45  1  0
 15 46  1  0
 16 47  1  0
 22 48  1  0
 24 49  1  0
 25 50  1  0
 27 51  1  0
 28 52  1  0
 29 53  1  0
 30 54  1  0
M  END
>  <smiles>  (7) 
O=C(NCC(=O)N1CCCCC1c1cccc(C(F)(F)F)c1)c1ccc2ccccc2n1

>  <score_type>  (7) 
oracle

>  <origin>  (7) 
autodockgpu

>  <m_score__min__energy>  (7) 
-9.1799999999999997

>  <m_primary>  (7) 
energy

>  <rmsd>  (7) 
2.1280583851157586

>  <m_score__min__rmsd>  (7) 
2.1280583851157586

>  <meeko>  (7) 
{"free_energy": -9.04, "intermolecular_energy": -10.83, "internal_energy": -1.65, "cluster_size": 35, "cluster_id": 1, "rank_in_cluster": 12}

>  <energy>  (7) 
-9.07

>  <cluster_rmsd>  (7) 
0.74

>  <cluster>  (7) 
1

$$$$

     RDKit          3D

 54 57  0  0  0  0  0  0  0  0999 V2000
  141.2510   71.9590  221.6260 O   0  0  0  0  0  0  0  0  0  0  0  0
  140.3210   72.1930  222.4520 C   0  0  0  0  0  0  0  0  0  0  0  0
  139.4310   73.2510  222.1030 N   0  0  0  0  0  0  0  0  0  0  0  0
  139.6870   73.9350  220.8510 C   0  0  0  0  0  0  0  0  0  0  0  0
  140.6400   75.0450  221.1280 C   0  0  0  0  0  0  0  0  0  0  0  0
  140.7990   75.3530  222.3400 O   0  0  0  0  0  0  0  0  0  0  0  0
  141.3410   75.7280  220.0690 N   0  0  0  0  0  0  0  0  0  0  0  0
  142.3730   74.9680  219.3950 C   0  0  0  0  0  0  0  0  0  0  0  0
  143.4520   75.8970  218.9190 C   0  0  0  0  0  0  0  0  0  0  0  0
  142.8770   77.0830  218.1600 C   0  0  0  0  0  0  0  0  0  0  0  0
  141.9700   77.8770  219.0380 C   0  0  0  0  0  0  0  0  0  0  0  0
  140.9580   77.0650  219.7850 C   0  0  2  0  0  0  0  0  0  0  0  0
  140.5540   77.8430  220.9840 C   0  0  0  0  0  0  0  0  0  0  0  0
  139.2850   77.7570  221.5370 C   0  0  0  0  0  0  0  0  0  0  0  0
  138.9560   78.5130  222.6670 C   0  0  0  0  0  0  0  0  0  0  0  0
  139.8720   79.3580  223.2610 C   0  0  0  0  0  0  0  0  0  0  0  0
  141.1350   79.4460  222.7130 C   0  0  0  0  0  0  0  0  0  0  0  0
  142.1900   80.3270  223.2800 C   0  0  0  0  0  0  0  0  0  0  0  0
  141.7160   81.5880  223.5300 F   0  0  0  0  0  0  0  0  0  0  0  0
  142.5700   79.7890  224.5170 F   0  0  0  0  0  0  0  0  0  0  0  0
  143.3390   80.3320  222.5130 F   0  0  0  0  0  0  0  0  0  0  0  0
  141.4550   78.7030  221.6030 C   0  0  0  0  0  0  0  0  0  0  0  0
  140.1580   71.4350  223.6910 C   0  0  0  0  0  0  0  0  0  0  0  0
  139.4360   70.2570  223.6170 C   0  0  0  0  0  0  0  0  0  0  0  0
  139.2300   69.4710  224.7470 C   0  0  0  0  0  0  0  0  0  0  0  0
  139.7900   69.9460  225.9270 C   0  0  0  0  0  0  0  0  0  0  0  0
  139.6240   69.2130  227.0880 C   0  0  0  0  0  0  0  0  0  0  0  0
  140.1720   69.6620  228.2850 C   0  0  0  0  0  0  0  0  0  0  0  0
  140.8790   70.8440  228.2860 C   0  0  0  0  0  0  0  0  0  0  0  0
  141.0650   71.6050  227.1340 C   0  0  0  0  0  0  0  0  0  0  0  0
  140.5000   71.1230  225.9490 C   0  0  0  0  0  0  0  0  0  0  0  0
  140.6940   71.8830  224.8410 N   0  0  0  0  0  0  0  0  0  0  0  0
  138.6300   73.5080  222.7370 H   0  0  0  0  0  0  0  0  0  0  0  0
  140.1274   73.2355  220.1252 H   0  0  0  0  0  0  0  0  0  0  0  0
  138.7506   74.3278  220.4282 H   0  0  0  0  0  0  0  0  0  0  0  0
  142.8028   74.2347  220.0932 H   0  0  0  0  0  0  0  0  0  0  0  0
  141.9361   74.4428  218.5328 H   0  0  0  0  0  0  0  0  0  0  0  0
  144.0126   76.2684  219.7895 H   0  0  0  0  0  0  0  0  0  0  0  0
  144.1096   75.3386  218.2365 H   0  0  0  0  0  0  0  0  0  0  0  0
  143.7006   77.7256  217.8154 H   0  0  0  0  0  0  0  0  0  0  0  0
  142.3014   76.7092  217.3004 H   0  0  0  0  0  0  0  0  0  0  0  0
  142.5876   78.4153  219.7720 H   0  0  0  0  0  0  0  0  0  0  0  0
  141.4038   78.5484  218.3757 H   0  0  0  0  0  0  0  0  0  0  0  0
  140.0893   76.9048  219.1295 H   0  0  0  0  0  0  0  0  0  0  0  0
  138.5344   77.0918  221.0853 H   0  0  0  0  0  0  0  0  0  0  0  0
  137.9446   78.4324  223.0919 H   0  0  0  0  0  0  0  0  0  0  0  0
  139.6013   79.9469  224.1498 H   0  0  0  0  0  0  0  0  0  0  0  0
  142.4686   78.7920  221.1851 H   0  0  0  0  0  0  0  0  0  0  0  0
  139.0187   69.9370  222.6509 H   0  0  0  0  0  0  0  0  0  0  0  0
  138.6590   68.5316  224.7085 H   0  0  0  0  0  0  0  0  0  0  0  0
  139.0563   68.2711  227.0647 H   0  0  0  0  0  0  0  0  0  0  0  0
  140.0433   69.0846  229.2124 H   0  0  0  0  0  0  0  0  0  0  0  0
  141.3130   71.2005  229.2318 H   0  0  0  0  0  0  0  0  0  0  0  0
  141.6332   72.5467  227.1556 H   0  0  0  0  0  0  0  0  0  0  0  0
  1  2  2  0
  2  3  1  0
  3  4  1  0
  4  5  1  0
  5  6  2  0
  5  7  1  0
  7  8  1  0
  8  9  1  0
  9 10  1  0
 10 11  1  0
 11 12  1  0
 12 13  1  0
 13 14  2  0
 14 15  1  0
 15 16  2  0
 16 17  1  0
 17 18  1  0
 18 19  1  0
 18 20  1  0
 18 21  1  0
 17 22  2  0
  2 23  1  0
 23 24  2  0
 24 25  1  0
 25 26  2  0
 26 27  1  0
 27 28  2  0
 28 29  1  0
 29 30  2  0
 30 31  1  0
 31 32  2  0
 12  7  1  0
 22 13  1  0
 32 23  1  0
 31 26  1  0
  3 33  1  0
  4 34  1  0
  4 35  1  0
  8 36  1  0
  8 37  1  0
  9 38  1  0
  9 39  1  0
 10 40  1  0
 10 41  1  0
 11 42  1  0
 11 43  1  0
 12 44  1  6
 14 45  1  0
 15 46  1  0
 16 47  1  0
 22 48  1  0
 24 49  1  0
 25 50  1  0
 27 51  1  0
 28 52  1  0
 29 53  1  0
 30 54  1  0
M  END
>  <smiles>  (8) 
O=C(NCC(=O)N1CCCCC1c1cccc(C(F)(F)F)c1)c1ccc2ccccc2n1

>  <score_type>  (8) 
oracle

>  <origin>  (8) 
autodockgpu

>  <m_score__min__energy>  (8) 
-9.1799999999999997

>  <m_primary>  (8) 
energy

>  <rmsd>  (8) 
1.9349662842432385

>  <m_score__min__rmsd>  (8) 
1.9349662842432385

>  <meeko>  (8) 
{"free_energy": -9.18, "intermolecular_energy": -10.97, "internal_energy": -1.54, "cluster_size": 35, "cluster_id": 1, "rank_in_cluster": 3}

>  <energy>  (8) 
-9.07

>  <cluster_rmsd>  (8) 
0.25

>  <cluster>  (8) 
1

$$$$

     RDKit          3D

 54 57  0  0  0  0  0  0  0  0999 V2000
  140.6120   71.4960  221.3520 O   0  0  0  0  0  0  0  0  0  0  0  0
  140.2400   72.0380  222.4330 C   0  0  0  0  0  0  0  0  0  0  0  0
  139.8900   73.4180  222.3490 N   0  0  0  0  0  0  0  0  0  0  0  0
  139.9990   74.0420  221.0460 C   0  0  0  0  0  0  0  0  0  0  0  0
  140.7350   75.3250  221.2180 C   0  0  0  0  0  0  0  0  0  0  0  0
  140.7180   75.8260  222.3740 O   0  0  0  0  0  0  0  0  0  0  0  0
  141.4300   75.9560  220.1230 N   0  0  0  0  0  0  0  0  0  0  0  0
  142.4840   75.1800  219.5060 C   0  0  0  0  0  0  0  0  0  0  0  0
  143.5470   76.1020  218.9800 C   0  0  0  0  0  0  0  0  0  0  0  0
  142.9510   77.2240  218.1440 C   0  0  0  0  0  0  0  0  0  0  0  0
  142.0190   78.0510  218.9640 C   0  0  0  0  0  0  0  0  0  0  0  0
  141.0190   77.2640  219.7530 C   0  0  2  0  0  0  0  0  0  0  0  0
  140.5870   78.1060  220.8970 C   0  0  0  0  0  0  0  0  0  0  0  0
  139.2640   78.1890  221.3050 C   0  0  0  0  0  0  0  0  0  0  0  0
  138.9110   78.9980  222.3900 C   0  0  0  0  0  0  0  0  0  0  0  0
  139.8560   79.7310  223.0810 C   0  0  0  0  0  0  0  0  0  0  0  0
  141.1730   79.6500  222.6770 C   0  0  0  0  0  0  0  0  0  0  0  0
  142.2610   80.4020  223.3570 C   0  0  0  0  0  0  0  0  0  0  0  0
  142.5870   79.8410  224.5630 F   0  0  0  0  0  0  0  0  0  0  0  0
  143.4040   80.3110  222.5500 F   0  0  0  0  0  0  0  0  0  0  0  0
  141.9850   81.7520  223.4540 F   0  0  0  0  0  0  0  0  0  0  0  0
  141.5160   78.8560  221.6120 C   0  0  0  0  0  0  0  0  0  0  0  0
  140.1680   71.3070  223.6970 C   0  0  0  0  0  0  0  0  0  0  0  0
  139.5900   70.0500  223.6640 C   0  0  0  0  0  0  0  0  0  0  0  0
  139.4790   69.2830  224.8200 C   0  0  0  0  0  0  0  0  0  0  0  0
  139.9800   69.8590  225.9810 C   0  0  0  0  0  0  0  0  0  0  0  0
  139.9010   69.1500  227.1660 C   0  0  0  0  0  0  0  0  0  0  0  0
  140.3940   69.7000  228.3450 C   0  0  0  0  0  0  0  0  0  0  0  0
  140.9560   70.9570  228.3050 C   0  0  0  0  0  0  0  0  0  0  0  0
  141.0500   71.6960  227.1290 C   0  0  0  0  0  0  0  0  0  0  0  0
  140.5450   71.1120  225.9620 C   0  0  0  0  0  0  0  0  0  0  0  0
  140.6480   71.8520  224.8290 N   0  0  0  0  0  0  0  0  0  0  0  0
  139.5700   73.9420  223.2050 H   0  0  0  0  0  0  0  0  0  0  0  0
  140.5509   73.3827  220.3600 H   0  0  0  0  0  0  0  0  0  0  0  0
  139.0006   74.2247  220.6219 H   0  0  0  0  0  0  0  0  0  0  0  0
  142.9240   74.5019  220.2520 H   0  0  0  0  0  0  0  0  0  0  0  0
  142.0664   74.5924  218.6751 H   0  0  0  0  0  0  0  0  0  0  0  0
  144.0917   76.5402  219.8293 H   0  0  0  0  0  0  0  0  0  0  0  0
  144.2234   75.5173  218.3392 H   0  0  0  0  0  0  0  0  0  0  0  0
  143.7624   77.8625  217.7646 H   0  0  0  0  0  0  0  0  0  0  0  0
  142.3907   76.7831  217.3063 H   0  0  0  0  0  0  0  0  0  0  0  0
  142.6181   78.6480  219.6673 H   0  0  0  0  0  0  0  0  0  0  0  0
  141.4439   78.6670  218.2571 H   0  0  0  0  0  0  0  0  0  0  0  0
  140.1597   77.0426  219.1029 H   0  0  0  0  0  0  0  0  0  0  0  0
  138.4896   77.6166  220.7734 H   0  0  0  0  0  0  0  0  0  0  0  0
  137.8570   79.0517  222.7000 H   0  0  0  0  0  0  0  0  0  0  0  0
  139.5658   80.3639  223.9326 H   0  0  0  0  0  0  0  0  0  0  0  0
  142.5727   78.8102  221.3097 H   0  0  0  0  0  0  0  0  0  0  0  0
  139.2130   69.6515  222.7106 H   0  0  0  0  0  0  0  0  0  0  0  0
  139.0226   68.2821  224.8149 H   0  0  0  0  0  0  0  0  0  0  0  0
  139.4470   68.1481  227.1763 H   0  0  0  0  0  0  0  0  0  0  0  0
  140.3361   69.1417  229.2910 H   0  0  0  0  0  0  0  0  0  0  0  0
  141.3450   71.3931  229.2370 H   0  0  0  0  0  0  0  0  0  0  0  0
  141.5029   72.6984  227.1176 H   0  0  0  0  0  0  0  0  0  0  0  0
  1  2  2  0
  2  3  1  0
  3  4  1  0
  4  5  1  0
  5  6  2  0
  5  7  1  0
  7  8  1  0
  8  9  1  0
  9 10  1  0
 10 11  1  0
 11 12  1  0
 12 13  1  0
 13 14  2  0
 14 15  1  0
 15 16  2  0
 16 17  1  0
 17 18  1  0
 18 19  1  0
 18 20  1  0
 18 21  1  0
 17 22  2  0
  2 23  1  0
 23 24  2  0
 24 25  1  0
 25 26  2  0
 26 27  1  0
 27 28  2  0
 28 29  1  0
 29 30  2  0
 30 31  1  0
 31 32  2  0
 12  7  1  0
 22 13  1  0
 32 23  1  0
 31 26  1  0
  3 33  1  0
  4 34  1  0
  4 35  1  0
  8 36  1  0
  8 37  1  0
  9 38  1  0
  9 39  1  0
 10 40  1  0
 10 41  1  0
 11 42  1  0
 11 43  1  0
 12 44  1  6
 14 45  1  0
 15 46  1  0
 16 47  1  0
 22 48  1  0
 24 49  1  0
 25 50  1  0
 27 51  1  0
 28 52  1  0
 29 53  1  0
 30 54  1  0
M  END
>  <smiles>  (9) 
O=C(NCC(=O)N1CCCCC1c1cccc(C(F)(F)F)c1)c1ccc2ccccc2n1

>  <score_type>  (9) 
oracle

>  <origin>  (9) 
autodockgpu

>  <m_score__min__energy>  (9) 
-9.1799999999999997

>  <m_primary>  (9) 
energy

>  <rmsd>  (9) 
1.9972151144776085

>  <m_score__min__rmsd>  (9) 
1.9972151144776085

>  <meeko>  (9) 
{"free_energy": -8.99, "intermolecular_energy": -10.78, "internal_energy": -1.86, "cluster_size": 35, "cluster_id": 1, "rank_in_cluster": 16}

>  <energy>  (9) 
-9.07

>  <cluster_rmsd>  (9) 
0.3

>  <cluster>  (9) 
1

$$$$

     RDKit          3D

 54 57  0  0  0  0  0  0  0  0999 V2000
  140.3800   71.6580  221.2200 O   0  0  0  0  0  0  0  0  0  0  0  0
  140.1040   72.1510  222.3530 C   0  0  0  0  0  0  0  0  0  0  0  0
  139.8150   73.5470  222.3700 N   0  0  0  0  0  0  0  0  0  0  0  0
  139.8680   74.2410  221.0990 C   0  0  0  0  0  0  0  0  0  0  0  0
  140.5370   75.5520  221.3270 C   0  0  0  0  0  0  0  0  0  0  0  0
  140.4210   76.0440  222.4820 O   0  0  0  0  0  0  0  0  0  0  0  0
  141.2780   76.2190  220.2850 N   0  0  0  0  0  0  0  0  0  0  0  0
  142.1730   75.3880  219.5080 C   0  0  0  0  0  0  0  0  0  0  0  0
  143.3440   76.2050  219.0450 C   0  0  0  0  0  0  0  0  0  0  0  0
  142.8980   77.5090  218.4010 C   0  0  0  0  0  0  0  0  0  0  0  0
  142.1400   78.3430  219.3790 C   0  0  0  0  0  0  0  0  0  0  0  0
  141.0620   77.6120  220.1160 C   0  0  2  0  0  0  0  0  0  0  0  0
  140.8130   78.3410  221.3860 C   0  0  0  0  0  0  0  0  0  0  0  0
  141.8300   78.6650  222.2730 C   0  0  0  0  0  0  0  0  0  0  0  0
  141.5410   79.3530  223.4550 C   0  0  0  0  0  0  0  0  0  0  0  0
  140.2500   79.7270  223.7750 C   0  0  0  0  0  0  0  0  0  0  0  0
  139.2370   79.4060  222.8950 C   0  0  0  0  0  0  0  0  0  0  0  0
  137.8170   79.7650  223.1510 C   0  0  0  0  0  0  0  0  0  0  0  0
  137.3160   80.5800  222.1700 F   0  0  0  0  0  0  0  0  0  0  0  0
  137.0690   78.5810  223.1110 F   0  0  0  0  0  0  0  0  0  0  0  0
  137.6260   80.2790  224.4190 F   0  0  0  0  0  0  0  0  0  0  0  0
  139.5240   78.7310  221.7350 C   0  0  0  0  0  0  0  0  0  0  0  0
  140.0810   71.3500  223.5760 C   0  0  0  0  0  0  0  0  0  0  0  0
  139.5570   70.0720  223.4810 C   0  0  0  0  0  0  0  0  0  0  0  0
  139.4950   69.2400  224.5950 C   0  0  0  0  0  0  0  0  0  0  0  0
  139.9840   69.7740  225.7800 C   0  0  0  0  0  0  0  0  0  0  0  0
  139.9520   68.9990  226.9260 C   0  0  0  0  0  0  0  0  0  0  0  0
  140.4350   69.5060  228.1280 C   0  0  0  0  0  0  0  0  0  0  0  0
  140.9420   70.7870  228.1500 C   0  0  0  0  0  0  0  0  0  0  0  0
  140.9880   71.5920  227.0140 C   0  0  0  0  0  0  0  0  0  0  0  0
  140.4950   71.0500  225.8230 C   0  0  0  0  0  0  0  0  0  0  0  0
  140.5510   71.8540  224.7310 N   0  0  0  0  0  0  0  0  0  0  0  0
  139.5760   74.0330  223.2740 H   0  0  0  0  0  0  0  0  0  0  0  0
  140.4428   73.6484  220.3721 H   0  0  0  0  0  0  0  0  0  0  0  0
  138.8543   74.3900  220.6986 H   0  0  0  0  0  0  0  0  0  0  0  0
  142.5312   74.5545  220.1300 H   0  0  0  0  0  0  0  0  0  0  0  0
  141.6362   74.9909  218.6339 H   0  0  0  0  0  0  0  0  0  0  0  0
  143.9833   76.4346  219.9102 H   0  0  0  0  0  0  0  0  0  0  0  0
  143.8949   75.6210  218.2931 H   0  0  0  0  0  0  0  0  0  0  0  0
  143.7834   78.0658  218.0603 H   0  0  0  0  0  0  0  0  0  0  0  0
  142.2432   77.2784  217.5477 H   0  0  0  0  0  0  0  0  0  0  0  0
  142.8527   78.7391  220.1173 H   0  0  0  0  0  0  0  0  0  0  0  0
  141.6406   79.1310  218.7962 H   0  0  0  0  0  0  0  0  0  0  0  0
  140.1537   77.6145  219.4955 H   0  0  0  0  0  0  0  0  0  0  0  0
  142.8675   78.3793  222.0450 H   0  0  0  0  0  0  0  0  0  0  0  0
  142.3598   79.6022  224.1459 H   0  0  0  0  0  0  0  0  0  0  0  0
  140.0350   80.2675  224.7086 H   0  0  0  0  0  0  0  0  0  0  0  0
  138.6979   78.4875  221.0507 H   0  0  0  0  0  0  0  0  0  0  0  0
  139.1846   69.7092  222.5117 H   0  0  0  0  0  0  0  0  0  0  0  0
  139.0836   68.2213  224.5401 H   0  0  0  0  0  0  0  0  0  0  0  0
  139.5432   67.9785  226.8863 H   0  0  0  0  0  0  0  0  0  0  0  0
  140.4126   68.8961  229.0432 H   0  0  0  0  0  0  0  0  0  0  0  0
  141.3246   71.1889  229.0998 H   0  0  0  0  0  0  0  0  0  0  0  0
  141.3957   72.6129  227.0524 H   0  0  0  0  0  0  0  0  0  0  0  0
  1  2  2  0
  2  3  1  0
  3  4  1  0
  4  5  1  0
  5  6  2  0
  5  7  1  0
  7  8  1  0
  8  9  1  0
  9 10  1  0
 10 11  1  0
 11 12  1  0
 12 13  1  0
 13 14  2  0
 14 15  1  0
 15 16  2  0
 16 17  1  0
 17 18  1  0
 18 19  1  0
 18 20  1  0
 18 21  1  0
 17 22  2  0
  2 23  1  0
 23 24  2  0
 24 25  1  0
 25 26  2  0
 26 27  1  0
 27 28  2  0
 28 29  1  0
 29 30  2  0
 30 31  1  0
 31 32  2  0
 12  7  1  0
 22 13  1  0
 32 23  1  0
 31 26  1  0
  3 33  1  0
  4 34  1  0
  4 35  1  0
  8 36  1  0
  8 37  1  0
  9 38  1  0
  9 39  1  0
 10 40  1  0
 10 41  1  0
 11 42  1  0
 11 43  1  0
 12 44  1  6
 14 45  1  0
 15 46  1  0
 16 47  1  0
 22 48  1  0
 24 49  1  0
 25 50  1  0
 27 51  1  0
 28 52  1  0
 29 53  1  0
 30 54  1  0
M  END
>  <smiles>  (10) 
O=C(NCC(=O)N1CCCCC1c1cccc(C(F)(F)F)c1)c1ccc2ccccc2n1

>  <score_type>  (10) 
oracle

>  <origin>  (10) 
autodockgpu

>  <m_score__min__energy>  (10) 
-9.1799999999999997

>  <m_primary>  (10) 
energy

>  <rmsd>  (10) 
1.9696393379018693

>  <m_score__min__rmsd>  (10) 
1.9696393379018693

>  <meeko>  (10) 
{"free_energy": -8.81, "intermolecular_energy": -10.6, "internal_energy": -1.72, "cluster_size": 35, "cluster_id": 1, "rank_in_cluster": 27}

>  <energy>  (10) 
-9.06

>  <cluster_rmsd>  (10) 
0.33

>  <cluster>  (10) 
1

$$$$

     RDKit          3D

 54 57  0  0  0  0  0  0  0  0999 V2000
  140.8790   71.4690  221.3560 O   0  0  0  0  0  0  0  0  0  0  0  0
  140.4300   72.0380  222.3940 C   0  0  0  0  0  0  0  0  0  0  0  0
  140.1050   73.4190  222.2550 N   0  0  0  0  0  0  0  0  0  0  0  0
  140.3220   74.0140  220.9510 C   0  0  0  0  0  0  0  0  0  0  0  0
  140.9940   75.3270  221.1590 C   0  0  0  0  0  0  0  0  0  0  0  0
  141.0680   75.7330  222.3500 O   0  0  0  0  0  0  0  0  0  0  0  0
  141.5300   76.0890  220.0590 N   0  0  0  0  0  0  0  0  0  0  0  0
  140.5960   76.9530  219.3670 C   0  0  0  0  0  0  0  0  0  0  0  0
  140.9970   77.0750  217.9250 C   0  0  0  0  0  0  0  0  0  0  0  0
  142.4720   77.4160  217.7800 C   0  0  0  0  0  0  0  0  0  0  0  0
  143.3190   76.3450  218.3820 C   0  0  0  0  0  0  0  0  0  0  0  0
  142.9080   75.9280  219.7590 C   0  0  2  0  0  0  0  0  0  0  0  0
  143.4150   74.5490  219.9800 C   0  0  0  0  0  0  0  0  0  0  0  0
  144.4640   74.2680  220.8440 C   0  0  0  0  0  0  0  0  0  0  0  0
  144.9020   72.9510  221.0150 C   0  0  0  0  0  0  0  0  0  0  0  0
  144.3140   71.9010  220.3380 C   0  0  0  0  0  0  0  0  0  0  0  0
  143.2700   72.1780  219.4780 C   0  0  0  0  0  0  0  0  0  0  0  0
  142.5740   71.1160  218.7050 C   0  0  0  0  0  0  0  0  0  0  0  0
  141.3470   71.5340  218.2610 F   0  0  0  0  0  0  0  0  0  0  0  0
  143.3440   70.8500  217.5650 F   0  0  0  0  0  0  0  0  0  0  0  0
  142.5120   69.9200  219.3940 F   0  0  0  0  0  0  0  0  0  0  0  0
  142.8420   73.4710  219.3120 C   0  0  0  0  0  0  0  0  0  0  0  0
  140.2520   71.3350  223.6630 C   0  0  0  0  0  0  0  0  0  0  0  0
  139.6040   70.1120  223.6190 C   0  0  0  0  0  0  0  0  0  0  0  0
  139.3910   69.3740  224.7790 C   0  0  0  0  0  0  0  0  0  0  0  0
  139.8630   69.9410  225.9560 C   0  0  0  0  0  0  0  0  0  0  0  0
  139.6830   69.2580  227.1460 C   0  0  0  0  0  0  0  0  0  0  0  0
  140.1450   69.8000  228.3410 C   0  0  0  0  0  0  0  0  0  0  0  0
  140.7800   71.0230  228.3110 C   0  0  0  0  0  0  0  0  0  0  0  0
  140.9770   71.7340  227.1300 C   0  0  0  0  0  0  0  0  0  0  0  0
  140.5000   71.1590  225.9470 C   0  0  0  0  0  0  0  0  0  0  0  0
  140.7040   71.8720  224.8100 N   0  0  0  0  0  0  0  0  0  0  0  0
  139.7260   73.9650  223.0720 H   0  0  0  0  0  0  0  0  0  0  0  0
  140.9612   73.3583  220.3416 H   0  0  0  0  0  0  0  0  0  0  0  0
  139.3654   74.1496  220.4252 H   0  0  0  0  0  0  0  0  0  0  0  0
  139.5847   76.5249  219.4309 H   0  0  0  0  0  0  0  0  0  0  0  0
  140.6042   77.9488  219.8342 H   0  0  0  0  0  0  0  0  0  0  0  0
  140.8003   76.1189  217.4179 H   0  0  0  0  0  0  0  0  0  0  0  0
  140.4102   77.8881  217.4728 H   0  0  0  0  0  0  0  0  0  0  0  0
  142.7174   77.5139  216.7122 H   0  0  0  0  0  0  0  0  0  0  0  0
  142.6709   78.3626  218.3038 H   0  0  0  0  0  0  0  0  0  0  0  0
  143.2726   75.4620  217.7276 H   0  0  0  0  0  0  0  0  0  0  0  0
  144.3330   76.7619  218.4715 H   0  0  0  0  0  0  0  0  0  0  0  0
  143.3658   76.6195  220.4816 H   0  0  0  0  0  0  0  0  0  0  0  0
  144.9527   75.0841  221.3963 H   0  0  0  0  0  0  0  0  0  0  0  0
  145.7342   72.7468  221.7048 H   0  0  0  0  0  0  0  0  0  0  0  0
  144.6685   70.8695  220.4803 H   0  0  0  0  0  0  0  0  0  0  0  0
  142.0089   73.6641  218.6201 H   0  0  0  0  0  0  0  0  0  0  0  0
  139.2528   69.7186  222.6536 H   0  0  0  0  0  0  0  0  0  0  0  0
  138.8796   68.4002  224.7650 H   0  0  0  0  0  0  0  0  0  0  0  0
  139.1730   68.2834  227.1470 H   0  0  0  0  0  0  0  0  0  0  0  0
  140.0063   69.2632  229.2910 H   0  0  0  0  0  0  0  0  0  0  0  0
  141.1448   71.4535  229.2553 H   0  0  0  0  0  0  0  0  0  0  0  0
  141.4871   72.7086  227.1273 H   0  0  0  0  0  0  0  0  0  0  0  0
  1  2  2  0
  2  3  1  0
  3  4  1  0
  4  5  1  0
  5  6  2  0
  5  7  1  0
  7  8  1  0
  8  9  1  0
  9 10  1  0
 10 11  1  0
 11 12  1  0
 12 13  1  0
 13 14  2  0
 14 15  1  0
 15 16  2  0
 16 17  1  0
 17 18  1  0
 18 19  1  0
 18 20  1  0
 18 21  1  0
 17 22  2  0
  2 23  1  0
 23 24  2  0
 24 25  1  0
 25 26  2  0
 26 27  1  0
 27 28  2  0
 28 29  1  0
 29 30  2  0
 30 31  1  0
 31 32  2  0
 12  7  1  0
 22 13  1  0
 32 23  1  0
 31 26  1  0
  3 33  1  0
  4 34  1  0
  4 35  1  0
  8 36  1  0
  8 37  1  0
  9 38  1  0
  9 39  1  0
 10 40  1  0
 10 41  1  0
 11 42  1  0
 11 43  1  0
 12 44  1  1
 14 45  1  0
 15 46  1  0
 16 47  1  0
 22 48  1  0
 24 49  1  0
 25 50  1  0
 27 51  1  0
 28 52  1  0
 29 53  1  0
 30 54  1  0
M  END
>  <smiles>  (11) 
O=C(NCC(=O)N1CCCCC1c1cccc(C(F)(F)F)c1)c1ccc2ccccc2n1

>  <score_type>  (11) 
oracle

>  <origin>  (11) 
autodockgpu

>  <m_score__min__energy>  (11) 
-9.1799999999999997

>  <m_primary>  (11) 
energy

>  <rmsd>  (11) 
1.9842656785942037

>  <m_score__min__rmsd>  (11) 
1.9842656785942037

>  <meeko>  (11) 
{"free_energy": -7.86, "intermolecular_energy": -9.65, "internal_energy": -2.44, "cluster_size": 12, "cluster_id": 3, "rank_in_cluster": 10}

>  <energy>  (11) 
-9.04

>  <cluster_rmsd>  (11) 
0.38

>  <cluster>  (11) 
1

$$$$

     RDKit          3D

 54 57  0  0  0  0  0  0  0  0999 V2000
  140.5210   71.3570  221.3390 O   0  0  0  0  0  0  0  0  0  0  0  0
  140.1900   71.9000  222.4330 C   0  0  0  0  0  0  0  0  0  0  0  0
  139.8710   73.2880  222.3670 N   0  0  0  0  0  0  0  0  0  0  0  0
  139.9580   73.9180  221.0650 C   0  0  0  0  0  0  0  0  0  0  0  0
  140.7420   75.1750  221.2220 C   0  0  0  0  0  0  0  0  0  0  0  0
  140.7140   75.7090  222.3630 O   0  0  0  0  0  0  0  0  0  0  0  0
  141.4890   75.7470  220.1290 N   0  0  0  0  0  0  0  0  0  0  0  0
  142.5730   74.9410  219.6080 C   0  0  0  0  0  0  0  0  0  0  0  0
  143.6600   75.8350  219.0860 C   0  0  0  0  0  0  0  0  0  0  0  0
  143.1060   76.9070  218.1600 C   0  0  0  0  0  0  0  0  0  0  0  0
  142.1340   77.7760  218.8860 C   0  0  0  0  0  0  0  0  0  0  0  0
  141.0970   77.0310  219.6670 C   0  0  2  0  0  0  0  0  0  0  0  0
  140.6090   77.9340  220.7410 C   0  0  0  0  0  0  0  0  0  0  0  0
  139.2810   77.9670  221.1420 C   0  0  0  0  0  0  0  0  0  0  0  0
  138.8750   78.8370  222.1590 C   0  0  0  0  0  0  0  0  0  0  0  0
  139.7690   79.6810  222.7870 C   0  0  0  0  0  0  0  0  0  0  0  0
  141.0900   79.6490  222.3900 C   0  0  0  0  0  0  0  0  0  0  0  0
  142.1270   80.5190  223.0060 C   0  0  0  0  0  0  0  0  0  0  0  0
  143.3190   79.8590  223.1560 F   0  0  0  0  0  0  0  0  0  0  0  0
  142.3660   81.5820  222.1240 F   0  0  0  0  0  0  0  0  0  0  0  0
  141.6910   81.1050  224.1790 F   0  0  0  0  0  0  0  0  0  0  0  0
  141.4870   78.7950  221.3920 C   0  0  0  0  0  0  0  0  0  0  0  0
  140.1360   71.1620  223.6940 C   0  0  0  0  0  0  0  0  0  0  0  0
  139.5640   69.9020  223.6620 C   0  0  0  0  0  0  0  0  0  0  0  0
  139.4700   69.1300  224.8150 C   0  0  0  0  0  0  0  0  0  0  0  0
  139.9790   69.7030  225.9730 C   0  0  0  0  0  0  0  0  0  0  0  0
  139.9170   68.9870  227.1550 C   0  0  0  0  0  0  0  0  0  0  0  0
  140.4190   69.5340  228.3320 C   0  0  0  0  0  0  0  0  0  0  0  0
  140.9740   70.7940  228.2920 C   0  0  0  0  0  0  0  0  0  0  0  0
  141.0520   71.5390  227.1180 C   0  0  0  0  0  0  0  0  0  0  0  0
  140.5380   70.9590  225.9540 C   0  0  0  0  0  0  0  0  0  0  0  0
  140.6250   71.7050  224.8240 N   0  0  0  0  0  0  0  0  0  0  0  0
  139.5860   73.8140  223.2340 H   0  0  0  0  0  0  0  0  0  0  0  0
  140.4650   73.2462  220.3568 H   0  0  0  0  0  0  0  0  0  0  0  0
  138.9531   74.1367  220.6747 H   0  0  0  0  0  0  0  0  0  0  0  0
  142.9755   74.3059  220.4109 H   0  0  0  0  0  0  0  0  0  0  0  0
  142.1971   74.3079  218.7908 H   0  0  0  0  0  0  0  0  0  0  0  0
  144.1612   76.3214  219.9358 H   0  0  0  0  0  0  0  0  0  0  0  0
  144.3681   75.2179  218.5135 H   0  0  0  0  0  0  0  0  0  0  0  0
  143.9351   77.5257  217.7861 H   0  0  0  0  0  0  0  0  0  0  0  0
  142.5880   76.4186  217.3215 H   0  0  0  0  0  0  0  0  0  0  0  0
  142.6974   78.4131  219.5837 H   0  0  0  0  0  0  0  0  0  0  0  0
  141.5944   78.3502  218.1185 H   0  0  0  0  0  0  0  0  0  0  0  0
  140.2713   76.7716  218.9881 H   0  0  0  0  0  0  0  0  0  0  0  0
  138.5456   77.3071  220.6587 H   0  0  0  0  0  0  0  0  0  0  0  0
  137.8187   78.8491  222.4657 H   0  0  0  0  0  0  0  0  0  0  0  0
  139.4364   80.3621  223.5841 H   0  0  0  0  0  0  0  0  0  0  0  0
  142.5457   78.7909  221.0936 H   0  0  0  0  0  0  0  0  0  0  0  0
  139.1783   69.5056  222.7112 H   0  0  0  0  0  0  0  0  0  0  0  0
  139.0198   68.1264  224.8100 H   0  0  0  0  0  0  0  0  0  0  0  0
  139.4695   67.9822  227.1646 H   0  0  0  0  0  0  0  0  0  0  0  0
  140.3735   68.9711  229.2760 H   0  0  0  0  0  0  0  0  0  0  0  0
  141.3703   71.2279  229.2219 H   0  0  0  0  0  0  0  0  0  0  0  0
  141.5000   72.5436  227.1067 H   0  0  0  0  0  0  0  0  0  0  0  0
  1  2  2  0
  2  3  1  0
  3  4  1  0
  4  5  1  0
  5  6  2  0
  5  7  1  0
  7  8  1  0
  8  9  1  0
  9 10  1  0
 10 11  1  0
 11 12  1  0
 12 13  1  0
 13 14  2  0
 14 15  1  0
 15 16  2  0
 16 17  1  0
 17 18  1  0
 18 19  1  0
 18 20  1  0
 18 21  1  0
 17 22  2  0
  2 23  1  0
 23 24  2  0
 24 25  1  0
 25 26  2  0
 26 27  1  0
 27 28  2  0
 28 29  1  0
 29 30  2  0
 30 31  1  0
 31 32  2  0
 12  7  1  0
 22 13  1  0
 32 23  1  0
 31 26  1  0
  3 33  1  0
  4 34  1  0
  4 35  1  0
  8 36  1  0
  8 37  1  0
  9 38  1  0
  9 39  1  0
 10 40  1  0
 10 41  1  0
 11 42  1  0
 11 43  1  0
 12 44  1  6
 14 45  1  0
 15 46  1  0
 16 47  1  0
 22 48  1  0
 24 49  1  0
 25 50  1  0
 27 51  1  0
 28 52  1  0
 29 53  1  0
 30 54  1  0
M  END
>  <smiles>  (12) 
O=C(NCC(=O)N1CCCCC1c1cccc(C(F)(F)F)c1)c1ccc2ccccc2n1

>  <score_type>  (12) 
oracle

>  <origin>  (12) 
autodockgpu

>  <m_score__min__energy>  (12) 
-9.1799999999999997

>  <m_primary>  (12) 
energy

>  <rmsd>  (12) 
1.9768151696711798

>  <m_score__min__rmsd>  (12) 
1.9768151696711798

>  <meeko>  (12) 
{"free_energy": -8.82, "intermolecular_energy": -10.61, "internal_energy": -1.85, "cluster_size": 35, "cluster_id": 1, "rank_in_cluster": 25}

>  <energy>  (12) 
-9.04

>  <cluster_rmsd>  (12) 
0.83

>  <cluster>  (12) 
1

$$$$

     RDKit          3D

 54 57  0  0  0  0  0  0  0  0999 V2000
  140.5070   71.4590  221.3160 O   0  0  0  0  0  0  0  0  0  0  0  0
  140.1610   72.0100  222.4020 C   0  0  0  0  0  0  0  0  0  0  0  0
  139.8430   73.3980  222.3220 N   0  0  0  0  0  0  0  0  0  0  0  0
  139.9500   74.0190  221.0160 C   0  0  0  0  0  0  0  0  0  0  0  0
  140.6930   75.2980  221.1830 C   0  0  0  0  0  0  0  0  0  0  0  0
  140.6880   75.8000  222.3380 O   0  0  0  0  0  0  0  0  0  0  0  0
  141.3820   75.9260  220.0820 N   0  0  0  0  0  0  0  0  0  0  0  0
  142.3900   75.1250  219.4210 C   0  0  0  0  0  0  0  0  0  0  0  0
  143.4720   76.0180  218.8850 C   0  0  0  0  0  0  0  0  0  0  0  0
  142.8960   77.1780  218.0880 C   0  0  0  0  0  0  0  0  0  0  0  0
  142.0180   78.0220  218.9490 C   0  0  0  0  0  0  0  0  0  0  0  0
  141.0110   77.2550  219.7490 C   0  0  2  0  0  0  0  0  0  0  0  0
  140.6410   78.0890  220.9210 C   0  0  0  0  0  0  0  0  0  0  0  0
  139.3460   78.1470  221.4170 C   0  0  0  0  0  0  0  0  0  0  0  0
  139.0520   78.9490  222.5250 C   0  0  0  0  0  0  0  0  0  0  0  0
  140.0260   79.7000  223.1510 C   0  0  0  0  0  0  0  0  0  0  0  0
  141.3150   79.6440  222.6600 C   0  0  0  0  0  0  0  0  0  0  0  0
  142.4320   80.4160  223.2660 C   0  0  0  0  0  0  0  0  0  0  0  0
  142.1410   81.7520  223.3440 F   0  0  0  0  0  0  0  0  0  0  0  0
  142.5920   79.9620  224.5820 F   0  0  0  0  0  0  0  0  0  0  0  0
  143.6390   80.1690  222.6420 F   0  0  0  0  0  0  0  0  0  0  0  0
  141.6010   78.8560  221.5730 C   0  0  0  0  0  0  0  0  0  0  0  0
  140.0890   71.2820  223.6670 C   0  0  0  0  0  0  0  0  0  0  0  0
  139.5120   70.0240  223.6370 C   0  0  0  0  0  0  0  0  0  0  0  0
  139.4010   69.2600  224.7940 C   0  0  0  0  0  0  0  0  0  0  0  0
  139.8990   69.8390  225.9540 C   0  0  0  0  0  0  0  0  0  0  0  0
  139.8210   69.1320  227.1410 C   0  0  0  0  0  0  0  0  0  0  0  0
  140.3110   69.6850  228.3200 C   0  0  0  0  0  0  0  0  0  0  0  0
  140.8720   70.9420  228.2770 C   0  0  0  0  0  0  0  0  0  0  0  0
  140.9660   71.6790  227.0990 C   0  0  0  0  0  0  0  0  0  0  0  0
  140.4630   71.0920  225.9330 C   0  0  0  0  0  0  0  0  0  0  0  0
  140.5670   71.8300  224.7990 N   0  0  0  0  0  0  0  0  0  0  0  0
  139.5470   73.9300  223.1810 H   0  0  0  0  0  0  0  0  0  0  0  0
  140.4959   73.3555  220.3292 H   0  0  0  0  0  0  0  0  0  0  0  0
  138.9511   74.2057  220.5950 H   0  0  0  0  0  0  0  0  0  0  0  0
  142.8241   74.4157  220.1411 H   0  0  0  0  0  0  0  0  0  0  0  0
  141.9290   74.5708  218.5902 H   0  0  0  0  0  0  0  0  0  0  0  0
  144.0548   76.4183  219.7277 H   0  0  0  0  0  0  0  0  0  0  0  0
  144.1093   75.4225  218.2147 H   0  0  0  0  0  0  0  0  0  0  0  0
  143.7202   77.7937  217.6988 H   0  0  0  0  0  0  0  0  0  0  0  0
  142.2970   76.7751  217.2580 H   0  0  0  0  0  0  0  0  0  0  0  0
  142.6573   78.5819  219.6474 H   0  0  0  0  0  0  0  0  0  0  0  0
  141.4480   78.6741  218.2708 H   0  0  0  0  0  0  0  0  0  0  0  0
  140.1278   77.0777  219.1177 H   0  0  0  0  0  0  0  0  0  0  0  0
  138.5484   77.5606  220.9375 H   0  0  0  0  0  0  0  0  0  0  0  0
  138.0206   78.9817  222.9060 H   0  0  0  0  0  0  0  0  0  0  0  0
  139.7811   80.3281  224.0202 H   0  0  0  0  0  0  0  0  0  0  0  0
  142.6358   78.8299  221.2008 H   0  0  0  0  0  0  0  0  0  0  0  0
  139.1358   69.6228  222.6843 H   0  0  0  0  0  0  0  0  0  0  0  0
  138.9465   68.2583  224.7905 H   0  0  0  0  0  0  0  0  0  0  0  0
  139.3698   68.1289  227.1525 H   0  0  0  0  0  0  0  0  0  0  0  0
  140.2515   69.1293  229.2675 H   0  0  0  0  0  0  0  0  0  0  0  0
  141.2604   71.3804  229.2081 H   0  0  0  0  0  0  0  0  0  0  0  0
  141.4175   72.6820  227.0859 H   0  0  0  0  0  0  0  0  0  0  0  0
  1  2  2  0
  2  3  1  0
  3  4  1  0
  4  5  1  0
  5  6  2  0
  5  7  1  0
  7  8  1  0
  8  9  1  0
  9 10  1  0
 10 11  1  0
 11 12  1  0
 12 13  1  0
 13 14  2  0
 14 15  1  0
 15 16  2  0
 16 17  1  0
 17 18  1  0
 18 19  1  0
 18 20  1  0
 18 21  1  0
 17 22  2  0
  2 23  1  0
 23 24  2  0
 24 25  1  0
 25 26  2  0
 26 27  1  0
 27 28  2  0
 28 29  1  0
 29 30  2  0
 30 31  1  0
 31 32  2  0
 12  7  1  0
 22 13  1  0
 32 23  1  0
 31 26  1  0
  3 33  1  0
  4 34  1  0
  4 35  1  0
  8 36  1  0
  8 37  1  0
  9 38  1  0
  9 39  1  0
 10 40  1  0
 10 41  1  0
 11 42  1  0
 11 43  1  0
 12 44  1  6
 14 45  1  0
 15 46  1  0
 16 47  1  0
 22 48  1  0
 24 49  1  0
 25 50  1  0
 27 51  1  0
 28 52  1  0
 29 53  1  0
 30 54  1  0
M  END
>  <smiles>  (13) 
O=C(NCC(=O)N1CCCCC1c1cccc(C(F)(F)F)c1)c1ccc2ccccc2n1

>  <score_type>  (13) 
oracle

>  <origin>  (13) 
autodockgpu

>  <m_score__min__energy>  (13) 
-9.1799999999999997

>  <m_primary>  (13) 
energy

>  <rmsd>  (13) 
1.9395519001684274

>  <m_score__min__rmsd>  (13) 
1.9395519001684274

>  <meeko>  (13) 
{"free_energy": -9.06, "intermolecular_energy": -10.85, "internal_energy": -1.79, "cluster_size": 35, "cluster_id": 1, "rank_in_cluster": 10}

>  <energy>  (13) 
-9.03

>  <cluster_rmsd>  (13) 
0.38

>  <cluster>  (13) 
1

$$$$

     RDKit          3D

 54 57  0  0  0  0  0  0  0  0999 V2000
  140.7040   71.5180  221.3300 O   0  0  0  0  0  0  0  0  0  0  0  0
  140.2800   72.0720  222.3860 C   0  0  0  0  0  0  0  0  0  0  0  0
  139.9340   73.4510  222.2690 N   0  0  0  0  0  0  0  0  0  0  0  0
  140.1060   74.0600  220.9650 C   0  0  0  0  0  0  0  0  0  0  0  0
  140.8500   75.3360  221.1550 C   0  0  0  0  0  0  0  0  0  0  0  0
  141.0020   75.7190  222.3460 O   0  0  0  0  0  0  0  0  0  0  0  0
  141.3670   76.0880  220.0390 N   0  0  0  0  0  0  0  0  0  0  0  0
  142.3670   75.4230  219.2310 C   0  0  0  0  0  0  0  0  0  0  0  0
  143.3090   76.4410  218.6560 C   0  0  0  0  0  0  0  0  0  0  0  0
  142.5590   77.5900  217.9990 C   0  0  0  0  0  0  0  0  0  0  0  0
  141.7040   78.2970  218.9970 C   0  0  0  0  0  0  0  0  0  0  0  0
  140.8530   77.3960  219.8360 C   0  0  2  0  0  0  0  0  0  0  0  0
  140.5350   78.1210  221.0930 C   0  0  0  0  0  0  0  0  0  0  0  0
  139.3200   77.9810  221.7480 C   0  0  0  0  0  0  0  0  0  0  0  0
  139.0720   78.6870  222.9300 C   0  0  0  0  0  0  0  0  0  0  0  0
  140.0160   79.5360  223.4740 C   0  0  0  0  0  0  0  0  0  0  0  0
  141.2250   79.6760  222.8240 C   0  0  0  0  0  0  0  0  0  0  0  0
  142.3030   80.5660  223.3320 C   0  0  0  0  0  0  0  0  0  0  0  0
  142.7790   80.1430  224.5450 F   0  0  0  0  0  0  0  0  0  0  0  0
  143.3740   80.4880  222.4310 F   0  0  0  0  0  0  0  0  0  0  0  0
  141.9260   81.8950  223.3410 F   0  0  0  0  0  0  0  0  0  0  0  0
  141.4660   78.9820  221.6650 C   0  0  0  0  0  0  0  0  0  0  0  0
  140.1470   71.3560  223.6530 C   0  0  0  0  0  0  0  0  0  0  0  0
  139.5100   70.1270  223.6180 C   0  0  0  0  0  0  0  0  0  0  0  0
  139.3390   69.3760  224.7760 C   0  0  0  0  0  0  0  0  0  0  0  0
  139.8420   69.9380  225.9430 C   0  0  0  0  0  0  0  0  0  0  0  0
  139.7050   69.2430  227.1320 C   0  0  0  0  0  0  0  0  0  0  0  0
  140.1990   69.7780  228.3170 C   0  0  0  0  0  0  0  0  0  0  0  0
  140.8210   71.0070  228.2790 C   0  0  0  0  0  0  0  0  0  0  0  0
  140.9750   71.7310  227.1000 C   0  0  0  0  0  0  0  0  0  0  0  0
  140.4670   71.1620  225.9270 C   0  0  0  0  0  0  0  0  0  0  0  0
  140.6290   71.8870  224.7910 N   0  0  0  0  0  0  0  0  0  0  0  0
  139.5730   73.9840  223.1020 H   0  0  0  0  0  0  0  0  0  0  0  0
  140.6783   73.3868  220.3098 H   0  0  0  0  0  0  0  0  0  0  0  0
  139.1288   74.2501  220.4970 H   0  0  0  0  0  0  0  0  0  0  0  0
  142.9306   74.7146  219.8559 H   0  0  0  0  0  0  0  0  0  0  0  0
  141.8726   74.8795  218.4123 H   0  0  0  0  0  0  0  0  0  0  0  0
  143.9385   76.8415  219.4643 H   0  0  0  0  0  0  0  0  0  0  0  0
  143.9226   75.9470  217.8882 H   0  0  0  0  0  0  0  0  0  0  0  0
  143.2845   78.3007  217.5763 H   0  0  0  0  0  0  0  0  0  0  0  0
  141.9157   77.1853  217.2038 H   0  0  0  0  0  0  0  0  0  0  0  0
  142.3612   78.8706  219.6671 H   0  0  0  0  0  0  0  0  0  0  0  0
  141.0140   78.9326  218.4226 H   0  0  0  0  0  0  0  0  0  0  0  0
  139.9277   77.1779  219.2826 H   0  0  0  0  0  0  0  0  0  0  0  0
  138.5492   77.3127  221.3366 H   0  0  0  0  0  0  0  0  0  0  0  0
  138.1039   78.5633  223.4374 H   0  0  0  0  0  0  0  0  0  0  0  0
  139.8089   80.0873  224.4031 H   0  0  0  0  0  0  0  0  0  0  0  0
  142.4378   79.1122  221.1664 H   0  0  0  0  0  0  0  0  0  0  0  0
  139.1336   69.7389  222.6600 H   0  0  0  0  0  0  0  0  0  0  0  0
  138.8366   68.3975  224.7685 H   0  0  0  0  0  0  0  0  0  0  0  0
  139.2036   68.2639  227.1398 H   0  0  0  0  0  0  0  0  0  0  0  0
  140.0952   69.2309  229.2656 H   0  0  0  0  0  0  0  0  0  0  0  0
  141.2106   71.4321  229.2158 H   0  0  0  0  0  0  0  0  0  0  0  0
  141.4756   72.7104  227.0909 H   0  0  0  0  0  0  0  0  0  0  0  0
  1  2  2  0
  2  3  1  0
  3  4  1  0
  4  5  1  0
  5  6  2  0
  5  7  1  0
  7  8  1  0
  8  9  1  0
  9 10  1  0
 10 11  1  0
 11 12  1  0
 12 13  1  0
 13 14  2  0
 14 15  1  0
 15 16  2  0
 16 17  1  0
 17 18  1  0
 18 19  1  0
 18 20  1  0
 18 21  1  0
 17 22  2  0
  2 23  1  0
 23 24  2  0
 24 25  1  0
 25 26  2  0
 26 27  1  0
 27 28  2  0
 28 29  1  0
 29 30  2  0
 30 31  1  0
 31 32  2  0
 12  7  1  0
 22 13  1  0
 32 23  1  0
 31 26  1  0
  3 33  1  0
  4 34  1  0
  4 35  1  0
  8 36  1  0
  8 37  1  0
  9 38  1  0
  9 39  1  0
 10 40  1  0
 10 41  1  0
 11 42  1  0
 11 43  1  0
 12 44  1  6
 14 45  1  0
 15 46  1  0
 16 47  1  0
 22 48  1  0
 24 49  1  0
 25 50  1  0
 27 51  1  0
 28 52  1  0
 29 53  1  0
 30 54  1  0
M  END
>  <smiles>  (14) 
O=C(NCC(=O)N1CCCCC1c1cccc(C(F)(F)F)c1)c1ccc2ccccc2n1

>  <score_type>  (14) 
oracle

>  <origin>  (14) 
autodockgpu

>  <m_score__min__energy>  (14) 
-9.1799999999999997

>  <m_primary>  (14) 
energy

>  <rmsd>  (14) 
1.9712268897689227

>  <m_score__min__rmsd>  (14) 
1.9712268897689227

>  <meeko>  (14) 
{"free_energy": -9.14, "intermolecular_energy": -10.93, "internal_energy": -1.79, "cluster_size": 35, "cluster_id": 1, "rank_in_cluster": 4}

>  <energy>  (14) 
-9.01

>  <cluster_rmsd>  (14) 
0.35

>  <cluster>  (14) 
1

$$$$

     RDKit          3D

 54 57  0  0  0  0  0  0  0  0999 V2000
  140.6320   71.2980  221.3340 O   0  0  0  0  0  0  0  0  0  0  0  0
  140.2480   71.8540  222.4040 C   0  0  0  0  0  0  0  0  0  0  0  0
  139.9230   73.2390  222.3030 N   0  0  0  0  0  0  0  0  0  0  0  0
  140.0680   73.8510  220.9970 C   0  0  0  0  0  0  0  0  0  0  0  0
  140.7450   75.1640  221.1850 C   0  0  0  0  0  0  0  0  0  0  0  0
  140.6790   75.6650  222.3400 O   0  0  0  0  0  0  0  0  0  0  0  0
  141.4380   75.8240  220.1060 N   0  0  0  0  0  0  0  0  0  0  0  0
  142.5320   75.0880  219.5080 C   0  0  0  0  0  0  0  0  0  0  0  0
  143.5710   76.0500  219.0060 C   0  0  0  0  0  0  0  0  0  0  0  0
  142.9520   77.1530  218.1620 C   0  0  0  0  0  0  0  0  0  0  0  0
  141.9750   77.9430  218.9660 C   0  0  0  0  0  0  0  0  0  0  0  0
  140.9890   77.1180  219.7320 C   0  0  2  0  0  0  0  0  0  0  0  0
  140.5040   77.9400  220.8710 C   0  0  0  0  0  0  0  0  0  0  0  0
  139.1590   78.2080  221.0790 C   0  0  0  0  0  0  0  0  0  0  0  0
  138.7570   78.9880  222.1670 C   0  0  0  0  0  0  0  0  0  0  0  0
  139.6730   79.5110  223.0580 C   0  0  0  0  0  0  0  0  0  0  0  0
  141.0120   79.2450  222.8540 C   0  0  0  0  0  0  0  0  0  0  0  0
  142.0730   79.7630  223.7580 C   0  0  0  0  0  0  0  0  0  0  0  0
  143.2690   79.9080  223.1050 F   0  0  0  0  0  0  0  0  0  0  0  0
  141.6850   81.0430  224.1750 F   0  0  0  0  0  0  0  0  0  0  0  0
  142.1860   79.0170  224.9150 F   0  0  0  0  0  0  0  0  0  0  0  0
  141.4040   78.4790  221.7850 C   0  0  0  0  0  0  0  0  0  0  0  0
  140.1390   71.1340  223.6710 C   0  0  0  0  0  0  0  0  0  0  0  0
  139.5230   69.8950  223.6400 C   0  0  0  0  0  0  0  0  0  0  0  0
  139.3750   69.1400  224.7990 C   0  0  0  0  0  0  0  0  0  0  0  0
  139.8790   69.7090  225.9630 C   0  0  0  0  0  0  0  0  0  0  0  0
  139.7650   69.0100  227.1510 C   0  0  0  0  0  0  0  0  0  0  0  0
  140.2610   69.5520  228.3330 C   0  0  0  0  0  0  0  0  0  0  0  0
  140.8620   70.7910  228.2910 C   0  0  0  0  0  0  0  0  0  0  0  0
  140.9920   71.5190  227.1110 C   0  0  0  0  0  0  0  0  0  0  0  0
  140.4830   70.9430  225.9420 C   0  0  0  0  0  0  0  0  0  0  0  0
  140.6220   71.6720  224.8050 N   0  0  0  0  0  0  0  0  0  0  0  0
  139.5960   73.7750  223.1480 H   0  0  0  0  0  0  0  0  0  0  0  0
  140.6763   73.2056  220.3463 H   0  0  0  0  0  0  0  0  0  0  0  0
  139.0841   73.9889  220.5247 H   0  0  0  0  0  0  0  0  0  0  0  0
  142.9813   74.4238  220.2609 H   0  0  0  0  0  0  0  0  0  0  0  0
  142.1528   74.4881  218.6675 H   0  0  0  0  0  0  0  0  0  0  0  0
  144.0826   76.5042  219.8673 H   0  0  0  0  0  0  0  0  0  0  0  0
  144.2803   75.4925  218.3767 H   0  0  0  0  0  0  0  0  0  0  0  0
  143.7474   77.8215  217.8008 H   0  0  0  0  0  0  0  0  0  0  0  0
  142.4245   76.6957  217.3120 H   0  0  0  0  0  0  0  0  0  0  0  0
  142.5384   78.5583  219.6830 H   0  0  0  0  0  0  0  0  0  0  0  0
  141.3923   78.5410  218.2498 H   0  0  0  0  0  0  0  0  0  0  0  0
  140.1518   76.8688  219.0634 H   0  0  0  0  0  0  0  0  0  0  0  0
  138.4062   77.8053  220.3853 H   0  0  0  0  0  0  0  0  0  0  0  0
  137.6861   79.1898  222.3169 H   0  0  0  0  0  0  0  0  0  0  0  0
  139.3438   80.1246  223.9095 H   0  0  0  0  0  0  0  0  0  0  0  0
  142.4771   78.2824  221.6445 H   0  0  0  0  0  0  0  0  0  0  0  0
  139.1449   69.5015  222.6849 H   0  0  0  0  0  0  0  0  0  0  0  0
  138.8890   68.1532  224.7947 H   0  0  0  0  0  0  0  0  0  0  0  0
  139.2807   68.0224  227.1616 H   0  0  0  0  0  0  0  0  0  0  0  0
  140.1749   69.0021  229.2818 H   0  0  0  0  0  0  0  0  0  0  0  0
  141.2538   71.2213  229.2245 H   0  0  0  0  0  0  0  0  0  0  0  0
  141.4754   72.5070  227.0985 H   0  0  0  0  0  0  0  0  0  0  0  0
  1  2  2  0
  2  3  1  0
  3  4  1  0
  4  5  1  0
  5  6  2  0
  5  7  1  0
  7  8  1  0
  8  9  1  0
  9 10  1  0
 10 11  1  0
 11 12  1  0
 12 13  1  0
 13 14  2  0
 14 15  1  0
 15 16  2  0
 16 17  1  0
 17 18  1  0
 18 19  1  0
 18 20  1  0
 18 21  1  0
 17 22  2  0
  2 23  1  0
 23 24  2  0
 24 25  1  0
 25 26  2  0
 26 27  1  0
 27 28  2  0
 28 29  1  0
 29 30  2  0
 30 31  1  0
 31 32  2  0
 12  7  1  0
 22 13  1  0
 32 23  1  0
 31 26  1  0
  3 33  1  0
  4 34  1  0
  4 35  1  0
  8 36  1  0
  8 37  1  0
  9 38  1  0
  9 39  1  0
 10 40  1  0
 10 41  1  0
 11 42  1  0
 11 43  1  0
 12 44  1  6
 14 45  1  0
 15 46  1  0
 16 47  1  0
 22 48  1  0
 24 49  1  0
 25 50  1  0
 27 51  1  0
 28 52  1  0
 29 53  1  0
 30 54  1  0
M  END
>  <smiles>  (15) 
O=C(NCC(=O)N1CCCCC1c1cccc(C(F)(F)F)c1)c1ccc2ccccc2n1

>  <score_type>  (15) 
oracle

>  <origin>  (15) 
autodockgpu

>  <m_score__min__energy>  (15) 
-9.1799999999999997

>  <m_primary>  (15) 
energy

>  <rmsd>  (15) 
1.9720392599773253

>  <m_score__min__rmsd>  (15) 
1.9720392599773253

>  <meeko>  (15) 
{"free_energy": -8.74, "intermolecular_energy": -10.53, "internal_energy": -1.91, "cluster_size": 35, "cluster_id": 1, "rank_in_cluster": 31}

>  <energy>  (15) 
-9.0

>  <cluster_rmsd>  (15) 
0.29

>  <cluster>  (15) 
1

$$$$

     RDKit          3D

 54 57  0  0  0  0  0  0  0  0999 V2000
  140.5910   71.5070  221.3290 O   0  0  0  0  0  0  0  0  0  0  0  0
  140.2120   72.0620  222.4020 C   0  0  0  0  0  0  0  0  0  0  0  0
  139.8820   73.4460  222.3040 N   0  0  0  0  0  0  0  0  0  0  0  0
  140.0160   74.0590  220.9970 C   0  0  0  0  0  0  0  0  0  0  0  0
  140.8070   75.3100  221.1630 C   0  0  0  0  0  0  0  0  0  0  0  0
  140.9790   75.7070  222.3460 O   0  0  0  0  0  0  0  0  0  0  0  0
  141.3460   76.0240  220.0320 N   0  0  0  0  0  0  0  0  0  0  0  0
  142.3310   75.3160  219.2420 C   0  0  0  0  0  0  0  0  0  0  0  0
  143.3000   76.2970  218.6470 C   0  0  0  0  0  0  0  0  0  0  0  0
  142.5810   77.4490  217.9620 C   0  0  0  0  0  0  0  0  0  0  0  0
  141.7410   78.1990  218.9410 C   0  0  0  0  0  0  0  0  0  0  0  0
  140.8650   77.3390  219.7970 C   0  0  2  0  0  0  0  0  0  0  0  0
  140.5620   78.1000  221.0360 C   0  0  0  0  0  0  0  0  0  0  0  0
  139.3340   78.0230  221.6770 C   0  0  0  0  0  0  0  0  0  0  0  0
  139.1010   78.7610  222.8430 C   0  0  0  0  0  0  0  0  0  0  0  0
  140.0730   79.5790  223.3840 C   0  0  0  0  0  0  0  0  0  0  0  0
  141.2950   79.6570  222.7480 C   0  0  0  0  0  0  0  0  0  0  0  0
  142.4030   80.5100  223.2550 C   0  0  0  0  0  0  0  0  0  0  0  0
  143.4610   80.5350  222.3850 F   0  0  0  0  0  0  0  0  0  0  0  0
  141.9200   81.8230  223.3390 F   0  0  0  0  0  0  0  0  0  0  0  0
  142.7780   80.1730  224.5410 F   0  0  0  0  0  0  0  0  0  0  0  0
  141.5210   78.9320  221.6050 C   0  0  0  0  0  0  0  0  0  0  0  0
  140.1150   71.3410  223.6700 C   0  0  0  0  0  0  0  0  0  0  0  0
  139.5190   70.0920  223.6400 C   0  0  0  0  0  0  0  0  0  0  0  0
  139.3840   69.3360  224.7990 C   0  0  0  0  0  0  0  0  0  0  0  0
  139.8780   69.9130  225.9620 C   0  0  0  0  0  0  0  0  0  0  0  0
  139.7750   69.2140  227.1520 C   0  0  0  0  0  0  0  0  0  0  0  0
  140.2600   69.7660  228.3330 C   0  0  0  0  0  0  0  0  0  0  0  0
  140.8400   71.0150  228.2900 C   0  0  0  0  0  0  0  0  0  0  0  0
  140.9590   71.7430  227.1100 C   0  0  0  0  0  0  0  0  0  0  0  0
  140.4600   71.1580  225.9410 C   0  0  0  0  0  0  0  0  0  0  0  0
  140.5880   71.8880  224.8040 N   0  0  0  0  0  0  0  0  0  0  0  0
  139.5590   73.9810  223.1520 H   0  0  0  0  0  0  0  0  0  0  0  0
  140.5382   73.3734  220.3133 H   0  0  0  0  0  0  0  0  0  0  0  0
  139.0260   74.2824  220.5727 H   0  0  0  0  0  0  0  0  0  0  0  0
  142.8750   74.6079  219.8843 H   0  0  0  0  0  0  0  0  0  0  0  0
  141.8250   74.7669  218.4342 H   0  0  0  0  0  0  0  0  0  0  0  0
  143.9373   76.6998  219.4480 H   0  0  0  0  0  0  0  0  0  0  0  0
  143.9029   75.7705  217.8925 H   0  0  0  0  0  0  0  0  0  0  0  0
  143.3252   78.1318  217.5261 H   0  0  0  0  0  0  0  0  0  0  0  0
  141.9302   77.0428  217.1737 H   0  0  0  0  0  0  0  0  0  0  0  0
  142.4105   78.7707  219.6005 H   0  0  0  0  0  0  0  0  0  0  0  0
  141.0688   78.8383  218.3499 H   0  0  0  0  0  0  0  0  0  0  0  0
  139.9362   77.1316  219.2453 H   0  0  0  0  0  0  0  0  0  0  0  0
  138.5411   77.3799  221.2675 H   0  0  0  0  0  0  0  0  0  0  0  0
  138.1221   78.6878  223.3394 H   0  0  0  0  0  0  0  0  0  0  0  0
  139.8777   80.1550  224.3006 H   0  0  0  0  0  0  0  0  0  0  0  0
  142.5036   79.0122  221.1172 H   0  0  0  0  0  0  0  0  0  0  0  0
  139.1468   69.6918  222.6854 H   0  0  0  0  0  0  0  0  0  0  0  0
  138.9145   68.3413  224.7952 H   0  0  0  0  0  0  0  0  0  0  0  0
  139.3078   68.2182  227.1639 H   0  0  0  0  0  0  0  0  0  0  0  0
  140.1820   69.2162  229.2825 H   0  0  0  0  0  0  0  0  0  0  0  0
  141.2233   71.4531  229.2233 H   0  0  0  0  0  0  0  0  0  0  0  0
  141.4267   72.7385  227.0968 H   0  0  0  0  0  0  0  0  0  0  0  0
  1  2  2  0
  2  3  1  0
  3  4  1  0
  4  5  1  0
  5  6  2  0
  5  7  1  0
  7  8  1  0
  8  9  1  0
  9 10  1  0
 10 11  1  0
 11 12  1  0
 12 13  1  0
 13 14  2  0
 14 15  1  0
 15 16  2  0
 16 17  1  0
 17 18  1  0
 18 19  1  0
 18 20  1  0
 18 21  1  0
 17 22  2  0
  2 23  1  0
 23 24  2  0
 24 25  1  0
 25 26  2  0
 26 27  1  0
 27 28  2  0
 28 29  1  0
 29 30  2  0
 30 31  1  0
 31 32  2  0
 12  7  1  0
 22 13  1  0
 32 23  1  0
 31 26  1  0
  3 33  1  0
  4 34  1  0
  4 35  1  0
  8 36  1  0
  8 37  1  0
  9 38  1  0
  9 39  1  0
 10 40  1  0
 10 41  1  0
 11 42  1  0
 11 43  1  0
 12 44  1  6
 14 45  1  0
 15 46  1  0
 16 47  1  0
 22 48  1  0
 24 49  1  0
 25 50  1  0
 27 51  1  0
 28 52  1  0
 29 53  1  0
 30 54  1  0
M  END
>  <smiles>  (16) 
O=C(NCC(=O)N1CCCCC1c1cccc(C(F)(F)F)c1)c1ccc2ccccc2n1

>  <score_type>  (16) 
oracle

>  <origin>  (16) 
autodockgpu

>  <m_score__min__energy>  (16) 
-9.1799999999999997

>  <m_primary>  (16) 
energy

>  <rmsd>  (16) 
1.929049793741133

>  <m_score__min__rmsd>  (16) 
1.929049793741133

>  <meeko>  (16) 
{"free_energy": -9.09, "intermolecular_energy": -10.87, "internal_energy": -1.82, "cluster_size": 35, "cluster_id": 1, "rank_in_cluster": 6}

>  <energy>  (16) 
-8.99

>  <cluster_rmsd>  (16) 
0.39

>  <cluster>  (16) 
1

$$$$

     RDKit          3D

 54 57  0  0  0  0  0  0  0  0999 V2000
  140.5940   71.4880  221.3270 O   0  0  0  0  0  0  0  0  0  0  0  0
  140.2170   72.0430  222.4000 C   0  0  0  0  0  0  0  0  0  0  0  0
  139.8910   73.4270  222.3030 N   0  0  0  0  0  0  0  0  0  0  0  0
  140.0250   74.0410  220.9970 C   0  0  0  0  0  0  0  0  0  0  0  0
  140.8280   75.2840  221.1610 C   0  0  0  0  0  0  0  0  0  0  0  0
  141.0170   75.6730  222.3450 O   0  0  0  0  0  0  0  0  0  0  0  0
  141.3600   76.0010  220.0280 N   0  0  0  0  0  0  0  0  0  0  0  0
  142.3730   75.3120  219.2570 C   0  0  0  0  0  0  0  0  0  0  0  0
  143.3220   76.3140  218.6630 C   0  0  0  0  0  0  0  0  0  0  0  0
  142.5790   77.4380  217.9580 C   0  0  0  0  0  0  0  0  0  0  0  0
  141.7080   78.1750  218.9190 C   0  0  0  0  0  0  0  0  0  0  0  0
  140.8460   77.3000  219.7750 C   0  0  2  0  0  0  0  0  0  0  0  0
  140.5090   78.0650  221.0020 C   0  0  0  0  0  0  0  0  0  0  0  0
  139.2780   77.9570  221.6340 C   0  0  0  0  0  0  0  0  0  0  0  0
  139.0120   78.7010  222.7880 C   0  0  0  0  0  0  0  0  0  0  0  0
  139.9520   79.5550  223.3290 C   0  0  0  0  0  0  0  0  0  0  0  0
  141.1770   79.6640  222.7030 C   0  0  0  0  0  0  0  0  0  0  0  0
  142.2530   80.5570  223.2080 C   0  0  0  0  0  0  0  0  0  0  0  0
  143.4950   80.0070  223.0270 F   0  0  0  0  0  0  0  0  0  0  0  0
  142.2190   81.7320  222.4460 F   0  0  0  0  0  0  0  0  0  0  0  0
  142.0320   80.9570  224.5120 F   0  0  0  0  0  0  0  0  0  0  0  0
  141.4360   78.9330  221.5700 C   0  0  0  0  0  0  0  0  0  0  0  0
  140.1180   71.3210  223.6670 C   0  0  0  0  0  0  0  0  0  0  0  0
  139.4900   70.0880  223.6420 C   0  0  0  0  0  0  0  0  0  0  0  0
  139.3510   69.3320  224.8020 C   0  0  0  0  0  0  0  0  0  0  0  0
  139.8750   69.8940  225.9600 C   0  0  0  0  0  0  0  0  0  0  0  0
  139.7700   69.1940  227.1480 C   0  0  0  0  0  0  0  0  0  0  0  0
  140.2850   69.7300  228.3240 C   0  0  0  0  0  0  0  0  0  0  0  0
  140.8960   70.9640  228.2770 C   0  0  0  0  0  0  0  0  0  0  0  0
  141.0180   71.6930  227.0960 C   0  0  0  0  0  0  0  0  0  0  0  0
  140.4890   71.1230  225.9330 C   0  0  0  0  0  0  0  0  0  0  0  0
  140.6200   71.8530  224.7960 N   0  0  0  0  0  0  0  0  0  0  0  0
  139.5690   73.9620  223.1510 H   0  0  0  0  0  0  0  0  0  0  0  0
  140.5377   73.3518  220.3099 H   0  0  0  0  0  0  0  0  0  0  0  0
  139.0351   74.2745  220.5778 H   0  0  0  0  0  0  0  0  0  0  0  0
  142.9286   74.6256  219.9129 H   0  0  0  0  0  0  0  0  0  0  0  0
  141.8920   74.7407  218.4494 H   0  0  0  0  0  0  0  0  0  0  0  0
  143.9382   76.7426  219.4671 H   0  0  0  0  0  0  0  0  0  0  0  0
  143.9487   75.7972  217.9213 H   0  0  0  0  0  0  0  0  0  0  0  0
  143.3088   78.1364  217.5225 H   0  0  0  0  0  0  0  0  0  0  0  0
  141.9482   77.0052  217.1676 H   0  0  0  0  0  0  0  0  0  0  0  0
  142.3540   78.7720  219.5795 H   0  0  0  0  0  0  0  0  0  0  0  0
  141.0253   78.7893  218.3136 H   0  0  0  0  0  0  0  0  0  0  0  0
  139.9288   77.0616  219.2165 H   0  0  0  0  0  0  0  0  0  0  0  0
  138.5093   77.2842  221.2260 H   0  0  0  0  0  0  0  0  0  0  0  0
  138.0309   78.6034  223.2759 H   0  0  0  0  0  0  0  0  0  0  0  0
  139.7299   80.1346  224.2371 H   0  0  0  0  0  0  0  0  0  0  0  0
  142.4202   79.0383  221.0901 H   0  0  0  0  0  0  0  0  0  0  0  0
  139.0951   69.7000  222.6915 H   0  0  0  0  0  0  0  0  0  0  0  0
  138.8565   68.3494  224.8024 H   0  0  0  0  0  0  0  0  0  0  0  0
  139.2778   68.2104  227.1632 H   0  0  0  0  0  0  0  0  0  0  0  0
  140.2059   69.1793  229.2729 H   0  0  0  0  0  0  0  0  0  0  0  0
  141.3026   71.3894  229.2064 H   0  0  0  0  0  0  0  0  0  0  0  0
  141.5102   72.6766  227.0787 H   0  0  0  0  0  0  0  0  0  0  0  0
  1  2  2  0
  2  3  1  0
  3  4  1  0
  4  5  1  0
  5  6  2  0
  5  7  1  0
  7  8  1  0
  8  9  1  0
  9 10  1  0
 10 11  1  0
 11 12  1  0
 12 13  1  0
 13 14  2  0
 14 15  1  0
 15 16  2  0
 16 17  1  0
 17 18  1  0
 18 19  1  0
 18 20  1  0
 18 21  1  0
 17 22  2  0
  2 23  1  0
 23 24  2  0
 24 25  1  0
 25 26  2  0
 26 27  1  0
 27 28  2  0
 28 29  1  0
 29 30  2  0
 30 31  1  0
 31 32  2  0
 12  7  1  0
 22 13  1  0
 32 23  1  0
 31 26  1  0
  3 33  1  0
  4 34  1  0
  4 35  1  0
  8 36  1  0
  8 37  1  0
  9 38  1  0
  9 39  1  0
 10 40  1  0
 10 41  1  0
 11 42  1  0
 11 43  1  0
 12 44  1  6
 14 45  1  0
 15 46  1  0
 16 47  1  0
 22 48  1  0
 24 49  1  0
 25 50  1  0
 27 51  1  0
 28 52  1  0
 29 53  1  0
 30 54  1  0
M  END
>  <smiles>  (17) 
O=C(NCC(=O)N1CCCCC1c1cccc(C(F)(F)F)c1)c1ccc2ccccc2n1

>  <score_type>  (17) 
oracle

>  <origin>  (17) 
autodockgpu

>  <m_score__min__energy>  (17) 
-9.1799999999999997

>  <m_primary>  (17) 
energy

>  <rmsd>  (17) 
1.931577188578617

>  <m_score__min__rmsd>  (17) 
1.931577188578617

>  <meeko>  (17) 
{"free_energy": -9.0, "intermolecular_energy": -10.79, "internal_energy": -1.84, "cluster_size": 35, "cluster_id": 1, "rank_in_cluster": 15}

>  <energy>  (17) 
-8.96

>  <cluster_rmsd>  (17) 
0.37

>  <cluster>  (17) 
1

$$$$

     RDKit          3D

 54 57  0  0  0  0  0  0  0  0999 V2000
  140.7140   71.5360  221.3650 O   0  0  0  0  0  0  0  0  0  0  0  0
  140.2870   72.0800  222.4260 C   0  0  0  0  0  0  0  0  0  0  0  0
  139.9210   73.4530  222.3160 N   0  0  0  0  0  0  0  0  0  0  0  0
  140.0760   74.0700  221.0140 C   0  0  0  0  0  0  0  0  0  0  0  0
  140.8190   75.3470  221.2030 C   0  0  0  0  0  0  0  0  0  0  0  0
  140.9410   75.7500  222.3910 O   0  0  0  0  0  0  0  0  0  0  0  0
  141.3700   76.0780  220.0890 N   0  0  0  0  0  0  0  0  0  0  0  0
  142.3640   75.3830  219.2990 C   0  0  0  0  0  0  0  0  0  0  0  0
  143.3380   76.3740  218.7300 C   0  0  0  0  0  0  0  0  0  0  0  0
  142.6250   77.5360  218.0550 C   0  0  0  0  0  0  0  0  0  0  0  0
  141.7750   78.2710  219.0370 C   0  0  0  0  0  0  0  0  0  0  0  0
  140.8900   77.3970  219.8700 C   0  0  2  0  0  0  0  0  0  0  0  0
  140.5740   78.1380  221.1170 C   0  0  0  0  0  0  0  0  0  0  0  0
  139.3520   78.0220  221.7640 C   0  0  0  0  0  0  0  0  0  0  0  0
  139.1050   78.7440  222.9370 C   0  0  0  0  0  0  0  0  0  0  0  0
  140.0570   79.5830  223.4810 C   0  0  0  0  0  0  0  0  0  0  0  0
  141.2730   79.7000  222.8390 C   0  0  0  0  0  0  0  0  0  0  0  0
  142.3600   80.5790  223.3470 C   0  0  0  0  0  0  0  0  0  0  0  0
  142.8270   80.1550  224.5640 F   0  0  0  0  0  0  0  0  0  0  0  0
  143.4320   80.4840  222.4500 F   0  0  0  0  0  0  0  0  0  0  0  0
  141.9980   81.9120  223.3500 F   0  0  0  0  0  0  0  0  0  0  0  0
  141.5120   78.9910  221.6880 C   0  0  0  0  0  0  0  0  0  0  0  0
  140.1730   71.3560  223.6900 C   0  0  0  0  0  0  0  0  0  0  0  0
  139.5430   70.1240  223.6560 C   0  0  0  0  0  0  0  0  0  0  0  0
  139.3880   69.3660  224.8120 C   0  0  0  0  0  0  0  0  0  0  0  0
  139.9010   69.9250  225.9770 C   0  0  0  0  0  0  0  0  0  0  0  0
  139.7810   69.2230  227.1630 C   0  0  0  0  0  0  0  0  0  0  0  0
  140.2840   69.7550  228.3460 C   0  0  0  0  0  0  0  0  0  0  0  0
  140.8990   70.9880  228.3070 C   0  0  0  0  0  0  0  0  0  0  0  0
  141.0360   71.7190  227.1300 C   0  0  0  0  0  0  0  0  0  0  0  0
  140.5180   71.1530  225.9600 C   0  0  0  0  0  0  0  0  0  0  0  0
  140.6630   71.8840  224.8260 N   0  0  0  0  0  0  0  0  0  0  0  0
  139.5570   73.9780  223.1540 H   0  0  0  0  0  0  0  0  0  0  0  0
  140.6423   73.4022  220.3481 H   0  0  0  0  0  0  0  0  0  0  0  0
  139.0929   74.2603  220.5586 H   0  0  0  0  0  0  0  0  0  0  0  0
  142.9018   74.6655  219.9361 H   0  0  0  0  0  0  0  0  0  0  0  0
  141.8675   74.8458  218.4775 H   0  0  0  0  0  0  0  0  0  0  0  0
  143.9660   76.7650  219.5441 H   0  0  0  0  0  0  0  0  0  0  0  0
  143.9497   75.8599  217.9740 H   0  0  0  0  0  0  0  0  0  0  0  0
  143.3730   78.2255  217.6367 H   0  0  0  0  0  0  0  0  0  0  0  0
  141.9822   77.1414  217.2543 H   0  0  0  0  0  0  0  0  0  0  0  0
  142.4376   78.8320  219.7125 H   0  0  0  0  0  0  0  0  0  0  0  0
  141.1092   78.9203  218.4495 H   0  0  0  0  0  0  0  0  0  0  0  0
  139.9669   77.1979  219.3059 H   0  0  0  0  0  0  0  0  0  0  0  0
  138.5750   77.3604  221.3536 H   0  0  0  0  0  0  0  0  0  0  0  0
  138.1306   78.6408  223.4368 H   0  0  0  0  0  0  0  0  0  0  0  0
  139.8512   80.1448  224.4041 H   0  0  0  0  0  0  0  0  0  0  0  0
  142.4892   79.1027  221.1954 H   0  0  0  0  0  0  0  0  0  0  0  0
  139.1590   69.7384  222.7001 H   0  0  0  0  0  0  0  0  0  0  0  0
  138.8904   68.3850  224.8048 H   0  0  0  0  0  0  0  0  0  0  0  0
  139.2861   68.2406  227.1707 H   0  0  0  0  0  0  0  0  0  0  0  0
  140.1928   69.2030  229.2931 H   0  0  0  0  0  0  0  0  0  0  0  0
  141.2967   71.4105  229.2415 H   0  0  0  0  0  0  0  0  0  0  0  0
  141.5311   72.7012  227.1203 H   0  0  0  0  0  0  0  0  0  0  0  0
  1  2  2  0
  2  3  1  0
  3  4  1  0
  4  5  1  0
  5  6  2  0
  5  7  1  0
  7  8  1  0
  8  9  1  0
  9 10  1  0
 10 11  1  0
 11 12  1  0
 12 13  1  0
 13 14  2  0
 14 15  1  0
 15 16  2  0
 16 17  1  0
 17 18  1  0
 18 19  1  0
 18 20  1  0
 18 21  1  0
 17 22  2  0
  2 23  1  0
 23 24  2  0
 24 25  1  0
 25 26  2  0
 26 27  1  0
 27 28  2  0
 28 29  1  0
 29 30  2  0
 30 31  1  0
 31 32  2  0
 12  7  1  0
 22 13  1  0
 32 23  1  0
 31 26  1  0
  3 33  1  0
  4 34  1  0
  4 35  1  0
  8 36  1  0
  8 37  1  0
  9 38  1  0
  9 39  1  0
 10 40  1  0
 10 41  1  0
 11 42  1  0
 11 43  1  0
 12 44  1  6
 14 45  1  0
 15 46  1  0
 16 47  1  0
 22 48  1  0
 24 49  1  0
 25 50  1  0
 27 51  1  0
 28 52  1  0
 29 53  1  0
 30 54  1  0
M  END
>  <smiles>  (18) 
O=C(NCC(=O)N1CCCCC1c1cccc(C(F)(F)F)c1)c1ccc2ccccc2n1

>  <score_type>  (18) 
oracle

>  <origin>  (18) 
autodockgpu

>  <m_score__min__energy>  (18) 
-9.1799999999999997

>  <m_primary>  (18) 
energy

>  <rmsd>  (18) 
1.9791601027992876

>  <m_score__min__rmsd>  (18) 
1.9791601027992876

>  <meeko>  (18) 
{"free_energy": -9.18, "intermolecular_energy": -10.97, "internal_energy": -1.76, "cluster_size": 35, "cluster_id": 1, "rank_in_cluster": 2}

>  <energy>  (18) 
-8.93

>  <cluster_rmsd>  (18) 
0.43

>  <cluster>  (18) 
1

$$$$

     RDKit          3D

 54 57  0  0  0  0  0  0  0  0999 V2000
  140.3140   71.2010  221.3440 O   0  0  0  0  0  0  0  0  0  0  0  0
  140.0460   71.7490  222.4540 C   0  0  0  0  0  0  0  0  0  0  0  0
  139.7950   73.1520  222.4100 N   0  0  0  0  0  0  0  0  0  0  0  0
  139.8740   73.7910  221.1110 C   0  0  0  0  0  0  0  0  0  0  0  0
  140.6040   75.0780  221.2840 C   0  0  0  0  0  0  0  0  0  0  0  0
  140.4470   75.6630  222.3880 O   0  0  0  0  0  0  0  0  0  0  0  0
  141.4430   75.6210  220.2440 N   0  0  0  0  0  0  0  0  0  0  0  0
  142.5430   74.7850  219.8120 C   0  0  0  0  0  0  0  0  0  0  0  0
  143.6860   75.6500  219.3630 C   0  0  0  0  0  0  0  0  0  0  0  0
  143.2260   76.7250  218.3900 C   0  0  0  0  0  0  0  0  0  0  0  0
  142.2250   77.6220  219.0350 C   0  0  0  0  0  0  0  0  0  0  0  0
  141.1160   76.9090  219.7440 C   0  0  2  0  0  0  0  0  0  0  0  0
  140.5720   77.8340  220.7710 C   0  0  0  0  0  0  0  0  0  0  0  0
  139.2110   78.0520  220.9320 C   0  0  0  0  0  0  0  0  0  0  0  0
  138.7520   78.9340  221.9160 C   0  0  0  0  0  0  0  0  0  0  0  0
  139.6250   79.6080  222.7460 C   0  0  0  0  0  0  0  0  0  0  0  0
  140.9790   79.3920  222.5880 C   0  0  0  0  0  0  0  0  0  0  0  0
  141.9970   80.0700  223.4330 C   0  0  0  0  0  0  0  0  0  0  0  0
  143.1300   80.3670  222.7220 F   0  0  0  0  0  0  0  0  0  0  0  0
  141.4540   81.2920  223.8500 F   0  0  0  0  0  0  0  0  0  0  0  0
  142.2650   79.3710  224.5940 F   0  0  0  0  0  0  0  0  0  0  0  0
  141.4280   78.5260  221.6220 C   0  0  0  0  0  0  0  0  0  0  0  0
  139.9930   71.0010  223.7080 C   0  0  0  0  0  0  0  0  0  0  0  0
  139.3870   69.7570  223.6750 C   0  0  0  0  0  0  0  0  0  0  0  0
  139.2920   68.9770  224.8230 C   0  0  0  0  0  0  0  0  0  0  0  0
  139.8360   69.5260  225.9770 C   0  0  0  0  0  0  0  0  0  0  0  0
  139.7750   68.8010  227.1540 C   0  0  0  0  0  0  0  0  0  0  0  0
  140.3110   69.3240  228.3270 C   0  0  0  0  0  0  0  0  0  0  0  0
  140.8990   70.5690  228.2880 C   0  0  0  0  0  0  0  0  0  0  0  0
  140.9760   71.3230  227.1200 C   0  0  0  0  0  0  0  0  0  0  0  0
  140.4270   70.7670  225.9590 C   0  0  0  0  0  0  0  0  0  0  0  0
  140.5150   71.5200  224.8340 N   0  0  0  0  0  0  0  0  0  0  0  0
  139.5650   73.6820  223.2910 H   0  0  0  0  0  0  0  0  0  0  0  0
  140.4175   73.1435  220.4072 H   0  0  0  0  0  0  0  0  0  0  0  0
  138.8665   73.9703  220.7075 H   0  0  0  0  0  0  0  0  0  0  0  0
  142.8708   74.1500  220.6482 H   0  0  0  0  0  0  0  0  0  0  0  0
  142.2138   74.1508  218.9756 H   0  0  0  0  0  0  0  0  0  0  0  0
  144.1349   76.1336  220.2431 H   0  0  0  0  0  0  0  0  0  0  0  0
  144.4194   75.0115  218.8488 H   0  0  0  0  0  0  0  0  0  0  0  0
  144.0943   77.3211  218.0727 H   0  0  0  0  0  0  0  0  0  0  0  0
  142.7594   76.2400  217.5199 H   0  0  0  0  0  0  0  0  0  0  0  0
  142.7507   78.2528  219.7669 H   0  0  0  0  0  0  0  0  0  0  0  0
  141.7566   78.2005  218.2251 H   0  0  0  0  0  0  0  0  0  0  0  0
  140.3359   76.6615  219.0090 H   0  0  0  0  0  0  0  0  0  0  0  0
  138.4913   77.5300  220.2843 H   0  0  0  0  0  0  0  0  0  0  0  0
  137.6698   79.0942  222.0310 H   0  0  0  0  0  0  0  0  0  0  0  0
  139.2508   80.3003  223.5145 H   0  0  0  0  0  0  0  0  0  0  0  0
  142.5121   78.3725  221.5161 H   0  0  0  0  0  0  0  0  0  0  0  0
  138.9746   69.3798  222.7276 H   0  0  0  0  0  0  0  0  0  0  0  0
  138.8151   67.9858  224.8171 H   0  0  0  0  0  0  0  0  0  0  0  0
  139.3014   67.8082  227.1625 H   0  0  0  0  0  0  0  0  0  0  0  0
  140.2660   68.7543  229.2669 H   0  0  0  0  0  0  0  0  0  0  0  0
  141.3237   70.9831  229.2144 H   0  0  0  0  0  0  0  0  0  0  0  0
  141.4494   72.3159  227.1102 H   0  0  0  0  0  0  0  0  0  0  0  0
  1  2  2  0
  2  3  1  0
  3  4  1  0
  4  5  1  0
  5  6  2  0
  5  7  1  0
  7  8  1  0
  8  9  1  0
  9 10  1  0
 10 11  1  0
 11 12  1  0
 12 13  1  0
 13 14  2  0
 14 15  1  0
 15 16  2  0
 16 17  1  0
 17 18  1  0
 18 19  1  0
 18 20  1  0
 18 21  1  0
 17 22  2  0
  2 23  1  0
 23 24  2  0
 24 25  1  0
 25 26  2  0
 26 27  1  0
 27 28  2  0
 28 29  1  0
 29 30  2  0
 30 31  1  0
 31 32  2  0
 12  7  1  0
 22 13  1  0
 32 23  1  0
 31 26  1  0
  3 33  1  0
  4 34  1  0
  4 35  1  0
  8 36  1  0
  8 37  1  0
  9 38  1  0
  9 39  1  0
 10 40  1  0
 10 41  1  0
 11 42  1  0
 11 43  1  0
 12 44  1  6
 14 45  1  0
 15 46  1  0
 16 47  1  0
 22 48  1  0
 24 49  1  0
 25 50  1  0
 27 51  1  0
 28 52  1  0
 29 53  1  0
 30 54  1  0
M  END
>  <smiles>  (19) 
O=C(NCC(=O)N1CCCCC1c1cccc(C(F)(F)F)c1)c1ccc2ccccc2n1

>  <score_type>  (19) 
oracle

>  <origin>  (19) 
autodockgpu

>  <m_score__min__energy>  (19) 
-9.1799999999999997

>  <m_primary>  (19) 
energy

>  <rmsd>  (19) 
1.9652267431249821

>  <m_score__min__rmsd>  (19) 
1.9652267431249821

>  <meeko>  (19) 
{"free_energy": -8.82, "intermolecular_energy": -10.61, "internal_energy": -1.89, "cluster_size": 35, "cluster_id": 1, "rank_in_cluster": 26}

>  <energy>  (19) 
-8.92

>  <cluster_rmsd>  (19) 
0.4

>  <cluster>  (19) 
1

$$$$

     RDKit          3D

 54 57  0  0  0  0  0  0  0  0999 V2000
  141.1090   72.1400  221.7080 O   0  0  0  0  0  0  0  0  0  0  0  0
  140.2100   72.2790  222.5880 C   0  0  0  0  0  0  0  0  0  0  0  0
  139.2550   73.3090  222.3440 N   0  0  0  0  0  0  0  0  0  0  0  0
  139.4180   74.0770  221.1260 C   0  0  0  0  0  0  0  0  0  0  0  0
  140.4040   75.1590  221.4000 C   0  0  0  0  0  0  0  0  0  0  0  0
  140.3390   75.6950  222.5390 O   0  0  0  0  0  0  0  0  0  0  0  0
  141.3780   75.5670  220.4180 N   0  0  0  0  0  0  0  0  0  0  0  0
  142.4230   74.6100  220.1210 C   0  0  0  0  0  0  0  0  0  0  0  0
  143.6800   75.3380  219.7410 C   0  0  0  0  0  0  0  0  0  0  0  0
  143.4130   76.4010  218.6870 C   0  0  0  0  0  0  0  0  0  0  0  0
  142.4540   77.4210  219.2020 C   0  0  0  0  0  0  0  0  0  0  0  0
  141.2240   76.8530  219.8380 C   0  0  2  0  0  0  0  0  0  0  0  0
  140.6890   77.8760  220.7720 C   0  0  0  0  0  0  0  0  0  0  0  0
  139.3560   78.2590  220.7750 C   0  0  0  0  0  0  0  0  0  0  0  0
  138.9040   79.2280  221.6770 C   0  0  0  0  0  0  0  0  0  0  0  0
  139.7580   79.8270  222.5810 C   0  0  0  0  0  0  0  0  0  0  0  0
  141.0850   79.4470  222.5800 C   0  0  0  0  0  0  0  0  0  0  0  0
  142.0810   80.0340  223.5150 C   0  0  0  0  0  0  0  0  0  0  0  0
  141.6580   81.2360  224.0180 F   0  0  0  0  0  0  0  0  0  0  0  0
  142.2010   79.1620  224.6060 F   0  0  0  0  0  0  0  0  0  0  0  0
  143.3440   80.1040  222.9590 F   0  0  0  0  0  0  0  0  0  0  0  0
  141.5260   78.4960  221.6940 C   0  0  0  0  0  0  0  0  0  0  0  0
  140.1430   71.4420  223.7840 C   0  0  0  0  0  0  0  0  0  0  0  0
  139.5480   70.2000  223.6510 C   0  0  0  0  0  0  0  0  0  0  0  0
  139.4400   69.3380  224.7380 C   0  0  0  0  0  0  0  0  0  0  0  0
  139.9620   69.8050  225.9380 C   0  0  0  0  0  0  0  0  0  0  0  0
  139.8880   68.9970  227.0580 C   0  0  0  0  0  0  0  0  0  0  0  0
  140.4010   69.4370  228.2740 C   0  0  0  0  0  0  0  0  0  0  0  0
  140.9800   70.6860  228.3350 C   0  0  0  0  0  0  0  0  0  0  0  0
  141.0700   71.5220  227.2260 C   0  0  0  0  0  0  0  0  0  0  0  0
  140.5440   71.0480  226.0190 C   0  0  0  0  0  0  0  0  0  0  0  0
  140.6440   71.8820  224.9530 N   0  0  0  0  0  0  0  0  0  0  0  0
  138.4750   73.4890  223.0290 H   0  0  0  0  0  0  0  0  0  0  0  0
  139.7898   73.4269  220.3204 H   0  0  0  0  0  0  0  0  0  0  0  0
  138.4554   74.5049  220.8092 H   0  0  0  0  0  0  0  0  0  0  0  0
  142.6138   73.9891  221.0087 H   0  0  0  0  0  0  0  0  0  0  0  0
  142.1049   73.9697  219.2850 H   0  0  0  0  0  0  0  0  0  0  0  0
  144.0981   75.8203  220.6368 H   0  0  0  0  0  0  0  0  0  0  0  0
  144.3879   74.6076  219.3221 H   0  0  0  0  0  0  0  0  0  0  0  0
  144.3598   76.8952  218.4239 H   0  0  0  0  0  0  0  0  0  0  0  0
  142.9762   75.9192  217.7998 H   0  0  0  0  0  0  0  0  0  0  0  0
  142.9754   78.0352  219.9510 H   0  0  0  0  0  0  0  0  0  0  0  0
  142.1157   77.9999  218.3300 H   0  0  0  0  0  0  0  0  0  0  0  0
  140.4884   76.6437  219.0474 H   0  0  0  0  0  0  0  0  0  0  0  0
  138.6519   77.7993  220.0658 H   0  0  0  0  0  0  0  0  0  0  0  0
  137.8434   79.5194  221.6656 H   0  0  0  0  0  0  0  0  0  0  0  0
  139.3902   80.5883  223.2847 H   0  0  0  0  0  0  0  0  0  0  0  0
  142.5884   78.2115  221.7139 H   0  0  0  0  0  0  0  0  0  0  0  0
  139.1546   69.8895  222.6718 H   0  0  0  0  0  0  0  0  0  0  0  0
  138.9700   68.3472  224.6525 H   0  0  0  0  0  0  0  0  0  0  0  0
  139.4220   68.0031  226.9871 H   0  0  0  0  0  0  0  0  0  0  0  0
  140.3455   68.8003  229.1693 H   0  0  0  0  0  0  0  0  0  0  0  0
  141.3861   71.0352  229.2958 H   0  0  0  0  0  0  0  0  0  0  0  0
  141.5361   72.5159  227.2955 H   0  0  0  0  0  0  0  0  0  0  0  0
  1  2  2  0
  2  3  1  0
  3  4  1  0
  4  5  1  0
  5  6  2  0
  5  7  1  0
  7  8  1  0
  8  9  1  0
  9 10  1  0
 10 11  1  0
 11 12  1  0
 12 13  1  0
 13 14  2  0
 14 15  1  0
 15 16  2  0
 16 17  1  0
 17 18  1  0
 18 19  1  0
 18 20  1  0
 18 21  1  0
 17 22  2  0
  2 23  1  0
 23 24  2  0
 24 25  1  0
 25 26  2  0
 26 27  1  0
 27 28  2  0
 28 29  1  0
 29 30  2  0
 30 31  1  0
 31 32  2  0
 12  7  1  0
 22 13  1  0
 32 23  1  0
 31 26  1  0
  3 33  1  0
  4 34  1  0
  4 35  1  0
  8 36  1  0
  8 37  1  0
  9 38  1  0
  9 39  1  0
 10 40  1  0
 10 41  1  0
 11 42  1  0
 11 43  1  0
 12 44  1  6
 14 45  1  0
 15 46  1  0
 16 47  1  0
 22 48  1  0
 24 49  1  0
 25 50  1  0
 27 51  1  0
 28 52  1  0
 29 53  1  0
 30 54  1  0
M  END
>  <smiles>  (20) 
O=C(NCC(=O)N1CCCCC1c1cccc(C(F)(F)F)c1)c1ccc2ccccc2n1

>  <score_type>  (20) 
oracle

>  <origin>  (20) 
autodockgpu

>  <m_score__min__energy>  (20) 
-9.1799999999999997

>  <m_primary>  (20) 
energy

>  <rmsd>  (20) 
2.048185033036666

>  <m_score__min__rmsd>  (20) 
2.048185033036666

>  <meeko>  (20) 
{"free_energy": -9.07, "intermolecular_energy": -10.86, "internal_energy": -1.67, "cluster_size": 35, "cluster_id": 1, "rank_in_cluster": 7}

>  <energy>  (20) 
-8.89

>  <cluster_rmsd>  (20) 
0.48

>  <cluster>  (20) 
1

$$$$

     RDKit          3D

 54 57  0  0  0  0  0  0  0  0999 V2000
  140.9120   71.4420  221.3670 O   0  0  0  0  0  0  0  0  0  0  0  0
  140.4690   72.0240  222.4000 C   0  0  0  0  0  0  0  0  0  0  0  0
  140.1750   73.4110  222.2540 N   0  0  0  0  0  0  0  0  0  0  0  0
  140.4130   73.9970  220.9500 C   0  0  0  0  0  0  0  0  0  0  0  0
  141.0340   75.3350  221.1610 C   0  0  0  0  0  0  0  0  0  0  0  0
  141.0640   75.7530  222.3490 O   0  0  0  0  0  0  0  0  0  0  0  0
  141.5710   76.1050  220.0670 N   0  0  0  0  0  0  0  0  0  0  0  0
  140.6510   77.0130  219.4150 C   0  0  0  0  0  0  0  0  0  0  0  0
  141.0250   77.1550  217.9680 C   0  0  0  0  0  0  0  0  0  0  0  0
  142.5070   77.4530  217.7990 C   0  0  0  0  0  0  0  0  0  0  0  0
  143.3320   76.3420  218.3570 C   0  0  0  0  0  0  0  0  0  0  0  0
  142.9370   75.9060  219.7340 C   0  0  2  0  0  0  0  0  0  0  0  0
  143.4040   74.5070  219.9120 C   0  0  0  0  0  0  0  0  0  0  0  0
  144.4070   74.1640  220.8070 C   0  0  0  0  0  0  0  0  0  0  0  0
  144.8080   72.8300  220.9360 C   0  0  0  0  0  0  0  0  0  0  0  0
  144.2280   71.8260  220.1870 C   0  0  0  0  0  0  0  0  0  0  0  0
  143.2300   72.1650  219.2960 C   0  0  0  0  0  0  0  0  0  0  0  0
  142.5450   71.1560  218.4460 C   0  0  0  0  0  0  0  0  0  0  0  0
  142.0400   70.1230  219.1920 F   0  0  0  0  0  0  0  0  0  0  0  0
  141.4500   71.7870  217.8410 F   0  0  0  0  0  0  0  0  0  0  0  0
  143.3410   70.7210  217.4040 F   0  0  0  0  0  0  0  0  0  0  0  0
  142.8380   73.4750  219.1710 C   0  0  0  0  0  0  0  0  0  0  0  0
  140.2670   71.3290  223.6690 C   0  0  0  0  0  0  0  0  0  0  0  0
  139.6000   70.1170  223.6240 C   0  0  0  0  0  0  0  0  0  0  0  0
  139.3630   69.3870  224.7850 C   0  0  0  0  0  0  0  0  0  0  0  0
  139.8340   69.9510  225.9640 C   0  0  0  0  0  0  0  0  0  0  0  0
  139.6320   69.2760  227.1550 C   0  0  0  0  0  0  0  0  0  0  0  0
  140.0920   69.8150  228.3520 C   0  0  0  0  0  0  0  0  0  0  0  0
  140.7470   71.0270  228.3230 C   0  0  0  0  0  0  0  0  0  0  0  0
  140.9670   71.7300  227.1420 C   0  0  0  0  0  0  0  0  0  0  0  0
  140.4910   71.1580  225.9570 C   0  0  0  0  0  0  0  0  0  0  0  0
  140.7170   71.8630  224.8190 N   0  0  0  0  0  0  0  0  0  0  0  0
  139.8020   73.9680  223.0670 H   0  0  0  0  0  0  0  0  0  0  0  0
  141.0927   73.3558  220.3696 H   0  0  0  0  0  0  0  0  0  0  0  0
  139.4693   74.0938  220.3931 H   0  0  0  0  0  0  0  0  0  0  0  0
  139.6282   76.6155  219.4915 H   0  0  0  0  0  0  0  0  0  0  0  0
  140.7008   77.9972  219.9037 H   0  0  0  0  0  0  0  0  0  0  0  0
  140.7875   76.2173  217.4443 H   0  0  0  0  0  0  0  0  0  0  0  0
  140.4548   77.9959  217.5464 H   0  0  0  0  0  0  0  0  0  0  0  0
  142.7329   77.5689  216.7287 H   0  0  0  0  0  0  0  0  0  0  0  0
  142.7468   78.3799  218.3406 H   0  0  0  0  0  0  0  0  0  0  0  0
  143.2431   75.4765  217.6839 H   0  0  0  0  0  0  0  0  0  0  0  0
  144.3607   76.7241  218.4330 H   0  0  0  0  0  0  0  0  0  0  0  0
  143.4320   76.5643  220.4631 H   0  0  0  0  0  0  0  0  0  0  0  0
  144.8881   74.9429  221.4167 H   0  0  0  0  0  0  0  0  0  0  0  0
  145.6041   72.5752  221.6510 H   0  0  0  0  0  0  0  0  0  0  0  0
  144.5533   70.7810  220.2976 H   0  0  0  0  0  0  0  0  0  0  0  0
  142.0411   73.7190  218.4531 H   0  0  0  0  0  0  0  0  0  0  0  0
  139.2523   69.7252  222.6568 H   0  0  0  0  0  0  0  0  0  0  0  0
  138.8349   68.4222  224.7700 H   0  0  0  0  0  0  0  0  0  0  0  0
  139.1059   68.3100  227.1552 H   0  0  0  0  0  0  0  0  0  0  0  0
  139.9360   69.2843  229.3028 H   0  0  0  0  0  0  0  0  0  0  0  0
  141.1098   71.4552  229.2691 H   0  0  0  0  0  0  0  0  0  0  0  0
  141.4935   72.6958  227.1403 H   0  0  0  0  0  0  0  0  0  0  0  0
  1  2  2  0
  2  3  1  0
  3  4  1  0
  4  5  1  0
  5  6  2  0
  5  7  1  0
  7  8  1  0
  8  9  1  0
  9 10  1  0
 10 11  1  0
 11 12  1  0
 12 13  1  0
 13 14  2  0
 14 15  1  0
 15 16  2  0
 16 17  1  0
 17 18  1  0
 18 19  1  0
 18 20  1  0
 18 21  1  0
 17 22  2  0
  2 23  1  0
 23 24  2  0
 24 25  1  0
 25 26  2  0
 26 27  1  0
 27 28  2  0
 28 29  1  0
 29 30  2  0
 30 31  1  0
 31 32  2  0
 12  7  1  0
 22 13  1  0
 32 23  1  0
 31 26  1  0
  3 33  1  0
  4 34  1  0
  4 35  1  0
  8 36  1  0
  8 37  1  0
  9 38  1  0
  9 39  1  0
 10 40  1  0
 10 41  1  0
 11 42  1  0
 11 43  1  0
 12 44  1  1
 14 45  1  0
 15 46  1  0
 16 47  1  0
 22 48  1  0
 24 49  1  0
 25 50  1  0
 27 51  1  0
 28 52  1  0
 29 53  1  0
 30 54  1  0
M  END
>  <smiles>  (21) 
O=C(NCC(=O)N1CCCCC1c1cccc(C(F)(F)F)c1)c1ccc2ccccc2n1

>  <score_type>  (21) 
oracle

>  <origin>  (21) 
autodockgpu

>  <m_score__min__energy>  (21) 
-9.1799999999999997

>  <m_primary>  (21) 
energy

>  <rmsd>  (21) 
2.025325390669013

>  <m_score__min__rmsd>  (21) 
2.025325390669013

>  <meeko>  (21) 
{"free_energy": -7.76, "intermolecular_energy": -9.55, "internal_energy": -2.47, "cluster_size": 12, "cluster_id": 3, "rank_in_cluster": 12}

>  <energy>  (21) 
-8.88

>  <cluster_rmsd>  (21) 
1.86

>  <cluster>  (21) 
1

$$$$

     RDKit          3D

 54 57  0  0  0  0  0  0  0  0999 V2000
  140.6840   71.2360  221.2240 O   0  0  0  0  0  0  0  0  0  0  0  0
  140.3700   71.8950  222.2580 C   0  0  0  0  0  0  0  0  0  0  0  0
  140.1740   73.2950  222.0680 N   0  0  0  0  0  0  0  0  0  0  0  0
  140.3550   73.8040  220.7230 C   0  0  0  0  0  0  0  0  0  0  0  0
  141.0720   75.1060  220.8250 C   0  0  0  0  0  0  0  0  0  0  0  0
  141.3410   75.5040  221.9890 O   0  0  0  0  0  0  0  0  0  0  0  0
  141.4370   75.8650  219.6540 N   0  0  0  0  0  0  0  0  0  0  0  0
  140.3420   76.4170  218.8850 C   0  0  0  0  0  0  0  0  0  0  0  0
  140.7320   76.4940  217.4370 C   0  0  0  0  0  0  0  0  0  0  0  0
  142.0900   77.1550  217.2570 C   0  0  0  0  0  0  0  0  0  0  0  0
  143.1510   76.3730  217.9560 C   0  0  0  0  0  0  0  0  0  0  0  0
  142.8210   76.0020  219.3680 C   0  0  2  0  0  0  0  0  0  0  0  0
  143.6300   74.8070  219.7190 C   0  0  0  0  0  0  0  0  0  0  0  0
  144.7910   74.8870  220.4740 C   0  0  0  0  0  0  0  0  0  0  0  0
  145.5160   73.7290  220.7760 C   0  0  0  0  0  0  0  0  0  0  0  0
  145.1060   72.4860  220.3370 C   0  0  0  0  0  0  0  0  0  0  0  0
  143.9510   72.4040  219.5850 C   0  0  0  0  0  0  0  0  0  0  0  0
  143.4290   71.1120  219.0680 C   0  0  0  0  0  0  0  0  0  0  0  0
  142.5000   71.3000  218.0780 F   0  0  0  0  0  0  0  0  0  0  0  0
  144.5030   70.4250  218.4850 F   0  0  0  0  0  0  0  0  0  0  0  0
  142.9710   70.2880  220.0780 F   0  0  0  0  0  0  0  0  0  0  0  0
  143.2420   73.5410  219.2900 C   0  0  0  0  0  0  0  0  0  0  0  0
  140.2140   71.2730  223.5720 C   0  0  0  0  0  0  0  0  0  0  0  0
  139.5670   70.0500  223.6160 C   0  0  0  0  0  0  0  0  0  0  0  0
  139.3750   69.3860  224.8230 C   0  0  0  0  0  0  0  0  0  0  0  0
  139.8670   70.0260  225.9540 C   0  0  0  0  0  0  0  0  0  0  0  0
  139.7080   69.4200  227.1870 C   0  0  0  0  0  0  0  0  0  0  0  0
  140.1910   70.0360  228.3380 C   0  0  0  0  0  0  0  0  0  0  0  0
  140.8240   71.2540  228.2200 C   0  0  0  0  0  0  0  0  0  0  0  0
  140.9990   71.8890  226.9940 C   0  0  0  0  0  0  0  0  0  0  0  0
  140.5020   71.2420  225.8580 C   0  0  0  0  0  0  0  0  0  0  0  0
  140.6850   71.8810  224.6750 N   0  0  0  0  0  0  0  0  0  0  0  0
  139.9110   73.9130  222.8790 H   0  0  0  0  0  0  0  0  0  0  0  0
  140.9503   73.0937  220.1304 H   0  0  0  0  0  0  0  0  0  0  0  0
  139.3823   73.9373  220.2270 H   0  0  0  0  0  0  0  0  0  0  0  0
  139.4576   75.7718  218.9921 H   0  0  0  0  0  0  0  0  0  0  0  0
  140.1083   77.4264  219.2546 H   0  0  0  0  0  0  0  0  0  0  0  0
  140.7733   75.4754  217.0238 H   0  0  0  0  0  0  0  0  0  0  0  0
  139.9813   77.1016  216.9104 H   0  0  0  0  0  0  0  0  0  0  0  0
  142.3272   77.2076  216.1842 H   0  0  0  0  0  0  0  0  0  0  0  0
  142.0523   78.1662  217.6883 H   0  0  0  0  0  0  0  0  0  0  0  0
  143.3245   75.4465  217.3891 H   0  0  0  0  0  0  0  0  0  0  0  0
  144.0381   77.0218  218.0025 H   0  0  0  0  0  0  0  0  0  0  0  0
  143.0915   76.8452  220.0206 H   0  0  0  0  0  0  0  0  0  0  0  0
  145.1429   75.8641  220.8365 H   0  0  0  0  0  0  0  0  0  0  0  0
  146.4337   73.8109  221.3770 H   0  0  0  0  0  0  0  0  0  0  0  0
  145.6853   71.5831  220.5804 H   0  0  0  0  0  0  0  0  0  0  0  0
  142.3263   73.4479  218.6877 H   0  0  0  0  0  0  0  0  0  0  0  0
  139.1996   69.5970  222.6834 H   0  0  0  0  0  0  0  0  0  0  0  0
  138.8646   68.4132  224.8788 H   0  0  0  0  0  0  0  0  0  0  0  0
  139.1981   68.4479  227.2583 H   0  0  0  0  0  0  0  0  0  0  0  0
  140.0697   69.5598  229.3221 H   0  0  0  0  0  0  0  0  0  0  0  0
  141.2053   71.7428  229.1287 H   0  0  0  0  0  0  0  0  0  0  0  0
  141.5081   72.8614  226.9213 H   0  0  0  0  0  0  0  0  0  0  0  0
  1  2  2  0
  2  3  1  0
  3  4  1  0
  4  5  1  0
  5  6  2  0
  5  7  1  0
  7  8  1  0
  8  9  1  0
  9 10  1  0
 10 11  1  0
 11 12  1  0
 12 13  1  0
 13 14  2  0
 14 15  1  0
 15 16  2  0
 16 17  1  0
 17 18  1  0
 18 19  1  0
 18 20  1  0
 18 21  1  0
 17 22  2  0
  2 23  1  0
 23 24  2  0
 24 25  1  0
 25 26  2  0
 26 27  1  0
 27 28  2  0
 28 29  1  0
 29 30  2  0
 30 31  1  0
 31 32  2  0
 12  7  1  0
 22 13  1  0
 32 23  1  0
 31 26  1  0
  3 33  1  0
  4 34  1  0
  4 35  1  0
  8 36  1  0
  8 37  1  0
  9 38  1  0
  9 39  1  0
 10 40  1  0
 10 41  1  0
 11 42  1  0
 11 43  1  0
 12 44  1  1
 14 45  1  0
 15 46  1  0
 16 47  1  0
 22 48  1  0
 24 49  1  0
 25 50  1  0
 27 51  1  0
 28 52  1  0
 29 53  1  0
 30 54  1  0
M  END
>  <smiles>  (22) 
O=C(NCC(=O)N1CCCCC1c1cccc(C(F)(F)F)c1)c1ccc2ccccc2n1

>  <score_type>  (22) 
oracle

>  <origin>  (22) 
autodockgpu

>  <m_score__min__energy>  (22) 
-9.1799999999999997

>  <m_primary>  (22) 
energy

>  <rmsd>  (22) 
1.8533210801971163

>  <m_score__min__rmsd>  (22) 
1.8533210801971163

>  <meeko>  (22) 
{"free_energy": -7.85, "intermolecular_energy": -9.64, "internal_energy": -2.34, "cluster_size": 12, "cluster_id": 3, "rank_in_cluster": 11}

>  <energy>  (22) 
-8.85

>  <cluster_rmsd>  (22) 
1.79

>  <cluster>  (22) 
1

$$$$

     RDKit          3D

 54 57  0  0  0  0  0  0  0  0999 V2000
  140.7700   71.6020  221.3840 O   0  0  0  0  0  0  0  0  0  0  0  0
  140.2700   72.0970  222.4360 C   0  0  0  0  0  0  0  0  0  0  0  0
  139.7990   73.4390  222.3290 N   0  0  0  0  0  0  0  0  0  0  0  0
  139.9450   74.0820  221.0380 C   0  0  0  0  0  0  0  0  0  0  0  0
  140.7390   75.3260  221.2390 C   0  0  0  0  0  0  0  0  0  0  0  0
  140.7540   75.7940  222.4090 O   0  0  0  0  0  0  0  0  0  0  0  0
  141.4520   75.9560  220.1550 N   0  0  0  0  0  0  0  0  0  0  0  0
  142.5410   75.1950  219.5810 C   0  0  0  0  0  0  0  0  0  0  0  0
  143.5980   76.1330  219.0730 C   0  0  0  0  0  0  0  0  0  0  0  0
  143.0020   77.2280  218.2020 C   0  0  0  0  0  0  0  0  0  0  0  0
  142.0280   78.0460  218.9820 C   0  0  0  0  0  0  0  0  0  0  0  0
  141.0230   77.2480  219.7530 C   0  0  2  0  0  0  0  0  0  0  0  0
  140.5390   78.0970  220.8710 C   0  0  0  0  0  0  0  0  0  0  0  0
  139.2000   78.1690  221.2280 C   0  0  0  0  0  0  0  0  0  0  0  0
  138.7970   78.9850  222.2900 C   0  0  0  0  0  0  0  0  0  0  0  0
  139.7070   79.7370  223.0080 C   0  0  0  0  0  0  0  0  0  0  0  0
  141.0390   79.6670  222.6550 C   0  0  0  0  0  0  0  0  0  0  0  0
  142.0920   80.4380  223.3660 C   0  0  0  0  0  0  0  0  0  0  0  0
  143.0860   80.8440  222.5150 F   0  0  0  0  0  0  0  0  0  0  0  0
  141.4950   81.6020  223.8700 F   0  0  0  0  0  0  0  0  0  0  0  0
  142.5780   79.7660  224.4710 F   0  0  0  0  0  0  0  0  0  0  0  0
  141.4320   78.8650  221.6120 C   0  0  0  0  0  0  0  0  0  0  0  0
  140.1740   71.3510  223.6890 C   0  0  0  0  0  0  0  0  0  0  0  0
  139.5780   70.1030  223.6350 C   0  0  0  0  0  0  0  0  0  0  0  0
  139.4440   69.3230  224.7790 C   0  0  0  0  0  0  0  0  0  0  0  0
  139.9400   69.8770  225.9530 C   0  0  0  0  0  0  0  0  0  0  0  0
  139.8390   69.1540  227.1280 C   0  0  0  0  0  0  0  0  0  0  0  0
  140.3260   69.6820  228.3190 C   0  0  0  0  0  0  0  0  0  0  0  0
  140.9070   70.9310  228.3010 C   0  0  0  0  0  0  0  0  0  0  0  0
  141.0240   71.6840  227.1350 C   0  0  0  0  0  0  0  0  0  0  0  0
  140.5240   71.1220  225.9550 C   0  0  0  0  0  0  0  0  0  0  0  0
  140.6490   71.8750  224.8330 N   0  0  0  0  0  0  0  0  0  0  0  0
  139.3700   73.9230  223.1590 H   0  0  0  0  0  0  0  0  0  0  0  0
  140.4700   73.4108  220.3424 H   0  0  0  0  0  0  0  0  0  0  0  0
  138.9590   74.3189  220.6118 H   0  0  0  0  0  0  0  0  0  0  0  0
  142.9735   74.5378  220.3498 H   0  0  0  0  0  0  0  0  0  0  0  0
  142.1616   74.5861  218.7472 H   0  0  0  0  0  0  0  0  0  0  0  0
  144.1065   76.5965  219.9312 H   0  0  0  0  0  0  0  0  0  0  0  0
  144.3069   75.5547  218.4622 H   0  0  0  0  0  0  0  0  0  0  0  0
  143.8097   77.8789  217.8360 H   0  0  0  0  0  0  0  0  0  0  0  0
  142.4766   76.7619  217.3554 H   0  0  0  0  0  0  0  0  0  0  0  0
  142.5927   78.6664  219.6934 H   0  0  0  0  0  0  0  0  0  0  0  0
  141.4607   78.6389  218.2495 H   0  0  0  0  0  0  0  0  0  0  0  0
  140.1886   76.9973  219.0816 H   0  0  0  0  0  0  0  0  0  0  0  0
  138.4528   77.5821  220.6737 H   0  0  0  0  0  0  0  0  0  0  0  0
  137.7315   79.0291  222.5597 H   0  0  0  0  0  0  0  0  0  0  0  0
  139.3776   80.3759  223.8407 H   0  0  0  0  0  0  0  0  0  0  0  0
  142.4999   78.8280  221.3507 H   0  0  0  0  0  0  0  0  0  0  0  0
  139.2047   69.7222  222.6729 H   0  0  0  0  0  0  0  0  0  0  0  0
  138.9742   68.3286  224.7558 H   0  0  0  0  0  0  0  0  0  0  0  0
  139.3719   68.1581  227.1204 H   0  0  0  0  0  0  0  0  0  0  0  0
  140.2487   69.1132  229.2573 H   0  0  0  0  0  0  0  0  0  0  0  0
  141.2928   71.3492  229.2424 H   0  0  0  0  0  0  0  0  0  0  0  0
  141.4906   72.6801  227.1415 H   0  0  0  0  0  0  0  0  0  0  0  0
  1  2  2  0
  2  3  1  0
  3  4  1  0
  4  5  1  0
  5  6  2  0
  5  7  1  0
  7  8  1  0
  8  9  1  0
  9 10  1  0
 10 11  1  0
 11 12  1  0
 12 13  1  0
 13 14  2  0
 14 15  1  0
 15 16  2  0
 16 17  1  0
 17 18  1  0
 18 19  1  0
 18 20  1  0
 18 21  1  0
 17 22  2  0
  2 23  1  0
 23 24  2  0
 24 25  1  0
 25 26  2  0
 26 27  1  0
 27 28  2  0
 28 29  1  0
 29 30  2  0
 30 31  1  0
 31 32  2  0
 12  7  1  0
 22 13  1  0
 32 23  1  0
 31 26  1  0
  3 33  1  0
  4 34  1  0
  4 35  1  0
  8 36  1  0
  8 37  1  0
  9 38  1  0
  9 39  1  0
 10 40  1  0
 10 41  1  0
 11 42  1  0
 11 43  1  0
 12 44  1  6
 14 45  1  0
 15 46  1  0
 16 47  1  0
 22 48  1  0
 24 49  1  0
 25 50  1  0
 27 51  1  0
 28 52  1  0
 29 53  1  0
 30 54  1  0
M  END
>  <smiles>  (23) 
O=C(NCC(=O)N1CCCCC1c1cccc(C(F)(F)F)c1)c1ccc2ccccc2n1

>  <score_type>  (23) 
oracle

>  <origin>  (23) 
autodockgpu

>  <m_score__min__energy>  (23) 
-9.1799999999999997

>  <m_primary>  (23) 
energy

>  <rmsd>  (23) 
2.0197111837150072

>  <m_score__min__rmsd>  (23) 
2.0197111837150072

>  <meeko>  (23) 
{"free_energy": -8.89, "intermolecular_energy": -10.68, "internal_energy": -1.8, "cluster_size": 35, "cluster_id": 1, "rank_in_cluster": 20}

>  <energy>  (23) 
-8.83

>  <cluster_rmsd>  (23) 
0.56

>  <cluster>  (23) 
1

$$$$

     RDKit          3D

 54 57  0  0  0  0  0  0  0  0999 V2000
  140.6830   71.5210  221.3540 O   0  0  0  0  0  0  0  0  0  0  0  0
  140.2760   72.0670  222.4210 C   0  0  0  0  0  0  0  0  0  0  0  0
  139.9230   73.4450  222.3190 N   0  0  0  0  0  0  0  0  0  0  0  0
  140.0660   74.0620  221.0160 C   0  0  0  0  0  0  0  0  0  0  0  0
  140.7690   75.3620  221.2060 C   0  0  0  0  0  0  0  0  0  0  0  0
  140.8090   75.8060  222.3840 O   0  0  0  0  0  0  0  0  0  0  0  0
  141.3690   76.0700  220.1020 N   0  0  0  0  0  0  0  0  0  0  0  0
  142.4080   75.3640  219.3820 C   0  0  0  0  0  0  0  0  0  0  0  0
  143.4020   76.3490  218.8380 C   0  0  0  0  0  0  0  0  0  0  0  0
  142.7160   77.4860  218.0980 C   0  0  0  0  0  0  0  0  0  0  0  0
  141.8110   78.2380  219.0150 C   0  0  0  0  0  0  0  0  0  0  0  0
  140.8920   77.3780  219.8250 C   0  0  2  0  0  0  0  0  0  0  0  0
  140.5060   78.1480  221.0350 C   0  0  0  0  0  0  0  0  0  0  0  0
  139.2180   78.1340  221.5490 C   0  0  0  0  0  0  0  0  0  0  0  0
  138.9080   78.8780  222.6930 C   0  0  0  0  0  0  0  0  0  0  0  0
  139.8620   79.6410  223.3370 C   0  0  0  0  0  0  0  0  0  0  0  0
  141.1440   79.6560  222.8280 C   0  0  0  0  0  0  0  0  0  0  0  0
  142.2390   80.4460  223.4510 C   0  0  0  0  0  0  0  0  0  0  0  0
  141.8050   81.6800  223.8570 F   0  0  0  0  0  0  0  0  0  0  0  0
  142.6470   79.7630  224.6050 F   0  0  0  0  0  0  0  0  0  0  0  0
  143.3600   80.5130  222.6470 F   0  0  0  0  0  0  0  0  0  0  0  0
  141.4450   78.9250  221.7060 C   0  0  0  0  0  0  0  0  0  0  0  0
  140.1710   71.3420  223.6860 C   0  0  0  0  0  0  0  0  0  0  0  0
  139.5660   70.0980  223.6500 C   0  0  0  0  0  0  0  0  0  0  0  0
  139.4220   69.3380  224.8070 C   0  0  0  0  0  0  0  0  0  0  0  0
  139.9190   69.9080  225.9730 C   0  0  0  0  0  0  0  0  0  0  0  0
  139.8090   69.2050  227.1590 C   0  0  0  0  0  0  0  0  0  0  0  0
  140.2960   69.7480  228.3430 C   0  0  0  0  0  0  0  0  0  0  0  0
  140.8870   70.9930  228.3060 C   0  0  0  0  0  0  0  0  0  0  0  0
  141.0130   71.7250  227.1290 C   0  0  0  0  0  0  0  0  0  0  0  0
  140.5120   71.1480  225.9570 C   0  0  0  0  0  0  0  0  0  0  0  0
  140.6470   71.8810  224.8230 N   0  0  0  0  0  0  0  0  0  0  0  0
  139.5750   73.9720  223.1620 H   0  0  0  0  0  0  0  0  0  0  0  0
  140.6560   73.4099  220.3552 H   0  0  0  0  0  0  0  0  0  0  0  0
  139.0803   74.2205  220.5541 H   0  0  0  0  0  0  0  0  0  0  0  0
  142.9181   74.6680  220.0643 H   0  0  0  0  0  0  0  0  0  0  0  0
  141.9586   74.8014  218.5505 H   0  0  0  0  0  0  0  0  0  0  0  0
  143.9843   76.7664  219.6727 H   0  0  0  0  0  0  0  0  0  0  0  0
  144.0557   75.8214  218.1278 H   0  0  0  0  0  0  0  0  0  0  0  0
  143.4792   78.1714  217.7008 H   0  0  0  0  0  0  0  0  0  0  0  0
  142.1183   77.0650  217.2761 H   0  0  0  0  0  0  0  0  0  0  0  0
  142.4334   78.8231  219.7080 H   0  0  0  0  0  0  0  0  0  0  0  0
  141.1707   78.8649  218.3770 H   0  0  0  0  0  0  0  0  0  0  0  0
  140.0006   77.1564  219.2197 H   0  0  0  0  0  0  0  0  0  0  0  0
  138.4375   77.5361  221.0558 H   0  0  0  0  0  0  0  0  0  0  0  0
  137.8816   78.8545  223.0880 H   0  0  0  0  0  0  0  0  0  0  0  0
  139.6057   80.2230  224.2346 H   0  0  0  0  0  0  0  0  0  0  0  0
  142.4746   78.9548  221.3200 H   0  0  0  0  0  0  0  0  0  0  0  0
  139.1934   69.7040  222.6929 H   0  0  0  0  0  0  0  0  0  0  0  0
  138.9442   68.3472  224.7991 H   0  0  0  0  0  0  0  0  0  0  0  0
  139.3345   68.2126  227.1657 H   0  0  0  0  0  0  0  0  0  0  0  0
  140.2114   69.1952  229.2902 H   0  0  0  0  0  0  0  0  0  0  0  0
  141.2733   71.4238  229.2415 H   0  0  0  0  0  0  0  0  0  0  0  0
  141.4875   72.7174  227.1205 H   0  0  0  0  0  0  0  0  0  0  0  0
  1  2  2  0
  2  3  1  0
  3  4  1  0
  4  5  1  0
  5  6  2  0
  5  7  1  0
  7  8  1  0
  8  9  1  0
  9 10  1  0
 10 11  1  0
 11 12  1  0
 12 13  1  0
 13 14  2  0
 14 15  1  0
 15 16  2  0
 16 17  1  0
 17 18  1  0
 18 19  1  0
 18 20  1  0
 18 21  1  0
 17 22  2  0
  2 23  1  0
 23 24  2  0
 24 25  1  0
 25 26  2  0
 26 27  1  0
 27 28  2  0
 28 29  1  0
 29 30  2  0
 30 31  1  0
 31 32  2  0
 12  7  1  0
 22 13  1  0
 32 23  1  0
 31 26  1  0
  3 33  1  0
  4 34  1  0
  4 35  1  0
  8 36  1  0
  8 37  1  0
  9 38  1  0
  9 39  1  0
 10 40  1  0
 10 41  1  0
 11 42  1  0
 11 43  1  0
 12 44  1  6
 14 45  1  0
 15 46  1  0
 16 47  1  0
 22 48  1  0
 24 49  1  0
 25 50  1  0
 27 51  1  0
 28 52  1  0
 29 53  1  0
 30 54  1  0
M  END
>  <smiles>  (24) 
O=C(NCC(=O)N1CCCCC1c1cccc(C(F)(F)F)c1)c1ccc2ccccc2n1

>  <score_type>  (24) 
oracle

>  <origin>  (24) 
autodockgpu

>  <m_score__min__energy>  (24) 
-9.1799999999999997

>  <m_primary>  (24) 
energy

>  <rmsd>  (24) 
1.9918268924257378

>  <m_score__min__rmsd>  (24) 
1.9918268924257378

>  <meeko>  (24) 
{"free_energy": -9.03, "intermolecular_energy": -10.82, "internal_energy": -1.85, "cluster_size": 35, "cluster_id": 1, "rank_in_cluster": 13}

>  <energy>  (24) 
-8.83

>  <cluster_rmsd>  (24) 
0.72

>  <cluster>  (24) 
1

$$$$

     RDKit          3D

 54 57  0  0  0  0  0  0  0  0999 V2000
  141.0820   71.8030  221.4910 O   0  0  0  0  0  0  0  0  0  0  0  0
  140.3390   72.1730  222.4460 C   0  0  0  0  0  0  0  0  0  0  0  0
  139.6210   73.3880  222.2410 N   0  0  0  0  0  0  0  0  0  0  0  0
  139.8200   74.0590  220.9720 C   0  0  0  0  0  0  0  0  0  0  0  0
  140.8000   75.1590  221.1900 C   0  0  0  0  0  0  0  0  0  0  0  0
  140.9970   75.5010  222.3870 O   0  0  0  0  0  0  0  0  0  0  0  0
  141.4860   75.7950  220.0930 N   0  0  0  0  0  0  0  0  0  0  0  0
  142.4970   75.0010  219.4270 C   0  0  0  0  0  0  0  0  0  0  0  0
  143.5750   75.9020  218.8960 C   0  0  0  0  0  0  0  0  0  0  0  0
  142.9950   77.0630  218.1040 C   0  0  0  0  0  0  0  0  0  0  0  0
  142.1130   77.8990  218.9700 C   0  0  0  0  0  0  0  0  0  0  0  0
  141.1090   77.1250  219.7670 C   0  0  2  0  0  0  0  0  0  0  0  0
  140.7360   77.9510  220.9430 C   0  0  0  0  0  0  0  0  0  0  0  0
  139.4460   77.9840  221.4530 C   0  0  0  0  0  0  0  0  0  0  0  0
  139.1490   78.7790  222.5640 C   0  0  0  0  0  0  0  0  0  0  0  0
  140.1160   79.5490  223.1810 C   0  0  0  0  0  0  0  0  0  0  0  0
  141.3990   79.5180  222.6750 C   0  0  0  0  0  0  0  0  0  0  0  0
  142.5080   80.3100  223.2690 C   0  0  0  0  0  0  0  0  0  0  0  0
  143.6690   80.1730  222.5550 F   0  0  0  0  0  0  0  0  0  0  0  0
  142.1480   81.6620  223.1940 F   0  0  0  0  0  0  0  0  0  0  0  0
  142.6770   80.0490  224.6160 F   0  0  0  0  0  0  0  0  0  0  0  0
  141.6890   78.7360  221.5850 C   0  0  0  0  0  0  0  0  0  0  0  0
  140.2150   71.4120  223.6880 C   0  0  0  0  0  0  0  0  0  0  0  0
  139.5770   70.1860  223.6140 C   0  0  0  0  0  0  0  0  0  0  0  0
  139.4140   69.3950  224.7470 C   0  0  0  0  0  0  0  0  0  0  0  0
  139.9260   69.9140  225.9290 C   0  0  0  0  0  0  0  0  0  0  0  0
  139.7980   69.1770  227.0930 C   0  0  0  0  0  0  0  0  0  0  0  0
  140.3000   69.6710  228.2930 C   0  0  0  0  0  0  0  0  0  0  0  0
  140.9230   70.9000  228.2940 C   0  0  0  0  0  0  0  0  0  0  0  0
  141.0690   71.6650  227.1400 C   0  0  0  0  0  0  0  0  0  0  0  0
  140.5520   71.1380  225.9520 C   0  0  0  0  0  0  0  0  0  0  0  0
  140.7060   71.9030  224.8410 N   0  0  0  0  0  0  0  0  0  0  0  0
  138.9820   73.7640  222.9890 H   0  0  0  0  0  0  0  0  0  0  0  0
  140.2134   73.3484  220.2302 H   0  0  0  0  0  0  0  0  0  0  0  0
  138.8678   74.4605  220.5951 H   0  0  0  0  0  0  0  0  0  0  0  0
  142.9341   74.2893  220.1428 H   0  0  0  0  0  0  0  0  0  0  0  0
  142.0381   74.4491  218.5934 H   0  0  0  0  0  0  0  0  0  0  0  0
  144.1551   76.3010  219.7412 H   0  0  0  0  0  0  0  0  0  0  0  0
  144.2152   75.3126  218.2232 H   0  0  0  0  0  0  0  0  0  0  0  0
  143.8168   77.6840  217.7181 H   0  0  0  0  0  0  0  0  0  0  0  0
  142.3985   76.6622  217.2712 H   0  0  0  0  0  0  0  0  0  0  0  0
  142.7503   78.4582  219.6709 H   0  0  0  0  0  0  0  0  0  0  0  0
  141.5398   78.5512  218.2946 H   0  0  0  0  0  0  0  0  0  0  0  0
  140.2257   76.9485  219.1357 H   0  0  0  0  0  0  0  0  0  0  0  0
  138.6545   77.3828  220.9817 H   0  0  0  0  0  0  0  0  0  0  0  0
  138.1213   78.7917  222.9561 H   0  0  0  0  0  0  0  0  0  0  0  0
  139.8691   80.1712  224.0539 H   0  0  0  0  0  0  0  0  0  0  0  0
  142.7201   78.7295  221.2020 H   0  0  0  0  0  0  0  0  0  0  0  0
  139.1934   69.8320  222.6458 H   0  0  0  0  0  0  0  0  0  0  0  0
  138.9102   68.4179  224.7088 H   0  0  0  0  0  0  0  0  0  0  0  0
  139.2979   68.1976  227.0696 H   0  0  0  0  0  0  0  0  0  0  0  0
  140.2014   69.0916  229.2228 H   0  0  0  0  0  0  0  0  0  0  0  0
  141.3199   71.2914  229.2423 H   0  0  0  0  0  0  0  0  0  0  0  0
  141.5704   72.6438  227.1616 H   0  0  0  0  0  0  0  0  0  0  0  0
  1  2  2  0
  2  3  1  0
  3  4  1  0
  4  5  1  0
  5  6  2  0
  5  7  1  0
  7  8  1  0
  8  9  1  0
  9 10  1  0
 10 11  1  0
 11 12  1  0
 12 13  1  0
 13 14  2  0
 14 15  1  0
 15 16  2  0
 16 17  1  0
 17 18  1  0
 18 19  1  0
 18 20  1  0
 18 21  1  0
 17 22  2  0
  2 23  1  0
 23 24  2  0
 24 25  1  0
 25 26  2  0
 26 27  1  0
 27 28  2  0
 28 29  1  0
 29 30  2  0
 30 31  1  0
 31 32  2  0
 12  7  1  0
 22 13  1  0
 32 23  1  0
 31 26  1  0
  3 33  1  0
  4 34  1  0
  4 35  1  0
  8 36  1  0
  8 37  1  0
  9 38  1  0
  9 39  1  0
 10 40  1  0
 10 41  1  0
 11 42  1  0
 11 43  1  0
 12 44  1  6
 14 45  1  0
 15 46  1  0
 16 47  1  0
 22 48  1  0
 24 49  1  0
 25 50  1  0
 27 51  1  0
 28 52  1  0
 29 53  1  0
 30 54  1  0
M  END
>  <smiles>  (25) 
O=C(NCC(=O)N1CCCCC1c1cccc(C(F)(F)F)c1)c1ccc2ccccc2n1

>  <score_type>  (25) 
oracle

>  <origin>  (25) 
autodockgpu

>  <m_score__min__energy>  (25) 
-9.1799999999999997

>  <m_primary>  (25) 
energy

>  <rmsd>  (25) 
1.9805975067547819

>  <m_score__min__rmsd>  (25) 
1.9805975067547819

>  <meeko>  (25) 
{"free_energy": -9.07, "intermolecular_energy": -10.86, "internal_energy": -1.64, "cluster_size": 35, "cluster_id": 1, "rank_in_cluster": 8}

>  <energy>  (25) 
-8.82

>  <cluster_rmsd>  (25) 
0.53

>  <cluster>  (25) 
1

$$$$

     RDKit          3D

 54 57  0  0  0  0  0  0  0  0999 V2000
  140.7820   71.4590  221.3500 O   0  0  0  0  0  0  0  0  0  0  0  0
  140.3740   72.0330  222.4020 C   0  0  0  0  0  0  0  0  0  0  0  0
  140.0660   73.4190  222.2740 N   0  0  0  0  0  0  0  0  0  0  0  0
  140.2520   74.0130  220.9650 C   0  0  0  0  0  0  0  0  0  0  0  0
  140.9950   75.2910  221.1490 C   0  0  0  0  0  0  0  0  0  0  0  0
  141.1490   75.6790  222.3380 O   0  0  0  0  0  0  0  0  0  0  0  0
  141.5090   76.0390  220.0290 N   0  0  0  0  0  0  0  0  0  0  0  0
  140.5470   76.8430  219.3050 C   0  0  0  0  0  0  0  0  0  0  0  0
  140.9530   76.9360  217.8620 C   0  0  0  0  0  0  0  0  0  0  0  0
  142.4150   77.3310  217.7160 C   0  0  0  0  0  0  0  0  0  0  0  0
  143.2990   76.3140  218.3560 C   0  0  0  0  0  0  0  0  0  0  0  0
  142.8950   75.9230  219.7430 C   0  0  2  0  0  0  0  0  0  0  0  0
  143.4540   74.5730  220.0100 C   0  0  0  0  0  0  0  0  0  0  0  0
  144.5460   74.3680  220.8410 C   0  0  0  0  0  0  0  0  0  0  0  0
  145.0320   73.0750  221.0580 C   0  0  0  0  0  0  0  0  0  0  0  0
  144.4500   71.9750  220.4590 C   0  0  0  0  0  0  0  0  0  0  0  0
  143.3640   72.1760  219.6320 C   0  0  0  0  0  0  0  0  0  0  0  0
  142.6700   71.0560  218.9440 C   0  0  0  0  0  0  0  0  0  0  0  0
  142.5370   69.9630  219.7590 F   0  0  0  0  0  0  0  0  0  0  0  0
  141.3720   71.4880  218.6380 F   0  0  0  0  0  0  0  0  0  0  0  0
  143.2500   70.7470  217.7290 F   0  0  0  0  0  0  0  0  0  0  0  0
  142.8880   73.4460  219.4210 C   0  0  0  0  0  0  0  0  0  0  0  0
  140.2240   71.3300  223.6750 C   0  0  0  0  0  0  0  0  0  0  0  0
  139.5810   70.1050  223.6460 C   0  0  0  0  0  0  0  0  0  0  0  0
  139.3930   69.3670  224.8100 C   0  0  0  0  0  0  0  0  0  0  0  0
  139.8870   69.9380  225.9770 C   0  0  0  0  0  0  0  0  0  0  0  0
  139.7340   69.2560  227.1700 C   0  0  0  0  0  0  0  0  0  0  0  0
  140.2180   69.8010  228.3550 C   0  0  0  0  0  0  0  0  0  0  0  0
  140.8480   71.0250  228.3110 C   0  0  0  0  0  0  0  0  0  0  0  0
  141.0190   71.7360  227.1260 C   0  0  0  0  0  0  0  0  0  0  0  0
  140.5200   71.1580  225.9540 C   0  0  0  0  0  0  0  0  0  0  0  0
  140.6970   71.8700  224.8120 N   0  0  0  0  0  0  0  0  0  0  0  0
  139.7210   73.9690  223.1040 H   0  0  0  0  0  0  0  0  0  0  0  0
  140.8307   73.3322  220.3235 H   0  0  0  0  0  0  0  0  0  0  0  0
  139.2801   74.1982  220.4843 H   0  0  0  0  0  0  0  0  0  0  0  0
  139.5530   76.3773  219.3764 H   0  0  0  0  0  0  0  0  0  0  0  0
  140.5127   77.8524  219.7408 H   0  0  0  0  0  0  0  0  0  0  0  0
  140.7981   75.9576  217.3838 H   0  0  0  0  0  0  0  0  0  0  0  0
  140.3376   77.7103  217.3806 H   0  0  0  0  0  0  0  0  0  0  0  0
  142.6645   77.4058  216.6473 H   0  0  0  0  0  0  0  0  0  0  0  0
  142.5721   78.3003  218.2117 H   0  0  0  0  0  0  0  0  0  0  0  0
  143.2925   75.4103  217.7290 H   0  0  0  0  0  0  0  0  0  0  0  0
  144.2948   76.7739  218.4389 H   0  0  0  0  0  0  0  0  0  0  0  0
  143.3206   76.6532  220.4470 H   0  0  0  0  0  0  0  0  0  0  0  0
  145.0310   75.2254  221.3307 H   0  0  0  0  0  0  0  0  0  0  0  0
  145.8978   72.9306  221.7210 H   0  0  0  0  0  0  0  0  0  0  0  0
  144.8428   70.9631  220.6370 H   0  0  0  0  0  0  0  0  0  0  0  0
  142.0210   73.5790  218.7572 H   0  0  0  0  0  0  0  0  0  0  0  0
  139.2130   69.7089  222.6880 H   0  0  0  0  0  0  0  0  0  0  0  0
  138.8847   68.3915  224.8071 H   0  0  0  0  0  0  0  0  0  0  0  0
  139.2280   68.2794  227.1822 H   0  0  0  0  0  0  0  0  0  0  0  0
  140.0999   69.2650  229.3083 H   0  0  0  0  0  0  0  0  0  0  0  0
  141.2306   71.4572  229.2474 H   0  0  0  0  0  0  0  0  0  0  0  0
  141.5257   72.7122  227.1121 H   0  0  0  0  0  0  0  0  0  0  0  0
  1  2  2  0
  2  3  1  0
  3  4  1  0
  4  5  1  0
  5  6  2  0
  5  7  1  0
  7  8  1  0
  8  9  1  0
  9 10  1  0
 10 11  1  0
 11 12  1  0
 12 13  1  0
 13 14  2  0
 14 15  1  0
 15 16  2  0
 16 17  1  0
 17 18  1  0
 18 19  1  0
 18 20  1  0
 18 21  1  0
 17 22  2  0
  2 23  1  0
 23 24  2  0
 24 25  1  0
 25 26  2  0
 26 27  1  0
 27 28  2  0
 28 29  1  0
 29 30  2  0
 30 31  1  0
 31 32  2  0
 12  7  1  0
 22 13  1  0
 32 23  1  0
 31 26  1  0
  3 33  1  0
  4 34  1  0
  4 35  1  0
  8 36  1  0
  8 37  1  0
  9 38  1  0
  9 39  1  0
 10 40  1  0
 10 41  1  0
 11 42  1  0
 11 43  1  0
 12 44  1  1
 14 45  1  0
 15 46  1  0
 16 47  1  0
 22 48  1  0
 24 49  1  0
 25 50  1  0
 27 51  1  0
 28 52  1  0
 29 53  1  0
 30 54  1  0
M  END
>  <smiles>  (26) 
O=C(NCC(=O)N1CCCCC1c1cccc(C(F)(F)F)c1)c1ccc2ccccc2n1

>  <score_type>  (26) 
oracle

>  <origin>  (26) 
autodockgpu

>  <m_score__min__energy>  (26) 
-9.1799999999999997

>  <m_primary>  (26) 
energy

>  <rmsd>  (26) 
1.9432082764315612

>  <m_score__min__rmsd>  (26) 
1.9432082764315612

>  <meeko>  (26) 
{"free_energy": -7.9, "intermolecular_energy": -9.69, "internal_energy": -2.43, "cluster_size": 12, "cluster_id": 3, "rank_in_cluster": 5}

>  <energy>  (26) 
-8.82

>  <cluster_rmsd>  (26) 
0.67

>  <cluster>  (26) 
1

$$$$

     RDKit          3D

 54 57  0  0  0  0  0  0  0  0999 V2000
  140.7740   71.4200  221.3390 O   0  0  0  0  0  0  0  0  0  0  0  0
  140.3690   72.0000  222.3880 C   0  0  0  0  0  0  0  0  0  0  0  0
  140.0780   73.3900  222.2580 N   0  0  0  0  0  0  0  0  0  0  0  0
  140.2750   73.9800  220.9490 C   0  0  0  0  0  0  0  0  0  0  0  0
  141.0020   75.2660  221.1370 C   0  0  0  0  0  0  0  0  0  0  0  0
  141.1380   75.6600  222.3260 O   0  0  0  0  0  0  0  0  0  0  0  0
  141.5210   76.0160  220.0200 N   0  0  0  0  0  0  0  0  0  0  0  0
  140.5630   76.8210  219.2920 C   0  0  0  0  0  0  0  0  0  0  0  0
  140.9760   76.9160  217.8510 C   0  0  0  0  0  0  0  0  0  0  0  0
  142.4380   77.3110  217.7130 C   0  0  0  0  0  0  0  0  0  0  0  0
  143.3190   76.2930  218.3550 C   0  0  0  0  0  0  0  0  0  0  0  0
  142.9080   75.9000  219.7400 C   0  0  2  0  0  0  0  0  0  0  0  0
  143.4660   74.5500  220.0070 C   0  0  0  0  0  0  0  0  0  0  0  0
  144.5530   74.3430  220.8450 C   0  0  0  0  0  0  0  0  0  0  0  0
  145.0380   73.0500  221.0620 C   0  0  0  0  0  0  0  0  0  0  0  0
  144.4600   71.9510  220.4580 C   0  0  0  0  0  0  0  0  0  0  0  0
  143.3790   72.1540  219.6250 C   0  0  0  0  0  0  0  0  0  0  0  0
  142.6890   71.0350  218.9300 C   0  0  0  0  0  0  0  0  0  0  0  0
  142.5630   69.9370  219.7390 F   0  0  0  0  0  0  0  0  0  0  0  0
  141.3900   71.4630  218.6270 F   0  0  0  0  0  0  0  0  0  0  0  0
  143.2710   70.7360  217.7130 F   0  0  0  0  0  0  0  0  0  0  0  0
  142.9040   73.4240  219.4130 C   0  0  0  0  0  0  0  0  0  0  0  0
  140.2060   71.3010  223.6620 C   0  0  0  0  0  0  0  0  0  0  0  0
  139.5560   70.0800  223.6300 C   0  0  0  0  0  0  0  0  0  0  0  0
  139.3560   69.3460  224.7950 C   0  0  0  0  0  0  0  0  0  0  0  0
  139.8450   69.9160  225.9640 C   0  0  0  0  0  0  0  0  0  0  0  0
  139.6800   69.2370  227.1580 C   0  0  0  0  0  0  0  0  0  0  0  0
  140.1590   69.7820  228.3450 C   0  0  0  0  0  0  0  0  0  0  0  0
  140.7960   71.0030  228.3030 C   0  0  0  0  0  0  0  0  0  0  0  0
  140.9790   71.7100  227.1170 C   0  0  0  0  0  0  0  0  0  0  0  0
  140.4850   71.1330  225.9430 C   0  0  0  0  0  0  0  0  0  0  0  0
  140.6740   71.8410  224.8010 N   0  0  0  0  0  0  0  0  0  0  0  0
  139.7360   73.9450  223.0850 H   0  0  0  0  0  0  0  0  0  0  0  0
  140.8691   73.3025  220.3182 H   0  0  0  0  0  0  0  0  0  0  0  0
  139.3076   74.1529  220.4547 H   0  0  0  0  0  0  0  0  0  0  0  0
  139.5686   76.3554  219.3578 H   0  0  0  0  0  0  0  0  0  0  0  0
  140.5270   77.8299  219.7288 H   0  0  0  0  0  0  0  0  0  0  0  0
  140.8234   75.9383  217.3706 H   0  0  0  0  0  0  0  0  0  0  0  0
  140.3629   77.6909  217.3676 H   0  0  0  0  0  0  0  0  0  0  0  0
  142.6926   77.3880  216.6456 H   0  0  0  0  0  0  0  0  0  0  0  0
  142.5926   78.2792  218.2116 H   0  0  0  0  0  0  0  0  0  0  0  0
  143.3153   75.3902  217.7265 H   0  0  0  0  0  0  0  0  0  0  0  0
  144.3147   76.7523  218.4430 H   0  0  0  0  0  0  0  0  0  0  0  0
  143.3297   76.6292  220.4474 H   0  0  0  0  0  0  0  0  0  0  0  0
  145.0344   75.1993  221.3400 H   0  0  0  0  0  0  0  0  0  0  0  0
  145.9002   72.9047  221.7295 H   0  0  0  0  0  0  0  0  0  0  0  0
  144.8517   70.9387  220.6365 H   0  0  0  0  0  0  0  0  0  0  0  0
  142.0411   73.5578  218.7441 H   0  0  0  0  0  0  0  0  0  0  0  0
  139.1923   69.6841  222.6703 H   0  0  0  0  0  0  0  0  0  0  0  0
  138.8420   68.3735  224.7908 H   0  0  0  0  0  0  0  0  0  0  0  0
  139.1685   68.2632  227.1689 H   0  0  0  0  0  0  0  0  0  0  0  0
  140.0317   69.2485  229.2985 H   0  0  0  0  0  0  0  0  0  0  0  0
  141.1741   71.4355  229.2410 H   0  0  0  0  0  0  0  0  0  0  0  0
  141.4916   72.6832  227.1044 H   0  0  0  0  0  0  0  0  0  0  0  0
  1  2  2  0
  2  3  1  0
  3  4  1  0
  4  5  1  0
  5  6  2  0
  5  7  1  0
  7  8  1  0
  8  9  1  0
  9 10  1  0
 10 11  1  0
 11 12  1  0
 12 13  1  0
 13 14  2  0
 14 15  1  0
 15 16  2  0
 16 17  1  0
 17 18  1  0
 18 19  1  0
 18 20  1  0
 18 21  1  0
 17 22  2  0
  2 23  1  0
 23 24  2  0
 24 25  1  0
 25 26  2  0
 26 27  1  0
 27 28  2  0
 28 29  1  0
 29 30  2  0
 30 31  1  0
 31 32  2  0
 12  7  1  0
 22 13  1  0
 32 23  1  0
 31 26  1  0
  3 33  1  0
  4 34  1  0
  4 35  1  0
  8 36  1  0
  8 37  1  0
  9 38  1  0
  9 39  1  0
 10 40  1  0
 10 41  1  0
 11 42  1  0
 11 43  1  0
 12 44  1  1
 14 45  1  0
 15 46  1  0
 16 47  1  0
 22 48  1  0
 24 49  1  0
 25 50  1  0
 27 51  1  0
 28 52  1  0
 29 53  1  0
 30 54  1  0
M  END
>  <smiles>  (27) 
O=C(NCC(=O)N1CCCCC1c1cccc(C(F)(F)F)c1)c1ccc2ccccc2n1

>  <score_type>  (27) 
oracle

>  <origin>  (27) 
autodockgpu

>  <m_score__min__energy>  (27) 
-9.1799999999999997

>  <m_primary>  (27) 
energy

>  <rmsd>  (27) 
1.9425102084378592

>  <m_score__min__rmsd>  (27) 
1.9425102084378592

>  <meeko>  (27) 
{"free_energy": -7.9, "intermolecular_energy": -9.69, "internal_energy": -2.44, "cluster_size": 12, "cluster_id": 3, "rank_in_cluster": 6}

>  <energy>  (27) 
-8.81

>  <cluster_rmsd>  (27) 
1.89

>  <cluster>  (27) 
1

$$$$

     RDKit          3D

 54 57  0  0  0  0  0  0  0  0999 V2000
  140.4190   71.7120  221.2040 O   0  0  0  0  0  0  0  0  0  0  0  0
  140.1090   72.2050  222.3280 C   0  0  0  0  0  0  0  0  0  0  0  0
  139.8370   73.6050  222.3390 N   0  0  0  0  0  0  0  0  0  0  0  0
  139.9450   74.3030  221.0740 C   0  0  0  0  0  0  0  0  0  0  0  0
  140.7040   75.5620  221.3150 C   0  0  0  0  0  0  0  0  0  0  0  0
  140.7780   75.9470  222.5130 O   0  0  0  0  0  0  0  0  0  0  0  0
  141.3180   76.2980  220.2370 N   0  0  0  0  0  0  0  0  0  0  0  0
  142.2080   75.5460  219.3790 C   0  0  0  0  0  0  0  0  0  0  0  0
  143.2840   76.4510  218.8510 C   0  0  0  0  0  0  0  0  0  0  0  0
  142.7030   77.7320  218.2720 C   0  0  0  0  0  0  0  0  0  0  0  0
  141.9630   78.4930  219.3200 C   0  0  0  0  0  0  0  0  0  0  0  0
  140.9950   77.6750  220.1160 C   0  0  2  0  0  0  0  0  0  0  0  0
  140.7910   78.3620  221.4170 C   0  0  0  0  0  0  0  0  0  0  0  0
  141.8350   78.6410  222.2870 C   0  0  0  0  0  0  0  0  0  0  0  0
  141.5870   79.2920  223.5000 C   0  0  0  0  0  0  0  0  0  0  0  0
  140.3110   79.6710  223.8670 C   0  0  0  0  0  0  0  0  0  0  0  0
  139.2710   79.3940  223.0040 C   0  0  0  0  0  0  0  0  0  0  0  0
  137.8630   79.7630  223.3110 C   0  0  0  0  0  0  0  0  0  0  0  0
  137.3630   80.6570  222.4010 F   0  0  0  0  0  0  0  0  0  0  0  0
  137.0880   78.6010  223.1990 F   0  0  0  0  0  0  0  0  0  0  0  0
  137.7040   80.1870  224.6160 F   0  0  0  0  0  0  0  0  0  0  0  0
  139.5170   78.7560  221.8140 C   0  0  0  0  0  0  0  0  0  0  0  0
  140.0300   71.4010  223.5460 C   0  0  0  0  0  0  0  0  0  0  0  0
  139.4200   70.1620  223.4440 C   0  0  0  0  0  0  0  0  0  0  0  0
  139.3010   69.3300  224.5520 C   0  0  0  0  0  0  0  0  0  0  0  0
  139.8250   69.8230  225.7410 C   0  0  0  0  0  0  0  0  0  0  0  0
  139.7400   69.0450  226.8820 C   0  0  0  0  0  0  0  0  0  0  0  0
  140.2560   69.5110  228.0870 C   0  0  0  0  0  0  0  0  0  0  0  0
  140.8490   70.7540  228.1160 C   0  0  0  0  0  0  0  0  0  0  0  0
  140.9510   71.5600  226.9850 C   0  0  0  0  0  0  0  0  0  0  0  0
  140.4220   71.0600  225.7910 C   0  0  0  0  0  0  0  0  0  0  0  0
  140.5330   71.8650  224.7030 N   0  0  0  0  0  0  0  0  0  0  0  0
  139.5720   74.0910  223.2350 H   0  0  0  0  0  0  0  0  0  0  0  0
  140.4800   73.6767  220.3450 H   0  0  0  0  0  0  0  0  0  0  0  0
  138.9463   74.5263  220.6706 H   0  0  0  0  0  0  0  0  0  0  0  0
  142.6671   74.7286  219.9544 H   0  0  0  0  0  0  0  0  0  0  0  0
  141.6367   75.1283  218.5369 H   0  0  0  0  0  0  0  0  0  0  0  0
  143.9687   76.7088  219.6724 H   0  0  0  0  0  0  0  0  0  0  0  0
  143.8166   75.9206  218.0479 H   0  0  0  0  0  0  0  0  0  0  0  0
  143.5207   78.3558  217.8817 H   0  0  0  0  0  0  0  0  0  0  0  0
  142.0045   77.4710  217.4633 H   0  0  0  0  0  0  0  0  0  0  0  0
  142.6987   78.9256  220.0139 H   0  0  0  0  0  0  0  0  0  0  0  0
  141.3689   79.2537  218.7924 H   0  0  0  0  0  0  0  0  0  0  0  0
  140.0455   77.6247  219.5629 H   0  0  0  0  0  0  0  0  0  0  0  0
  142.8619   78.3491  222.0219 H   0  0  0  0  0  0  0  0  0  0  0  0
  142.4273   79.5068  224.1766 H   0  0  0  0  0  0  0  0  0  0  0  0
  140.1282   80.1813  224.8242 H   0  0  0  0  0  0  0  0  0  0  0  0
  138.6696   78.5469  221.1446 H   0  0  0  0  0  0  0  0  0  0  0  0
  139.0239   69.8311  222.4726 H   0  0  0  0  0  0  0  0  0  0  0  0
  138.8214   68.3420  224.4910 H   0  0  0  0  0  0  0  0  0  0  0  0
  139.2629   68.0549  226.8362 H   0  0  0  0  0  0  0  0  0  0  0  0
  140.1917   68.8989  228.9987 H   0  0  0  0  0  0  0  0  0  0  0  0
  141.2572   71.1237  229.0682 H   0  0  0  0  0  0  0  0  0  0  0  0
  141.4284   72.5500  227.0291 H   0  0  0  0  0  0  0  0  0  0  0  0
  1  2  2  0
  2  3  1  0
  3  4  1  0
  4  5  1  0
  5  6  2  0
  5  7  1  0
  7  8  1  0
  8  9  1  0
  9 10  1  0
 10 11  1  0
 11 12  1  0
 12 13  1  0
 13 14  2  0
 14 15  1  0
 15 16  2  0
 16 17  1  0
 17 18  1  0
 18 19  1  0
 18 20  1  0
 18 21  1  0
 17 22  2  0
  2 23  1  0
 23 24  2  0
 24 25  1  0
 25 26  2  0
 26 27  1  0
 27 28  2  0
 28 29  1  0
 29 30  2  0
 30 31  1  0
 31 32  2  0
 12  7  1  0
 22 13  1  0
 32 23  1  0
 31 26  1  0
  3 33  1  0
  4 34  1  0
  4 35  1  0
  8 36  1  0
  8 37  1  0
  9 38  1  0
  9 39  1  0
 10 40  1  0
 10 41  1  0
 11 42  1  0
 11 43  1  0
 12 44  1  6
 14 45  1  0
 15 46  1  0
 16 47  1  0
 22 48  1  0
 24 49  1  0
 25 50  1  0
 27 51  1  0
 28 52  1  0
 29 53  1  0
 30 54  1  0
M  END
>  <smiles>  (28) 
O=C(NCC(=O)N1CCCCC1c1cccc(C(F)(F)F)c1)c1ccc2ccccc2n1

>  <score_type>  (28) 
oracle

>  <origin>  (28) 
autodockgpu

>  <m_score__min__energy>  (28) 
-9.1799999999999997

>  <m_primary>  (28) 
energy

>  <rmsd>  (28) 
1.9772788494947777

>  <m_score__min__rmsd>  (28) 
1.9772788494947777

>  <meeko>  (28) 
{"free_energy": -8.77, "intermolecular_energy": -10.56, "internal_energy": -1.8, "cluster_size": 35, "cluster_id": 1, "rank_in_cluster": 29}

>  <energy>  (28) 
-8.81

>  <cluster_rmsd>  (28) 
1.84

>  <cluster>  (28) 
1

$$$$

     RDKit          3D

 54 57  0  0  0  0  0  0  0  0999 V2000
  140.6120   71.4870  221.3650 O   0  0  0  0  0  0  0  0  0  0  0  0
  140.2400   72.0280  222.4470 C   0  0  0  0  0  0  0  0  0  0  0  0
  139.8900   73.4080  222.3620 N   0  0  0  0  0  0  0  0  0  0  0  0
  139.9980   74.0330  221.0590 C   0  0  0  0  0  0  0  0  0  0  0  0
  140.7670   75.2970  221.2250 C   0  0  0  0  0  0  0  0  0  0  0  0
  140.7750   75.7960  222.3820 O   0  0  0  0  0  0  0  0  0  0  0  0
  141.4640   75.9130  220.1220 N   0  0  0  0  0  0  0  0  0  0  0  0
  142.5260   75.1330  219.5240 C   0  0  0  0  0  0  0  0  0  0  0  0
  143.5860   76.0520  218.9880 C   0  0  0  0  0  0  0  0  0  0  0  0
  142.9870   77.1560  218.1300 C   0  0  0  0  0  0  0  0  0  0  0  0
  142.0460   77.9910  218.9300 C   0  0  0  0  0  0  0  0  0  0  0  0
  141.0470   77.2120  219.7280 C   0  0  2  0  0  0  0  0  0  0  0  0
  140.6040   78.0710  220.8550 C   0  0  0  0  0  0  0  0  0  0  0  0
  139.2720   78.1910  221.2230 C   0  0  0  0  0  0  0  0  0  0  0  0
  138.9090   79.0150  222.2940 C   0  0  0  0  0  0  0  0  0  0  0  0
  139.8520   79.7260  223.0090 C   0  0  0  0  0  0  0  0  0  0  0  0
  141.1770   79.6090  222.6450 C   0  0  0  0  0  0  0  0  0  0  0  0
  142.2650   80.3340  223.3530 C   0  0  0  0  0  0  0  0  0  0  0  0
  143.3620   80.5110  222.5520 F   0  0  0  0  0  0  0  0  0  0  0  0
  141.7850   81.6140  223.6650 F   0  0  0  0  0  0  0  0  0  0  0  0
  142.5790   79.7530  224.5660 F   0  0  0  0  0  0  0  0  0  0  0  0
  141.5310   78.7990  221.5940 C   0  0  0  0  0  0  0  0  0  0  0  0
  140.1690   71.2970  223.7100 C   0  0  0  0  0  0  0  0  0  0  0  0
  139.5820   70.0440  223.6800 C   0  0  0  0  0  0  0  0  0  0  0  0
  139.4710   69.2780  224.8360 C   0  0  0  0  0  0  0  0  0  0  0  0
  139.9800   69.8500  225.9950 C   0  0  0  0  0  0  0  0  0  0  0  0
  139.9020   69.1410  227.1800 C   0  0  0  0  0  0  0  0  0  0  0  0
  140.4040   69.6870  228.3580 C   0  0  0  0  0  0  0  0  0  0  0  0
  140.9740   70.9410  228.3150 C   0  0  0  0  0  0  0  0  0  0  0  0
  141.0680   71.6790  227.1380 C   0  0  0  0  0  0  0  0  0  0  0  0
  140.5540   71.0990  225.9740 C   0  0  0  0  0  0  0  0  0  0  0  0
  140.6570   71.8390  224.8400 N   0  0  0  0  0  0  0  0  0  0  0  0
  139.5700   73.9320  223.2180 H   0  0  0  0  0  0  0  0  0  0  0  0
  140.5251   73.3624  220.3645 H   0  0  0  0  0  0  0  0  0  0  0  0
  138.9992   74.2411  220.6478 H   0  0  0  0  0  0  0  0  0  0  0  0
  142.9660   74.4705  220.2839 H   0  0  0  0  0  0  0  0  0  0  0  0
  142.1164   74.5287  218.7011 H   0  0  0  0  0  0  0  0  0  0  0  0
  144.1237   76.5079  219.8324 H   0  0  0  0  0  0  0  0  0  0  0  0
  144.2695   75.4608  218.3608 H   0  0  0  0  0  0  0  0  0  0  0  0
  143.7964   77.7929  217.7438 H   0  0  0  0  0  0  0  0  0  0  0  0
  142.4335   76.6970  217.2976 H   0  0  0  0  0  0  0  0  0  0  0  0
  142.6377   78.6044  219.6255 H   0  0  0  0  0  0  0  0  0  0  0  0
  141.4706   78.5904  218.2092 H   0  0  0  0  0  0  0  0  0  0  0  0
  140.1919   76.9744  219.0781 H   0  0  0  0  0  0  0  0  0  0  0  0
  138.4986   77.6366  220.6711 H   0  0  0  0  0  0  0  0  0  0  0  0
  137.8481   79.0982  222.5726 H   0  0  0  0  0  0  0  0  0  0  0  0
  139.5536   80.3705  223.8490 H   0  0  0  0  0  0  0  0  0  0  0  0
  142.5947   78.7224  221.3245 H   0  0  0  0  0  0  0  0  0  0  0  0
  139.1977   69.6481  222.7284 H   0  0  0  0  0  0  0  0  0  0  0  0
  139.0083   68.2801  224.8325 H   0  0  0  0  0  0  0  0  0  0  0  0
  139.4416   68.1421  227.1916 H   0  0  0  0  0  0  0  0  0  0  0  0
  140.3469   69.1288  229.3041 H   0  0  0  0  0  0  0  0  0  0  0  0
  141.3694   71.3751  229.2452 H   0  0  0  0  0  0  0  0  0  0  0  0
  141.5281   72.6781  227.1243 H   0  0  0  0  0  0  0  0  0  0  0  0
  1  2  2  0
  2  3  1  0
  3  4  1  0
  4  5  1  0
  5  6  2  0
  5  7  1  0
  7  8  1  0
  8  9  1  0
  9 10  1  0
 10 11  1  0
 11 12  1  0
 12 13  1  0
 13 14  2  0
 14 15  1  0
 15 16  2  0
 16 17  1  0
 17 18  1  0
 18 19  1  0
 18 20  1  0
 18 21  1  0
 17 22  2  0
  2 23  1  0
 23 24  2  0
 24 25  1  0
 25 26  2  0
 26 27  1  0
 27 28  2  0
 28 29  1  0
 29 30  2  0
 30 31  1  0
 31 32  2  0
 12  7  1  0
 22 13  1  0
 32 23  1  0
 31 26  1  0
  3 33  1  0
  4 34  1  0
  4 35  1  0
  8 36  1  0
  8 37  1  0
  9 38  1  0
  9 39  1  0
 10 40  1  0
 10 41  1  0
 11 42  1  0
 11 43  1  0
 12 44  1  6
 14 45  1  0
 15 46  1  0
 16 47  1  0
 22 48  1  0
 24 49  1  0
 25 50  1  0
 27 51  1  0
 28 52  1  0
 29 53  1  0
 30 54  1  0
M  END
>  <smiles>  (29) 
O=C(NCC(=O)N1CCCCC1c1cccc(C(F)(F)F)c1)c1ccc2ccccc2n1

>  <score_type>  (29) 
oracle

>  <origin>  (29) 
autodockgpu

>  <m_score__min__energy>  (29) 
-9.1799999999999997

>  <m_primary>  (29) 
energy

>  <rmsd>  (29) 
2.002256325777522

>  <m_score__min__rmsd>  (29) 
2.002256325777522

>  <meeko>  (29) 
{"free_energy": -8.93, "intermolecular_energy": -10.72, "internal_energy": -1.88, "cluster_size": 35, "cluster_id": 1, "rank_in_cluster": 18}

>  <energy>  (29) 
-8.77

>  <cluster_rmsd>  (29) 
1.86

>  <cluster>  (29) 
1

$$$$

     RDKit          3D

 54 57  0  0  0  0  0  0  0  0999 V2000
  141.2620   71.9030  221.5790 O   0  0  0  0  0  0  0  0  0  0  0  0
  140.3850   72.1880  222.4470 C   0  0  0  0  0  0  0  0  0  0  0  0
  139.5540   73.3080  222.1460 N   0  0  0  0  0  0  0  0  0  0  0  0
  139.8030   73.9890  220.8920 C   0  0  0  0  0  0  0  0  0  0  0  0
  140.8260   75.0420  221.1440 C   0  0  0  0  0  0  0  0  0  0  0  0
  141.0820   75.2920  222.3520 O   0  0  0  0  0  0  0  0  0  0  0  0
  141.4860   75.7350  220.0650 N   0  0  0  0  0  0  0  0  0  0  0  0
  142.5380   75.0060  219.3890 C   0  0  0  0  0  0  0  0  0  0  0  0
  143.5740   75.9680  218.8840 C   0  0  0  0  0  0  0  0  0  0  0  0
  142.9420   77.1180  218.1150 C   0  0  0  0  0  0  0  0  0  0  0  0
  142.0170   77.8910  218.9940 C   0  0  0  0  0  0  0  0  0  0  0  0
  141.0480   77.0520  219.7660 C   0  0  2  0  0  0  0  0  0  0  0  0
  140.6290   77.8320  220.9580 C   0  0  0  0  0  0  0  0  0  0  0  0
  139.3400   77.7820  221.4690 C   0  0  0  0  0  0  0  0  0  0  0  0
  138.9990   78.5380  222.5960 C   0  0  0  0  0  0  0  0  0  0  0  0
  139.9210   79.3490  223.2260 C   0  0  0  0  0  0  0  0  0  0  0  0
  141.2040   79.4010  222.7200 C   0  0  0  0  0  0  0  0  0  0  0  0
  142.2660   80.2450  223.3290 C   0  0  0  0  0  0  0  0  0  0  0  0
  142.5780   79.8300  224.5970 F   0  0  0  0  0  0  0  0  0  0  0  0
  143.4250   80.0850  222.5580 F   0  0  0  0  0  0  0  0  0  0  0  0
  141.9660   81.5920  223.2690 F   0  0  0  0  0  0  0  0  0  0  0  0
  141.5360   78.6580  221.6150 C   0  0  0  0  0  0  0  0  0  0  0  0
  140.2230   71.4260  223.6830 C   0  0  0  0  0  0  0  0  0  0  0  0
  139.5300   70.2310  223.6000 C   0  0  0  0  0  0  0  0  0  0  0  0
  139.3280   69.4410  224.7270 C   0  0  0  0  0  0  0  0  0  0  0  0
  139.8600   69.9290  225.9140 C   0  0  0  0  0  0  0  0  0  0  0  0
  139.6950   69.1910  227.0730 C   0  0  0  0  0  0  0  0  0  0  0  0
  140.2170   69.6540  228.2770 C   0  0  0  0  0  0  0  0  0  0  0  0
  140.8950   70.8530  228.2880 C   0  0  0  0  0  0  0  0  0  0  0  0
  141.0780   71.6180  227.1380 C   0  0  0  0  0  0  0  0  0  0  0  0
  140.5410   71.1230  225.9450 C   0  0  0  0  0  0  0  0  0  0  0  0
  140.7320   71.8860  224.8400 N   0  0  0  0  0  0  0  0  0  0  0  0
  138.8000   73.6100  222.8170 H   0  0  0  0  0  0  0  0  0  0  0  0
  140.1778   73.2736  220.1451 H   0  0  0  0  0  0  0  0  0  0  0  0
  138.8755   74.4373  220.5062 H   0  0  0  0  0  0  0  0  0  0  0  0
  143.0051   74.3011  220.0925 H   0  0  0  0  0  0  0  0  0  0  0  0
  142.1107   74.4513  218.5407 H   0  0  0  0  0  0  0  0  0  0  0  0
  144.1312   76.3749  219.7407 H   0  0  0  0  0  0  0  0  0  0  0  0
  144.2445   75.4250  218.2017 H   0  0  0  0  0  0  0  0  0  0  0  0
  143.7347   77.7863  217.7477 H   0  0  0  0  0  0  0  0  0  0  0  0
  142.3690   76.7077  217.2704 H   0  0  0  0  0  0  0  0  0  0  0  0
  142.6232   78.4636  219.7114 H   0  0  0  0  0  0  0  0  0  0  0  0
  141.4169   78.5310  218.3304 H   0  0  0  0  0  0  0  0  0  0  0  0
  140.1784   76.8476  219.1241 H   0  0  0  0  0  0  0  0  0  0  0  0
  138.5835   77.1458  220.9864 H   0  0  0  0  0  0  0  0  0  0  0  0
  137.9729   78.4847  222.9887 H   0  0  0  0  0  0  0  0  0  0  0  0
  139.6400   79.9398  224.1103 H   0  0  0  0  0  0  0  0  0  0  0  0
  142.5652   78.7180  221.2314 H   0  0  0  0  0  0  0  0  0  0  0  0
  139.1331   69.9010  222.6286 H   0  0  0  0  0  0  0  0  0  0  0  0
  138.7805   68.4881  224.6812 H   0  0  0  0  0  0  0  0  0  0  0  0
  139.1499   68.2361  227.0424 H   0  0  0  0  0  0  0  0  0  0  0  0
  140.0905   69.0733  229.2027 H   0  0  0  0  0  0  0  0  0  0  0  0
  141.3071   71.2200  229.2396 H   0  0  0  0  0  0  0  0  0  0  0  0
  141.6230   72.5731  227.1671 H   0  0  0  0  0  0  0  0  0  0  0  0
  1  2  2  0
  2  3  1  0
  3  4  1  0
  4  5  1  0
  5  6  2  0
  5  7  1  0
  7  8  1  0
  8  9  1  0
  9 10  1  0
 10 11  1  0
 11 12  1  0
 12 13  1  0
 13 14  2  0
 14 15  1  0
 15 16  2  0
 16 17  1  0
 17 18  1  0
 18 19  1  0
 18 20  1  0
 18 21  1  0
 17 22  2  0
  2 23  1  0
 23 24  2  0
 24 25  1  0
 25 26  2  0
 26 27  1  0
 27 28  2  0
 28 29  1  0
 29 30  2  0
 30 31  1  0
 31 32  2  0
 12  7  1  0
 22 13  1  0
 32 23  1  0
 31 26  1  0
  3 33  1  0
  4 34  1  0
  4 35  1  0
  8 36  1  0
  8 37  1  0
  9 38  1  0
  9 39  1  0
 10 40  1  0
 10 41  1  0
 11 42  1  0
 11 43  1  0
 12 44  1  6
 14 45  1  0
 15 46  1  0
 16 47  1  0
 22 48  1  0
 24 49  1  0
 25 50  1  0
 27 51  1  0
 28 52  1  0
 29 53  1  0
 30 54  1  0
M  END
>  <smiles>  (30) 
O=C(NCC(=O)N1CCCCC1c1cccc(C(F)(F)F)c1)c1ccc2ccccc2n1

>  <score_type>  (30) 
oracle

>  <origin>  (30) 
autodockgpu

>  <m_score__min__energy>  (30) 
-9.1799999999999997

>  <m_primary>  (30) 
energy

>  <rmsd>  (30) 
1.9854958640683715

>  <m_score__min__rmsd>  (30) 
1.9854958640683715

>  <meeko>  (30) 
{"free_energy": -9.07, "intermolecular_energy": -10.86, "internal_energy": -1.63, "cluster_size": 35, "cluster_id": 1, "rank_in_cluster": 9}

>  <energy>  (30) 
-8.76

>  <cluster_rmsd>  (30) 
1.0

>  <cluster>  (30) 
1

$$$$

     RDKit          3D

 54 57  0  0  0  0  0  0  0  0999 V2000
  138.6560   72.1520  221.4810 O   0  0  0  0  0  0  0  0  0  0  0  0
  139.6470   72.2230  222.2660 C   0  0  0  0  0  0  0  0  0  0  0  0
  140.6780   73.1310  221.8850 N   0  0  0  0  0  0  0  0  0  0  0  0
  140.4800   73.8670  220.6530 C   0  0  0  0  0  0  0  0  0  0  0  0
  141.7070   74.6730  220.4040 C   0  0  0  0  0  0  0  0  0  0  0  0
  142.6560   74.5070  221.2160 O   0  0  0  0  0  0  0  0  0  0  0  0
  141.8030   75.5900  219.2950 N   0  0  0  0  0  0  0  0  0  0  0  0
  142.8560   75.3250  218.3380 C   0  0  0  0  0  0  0  0  0  0  0  0
  143.3290   76.6180  217.7390 C   0  0  0  0  0  0  0  0  0  0  0  0
  142.1670   77.4680  217.2510 C   0  0  0  0  0  0  0  0  0  0  0  0
  141.2600   77.8150  218.3840 C   0  0  0  0  0  0  0  0  0  0  0  0
  140.8650   76.6550  219.2430 C   0  0  2  0  0  0  0  0  0  0  0  0
  140.4870   77.1910  220.5750 C   0  0  0  0  0  0  0  0  0  0  0  0
  139.3170   76.8230  221.2230 C   0  0  0  0  0  0  0  0  0  0  0  0
  139.0080   77.3590  222.4780 C   0  0  0  0  0  0  0  0  0  0  0  0
  139.8480   78.2590  223.1040 C   0  0  0  0  0  0  0  0  0  0  0  0
  141.0120   78.6260  222.4620 C   0  0  0  0  0  0  0  0  0  0  0  0
  141.9790   79.5880  223.0550 C   0  0  0  0  0  0  0  0  0  0  0  0
  142.1300   79.3890  224.4020 F   0  0  0  0  0  0  0  0  0  0  0  0
  143.2290   79.3450  222.4700 F   0  0  0  0  0  0  0  0  0  0  0  0
  141.6740   80.8990  222.7400 F   0  0  0  0  0  0  0  0  0  0  0  0
  141.3130   78.0990  221.2300 C   0  0  0  0  0  0  0  0  0  0  0  0
  139.7410   71.4280  223.4890 C   0  0  0  0  0  0  0  0  0  0  0  0
  139.2140   70.1490  223.4500 C   0  0  0  0  0  0  0  0  0  0  0  0
  139.2590   69.3220  224.5680 C   0  0  0  0  0  0  0  0  0  0  0  0
  139.8570   69.8630  225.7000 C   0  0  0  0  0  0  0  0  0  0  0  0
  139.9350   69.0930  226.8470 C   0  0  0  0  0  0  0  0  0  0  0  0
  140.5280   69.6070  227.9960 C   0  0  0  0  0  0  0  0  0  0  0  0
  141.0310   70.8900  227.9640 C   0  0  0  0  0  0  0  0  0  0  0  0
  140.9680   71.6890  226.8250 C   0  0  0  0  0  0  0  0  0  0  0  0
  140.3660   71.1400  225.6880 C   0  0  0  0  0  0  0  0  0  0  0  0
  140.3160   71.9390  224.5920 N   0  0  0  0  0  0  0  0  0  0  0  0
  141.5360   73.2470  222.4850 H   0  0  0  0  0  0  0  0  0  0  0  0
  140.3166   73.1667  219.8206 H   0  0  0  0  0  0  0  0  0  0  0  0
  139.5993   74.5212  220.7328 H   0  0  0  0  0  0  0  0  0  0  0  0
  143.6957   74.8279  218.8458 H   0  0  0  0  0  0  0  0  0  0  0  0
  142.4697   74.6727  217.5409 H   0  0  0  0  0  0  0  0  0  0  0  0
  143.8876   77.1811  218.5012 H   0  0  0  0  0  0  0  0  0  0  0  0
  143.9691   76.3830  216.8758 H   0  0  0  0  0  0  0  0  0  0  0  0
  142.5585   78.3939  216.8044 H   0  0  0  0  0  0  0  0  0  0  0  0
  141.5983   76.8964  216.5028 H   0  0  0  0  0  0  0  0  0  0  0  0
  141.7710   78.5538  219.0188 H   0  0  0  0  0  0  0  0  0  0  0  0
  140.3329   78.2004  217.9346 H   0  0  0  0  0  0  0  0  0  0  0  0
  140.0010   76.1568  218.7790 H   0  0  0  0  0  0  0  0  0  0  0  0
  138.6296   76.1072  220.7485 H   0  0  0  0  0  0  0  0  0  0  0  0
  138.0754   77.0569  222.9771 H   0  0  0  0  0  0  0  0  0  0  0  0
  139.5946   78.6732  224.0911 H   0  0  0  0  0  0  0  0  0  0  0  0
  142.2479   78.4083  220.7397 H   0  0  0  0  0  0  0  0  0  0  0  0
  138.7529   69.7808  222.5217 H   0  0  0  0  0  0  0  0  0  0  0  0
  138.8465   68.3023  224.5566 H   0  0  0  0  0  0  0  0  0  0  0  0
  139.5270   68.0715  226.8505 H   0  0  0  0  0  0  0  0  0  0  0  0
  140.5941   69.0014  228.9119 H   0  0  0  0  0  0  0  0  0  0  0  0
  141.4996   71.2979  228.8718 H   0  0  0  0  0  0  0  0  0  0  0  0
  141.3753   72.7108  226.8197 H   0  0  0  0  0  0  0  0  0  0  0  0
  1  2  2  0
  2  3  1  0
  3  4  1  0
  4  5  1  0
  5  6  2  0
  5  7  1  0
  7  8  1  0
  8  9  1  0
  9 10  1  0
 10 11  1  0
 11 12  1  0
 12 13  1  0
 13 14  2  0
 14 15  1  0
 15 16  2  0
 16 17  1  0
 17 18  1  0
 18 19  1  0
 18 20  1  0
 18 21  1  0
 17 22  2  0
  2 23  1  0
 23 24  2  0
 24 25  1  0
 25 26  2  0
 26 27  1  0
 27 28  2  0
 28 29  1  0
 29 30  2  0
 30 31  1  0
 31 32  2  0
 12  7  1  0
 22 13  1  0
 32 23  1  0
 31 26  1  0
  3 33  1  0
  4 34  1  0
  4 35  1  0
  8 36  1  0
  8 37  1  0
  9 38  1  0
  9 39  1  0
 10 40  1  0
 10 41  1  0
 11 42  1  0
 11 43  1  0
 12 44  1  6
 14 45  1  0
 15 46  1  0
 16 47  1  0
 22 48  1  0
 24 49  1  0
 25 50  1  0
 27 51  1  0
 28 52  1  0
 29 53  1  0
 30 54  1  0
M  END
>  <smiles>  (31) 
O=C(NCC(=O)N1CCCCC1c1cccc(C(F)(F)F)c1)c1ccc2ccccc2n1

>  <score_type>  (31) 
oracle

>  <origin>  (31) 
autodockgpu

>  <m_score__min__energy>  (31) 
-9.1799999999999997

>  <m_primary>  (31) 
energy

>  <rmsd>  (31) 
2.0412734314738423

>  <m_score__min__rmsd>  (31) 
2.0412734314738423

>  <meeko>  (31) 
{"free_energy": -7.23, "intermolecular_energy": -9.02, "internal_energy": -2.29, "cluster_size": 35, "cluster_id": 1, "rank_in_cluster": 35}

>  <energy>  (31) 
-8.74

>  <cluster_rmsd>  (31) 
0.58

>  <cluster>  (31) 
1

$$$$

     RDKit          3D

 54 57  0  0  0  0  0  0  0  0999 V2000
  140.7270   71.5460  221.3290 O   0  0  0  0  0  0  0  0  0  0  0  0
  140.2990   72.0890  222.3890 C   0  0  0  0  0  0  0  0  0  0  0  0
  139.9260   73.4610  222.2780 N   0  0  0  0  0  0  0  0  0  0  0  0
  140.0760   74.0770  220.9750 C   0  0  0  0  0  0  0  0  0  0  0  0
  140.8630   75.3290  221.1530 C   0  0  0  0  0  0  0  0  0  0  0  0
  141.0480   75.7050  222.3410 O   0  0  0  0  0  0  0  0  0  0  0  0
  141.3830   76.0660  220.0290 N   0  0  0  0  0  0  0  0  0  0  0  0
  142.3950   75.3950  219.2400 C   0  0  0  0  0  0  0  0  0  0  0  0
  143.3340   76.4110  218.6560 C   0  0  0  0  0  0  0  0  0  0  0  0
  142.5810   77.5430  217.9740 C   0  0  0  0  0  0  0  0  0  0  0  0
  141.7140   78.2600  218.9530 C   0  0  0  0  0  0  0  0  0  0  0  0
  140.8620   77.3670  219.7990 C   0  0  2  0  0  0  0  0  0  0  0  0
  140.5280   78.1100  221.0410 C   0  0  0  0  0  0  0  0  0  0  0  0
  139.3040   77.9820  221.6820 C   0  0  0  0  0  0  0  0  0  0  0  0
  139.0420   78.7060  222.8500 C   0  0  0  0  0  0  0  0  0  0  0  0
  139.9800   79.5600  223.3950 C   0  0  0  0  0  0  0  0  0  0  0  0
  141.1980   79.6880  222.7600 C   0  0  0  0  0  0  0  0  0  0  0  0
  142.2710   80.5820  223.2700 C   0  0  0  0  0  0  0  0  0  0  0  0
  142.7470   80.1610  224.4840 F   0  0  0  0  0  0  0  0  0  0  0  0
  143.3440   80.5100  222.3710 F   0  0  0  0  0  0  0  0  0  0  0  0
  141.8880   81.9100  223.2800 F   0  0  0  0  0  0  0  0  0  0  0  0
  141.4530   78.9770  221.6140 C   0  0  0  0  0  0  0  0  0  0  0  0
  140.1900   71.3670  223.6550 C   0  0  0  0  0  0  0  0  0  0  0  0
  139.5530   70.1390  223.6250 C   0  0  0  0  0  0  0  0  0  0  0  0
  139.4030   69.3820  224.7840 C   0  0  0  0  0  0  0  0  0  0  0  0
  139.9270   69.9390  225.9440 C   0  0  0  0  0  0  0  0  0  0  0  0
  139.8120   69.2380  227.1310 C   0  0  0  0  0  0  0  0  0  0  0  0
  140.3260   69.7680  228.3100 C   0  0  0  0  0  0  0  0  0  0  0  0
  140.9470   70.9980  228.2670 C   0  0  0  0  0  0  0  0  0  0  0  0
  141.0790   71.7270  227.0880 C   0  0  0  0  0  0  0  0  0  0  0  0
  140.5510   71.1630  225.9220 C   0  0  0  0  0  0  0  0  0  0  0  0
  140.6920   71.8930  224.7860 N   0  0  0  0  0  0  0  0  0  0  0  0
  139.5600   73.9850  223.1150 H   0  0  0  0  0  0  0  0  0  0  0  0
  140.6078   73.3936  220.2967 H   0  0  0  0  0  0  0  0  0  0  0  0
  139.0911   74.3002  220.5391 H   0  0  0  0  0  0  0  0  0  0  0  0
  142.9588   74.7014  219.8811 H   0  0  0  0  0  0  0  0  0  0  0  0
  141.9117   74.8341  218.4265 H   0  0  0  0  0  0  0  0  0  0  0  0
  143.9536   76.8296  219.4628 H   0  0  0  0  0  0  0  0  0  0  0  0
  143.9577   75.9092  217.9015 H   0  0  0  0  0  0  0  0  0  0  0  0
  143.3045   78.2517  217.5447 H   0  0  0  0  0  0  0  0  0  0  0  0
  141.9467   77.1204  217.1809 H   0  0  0  0  0  0  0  0  0  0  0  0
  142.3621   78.8483  219.6193 H   0  0  0  0  0  0  0  0  0  0  0  0
  141.0249   78.8822  218.3631 H   0  0  0  0  0  0  0  0  0  0  0  0
  139.9437   77.1334  219.2403 H   0  0  0  0  0  0  0  0  0  0  0  0
  138.5373   77.3091  221.2704 H   0  0  0  0  0  0  0  0  0  0  0  0
  138.0665   78.5923  223.3455 H   0  0  0  0  0  0  0  0  0  0  0  0
  139.7614   80.1247  224.3133 H   0  0  0  0  0  0  0  0  0  0  0  0
  142.4319   79.0980  221.1271 H   0  0  0  0  0  0  0  0  0  0  0  0
  139.1595   69.7554  222.6721 H   0  0  0  0  0  0  0  0  0  0  0  0
  138.9007   68.4034  224.7814 H   0  0  0  0  0  0  0  0  0  0  0  0
  139.3124   68.2581  227.1426 H   0  0  0  0  0  0  0  0  0  0  0  0
  140.2387   69.2166  229.2578 H   0  0  0  0  0  0  0  0  0  0  0  0
  141.3533   71.4191  229.1985 H   0  0  0  0  0  0  0  0  0  0  0  0
  141.5784   72.7070  227.0741 H   0  0  0  0  0  0  0  0  0  0  0  0
  1  2  2  0
  2  3  1  0
  3  4  1  0
  4  5  1  0
  5  6  2  0
  5  7  1  0
  7  8  1  0
  8  9  1  0
  9 10  1  0
 10 11  1  0
 11 12  1  0
 12 13  1  0
 13 14  2  0
 14 15  1  0
 15 16  2  0
 16 17  1  0
 17 18  1  0
 18 19  1  0
 18 20  1  0
 18 21  1  0
 17 22  2  0
  2 23  1  0
 23 24  2  0
 24 25  1  0
 25 26  2  0
 26 27  1  0
 27 28  2  0
 28 29  1  0
 29 30  2  0
 30 31  1  0
 31 32  2  0
 12  7  1  0
 22 13  1  0
 32 23  1  0
 31 26  1  0
  3 33  1  0
  4 34  1  0
  4 35  1  0
  8 36  1  0
  8 37  1  0
  9 38  1  0
  9 39  1  0
 10 40  1  0
 10 41  1  0
 11 42  1  0
 11 43  1  0
 12 44  1  6
 14 45  1  0
 15 46  1  0
 16 47  1  0
 22 48  1  0
 24 49  1  0
 25 50  1  0
 27 51  1  0
 28 52  1  0
 29 53  1  0
 30 54  1  0
M  END
>  <smiles>  (32) 
O=C(NCC(=O)N1CCCCC1c1cccc(C(F)(F)F)c1)c1ccc2ccccc2n1

>  <score_type>  (32) 
oracle

>  <origin>  (32) 
autodockgpu

>  <m_score__min__energy>  (32) 
-9.1799999999999997

>  <m_primary>  (32) 
energy

>  <rmsd>  (32) 
1.971714064758249

>  <m_score__min__rmsd>  (32) 
1.971714064758249

>  <meeko>  (32) 
{"free_energy": -9.12, "intermolecular_energy": -10.91, "internal_energy": -1.8, "cluster_size": 35, "cluster_id": 1, "rank_in_cluster": 5}

>  <energy>  (32) 
-8.73

>  <cluster_rmsd>  (32) 
1.73

>  <cluster>  (32) 
1

$$$$

     RDKit          3D

 54 57  0  0  0  0  0  0  0  0999 V2000
  141.1150   72.4370  221.8500 O   0  0  0  0  0  0  0  0  0  0  0  0
  140.1270   72.3750  222.6390 C   0  0  0  0  0  0  0  0  0  0  0  0
  139.0360   73.2420  222.3380 N   0  0  0  0  0  0  0  0  0  0  0  0
  139.1770   74.0920  221.1730 C   0  0  0  0  0  0  0  0  0  0  0  0
  140.0570   75.2330  221.5490 C   0  0  0  0  0  0  0  0  0  0  0  0
  139.9270   75.6740  222.7220 O   0  0  0  0  0  0  0  0  0  0  0  0
  141.0060   75.7990  220.6220 N   0  0  0  0  0  0  0  0  0  0  0  0
  141.9270   74.8690  220.0040 C   0  0  0  0  0  0  0  0  0  0  0  0
  143.2260   75.5640  219.7130 C   0  0  0  0  0  0  0  0  0  0  0  0
  143.0050   76.8830  218.9890 C   0  0  0  0  0  0  0  0  0  0  0  0
  142.1890   77.8100  219.8250 C   0  0  0  0  0  0  0  0  0  0  0  0
  140.9490   77.2010  220.4000 C   0  0  2  0  0  0  0  0  0  0  0  0
  140.5800   77.9870  221.6050 C   0  0  0  0  0  0  0  0  0  0  0  0
  141.5010   78.3310  222.5830 C   0  0  0  0  0  0  0  0  0  0  0  0
  141.1000   79.0730  223.6990 C   0  0  0  0  0  0  0  0  0  0  0  0
  139.7910   79.4820  223.8610 C   0  0  0  0  0  0  0  0  0  0  0  0
  138.8730   79.1410  222.8890 C   0  0  0  0  0  0  0  0  0  0  0  0
  137.4410   79.5350  222.9740 C   0  0  0  0  0  0  0  0  0  0  0  0
  136.6250   78.4460  223.1330 F   0  0  0  0  0  0  0  0  0  0  0  0
  137.2880   80.3230  224.1230 F   0  0  0  0  0  0  0  0  0  0  0  0
  137.0550   80.3400  221.9200 F   0  0  0  0  0  0  0  0  0  0  0  0
  139.2690   78.4120  221.7950 C   0  0  0  0  0  0  0  0  0  0  0  0
  140.0930   71.4740  223.7890 C   0  0  0  0  0  0  0  0  0  0  0  0
  139.5220   70.2280  223.5970 C   0  0  0  0  0  0  0  0  0  0  0  0
  139.4460   69.3070  224.6370 C   0  0  0  0  0  0  0  0  0  0  0  0
  139.9740   69.7210  225.8540 C   0  0  0  0  0  0  0  0  0  0  0  0
  139.9320   68.8530  226.9300 C   0  0  0  0  0  0  0  0  0  0  0  0
  140.4520   69.2380  228.1620 C   0  0  0  0  0  0  0  0  0  0  0  0
  141.0060   70.4940  228.2820 C   0  0  0  0  0  0  0  0  0  0  0  0
  141.0640   71.3900  227.2180 C   0  0  0  0  0  0  0  0  0  0  0  0
  140.5320   70.9700  225.9950 C   0  0  0  0  0  0  0  0  0  0  0  0
  140.6000   71.8610  224.9740 N   0  0  0  0  0  0  0  0  0  0  0  0
  138.1760   73.2500  222.9460 H   0  0  0  0  0  0  0  0  0  0  0  0
  139.6317   73.5243  220.3478 H   0  0  0  0  0  0  0  0  0  0  0  0
  138.1938   74.4568  220.8410 H   0  0  0  0  0  0  0  0  0  0  0  0
  142.1081   74.0254  220.6863 H   0  0  0  0  0  0  0  0  0  0  0  0
  141.4938   74.4963  219.0641 H   0  0  0  0  0  0  0  0  0  0  0  0
  143.7462   75.7605  220.6621 H   0  0  0  0  0  0  0  0  0  0  0  0
  143.8275   74.9113  219.0632 H   0  0  0  0  0  0  0  0  0  0  0  0
  143.9795   77.3482  218.7795 H   0  0  0  0  0  0  0  0  0  0  0  0
  142.4676   76.6864  218.0496 H   0  0  0  0  0  0  0  0  0  0  0  0
  142.8156   78.1632  220.6572 H   0  0  0  0  0  0  0  0  0  0  0  0
  141.8586   78.6212  219.1596 H   0  0  0  0  0  0  0  0  0  0  0  0
  140.1491   77.2664  219.6478 H   0  0  0  0  0  0  0  0  0  0  0  0
  142.5509   78.0192  222.4808 H   0  0  0  0  0  0  0  0  0  0  0  0
  141.8442   79.3366  224.4649 H   0  0  0  0  0  0  0  0  0  0  0  0
  139.4877   80.0652  224.7430 H   0  0  0  0  0  0  0  0  0  0  0  0
  138.5167   78.1526  221.0355 H   0  0  0  0  0  0  0  0  0  0  0  0
  139.1223   69.9619  222.6073 H   0  0  0  0  0  0  0  0  0  0  0  0
  138.9957   68.3122  224.5041 H   0  0  0  0  0  0  0  0  0  0  0  0
  139.4859   67.8545  226.8114 H   0  0  0  0  0  0  0  0  0  0  0  0
  140.4214   68.5536  229.0226 H   0  0  0  0  0  0  0  0  0  0  0  0
  141.4179   70.8002  229.2549 H   0  0  0  0  0  0  0  0  0  0  0  0
  141.5105   72.3885  227.3348 H   0  0  0  0  0  0  0  0  0  0  0  0
  1  2  2  0
  2  3  1  0
  3  4  1  0
  4  5  1  0
  5  6  2  0
  5  7  1  0
  7  8  1  0
  8  9  1  0
  9 10  1  0
 10 11  1  0
 11 12  1  0
 12 13  1  0
 13 14  2  0
 14 15  1  0
 15 16  2  0
 16 17  1  0
 17 18  1  0
 18 19  1  0
 18 20  1  0
 18 21  1  0
 17 22  2  0
  2 23  1  0
 23 24  2  0
 24 25  1  0
 25 26  2  0
 26 27  1  0
 27 28  2  0
 28 29  1  0
 29 30  2  0
 30 31  1  0
 31 32  2  0
 12  7  1  0
 22 13  1  0
 32 23  1  0
 31 26  1  0
  3 33  1  0
  4 34  1  0
  4 35  1  0
  8 36  1  0
  8 37  1  0
  9 38  1  0
  9 39  1  0
 10 40  1  0
 10 41  1  0
 11 42  1  0
 11 43  1  0
 12 44  1  6
 14 45  1  0
 15 46  1  0
 16 47  1  0
 22 48  1  0
 24 49  1  0
 25 50  1  0
 27 51  1  0
 28 52  1  0
 29 53  1  0
 30 54  1  0
M  END
>  <smiles>  (33) 
O=C(NCC(=O)N1CCCCC1c1cccc(C(F)(F)F)c1)c1ccc2ccccc2n1

>  <score_type>  (33) 
oracle

>  <origin>  (33) 
autodockgpu

>  <m_score__min__energy>  (33) 
-9.1799999999999997

>  <m_primary>  (33) 
energy

>  <rmsd>  (33) 
1.9623357496805152

>  <m_score__min__rmsd>  (33) 
1.9623357496805152

>  <meeko>  (33) 
{"free_energy": -8.98, "intermolecular_energy": -10.77, "internal_energy": -1.47, "cluster_size": 2, "cluster_id": 2, "rank_in_cluster": 1}

>  <energy>  (33) 
-8.72

>  <cluster_rmsd>  (33) 
0.8

>  <cluster>  (33) 
1

$$$$

     RDKit          3D

 54 57  0  0  0  0  0  0  0  0999 V2000
  140.4780   71.7220  221.2410 O   0  0  0  0  0  0  0  0  0  0  0  0
  140.1460   72.2300  222.3510 C   0  0  0  0  0  0  0  0  0  0  0  0
  139.8580   73.6270  222.3350 N   0  0  0  0  0  0  0  0  0  0  0  0
  139.9760   74.3040  221.0590 C   0  0  0  0  0  0  0  0  0  0  0  0
  140.7440   75.5610  221.2830 C   0  0  0  0  0  0  0  0  0  0  0  0
  140.8210   75.9610  222.4760 O   0  0  0  0  0  0  0  0  0  0  0  0
  141.3640   76.2770  220.1960 N   0  0  0  0  0  0  0  0  0  0  0  0
  142.2190   75.4980  219.3260 C   0  0  0  0  0  0  0  0  0  0  0  0
  143.3130   76.3710  218.7820 C   0  0  0  0  0  0  0  0  0  0  0  0
  142.7630   77.6670  218.2090 C   0  0  0  0  0  0  0  0  0  0  0  0
  142.0610   78.4510  219.2670 C   0  0  0  0  0  0  0  0  0  0  0  0
  141.0810   77.6630  220.0780 C   0  0  2  0  0  0  0  0  0  0  0  0
  140.9160   78.3570  221.3810 C   0  0  0  0  0  0  0  0  0  0  0  0
  141.9900   78.6630  222.2050 C   0  0  0  0  0  0  0  0  0  0  0  0
  141.7780   79.3190  223.4230 C   0  0  0  0  0  0  0  0  0  0  0  0
  140.5110   79.6760  223.8390 C   0  0  0  0  0  0  0  0  0  0  0  0
  139.4420   79.3720  223.0210 C   0  0  0  0  0  0  0  0  0  0  0  0
  138.0410   79.7160  223.3820 C   0  0  0  0  0  0  0  0  0  0  0  0
  137.9500   80.1910  224.6640 F   0  0  0  0  0  0  0  0  0  0  0  0
  137.6310   80.7570  222.5390 F   0  0  0  0  0  0  0  0  0  0  0  0
  137.1650   78.6760  223.1360 F   0  0  0  0  0  0  0  0  0  0  0  0
  139.6520   78.7290  221.8270 C   0  0  0  0  0  0  0  0  0  0  0  0
  140.0590   71.4460  223.5820 C   0  0  0  0  0  0  0  0  0  0  0  0
  139.3750   70.2440  223.5150 C   0  0  0  0  0  0  0  0  0  0  0  0
  139.2430   69.4340  224.6380 C   0  0  0  0  0  0  0  0  0  0  0  0
  139.8320   69.9080  225.8030 C   0  0  0  0  0  0  0  0  0  0  0  0
  139.7370   69.1500  226.9570 C   0  0  0  0  0  0  0  0  0  0  0  0
  140.3180   69.5990  228.1390 C   0  0  0  0  0  0  0  0  0  0  0  0
  140.9820   70.8060  228.1330 C   0  0  0  0  0  0  0  0  0  0  0  0
  141.0950   71.5910  226.9890 C   0  0  0  0  0  0  0  0  0  0  0  0
  140.5010   71.1090  225.8180 C   0  0  0  0  0  0  0  0  0  0  0  0
  140.6240   71.8930  224.7170 N   0  0  0  0  0  0  0  0  0  0  0  0
  139.5740   74.1250  223.2180 H   0  0  0  0  0  0  0  0  0  0  0  0
  140.5088   73.6620  220.3421 H   0  0  0  0  0  0  0  0  0  0  0  0
  138.9806   74.5285  220.6482 H   0  0  0  0  0  0  0  0  0  0  0  0
  142.6621   74.6679  219.8957 H   0  0  0  0  0  0  0  0  0  0  0  0
  141.6237   75.0962  218.4928 H   0  0  0  0  0  0  0  0  0  0  0  0
  144.0159   76.6097  219.5937 H   0  0  0  0  0  0  0  0  0  0  0  0
  143.8184   75.8243  217.9722 H   0  0  0  0  0  0  0  0  0  0  0  0
  143.5933   78.2656  217.8061 H   0  0  0  0  0  0  0  0  0  0  0  0
  142.0459   77.4263  217.4104 H   0  0  0  0  0  0  0  0  0  0  0  0
  142.8193   78.8623  219.9495 H   0  0  0  0  0  0  0  0  0  0  0  0
  141.4821   79.2285  218.7470 H   0  0  0  0  0  0  0  0  0  0  0  0
  140.1226   77.6406  219.5386 H   0  0  0  0  0  0  0  0  0  0  0  0
  143.0108   78.3892  221.9000 H   0  0  0  0  0  0  0  0  0  0  0  0
  142.6405   79.5555  224.0634 H   0  0  0  0  0  0  0  0  0  0  0  0
  140.3573   80.1903  224.7992 H   0  0  0  0  0  0  0  0  0  0  0  0
  138.7822   78.4975  221.1946 H   0  0  0  0  0  0  0  0  0  0  0  0
  138.9300   69.9254  222.5608 H   0  0  0  0  0  0  0  0  0  0  0  0
  138.7044   68.4754  224.6054 H   0  0  0  0  0  0  0  0  0  0  0  0
  139.2006   68.1898  226.9398 H   0  0  0  0  0  0  0  0  0  0  0  0
  140.2484   69.0018  229.0602 H   0  0  0  0  0  0  0  0  0  0  0  0
  141.4401   71.1628  229.0672 H   0  0  0  0  0  0  0  0  0  0  0  0
  141.6300   72.5520  227.0053 H   0  0  0  0  0  0  0  0  0  0  0  0
  1  2  2  0
  2  3  1  0
  3  4  1  0
  4  5  1  0
  5  6  2  0
  5  7  1  0
  7  8  1  0
  8  9  1  0
  9 10  1  0
 10 11  1  0
 11 12  1  0
 12 13  1  0
 13 14  2  0
 14 15  1  0
 15 16  2  0
 16 17  1  0
 17 18  1  0
 18 19  1  0
 18 20  1  0
 18 21  1  0
 17 22  2  0
  2 23  1  0
 23 24  2  0
 24 25  1  0
 25 26  2  0
 26 27  1  0
 27 28  2  0
 28 29  1  0
 29 30  2  0
 30 31  1  0
 31 32  2  0
 12  7  1  0
 22 13  1  0
 32 23  1  0
 31 26  1  0
  3 33  1  0
  4 34  1  0
  4 35  1  0
  8 36  1  0
  8 37  1  0
  9 38  1  0
  9 39  1  0
 10 40  1  0
 10 41  1  0
 11 42  1  0
 11 43  1  0
 12 44  1  6
 14 45  1  0
 15 46  1  0
 16 47  1  0
 22 48  1  0
 24 49  1  0
 25 50  1  0
 27 51  1  0
 28 52  1  0
 29 53  1  0
 30 54  1  0
M  END
>  <smiles>  (34) 
O=C(NCC(=O)N1CCCCC1c1cccc(C(F)(F)F)c1)c1ccc2ccccc2n1

>  <score_type>  (34) 
oracle

>  <origin>  (34) 
autodockgpu

>  <m_score__min__energy>  (34) 
-9.1799999999999997

>  <m_primary>  (34) 
energy

>  <rmsd>  (34) 
1.9933509937804144

>  <m_score__min__rmsd>  (34) 
1.9933509937804144

>  <meeko>  (34) 
{"free_energy": -8.85, "intermolecular_energy": -10.64, "internal_energy": -1.77, "cluster_size": 35, "cluster_id": 1, "rank_in_cluster": 22}

>  <energy>  (34) 
-8.28

>  <cluster_rmsd>  (34) 
0.58

>  <cluster>  (34) 
1

$$$$

     RDKit          3D

 54 57  0  0  0  0  0  0  0  0999 V2000
  140.5120   71.6400  221.2930 O   0  0  0  0  0  0  0  0  0  0  0  0
  140.1780   72.1460  222.4040 C   0  0  0  0  0  0  0  0  0  0  0  0
  139.8480   73.5330  222.3810 N   0  0  0  0  0  0  0  0  0  0  0  0
  139.9300   74.2050  221.0990 C   0  0  0  0  0  0  0  0  0  0  0  0
  140.5770   75.5270  221.3220 C   0  0  0  0  0  0  0  0  0  0  0  0
  140.4680   76.0130  222.4800 O   0  0  0  0  0  0  0  0  0  0  0  0
  141.2900   76.2110  220.2720 N   0  0  0  0  0  0  0  0  0  0  0  0
  142.1860   75.3990  219.4760 C   0  0  0  0  0  0  0  0  0  0  0  0
  143.3370   76.2380  218.9990 C   0  0  0  0  0  0  0  0  0  0  0  0
  142.8590   77.5370  218.3700 C   0  0  0  0  0  0  0  0  0  0  0  0
  142.1030   78.3540  219.3630 C   0  0  0  0  0  0  0  0  0  0  0  0
  141.0490   77.6020  220.1140 C   0  0  2  0  0  0  0  0  0  0  0  0
  140.8090   78.3200  221.3910 C   0  0  0  0  0  0  0  0  0  0  0  0
  141.8310   78.6370  222.2740 C   0  0  0  0  0  0  0  0  0  0  0  0
  141.5490   79.3150  223.4640 C   0  0  0  0  0  0  0  0  0  0  0  0
  140.2610   79.6860  223.7950 C   0  0  0  0  0  0  0  0  0  0  0  0
  139.2420   79.3730  222.9190 C   0  0  0  0  0  0  0  0  0  0  0  0
  137.8240   79.7300  223.1870 C   0  0  0  0  0  0  0  0  0  0  0  0
  137.0020   78.6370  223.1060 F   0  0  0  0  0  0  0  0  0  0  0  0
  137.7480   80.1940  224.5070 F   0  0  0  0  0  0  0  0  0  0  0  0
  137.3910   80.7820  222.4020 F   0  0  0  0  0  0  0  0  0  0  0  0
  139.5220   78.7070  221.7510 C   0  0  0  0  0  0  0  0  0  0  0  0
  140.1300   71.3690  223.6400 C   0  0  0  0  0  0  0  0  0  0  0  0
  139.5630   70.1080  223.5690 C   0  0  0  0  0  0  0  0  0  0  0  0
  139.4740   69.2980  224.6980 C   0  0  0  0  0  0  0  0  0  0  0  0
  139.9840   69.8370  225.8730 C   0  0  0  0  0  0  0  0  0  0  0  0
  139.9280   69.0840  227.0320 C   0  0  0  0  0  0  0  0  0  0  0  0
  140.4300   69.5950  228.2240 C   0  0  0  0  0  0  0  0  0  0  0  0
  140.9800   70.8590  228.2230 C   0  0  0  0  0  0  0  0  0  0  0  0
  141.0520   71.6410  227.0730 C   0  0  0  0  0  0  0  0  0  0  0  0
  140.5370   71.0950  225.8920 C   0  0  0  0  0  0  0  0  0  0  0  0
  140.6190   71.8770  224.7860 N   0  0  0  0  0  0  0  0  0  0  0  0
  139.5600   74.0290  223.2650 H   0  0  0  0  0  0  0  0  0  0  0  0
  140.5323   73.6062  220.3999 H   0  0  0  0  0  0  0  0  0  0  0  0
  138.9267   74.3349  220.6670 H   0  0  0  0  0  0  0  0  0  0  0  0
  142.5675   74.5679  220.0874 H   0  0  0  0  0  0  0  0  0  0  0  0
  141.6418   74.9982  218.6081 H   0  0  0  0  0  0  0  0  0  0  0  0
  143.9862   76.4735  219.8552 H   0  0  0  0  0  0  0  0  0  0  0  0
  143.8860   75.6673  218.2355 H   0  0  0  0  0  0  0  0  0  0  0  0
  143.7295   78.1101  218.0181 H   0  0  0  0  0  0  0  0  0  0  0  0
  142.1940   77.2991  217.5267 H   0  0  0  0  0  0  0  0  0  0  0  0
  142.8206   78.7591  220.0917 H   0  0  0  0  0  0  0  0  0  0  0  0
  141.5813   79.1358  218.7915 H   0  0  0  0  0  0  0  0  0  0  0  0
  140.1308   77.5932  219.5084 H   0  0  0  0  0  0  0  0  0  0  0  0
  142.8672   78.3539  222.0371 H   0  0  0  0  0  0  0  0  0  0  0  0
  142.3721   79.5583  224.1520 H   0  0  0  0  0  0  0  0  0  0  0  0
  140.0522   80.2184  224.7346 H   0  0  0  0  0  0  0  0  0  0  0  0
  138.6918   78.4689  221.0698 H   0  0  0  0  0  0  0  0  0  0  0  0
  139.1772   69.7406  222.6066 H   0  0  0  0  0  0  0  0  0  0  0  0
  139.0275   68.2933  224.6621 H   0  0  0  0  0  0  0  0  0  0  0  0
  139.4848   68.0774  227.0107 H   0  0  0  0  0  0  0  0  0  0  0  0
  140.3890   69.0021  229.1496 H   0  0  0  0  0  0  0  0  0  0  0  0
  141.3766   71.2649  229.1653 H   0  0  0  0  0  0  0  0  0  0  0  0
  141.4958   72.6473  227.0922 H   0  0  0  0  0  0  0  0  0  0  0  0
  1  2  2  0
  2  3  1  0
  3  4  1  0
  4  5  1  0
  5  6  2  0
  5  7  1  0
  7  8  1  0
  8  9  1  0
  9 10  1  0
 10 11  1  0
 11 12  1  0
 12 13  1  0
 13 14  2  0
 14 15  1  0
 15 16  2  0
 16 17  1  0
 17 18  1  0
 18 19  1  0
 18 20  1  0
 18 21  1  0
 17 22  2  0
  2 23  1  0
 23 24  2  0
 24 25  1  0
 25 26  2  0
 26 27  1  0
 27 28  2  0
 28 29  1  0
 29 30  2  0
 30 31  1  0
 31 32  2  0
 12  7  1  0
 22 13  1  0
 32 23  1  0
 31 26  1  0
  3 33  1  0
  4 34  1  0
  4 35  1  0
  8 36  1  0
  8 37  1  0
  9 38  1  0
  9 39  1  0
 10 40  1  0
 10 41  1  0
 11 42  1  0
 11 43  1  0
 12 44  1  6
 14 45  1  0
 15 46  1  0
 16 47  1  0
 22 48  1  0
 24 49  1  0
 25 50  1  0
 27 51  1  0
 28 52  1  0
 29 53  1  0
 30 54  1  0
M  END
>  <smiles>  (35) 
O=C(NCC(=O)N1CCCCC1c1cccc(C(F)(F)F)c1)c1ccc2ccccc2n1

>  <score_type>  (35) 
oracle

>  <origin>  (35) 
autodockgpu

>  <m_score__min__energy>  (35) 
-9.1799999999999997

>  <m_primary>  (35) 
energy

>  <rmsd>  (35) 
1.9885712837878196

>  <m_score__min__rmsd>  (35) 
1.9885712837878196

>  <meeko>  (35) 
{"free_energy": -8.88, "intermolecular_energy": -10.67, "internal_energy": -1.69, "cluster_size": 35, "cluster_id": 1, "rank_in_cluster": 21}

>  <energy>  (35) 
-7.23

>  <cluster_rmsd>  (35) 
1.02

>  <cluster>  (35) 
1

$$$$

     RDKit          3D

 54 57  0  0  0  0  0  0  0  0999 V2000
  140.2500   71.1250  221.3520 O   0  0  0  0  0  0  0  0  0  0  0  0
  140.0080   71.6830  222.4620 C   0  0  0  0  0  0  0  0  0  0  0  0
  139.7720   73.0880  222.4140 N   0  0  0  0  0  0  0  0  0  0  0  0
  139.8350   73.7170  221.1100 C   0  0  0  0  0  0  0  0  0  0  0  0
  140.5670   75.0060  221.2640 C   0  0  0  0  0  0  0  0  0  0  0  0
  140.3920   75.6180  222.3510 O   0  0  0  0  0  0  0  0  0  0  0  0
  141.4260   75.5210  220.2260 N   0  0  0  0  0  0  0  0  0  0  0  0
  142.5180   74.6630  219.8190 C   0  0  0  0  0  0  0  0  0  0  0  0
  143.6790   75.5030  219.3710 C   0  0  0  0  0  0  0  0  0  0  0  0
  143.2470   76.5700  218.3770 C   0  0  0  0  0  0  0  0  0  0  0  0
  142.2520   77.4920  218.9980 C   0  0  0  0  0  0  0  0  0  0  0  0
  141.1240   76.8060  219.7040 C   0  0  2  0  0  0  0  0  0  0  0  0
  140.5820   77.7540  220.7100 C   0  0  0  0  0  0  0  0  0  0  0  0
  139.2260   78.0240  220.8280 C   0  0  0  0  0  0  0  0  0  0  0  0
  138.7690   78.9260  221.7940 C   0  0  0  0  0  0  0  0  0  0  0  0
  139.6400   79.5690  222.6500 C   0  0  0  0  0  0  0  0  0  0  0  0
  140.9890   79.3020  222.5360 C   0  0  0  0  0  0  0  0  0  0  0  0
  142.0040   79.9440  223.4120 C   0  0  0  0  0  0  0  0  0  0  0  0
  143.1750   80.1810  222.7420 F   0  0  0  0  0  0  0  0  0  0  0  0
  141.5010   81.1950  223.7950 F   0  0  0  0  0  0  0  0  0  0  0  0
  142.1960   79.2490  224.5900 F   0  0  0  0  0  0  0  0  0  0  0  0
  141.4360   78.4160  221.5870 C   0  0  0  0  0  0  0  0  0  0  0  0
  139.9690   70.9440  223.7230 C   0  0  0  0  0  0  0  0  0  0  0  0
  139.3940   69.6850  223.6980 C   0  0  0  0  0  0  0  0  0  0  0  0
  139.3140   68.9120  224.8510 C   0  0  0  0  0  0  0  0  0  0  0  0
  139.8400   69.4830  226.0030 C   0  0  0  0  0  0  0  0  0  0  0  0
  139.7930   68.7670  227.1860 C   0  0  0  0  0  0  0  0  0  0  0  0
  140.3120   69.3120  228.3560 C   0  0  0  0  0  0  0  0  0  0  0  0
  140.8680   70.5710  228.3090 C   0  0  0  0  0  0  0  0  0  0  0  0
  140.9320   71.3170  227.1350 C   0  0  0  0  0  0  0  0  0  0  0  0
  140.4010   70.7380  225.9770 C   0  0  0  0  0  0  0  0  0  0  0  0
  140.4740   71.4850  224.8460 N   0  0  0  0  0  0  0  0  0  0  0  0
  139.5630   73.6260  223.2950 H   0  0  0  0  0  0  0  0  0  0  0  0
  140.3700   73.0642  220.4046 H   0  0  0  0  0  0  0  0  0  0  0  0
  138.8225   73.8932  220.7178 H   0  0  0  0  0  0  0  0  0  0  0  0
  142.8264   74.0354  220.6681 H   0  0  0  0  0  0  0  0  0  0  0  0
  142.1886   74.0223  218.9878 H   0  0  0  0  0  0  0  0  0  0  0  0
  144.1252   75.9927  220.2491 H   0  0  0  0  0  0  0  0  0  0  0  0
  144.4084   74.8457  218.8751 H   0  0  0  0  0  0  0  0  0  0  0  0
  144.1279   77.1481  218.0611 H   0  0  0  0  0  0  0  0  0  0  0  0
  142.7832   76.0795  217.5085 H   0  0  0  0  0  0  0  0  0  0  0  0
  142.7789   78.1251  219.7271 H   0  0  0  0  0  0  0  0  0  0  0  0
  141.8019   78.0661  218.1747 H   0  0  0  0  0  0  0  0  0  0  0  0
  140.3485   76.5591  218.9639 H   0  0  0  0  0  0  0  0  0  0  0  0
  138.5080   77.5267  220.1593 H   0  0  0  0  0  0  0  0  0  0  0  0
  137.6906   79.1277  221.8734 H   0  0  0  0  0  0  0  0  0  0  0  0
  139.2678   80.2772  223.4049 H   0  0  0  0  0  0  0  0  0  0  0  0
  142.5163   78.2210  221.5169 H   0  0  0  0  0  0  0  0  0  0  0  0
  138.9945   69.2903  222.7521 H   0  0  0  0  0  0  0  0  0  0  0  0
  138.8617   67.9093  224.8510 H   0  0  0  0  0  0  0  0  0  0  0  0
  139.3436   67.7631  227.2014 H   0  0  0  0  0  0  0  0  0  0  0  0
  140.2789   68.7484  229.3001 H   0  0  0  0  0  0  0  0  0  0  0  0
  141.2770   71.0037  229.2339 H   0  0  0  0  0  0  0  0  0  0  0  0
  141.3817   72.3207  227.1185 H   0  0  0  0  0  0  0  0  0  0  0  0
  1  2  2  0
  2  3  1  0
  3  4  1  0
  4  5  1  0
  5  6  2  0
  5  7  1  0
  7  8  1  0
  8  9  1  0
  9 10  1  0
 10 11  1  0
 11 12  1  0
 12 13  1  0
 13 14  2  0
 14 15  1  0
 15 16  2  0
 16 17  1  0
 17 18  1  0
 18 19  1  0
 18 20  1  0
 18 21  1  0
 17 22  2  0
  2 23  1  0
 23 24  2  0
 24 25  1  0
 25 26  2  0
 26 27  1  0
 27 28  2  0
 28 29  1  0
 29 30  2  0
 30 31  1  0
 31 32  2  0
 12  7  1  0
 22 13  1  0
 32 23  1  0
 31 26  1  0
  3 33  1  0
  4 34  1  0
  4 35  1  0
  8 36  1  0
  8 37  1  0
  9 38  1  0
  9 39  1  0
 10 40  1  0
 10 41  1  0
 11 42  1  0
 11 43  1  0
 12 44  1  6
 14 45  1  0
 15 46  1  0
 16 47  1  0
 22 48  1  0
 24 49  1  0
 25 50  1  0
 27 51  1  0
 28 52  1  0
 29 53  1  0
 30 54  1  0
M  END
>  <smiles>  (36) 
O=C(NCC(=O)N1CCCCC1c1cccc(C(F)(F)F)c1)c1ccc2ccccc2n1

>  <score_type>  (36) 
oracle

>  <origin>  (36) 
autodockgpu

>  <m_score__min__energy>  (36) 
-9.1799999999999997

>  <m_primary>  (36) 
energy

>  <rmsd>  (36) 
1.946922495228919

>  <m_score__min__rmsd>  (36) 
1.946922495228919

>  <meeko>  (36) 
{"free_energy": -8.83, "intermolecular_energy": -10.62, "internal_energy": -1.89, "cluster_size": 35, "cluster_id": 1, "rank_in_cluster": 24}

>  <energy>  (36) 
-8.98

>  <cluster_rmsd>  (36) 
0.0

>  <cluster>  (36) 
2

$$$$

     RDKit          3D

 54 57  0  0  0  0  0  0  0  0999 V2000
  140.8560   71.5290  221.3460 O   0  0  0  0  0  0  0  0  0  0  0  0
  140.3970   72.0830  222.3870 C   0  0  0  0  0  0  0  0  0  0  0  0
  140.0360   73.4560  222.2520 N   0  0  0  0  0  0  0  0  0  0  0  0
  140.2320   74.0600  220.9490 C   0  0  0  0  0  0  0  0  0  0  0  0
  141.0290   75.3030  221.1420 C   0  0  0  0  0  0  0  0  0  0  0  0
  141.2540   75.6410  222.3350 O   0  0  0  0  0  0  0  0  0  0  0  0
  141.5180   76.0730  220.0250 N   0  0  0  0  0  0  0  0  0  0  0  0
  140.5290   76.8460  219.3030 C   0  0  0  0  0  0  0  0  0  0  0  0
  140.9330   76.9590  217.8610 C   0  0  0  0  0  0  0  0  0  0  0  0
  142.3800   77.4050  217.7190 C   0  0  0  0  0  0  0  0  0  0  0  0
  143.2980   76.4170  218.3550 C   0  0  0  0  0  0  0  0  0  0  0  0
  142.9070   76.0070  219.7400 C   0  0  2  0  0  0  0  0  0  0  0  0
  143.5130   74.6760  220.0020 C   0  0  0  0  0  0  0  0  0  0  0  0
  144.6330   74.5100  220.8030 C   0  0  0  0  0  0  0  0  0  0  0  0
  145.1630   73.2340  221.0170 C   0  0  0  0  0  0  0  0  0  0  0  0
  144.5970   72.1120  220.4450 C   0  0  0  0  0  0  0  0  0  0  0  0
  143.4830   72.2740  219.6480 C   0  0  0  0  0  0  0  0  0  0  0  0
  142.8030   71.1280  218.9880 C   0  0  0  0  0  0  0  0  0  0  0  0
  142.6970   70.0500  219.8270 F   0  0  0  0  0  0  0  0  0  0  0  0
  141.4950   71.5310  218.6850 F   0  0  0  0  0  0  0  0  0  0  0  0
  143.3780   70.8050  217.7750 F   0  0  0  0  0  0  0  0  0  0  0  0
  142.9640   73.5280  219.4390 C   0  0  0  0  0  0  0  0  0  0  0  0
  140.2420   71.3720  223.6540 C   0  0  0  0  0  0  0  0  0  0  0  0
  139.5720   70.1620  223.6190 C   0  0  0  0  0  0  0  0  0  0  0  0
  139.3780   69.4180  224.7790 C   0  0  0  0  0  0  0  0  0  0  0  0
  139.8930   69.9660  225.9460 C   0  0  0  0  0  0  0  0  0  0  0  0
  139.7350   69.2770  227.1350 C   0  0  0  0  0  0  0  0  0  0  0  0
  140.2410   69.8000  228.3210 C   0  0  0  0  0  0  0  0  0  0  0  0
  140.8970   71.0110  228.2830 C   0  0  0  0  0  0  0  0  0  0  0  0
  141.0730   71.7290  227.1020 C   0  0  0  0  0  0  0  0  0  0  0  0
  140.5520   71.1730  225.9290 C   0  0  0  0  0  0  0  0  0  0  0  0
  140.7360   71.8920  224.7930 N   0  0  0  0  0  0  0  0  0  0  0  0
  139.6460   73.9890  223.0730 H   0  0  0  0  0  0  0  0  0  0  0  0
  140.7750   73.3650  220.2916 H   0  0  0  0  0  0  0  0  0  0  0  0
  139.2634   74.2918  220.4819 H   0  0  0  0  0  0  0  0  0  0  0  0
  139.5518   76.3456  219.3713 H   0  0  0  0  0  0  0  0  0  0  0  0
  140.4589   77.8518  219.7428 H   0  0  0  0  0  0  0  0  0  0  0  0
  140.8128   75.9778  217.3785 H   0  0  0  0  0  0  0  0  0  0  0  0
  140.2916   77.7133  217.3818 H   0  0  0  0  0  0  0  0  0  0  0  0
  142.6279   77.4936  216.6510 H   0  0  0  0  0  0  0  0  0  0  0  0
  142.5026   78.3767  218.2197 H   0  0  0  0  0  0  0  0  0  0  0  0
  143.3229   75.5161  217.7244 H   0  0  0  0  0  0  0  0  0  0  0  0
  144.2774   76.9105  218.4401 H   0  0  0  0  0  0  0  0  0  0  0  0
  143.3060   76.7490  220.4473 H   0  0  0  0  0  0  0  0  0  0  0  0
  145.1061   75.3855  221.2717 H   0  0  0  0  0  0  0  0  0  0  0  0
  146.0514   73.1214  221.6558 H   0  0  0  0  0  0  0  0  0  0  0  0
  145.0240   71.1136  220.6206 H   0  0  0  0  0  0  0  0  0  0  0  0
  142.0755   73.6295  218.7985 H   0  0  0  0  0  0  0  0  0  0  0  0
  139.1873   69.7827  222.6608 H   0  0  0  0  0  0  0  0  0  0  0  0
  138.8485   68.4538  224.7717 H   0  0  0  0  0  0  0  0  0  0  0  0
  139.2073   68.3119  227.1430 H   0  0  0  0  0  0  0  0  0  0  0  0
  140.1197   69.2574  229.2701 H   0  0  0  0  0  0  0  0  0  0  0  0
  141.2966   71.4264  229.2199 H   0  0  0  0  0  0  0  0  0  0  0  0
  141.6004   72.6943  227.0925 H   0  0  0  0  0  0  0  0  0  0  0  0
  1  2  2  0
  2  3  1  0
  3  4  1  0
  4  5  1  0
  5  6  2  0
  5  7  1  0
  7  8  1  0
  8  9  1  0
  9 10  1  0
 10 11  1  0
 11 12  1  0
 12 13  1  0
 13 14  2  0
 14 15  1  0
 15 16  2  0
 16 17  1  0
 17 18  1  0
 18 19  1  0
 18 20  1  0
 18 21  1  0
 17 22  2  0
  2 23  1  0
 23 24  2  0
 24 25  1  0
 25 26  2  0
 26 27  1  0
 27 28  2  0
 28 29  1  0
 29 30  2  0
 30 31  1  0
 31 32  2  0
 12  7  1  0
 22 13  1  0
 32 23  1  0
 31 26  1  0
  3 33  1  0
  4 34  1  0
  4 35  1  0
  8 36  1  0
  8 37  1  0
  9 38  1  0
  9 39  1  0
 10 40  1  0
 10 41  1  0
 11 42  1  0
 11 43  1  0
 12 44  1  1
 14 45  1  0
 15 46  1  0
 16 47  1  0
 22 48  1  0
 24 49  1  0
 25 50  1  0
 27 51  1  0
 28 52  1  0
 29 53  1  0
 30 54  1  0
M  END
>  <smiles>  (37) 
O=C(NCC(=O)N1CCCCC1c1cccc(C(F)(F)F)c1)c1ccc2ccccc2n1

>  <score_type>  (37) 
oracle

>  <origin>  (37) 
autodockgpu

>  <m_score__min__energy>  (37) 
-9.1799999999999997

>  <m_primary>  (37) 
energy

>  <rmsd>  (37) 
1.9412258650415675

>  <m_score__min__rmsd>  (37) 
1.9412258650415675

>  <meeko>  (37) 
{"free_energy": -7.97, "intermolecular_energy": -9.76, "internal_energy": -2.35, "cluster_size": 12, "cluster_id": 3, "rank_in_cluster": 3}

>  <energy>  (37) 
-8.95

>  <cluster_rmsd>  (37) 
0.08

>  <cluster>  (37) 
2

$$$$

     RDKit          3D

 54 57  0  0  0  0  0  0  0  0999 V2000
  140.9380   72.2920  221.3180 O   0  0  0  0  0  0  0  0  0  0  0  0
  140.2180   72.5910  222.3150 C   0  0  0  0  0  0  0  0  0  0  0  0
  139.4740   73.8030  222.2030 N   0  0  0  0  0  0  0  0  0  0  0  0
  139.6240   74.5520  220.9710 C   0  0  0  0  0  0  0  0  0  0  0  0
  140.7120   75.5480  221.1760 C   0  0  0  0  0  0  0  0  0  0  0  0
  141.0270   75.7900  222.3720 O   0  0  0  0  0  0  0  0  0  0  0  0
  141.3680   76.1950  220.0670 N   0  0  0  0  0  0  0  0  0  0  0  0
  142.1670   75.3430  219.2130 C   0  0  0  0  0  0  0  0  0  0  0  0
  143.3090   76.1310  218.6400 C   0  0  0  0  0  0  0  0  0  0  0  0
  142.8370   77.4450  218.0370 C   0  0  0  0  0  0  0  0  0  0  0  0
  142.1940   78.2980  219.0790 C   0  0  0  0  0  0  0  0  0  0  0  0
  141.1720   77.5930  219.9160 C   0  0  2  0  0  0  0  0  0  0  0  0
  141.0600   78.3290  221.2010 C   0  0  0  0  0  0  0  0  0  0  0  0
  142.1650   78.6570  221.9720 C   0  0  0  0  0  0  0  0  0  0  0  0
  142.0040   79.3510  223.1750 C   0  0  0  0  0  0  0  0  0  0  0  0
  140.7550   79.7280  223.6290 C   0  0  0  0  0  0  0  0  0  0  0  0
  139.6540   79.4030  222.8640 C   0  0  0  0  0  0  0  0  0  0  0  0
  138.2690   79.7650  223.2680 C   0  0  0  0  0  0  0  0  0  0  0  0
  137.7270   80.7070  222.4330 F   0  0  0  0  0  0  0  0  0  0  0  0
  137.4790   78.6140  223.1410 F   0  0  0  0  0  0  0  0  0  0  0  0
  138.1880   80.1220  224.6000 F   0  0  0  0  0  0  0  0  0  0  0  0
  139.8150   78.7210  221.6830 C   0  0  0  0  0  0  0  0  0  0  0  0
  140.1440   71.7560  223.5120 C   0  0  0  0  0  0  0  0  0  0  0  0
  139.4920   70.5410  223.3920 C   0  0  0  0  0  0  0  0  0  0  0  0
  139.3740   69.6820  224.4800 C   0  0  0  0  0  0  0  0  0  0  0  0
  139.9430   70.1240  225.6670 C   0  0  0  0  0  0  0  0  0  0  0  0
  139.8610   69.3180  226.7890 C   0  0  0  0  0  0  0  0  0  0  0  0
  140.4220   69.7330  227.9920 C   0  0  0  0  0  0  0  0  0  0  0  0
  141.0550   70.9560  228.0400 C   0  0  0  0  0  0  0  0  0  0  0  0
  141.1550   71.7900  226.9300 C   0  0  0  0  0  0  0  0  0  0  0  0
  140.5800   71.3410  225.7360 C   0  0  0  0  0  0  0  0  0  0  0  0
  140.6900   72.1710  224.6690 N   0  0  0  0  0  0  0  0  0  0  0  0
  138.8510   74.1220  222.9900 H   0  0  0  0  0  0  0  0  0  0  0  0
  139.8893   73.8713  220.1487 H   0  0  0  0  0  0  0  0  0  0  0  0
  138.6826   75.0580  220.7108 H   0  0  0  0  0  0  0  0  0  0  0  0
  142.5619   74.5019  219.8017 H   0  0  0  0  0  0  0  0  0  0  0  0
  141.5418   74.9584  218.3937 H   0  0  0  0  0  0  0  0  0  0  0  0
  144.0320   76.3453  219.4409 H   0  0  0  0  0  0  0  0  0  0  0  0
  143.7724   75.5332  217.8413 H   0  0  0  0  0  0  0  0  0  0  0  0
  143.7002   77.9796  217.6138 H   0  0  0  0  0  0  0  0  0  0  0  0
  142.1000   77.2301  217.2492 H   0  0  0  0  0  0  0  0  0  0  0  0
  142.9819   78.6775  219.7463 H   0  0  0  0  0  0  0  0  0  0  0  0
  141.6614   79.0976  218.5432 H   0  0  0  0  0  0  0  0  0  0  0  0
  140.2099   77.6166  219.3832 H   0  0  0  0  0  0  0  0  0  0  0  0
  143.1722   78.3700  221.6357 H   0  0  0  0  0  0  0  0  0  0  0  0
  142.8920   79.6025  223.7735 H   0  0  0  0  0  0  0  0  0  0  0  0
  140.6412   80.2739  224.5772 H   0  0  0  0  0  0  0  0  0  0  0  0
  138.9206   78.4738  221.0922 H   0  0  0  0  0  0  0  0  0  0  0  0
  139.0610   70.2504  222.4226 H   0  0  0  0  0  0  0  0  0  0  0  0
  138.8612   68.7118  224.4045 H   0  0  0  0  0  0  0  0  0  0  0  0
  139.3502   68.3456  226.7291 H   0  0  0  0  0  0  0  0  0  0  0  0
  140.3616   69.0973  228.8877 H   0  0  0  0  0  0  0  0  0  0  0  0
  141.4980   71.2857  228.9913 H   0  0  0  0  0  0  0  0  0  0  0  0
  141.6654   72.7626  226.9891 H   0  0  0  0  0  0  0  0  0  0  0  0
  1  2  2  0
  2  3  1  0
  3  4  1  0
  4  5  1  0
  5  6  2  0
  5  7  1  0
  7  8  1  0
  8  9  1  0
  9 10  1  0
 10 11  1  0
 11 12  1  0
 12 13  1  0
 13 14  2  0
 14 15  1  0
 15 16  2  0
 16 17  1  0
 17 18  1  0
 18 19  1  0
 18 20  1  0
 18 21  1  0
 17 22  2  0
  2 23  1  0
 23 24  2  0
 24 25  1  0
 25 26  2  0
 26 27  1  0
 27 28  2  0
 28 29  1  0
 29 30  2  0
 30 31  1  0
 31 32  2  0
 12  7  1  0
 22 13  1  0
 32 23  1  0
 31 26  1  0
  3 33  1  0
  4 34  1  0
  4 35  1  0
  8 36  1  0
  8 37  1  0
  9 38  1  0
  9 39  1  0
 10 40  1  0
 10 41  1  0
 11 42  1  0
 11 43  1  0
 12 44  1  6
 14 45  1  0
 15 46  1  0
 16 47  1  0
 22 48  1  0
 24 49  1  0
 25 50  1  0
 27 51  1  0
 28 52  1  0
 29 53  1  0
 30 54  1  0
M  END
>  <smiles>  (38) 
O=C(NCC(=O)N1CCCCC1c1cccc(C(F)(F)F)c1)c1ccc2ccccc2n1

>  <score_type>  (38) 
oracle

>  <origin>  (38) 
autodockgpu

>  <m_score__min__energy>  (38) 
-9.1799999999999997

>  <m_primary>  (38) 
energy

>  <rmsd>  (38) 
1.9787470966745881

>  <m_score__min__rmsd>  (38) 
1.9787470966745881

>  <meeko>  (38) 
{"free_energy": -8.73, "intermolecular_energy": -10.52, "internal_energy": -1.64, "cluster_size": 35, "cluster_id": 1, "rank_in_cluster": 32}

>  <energy>  (38) 
-8.31

>  <cluster_rmsd>  (38) 
0.0

>  <cluster>  (38) 
3

$$$$

     RDKit          3D

 54 57  0  0  0  0  0  0  0  0999 V2000
  140.8830   71.4690  221.3670 O   0  0  0  0  0  0  0  0  0  0  0  0
  140.4310   72.0440  222.4000 C   0  0  0  0  0  0  0  0  0  0  0  0
  140.1040   73.4240  222.2500 N   0  0  0  0  0  0  0  0  0  0  0  0
  140.3240   74.0110  220.9430 C   0  0  0  0  0  0  0  0  0  0  0  0
  141.0220   75.3110  221.1430 C   0  0  0  0  0  0  0  0  0  0  0  0
  141.1210   75.7130  222.3330 O   0  0  0  0  0  0  0  0  0  0  0  0
  141.5540   76.0660  220.0350 N   0  0  0  0  0  0  0  0  0  0  0  0
  140.6130   76.9090  219.3280 C   0  0  0  0  0  0  0  0  0  0  0  0
  141.0190   77.0180  217.8870 C   0  0  0  0  0  0  0  0  0  0  0  0
  142.4910   77.3750  217.7450 C   0  0  0  0  0  0  0  0  0  0  0  0
  143.3480   76.3230  218.3640 C   0  0  0  0  0  0  0  0  0  0  0  0
  142.9360   75.9170  219.7450 C   0  0  2  0  0  0  0  0  0  0  0  0
  143.4580   74.5480  219.9850 C   0  0  0  0  0  0  0  0  0  0  0  0
  144.5210   74.2940  220.8390 C   0  0  0  0  0  0  0  0  0  0  0  0
  144.9740   72.9840  221.0300 C   0  0  0  0  0  0  0  0  0  0  0  0
  144.3860   71.9160  220.3830 C   0  0  0  0  0  0  0  0  0  0  0  0
  143.3280   72.1660  219.5330 C   0  0  0  0  0  0  0  0  0  0  0  0
  142.6290   71.0830  218.7910 C   0  0  0  0  0  0  0  0  0  0  0  0
  141.3830   71.4730  218.3780 F   0  0  0  0  0  0  0  0  0  0  0  0
  143.3720   70.8180  217.6320 F   0  0  0  0  0  0  0  0  0  0  0  0
  142.6090   69.8940  219.4950 F   0  0  0  0  0  0  0  0  0  0  0  0
  142.8850   73.4520  219.3470 C   0  0  0  0  0  0  0  0  0  0  0  0
  140.2490   71.3490  223.6730 C   0  0  0  0  0  0  0  0  0  0  0  0
  139.5890   70.1330  223.6370 C   0  0  0  0  0  0  0  0  0  0  0  0
  139.3710   69.4030  224.8010 C   0  0  0  0  0  0  0  0  0  0  0  0
  139.8540   69.9710  225.9740 C   0  0  0  0  0  0  0  0  0  0  0  0
  139.6710   69.2960  227.1680 C   0  0  0  0  0  0  0  0  0  0  0  0
  140.1430   69.8390  228.3580 C   0  0  0  0  0  0  0  0  0  0  0  0
  140.7900   71.0550  228.3200 C   0  0  0  0  0  0  0  0  0  0  0  0
  140.9900   71.7580  227.1350 C   0  0  0  0  0  0  0  0  0  0  0  0
  140.5030   71.1830  225.9570 C   0  0  0  0  0  0  0  0  0  0  0  0
  140.7100   71.8870  224.8160 N   0  0  0  0  0  0  0  0  0  0  0  0
  139.7210   73.9740  223.0630 H   0  0  0  0  0  0  0  0  0  0  0  0
  140.9467   73.3415  220.3315 H   0  0  0  0  0  0  0  0  0  0  0  0
  139.3669   74.1633  220.4227 H   0  0  0  0  0  0  0  0  0  0  0  0
  139.6069   76.4690  219.3927 H   0  0  0  0  0  0  0  0  0  0  0  0
  140.6066   77.9106  219.7826 H   0  0  0  0  0  0  0  0  0  0  0  0
  140.8362   76.0535  217.3907 H   0  0  0  0  0  0  0  0  0  0  0  0
  140.4246   77.8182  217.4218 H   0  0  0  0  0  0  0  0  0  0  0  0
  142.7404   77.4625  216.6772 H   0  0  0  0  0  0  0  0  0  0  0  0
  142.6755   78.3303  218.2582 H   0  0  0  0  0  0  0  0  0  0  0  0
  143.3160   75.4316  217.7203 H   0  0  0  0  0  0  0  0  0  0  0  0
  144.3559   76.7544  218.4533 H   0  0  0  0  0  0  0  0  0  0  0  0
  143.3828   76.6210  220.4625 H   0  0  0  0  0  0  0  0  0  0  0  0
  145.0097   75.1254  221.3681 H   0  0  0  0  0  0  0  0  0  0  0  0
  145.8180   72.8011  221.7113 H   0  0  0  0  0  0  0  0  0  0  0  0
  144.7518   70.8907  220.5410 H   0  0  0  0  0  0  0  0  0  0  0  0
  142.0402   73.6236  218.6638 H   0  0  0  0  0  0  0  0  0  0  0  0
  139.2318   69.7382  222.6744 H   0  0  0  0  0  0  0  0  0  0  0  0
  138.8482   68.4352  224.7935 H   0  0  0  0  0  0  0  0  0  0  0  0
  139.1506   68.3269  227.1759 H   0  0  0  0  0  0  0  0  0  0  0  0
  140.0026   69.3081  229.3111 H   0  0  0  0  0  0  0  0  0  0  0  0
  141.1623   71.4864  229.2609 H   0  0  0  0  0  0  0  0  0  0  0  0
  141.5104   72.7271  227.1258 H   0  0  0  0  0  0  0  0  0  0  0  0
  1  2  2  0
  2  3  1  0
  3  4  1  0
  4  5  1  0
  5  6  2  0
  5  7  1  0
  7  8  1  0
  8  9  1  0
  9 10  1  0
 10 11  1  0
 11 12  1  0
 12 13  1  0
 13 14  2  0
 14 15  1  0
 15 16  2  0
 16 17  1  0
 17 18  1  0
 18 19  1  0
 18 20  1  0
 18 21  1  0
 17 22  2  0
  2 23  1  0
 23 24  2  0
 24 25  1  0
 25 26  2  0
 26 27  1  0
 27 28  2  0
 28 29  1  0
 29 30  2  0
 30 31  1  0
 31 32  2  0
 12  7  1  0
 22 13  1  0
 32 23  1  0
 31 26  1  0
  3 33  1  0
  4 34  1  0
  4 35  1  0
  8 36  1  0
  8 37  1  0
  9 38  1  0
  9 39  1  0
 10 40  1  0
 10 41  1  0
 11 42  1  0
 11 43  1  0
 12 44  1  1
 14 45  1  0
 15 46  1  0
 16 47  1  0
 22 48  1  0
 24 49  1  0
 25 50  1  0
 27 51  1  0
 28 52  1  0
 29 53  1  0
 30 54  1  0
M  END
>  <smiles>  (39) 
O=C(NCC(=O)N1CCCCC1c1cccc(C(F)(F)F)c1)c1ccc2ccccc2n1

>  <score_type>  (39) 
oracle

>  <origin>  (39) 
autodockgpu

>  <m_score__min__energy>  (39) 
-9.1799999999999997

>  <m_primary>  (39) 
energy

>  <rmsd>  (39) 
1.9905363307738964

>  <m_score__min__rmsd>  (39) 
1.9905363307738964

>  <meeko>  (39) 
{"free_energy": -7.88, "intermolecular_energy": -9.67, "internal_energy": -2.42, "cluster_size": 12, "cluster_id": 3, "rank_in_cluster": 7}

>  <energy>  (39) 
-8.19

>  <cluster_rmsd>  (39) 
1.96

>  <cluster>  (39) 
3

$$$$

     RDKit          3D

 54 57  0  0  0  0  0  0  0  0999 V2000
  140.5030   71.3670  221.3290 O   0  0  0  0  0  0  0  0  0  0  0  0
  140.1620   71.9140  222.4190 C   0  0  0  0  0  0  0  0  0  0  0  0
  139.8570   73.3060  222.3480 N   0  0  0  0  0  0  0  0  0  0  0  0
  139.9710   73.9350  221.0470 C   0  0  0  0  0  0  0  0  0  0  0  0
  140.7250   75.2060  221.2230 C   0  0  0  0  0  0  0  0  0  0  0  0
  140.6670   75.7350  222.3650 O   0  0  0  0  0  0  0  0  0  0  0  0
  141.4810   75.7970  220.1470 N   0  0  0  0  0  0  0  0  0  0  0  0
  142.5830   75.0100  219.6350 C   0  0  0  0  0  0  0  0  0  0  0  0
  143.6660   75.9240  219.1360 C   0  0  0  0  0  0  0  0  0  0  0  0
  143.1110   76.9970  218.2120 C   0  0  0  0  0  0  0  0  0  0  0  0
  142.1170   77.8460  218.9310 C   0  0  0  0  0  0  0  0  0  0  0  0
  141.0790   77.0800  219.6900 C   0  0  2  0  0  0  0  0  0  0  0  0
  140.5630   77.9670  220.7640 C   0  0  0  0  0  0  0  0  0  0  0  0
  139.2070   78.1580  220.9880 C   0  0  0  0  0  0  0  0  0  0  0  0
  138.7750   79.0050  222.0140 C   0  0  0  0  0  0  0  0  0  0  0  0
  139.6720   79.6700  222.8250 C   0  0  0  0  0  0  0  0  0  0  0  0
  141.0210   79.4830  222.6050 C   0  0  0  0  0  0  0  0  0  0  0  0
  142.0630   80.1550  223.4260 C   0  0  0  0  0  0  0  0  0  0  0  0
  141.6680   81.4060  223.8200 F   0  0  0  0  0  0  0  0  0  0  0  0
  142.2310   79.4000  224.5940 F   0  0  0  0  0  0  0  0  0  0  0  0
  143.2980   80.1560  222.8070 F   0  0  0  0  0  0  0  0  0  0  0  0
  141.4430   78.6510  221.5980 C   0  0  0  0  0  0  0  0  0  0  0  0
  140.0810   71.1770  223.6780 C   0  0  0  0  0  0  0  0  0  0  0  0
  139.4970   69.9230  223.6380 C   0  0  0  0  0  0  0  0  0  0  0  0
  139.3780   69.1520  224.7890 C   0  0  0  0  0  0  0  0  0  0  0  0
  139.8760   69.7200  225.9550 C   0  0  0  0  0  0  0  0  0  0  0  0
  139.7890   69.0050  227.1360 C   0  0  0  0  0  0  0  0  0  0  0  0
  140.2800   69.5470  228.3200 C   0  0  0  0  0  0  0  0  0  0  0  0
  140.8480   70.8010  228.2880 C   0  0  0  0  0  0  0  0  0  0  0  0
  140.9510   71.5460  227.1160 C   0  0  0  0  0  0  0  0  0  0  0  0
  140.4480   70.9700  225.9440 C   0  0  0  0  0  0  0  0  0  0  0  0
  140.5590   71.7150  224.8150 N   0  0  0  0  0  0  0  0  0  0  0  0
  139.5660   73.8340  223.2110 H   0  0  0  0  0  0  0  0  0  0  0  0
  140.5116   73.2713  220.3562 H   0  0  0  0  0  0  0  0  0  0  0  0
  138.9741   74.1337  220.6266 H   0  0  0  0  0  0  0  0  0  0  0  0
  142.9825   74.3734  220.4382 H   0  0  0  0  0  0  0  0  0  0  0  0
  142.2275   74.3788  218.8072 H   0  0  0  0  0  0  0  0  0  0  0  0
  144.1486   76.4092  219.9972 H   0  0  0  0  0  0  0  0  0  0  0  0
  144.3902   75.3216  218.5680 H   0  0  0  0  0  0  0  0  0  0  0  0
  143.9370   77.6302  217.8561 H   0  0  0  0  0  0  0  0  0  0  0  0
  142.6118   76.5094  217.3617 H   0  0  0  0  0  0  0  0  0  0  0  0
  142.6614   78.4843  219.6425 H   0  0  0  0  0  0  0  0  0  0  0  0
  141.5809   78.4198  218.1607 H   0  0  0  0  0  0  0  0  0  0  0  0
  140.2674   76.8150  218.9964 H   0  0  0  0  0  0  0  0  0  0  0  0
  138.4691   77.6415  220.3565 H   0  0  0  0  0  0  0  0  0  0  0  0
  137.6962   79.1441  222.1781 H   0  0  0  0  0  0  0  0  0  0  0  0
  139.3195   80.3338  223.6282 H   0  0  0  0  0  0  0  0  0  0  0  0
  142.5240   78.5190  221.4433 H   0  0  0  0  0  0  0  0  0  0  0  0
  139.1214   69.5304  222.6816 H   0  0  0  0  0  0  0  0  0  0  0  0
  138.9176   68.1531  224.7771 H   0  0  0  0  0  0  0  0  0  0  0  0
  139.3304   68.0052  227.1393 H   0  0  0  0  0  0  0  0  0  0  0  0
  140.2156   68.9846  229.2632 H   0  0  0  0  0  0  0  0  0  0  0  0
  141.2351   71.2306  229.2237 H   0  0  0  0  0  0  0  0  0  0  0  0
  141.4089   72.5461  227.1116 H   0  0  0  0  0  0  0  0  0  0  0  0
  1  2  2  0
  2  3  1  0
  3  4  1  0
  4  5  1  0
  5  6  2  0
  5  7  1  0
  7  8  1  0
  8  9  1  0
  9 10  1  0
 10 11  1  0
 11 12  1  0
 12 13  1  0
 13 14  2  0
 14 15  1  0
 15 16  2  0
 16 17  1  0
 17 18  1  0
 18 19  1  0
 18 20  1  0
 18 21  1  0
 17 22  2  0
  2 23  1  0
 23 24  2  0
 24 25  1  0
 25 26  2  0
 26 27  1  0
 27 28  2  0
 28 29  1  0
 29 30  2  0
 30 31  1  0
 31 32  2  0
 12  7  1  0
 22 13  1  0
 32 23  1  0
 31 26  1  0
  3 33  1  0
  4 34  1  0
  4 35  1  0
  8 36  1  0
  8 37  1  0
  9 38  1  0
  9 39  1  0
 10 40  1  0
 10 41  1  0
 11 42  1  0
 11 43  1  0
 12 44  1  6
 14 45  1  0
 15 46  1  0
 16 47  1  0
 22 48  1  0
 24 49  1  0
 25 50  1  0
 27 51  1  0
 28 52  1  0
 29 53  1  0
 30 54  1  0
M  END
>  <smiles>  (40) 
O=C(NCC(=O)N1CCCCC1c1cccc(C(F)(F)F)c1)c1ccc2ccccc2n1

>  <score_type>  (40) 
oracle

>  <origin>  (40) 
autodockgpu

>  <m_score__min__energy>  (40) 
-9.1799999999999997

>  <m_primary>  (40) 
energy

>  <rmsd>  (40) 
1.987535631923866

>  <m_score__min__rmsd>  (40) 
1.987535631923866

>  <meeko>  (40) 
{"free_energy": -8.83, "intermolecular_energy": -10.62, "internal_energy": -1.93, "cluster_size": 35, "cluster_id": 1, "rank_in_cluster": 23}

>  <energy>  (40) 
-7.97

>  <cluster_rmsd>  (40) 
1.7

>  <cluster>  (40) 
3

$$$$

     RDKit          3D

 54 57  0  0  0  0  0  0  0  0999 V2000
  139.0790   71.5130  221.4900 O   0  0  0  0  0  0  0  0  0  0  0  0
  139.7810   71.8660  222.4820 C   0  0  0  0  0  0  0  0  0  0  0  0
  140.5340   73.0650  222.3160 N   0  0  0  0  0  0  0  0  0  0  0  0
  140.4130   73.7420  221.0400 C   0  0  0  0  0  0  0  0  0  0  0  0
  141.0980   75.0590  221.1600 C   0  0  0  0  0  0  0  0  0  0  0  0
  141.3060   75.4750  222.3310 O   0  0  0  0  0  0  0  0  0  0  0  0
  141.5010   75.8140  219.9990 N   0  0  0  0  0  0  0  0  0  0  0  0
  142.4730   75.1810  219.1330 C   0  0  0  0  0  0  0  0  0  0  0  0
  143.3240   76.2310  218.4790 C   0  0  0  0  0  0  0  0  0  0  0  0
  142.4780   77.3320  217.8590 C   0  0  0  0  0  0  0  0  0  0  0  0
  141.6630   78.0170  218.9040 C   0  0  0  0  0  0  0  0  0  0  0  0
  140.9140   77.0930  219.8130 C   0  0  2  0  0  0  0  0  0  0  0  0
  140.6500   77.8250  221.0780 C   0  0  0  0  0  0  0  0  0  0  0  0
  139.4790   77.6640  221.8040 C   0  0  0  0  0  0  0  0  0  0  0  0
  139.2810   78.3780  222.9900 C   0  0  0  0  0  0  0  0  0  0  0  0
  140.2320   79.2560  223.4710 C   0  0  0  0  0  0  0  0  0  0  0  0
  141.3980   79.4180  222.7510 C   0  0  0  0  0  0  0  0  0  0  0  0
  142.4810   80.3400  223.1870 C   0  0  0  0  0  0  0  0  0  0  0  0
  142.2050   81.6400  222.8540 F   0  0  0  0  0  0  0  0  0  0  0  0
  142.5420   80.2870  224.5860 F   0  0  0  0  0  0  0  0  0  0  0  0
  143.7260   79.9310  222.7490 F   0  0  0  0  0  0  0  0  0  0  0  0
  141.5900   78.7160  221.5870 C   0  0  0  0  0  0  0  0  0  0  0  0
  139.8270   71.1010  223.7270 C   0  0  0  0  0  0  0  0  0  0  0  0
  139.2350   69.8490  223.7190 C   0  0  0  0  0  0  0  0  0  0  0  0
  139.2310   69.0520  224.8590 C   0  0  0  0  0  0  0  0  0  0  0  0
  139.8490   69.5920  225.9800 C   0  0  0  0  0  0  0  0  0  0  0  0
  139.8810   68.8510  227.1470 C   0  0  0  0  0  0  0  0  0  0  0  0
  140.4930   69.3640  228.2860 C   0  0  0  0  0  0  0  0  0  0  0  0
  141.0620   70.6180  228.2240 C   0  0  0  0  0  0  0  0  0  0  0  0
  141.0470   71.3880  227.0640 C   0  0  0  0  0  0  0  0  0  0  0  0
  140.4230   70.8410  225.9380 C   0  0  0  0  0  0  0  0  0  0  0  0
  140.4220   71.6110  224.8200 N   0  0  0  0  0  0  0  0  0  0  0  0
  141.1440   73.4260  223.0950 H   0  0  0  0  0  0  0  0  0  0  0  0
  140.8898   73.1421  220.2508 H   0  0  0  0  0  0  0  0  0  0  0  0
  139.3542   73.8808  220.7761 H   0  0  0  0  0  0  0  0  0  0  0  0
  143.1111   74.5105  219.7273 H   0  0  0  0  0  0  0  0  0  0  0  0
  141.9495   74.6007  218.3589 H   0  0  0  0  0  0  0  0  0  0  0  0
  143.9880   76.6744  219.2357 H   0  0  0  0  0  0  0  0  0  0  0  0
  143.9057   75.7520  217.6777 H   0  0  0  0  0  0  0  0  0  0  0  0
  143.1384   78.0670  217.3757 H   0  0  0  0  0  0  0  0  0  0  0  0
  141.8007   76.8844  217.1168 H   0  0  0  0  0  0  0  0  0  0  0  0
  142.3381   78.6306  219.5185 H   0  0  0  0  0  0  0  0  0  0  0  0
  140.9067   78.6115  218.3705 H   0  0  0  0  0  0  0  0  0  0  0  0
  139.9641   76.8232  219.3283 H   0  0  0  0  0  0  0  0  0  0  0  0
  138.7030   76.9718  221.4453 H   0  0  0  0  0  0  0  0  0  0  0  0
  138.3463   78.2370  223.5526 H   0  0  0  0  0  0  0  0  0  0  0  0
  140.0643   79.8125  224.4049 H   0  0  0  0  0  0  0  0  0  0  0  0
  142.5282   78.8643  221.0322 H   0  0  0  0  0  0  0  0  0  0  0  0
  138.7611   69.4795  222.7977 H   0  0  0  0  0  0  0  0  0  0  0  0
  138.7668   68.0548  224.8721 H   0  0  0  0  0  0  0  0  0  0  0  0
  139.4208   67.8523  227.1748 H   0  0  0  0  0  0  0  0  0  0  0  0
  140.5223   68.7804  229.2179 H   0  0  0  0  0  0  0  0  0  0  0  0
  141.5457   71.0254  229.1240 H   0  0  0  0  0  0  0  0  0  0  0  0
  141.5075   72.3865  227.0343 H   0  0  0  0  0  0  0  0  0  0  0  0
  1  2  2  0
  2  3  1  0
  3  4  1  0
  4  5  1  0
  5  6  2  0
  5  7  1  0
  7  8  1  0
  8  9  1  0
  9 10  1  0
 10 11  1  0
 11 12  1  0
 12 13  1  0
 13 14  2  0
 14 15  1  0
 15 16  2  0
 16 17  1  0
 17 18  1  0
 18 19  1  0
 18 20  1  0
 18 21  1  0
 17 22  2  0
  2 23  1  0
 23 24  2  0
 24 25  1  0
 25 26  2  0
 26 27  1  0
 27 28  2  0
 28 29  1  0
 29 30  2  0
 30 31  1  0
 31 32  2  0
 12  7  1  0
 22 13  1  0
 32 23  1  0
 31 26  1  0
  3 33  1  0
  4 34  1  0
  4 35  1  0
  8 36  1  0
  8 37  1  0
  9 38  1  0
  9 39  1  0
 10 40  1  0
 10 41  1  0
 11 42  1  0
 11 43  1  0
 12 44  1  6
 14 45  1  0
 15 46  1  0
 16 47  1  0
 22 48  1  0
 24 49  1  0
 25 50  1  0
 27 51  1  0
 28 52  1  0
 29 53  1  0
 30 54  1  0
M  END
>  <smiles>  (41) 
O=C(NCC(=O)N1CCCCC1c1cccc(C(F)(F)F)c1)c1ccc2ccccc2n1

>  <score_type>  (41) 
oracle

>  <origin>  (41) 
autodockgpu

>  <m_score__min__energy>  (41) 
-9.1799999999999997

>  <m_primary>  (41) 
energy

>  <rmsd>  (41) 
1.9303130655321687

>  <m_score__min__rmsd>  (41) 
1.9303130655321687

>  <meeko>  (41) 
{"free_energy": -8.28, "intermolecular_energy": -10.07, "internal_energy": -2.09, "cluster_size": 35, "cluster_id": 1, "rank_in_cluster": 34}

>  <energy>  (41) 
-7.91

>  <cluster_rmsd>  (41) 
1.75

>  <cluster>  (41) 
3

$$$$

     RDKit          3D

 54 57  0  0  0  0  0  0  0  0999 V2000
  140.6750   71.4750  221.3300 O   0  0  0  0  0  0  0  0  0  0  0  0
  140.2700   72.0160  222.4000 C   0  0  0  0  0  0  0  0  0  0  0  0
  139.9140   73.3940  222.3040 N   0  0  0  0  0  0  0  0  0  0  0  0
  140.0530   74.0170  221.0030 C   0  0  0  0  0  0  0  0  0  0  0  0
  140.8230   75.2790  221.1850 C   0  0  0  0  0  0  0  0  0  0  0  0
  140.8700   75.7380  222.3570 O   0  0  0  0  0  0  0  0  0  0  0  0
  141.4780   75.9350  220.0810 N   0  0  0  0  0  0  0  0  0  0  0  0
  142.5370   75.1910  219.4340 C   0  0  0  0  0  0  0  0  0  0  0  0
  143.5650   76.1430  218.8940 C   0  0  0  0  0  0  0  0  0  0  0  0
  142.9240   77.2570  218.0810 C   0  0  0  0  0  0  0  0  0  0  0  0
  141.9900   78.0540  218.9280 C   0  0  0  0  0  0  0  0  0  0  0  0
  141.0280   77.2360  219.7320 C   0  0  2  0  0  0  0  0  0  0  0  0
  140.6010   78.0580  220.8930 C   0  0  0  0  0  0  0  0  0  0  0  0
  139.2820   78.1160  221.3210 C   0  0  0  0  0  0  0  0  0  0  0  0
  138.9340   78.9070  222.4210 C   0  0  0  0  0  0  0  0  0  0  0  0
  139.8780   79.6450  223.1070 C   0  0  0  0  0  0  0  0  0  0  0  0
  141.1900   79.5890  222.6830 C   0  0  0  0  0  0  0  0  0  0  0  0
  142.2770   80.3480  223.3550 C   0  0  0  0  0  0  0  0  0  0  0  0
  143.3710   80.4940  222.5430 F   0  0  0  0  0  0  0  0  0  0  0  0
  141.7940   81.6380  223.6140 F   0  0  0  0  0  0  0  0  0  0  0  0
  142.5980   79.8200  224.5910 F   0  0  0  0  0  0  0  0  0  0  0  0
  141.5290   78.8120  221.6030 C   0  0  0  0  0  0  0  0  0  0  0  0
  140.1700   71.2870  223.6630 C   0  0  0  0  0  0  0  0  0  0  0  0
  139.5490   70.0500  223.6270 C   0  0  0  0  0  0  0  0  0  0  0  0
  139.4090   69.2860  224.7820 C   0  0  0  0  0  0  0  0  0  0  0  0
  139.9250   69.8440  225.9450 C   0  0  0  0  0  0  0  0  0  0  0  0
  139.8190   69.1360  227.1290 C   0  0  0  0  0  0  0  0  0  0  0  0
  140.3260   69.6680  228.3100 C   0  0  0  0  0  0  0  0  0  0  0  0
  140.9310   70.9050  228.2730 C   0  0  0  0  0  0  0  0  0  0  0  0
  141.0530   71.6420  227.0980 C   0  0  0  0  0  0  0  0  0  0  0  0
  140.5330   71.0770  225.9290 C   0  0  0  0  0  0  0  0  0  0  0  0
  140.6640   71.8140  224.7970 N   0  0  0  0  0  0  0  0  0  0  0  0
  139.5680   73.9170  223.1500 H   0  0  0  0  0  0  0  0  0  0  0  0
  140.5930   73.3437  220.3210 H   0  0  0  0  0  0  0  0  0  0  0  0
  139.0643   74.2281  220.5694 H   0  0  0  0  0  0  0  0  0  0  0  0
  143.0097   74.5174  220.1639 H   0  0  0  0  0  0  0  0  0  0  0  0
  142.1158   74.6009  218.6068 H   0  0  0  0  0  0  0  0  0  0  0  0
  144.1170   76.5873  219.7354 H   0  0  0  0  0  0  0  0  0  0  0  0
  144.2415   75.5806  218.2336 H   0  0  0  0  0  0  0  0  0  0  0  0
  143.7113   77.9183  217.6901 H   0  0  0  0  0  0  0  0  0  0  0  0
  142.3566   76.8096  217.2516 H   0  0  0  0  0  0  0  0  0  0  0  0
  142.5894   78.6605  219.6229 H   0  0  0  0  0  0  0  0  0  0  0  0
  141.3842   78.6609  218.2390 H   0  0  0  0  0  0  0  0  0  0  0  0
  140.1603   76.9987  219.0989 H   0  0  0  0  0  0  0  0  0  0  0  0
  138.5083   77.5385  220.7939 H   0  0  0  0  0  0  0  0  0  0  0  0
  137.8840   78.9419  222.7470 H   0  0  0  0  0  0  0  0  0  0  0  0
  139.5911   80.2628  223.9708 H   0  0  0  0  0  0  0  0  0  0  0  0
  142.5817   78.7847  221.2851 H   0  0  0  0  0  0  0  0  0  0  0  0
  139.1608   69.6657  222.6722 H   0  0  0  0  0  0  0  0  0  0  0  0
  138.9198   68.3008  224.7744 H   0  0  0  0  0  0  0  0  0  0  0  0
  139.3324   68.1495  227.1364 H   0  0  0  0  0  0  0  0  0  0  0  0
  140.2454   69.1115  229.2554 H   0  0  0  0  0  0  0  0  0  0  0  0
  141.3327   71.3262  229.2064 H   0  0  0  0  0  0  0  0  0  0  0  0
  141.5388   72.6289  227.0895 H   0  0  0  0  0  0  0  0  0  0  0  0
  1  2  2  0
  2  3  1  0
  3  4  1  0
  4  5  1  0
  5  6  2  0
  5  7  1  0
  7  8  1  0
  8  9  1  0
  9 10  1  0
 10 11  1  0
 11 12  1  0
 12 13  1  0
 13 14  2  0
 14 15  1  0
 15 16  2  0
 16 17  1  0
 17 18  1  0
 18 19  1  0
 18 20  1  0
 18 21  1  0
 17 22  2  0
  2 23  1  0
 23 24  2  0
 24 25  1  0
 25 26  2  0
 26 27  1  0
 27 28  2  0
 28 29  1  0
 29 30  2  0
 30 31  1  0
 31 32  2  0
 12  7  1  0
 22 13  1  0
 32 23  1  0
 31 26  1  0
  3 33  1  0
  4 34  1  0
  4 35  1  0
  8 36  1  0
  8 37  1  0
  9 38  1  0
  9 39  1  0
 10 40  1  0
 10 41  1  0
 11 42  1  0
 11 43  1  0
 12 44  1  6
 14 45  1  0
 15 46  1  0
 16 47  1  0
 22 48  1  0
 24 49  1  0
 25 50  1  0
 27 51  1  0
 28 52  1  0
 29 53  1  0
 30 54  1  0
M  END
>  <smiles>  (42) 
O=C(NCC(=O)N1CCCCC1c1cccc(C(F)(F)F)c1)c1ccc2ccccc2n1

>  <score_type>  (42) 
oracle

>  <origin>  (42) 
autodockgpu

>  <m_score__min__energy>  (42) 
-9.1799999999999997

>  <m_primary>  (42) 
energy

>  <rmsd>  (42) 
1.9968526381949072

>  <m_score__min__rmsd>  (42) 
1.9968526381949072

>  <meeko>  (42) 
{"free_energy": -8.96, "intermolecular_energy": -10.75, "internal_energy": -1.88, "cluster_size": 35, "cluster_id": 1, "rank_in_cluster": 17}

>  <energy>  (42) 
-7.9

>  <cluster_rmsd>  (42) 
1.74

>  <cluster>  (42) 
3

$$$$

     RDKit          3D

 54 57  0  0  0  0  0  0  0  0999 V2000
  140.7120   71.4940  221.3650 O   0  0  0  0  0  0  0  0  0  0  0  0
  140.2700   72.0290  222.4230 C   0  0  0  0  0  0  0  0  0  0  0  0
  139.8680   73.3930  222.3100 N   0  0  0  0  0  0  0  0  0  0  0  0
  140.0080   74.0100  221.0060 C   0  0  0  0  0  0  0  0  0  0  0  0
  140.7790   75.2720  221.1840 C   0  0  0  0  0  0  0  0  0  0  0  0
  140.8570   75.7160  222.3610 O   0  0  0  0  0  0  0  0  0  0  0  0
  141.4020   75.9460  220.0710 N   0  0  0  0  0  0  0  0  0  0  0  0
  142.4460   75.2140  219.3860 C   0  0  0  0  0  0  0  0  0  0  0  0
  143.4550   76.1770  218.8310 C   0  0  0  0  0  0  0  0  0  0  0  0
  142.7880   77.2990  218.0500 C   0  0  0  0  0  0  0  0  0  0  0  0
  141.8740   78.0810  218.9330 C   0  0  0  0  0  0  0  0  0  0  0  0
  140.9370   77.2490  219.7510 C   0  0  2  0  0  0  0  0  0  0  0  0
  140.5380   78.0540  220.9340 C   0  0  0  0  0  0  0  0  0  0  0  0
  139.2380   78.0780  221.4160 C   0  0  0  0  0  0  0  0  0  0  0  0
  138.9160   78.8540  222.5350 C   0  0  0  0  0  0  0  0  0  0  0  0
  139.8690   79.6110  223.1860 C   0  0  0  0  0  0  0  0  0  0  0  0
  141.1640   79.5890  222.7080 C   0  0  0  0  0  0  0  0  0  0  0  0
  142.2590   80.3700  223.3400 C   0  0  0  0  0  0  0  0  0  0  0  0
  143.3310   80.5140  222.4990 F   0  0  0  0  0  0  0  0  0  0  0  0
  141.7690   81.6590  223.5890 F   0  0  0  0  0  0  0  0  0  0  0  0
  142.6160   79.8670  224.5770 F   0  0  0  0  0  0  0  0  0  0  0  0
  141.4770   78.8270  221.6100 C   0  0  0  0  0  0  0  0  0  0  0  0
  140.1720   71.3060  223.6900 C   0  0  0  0  0  0  0  0  0  0  0  0
  139.5440   70.0730  223.6630 C   0  0  0  0  0  0  0  0  0  0  0  0
  139.4060   69.3150  224.8220 C   0  0  0  0  0  0  0  0  0  0  0  0
  139.9310   69.8750  225.9800 C   0  0  0  0  0  0  0  0  0  0  0  0
  139.8270   69.1730  227.1680 C   0  0  0  0  0  0  0  0  0  0  0  0
  140.3440   69.7080  228.3440 C   0  0  0  0  0  0  0  0  0  0  0  0
  140.9550   70.9420  228.2980 C   0  0  0  0  0  0  0  0  0  0  0  0
  141.0750   71.6720  227.1180 C   0  0  0  0  0  0  0  0  0  0  0  0
  140.5450   71.1050  225.9550 C   0  0  0  0  0  0  0  0  0  0  0  0
  140.6750   71.8360  224.8190 N   0  0  0  0  0  0  0  0  0  0  0  0
  139.4890   73.9100  223.1460 H   0  0  0  0  0  0  0  0  0  0  0  0
  140.5479   73.3334  220.3272 H   0  0  0  0  0  0  0  0  0  0  0  0
  139.0200   74.2197  220.5703 H   0  0  0  0  0  0  0  0  0  0  0  0
  142.9408   74.5330  220.0942 H   0  0  0  0  0  0  0  0  0  0  0  0
  142.0049   74.6324  218.5631 H   0  0  0  0  0  0  0  0  0  0  0  0
  144.0278   76.6127  219.6629 H   0  0  0  0  0  0  0  0  0  0  0  0
  144.1154   75.6260  218.1452 H   0  0  0  0  0  0  0  0  0  0  0  0
  143.5619   77.9687  217.6467 H   0  0  0  0  0  0  0  0  0  0  0  0
  142.2003   76.8603  217.2302 H   0  0  0  0  0  0  0  0  0  0  0  0
  142.4898   78.6802  219.6198 H   0  0  0  0  0  0  0  0  0  0  0  0
  141.2478   78.6948  218.2688 H   0  0  0  0  0  0  0  0  0  0  0  0
  140.0535   77.0165  219.1383 H   0  0  0  0  0  0  0  0  0  0  0  0
  138.4573   77.4851  220.9170 H   0  0  0  0  0  0  0  0  0  0  0  0
  137.8798   78.8609  222.9042 H   0  0  0  0  0  0  0  0  0  0  0  0
  139.6031   80.2172  224.0645 H   0  0  0  0  0  0  0  0  0  0  0  0
  142.5159   78.8275  221.2486 H   0  0  0  0  0  0  0  0  0  0  0  0
  139.1484   69.6867  222.7121 H   0  0  0  0  0  0  0  0  0  0  0  0
  138.9114   68.3325  224.8213 H   0  0  0  0  0  0  0  0  0  0  0  0
  139.3344   68.1896  227.1828 H   0  0  0  0  0  0  0  0  0  0  0  0
  140.2663   69.1561  229.2924 H   0  0  0  0  0  0  0  0  0  0  0  0
  141.3630   71.3662  229.2273 H   0  0  0  0  0  0  0  0  0  0  0  0
  141.5672   72.6556  227.1016 H   0  0  0  0  0  0  0  0  0  0  0  0
  1  2  2  0
  2  3  1  0
  3  4  1  0
  4  5  1  0
  5  6  2  0
  5  7  1  0
  7  8  1  0
  8  9  1  0
  9 10  1  0
 10 11  1  0
 11 12  1  0
 12 13  1  0
 13 14  2  0
 14 15  1  0
 15 16  2  0
 16 17  1  0
 17 18  1  0
 18 19  1  0
 18 20  1  0
 18 21  1  0
 17 22  2  0
  2 23  1  0
 23 24  2  0
 24 25  1  0
 25 26  2  0
 26 27  1  0
 27 28  2  0
 28 29  1  0
 29 30  2  0
 30 31  1  0
 31 32  2  0
 12  7  1  0
 22 13  1  0
 32 23  1  0
 31 26  1  0
  3 33  1  0
  4 34  1  0
  4 35  1  0
  8 36  1  0
  8 37  1  0
  9 38  1  0
  9 39  1  0
 10 40  1  0
 10 41  1  0
 11 42  1  0
 11 43  1  0
 12 44  1  6
 14 45  1  0
 15 46  1  0
 16 47  1  0
 22 48  1  0
 24 49  1  0
 25 50  1  0
 27 51  1  0
 28 52  1  0
 29 53  1  0
 30 54  1  0
M  END
>  <smiles>  (43) 
O=C(NCC(=O)N1CCCCC1c1cccc(C(F)(F)F)c1)c1ccc2ccccc2n1

>  <score_type>  (43) 
oracle

>  <origin>  (43) 
autodockgpu

>  <m_score__min__energy>  (43) 
-9.1799999999999997

>  <m_primary>  (43) 
energy

>  <rmsd>  (43) 
1.96595183776558

>  <m_score__min__rmsd>  (43) 
1.96595183776558

>  <meeko>  (43) 
{"free_energy": -9.01, "intermolecular_energy": -10.8, "internal_energy": -1.83, "cluster_size": 35, "cluster_id": 1, "rank_in_cluster": 14}

>  <energy>  (43) 
-7.9

>  <cluster_rmsd>  (43) 
1.75

>  <cluster>  (43) 
3

$$$$

     RDKit          3D

 54 57  0  0  0  0  0  0  0  0999 V2000
  140.9020   71.4860  221.3720 O   0  0  0  0  0  0  0  0  0  0  0  0
  140.4320   72.0540  222.4010 C   0  0  0  0  0  0  0  0  0  0  0  0
  140.0890   73.4300  222.2500 N   0  0  0  0  0  0  0  0  0  0  0  0
  140.3130   74.0210  220.9460 C   0  0  0  0  0  0  0  0  0  0  0  0
  140.9850   75.3340  221.1540 C   0  0  0  0  0  0  0  0  0  0  0  0
  141.0570   75.7400  222.3450 O   0  0  0  0  0  0  0  0  0  0  0  0
  141.5220   76.0960  220.0540 N   0  0  0  0  0  0  0  0  0  0  0  0
  140.5920   76.9670  219.3680 C   0  0  0  0  0  0  0  0  0  0  0  0
  140.9880   77.0910  217.9250 C   0  0  0  0  0  0  0  0  0  0  0  0
  142.4650   77.4220  217.7760 C   0  0  0  0  0  0  0  0  0  0  0  0
  143.3070   76.3440  218.3710 C   0  0  0  0  0  0  0  0  0  0  0  0
  142.8980   75.9250  219.7490 C   0  0  2  0  0  0  0  0  0  0  0  0
  143.3960   74.5430  219.9640 C   0  0  0  0  0  0  0  0  0  0  0  0
  144.4320   74.2500  220.8390 C   0  0  0  0  0  0  0  0  0  0  0  0
  144.8630   72.9300  221.0040 C   0  0  0  0  0  0  0  0  0  0  0  0
  144.2790   71.8880  220.3100 C   0  0  0  0  0  0  0  0  0  0  0  0
  143.2480   72.1770  219.4390 C   0  0  0  0  0  0  0  0  0  0  0  0
  142.5570   71.1250  218.6480 C   0  0  0  0  0  0  0  0  0  0  0  0
  143.1400   70.9480  217.4210 F   0  0  0  0  0  0  0  0  0  0  0  0
  142.7010   69.9140  219.3390 F   0  0  0  0  0  0  0  0  0  0  0  0
  141.1950   71.3410  218.5640 F   0  0  0  0  0  0  0  0  0  0  0  0
  142.8270   73.4740  219.2790 C   0  0  0  0  0  0  0  0  0  0  0  0
  140.2480   71.3550  223.6710 C   0  0  0  0  0  0  0  0  0  0  0  0
  139.5900   70.1380  223.6300 C   0  0  0  0  0  0  0  0  0  0  0  0
  139.3700   69.4040  224.7920 C   0  0  0  0  0  0  0  0  0  0  0  0
  139.8480   69.9690  225.9670 C   0  0  0  0  0  0  0  0  0  0  0  0
  139.6630   69.2910  227.1580 C   0  0  0  0  0  0  0  0  0  0  0  0
  140.1300   69.8310  228.3520 C   0  0  0  0  0  0  0  0  0  0  0  0
  140.7760   71.0480  228.3200 C   0  0  0  0  0  0  0  0  0  0  0  0
  140.9790   71.7550  227.1370 C   0  0  0  0  0  0  0  0  0  0  0  0
  140.4960   71.1820  225.9560 C   0  0  0  0  0  0  0  0  0  0  0  0
  140.7050   71.8900  224.8170 N   0  0  0  0  0  0  0  0  0  0  0  0
  139.6920   73.9740  223.0600 H   0  0  0  0  0  0  0  0  0  0  0  0
  140.9548   73.3631  220.3416 H   0  0  0  0  0  0  0  0  0  0  0  0
  139.3592   74.1559  220.4148 H   0  0  0  0  0  0  0  0  0  0  0  0
  139.5783   76.5450  219.4344 H   0  0  0  0  0  0  0  0  0  0  0  0
  140.6086   77.9614  219.8379 H   0  0  0  0  0  0  0  0  0  0  0  0
  140.7826   76.1381  217.4153 H   0  0  0  0  0  0  0  0  0  0  0  0
  140.4052   77.9096  217.4775 H   0  0  0  0  0  0  0  0  0  0  0  0
  142.7072   77.5218  216.7076 H   0  0  0  0  0  0  0  0  0  0  0  0
  142.6720   78.3653  218.3027 H   0  0  0  0  0  0  0  0  0  0  0  0
  143.2525   75.4635  217.7139 H   0  0  0  0  0  0  0  0  0  0  0  0
  144.3241   76.7539  218.4580 H   0  0  0  0  0  0  0  0  0  0  0  0
  143.3635   76.6100  220.4729 H   0  0  0  0  0  0  0  0  0  0  0  0
  144.9163   75.0592  221.4052 H   0  0  0  0  0  0  0  0  0  0  0  0
  145.6857   72.7165  221.7022 H   0  0  0  0  0  0  0  0  0  0  0  0
  144.6270   70.8537  220.4481 H   0  0  0  0  0  0  0  0  0  0  0  0
  142.0036   73.6769  218.5784 H   0  0  0  0  0  0  0  0  0  0  0  0
  139.2359   69.7453  222.6654 H   0  0  0  0  0  0  0  0  0  0  0  0
  138.8491   68.4352  224.7803 H   0  0  0  0  0  0  0  0  0  0  0  0
  139.1445   68.3209  227.1613 H   0  0  0  0  0  0  0  0  0  0  0  0
  139.9865   69.2971  229.3030 H   0  0  0  0  0  0  0  0  0  0  0  0
  141.1449   71.4769  229.2634 H   0  0  0  0  0  0  0  0  0  0  0  0
  141.4982   72.7247  227.1318 H   0  0  0  0  0  0  0  0  0  0  0  0
  1  2  2  0
  2  3  1  0
  3  4  1  0
  4  5  1  0
  5  6  2  0
  5  7  1  0
  7  8  1  0
  8  9  1  0
  9 10  1  0
 10 11  1  0
 11 12  1  0
 12 13  1  0
 13 14  2  0
 14 15  1  0
 15 16  2  0
 16 17  1  0
 17 18  1  0
 18 19  1  0
 18 20  1  0
 18 21  1  0
 17 22  2  0
  2 23  1  0
 23 24  2  0
 24 25  1  0
 25 26  2  0
 26 27  1  0
 27 28  2  0
 28 29  1  0
 29 30  2  0
 30 31  1  0
 31 32  2  0
 12  7  1  0
 22 13  1  0
 32 23  1  0
 31 26  1  0
  3 33  1  0
  4 34  1  0
  4 35  1  0
  8 36  1  0
  8 37  1  0
  9 38  1  0
  9 39  1  0
 10 40  1  0
 10 41  1  0
 11 42  1  0
 11 43  1  0
 12 44  1  1
 14 45  1  0
 15 46  1  0
 16 47  1  0
 22 48  1  0
 24 49  1  0
 25 50  1  0
 27 51  1  0
 28 52  1  0
 29 53  1  0
 30 54  1  0
M  END
>  <smiles>  (44) 
O=C(NCC(=O)N1CCCCC1c1cccc(C(F)(F)F)c1)c1ccc2ccccc2n1

>  <score_type>  (44) 
oracle

>  <origin>  (44) 
autodockgpu

>  <m_score__min__energy>  (44) 
-9.1799999999999997

>  <m_primary>  (44) 
energy

>  <rmsd>  (44) 
1.988348519081357

>  <m_score__min__rmsd>  (44) 
1.988348519081357

>  <meeko>  (44) 
{"free_energy": -7.86, "intermolecular_energy": -9.65, "internal_energy": -2.44, "cluster_size": 12, "cluster_id": 3, "rank_in_cluster": 8}

>  <energy>  (44) 
-7.88

>  <cluster_rmsd>  (44) 
1.76

>  <cluster>  (44) 
3

$$$$

     RDKit          3D

 54 57  0  0  0  0  0  0  0  0999 V2000
  139.2130   74.4270  221.0590 O   0  0  0  0  0  0  0  0  0  0  0  0
  140.4090   74.7590  221.3080 C   0  0  0  0  0  0  0  0  0  0  0  0
  140.5790   75.9890  222.0100 N   0  0  0  0  0  0  0  0  0  0  0  0
  139.3740   76.7160  222.3590 C   0  0  0  0  0  0  0  0  0  0  0  0
  139.5830   78.1430  221.9880 C   0  0  0  0  0  0  0  0  0  0  0  0
  138.8480   78.5930  221.0690 O   0  0  0  0  0  0  0  0  0  0  0  0
  140.5710   78.9620  222.6450 N   0  0  0  0  0  0  0  0  0  0  0  0
  140.0960   79.7770  223.7430 C   0  0  0  0  0  0  0  0  0  0  0  0
  140.9140   81.0330  223.8300 C   0  0  0  0  0  0  0  0  0  0  0  0
  142.4050   80.7320  223.8040 C   0  0  0  0  0  0  0  0  0  0  0  0
  142.7800   80.0510  222.5300 C   0  0  0  0  0  0  0  0  0  0  0  0
  141.9050   78.8940  222.1630 C   0  0  2  0  0  0  0  0  0  0  0  0
  142.0060   78.7040  220.6930 C   0  0  0  0  0  0  0  0  0  0  0  0
  142.2130   77.4610  220.1130 C   0  0  0  0  0  0  0  0  0  0  0  0
  142.3000   77.3380  218.7230 C   0  0  0  0  0  0  0  0  0  0  0  0
  142.1840   78.4360  217.8930 C   0  0  0  0  0  0  0  0  0  0  0  0
  141.9780   79.6740  218.4670 C   0  0  0  0  0  0  0  0  0  0  0  0
  141.8410   80.9140  217.6580 C   0  0  0  0  0  0  0  0  0  0  0  0
  141.4780   80.6380  216.3660 F   0  0  0  0  0  0  0  0  0  0  0  0
  140.7990   81.6680  218.2150 F   0  0  0  0  0  0  0  0  0  0  0  0
  142.9610   81.7180  217.7370 F   0  0  0  0  0  0  0  0  0  0  0  0
  141.8930   79.7910  219.8320 C   0  0  0  0  0  0  0  0  0  0  0  0
  141.5530   73.9440  220.9060 C   0  0  0  0  0  0  0  0  0  0  0  0
  141.2970   72.6290  220.5570 C   0  0  0  0  0  0  0  0  0  0  0  0
  142.3260   71.7800  220.1620 C   0  0  0  0  0  0  0  0  0  0  0  0
  143.5990   72.3370  220.1450 C   0  0  0  0  0  0  0  0  0  0  0  0
  144.6680   71.5460  219.7610 C   0  0  0  0  0  0  0  0  0  0  0  0
  145.9550   72.0750  219.7340 C   0  0  0  0  0  0  0  0  0  0  0  0
  146.1380   73.3920  220.0940 C   0  0  0  0  0  0  0  0  0  0  0  0
  145.0820   74.2130  220.4840 C   0  0  0  0  0  0  0  0  0  0  0  0
  143.8020   73.6490  220.5010 C   0  0  0  0  0  0  0  0  0  0  0  0
  142.7910   74.4690  220.8840 N   0  0  0  0  0  0  0  0  0  0  0  0
  141.5430   76.3360  222.2550 H   0  0  0  0  0  0  0  0  0  0  0  0
  138.5160   76.3068  221.8055 H   0  0  0  0  0  0  0  0  0  0  0  0
  139.1665   76.6241  223.4353 H   0  0  0  0  0  0  0  0  0  0  0  0
  139.0408   80.0385  223.5748 H   0  0  0  0  0  0  0  0  0  0  0  0
  140.1910   79.2139  224.6831 H   0  0  0  0  0  0  0  0  0  0  0  0
  140.6655   81.6809  222.9765 H   0  0  0  0  0  0  0  0  0  0  0  0
  140.6797   81.5314  224.7822 H   0  0  0  0  0  0  0  0  0  0  0  0
  142.9658   81.6745  223.8891 H   0  0  0  0  0  0  0  0  0  0  0  0
  142.6480   80.0679  224.6466 H   0  0  0  0  0  0  0  0  0  0  0  0
  142.7298   80.7908  221.7175 H   0  0  0  0  0  0  0  0  0  0  0  0
  143.7907   79.6434  222.6794 H   0  0  0  0  0  0  0  0  0  0  0  0
  142.2749   77.9994  222.6853 H   0  0  0  0  0  0  0  0  0  0  0  0
  142.3091   76.5687  220.7491 H   0  0  0  0  0  0  0  0  0  0  0  0
  142.4645   76.3445  218.2804 H   0  0  0  0  0  0  0  0  0  0  0  0
  142.2541   78.3263  216.8007 H   0  0  0  0  0  0  0  0  0  0  0  0
  141.7282   80.7889  220.2645 H   0  0  0  0  0  0  0  0  0  0  0  0
  140.2650   72.2499  220.5925 H   0  0  0  0  0  0  0  0  0  0  0  0
  142.1432   70.7325  219.8805 H   0  0  0  0  0  0  0  0  0  0  0  0
  144.4999   70.4968  219.4765 H   0  0  0  0  0  0  0  0  0  0  0  0
  146.8101   71.4530  219.4308 H   0  0  0  0  0  0  0  0  0  0  0  0
  147.1549   73.8108  220.0728 H   0  0  0  0  0  0  0  0  0  0  0  0
  145.2482   75.2628  220.7672 H   0  0  0  0  0  0  0  0  0  0  0  0
  1  2  2  0
  2  3  1  0
  3  4  1  0
  4  5  1  0
  5  6  2  0
  5  7  1  0
  7  8  1  0
  8  9  1  0
  9 10  1  0
 10 11  1  0
 11 12  1  0
 12 13  1  0
 13 14  2  0
 14 15  1  0
 15 16  2  0
 16 17  1  0
 17 18  1  0
 18 19  1  0
 18 20  1  0
 18 21  1  0
 17 22  2  0
  2 23  1  0
 23 24  2  0
 24 25  1  0
 25 26  2  0
 26 27  1  0
 27 28  2  0
 28 29  1  0
 29 30  2  0
 30 31  1  0
 31 32  2  0
 12  7  1  0
 22 13  1  0
 32 23  1  0
 31 26  1  0
  3 33  1  0
  4 34  1  0
  4 35  1  0
  8 36  1  0
  8 37  1  0
  9 38  1  0
  9 39  1  0
 10 40  1  0
 10 41  1  0
 11 42  1  0
 11 43  1  0
 12 44  1  1
 14 45  1  0
 15 46  1  0
 16 47  1  0
 22 48  1  0
 24 49  1  0
 25 50  1  0
 27 51  1  0
 28 52  1  0
 29 53  1  0
 30 54  1  0
M  END
>  <smiles>  (45) 
O=C(NCC(=O)N1CCCCC1c1cccc(C(F)(F)F)c1)c1ccc2ccccc2n1

>  <score_type>  (45) 
oracle

>  <origin>  (45) 
autodockgpu

>  <m_score__min__energy>  (45) 
-9.1799999999999997

>  <m_primary>  (45) 
energy

>  <rmsd>  (45) 
6.434560270274385

>  <m_score__min__rmsd>  (45) 
6.434560270274385

>  <meeko>  (45) 
{"free_energy": -7.17, "intermolecular_energy": -8.96, "internal_energy": -2.31, "cluster_size": 1, "cluster_id": 4, "rank_in_cluster": 1}

>  <energy>  (45) 
-7.86

>  <cluster_rmsd>  (45) 
1.78

>  <cluster>  (45) 
3

$$$$

     RDKit          3D

 54 57  0  0  0  0  0  0  0  0999 V2000
  140.6750   71.4940  221.3660 O   0  0  0  0  0  0  0  0  0  0  0  0
  140.2740   72.0360  222.4370 C   0  0  0  0  0  0  0  0  0  0  0  0
  139.9070   73.4110  222.3390 N   0  0  0  0  0  0  0  0  0  0  0  0
  140.0330   74.0300  221.0350 C   0  0  0  0  0  0  0  0  0  0  0  0
  140.8390   75.2720  221.2000 C   0  0  0  0  0  0  0  0  0  0  0  0
  140.9120   75.7370  222.3680 O   0  0  0  0  0  0  0  0  0  0  0  0
  141.4980   75.9030  220.0840 N   0  0  0  0  0  0  0  0  0  0  0  0
  142.5630   75.1460  219.4610 C   0  0  0  0  0  0  0  0  0  0  0  0
  143.5920   76.0880  218.9040 C   0  0  0  0  0  0  0  0  0  0  0  0
  142.9530   77.1800  218.0600 C   0  0  0  0  0  0  0  0  0  0  0  0
  142.0120   77.9940  218.8830 C   0  0  0  0  0  0  0  0  0  0  0  0
  141.0470   77.1940  219.7000 C   0  0  2  0  0  0  0  0  0  0  0  0
  140.6110   78.0420  220.8380 C   0  0  0  0  0  0  0  0  0  0  0  0
  139.2850   78.1350  221.2360 C   0  0  0  0  0  0  0  0  0  0  0  0
  138.9290   78.9490  222.3160 C   0  0  0  0  0  0  0  0  0  0  0  0
  139.8720   79.6790  223.0110 C   0  0  0  0  0  0  0  0  0  0  0  0
  141.1920   79.5890  222.6180 C   0  0  0  0  0  0  0  0  0  0  0  0
  142.2790   80.3360  223.3040 C   0  0  0  0  0  0  0  0  0  0  0  0
  143.3740   80.4940  222.4950 F   0  0  0  0  0  0  0  0  0  0  0  0
  141.7970   81.6210  223.5830 F   0  0  0  0  0  0  0  0  0  0  0  0
  142.5990   79.7880  224.5310 F   0  0  0  0  0  0  0  0  0  0  0  0
  141.5390   78.7890  221.5580 C   0  0  0  0  0  0  0  0  0  0  0  0
  140.1870   71.3100  223.7030 C   0  0  0  0  0  0  0  0  0  0  0  0
  139.5900   70.0620  223.6720 C   0  0  0  0  0  0  0  0  0  0  0  0
  139.4640   69.3000  224.8300 C   0  0  0  0  0  0  0  0  0  0  0  0
  139.9690   69.8720  225.9910 C   0  0  0  0  0  0  0  0  0  0  0  0
  139.8760   69.1670  227.1780 C   0  0  0  0  0  0  0  0  0  0  0  0
  140.3730   69.7140  228.3570 C   0  0  0  0  0  0  0  0  0  0  0  0
  140.9540   70.9620  228.3150 C   0  0  0  0  0  0  0  0  0  0  0  0
  141.0630   71.6960  227.1360 C   0  0  0  0  0  0  0  0  0  0  0  0
  140.5530   71.1160  225.9700 C   0  0  0  0  0  0  0  0  0  0  0  0
  140.6710   71.8510  224.8350 N   0  0  0  0  0  0  0  0  0  0  0  0
  139.5630   73.9340  223.1860 H   0  0  0  0  0  0  0  0  0  0  0  0
  140.5405   73.3432  220.3416 H   0  0  0  0  0  0  0  0  0  0  0  0
  139.0409   74.2661  220.6228 H   0  0  0  0  0  0  0  0  0  0  0  0
  143.0332   74.4914  220.2096 H   0  0  0  0  0  0  0  0  0  0  0  0
  142.1482   74.5349  218.6459 H   0  0  0  0  0  0  0  0  0  0  0  0
  144.1374   76.5544  219.7377 H   0  0  0  0  0  0  0  0  0  0  0  0
  144.2741   75.5116  218.2617 H   0  0  0  0  0  0  0  0  0  0  0  0
  143.7407   77.8341  217.6578 H   0  0  0  0  0  0  0  0  0  0  0  0
  142.3922   76.7115  217.2378 H   0  0  0  0  0  0  0  0  0  0  0  0
  142.6060   78.6178  219.5671 H   0  0  0  0  0  0  0  0  0  0  0  0
  141.4088   78.5827  218.1761 H   0  0  0  0  0  0  0  0  0  0  0  0
  140.1842   76.9399  219.0668 H   0  0  0  0  0  0  0  0  0  0  0  0
  138.5109   77.5663  220.7000 H   0  0  0  0  0  0  0  0  0  0  0  0
  137.8731   79.0089  222.6186 H   0  0  0  0  0  0  0  0  0  0  0  0
  139.5786   80.3171  223.8576 H   0  0  0  0  0  0  0  0  0  0  0  0
  142.5978   78.7358  221.2644 H   0  0  0  0  0  0  0  0  0  0  0  0
  139.2096   69.6665  222.7187 H   0  0  0  0  0  0  0  0  0  0  0  0
  138.9934   68.3058  224.8261 H   0  0  0  0  0  0  0  0  0  0  0  0
  139.4080   68.1716  227.1896 H   0  0  0  0  0  0  0  0  0  0  0  0
  140.3032   69.1600  229.3048 H   0  0  0  0  0  0  0  0  0  0  0  0
  141.3465   71.3952  229.2468 H   0  0  0  0  0  0  0  0  0  0  0  0
  141.5312   72.6913  227.1227 H   0  0  0  0  0  0  0  0  0  0  0  0
  1  2  2  0
  2  3  1  0
  3  4  1  0
  4  5  1  0
  5  6  2  0
  5  7  1  0
  7  8  1  0
  8  9  1  0
  9 10  1  0
 10 11  1  0
 11 12  1  0
 12 13  1  0
 13 14  2  0
 14 15  1  0
 15 16  2  0
 16 17  1  0
 17 18  1  0
 18 19  1  0
 18 20  1  0
 18 21  1  0
 17 22  2  0
  2 23  1  0
 23 24  2  0
 24 25  1  0
 25 26  2  0
 26 27  1  0
 27 28  2  0
 28 29  1  0
 29 30  2  0
 30 31  1  0
 31 32  2  0
 12  7  1  0
 22 13  1  0
 32 23  1  0
 31 26  1  0
  3 33  1  0
  4 34  1  0
  4 35  1  0
  8 36  1  0
  8 37  1  0
  9 38  1  0
  9 39  1  0
 10 40  1  0
 10 41  1  0
 11 42  1  0
 11 43  1  0
 12 44  1  6
 14 45  1  0
 15 46  1  0
 16 47  1  0
 22 48  1  0
 24 49  1  0
 25 50  1  0
 27 51  1  0
 28 52  1  0
 29 53  1  0
 30 54  1  0
M  END
>  <smiles>  (46) 
O=C(NCC(=O)N1CCCCC1c1cccc(C(F)(F)F)c1)c1ccc2ccccc2n1

>  <score_type>  (46) 
oracle

>  <origin>  (46) 
autodockgpu

>  <m_score__min__energy>  (46) 
-9.1799999999999997

>  <m_primary>  (46) 
energy

>  <rmsd>  (46) 
2.0067935214172232

>  <m_score__min__rmsd>  (46) 
2.0067935214172232

>  <meeko>  (46) 
{"free_energy": -8.92, "intermolecular_energy": -10.71, "internal_energy": -1.87, "cluster_size": 35, "cluster_id": 1, "rank_in_cluster": 19}

>  <energy>  (46) 
-7.86

>  <cluster_rmsd>  (46) 
1.77

>  <cluster>  (46) 
3

$$$$

     RDKit          3D

 54 57  0  0  0  0  0  0  0  0999 V2000
  140.7710   71.1680  221.7150 O   0  0  0  0  0  0  0  0  0  0  0  0
  140.3770   71.7660  222.7590 C   0  0  0  0  0  0  0  0  0  0  0  0
  139.9440   73.1130  222.5790 N   0  0  0  0  0  0  0  0  0  0  0  0
  140.0030   73.6440  221.2310 C   0  0  0  0  0  0  0  0  0  0  0  0
  140.6360   74.9900  221.3020 C   0  0  0  0  0  0  0  0  0  0  0  0
  140.4140   75.6550  222.3490 O   0  0  0  0  0  0  0  0  0  0  0  0
  141.4570   75.5010  220.2320 N   0  0  0  0  0  0  0  0  0  0  0  0
  142.5700   74.6680  219.8300 C   0  0  0  0  0  0  0  0  0  0  0  0
  143.6930   75.5320  219.3330 C   0  0  0  0  0  0  0  0  0  0  0  0
  143.2060   76.5530  218.3160 C   0  0  0  0  0  0  0  0  0  0  0  0
  142.1910   77.4600  218.9280 C   0  0  0  0  0  0  0  0  0  0  0  0
  141.1020   76.7580  219.6770 C   0  0  2  0  0  0  0  0  0  0  0  0
  140.5470   77.7190  220.6650 C   0  0  0  0  0  0  0  0  0  0  0  0
  139.1930   78.0130  220.7400 C   0  0  0  0  0  0  0  0  0  0  0  0
  138.7230   78.9260  221.6900 C   0  0  0  0  0  0  0  0  0  0  0  0
  139.5800   79.5550  222.5720 C   0  0  0  0  0  0  0  0  0  0  0  0
  140.9260   79.2640  222.4990 C   0  0  0  0  0  0  0  0  0  0  0  0
  141.9260   79.8900  223.4040 C   0  0  0  0  0  0  0  0  0  0  0  0
  141.5070   81.1140  223.8540 F   0  0  0  0  0  0  0  0  0  0  0  0
  142.0480   79.0670  224.5320 F   0  0  0  0  0  0  0  0  0  0  0  0
  143.1880   79.9320  222.8420 F   0  0  0  0  0  0  0  0  0  0  0  0
  141.3850   78.3680  221.5650 C   0  0  0  0  0  0  0  0  0  0  0  0
  140.3620   71.1280  224.0740 C   0  0  0  0  0  0  0  0  0  0  0  0
  140.7650   71.8980  225.1520 C   0  0  0  0  0  0  0  0  0  0  0  0
  140.7830   71.3720  226.4400 C   0  0  0  0  0  0  0  0  0  0  0  0
  140.3770   70.0490  226.5610 C   0  0  0  0  0  0  0  0  0  0  0  0
  140.3700   69.4640  227.8150 C   0  0  0  0  0  0  0  0  0  0  0  0
  139.9680   68.1420  227.9690 C   0  0  0  0  0  0  0  0  0  0  0  0
  139.5800   67.4340  226.8520 C   0  0  0  0  0  0  0  0  0  0  0  0
  139.5750   67.9930  225.5770 C   0  0  0  0  0  0  0  0  0  0  0  0
  139.9850   69.3260  225.4600 C   0  0  0  0  0  0  0  0  0  0  0  0
  139.9720   69.8480  224.2070 N   0  0  0  0  0  0  0  0  0  0  0  0
  139.6020   73.6790  223.3980 H   0  0  0  0  0  0  0  0  0  0  0  0
  140.6048   72.9802  220.5928 H   0  0  0  0  0  0  0  0  0  0  0  0
  138.9933   73.7153  220.8004 H   0  0  0  0  0  0  0  0  0  0  0  0
  142.9158   74.0783  220.6918 H   0  0  0  0  0  0  0  0  0  0  0  0
  142.2471   73.9906  219.0257 H   0  0  0  0  0  0  0  0  0  0  0  0
  144.1394   76.0632  220.1865 H   0  0  0  0  0  0  0  0  0  0  0  0
  144.4343   74.8842  218.8423 H   0  0  0  0  0  0  0  0  0  0  0  0
  144.0606   77.1506  217.9658 H   0  0  0  0  0  0  0  0  0  0  0  0
  142.7432   76.0205  217.4721 H   0  0  0  0  0  0  0  0  0  0  0  0
  142.7091   78.1337  219.6264 H   0  0  0  0  0  0  0  0  0  0  0  0
  141.7057   77.9922  218.0966 H   0  0  0  0  0  0  0  0  0  0  0  0
  140.3223   76.4611  218.9602 H   0  0  0  0  0  0  0  0  0  0  0  0
  138.4872   77.5268  220.0505 H   0  0  0  0  0  0  0  0  0  0  0  0
  137.6466   79.1480  221.7357 H   0  0  0  0  0  0  0  0  0  0  0  0
  139.1980   80.2708  223.3148 H   0  0  0  0  0  0  0  0  0  0  0  0
  142.4634   78.1542  221.5272 H   0  0  0  0  0  0  0  0  0  0  0  0
  141.0753   72.9405  224.9877 H   0  0  0  0  0  0  0  0  0  0  0  0
  141.0994   71.9673  227.3092 H   0  0  0  0  0  0  0  0  0  0  0  0
  140.6837   70.0471  228.6934 H   0  0  0  0  0  0  0  0  0  0  0  0
  139.9598   67.6704  228.9628 H   0  0  0  0  0  0  0  0  0  0  0  0
  139.2623   66.3878  226.9725 H   0  0  0  0  0  0  0  0  0  0  0  0
  139.2617   67.4110  224.6978 H   0  0  0  0  0  0  0  0  0  0  0  0
  1  2  2  0
  2  3  1  0
  3  4  1  0
  4  5  1  0
  5  6  2  0
  5  7  1  0
  7  8  1  0
  8  9  1  0
  9 10  1  0
 10 11  1  0
 11 12  1  0
 12 13  1  0
 13 14  2  0
 14 15  1  0
 15 16  2  0
 16 17  1  0
 17 18  1  0
 18 19  1  0
 18 20  1  0
 18 21  1  0
 17 22  2  0
  2 23  1  0
 23 24  2  0
 24 25  1  0
 25 26  2  0
 26 27  1  0
 27 28  2  0
 28 29  1  0
 29 30  2  0
 30 31  1  0
 31 32  2  0
 12  7  1  0
 22 13  1  0
 32 23  1  0
 31 26  1  0
  3 33  1  0
  4 34  1  0
  4 35  1  0
  8 36  1  0
  8 37  1  0
  9 38  1  0
  9 39  1  0
 10 40  1  0
 10 41  1  0
 11 42  1  0
 11 43  1  0
 12 44  1  6
 14 45  1  0
 15 46  1  0
 16 47  1  0
 22 48  1  0
 24 49  1  0
 25 50  1  0
 27 51  1  0
 28 52  1  0
 29 53  1  0
 30 54  1  0
M  END
>  <smiles>  (47) 
O=C(NCC(=O)N1CCCCC1c1cccc(C(F)(F)F)c1)c1ccc2ccccc2n1

>  <score_type>  (47) 
oracle

>  <origin>  (47) 
autodockgpu

>  <m_score__min__energy>  (47) 
-9.1799999999999997

>  <m_primary>  (47) 
energy

>  <rmsd>  (47) 
3.015064243741035

>  <m_score__min__rmsd>  (47) 
3.015064243741035

>  <meeko>  (47) 
{"free_energy": -8.76, "intermolecular_energy": -10.55, "internal_energy": -1.73, "cluster_size": 35, "cluster_id": 1, "rank_in_cluster": 30}

>  <energy>  (47) 
-7.86

>  <cluster_rmsd>  (47) 
1.77

>  <cluster>  (47) 
3

$$$$

     RDKit          3D

 54 57  0  0  0  0  0  0  0  0999 V2000
  141.1240   72.5670  221.9680 O   0  0  0  0  0  0  0  0  0  0  0  0
  140.0960   72.4500  222.6980 C   0  0  0  0  0  0  0  0  0  0  0  0
  138.9780   73.2540  222.3290 N   0  0  0  0  0  0  0  0  0  0  0  0
  139.1400   74.1080  221.1690 C   0  0  0  0  0  0  0  0  0  0  0  0
  140.0490   75.2240  221.5520 C   0  0  0  0  0  0  0  0  0  0  0  0
  139.9390   75.6520  222.7320 O   0  0  0  0  0  0  0  0  0  0  0  0
  141.0010   75.7820  220.6240 N   0  0  0  0  0  0  0  0  0  0  0  0
  141.9200   74.8450  220.0130 C   0  0  0  0  0  0  0  0  0  0  0  0
  143.2220   75.5330  219.7210 C   0  0  0  0  0  0  0  0  0  0  0  0
  143.0070   76.8490  218.9880 C   0  0  0  0  0  0  0  0  0  0  0  0
  142.1930   77.7840  219.8180 C   0  0  0  0  0  0  0  0  0  0  0  0
  140.9490   77.1820  220.3940 C   0  0  2  0  0  0  0  0  0  0  0  0
  140.5800   77.9760  221.5930 C   0  0  0  0  0  0  0  0  0  0  0  0
  141.5070   78.3510  222.5550 C   0  0  0  0  0  0  0  0  0  0  0  0
  141.1060   79.1000  223.6660 C   0  0  0  0  0  0  0  0  0  0  0  0
  139.7920   79.4840  223.8400 C   0  0  0  0  0  0  0  0  0  0  0  0
  138.8670   79.1130  222.8850 C   0  0  0  0  0  0  0  0  0  0  0  0
  137.4300   79.4790  222.9840 C   0  0  0  0  0  0  0  0  0  0  0  0
  136.6330   78.3730  223.1220 F   0  0  0  0  0  0  0  0  0  0  0  0
  137.2670   80.2390  224.1510 F   0  0  0  0  0  0  0  0  0  0  0  0
  137.0250   80.3010  221.9510 F   0  0  0  0  0  0  0  0  0  0  0  0
  139.2640   78.3780  221.7960 C   0  0  0  0  0  0  0  0  0  0  0  0
  140.0460   71.5520  223.8500 C   0  0  0  0  0  0  0  0  0  0  0  0
  139.4120   70.3350  223.6710 C   0  0  0  0  0  0  0  0  0  0  0  0
  139.3160   69.4180  224.7130 C   0  0  0  0  0  0  0  0  0  0  0  0
  139.8890   69.8060  225.9180 C   0  0  0  0  0  0  0  0  0  0  0  0
  139.8290   68.9400  226.9950 C   0  0  0  0  0  0  0  0  0  0  0  0
  140.3940   69.3000  228.2150 C   0  0  0  0  0  0  0  0  0  0  0  0
  141.0090   70.5290  228.3220 C   0  0  0  0  0  0  0  0  0  0  0  0
  141.0860   71.4220  227.2570 C   0  0  0  0  0  0  0  0  0  0  0  0
  140.5080   71.0270  226.0460 C   0  0  0  0  0  0  0  0  0  0  0  0
  140.5960   71.9140  225.0220 N   0  0  0  0  0  0  0  0  0  0  0  0
  138.0840   73.2150  222.8850 H   0  0  0  0  0  0  0  0  0  0  0  0
  139.5798   73.5343  220.3399 H   0  0  0  0  0  0  0  0  0  0  0  0
  138.1662   74.4998  220.8399 H   0  0  0  0  0  0  0  0  0  0  0  0
  142.0964   74.0044  220.7003 H   0  0  0  0  0  0  0  0  0  0  0  0
  141.4873   74.4690  219.0742 H   0  0  0  0  0  0  0  0  0  0  0  0
  143.7408   75.7334  220.6701 H   0  0  0  0  0  0  0  0  0  0  0  0
  143.8229   74.8741  219.0769 H   0  0  0  0  0  0  0  0  0  0  0  0
  143.9835   77.3093  218.7770 H   0  0  0  0  0  0  0  0  0  0  0  0
  142.4705   76.6489  218.0488 H   0  0  0  0  0  0  0  0  0  0  0  0
  142.8194   78.1391  220.6495 H   0  0  0  0  0  0  0  0  0  0  0  0
  141.8671   78.5933  219.1481 H   0  0  0  0  0  0  0  0  0  0  0  0
  140.1508   77.2455  219.6397 H   0  0  0  0  0  0  0  0  0  0  0  0
  142.5614   78.0581  222.4434 H   0  0  0  0  0  0  0  0  0  0  0  0
  141.8548   79.3895  224.4180 H   0  0  0  0  0  0  0  0  0  0  0  0
  139.4889   80.0718  224.7190 H   0  0  0  0  0  0  0  0  0  0  0  0
  138.5072   78.0940  221.0500 H   0  0  0  0  0  0  0  0  0  0  0  0
  138.9777   70.0891  222.6908 H   0  0  0  0  0  0  0  0  0  0  0  0
  138.8170   68.4454  224.5904 H   0  0  0  0  0  0  0  0  0  0  0  0
  139.3333   67.9640  226.8869 H   0  0  0  0  0  0  0  0  0  0  0  0
  140.3506   68.6175  229.0765 H   0  0  0  0  0  0  0  0  0  0  0  0
  141.4559   70.8149  229.2856 H   0  0  0  0  0  0  0  0  0  0  0  0
  141.5812   72.3985  227.3634 H   0  0  0  0  0  0  0  0  0  0  0  0
  1  2  2  0
  2  3  1  0
  3  4  1  0
  4  5  1  0
  5  6  2  0
  5  7  1  0
  7  8  1  0
  8  9  1  0
  9 10  1  0
 10 11  1  0
 11 12  1  0
 12 13  1  0
 13 14  2  0
 14 15  1  0
 15 16  2  0
 16 17  1  0
 17 18  1  0
 18 19  1  0
 18 20  1  0
 18 21  1  0
 17 22  2  0
  2 23  1  0
 23 24  2  0
 24 25  1  0
 25 26  2  0
 26 27  1  0
 27 28  2  0
 28 29  1  0
 29 30  2  0
 30 31  1  0
 31 32  2  0
 12  7  1  0
 22 13  1  0
 32 23  1  0
 31 26  1  0
  3 33  1  0
  4 34  1  0
  4 35  1  0
  8 36  1  0
  8 37  1  0
  9 38  1  0
  9 39  1  0
 10 40  1  0
 10 41  1  0
 11 42  1  0
 11 43  1  0
 12 44  1  6
 14 45  1  0
 15 46  1  0
 16 47  1  0
 22 48  1  0
 24 49  1  0
 25 50  1  0
 27 51  1  0
 28 52  1  0
 29 53  1  0
 30 54  1  0
M  END
>  <smiles>  (48) 
O=C(NCC(=O)N1CCCCC1c1cccc(C(F)(F)F)c1)c1ccc2ccccc2n1

>  <score_type>  (48) 
oracle

>  <origin>  (48) 
autodockgpu

>  <m_score__min__energy>  (48) 
-9.1799999999999997

>  <m_primary>  (48) 
energy

>  <rmsd>  (48) 
1.9785360326605759

>  <m_score__min__rmsd>  (48) 
1.9785360326605759

>  <meeko>  (48) 
{"free_energy": -8.95, "intermolecular_energy": -10.74, "internal_energy": -1.47, "cluster_size": 2, "cluster_id": 2, "rank_in_cluster": 2}

>  <energy>  (48) 
-7.85

>  <cluster_rmsd>  (48) 
1.54

>  <cluster>  (48) 
3

$$$$

     RDKit          3D

 54 57  0  0  0  0  0  0  0  0999 V2000
  140.6700   71.5120  221.3570 O   0  0  0  0  0  0  0  0  0  0  0  0
  140.2700   72.0530  222.4290 C   0  0  0  0  0  0  0  0  0  0  0  0
  139.9080   73.4290  222.3330 N   0  0  0  0  0  0  0  0  0  0  0  0
  140.0360   74.0500  221.0300 C   0  0  0  0  0  0  0  0  0  0  0  0
  140.7520   75.3430  221.2140 C   0  0  0  0  0  0  0  0  0  0  0  0
  140.8080   75.7870  222.3920 O   0  0  0  0  0  0  0  0  0  0  0  0
  141.3480   76.0460  220.1040 N   0  0  0  0  0  0  0  0  0  0  0  0
  142.3910   75.3410  219.3900 C   0  0  0  0  0  0  0  0  0  0  0  0
  143.3790   76.3270  218.8380 C   0  0  0  0  0  0  0  0  0  0  0  0
  142.6860   77.4540  218.0880 C   0  0  0  0  0  0  0  0  0  0  0  0
  141.7760   78.2080  218.9990 C   0  0  0  0  0  0  0  0  0  0  0  0
  140.8620   77.3480  219.8160 C   0  0  2  0  0  0  0  0  0  0  0  0
  140.4710   78.1260  221.0190 C   0  0  0  0  0  0  0  0  0  0  0  0
  139.1810   78.1120  221.5300 C   0  0  0  0  0  0  0  0  0  0  0  0
  138.8660   78.8630  222.6670 C   0  0  0  0  0  0  0  0  0  0  0  0
  139.8160   79.6330  223.3090 C   0  0  0  0  0  0  0  0  0  0  0  0
  141.0990   79.6480  222.8030 C   0  0  0  0  0  0  0  0  0  0  0  0
  142.1900   80.4460  223.4230 C   0  0  0  0  0  0  0  0  0  0  0  0
  141.7580   81.6910  223.7970 F   0  0  0  0  0  0  0  0  0  0  0  0
  142.5790   79.7870  224.5970 F   0  0  0  0  0  0  0  0  0  0  0  0
  143.3230   80.4900  222.6330 F   0  0  0  0  0  0  0  0  0  0  0  0
  141.4060   78.9100  221.6870 C   0  0  0  0  0  0  0  0  0  0  0  0
  140.1810   71.3250  223.6930 C   0  0  0  0  0  0  0  0  0  0  0  0
  139.5780   70.0800  223.6610 C   0  0  0  0  0  0  0  0  0  0  0  0
  139.4500   69.3170  224.8170 C   0  0  0  0  0  0  0  0  0  0  0  0
  139.9580   69.8840  225.9790 C   0  0  0  0  0  0  0  0  0  0  0  0
  139.8630   69.1780  227.1650 C   0  0  0  0  0  0  0  0  0  0  0  0
  140.3630   69.7200  228.3440 C   0  0  0  0  0  0  0  0  0  0  0  0
  140.9500   70.9650  228.3040 C   0  0  0  0  0  0  0  0  0  0  0  0
  141.0620   71.7010  227.1270 C   0  0  0  0  0  0  0  0  0  0  0  0
  140.5480   71.1260  225.9590 C   0  0  0  0  0  0  0  0  0  0  0  0
  140.6690   71.8620  224.8260 N   0  0  0  0  0  0  0  0  0  0  0  0
  139.5650   73.9520  223.1810 H   0  0  0  0  0  0  0  0  0  0  0  0
  140.6105   73.3958  220.3578 H   0  0  0  0  0  0  0  0  0  0  0  0
  139.0447   74.2182  220.5839 H   0  0  0  0  0  0  0  0  0  0  0  0
  142.9052   74.6537  220.0779 H   0  0  0  0  0  0  0  0  0  0  0  0
  141.9449   74.7692  218.5629 H   0  0  0  0  0  0  0  0  0  0  0  0
  143.9586   76.7549  219.6692 H   0  0  0  0  0  0  0  0  0  0  0  0
  144.0360   75.7973  218.1325 H   0  0  0  0  0  0  0  0  0  0  0  0
  143.4450   78.1408  217.6853 H   0  0  0  0  0  0  0  0  0  0  0  0
  142.0913   77.0226  217.2693 H   0  0  0  0  0  0  0  0  0  0  0  0
  142.3946   78.8025  219.6874 H   0  0  0  0  0  0  0  0  0  0  0  0
  141.1319   78.8260  218.3561 H   0  0  0  0  0  0  0  0  0  0  0  0
  139.9722   77.1147  219.2128 H   0  0  0  0  0  0  0  0  0  0  0  0
  138.4035   77.5082  221.0392 H   0  0  0  0  0  0  0  0  0  0  0  0
  137.8384   78.8399  223.0588 H   0  0  0  0  0  0  0  0  0  0  0  0
  139.5557   80.2200  224.2021 H   0  0  0  0  0  0  0  0  0  0  0  0
  142.4368   78.9399  221.3041 H   0  0  0  0  0  0  0  0  0  0  0  0
  139.1943   69.6880  222.7075 H   0  0  0  0  0  0  0  0  0  0  0  0
  138.9753   68.3247  224.8114 H   0  0  0  0  0  0  0  0  0  0  0  0
  139.3905   68.1847  227.1754 H   0  0  0  0  0  0  0  0  0  0  0  0
  140.2910   69.1646  229.2908 H   0  0  0  0  0  0  0  0  0  0  0  0
  141.3452   71.3942  229.2365 H   0  0  0  0  0  0  0  0  0  0  0  0
  141.5352   72.6939  227.1158 H   0  0  0  0  0  0  0  0  0  0  0  0
  1  2  2  0
  2  3  1  0
  3  4  1  0
  4  5  1  0
  5  6  2  0
  5  7  1  0
  7  8  1  0
  8  9  1  0
  9 10  1  0
 10 11  1  0
 11 12  1  0
 12 13  1  0
 13 14  2  0
 14 15  1  0
 15 16  2  0
 16 17  1  0
 17 18  1  0
 18 19  1  0
 18 20  1  0
 18 21  1  0
 17 22  2  0
  2 23  1  0
 23 24  2  0
 24 25  1  0
 25 26  2  0
 26 27  1  0
 27 28  2  0
 28 29  1  0
 29 30  2  0
 30 31  1  0
 31 32  2  0
 12  7  1  0
 22 13  1  0
 32 23  1  0
 31 26  1  0
  3 33  1  0
  4 34  1  0
  4 35  1  0
  8 36  1  0
  8 37  1  0
  9 38  1  0
  9 39  1  0
 10 40  1  0
 10 41  1  0
 11 42  1  0
 11 43  1  0
 12 44  1  6
 14 45  1  0
 15 46  1  0
 16 47  1  0
 22 48  1  0
 24 49  1  0
 25 50  1  0
 27 51  1  0
 28 52  1  0
 29 53  1  0
 30 54  1  0
M  END
>  <smiles>  (49) 
O=C(NCC(=O)N1CCCCC1c1cccc(C(F)(F)F)c1)c1ccc2ccccc2n1

>  <score_type>  (49) 
oracle

>  <origin>  (49) 
autodockgpu

>  <m_score__min__energy>  (49) 
-9.1799999999999997

>  <m_primary>  (49) 
energy

>  <rmsd>  (49) 
1.9743988958055585

>  <m_score__min__rmsd>  (49) 
1.9743988958055585

>  <meeko>  (49) 
{"free_energy": -9.04, "intermolecular_energy": -10.83, "internal_energy": -1.86, "cluster_size": 35, "cluster_id": 1, "rank_in_cluster": 11}

>  <energy>  (49) 
-7.76

>  <cluster_rmsd>  (49) 
1.83

>  <cluster>  (49) 
3

$$$$

     RDKit          3D

 54 57  0  0  0  0  0  0  0  0999 V2000
  140.9340   71.7160  221.4250 O   0  0  0  0  0  0  0  0  0  0  0  0
  140.3010   72.1510  222.4320 C   0  0  0  0  0  0  0  0  0  0  0  0
  139.6940   73.4320  222.2780 N   0  0  0  0  0  0  0  0  0  0  0  0
  139.8660   74.0880  220.9970 C   0  0  0  0  0  0  0  0  0  0  0  0
  140.9150   75.1330  221.1610 C   0  0  0  0  0  0  0  0  0  0  0  0
  141.3240   75.3320  222.3370 O   0  0  0  0  0  0  0  0  0  0  0  0
  141.4330   75.8730  220.0370 N   0  0  0  0  0  0  0  0  0  0  0  0
  142.3870   75.1770  219.2000 C   0  0  0  0  0  0  0  0  0  0  0  0
  143.3520   76.1630  218.6090 C   0  0  0  0  0  0  0  0  0  0  0  0
  142.6310   77.3430  217.9780 C   0  0  0  0  0  0  0  0  0  0  0  0
  141.8280   78.0750  219.0010 C   0  0  0  0  0  0  0  0  0  0  0  0
  140.9640   77.2010  219.8550 C   0  0  2  0  0  0  0  0  0  0  0  0
  140.7050   77.9280  221.1240 C   0  0  0  0  0  0  0  0  0  0  0  0
  139.5510   77.7390  221.8700 C   0  0  0  0  0  0  0  0  0  0  0  0
  139.3570   78.4500  223.0590 C   0  0  0  0  0  0  0  0  0  0  0  0
  140.2940   79.3520  223.5210 C   0  0  0  0  0  0  0  0  0  0  0  0
  141.4430   79.5420  222.7810 C   0  0  0  0  0  0  0  0  0  0  0  0
  142.5100   80.4910  223.1960 C   0  0  0  0  0  0  0  0  0  0  0  0
  142.1820   81.7860  222.8950 F   0  0  0  0  0  0  0  0  0  0  0  0
  142.6200   80.4170  224.5910 F   0  0  0  0  0  0  0  0  0  0  0  0
  143.7520   80.1290  222.7090 F   0  0  0  0  0  0  0  0  0  0  0  0
  141.6310   78.8430  221.6140 C   0  0  0  0  0  0  0  0  0  0  0  0
  140.1930   71.3980  223.6800 C   0  0  0  0  0  0  0  0  0  0  0  0
  139.5470   70.1750  223.6230 C   0  0  0  0  0  0  0  0  0  0  0  0
  139.3980   69.3910  224.7620 C   0  0  0  0  0  0  0  0  0  0  0  0
  139.9310   69.9150  225.9340 C   0  0  0  0  0  0  0  0  0  0  0  0
  139.8170   69.1850  227.1040 C   0  0  0  0  0  0  0  0  0  0  0  0
  140.3410   69.6830  228.2930 C   0  0  0  0  0  0  0  0  0  0  0  0
  140.9700   70.9080  228.2770 C   0  0  0  0  0  0  0  0  0  0  0  0
  141.1020   71.6660  227.1160 C   0  0  0  0  0  0  0  0  0  0  0  0
  140.5630   71.1350  225.9390 C   0  0  0  0  0  0  0  0  0  0  0  0
  140.7040   71.8920  224.8220 N   0  0  0  0  0  0  0  0  0  0  0  0
  139.1500   73.8640  223.0700 H   0  0  0  0  0  0  0  0  0  0  0  0
  140.1823   73.3551  220.2402 H   0  0  0  0  0  0  0  0  0  0  0  0
  138.9197   74.5404  220.6655 H   0  0  0  0  0  0  0  0  0  0  0  0
  142.9386   74.4431  219.8059 H   0  0  0  0  0  0  0  0  0  0  0  0
  141.8525   74.6587  218.3902 H   0  0  0  0  0  0  0  0  0  0  0  0
  144.0152   76.5339  219.4043 H   0  0  0  0  0  0  0  0  0  0  0  0
  143.9279   75.6519  217.8234 H   0  0  0  0  0  0  0  0  0  0  0  0
  143.3724   78.0286  217.5418 H   0  0  0  0  0  0  0  0  0  0  0  0
  141.9536   76.9684  217.1965 H   0  0  0  0  0  0  0  0  0  0  0  0
  142.5227   78.6185  219.6583 H   0  0  0  0  0  0  0  0  0  0  0  0
  141.1490   78.7404  218.4476 H   0  0  0  0  0  0  0  0  0  0  0  0
  140.0177   77.0224  219.3233 H   0  0  0  0  0  0  0  0  0  0  0  0
  138.7859   77.0277  221.5255 H   0  0  0  0  0  0  0  0  0  0  0  0
  138.4367   78.2865  223.6390 H   0  0  0  0  0  0  0  0  0  0  0  0
  140.1287   79.9061  224.4567 H   0  0  0  0  0  0  0  0  0  0  0  0
  142.5545   79.0142  221.0415 H   0  0  0  0  0  0  0  0  0  0  0  0
  139.1457   69.8181  222.6630 H   0  0  0  0  0  0  0  0  0  0  0  0
  138.8895   68.4159  224.7370 H   0  0  0  0  0  0  0  0  0  0  0  0
  139.3108   68.2084  227.0941 H   0  0  0  0  0  0  0  0  0  0  0  0
  140.2545   69.1093  229.2276 H   0  0  0  0  0  0  0  0  0  0  0  0
  141.3838   71.3027  229.2166 H   0  0  0  0  0  0  0  0  0  0  0  0
  141.6092   72.6421  227.1240 H   0  0  0  0  0  0  0  0  0  0  0  0
  1  2  2  0
  2  3  1  0
  3  4  1  0
  4  5  1  0
  5  6  2  0
  5  7  1  0
  7  8  1  0
  8  9  1  0
  9 10  1  0
 10 11  1  0
 11 12  1  0
 12 13  1  0
 13 14  2  0
 14 15  1  0
 15 16  2  0
 16 17  1  0
 17 18  1  0
 18 19  1  0
 18 20  1  0
 18 21  1  0
 17 22  2  0
  2 23  1  0
 23 24  2  0
 24 25  1  0
 25 26  2  0
 26 27  1  0
 27 28  2  0
 28 29  1  0
 29 30  2  0
 30 31  1  0
 31 32  2  0
 12  7  1  0
 22 13  1  0
 32 23  1  0
 31 26  1  0
  3 33  1  0
  4 34  1  0
  4 35  1  0
  8 36  1  0
  8 37  1  0
  9 38  1  0
  9 39  1  0
 10 40  1  0
 10 41  1  0
 11 42  1  0
 11 43  1  0
 12 44  1  6
 14 45  1  0
 15 46  1  0
 16 47  1  0
 22 48  1  0
 24 49  1  0
 25 50  1  0
 27 51  1  0
 28 52  1  0
 29 53  1  0
 30 54  1  0
M  END
>  <smiles>  (50) 
O=C(NCC(=O)N1CCCCC1c1cccc(C(F)(F)F)c1)c1ccc2ccccc2n1

>  <score_type>  (50) 
oracle

>  <origin>  (50) 
autodockgpu

>  <m_score__min__energy>  (50) 
-9.1799999999999997

>  <m_primary>  (50) 
energy

>  <rmsd>  (50) 
1.9235554164605366

>  <m_score__min__rmsd>  (50) 
1.9235554164605366

>  <meeko>  (50) 
{"free_energy": -9.18, "intermolecular_energy": -10.97, "internal_energy": -1.6, "cluster_size": 35, "cluster_id": 1, "rank_in_cluster": 1}

>  <energy>  (50) 
-7.17

>  <cluster_rmsd>  (50) 
0.0

>  <cluster>  (50) 
4

$$$$

     RDKit          3D

 54 57  0  0  0  0  0  0  0  0999 V2000
  140.3930   71.4270  221.3010 O   0  0  0  0  0  0  0  0  0  0  0  0
  140.1080   71.9680  222.4030 C   0  0  0  0  0  0  0  0  0  0  0  0
  139.7750   73.3860  222.3780 N   0  0  0  0  0  0  0  0  0  0  0  0
  139.8130   74.0030  221.0960 C   0  0  0  0  0  0  0  0  0  0  0  0
  140.5750   75.2200  220.8870 C   0  0  0  0  0  0  0  0  0  0  0  0
  141.0740   75.7130  221.9920 O   0  0  0  0  0  0  0  0  0  0  0  0
  140.8730   75.9550  219.7330 N   0  0  0  0  0  0  0  0  0  0  0  0
  140.0090   76.9120  219.0780 C   0  0  0  0  0  0  0  0  0  0  0  0
  140.8810   77.6840  218.0720 C   0  0  0  0  0  0  0  0  0  0  0  0
  142.1810   78.1230  218.6500 C   0  0  0  0  0  0  0  0  0  0  0  0
  142.9570   76.9870  219.3360 C   0  0  0  0  0  0  0  0  0  0  0  0
  142.1750   75.7470  219.0660 C   0  0  1  0  0  0  0  0  0  0  0  0
  142.8170   74.4770  219.3510 C   0  0  0  0  0  0  0  0  0  0  0  0
  142.1780   73.2660  219.1140 C   0  0  0  0  0  0  0  0  0  0  0  0
  142.7430   72.0490  219.4010 C   0  0  0  0  0  0  0  0  0  0  0  0
  143.9890   71.9800  219.9440 C   0  0  0  0  0  0  0  0  0  0  0  0
  144.6490   73.1690  220.1910 C   0  0  0  0  0  0  0  0  0  0  0  0
  146.0100   73.0750  220.7850 C   0  0  0  0  0  0  0  0  0  0  0  0
  146.7970   74.1700  220.4760 F   0  0  0  0  0  0  0  0  0  0  0  0
  145.8540   73.0190  222.1580 F   0  0  0  0  0  0  0  0  0  0  0  0
  146.6210   71.8920  220.4120 F   0  0  0  0  0  0  0  0  0  0  0  0
  144.0820   74.3930  219.9020 C   0  0  0  0  0  0  0  0  0  0  0  0
  140.0970   71.2510  223.6670 C   0  0  0  0  0  0  0  0  0  0  0  0
  139.5700   69.9760  223.6640 C   0  0  0  0  0  0  0  0  0  0  0  0
  139.5330   69.2500  224.8280 C   0  0  0  0  0  0  0  0  0  0  0  0
  140.0330   69.8250  225.9880 C   0  0  0  0  0  0  0  0  0  0  0  0
  140.0140   69.1320  227.1700 C   0  0  0  0  0  0  0  0  0  0  0  0
  140.5040   69.6760  228.3410 C   0  0  0  0  0  0  0  0  0  0  0  0
  141.0270   70.9580  228.3130 C   0  0  0  0  0  0  0  0  0  0  0  0
  141.0480   71.6680  227.1100 C   0  0  0  0  0  0  0  0  0  0  0  0
  140.5570   71.1090  225.9570 C   0  0  0  0  0  0  0  0  0  0  0  0
  140.5800   71.7980  224.8000 N   0  0  0  0  0  0  0  0  0  0  0  0
  139.5370   73.7750  223.2950 H   0  0  0  0  0  0  0  0  0  0  0  0
  140.2164   73.2547  220.3979 H   0  0  0  0  0  0  0  0  0  0  0  0
  138.7740   74.3333  220.9494 H   0  0  0  0  0  0  0  0  0  0  0  0
  139.1961   76.3900  218.5519 H   0  0  0  0  0  0  0  0  0  0  0  0
  139.5515   77.5951  219.8088 H   0  0  0  0  0  0  0  0  0  0  0  0
  141.0827   77.0319  217.2094 H   0  0  0  0  0  0  0  0  0  0  0  0
  140.3269   78.5884  217.7805 H   0  0  0  0  0  0  0  0  0  0  0  0
  142.8032   78.5310  217.8398 H   0  0  0  0  0  0  0  0  0  0  0  0
  141.9571   78.8756  219.4203 H   0  0  0  0  0  0  0  0  0  0  0  0
  143.9687   76.9028  218.9125 H   0  0  0  0  0  0  0  0  0  0  0  0
  143.0739   77.1676  220.4148 H   0  0  0  0  0  0  0  0  0  0  0  0
  142.0625   75.6191  217.9793 H   0  0  0  0  0  0  0  0  0  0  0  0
  141.1697   73.2839  218.6747 H   0  0  0  0  0  0  0  0  0  0  0  0
  142.1858   71.1241  219.1911 H   0  0  0  0  0  0  0  0  0  0  0  0
  144.4548   71.0114  220.1782 H   0  0  0  0  0  0  0  0  0  0  0  0
  144.6442   75.3147  220.1129 H   0  0  0  0  0  0  0  0  0  0  0  0
  139.1805   69.5425  222.7311 H   0  0  0  0  0  0  0  0  0  0  0  0
  139.1153   68.2325  224.8414 H   0  0  0  0  0  0  0  0  0  0  0  0
  139.5969   68.1143  227.1866 H   0  0  0  0  0  0  0  0  0  0  0  0
  140.4793   69.1015  229.2788 H   0  0  0  0  0  0  0  0  0  0  0  0
  141.4233   71.4143  229.2321 H   0  0  0  0  0  0  0  0  0  0  0  0
  141.4628   72.6865  227.0868 H   0  0  0  0  0  0  0  0  0  0  0  0
  1  2  2  0
  2  3  1  0
  3  4  1  0
  4  5  1  0
  5  6  2  0
  5  7  1  0
  7  8  1  0
  8  9  1  0
  9 10  1  0
 10 11  1  0
 11 12  1  0
 12 13  1  0
 13 14  2  0
 14 15  1  0
 15 16  2  0
 16 17  1  0
 17 18  1  0
 18 19  1  0
 18 20  1  0
 18 21  1  0
 17 22  2  0
  2 23  1  0
 23 24  2  0
 24 25  1  0
 25 26  2  0
 26 27  1  0
 27 28  2  0
 28 29  1  0
 29 30  2  0
 30 31  1  0
 31 32  2  0
 12  7  1  0
 22 13  1  0
 32 23  1  0
 31 26  1  0
  3 33  1  0
  4 34  1  0
  4 35  1  0
  8 36  1  0
  8 37  1  0
  9 38  1  0
  9 39  1  0
 10 40  1  0
 10 41  1  0
 11 42  1  0
 11 43  1  0
 12 44  1  6
 14 45  1  0
 15 46  1  0
 16 47  1  0
 22 48  1  0
 24 49  1  0
 25 50  1  0
 27 51  1  0
 28 52  1  0
 29 53  1  0
 30 54  1  0
M  END
>  <smiles>  (51) 
O=C(NCC(=O)N1CCCCC1c1cccc(C(F)(F)F)c1)c1ccc2ccccc2n1

>  <score_type>  (51) 
oracle

>  <origin>  (51) 
autodockgpu

>  <m_score__min__energy>  (51) 
-8.9399999999999995

>  <m_primary>  (51) 
energy

>  <rmsd>  (51) 
1.8491999389737024

>  <m_score__min__rmsd>  (51) 
1.8491999389737024

>  <meeko>  (51) 
{"free_energy": -8.21, "intermolecular_energy": -10.0, "internal_energy": -1.91, "cluster_size": 16, "cluster_id": 2, "rank_in_cluster": 4}

>  <energy>  (51) 
-8.94

>  <cluster_rmsd>  (51) 
0.0

>  <cluster>  (51) 
1

$$$$

     RDKit          3D

 54 57  0  0  0  0  0  0  0  0999 V2000
  140.0190   71.2940  221.2190 O   0  0  0  0  0  0  0  0  0  0  0  0
  139.9010   71.8980  222.3180 C   0  0  0  0  0  0  0  0  0  0  0  0
  139.6770   73.3380  222.2610 N   0  0  0  0  0  0  0  0  0  0  0  0
  139.6190   73.8980  220.9550 C   0  0  0  0  0  0  0  0  0  0  0  0
  140.7750   73.8460  220.0790 C   0  0  0  0  0  0  0  0  0  0  0  0
  140.4610   73.8610  218.8080 O   0  0  0  0  0  0  0  0  0  0  0  0
  142.1490   73.7860  220.3400 N   0  0  0  0  0  0  0  0  0  0  0  0
  142.8810   72.6360  220.8250 C   0  0  0  0  0  0  0  0  0  0  0  0
  144.3760   72.9500  220.6410 C   0  0  0  0  0  0  0  0  0  0  0  0
  144.6870   73.5260  219.3040 C   0  0  0  0  0  0  0  0  0  0  0  0
  143.7950   74.7220  218.9330 C   0  0  0  0  0  0  0  0  0  0  0  0
  142.9700   74.9980  220.1430 C   0  0  1  0  0  0  0  0  0  0  0  0
  142.2400   76.2510  220.1820 C   0  0  0  0  0  0  0  0  0  0  0  0
  142.3200   77.1760  219.1480 C   0  0  0  0  0  0  0  0  0  0  0  0
  141.6680   78.3820  219.1660 C   0  0  0  0  0  0  0  0  0  0  0  0
  140.8940   78.7310  220.2300 C   0  0  0  0  0  0  0  0  0  0  0  0
  140.7960   77.8300  221.2750 C   0  0  0  0  0  0  0  0  0  0  0  0
  139.9470   78.2260  222.4310 C   0  0  0  0  0  0  0  0  0  0  0  0
  139.0640   79.2420  222.1120 F   0  0  0  0  0  0  0  0  0  0  0  0
  139.2200   77.1120  222.8060 F   0  0  0  0  0  0  0  0  0  0  0  0
  140.7340   78.5630  223.5170 F   0  0  0  0  0  0  0  0  0  0  0  0
  141.4510   76.6160  221.2570 C   0  0  0  0  0  0  0  0  0  0  0  0
  139.9760   71.2350  223.6090 C   0  0  0  0  0  0  0  0  0  0  0  0
  139.5230   69.9340  223.6750 C   0  0  0  0  0  0  0  0  0  0  0  0
  139.5690   69.2550  224.8680 C   0  0  0  0  0  0  0  0  0  0  0  0
  140.0760   69.9050  225.9840 C   0  0  0  0  0  0  0  0  0  0  0  0
  140.1390   69.2620  227.1930 C   0  0  0  0  0  0  0  0  0  0  0  0
  140.6380   69.8800  228.3220 C   0  0  0  0  0  0  0  0  0  0  0  0
  141.0850   71.1870  228.2240 C   0  0  0  0  0  0  0  0  0  0  0  0
  141.0230   71.8470  226.9950 C   0  0  0  0  0  0  0  0  0  0  0  0
  140.5240   71.2140  225.8830 C   0  0  0  0  0  0  0  0  0  0  0  0
  140.4670   71.8550  224.7000 N   0  0  0  0  0  0  0  0  0  0  0  0
  139.5740   73.7800  223.1790 H   0  0  0  0  0  0  0  0  0  0  0  0
  138.8011   73.3848  220.4281 H   0  0  0  0  0  0  0  0  0  0  0  0
  139.5065   74.9743  221.1523 H   0  0  0  0  0  0  0  0  0  0  0  0
  142.6579   72.4663  221.8887 H   0  0  0  0  0  0  0  0  0  0  0  0
  142.5981   71.7271  220.2738 H   0  0  0  0  0  0  0  0  0  0  0  0
  144.6807   73.6715  221.4134 H   0  0  0  0  0  0  0  0  0  0  0  0
  144.9256   72.0010  220.7274 H   0  0  0  0  0  0  0  0  0  0  0  0
  145.7353   73.8591  219.3029 H   0  0  0  0  0  0  0  0  0  0  0  0
  144.5008   72.7382  218.5593 H   0  0  0  0  0  0  0  0  0  0  0  0
  144.4118   75.5973  218.6811 H   0  0  0  0  0  0  0  0  0  0  0  0
  143.1691   74.5057  218.0546 H   0  0  0  0  0  0  0  0  0  0  0  0
  143.6344   75.1846  220.9996 H   0  0  0  0  0  0  0  0  0  0  0  0
  142.9370   76.9284  218.2716 H   0  0  0  0  0  0  0  0  0  0  0  0
  141.7710   79.0718  218.3154 H   0  0  0  0  0  0  0  0  0  0  0  0
  140.3653   79.6952  220.2578 H   0  0  0  0  0  0  0  0  0  0  0  0
  141.3441   75.9291  222.1095 H   0  0  0  0  0  0  0  0  0  0  0  0
  139.1261   69.4417  222.7750 H   0  0  0  0  0  0  0  0  0  0  0  0
  139.2112   68.2171  224.9373 H   0  0  0  0  0  0  0  0  0  0  0  0
  139.7818   68.2241  227.2656 H   0  0  0  0  0  0  0  0  0  0  0  0
  140.6798   69.3442  229.2818 H   0  0  0  0  0  0  0  0  0  0  0  0
  141.4865   71.7022  229.1090 H   0  0  0  0  0  0  0  0  0  0  0  0
  141.3777   72.8853  226.9166 H   0  0  0  0  0  0  0  0  0  0  0  0
  1  2  2  0
  2  3  1  0
  3  4  1  0
  4  5  1  0
  5  6  2  0
  5  7  1  0
  7  8  1  0
  8  9  1  0
  9 10  1  0
 10 11  1  0
 11 12  1  0
 12 13  1  0
 13 14  2  0
 14 15  1  0
 15 16  2  0
 16 17  1  0
 17 18  1  0
 18 19  1  0
 18 20  1  0
 18 21  1  0
 17 22  2  0
  2 23  1  0
 23 24  2  0
 24 25  1  0
 25 26  2  0
 26 27  1  0
 27 28  2  0
 28 29  1  0
 29 30  2  0
 30 31  1  0
 31 32  2  0
 12  7  1  0
 22 13  1  0
 32 23  1  0
 31 26  1  0
  3 33  1  0
  4 34  1  0
  4 35  1  0
  8 36  1  0
  8 37  1  0
  9 38  1  0
  9 39  1  0
 10 40  1  0
 10 41  1  0
 11 42  1  0
 11 43  1  0
 12 44  1  1
 14 45  1  0
 15 46  1  0
 16 47  1  0
 22 48  1  0
 24 49  1  0
 25 50  1  0
 27 51  1  0
 28 52  1  0
 29 53  1  0
 30 54  1  0
M  END
>  <smiles>  (52) 
O=C(NCC(=O)N1CCCCC1c1cccc(C(F)(F)F)c1)c1ccc2ccccc2n1

>  <score_type>  (52) 
oracle

>  <origin>  (52) 
autodockgpu

>  <m_score__min__energy>  (52) 
-8.9399999999999995

>  <m_primary>  (52) 
energy

>  <rmsd>  (52) 
2.8460097583013857

>  <m_score__min__rmsd>  (52) 
2.8460097583013857

>  <meeko>  (52) 
{"free_energy": -8.01, "intermolecular_energy": -9.8, "internal_energy": -1.9, "cluster_size": 19, "cluster_id": 1, "rank_in_cluster": 15}

>  <energy>  (52) 
-8.92

>  <cluster_rmsd>  (52) 
0.06

>  <cluster>  (52) 
1

$$$$

     RDKit          3D

 54 57  0  0  0  0  0  0  0  0999 V2000
  141.4410   72.2930  221.7350 O   0  0  0  0  0  0  0  0  0  0  0  0
  140.4960   72.4420  222.5550 C   0  0  0  0  0  0  0  0  0  0  0  0
  139.5890   73.5590  222.3240 N   0  0  0  0  0  0  0  0  0  0  0  0
  139.8810   74.3620  221.1860 C   0  0  0  0  0  0  0  0  0  0  0  0
  140.9700   75.3200  221.2200 C   0  0  0  0  0  0  0  0  0  0  0  0
  140.9930   76.0360  222.3160 O   0  0  0  0  0  0  0  0  0  0  0  0
  141.9900   75.6160  220.3090 N   0  0  0  0  0  0  0  0  0  0  0  0
  143.0090   74.7050  219.8330 C   0  0  0  0  0  0  0  0  0  0  0  0
  143.6810   75.3790  218.6240 C   0  0  0  0  0  0  0  0  0  0  0  0
  142.7010   75.9690  217.6720 C   0  0  0  0  0  0  0  0  0  0  0  0
  141.6710   76.8890  218.3480 C   0  0  0  0  0  0  0  0  0  0  0  0
  142.0970   76.9890  219.7730 C   0  0  1  0  0  0  0  0  0  0  0  0
  141.4760   78.0180  220.5860 C   0  0  0  0  0  0  0  0  0  0  0  0
  140.1740   78.4450  220.3530 C   0  0  0  0  0  0  0  0  0  0  0  0
  139.5670   79.4360  221.0810 C   0  0  0  0  0  0  0  0  0  0  0  0
  140.2370   80.0590  222.0890 C   0  0  0  0  0  0  0  0  0  0  0  0
  141.5350   79.6550  222.3430 C   0  0  0  0  0  0  0  0  0  0  0  0
  142.2540   80.3460  223.4470 C   0  0  0  0  0  0  0  0  0  0  0  0
  143.5240   80.7520  223.0780 F   0  0  0  0  0  0  0  0  0  0  0  0
  141.5130   81.4650  223.7810 F   0  0  0  0  0  0  0  0  0  0  0  0
  142.2870   79.5480  224.5770 F   0  0  0  0  0  0  0  0  0  0  0  0
  142.1460   78.6570  221.6110 C   0  0  0  0  0  0  0  0  0  0  0  0
  140.2790   71.5660  223.6950 C   0  0  0  0  0  0  0  0  0  0  0  0
  139.6150   70.3810  223.4590 C   0  0  0  0  0  0  0  0  0  0  0  0
  139.3810   69.5120  224.4960 C   0  0  0  0  0  0  0  0  0  0  0  0
  139.8240   69.8560  225.7660 C   0  0  0  0  0  0  0  0  0  0  0  0
  139.6090   69.0160  226.8270 C   0  0  0  0  0  0  0  0  0  0  0  0
  140.0380   69.3290  228.1020 C   0  0  0  0  0  0  0  0  0  0  0  0
  140.7010   70.5270  228.3070 C   0  0  0  0  0  0  0  0  0  0  0  0
  140.9220   71.3870  227.2290 C   0  0  0  0  0  0  0  0  0  0  0  0
  140.4890   71.0570  225.9680 C   0  0  0  0  0  0  0  0  0  0  0  0
  140.7050   71.8890  224.9320 N   0  0  0  0  0  0  0  0  0  0  0  0
  138.8310   73.6290  223.0090 H   0  0  0  0  0  0  0  0  0  0  0  0
  140.0962   73.6697  220.3587 H   0  0  0  0  0  0  0  0  0  0  0  0
  138.9909   75.0026  221.1007 H   0  0  0  0  0  0  0  0  0  0  0  0
  143.7508   74.5204  220.6239 H   0  0  0  0  0  0  0  0  0  0  0  0
  142.5707   73.7364  219.5507 H   0  0  0  0  0  0  0  0  0  0  0  0
  144.3406   76.1796  218.9901 H   0  0  0  0  0  0  0  0  0  0  0  0
  144.2416   74.6028  218.0824 H   0  0  0  0  0  0  0  0  0  0  0  0
  143.2527   76.5549  216.9221 H   0  0  0  0  0  0  0  0  0  0  0  0
  142.1442   75.1347  217.2204 H   0  0  0  0  0  0  0  0  0  0  0  0
  141.6749   77.8823  217.8755 H   0  0  0  0  0  0  0  0  0  0  0  0
  140.6490   76.4929  218.2556 H   0  0  0  0  0  0  0  0  0  0  0  0
  143.1295   77.3659  219.8163 H   0  0  0  0  0  0  0  0  0  0  0  0
  139.6025   77.9645  219.5452 H   0  0  0  0  0  0  0  0  0  0  0  0
  138.5325   79.7293  220.8490 H   0  0  0  0  0  0  0  0  0  0  0  0
  139.7626   80.8558  222.6807 H   0  0  0  0  0  0  0  0  0  0  0  0
  143.1804   78.3666  221.8471 H   0  0  0  0  0  0  0  0  0  0  0  0
  139.2738   70.1325  222.4432 H   0  0  0  0  0  0  0  0  0  0  0  0
  138.8531   68.5624  224.3240 H   0  0  0  0  0  0  0  0  0  0  0  0
  139.0802   68.0663  226.6587 H   0  0  0  0  0  0  0  0  0  0  0  0
  139.8562   68.6391  228.9392 H   0  0  0  0  0  0  0  0  0  0  0  0
  141.0517   70.7999  229.3132 H   0  0  0  0  0  0  0  0  0  0  0  0
  141.4486   72.3390  227.3916 H   0  0  0  0  0  0  0  0  0  0  0  0
  1  2  2  0
  2  3  1  0
  3  4  1  0
  4  5  1  0
  5  6  2  0
  5  7  1  0
  7  8  1  0
  8  9  1  0
  9 10  1  0
 10 11  1  0
 11 12  1  0
 12 13  1  0
 13 14  2  0
 14 15  1  0
 15 16  2  0
 16 17  1  0
 17 18  1  0
 18 19  1  0
 18 20  1  0
 18 21  1  0
 17 22  2  0
  2 23  1  0
 23 24  2  0
 24 25  1  0
 25 26  2  0
 26 27  1  0
 27 28  2  0
 28 29  1  0
 29 30  2  0
 30 31  1  0
 31 32  2  0
 12  7  1  0
 22 13  1  0
 32 23  1  0
 31 26  1  0
  3 33  1  0
  4 34  1  0
  4 35  1  0
  8 36  1  0
  8 37  1  0
  9 38  1  0
  9 39  1  0
 10 40  1  0
 10 41  1  0
 11 42  1  0
 11 43  1  0
 12 44  1  6
 14 45  1  0
 15 46  1  0
 16 47  1  0
 22 48  1  0
 24 49  1  0
 25 50  1  0
 27 51  1  0
 28 52  1  0
 29 53  1  0
 30 54  1  0
M  END
>  <smiles>  (53) 
O=C(NCC(=O)N1CCCCC1c1cccc(C(F)(F)F)c1)c1ccc2ccccc2n1

>  <score_type>  (53) 
oracle

>  <origin>  (53) 
autodockgpu

>  <m_score__min__energy>  (53) 
-8.9399999999999995

>  <m_primary>  (53) 
energy

>  <rmsd>  (53) 
2.0828817482148603

>  <m_score__min__rmsd>  (53) 
2.0828817482148603

>  <meeko>  (53) 
{"free_energy": -8.63, "intermolecular_energy": -10.42, "internal_energy": -1.41, "cluster_size": 19, "cluster_id": 1, "rank_in_cluster": 10}

>  <energy>  (53) 
-8.92

>  <cluster_rmsd>  (53) 
0.05

>  <cluster>  (53) 
1

$$$$

     RDKit          3D

 54 57  0  0  0  0  0  0  0  0999 V2000
  141.4250   72.6570  221.6510 O   0  0  0  0  0  0  0  0  0  0  0  0
  140.4670   72.7190  222.4670 C   0  0  0  0  0  0  0  0  0  0  0  0
  139.5640   73.8550  222.3420 N   0  0  0  0  0  0  0  0  0  0  0  0
  139.8740   74.7750  221.3010 C   0  0  0  0  0  0  0  0  0  0  0  0
  140.9410   75.7430  221.4680 C   0  0  0  0  0  0  0  0  0  0  0  0
  141.0820   76.1480  222.7050 O   0  0  0  0  0  0  0  0  0  0  0  0
  141.8390   76.3180  220.5610 N   0  0  0  0  0  0  0  0  0  0  0  0
  142.7860   75.6120  219.7250 C   0  0  0  0  0  0  0  0  0  0  0  0
  143.3020   76.6210  218.6850 C   0  0  0  0  0  0  0  0  0  0  0  0
  142.2120   77.4250  218.0670 C   0  0  0  0  0  0  0  0  0  0  0  0
  141.2800   78.0820  219.0980 C   0  0  0  0  0  0  0  0  0  0  0  0
  141.8830   77.7890  220.4290 C   0  0  1  0  0  0  0  0  0  0  0  0
  141.3730   78.5260  221.5710 C   0  0  0  0  0  0  0  0  0  0  0  0
  142.2170   79.0150  222.5600 C   0  0  0  0  0  0  0  0  0  0  0  0
  141.7660   79.6870  223.6670 C   0  0  0  0  0  0  0  0  0  0  0  0
  140.4350   79.9070  223.8440 C   0  0  0  0  0  0  0  0  0  0  0  0
  139.5700   79.4310  222.8750 C   0  0  0  0  0  0  0  0  0  0  0  0
  138.1190   79.6790  223.0840 C   0  0  0  0  0  0  0  0  0  0  0  0
  137.5650   80.4480  222.0760 F   0  0  0  0  0  0  0  0  0  0  0  0
  137.4900   78.4480  223.0950 F   0  0  0  0  0  0  0  0  0  0  0  0
  137.8980   80.2420  224.3280 F   0  0  0  0  0  0  0  0  0  0  0  0
  140.0230   78.7550  221.7610 C   0  0  0  0  0  0  0  0  0  0  0  0
  140.2320   71.7260  223.5020 C   0  0  0  0  0  0  0  0  0  0  0  0
  139.5240   70.5980  223.1430 C   0  0  0  0  0  0  0  0  0  0  0  0
  139.2700   69.6260  224.0780 C   0  0  0  0  0  0  0  0  0  0  0  0
  139.7400   69.8060  225.3720 C   0  0  0  0  0  0  0  0  0  0  0  0
  139.5070   68.8580  226.3330 C   0  0  0  0  0  0  0  0  0  0  0  0
  139.9610   69.0080  227.6290 C   0  0  0  0  0  0  0  0  0  0  0  0
  140.6690   70.1510  227.9590 C   0  0  0  0  0  0  0  0  0  0  0  0
  140.9080   71.1210  226.9820 C   0  0  0  0  0  0  0  0  0  0  0  0
  140.4490   70.9530  225.6990 C   0  0  0  0  0  0  0  0  0  0  0  0
  140.6830   71.8900  224.7610 N   0  0  0  0  0  0  0  0  0  0  0  0
  138.7940   73.8520  223.0180 H   0  0  0  0  0  0  0  0  0  0  0  0
  140.1289   74.1746  220.4153 H   0  0  0  0  0  0  0  0  0  0  0  0
  138.9737   75.4051  221.2514 H   0  0  0  0  0  0  0  0  0  0  0  0
  143.6212   75.2357  220.3339 H   0  0  0  0  0  0  0  0  0  0  0  0
  142.3119   74.7488  219.2350 H   0  0  0  0  0  0  0  0  0  0  0  0
  144.0060   77.3061  219.1799 H   0  0  0  0  0  0  0  0  0  0  0  0
  143.7858   76.0475  217.8806 H   0  0  0  0  0  0  0  0  0  0  0  0
  142.6671   78.2166  217.4537 H   0  0  0  0  0  0  0  0  0  0  0  0
  141.5993   76.7358  217.4673 H   0  0  0  0  0  0  0  0  0  0  0  0
  141.2278   79.1680  218.9310 H   0  0  0  0  0  0  0  0  0  0  0  0
  140.2532   77.6948  219.0227 H   0  0  0  0  0  0  0  0  0  0  0  0
  142.9142   78.1713  220.4514 H   0  0  0  0  0  0  0  0  0  0  0  0
  143.2998   78.8554  222.4498 H   0  0  0  0  0  0  0  0  0  0  0  0
  142.4846   80.0504  224.4164 H   0  0  0  0  0  0  0  0  0  0  0  0
  140.0597   80.4448  224.7271 H   0  0  0  0  0  0  0  0  0  0  0  0
  139.3007   78.3935  221.0143 H   0  0  0  0  0  0  0  0  0  0  0  0
  139.1641   70.4779  222.1105 H   0  0  0  0  0  0  0  0  0  0  0  0
  138.7050   68.7218  223.8075 H   0  0  0  0  0  0  0  0  0  0  0  0
  138.9429   67.9524  226.0653 H   0  0  0  0  0  0  0  0  0  0  0  0
  139.7636   68.2336  228.3848 H   0  0  0  0  0  0  0  0  0  0  0  0
  141.0412   70.2947  228.9841 H   0  0  0  0  0  0  0  0  0  0  0  0
  141.4703   72.0295  227.2438 H   0  0  0  0  0  0  0  0  0  0  0  0
  1  2  2  0
  2  3  1  0
  3  4  1  0
  4  5  1  0
  5  6  2  0
  5  7  1  0
  7  8  1  0
  8  9  1  0
  9 10  1  0
 10 11  1  0
 11 12  1  0
 12 13  1  0
 13 14  2  0
 14 15  1  0
 15 16  2  0
 16 17  1  0
 17 18  1  0
 18 19  1  0
 18 20  1  0
 18 21  1  0
 17 22  2  0
  2 23  1  0
 23 24  2  0
 24 25  1  0
 25 26  2  0
 26 27  1  0
 27 28  2  0
 28 29  1  0
 29 30  2  0
 30 31  1  0
 31 32  2  0
 12  7  1  0
 22 13  1  0
 32 23  1  0
 31 26  1  0
  3 33  1  0
  4 34  1  0
  4 35  1  0
  8 36  1  0
  8 37  1  0
  9 38  1  0
  9 39  1  0
 10 40  1  0
 10 41  1  0
 11 42  1  0
 11 43  1  0
 12 44  1  6
 14 45  1  0
 15 46  1  0
 16 47  1  0
 22 48  1  0
 24 49  1  0
 25 50  1  0
 27 51  1  0
 28 52  1  0
 29 53  1  0
 30 54  1  0
M  END
>  <smiles>  (54) 
O=C(NCC(=O)N1CCCCC1c1cccc(C(F)(F)F)c1)c1ccc2ccccc2n1

>  <score_type>  (54) 
oracle

>  <origin>  (54) 
autodockgpu

>  <m_score__min__energy>  (54) 
-8.9399999999999995

>  <m_primary>  (54) 
energy

>  <rmsd>  (54) 
2.149677730556399

>  <m_score__min__rmsd>  (54) 
2.149677730556399

>  <meeko>  (54) 
{"free_energy": -8.94, "intermolecular_energy": -10.73, "internal_energy": -1.36, "cluster_size": 19, "cluster_id": 1, "rank_in_cluster": 1}

>  <energy>  (54) 
-8.88

>  <cluster_rmsd>  (54) 
0.07

>  <cluster>  (54) 
1

$$$$

     RDKit          3D

 54 57  0  0  0  0  0  0  0  0999 V2000
  139.6330   71.2300  221.2560 O   0  0  0  0  0  0  0  0  0  0  0  0
  139.6700   71.8620  222.3460 C   0  0  0  0  0  0  0  0  0  0  0  0
  139.5290   73.3110  222.2760 N   0  0  0  0  0  0  0  0  0  0  0  0
  139.3650   73.8490  220.9690 C   0  0  0  0  0  0  0  0  0  0  0  0
  140.5230   74.1510  220.1470 C   0  0  0  0  0  0  0  0  0  0  0  0
  140.2090   74.5770  218.9500 O   0  0  0  0  0  0  0  0  0  0  0  0
  141.8980   74.0720  220.3970 N   0  0  0  0  0  0  0  0  0  0  0  0
  142.6230   72.9060  220.8510 C   0  0  0  0  0  0  0  0  0  0  0  0
  144.1200   73.2100  220.6630 C   0  0  0  0  0  0  0  0  0  0  0  0
  144.4260   73.8130  219.3370 C   0  0  0  0  0  0  0  0  0  0  0  0
  143.5420   75.0250  218.9990 C   0  0  0  0  0  0  0  0  0  0  0  0
  142.7290   75.2810  220.2210 C   0  0  1  0  0  0  0  0  0  0  0  0
  142.0100   76.5400  220.2930 C   0  0  0  0  0  0  0  0  0  0  0  0
  141.9110   77.3880  219.1960 C   0  0  0  0  0  0  0  0  0  0  0  0
  141.2670   78.5980  219.2380 C   0  0  0  0  0  0  0  0  0  0  0  0
  140.6810   79.0270  220.3900 C   0  0  0  0  0  0  0  0  0  0  0  0
  140.7640   78.2030  221.4980 C   0  0  0  0  0  0  0  0  0  0  0  0
  140.1190   78.6860  222.7480 C   0  0  0  0  0  0  0  0  0  0  0  0
  139.0050   77.9410  223.0900 F   0  0  0  0  0  0  0  0  0  0  0  0
  141.0530   78.5720  223.7610 F   0  0  0  0  0  0  0  0  0  0  0  0
  139.8150   80.0320  222.6470 F   0  0  0  0  0  0  0  0  0  0  0  0
  141.4110   76.9860  221.4560 C   0  0  0  0  0  0  0  0  0  0  0  0
  139.8420   71.2200  223.6380 C   0  0  0  0  0  0  0  0  0  0  0  0
  139.4920   69.8890  223.7320 C   0  0  0  0  0  0  0  0  0  0  0  0
  139.6330   69.2290  224.9270 C   0  0  0  0  0  0  0  0  0  0  0  0
  140.1290   69.9270  226.0200 C   0  0  0  0  0  0  0  0  0  0  0  0
  140.2840   69.3030  227.2300 C   0  0  0  0  0  0  0  0  0  0  0  0
  140.7750   69.9700  228.3350 C   0  0  0  0  0  0  0  0  0  0  0  0
  141.1170   71.3060  228.2100 C   0  0  0  0  0  0  0  0  0  0  0  0
  140.9600   71.9460  226.9790 C   0  0  0  0  0  0  0  0  0  0  0  0
  140.4710   71.2650  225.8910 C   0  0  0  0  0  0  0  0  0  0  0  0
  140.3230   71.8870  224.7060 N   0  0  0  0  0  0  0  0  0  0  0  0
  139.5500   73.7760  223.1880 H   0  0  0  0  0  0  0  0  0  0  0  0
  138.7573   73.1265  220.4045 H   0  0  0  0  0  0  0  0  0  0  0  0
  138.9323   74.8417  221.1620 H   0  0  0  0  0  0  0  0  0  0  0  0
  142.4060   72.7150  221.9123 H   0  0  0  0  0  0  0  0  0  0  0  0
  142.3279   72.0122  220.2817 H   0  0  0  0  0  0  0  0  0  0  0  0
  144.4373   73.9110  221.4491 H   0  0  0  0  0  0  0  0  0  0  0  0
  144.6613   72.2544  220.7241 H   0  0  0  0  0  0  0  0  0  0  0  0
  145.4772   74.1368  219.3354 H   0  0  0  0  0  0  0  0  0  0  0  0
  144.2270   73.0436  218.5765 H   0  0  0  0  0  0  0  0  0  0  0  0
  144.1647   75.9002  218.7617 H   0  0  0  0  0  0  0  0  0  0  0  0
  142.9078   74.8340  218.1208 H   0  0  0  0  0  0  0  0  0  0  0  0
  143.4014   75.4422  221.0765 H   0  0  0  0  0  0  0  0  0  0  0  0
  142.3717   77.0731  218.2480 H   0  0  0  0  0  0  0  0  0  0  0  0
  141.2235   79.2258  218.3358 H   0  0  0  0  0  0  0  0  0  0  0  0
  140.1600   79.9946  220.4378 H   0  0  0  0  0  0  0  0  0  0  0  0
  141.4509   76.3615  222.3606 H   0  0  0  0  0  0  0  0  0  0  0  0
  139.1010   69.3581  222.8515 H   0  0  0  0  0  0  0  0  0  0  0  0
  139.3584   68.1676  225.0171 H   0  0  0  0  0  0  0  0  0  0  0  0
  140.0099   68.2418  227.3237 H   0  0  0  0  0  0  0  0  0  0  0  0
  140.8923   69.4495  229.2970 H   0  0  0  0  0  0  0  0  0  0  0  0
  141.5100   71.8598  229.0754 H   0  0  0  0  0  0  0  0  0  0  0  0
  141.2310   73.0074  226.8794 H   0  0  0  0  0  0  0  0  0  0  0  0
  1  2  2  0
  2  3  1  0
  3  4  1  0
  4  5  1  0
  5  6  2  0
  5  7  1  0
  7  8  1  0
  8  9  1  0
  9 10  1  0
 10 11  1  0
 11 12  1  0
 12 13  1  0
 13 14  2  0
 14 15  1  0
 15 16  2  0
 16 17  1  0
 17 18  1  0
 18 19  1  0
 18 20  1  0
 18 21  1  0
 17 22  2  0
  2 23  1  0
 23 24  2  0
 24 25  1  0
 25 26  2  0
 26 27  1  0
 27 28  2  0
 28 29  1  0
 29 30  2  0
 30 31  1  0
 31 32  2  0
 12  7  1  0
 22 13  1  0
 32 23  1  0
 31 26  1  0
  3 33  1  0
  4 34  1  0
  4 35  1  0
  8 36  1  0
  8 37  1  0
  9 38  1  0
  9 39  1  0
 10 40  1  0
 10 41  1  0
 11 42  1  0
 11 43  1  0
 12 44  1  1
 14 45  1  0
 15 46  1  0
 16 47  1  0
 22 48  1  0
 24 49  1  0
 25 50  1  0
 27 51  1  0
 28 52  1  0
 29 53  1  0
 30 54  1  0
M  END
>  <smiles>  (55) 
O=C(NCC(=O)N1CCCCC1c1cccc(C(F)(F)F)c1)c1ccc2ccccc2n1

>  <score_type>  (55) 
oracle

>  <origin>  (55) 
autodockgpu

>  <m_score__min__energy>  (55) 
-8.9399999999999995

>  <m_primary>  (55) 
energy

>  <rmsd>  (55) 
2.657229346594396

>  <m_score__min__rmsd>  (55) 
2.657229346594396

>  <meeko>  (55) 
{"free_energy": -7.88, "intermolecular_energy": -9.67, "internal_energy": -1.96, "cluster_size": 19, "cluster_id": 1, "rank_in_cluster": 16}

>  <energy>  (55) 
-8.8

>  <cluster_rmsd>  (55) 
0.14

>  <cluster>  (55) 
1

$$$$

     RDKit          3D

 54 57  0  0  0  0  0  0  0  0999 V2000
  141.4240   72.7030  221.6990 O   0  0  0  0  0  0  0  0  0  0  0  0
  140.4410   72.7370  222.4860 C   0  0  0  0  0  0  0  0  0  0  0  0
  139.5110   73.8490  222.3380 N   0  0  0  0  0  0  0  0  0  0  0  0
  139.8280   74.7800  221.3090 C   0  0  0  0  0  0  0  0  0  0  0  0
  140.9160   75.7250  221.4810 C   0  0  0  0  0  0  0  0  0  0  0  0
  141.0630   76.1230  222.7190 O   0  0  0  0  0  0  0  0  0  0  0  0
  141.8280   76.2820  220.5770 N   0  0  0  0  0  0  0  0  0  0  0  0
  142.7700   75.5580  219.7520 C   0  0  0  0  0  0  0  0  0  0  0  0
  143.3080   76.5540  218.7100 C   0  0  0  0  0  0  0  0  0  0  0  0
  142.2340   77.3710  218.0800 C   0  0  0  0  0  0  0  0  0  0  0  0
  141.3040   78.0460  219.1010 C   0  0  0  0  0  0  0  0  0  0  0  0
  141.8940   77.7510  220.4380 C   0  0  1  0  0  0  0  0  0  0  0  0
  141.3870   78.5010  221.5720 C   0  0  0  0  0  0  0  0  0  0  0  0
  142.2340   79.0090  222.5500 C   0  0  0  0  0  0  0  0  0  0  0  0
  141.7860   79.6940  223.6500 C   0  0  0  0  0  0  0  0  0  0  0  0
  140.4550   79.9100  223.8320 C   0  0  0  0  0  0  0  0  0  0  0  0
  139.5880   79.4150  222.8750 C   0  0  0  0  0  0  0  0  0  0  0  0
  138.1360   79.6590  223.0900 C   0  0  0  0  0  0  0  0  0  0  0  0
  137.3980   78.4880  223.0860 F   0  0  0  0  0  0  0  0  0  0  0  0
  138.0000   80.2620  224.3270 F   0  0  0  0  0  0  0  0  0  0  0  0
  137.6540   80.5620  222.1600 F   0  0  0  0  0  0  0  0  0  0  0  0
  140.0370   78.7260  221.7680 C   0  0  0  0  0  0  0  0  0  0  0  0
  140.2010   71.7340  223.5110 C   0  0  0  0  0  0  0  0  0  0  0  0
  139.4740   70.6210  223.1440 C   0  0  0  0  0  0  0  0  0  0  0  0
  139.2160   69.6400  224.0690 C   0  0  0  0  0  0  0  0  0  0  0  0
  139.6990   69.7970  225.3600 C   0  0  0  0  0  0  0  0  0  0  0  0
  139.4630   68.8400  226.3120 C   0  0  0  0  0  0  0  0  0  0  0  0
  139.9300   68.9670  227.6050 C   0  0  0  0  0  0  0  0  0  0  0  0
  140.6570   70.0960  227.9430 C   0  0  0  0  0  0  0  0  0  0  0  0
  140.9000   71.0750  226.9770 C   0  0  0  0  0  0  0  0  0  0  0  0
  140.4270   70.9300  225.6960 C   0  0  0  0  0  0  0  0  0  0  0  0
  140.6650   71.8760  224.7680 N   0  0  0  0  0  0  0  0  0  0  0  0
  138.7220   73.8230  222.9900 H   0  0  0  0  0  0  0  0  0  0  0  0
  140.0622   74.1896  220.4109 H   0  0  0  0  0  0  0  0  0  0  0  0
  138.9396   75.4280  221.2790 H   0  0  0  0  0  0  0  0  0  0  0  0
  143.5954   75.1730  220.3689 H   0  0  0  0  0  0  0  0  0  0  0  0
  142.2869   74.6990  219.2633 H   0  0  0  0  0  0  0  0  0  0  0  0
  144.0187   77.2313  219.2062 H   0  0  0  0  0  0  0  0  0  0  0  0
  143.7886   75.9691  217.9120 H   0  0  0  0  0  0  0  0  0  0  0  0
  142.7050   78.1532  217.4665 H   0  0  0  0  0  0  0  0  0  0  0  0
  141.6159   76.6880  217.4788 H   0  0  0  0  0  0  0  0  0  0  0  0
  141.2681   79.1318  218.9284 H   0  0  0  0  0  0  0  0  0  0  0  0
  140.2723   77.6729  219.0204 H   0  0  0  0  0  0  0  0  0  0  0  0
  142.9305   78.1182  220.4658 H   0  0  0  0  0  0  0  0  0  0  0  0
  143.3170   78.8538  222.4359 H   0  0  0  0  0  0  0  0  0  0  0  0
  142.5071   80.0713  224.3900 H   0  0  0  0  0  0  0  0  0  0  0  0
  140.0818   80.4589  224.7092 H   0  0  0  0  0  0  0  0  0  0  0  0
  139.3116   78.3505  221.0313 H   0  0  0  0  0  0  0  0  0  0  0  0
  139.1022   70.5197  222.1137 H   0  0  0  0  0  0  0  0  0  0  0  0
  138.6373   68.7465  223.7918 H   0  0  0  0  0  0  0  0  0  0  0  0
  138.8850   67.9451  226.0382 H   0  0  0  0  0  0  0  0  0  0  0  0
  139.7283   68.1859  228.3528 H   0  0  0  0  0  0  0  0  0  0  0  0
  141.0409   70.2211  228.9662 H   0  0  0  0  0  0  0  0  0  0  0  0
  141.4768   71.9724  227.2454 H   0  0  0  0  0  0  0  0  0  0  0  0
  1  2  2  0
  2  3  1  0
  3  4  1  0
  4  5  1  0
  5  6  2  0
  5  7  1  0
  7  8  1  0
  8  9  1  0
  9 10  1  0
 10 11  1  0
 11 12  1  0
 12 13  1  0
 13 14  2  0
 14 15  1  0
 15 16  2  0
 16 17  1  0
 17 18  1  0
 18 19  1  0
 18 20  1  0
 18 21  1  0
 17 22  2  0
  2 23  1  0
 23 24  2  0
 24 25  1  0
 25 26  2  0
 26 27  1  0
 27 28  2  0
 28 29  1  0
 29 30  2  0
 30 31  1  0
 31 32  2  0
 12  7  1  0
 22 13  1  0
 32 23  1  0
 31 26  1  0
  3 33  1  0
  4 34  1  0
  4 35  1  0
  8 36  1  0
  8 37  1  0
  9 38  1  0
  9 39  1  0
 10 40  1  0
 10 41  1  0
 11 42  1  0
 11 43  1  0
 12 44  1  6
 14 45  1  0
 15 46  1  0
 16 47  1  0
 22 48  1  0
 24 49  1  0
 25 50  1  0
 27 51  1  0
 28 52  1  0
 29 53  1  0
 30 54  1  0
M  END
>  <smiles>  (56) 
O=C(NCC(=O)N1CCCCC1c1cccc(C(F)(F)F)c1)c1ccc2ccccc2n1

>  <score_type>  (56) 
oracle

>  <origin>  (56) 
autodockgpu

>  <m_score__min__energy>  (56) 
-8.9399999999999995

>  <m_primary>  (56) 
energy

>  <rmsd>  (56) 
2.143132477254974

>  <m_score__min__rmsd>  (56) 
2.143132477254974

>  <meeko>  (56) 
{"free_energy": -8.92, "intermolecular_energy": -10.71, "internal_energy": -1.36, "cluster_size": 19, "cluster_id": 1, "rank_in_cluster": 2}

>  <energy>  (56) 
-8.78

>  <cluster_rmsd>  (56) 
0.13

>  <cluster>  (56) 
1

$$$$

     RDKit          3D

 54 57  0  0  0  0  0  0  0  0999 V2000
  139.2870   70.8520  221.4220 O   0  0  0  0  0  0  0  0  0  0  0  0
  139.9930   71.1880  222.4090 C   0  0  0  0  0  0  0  0  0  0  0  0
  140.9180   72.2980  222.2160 N   0  0  0  0  0  0  0  0  0  0  0  0
  140.9150   72.8790  220.9170 C   0  0  0  0  0  0  0  0  0  0  0  0
  141.1080   74.3070  220.7490 C   0  0  0  0  0  0  0  0  0  0  0  0
  141.0850   74.9680  221.8790 O   0  0  0  0  0  0  0  0  0  0  0  0
  141.3150   75.1000  219.6140 N   0  0  0  0  0  0  0  0  0  0  0  0
  140.2900   75.7040  218.7900 C   0  0  0  0  0  0  0  0  0  0  0  0
  140.9940   76.7290  217.8830 C   0  0  0  0  0  0  0  0  0  0  0  0
  141.9640   77.5850  218.6190 C   0  0  0  0  0  0  0  0  0  0  0  0
  142.9620   76.7830  219.4700 C   0  0  0  0  0  0  0  0  0  0  0  0
  142.6970   75.3500  219.1550 C   0  0  1  0  0  0  0  0  0  0  0  0
  143.6780   74.3770  219.5960 C   0  0  0  0  0  0  0  0  0  0  0  0
  144.6850   74.7100  220.4950 C   0  0  0  0  0  0  0  0  0  0  0  0
  145.6460   73.8230  220.9090 C   0  0  0  0  0  0  0  0  0  0  0  0
  145.6520   72.5460  220.4400 C   0  0  0  0  0  0  0  0  0  0  0  0
  144.6630   72.1860  219.5430 C   0  0  0  0  0  0  0  0  0  0  0  0
  144.6840   70.7860  219.0390 C   0  0  0  0  0  0  0  0  0  0  0  0
  143.8270   69.9590  219.7440 F   0  0  0  0  0  0  0  0  0  0  0  0
  144.2770   70.8190  217.7190 F   0  0  0  0  0  0  0  0  0  0  0  0
  145.9760   70.2920  219.0380 F   0  0  0  0  0  0  0  0  0  0  0  0
  143.6950   73.0770  219.1270 C   0  0  0  0  0  0  0  0  0  0  0  0
  139.9250   70.5300  223.7030 C   0  0  0  0  0  0  0  0  0  0  0  0
  139.2010   69.3580  223.7760 C   0  0  0  0  0  0  0  0  0  0  0  0
  139.1000   68.6910  224.9720 C   0  0  0  0  0  0  0  0  0  0  0  0
  139.7380   69.2210  226.0850 C   0  0  0  0  0  0  0  0  0  0  0  0
  139.6610   68.5840  227.2970 C   0  0  0  0  0  0  0  0  0  0  0  0
  140.2840   69.0850  228.4230 C   0  0  0  0  0  0  0  0  0  0  0  0
  141.0040   70.2630  228.3180 C   0  0  0  0  0  0  0  0  0  0  0  0
  141.0840   70.9160  227.0860 C   0  0  0  0  0  0  0  0  0  0  0  0
  140.4580   70.4010  225.9780 C   0  0  0  0  0  0  0  0  0  0  0  0
  140.5400   71.0340  224.7920 N   0  0  0  0  0  0  0  0  0  0  0  0
  141.4570   72.5420  223.0510 H   0  0  0  0  0  0  0  0  0  0  0  0
  141.7157   72.3836  220.3483 H   0  0  0  0  0  0  0  0  0  0  0  0
  139.8786   72.7281  220.5808 H   0  0  0  0  0  0  0  0  0  0  0  0
  139.7940   74.9355  218.1789 H   0  0  0  0  0  0  0  0  0  0  0  0
  139.5207   76.1883  219.4094 H   0  0  0  0  0  0  0  0  0  0  0  0
  141.5340   76.1861  217.0933 H   0  0  0  0  0  0  0  0  0  0  0  0
  140.2186   77.3903  217.4690 H   0  0  0  0  0  0  0  0  0  0  0  0
  142.5294   78.1803  217.8869 H   0  0  0  0  0  0  0  0  0  0  0  0
  141.3832   78.2160  219.3078 H   0  0  0  0  0  0  0  0  0  0  0  0
  143.9953   77.0500  219.2034 H   0  0  0  0  0  0  0  0  0  0  0  0
  142.8422   76.9926  220.5432 H   0  0  0  0  0  0  0  0  0  0  0  0
  142.8035   75.1912  218.0717 H   0  0  0  0  0  0  0  0  0  0  0  0
  144.7124   75.7348  220.8937 H   0  0  0  0  0  0  0  0  0  0  0  0
  146.4164   74.1462  221.6245 H   0  0  0  0  0  0  0  0  0  0  0  0
  146.4171   71.8247  220.7631 H   0  0  0  0  0  0  0  0  0  0  0  0
  142.9263   72.7481  218.4122 H   0  0  0  0  0  0  0  0  0  0  0  0
  138.7059   68.9589  222.8785 H   0  0  0  0  0  0  0  0  0  0  0  0
  138.5254   67.7560  225.0465 H   0  0  0  0  0  0  0  0  0  0  0  0
  139.0874   67.6486  227.3743 H   0  0  0  0  0  0  0  0  0  0  0  0
  140.2096   68.5579  229.3856 H   0  0  0  0  0  0  0  0  0  0  0  0
  141.5102   70.6823  229.2000 H   0  0  0  0  0  0  0  0  0  0  0  0
  141.6546   71.8527  227.0026 H   0  0  0  0  0  0  0  0  0  0  0  0
  1  2  2  0
  2  3  1  0
  3  4  1  0
  4  5  1  0
  5  6  2  0
  5  7  1  0
  7  8  1  0
  8  9  1  0
  9 10  1  0
 10 11  1  0
 11 12  1  0
 12 13  1  0
 13 14  2  0
 14 15  1  0
 15 16  2  0
 16 17  1  0
 17 18  1  0
 18 19  1  0
 18 20  1  0
 18 21  1  0
 17 22  2  0
  2 23  1  0
 23 24  2  0
 24 25  1  0
 25 26  2  0
 26 27  1  0
 27 28  2  0
 28 29  1  0
 29 30  2  0
 30 31  1  0
 31 32  2  0
 12  7  1  0
 22 13  1  0
 32 23  1  0
 31 26  1  0
  3 33  1  0
  4 34  1  0
  4 35  1  0
  8 36  1  0
  8 37  1  0
  9 38  1  0
  9 39  1  0
 10 40  1  0
 10 41  1  0
 11 42  1  0
 11 43  1  0
 12 44  1  6
 14 45  1  0
 15 46  1  0
 16 47  1  0
 22 48  1  0
 24 49  1  0
 25 50  1  0
 27 51  1  0
 28 52  1  0
 29 53  1  0
 30 54  1  0
M  END
>  <smiles>  (57) 
O=C(NCC(=O)N1CCCCC1c1cccc(C(F)(F)F)c1)c1ccc2ccccc2n1

>  <score_type>  (57) 
oracle

>  <origin>  (57) 
autodockgpu

>  <m_score__min__energy>  (57) 
-8.9399999999999995

>  <m_primary>  (57) 
energy

>  <rmsd>  (57) 
1.9546208573740183

>  <m_score__min__rmsd>  (57) 
1.9546208573740183

>  <meeko>  (57) 
{"free_energy": -7.77, "intermolecular_energy": -9.56, "internal_energy": -1.94, "cluster_size": 16, "cluster_id": 2, "rank_in_cluster": 16}

>  <energy>  (57) 
-8.67

>  <cluster_rmsd>  (57) 
1.74

>  <cluster>  (57) 
1

$$$$

     RDKit          3D

 54 57  0  0  0  0  0  0  0  0999 V2000
  141.0390   74.4340  220.5400 O   0  0  0  0  0  0  0  0  0  0  0  0
  140.3630   74.7080  221.5670 C   0  0  0  0  0  0  0  0  0  0  0  0
  139.7880   73.5870  222.3000 N   0  0  0  0  0  0  0  0  0  0  0  0
  140.0590   72.2980  221.7620 C   0  0  0  0  0  0  0  0  0  0  0  0
  139.2010   71.1720  222.0800 C   0  0  0  0  0  0  0  0  0  0  0  0
  139.7470   70.0140  221.8080 O   0  0  0  0  0  0  0  0  0  0  0  0
  137.9120   71.0970  222.6190 N   0  0  0  0  0  0  0  0  0  0  0  0
  136.7020   71.6280  222.0300 C   0  0  0  0  0  0  0  0  0  0  0  0
  135.5230   71.0210  222.8100 C   0  0  0  0  0  0  0  0  0  0  0  0
  135.6670   69.5560  223.0310 C   0  0  0  0  0  0  0  0  0  0  0  0
  137.0240   69.1610  223.6350 C   0  0  0  0  0  0  0  0  0  0  0  0
  137.7200   70.4450  223.9320 C   0  0  1  0  0  0  0  0  0  0  0  0
  138.9040   70.3860  224.7690 C   0  0  0  0  0  0  0  0  0  0  0  0
  139.6760   71.5130  225.0230 C   0  0  0  0  0  0  0  0  0  0  0  0
  140.8170   71.4860  225.7830 C   0  0  0  0  0  0  0  0  0  0  0  0
  141.2500   70.3190  226.3350 C   0  0  0  0  0  0  0  0  0  0  0  0
  140.5010   69.1800  226.0980 C   0  0  0  0  0  0  0  0  0  0  0  0
  140.9880   67.9130  226.7080 C   0  0  0  0  0  0  0  0  0  0  0  0
  140.1350   66.8510  226.4690 F   0  0  0  0  0  0  0  0  0  0  0  0
  142.2150   67.6300  226.1370 F   0  0  0  0  0  0  0  0  0  0  0  0
  141.2160   68.0840  228.0610 F   0  0  0  0  0  0  0  0  0  0  0  0
  139.3530   69.2070  225.3340 C   0  0  0  0  0  0  0  0  0  0  0  0
  140.1400   76.0640  222.0400 C   0  0  0  0  0  0  0  0  0  0  0  0
  138.8320   76.4650  222.2060 C   0  0  0  0  0  0  0  0  0  0  0  0
  138.5580   77.7350  222.6500 C   0  0  0  0  0  0  0  0  0  0  0  0
  139.6190   78.5880  222.9240 C   0  0  0  0  0  0  0  0  0  0  0  0
  139.3870   79.8630  223.3700 C   0  0  0  0  0  0  0  0  0  0  0  0
  140.4210   80.7350  223.6510 C   0  0  0  0  0  0  0  0  0  0  0  0
  141.7240   80.3020  223.4750 C   0  0  0  0  0  0  0  0  0  0  0  0
  141.9650   79.0040  223.0210 C   0  0  0  0  0  0  0  0  0  0  0  0
  140.9240   78.1520  222.7470 C   0  0  0  0  0  0  0  0  0  0  0  0
  141.1620   76.9010  222.3100 N   0  0  0  0  0  0  0  0  0  0  0  0
  139.2610   73.8610  223.1340 H   0  0  0  0  0  0  0  0  0  0  0  0
  140.0465   72.4044  220.6672 H   0  0  0  0  0  0  0  0  0  0  0  0
  141.0116   72.0258  222.2399 H   0  0  0  0  0  0  0  0  0  0  0  0
  136.6886   72.7245  222.1165 H   0  0  0  0  0  0  0  0  0  0  0  0
  136.6398   71.3748  220.9614 H   0  0  0  0  0  0  0  0  0  0  0  0
  135.4564   71.5187  223.7887 H   0  0  0  0  0  0  0  0  0  0  0  0
  134.6149   71.1763  222.2089 H   0  0  0  0  0  0  0  0  0  0  0  0
  134.8714   69.2266  223.7155 H   0  0  0  0  0  0  0  0  0  0  0  0
  135.5956   69.0702  222.0467 H   0  0  0  0  0  0  0  0  0  0  0  0
  136.8790   68.5805  224.5580 H   0  0  0  0  0  0  0  0  0  0  0  0
  137.6077   68.5315  222.9472 H   0  0  0  0  0  0  0  0  0  0  0  0
  137.0917   71.0502  224.6021 H   0  0  0  0  0  0  0  0  0  0  0  0
  139.3562   72.4738  224.5934 H   0  0  0  0  0  0  0  0  0  0  0  0
  141.3861   72.4128  225.9478 H   0  0  0  0  0  0  0  0  0  0  0  0
  142.1629   70.2830  226.9476 H   0  0  0  0  0  0  0  0  0  0  0  0
  138.7870   68.2778  225.1721 H   0  0  0  0  0  0  0  0  0  0  0  0
  138.0095   75.7693  221.9833 H   0  0  0  0  0  0  0  0  0  0  0  0
  137.5191   78.0700  222.7859 H   0  0  0  0  0  0  0  0  0  0  0  0
  138.3494   80.2011  223.5079 H   0  0  0  0  0  0  0  0  0  0  0  0
  140.2128   81.7544  224.0080 H   0  0  0  0  0  0  0  0  0  0  0  0
  142.5650   80.9771  223.6917 H   0  0  0  0  0  0  0  0  0  0  0  0
  143.0005   78.6601  222.8813 H   0  0  0  0  0  0  0  0  0  0  0  0
  1  2  2  0
  2  3  1  0
  3  4  1  0
  4  5  1  0
  5  6  2  0
  5  7  1  0
  7  8  1  0
  8  9  1  0
  9 10  1  0
 10 11  1  0
 11 12  1  0
 12 13  1  0
 13 14  2  0
 14 15  1  0
 15 16  2  0
 16 17  1  0
 17 18  1  0
 18 19  1  0
 18 20  1  0
 18 21  1  0
 17 22  2  0
  2 23  1  0
 23 24  2  0
 24 25  1  0
 25 26  2  0
 26 27  1  0
 27 28  2  0
 28 29  1  0
 29 30  2  0
 30 31  1  0
 31 32  2  0
 12  7  1  0
 22 13  1  0
 32 23  1  0
 31 26  1  0
  3 33  1  0
  4 34  1  0
  4 35  1  0
  8 36  1  0
  8 37  1  0
  9 38  1  0
  9 39  1  0
 10 40  1  0
 10 41  1  0
 11 42  1  0
 11 43  1  0
 12 44  1  1
 14 45  1  0
 15 46  1  0
 16 47  1  0
 22 48  1  0
 24 49  1  0
 25 50  1  0
 27 51  1  0
 28 52  1  0
 29 53  1  0
 30 54  1  0
M  END
>  <smiles>  (58) 
O=C(NCC(=O)N1CCCCC1c1cccc(C(F)(F)F)c1)c1ccc2ccccc2n1

>  <score_type>  (58) 
oracle

>  <origin>  (58) 
autodockgpu

>  <m_score__min__energy>  (58) 
-8.9399999999999995

>  <m_primary>  (58) 
energy

>  <rmsd>  (58) 
8.061307360116825

>  <m_score__min__rmsd>  (58) 
8.061307360116825

>  <meeko>  (58) 
{"free_energy": -7.82, "intermolecular_energy": -9.61, "internal_energy": -1.46, "cluster_size": 1, "cluster_id": 5, "rank_in_cluster": 1}

>  <energy>  (58) 
-8.66

>  <cluster_rmsd>  (58) 
1.74

>  <cluster>  (58) 
1

$$$$

     RDKit          3D

 54 57  0  0  0  0  0  0  0  0999 V2000
  139.3770   74.5430  221.7820 O   0  0  0  0  0  0  0  0  0  0  0  0
  140.5580   74.9570  221.6410 C   0  0  0  0  0  0  0  0  0  0  0  0
  140.8100   76.3590  221.9490 N   0  0  0  0  0  0  0  0  0  0  0  0
  139.6770   77.1060  222.3770 C   0  0  0  0  0  0  0  0  0  0  0  0
  139.6210   78.5410  222.1700 C   0  0  0  0  0  0  0  0  0  0  0  0
  138.5520   78.9280  221.5200 O   0  0  0  0  0  0  0  0  0  0  0  0
  140.4880   79.5780  222.5340 N   0  0  0  0  0  0  0  0  0  0  0  0
  140.3240   80.4840  223.6500 C   0  0  0  0  0  0  0  0  0  0  0  0
  141.6660   81.2130  223.8340 C   0  0  0  0  0  0  0  0  0  0  0  0
  142.8360   80.2940  223.7830 C   0  0  0  0  0  0  0  0  0  0  0  0
  142.8390   79.3790  222.5480 C   0  0  0  0  0  0  0  0  0  0  0  0
  141.6900   79.8290  221.7120 C   0  0  1  0  0  0  0  0  0  0  0  0
  141.6200   79.3340  220.3500 C   0  0  0  0  0  0  0  0  0  0  0  0
  140.9240   80.0170  219.3590 C   0  0  0  0  0  0  0  0  0  0  0  0
  140.8110   79.5620  218.0700 C   0  0  0  0  0  0  0  0  0  0  0  0
  141.3930   78.3880  217.7010 C   0  0  0  0  0  0  0  0  0  0  0  0
  142.0920   77.6860  218.6670 C   0  0  0  0  0  0  0  0  0  0  0  0
  142.7210   76.4050  218.2470 C   0  0  0  0  0  0  0  0  0  0  0  0
  143.1250   76.4250  216.9240 F   0  0  0  0  0  0  0  0  0  0  0  0
  143.8340   76.2150  219.0450 F   0  0  0  0  0  0  0  0  0  0  0  0
  141.8720   75.3430  218.5000 F   0  0  0  0  0  0  0  0  0  0  0  0
  142.2060   78.1440  219.9630 C   0  0  0  0  0  0  0  0  0  0  0  0
  141.6550   74.1130  221.1960 C   0  0  0  0  0  0  0  0  0  0  0  0
  141.3590   72.7970  220.9080 C   0  0  0  0  0  0  0  0  0  0  0  0
  142.3540   71.9520  220.4830 C   0  0  0  0  0  0  0  0  0  0  0  0
  143.6420   72.4520  220.3530 C   0  0  0  0  0  0  0  0  0  0  0  0
  144.6620   71.6390  219.9310 C   0  0  0  0  0  0  0  0  0  0  0  0
  145.9540   72.1060  219.7910 C   0  0  0  0  0  0  0  0  0  0  0  0
  146.2200   73.4320  220.0880 C   0  0  0  0  0  0  0  0  0  0  0  0
  145.1840   74.2640  220.5180 C   0  0  0  0  0  0  0  0  0  0  0  0
  143.9050   73.7810  220.6500 C   0  0  0  0  0  0  0  0  0  0  0  0
  142.9100   74.5870  221.0650 N   0  0  0  0  0  0  0  0  0  0  0  0
  141.7870   76.6430  221.8330 H   0  0  0  0  0  0  0  0  0  0  0  0
  138.8044   76.6787  221.8612 H   0  0  0  0  0  0  0  0  0  0  0  0
  139.7198   77.0152  223.4724 H   0  0  0  0  0  0  0  0  0  0  0  0
  139.5258   81.2095  223.4342 H   0  0  0  0  0  0  0  0  0  0  0  0
  140.0439   79.9379  224.5629 H   0  0  0  0  0  0  0  0  0  0  0  0
  141.7718   81.9607  223.0342 H   0  0  0  0  0  0  0  0  0  0  0  0
  141.6550   81.6785  224.8306 H   0  0  0  0  0  0  0  0  0  0  0  0
  143.7546   80.8990  223.7711 H   0  0  0  0  0  0  0  0  0  0  0  0
  142.7780   79.6444  224.6688 H   0  0  0  0  0  0  0  0  0  0  0  0
  143.7827   79.4863  221.9931 H   0  0  0  0  0  0  0  0  0  0  0  0
  142.7483   78.3189  222.8271 H   0  0  0  0  0  0  0  0  0  0  0  0
  141.8093   80.8971  221.4776 H   0  0  0  0  0  0  0  0  0  0  0  0
  140.4401   80.9693  219.6216 H   0  0  0  0  0  0  0  0  0  0  0  0
  140.2469   80.1490  217.3303 H   0  0  0  0  0  0  0  0  0  0  0  0
  141.3105   78.0107  216.6710 H   0  0  0  0  0  0  0  0  0  0  0  0
  142.7714   77.5535  220.6989 H   0  0  0  0  0  0  0  0  0  0  0  0
  140.3294   72.4259  221.0185 H   0  0  0  0  0  0  0  0  0  0  0  0
  142.1347   70.8995  220.2501 H   0  0  0  0  0  0  0  0  0  0  0  0
  144.4454   70.5861  219.6976 H   0  0  0  0  0  0  0  0  0  0  0  0
  146.7574   71.4366  219.4497 H   0  0  0  0  0  0  0  0  0  0  0  0
  147.2413   73.8277  219.9859 H   0  0  0  0  0  0  0  0  0  0  0  0
  145.3946   75.3176  220.7536 H   0  0  0  0  0  0  0  0  0  0  0  0
  1  2  2  0
  2  3  1  0
  3  4  1  0
  4  5  1  0
  5  6  2  0
  5  7  1  0
  7  8  1  0
  8  9  1  0
  9 10  1  0
 10 11  1  0
 11 12  1  0
 12 13  1  0
 13 14  2  0
 14 15  1  0
 15 16  2  0
 16 17  1  0
 17 18  1  0
 18 19  1  0
 18 20  1  0
 18 21  1  0
 17 22  2  0
  2 23  1  0
 23 24  2  0
 24 25  1  0
 25 26  2  0
 26 27  1  0
 27 28  2  0
 28 29  1  0
 29 30  2  0
 30 31  1  0
 31 32  2  0
 12  7  1  0
 22 13  1  0
 32 23  1  0
 31 26  1  0
  3 33  1  0
  4 34  1  0
  4 35  1  0
  8 36  1  0
  8 37  1  0
  9 38  1  0
  9 39  1  0
 10 40  1  0
 10 41  1  0
 11 42  1  0
 11 43  1  0
 12 44  1  6
 14 45  1  0
 15 46  1  0
 16 47  1  0
 22 48  1  0
 24 49  1  0
 25 50  1  0
 27 51  1  0
 28 52  1  0
 29 53  1  0
 30 54  1  0
M  END
>  <smiles>  (59) 
O=C(NCC(=O)N1CCCCC1c1cccc(C(F)(F)F)c1)c1ccc2ccccc2n1

>  <score_type>  (59) 
oracle

>  <origin>  (59) 
autodockgpu

>  <m_score__min__energy>  (59) 
-8.9399999999999995

>  <m_primary>  (59) 
energy

>  <rmsd>  (59) 
6.583946352147219

>  <m_score__min__rmsd>  (59) 
6.583946352147219

>  <meeko>  (59) 
{"free_energy": -7.02, "intermolecular_energy": -8.81, "internal_energy": -2.74, "cluster_size": 6, "cluster_id": 8, "rank_in_cluster": 6}

>  <energy>  (59) 
-8.65

>  <cluster_rmsd>  (59) 
1.78

>  <cluster>  (59) 
1

$$$$

     RDKit          3D

 54 57  0  0  0  0  0  0  0  0999 V2000
  141.4160   72.6330  221.6620 O   0  0  0  0  0  0  0  0  0  0  0  0
  140.4560   72.7070  222.4760 C   0  0  0  0  0  0  0  0  0  0  0  0
  139.5630   73.8500  222.3440 N   0  0  0  0  0  0  0  0  0  0  0  0
  139.8830   74.7620  221.2990 C   0  0  0  0  0  0  0  0  0  0  0  0
  140.9520   75.7290  221.4680 C   0  0  0  0  0  0  0  0  0  0  0  0
  141.1040   76.1180  222.7080 O   0  0  0  0  0  0  0  0  0  0  0  0
  141.8410   76.3140  220.5590 N   0  0  0  0  0  0  0  0  0  0  0  0
  142.7920   75.6200  219.7180 C   0  0  0  0  0  0  0  0  0  0  0  0
  143.2940   76.6370  218.6790 C   0  0  0  0  0  0  0  0  0  0  0  0
  142.1950   77.4320  218.0670 C   0  0  0  0  0  0  0  0  0  0  0  0
  141.2590   78.0770  219.1030 C   0  0  0  0  0  0  0  0  0  0  0  0
  141.8700   77.7860  220.4310 C   0  0  1  0  0  0  0  0  0  0  0  0
  141.3560   78.5150  221.5760 C   0  0  0  0  0  0  0  0  0  0  0  0
  142.1980   79.0030  222.5680 C   0  0  0  0  0  0  0  0  0  0  0  0
  141.7440   79.6680  223.6790 C   0  0  0  0  0  0  0  0  0  0  0  0
  140.4110   79.8810  223.8570 C   0  0  0  0  0  0  0  0  0  0  0  0
  139.5490   79.4050  222.8850 C   0  0  0  0  0  0  0  0  0  0  0  0
  138.0960   79.6460  223.0960 C   0  0  0  0  0  0  0  0  0  0  0  0
  137.3620   78.4730  223.0900 F   0  0  0  0  0  0  0  0  0  0  0  0
  137.9560   80.2480  224.3320 F   0  0  0  0  0  0  0  0  0  0  0  0
  137.6150   80.5480  222.1650 F   0  0  0  0  0  0  0  0  0  0  0  0
  140.0050   78.7370  221.7680 C   0  0  0  0  0  0  0  0  0  0  0  0
  140.2100   71.7210  223.5150 C   0  0  0  0  0  0  0  0  0  0  0  0
  139.4740   70.6080  223.1650 C   0  0  0  0  0  0  0  0  0  0  0  0
  139.2080   69.6430  224.1040 C   0  0  0  0  0  0  0  0  0  0  0  0
  139.6960   69.8150  225.3920 C   0  0  0  0  0  0  0  0  0  0  0  0
  139.4530   68.8730  226.3580 C   0  0  0  0  0  0  0  0  0  0  0  0
  139.9230   69.0150  227.6480 C   0  0  0  0  0  0  0  0  0  0  0  0
  140.6600   70.1430  227.9690 C   0  0  0  0  0  0  0  0  0  0  0  0
  140.9100   71.1060  226.9880 C   0  0  0  0  0  0  0  0  0  0  0  0
  140.4340   70.9460  225.7110 C   0  0  0  0  0  0  0  0  0  0  0  0
  140.6780   71.8760  224.7690 N   0  0  0  0  0  0  0  0  0  0  0  0
  138.7920   73.8570  223.0170 H   0  0  0  0  0  0  0  0  0  0  0  0
  140.1431   74.1549  220.4193 H   0  0  0  0  0  0  0  0  0  0  0  0
  138.9847   75.3939  221.2379 H   0  0  0  0  0  0  0  0  0  0  0  0
  143.6332   75.2506  220.3230 H   0  0  0  0  0  0  0  0  0  0  0  0
  142.3250   74.7533  219.2273 H   0  0  0  0  0  0  0  0  0  0  0  0
  143.9931   77.3275  219.1734 H   0  0  0  0  0  0  0  0  0  0  0  0
  143.7800   76.0702  217.8712 H   0  0  0  0  0  0  0  0  0  0  0  0
  142.6407   78.2300  217.4550 H   0  0  0  0  0  0  0  0  0  0  0  0
  141.5874   76.7387  217.4669 H   0  0  0  0  0  0  0  0  0  0  0  0
  141.1952   79.1629  218.9393 H   0  0  0  0  0  0  0  0  0  0  0  0
  140.2357   77.6801  219.0299 H   0  0  0  0  0  0  0  0  0  0  0  0
  142.8978   78.1775  220.4513 H   0  0  0  0  0  0  0  0  0  0  0  0
  143.2814   78.8486  222.4571 H   0  0  0  0  0  0  0  0  0  0  0  0
  142.4610   80.0311  224.4301 H   0  0  0  0  0  0  0  0  0  0  0  0
  140.0327   80.4128  224.7425 H   0  0  0  0  0  0  0  0  0  0  0  0
  139.2841   78.3759  221.0197 H   0  0  0  0  0  0  0  0  0  0  0  0
  139.1014   70.4942  222.1363 H   0  0  0  0  0  0  0  0  0  0  0  0
  138.6199   68.7513  223.8412 H   0  0  0  0  0  0  0  0  0  0  0  0
  138.8671   67.9791  226.0978 H   0  0  0  0  0  0  0  0  0  0  0  0
  139.7161   68.2464  228.4072 H   0  0  0  0  0  0  0  0  0  0  0  0
  141.0461   70.2798  228.9899 H   0  0  0  0  0  0  0  0  0  0  0  0
  141.4948   72.0023  227.2422 H   0  0  0  0  0  0  0  0  0  0  0  0
  1  2  2  0
  2  3  1  0
  3  4  1  0
  4  5  1  0
  5  6  2  0
  5  7  1  0
  7  8  1  0
  8  9  1  0
  9 10  1  0
 10 11  1  0
 11 12  1  0
 12 13  1  0
 13 14  2  0
 14 15  1  0
 15 16  2  0
 16 17  1  0
 17 18  1  0
 18 19  1  0
 18 20  1  0
 18 21  1  0
 17 22  2  0
  2 23  1  0
 23 24  2  0
 24 25  1  0
 25 26  2  0
 26 27  1  0
 27 28  2  0
 28 29  1  0
 29 30  2  0
 30 31  1  0
 31 32  2  0
 12  7  1  0
 22 13  1  0
 32 23  1  0
 31 26  1  0
  3 33  1  0
  4 34  1  0
  4 35  1  0
  8 36  1  0
  8 37  1  0
  9 38  1  0
  9 39  1  0
 10 40  1  0
 10 41  1  0
 11 42  1  0
 11 43  1  0
 12 44  1  6
 14 45  1  0
 15 46  1  0
 16 47  1  0
 22 48  1  0
 24 49  1  0
 25 50  1  0
 27 51  1  0
 28 52  1  0
 29 53  1  0
 30 54  1  0
M  END
>  <smiles>  (60) 
O=C(NCC(=O)N1CCCCC1c1cccc(C(F)(F)F)c1)c1ccc2ccccc2n1

>  <score_type>  (60) 
oracle

>  <origin>  (60) 
autodockgpu

>  <m_score__min__energy>  (60) 
-8.9399999999999995

>  <m_primary>  (60) 
energy

>  <rmsd>  (60) 
2.1496307811170365

>  <m_score__min__rmsd>  (60) 
2.1496307811170365

>  <meeko>  (60) 
{"free_energy": -8.92, "intermolecular_energy": -10.71, "internal_energy": -1.37, "cluster_size": 19, "cluster_id": 1, "rank_in_cluster": 3}

>  <energy>  (60) 
-8.63

>  <cluster_rmsd>  (60) 
1.75

>  <cluster>  (60) 
1

$$$$

     RDKit          3D

 54 57  0  0  0  0  0  0  0  0999 V2000
  139.9020   71.2090  221.2200 O   0  0  0  0  0  0  0  0  0  0  0  0
  139.8140   71.8380  222.3080 C   0  0  0  0  0  0  0  0  0  0  0  0
  139.5760   73.2730  222.2270 N   0  0  0  0  0  0  0  0  0  0  0  0
  139.4700   73.8040  220.9100 C   0  0  0  0  0  0  0  0  0  0  0  0
  140.6550   73.9860  220.0930 C   0  0  0  0  0  0  0  0  0  0  0  0
  140.3830   74.2510  218.8400 O   0  0  0  0  0  0  0  0  0  0  0  0
  142.0210   73.9330  220.3940 N   0  0  0  0  0  0  0  0  0  0  0  0
  142.7520   72.7780  220.8690 C   0  0  0  0  0  0  0  0  0  0  0  0
  144.2480   73.1120  220.7400 C   0  0  0  0  0  0  0  0  0  0  0  0
  144.5930   73.7290  219.4300 C   0  0  0  0  0  0  0  0  0  0  0  0
  143.6990   74.9250  219.0650 C   0  0  0  0  0  0  0  0  0  0  0  0
  142.8350   75.1590  220.2570 C   0  0  1  0  0  0  0  0  0  0  0  0
  142.0880   76.4020  220.3080 C   0  0  0  0  0  0  0  0  0  0  0  0
  141.9960   77.2440  219.2060 C   0  0  0  0  0  0  0  0  0  0  0  0
  141.3260   78.4400  219.2290 C   0  0  0  0  0  0  0  0  0  0  0  0
  140.7080   78.8620  220.3660 C   0  0  0  0  0  0  0  0  0  0  0  0
  140.7840   78.0450  221.4790 C   0  0  0  0  0  0  0  0  0  0  0  0
  140.1040   78.5200  222.7140 C   0  0  0  0  0  0  0  0  0  0  0  0
  139.0620   77.6940  223.0940 F   0  0  0  0  0  0  0  0  0  0  0  0
  141.0490   78.5310  223.7230 F   0  0  0  0  0  0  0  0  0  0  0  0
  139.6810   79.8280  222.5600 F   0  0  0  0  0  0  0  0  0  0  0  0
  141.4570   76.8410  221.4570 C   0  0  0  0  0  0  0  0  0  0  0  0
  139.9370   71.2040  223.6110 C   0  0  0  0  0  0  0  0  0  0  0  0
  139.5160   69.8960  223.7160 C   0  0  0  0  0  0  0  0  0  0  0  0
  139.6070   69.2440  224.9220 C   0  0  0  0  0  0  0  0  0  0  0  0
  140.1270   69.9300  226.0110 C   0  0  0  0  0  0  0  0  0  0  0  0
  140.2350   69.3140  227.2310 C   0  0  0  0  0  0  0  0  0  0  0  0
  140.7480   69.9680  228.3330 C   0  0  0  0  0  0  0  0  0  0  0  0
  141.1630   71.2820  228.1960 C   0  0  0  0  0  0  0  0  0  0  0  0
  141.0550   71.9140  226.9550 C   0  0  0  0  0  0  0  0  0  0  0  0
  140.5420   71.2460  225.8700 C   0  0  0  0  0  0  0  0  0  0  0  0
  140.4410   71.8590  224.6760 N   0  0  0  0  0  0  0  0  0  0  0  0
  139.4980   73.7350  223.1370 H   0  0  0  0  0  0  0  0  0  0  0  0
  138.8022   73.1315  220.3516 H   0  0  0  0  0  0  0  0  0  0  0  0
  139.1289   74.8350  221.0851 H   0  0  0  0  0  0  0  0  0  0  0  0
  142.4988   72.5761  221.9202 H   0  0  0  0  0  0  0  0  0  0  0  0
  142.4966   71.8823  220.2837 H   0  0  0  0  0  0  0  0  0  0  0  0
  144.5212   73.8141  221.5415 H   0  0  0  0  0  0  0  0  0  0  0  0
  144.8051   72.1666  220.8165 H   0  0  0  0  0  0  0  0  0  0  0  0
  145.6369   74.0734  219.4708 H   0  0  0  0  0  0  0  0  0  0  0  0
  144.4390   72.9605  218.6581 H   0  0  0  0  0  0  0  0  0  0  0  0
  144.3130   75.8134  218.8556 H   0  0  0  0  0  0  0  0  0  0  0  0
  143.1021   74.7262  218.1627 H   0  0  0  0  0  0  0  0  0  0  0  0
  143.4719   75.3292  221.1375 H   0  0  0  0  0  0  0  0  0  0  0  0
  142.4845   76.9358  218.2698 H   0  0  0  0  0  0  0  0  0  0  0  0
  141.2877   79.0625  218.3229 H   0  0  0  0  0  0  0  0  0  0  0  0
  140.1671   79.8193  220.3983 H   0  0  0  0  0  0  0  0  0  0  0  0
  141.4920   76.2221  222.3657 H   0  0  0  0  0  0  0  0  0  0  0  0
  139.1083   69.3755  222.8369 H   0  0  0  0  0  0  0  0  0  0  0  0
  139.2747   68.2002  225.0225 H   0  0  0  0  0  0  0  0  0  0  0  0
  139.9038   68.2702  227.3345 H   0  0  0  0  0  0  0  0  0  0  0  0
  140.8258   69.4546  229.3027 H   0  0  0  0  0  0  0  0  0  0  0  0
  141.5753   71.8249  229.0593 H   0  0  0  0  0  0  0  0  0  0  0  0
  141.3843   72.9578  226.8455 H   0  0  0  0  0  0  0  0  0  0  0  0
  1  2  2  0
  2  3  1  0
  3  4  1  0
  4  5  1  0
  5  6  2  0
  5  7  1  0
  7  8  1  0
  8  9  1  0
  9 10  1  0
 10 11  1  0
 11 12  1  0
 12 13  1  0
 13 14  2  0
 14 15  1  0
 15 16  2  0
 16 17  1  0
 17 18  1  0
 18 19  1  0
 18 20  1  0
 18 21  1  0
 17 22  2  0
  2 23  1  0
 23 24  2  0
 24 25  1  0
 25 26  2  0
 26 27  1  0
 27 28  2  0
 28 29  1  0
 29 30  2  0
 30 31  1  0
 31 32  2  0
 12  7  1  0
 22 13  1  0
 32 23  1  0
 31 26  1  0
  3 33  1  0
  4 34  1  0
  4 35  1  0
  8 36  1  0
  8 37  1  0
  9 38  1  0
  9 39  1  0
 10 40  1  0
 10 41  1  0
 11 42  1  0
 11 43  1  0
 12 44  1  1
 14 45  1  0
 15 46  1  0
 16 47  1  0
 22 48  1  0
 24 49  1  0
 25 50  1  0
 27 51  1  0
 28 52  1  0
 29 53  1  0
 30 54  1  0
M  END
>  <smiles>  (61) 
O=C(NCC(=O)N1CCCCC1c1cccc(C(F)(F)F)c1)c1ccc2ccccc2n1

>  <score_type>  (61) 
oracle

>  <origin>  (61) 
autodockgpu

>  <m_score__min__energy>  (61) 
-8.9399999999999995

>  <m_primary>  (61) 
energy

>  <rmsd>  (61) 
2.7577454926774285

>  <m_score__min__rmsd>  (61) 
2.7577454926774285

>  <meeko>  (61) 
{"free_energy": -7.87, "intermolecular_energy": -9.66, "internal_energy": -1.96, "cluster_size": 19, "cluster_id": 1, "rank_in_cluster": 17}

>  <energy>  (61) 
-8.6

>  <cluster_rmsd>  (61) 
0.25

>  <cluster>  (61) 
1

$$$$

     RDKit          3D

 54 57  0  0  0  0  0  0  0  0999 V2000
  141.2140   72.0850  221.6640 O   0  0  0  0  0  0  0  0  0  0  0  0
  140.3240   72.2500  222.5410 C   0  0  0  0  0  0  0  0  0  0  0  0
  139.3600   73.3190  222.3110 N   0  0  0  0  0  0  0  0  0  0  0  0
  139.5400   74.0610  221.1100 C   0  0  0  0  0  0  0  0  0  0  0  0
  140.2680   75.3150  221.1220 C   0  0  0  0  0  0  0  0  0  0  0  0
  140.7890   75.5990  222.2890 O   0  0  0  0  0  0  0  0  0  0  0  0
  140.5150   76.2680  220.1270 N   0  0  0  0  0  0  0  0  0  0  0  0
  139.6190   77.3230  219.7060 C   0  0  0  0  0  0  0  0  0  0  0  0
  140.4450   78.2910  218.8410 C   0  0  0  0  0  0  0  0  0  0  0  0
  141.7640   78.6260  219.4440 C   0  0  0  0  0  0  0  0  0  0  0  0
  142.5750   77.3890  219.8630 C   0  0  0  0  0  0  0  0  0  0  0  0
  141.7920   76.2140  219.3830 C   0  0  1  0  0  0  0  0  0  0  0  0
  142.4530   74.9230  219.3870 C   0  0  0  0  0  0  0  0  0  0  0  0
  141.8700   73.8020  218.8080 C   0  0  0  0  0  0  0  0  0  0  0  0
  142.4530   72.5610  218.8210 C   0  0  0  0  0  0  0  0  0  0  0  0
  143.6610   72.3740  219.4190 C   0  0  0  0  0  0  0  0  0  0  0  0
  144.2650   73.4720  220.0050 C   0  0  0  0  0  0  0  0  0  0  0  0
  145.5850   73.2500  220.6550 C   0  0  0  0  0  0  0  0  0  0  0  0
  146.4260   72.4650  219.8870 F   0  0  0  0  0  0  0  0  0  0  0  0
  146.1720   74.4900  220.8240 F   0  0  0  0  0  0  0  0  0  0  0  0
  145.4170   72.7210  221.9220 F   0  0  0  0  0  0  0  0  0  0  0  0
  143.6800   74.7210  219.9910 C   0  0  0  0  0  0  0  0  0  0  0  0
  140.2210   71.4380  223.7410 C   0  0  0  0  0  0  0  0  0  0  0  0
  139.6180   70.2040  223.6160 C   0  0  0  0  0  0  0  0  0  0  0  0
  139.4920   69.3920  224.7160 C   0  0  0  0  0  0  0  0  0  0  0  0
  139.9820   69.8400  225.9350 C   0  0  0  0  0  0  0  0  0  0  0  0
  139.8750   69.0580  227.0550 C   0  0  0  0  0  0  0  0  0  0  0  0
  140.3520   69.4760  228.2820 C   0  0  0  0  0  0  0  0  0  0  0  0
  140.9530   70.7200  228.3760 C   0  0  0  0  0  0  0  0  0  0  0  0
  141.0630   71.5200  227.2370 C   0  0  0  0  0  0  0  0  0  0  0  0
  140.5830   71.0870  226.0260 C   0  0  0  0  0  0  0  0  0  0  0  0
  140.6930   71.8620  224.9300 N   0  0  0  0  0  0  0  0  0  0  0  0
  138.6490   73.4030  223.0430 H   0  0  0  0  0  0  0  0  0  0  0  0
  140.0648   73.3986  220.4059 H   0  0  0  0  0  0  0  0  0  0  0  0
  138.5160   74.3718  220.8553 H   0  0  0  0  0  0  0  0  0  0  0  0
  138.7900   76.9030  219.1175 H   0  0  0  0  0  0  0  0  0  0  0  0
  139.1857   77.8418  220.5738 H   0  0  0  0  0  0  0  0  0  0  0  0
  140.6162   77.8254  217.8592 H   0  0  0  0  0  0  0  0  0  0  0  0
  139.8737   79.2272  218.7564 H   0  0  0  0  0  0  0  0  0  0  0  0
  142.3503   79.1942  218.7068 H   0  0  0  0  0  0  0  0  0  0  0  0
  141.5659   79.2088  220.3556 H   0  0  0  0  0  0  0  0  0  0  0  0
  143.5697   77.4051  219.3937 H   0  0  0  0  0  0  0  0  0  0  0  0
  142.7330   77.3556  220.9511 H   0  0  0  0  0  0  0  0  0  0  0  0
  141.6381   76.3002  218.2972 H   0  0  0  0  0  0  0  0  0  0  0  0
  140.8932   73.9159  218.3153 H   0  0  0  0  0  0  0  0  0  0  0  0
  141.9412   71.7115  218.3452 H   0  0  0  0  0  0  0  0  0  0  0  0
  144.1405   71.3842  219.4359 H   0  0  0  0  0  0  0  0  0  0  0  0
  144.1966   75.5676  220.4668 H   0  0  0  0  0  0  0  0  0  0  0  0
  139.2392   69.8714  222.6383 H   0  0  0  0  0  0  0  0  0  0  0  0
  139.0121   68.4057  224.6329 H   0  0  0  0  0  0  0  0  0  0  0  0
  139.3964   68.0708  226.9748 H   0  0  0  0  0  0  0  0  0  0  0  0
  140.2562   68.8322  229.1687 H   0  0  0  0  0  0  0  0  0  0  0  0
  141.3412   71.0756  229.3418 H   0  0  0  0  0  0  0  0  0  0  0  0
  141.5398   72.5086  227.3109 H   0  0  0  0  0  0  0  0  0  0  0  0
  1  2  2  0
  2  3  1  0
  3  4  1  0
  4  5  1  0
  5  6  2  0
  5  7  1  0
  7  8  1  0
  8  9  1  0
  9 10  1  0
 10 11  1  0
 11 12  1  0
 12 13  1  0
 13 14  2  0
 14 15  1  0
 15 16  2  0
 16 17  1  0
 17 18  1  0
 18 19  1  0
 18 20  1  0
 18 21  1  0
 17 22  2  0
  2 23  1  0
 23 24  2  0
 24 25  1  0
 25 26  2  0
 26 27  1  0
 27 28  2  0
 28 29  1  0
 29 30  2  0
 30 31  1  0
 31 32  2  0
 12  7  1  0
 22 13  1  0
 32 23  1  0
 31 26  1  0
  3 33  1  0
  4 34  1  0
  4 35  1  0
  8 36  1  0
  8 37  1  0
  9 38  1  0
  9 39  1  0
 10 40  1  0
 10 41  1  0
 11 42  1  0
 11 43  1  0
 12 44  1  6
 14 45  1  0
 15 46  1  0
 16 47  1  0
 22 48  1  0
 24 49  1  0
 25 50  1  0
 27 51  1  0
 28 52  1  0
 29 53  1  0
 30 54  1  0
M  END
>  <smiles>  (62) 
O=C(NCC(=O)N1CCCCC1c1cccc(C(F)(F)F)c1)c1ccc2ccccc2n1

>  <score_type>  (62) 
oracle

>  <origin>  (62) 
autodockgpu

>  <m_score__min__energy>  (62) 
-8.9399999999999995

>  <m_primary>  (62) 
energy

>  <rmsd>  (62) 
1.9551311480886535

>  <m_score__min__rmsd>  (62) 
1.9551311480886535

>  <meeko>  (62) 
{"free_energy": -8.05, "intermolecular_energy": -9.84, "internal_energy": -1.88, "cluster_size": 16, "cluster_id": 2, "rank_in_cluster": 10}

>  <energy>  (62) 
-8.59

>  <cluster_rmsd>  (62) 
1.73

>  <cluster>  (62) 
1

$$$$

     RDKit          3D

 54 57  0  0  0  0  0  0  0  0999 V2000
  140.8460   71.5570  221.3530 O   0  0  0  0  0  0  0  0  0  0  0  0
  140.2780   72.0290  222.3740 C   0  0  0  0  0  0  0  0  0  0  0  0
  139.6580   73.3410  222.2390 N   0  0  0  0  0  0  0  0  0  0  0  0
  139.7690   73.9430  220.9550 C   0  0  0  0  0  0  0  0  0  0  0  0
  140.7790   74.9520  220.7000 C   0  0  0  0  0  0  0  0  0  0  0  0
  141.4610   75.2810  221.7670 O   0  0  0  0  0  0  0  0  0  0  0  0
  141.1570   75.6310  219.5350 N   0  0  0  0  0  0  0  0  0  0  0  0
  140.2860   76.3840  218.6590 C   0  0  0  0  0  0  0  0  0  0  0  0
  141.1930   77.2010  217.7230 C   0  0  0  0  0  0  0  0  0  0  0  0
  142.3030   77.8840  218.4430 C   0  0  0  0  0  0  0  0  0  0  0  0
  143.1090   76.9440  219.3540 C   0  0  0  0  0  0  0  0  0  0  0  0
  142.5680   75.5780  219.0990 C   0  0  1  0  0  0  0  0  0  0  0  0
  143.3290   74.4530  219.6090 C   0  0  0  0  0  0  0  0  0  0  0  0
  144.4210   74.6310  220.4510 C   0  0  0  0  0  0  0  0  0  0  0  0
  145.1810   73.5920  220.9250 C   0  0  0  0  0  0  0  0  0  0  0  0
  144.8860   72.3090  220.5790 C   0  0  0  0  0  0  0  0  0  0  0  0
  143.8040   72.1020  219.7420 C   0  0  0  0  0  0  0  0  0  0  0  0
  143.4960   70.6940  219.3740 C   0  0  0  0  0  0  0  0  0  0  0  0
  144.0300   70.3400  218.1480 F   0  0  0  0  0  0  0  0  0  0  0  0
  144.0520   69.8850  220.3470 F   0  0  0  0  0  0  0  0  0  0  0  0
  142.1310   70.4710  219.4140 F   0  0  0  0  0  0  0  0  0  0  0  0
  143.0390   73.1460  219.2650 C   0  0  0  0  0  0  0  0  0  0  0  0
  140.2170   71.3350  223.6490 C   0  0  0  0  0  0  0  0  0  0  0  0
  139.6610   70.0730  223.6530 C   0  0  0  0  0  0  0  0  0  0  0  0
  139.5760   69.3680  224.8280 C   0  0  0  0  0  0  0  0  0  0  0  0
  140.0580   69.9520  225.9910 C   0  0  0  0  0  0  0  0  0  0  0  0
  139.9920   69.2810  227.1840 C   0  0  0  0  0  0  0  0  0  0  0  0
  140.4620   69.8340  228.3580 C   0  0  0  0  0  0  0  0  0  0  0  0
  141.0150   71.1030  228.3230 C   0  0  0  0  0  0  0  0  0  0  0  0
  141.0850   71.7920  227.1100 C   0  0  0  0  0  0  0  0  0  0  0  0
  140.6120   71.2240  225.9530 C   0  0  0  0  0  0  0  0  0  0  0  0
  140.6820   71.8910  224.7850 N   0  0  0  0  0  0  0  0  0  0  0  0
  139.1970   73.6740  223.0910 H   0  0  0  0  0  0  0  0  0  0  0  0
  139.9503   73.1276  220.2393 H   0  0  0  0  0  0  0  0  0  0  0  0
  138.8284   74.5059  220.8635 H   0  0  0  0  0  0  0  0  0  0  0  0
  139.6555   75.6995  218.0725 H   0  0  0  0  0  0  0  0  0  0  0  0
  139.6202   77.0424  219.2362 H   0  0  0  0  0  0  0  0  0  0  0  0
  141.6260   76.5224  216.9733 H   0  0  0  0  0  0  0  0  0  0  0  0
  140.5714   77.9808  217.2587 H   0  0  0  0  0  0  0  0  0  0  0  0
  142.9862   78.3187  217.6985 H   0  0  0  0  0  0  0  0  0  0  0  0
  141.8487   78.6507  219.0878 H   0  0  0  0  0  0  0  0  0  0  0  0
  144.1785   76.9871  219.1003 H   0  0  0  0  0  0  0  0  0  0  0  0
  143.0183   77.2267  220.4132 H   0  0  0  0  0  0  0  0  0  0  0  0
  142.6564   75.3467  218.0272 H   0  0  0  0  0  0  0  0  0  0  0  0
  144.6885   75.6547  220.7517 H   0  0  0  0  0  0  0  0  0  0  0  0
  146.0339   73.7969  221.5887 H   0  0  0  0  0  0  0  0  0  0  0  0
  145.4868   71.4663  220.9518 H   0  0  0  0  0  0  0  0  0  0  0  0
  142.1868   72.9357  218.6020 H   0  0  0  0  0  0  0  0  0  0  0  0
  139.2866   69.6324  222.7172 H   0  0  0  0  0  0  0  0  0  0  0  0
  139.1348   68.3606  224.8472 H   0  0  0  0  0  0  0  0  0  0  0  0
  139.5520   68.2731  227.2066 H   0  0  0  0  0  0  0  0  0  0  0  0
  140.3984   69.2768  229.3043 H   0  0  0  0  0  0  0  0  0  0  0  0
  141.3969   71.5657  229.2450 H   0  0  0  0  0  0  0  0  0  0  0  0
  141.5237   72.8003  227.0814 H   0  0  0  0  0  0  0  0  0  0  0  0
  1  2  2  0
  2  3  1  0
  3  4  1  0
  4  5  1  0
  5  6  2  0
  5  7  1  0
  7  8  1  0
  8  9  1  0
  9 10  1  0
 10 11  1  0
 11 12  1  0
 12 13  1  0
 13 14  2  0
 14 15  1  0
 15 16  2  0
 16 17  1  0
 17 18  1  0
 18 19  1  0
 18 20  1  0
 18 21  1  0
 17 22  2  0
  2 23  1  0
 23 24  2  0
 24 25  1  0
 25 26  2  0
 26 27  1  0
 27 28  2  0
 28 29  1  0
 29 30  2  0
 30 31  1  0
 31 32  2  0
 12  7  1  0
 22 13  1  0
 32 23  1  0
 31 26  1  0
  3 33  1  0
  4 34  1  0
  4 35  1  0
  8 36  1  0
  8 37  1  0
  9 38  1  0
  9 39  1  0
 10 40  1  0
 10 41  1  0
 11 42  1  0
 11 43  1  0
 12 44  1  6
 14 45  1  0
 15 46  1  0
 16 47  1  0
 22 48  1  0
 24 49  1  0
 25 50  1  0
 27 51  1  0
 28 52  1  0
 29 53  1  0
 30 54  1  0
M  END
>  <smiles>  (63) 
O=C(NCC(=O)N1CCCCC1c1cccc(C(F)(F)F)c1)c1ccc2ccccc2n1

>  <score_type>  (63) 
oracle

>  <origin>  (63) 
autodockgpu

>  <m_score__min__energy>  (63) 
-8.9399999999999995

>  <m_primary>  (63) 
energy

>  <rmsd>  (63) 
1.8580421841011496

>  <m_score__min__rmsd>  (63) 
1.8580421841011496

>  <meeko>  (63) 
{"free_energy": -8.12, "intermolecular_energy": -9.91, "internal_energy": -1.98, "cluster_size": 16, "cluster_id": 2, "rank_in_cluster": 8}

>  <energy>  (63) 
-8.5

>  <cluster_rmsd>  (63) 
1.6

>  <cluster>  (63) 
1

$$$$

     RDKit          3D

 54 57  0  0  0  0  0  0  0  0999 V2000
  141.2520   72.5170  221.5230 O   0  0  0  0  0  0  0  0  0  0  0  0
  140.3690   72.7140  222.3990 C   0  0  0  0  0  0  0  0  0  0  0  0
  139.5940   73.9440  222.2930 N   0  0  0  0  0  0  0  0  0  0  0  0
  139.9310   74.7890  221.1990 C   0  0  0  0  0  0  0  0  0  0  0  0
  141.0310   75.7300  221.3080 C   0  0  0  0  0  0  0  0  0  0  0  0
  141.3610   75.9980  222.5460 O   0  0  0  0  0  0  0  0  0  0  0  0
  141.7970   76.3950  220.3430 N   0  0  0  0  0  0  0  0  0  0  0  0
  142.7020   75.7850  219.3940 C   0  0  0  0  0  0  0  0  0  0  0  0
  143.0470   76.8620  218.3510 C   0  0  0  0  0  0  0  0  0  0  0  0
  141.8520   77.6080  217.8710 C   0  0  0  0  0  0  0  0  0  0  0  0
  140.9820   78.1640  219.0100 C   0  0  0  0  0  0  0  0  0  0  0  0
  141.7290   77.8700  220.2660 C   0  0  1  0  0  0  0  0  0  0  0  0
  141.2850   78.5310  221.4790 C   0  0  0  0  0  0  0  0  0  0  0  0
  142.1800   78.9200  222.4680 C   0  0  0  0  0  0  0  0  0  0  0  0
  141.7910   79.5180  223.6400 C   0  0  0  0  0  0  0  0  0  0  0  0
  140.4740   79.7600  223.8850 C   0  0  0  0  0  0  0  0  0  0  0  0
  139.5600   79.3820  222.9180 C   0  0  0  0  0  0  0  0  0  0  0  0
  138.1250   79.6530  223.2030 C   0  0  0  0  0  0  0  0  0  0  0  0
  137.3510   78.5080  223.1470 F   0  0  0  0  0  0  0  0  0  0  0  0
  138.0520   80.1720  224.4820 F   0  0  0  0  0  0  0  0  0  0  0  0
  137.6400   80.6330  222.3560 F   0  0  0  0  0  0  0  0  0  0  0  0
  139.9510   78.7810  221.7400 C   0  0  0  0  0  0  0  0  0  0  0  0
  140.0960   71.7870  223.4850 C   0  0  0  0  0  0  0  0  0  0  0  0
  139.2090   70.7630  223.2300 C   0  0  0  0  0  0  0  0  0  0  0  0
  138.9120   69.8560  224.2170 C   0  0  0  0  0  0  0  0  0  0  0  0
  139.5210   69.9970  225.4560 C   0  0  0  0  0  0  0  0  0  0  0  0
  139.2510   69.1110  226.4660 C   0  0  0  0  0  0  0  0  0  0  0  0
  139.8410   69.2240  227.7100 C   0  0  0  0  0  0  0  0  0  0  0  0
  140.7280   70.2630  227.9360 C   0  0  0  0  0  0  0  0  0  0  0  0
  141.0060   71.1680  226.9090 C   0  0  0  0  0  0  0  0  0  0  0  0
  140.4100   71.0380  225.6790 C   0  0  0  0  0  0  0  0  0  0  0  0
  140.6820   71.9130  224.6920 N   0  0  0  0  0  0  0  0  0  0  0  0
  138.8800   74.0510  223.0190 H   0  0  0  0  0  0  0  0  0  0  0  0
  140.1636   74.1288  220.3505 H   0  0  0  0  0  0  0  0  0  0  0  0
  139.0518   75.4443  221.1119 H   0  0  0  0  0  0  0  0  0  0  0  0
  143.6154   75.4472  219.9055 H   0  0  0  0  0  0  0  0  0  0  0  0
  142.2403   74.9079  218.9169 H   0  0  0  0  0  0  0  0  0  0  0  0
  143.7486   77.5776  218.8045 H   0  0  0  0  0  0  0  0  0  0  0  0
  143.4876   76.3508  217.4823 H   0  0  0  0  0  0  0  0  0  0  0  0
  142.1925   78.4494  217.2496 H   0  0  0  0  0  0  0  0  0  0  0  0
  141.2313   76.8979  217.3049 H   0  0  0  0  0  0  0  0  0  0  0  0
  140.8419   79.2486  218.8916 H   0  0  0  0  0  0  0  0  0  0  0  0
  139.9806   77.7088  219.0163 H   0  0  0  0  0  0  0  0  0  0  0  0
  142.7295   78.3232  220.2063 H   0  0  0  0  0  0  0  0  0  0  0  0
  143.2526   78.7398  222.3034 H   0  0  0  0  0  0  0  0  0  0  0  0
  142.5475   79.8035  224.3858 H   0  0  0  0  0  0  0  0  0  0  0  0
  140.1479   80.2396  224.8197 H   0  0  0  0  0  0  0  0  0  0  0  0
  139.1906   78.4966  220.9978 H   0  0  0  0  0  0  0  0  0  0  0  0
  138.7406   70.6729  222.2388 H   0  0  0  0  0  0  0  0  0  0  0  0
  138.2055   69.0340  224.0294 H   0  0  0  0  0  0  0  0  0  0  0  0
  138.5454   68.2876  226.2812 H   0  0  0  0  0  0  0  0  0  0  0  0
  139.6103   68.5015  228.5068 H   0  0  0  0  0  0  0  0  0  0  0  0
  141.2106   70.3750  228.9181 H   0  0  0  0  0  0  0  0  0  0  0  0
  141.7102   71.9940  227.0876 H   0  0  0  0  0  0  0  0  0  0  0  0
  1  2  2  0
  2  3  1  0
  3  4  1  0
  4  5  1  0
  5  6  2  0
  5  7  1  0
  7  8  1  0
  8  9  1  0
  9 10  1  0
 10 11  1  0
 11 12  1  0
 12 13  1  0
 13 14  2  0
 14 15  1  0
 15 16  2  0
 16 17  1  0
 17 18  1  0
 18 19  1  0
 18 20  1  0
 18 21  1  0
 17 22  2  0
  2 23  1  0
 23 24  2  0
 24 25  1  0
 25 26  2  0
 26 27  1  0
 27 28  2  0
 28 29  1  0
 29 30  2  0
 30 31  1  0
 31 32  2  0
 12  7  1  0
 22 13  1  0
 32 23  1  0
 31 26  1  0
  3 33  1  0
  4 34  1  0
  4 35  1  0
  8 36  1  0
  8 37  1  0
  9 38  1  0
  9 39  1  0
 10 40  1  0
 10 41  1  0
 11 42  1  0
 11 43  1  0
 12 44  1  6
 14 45  1  0
 15 46  1  0
 16 47  1  0
 22 48  1  0
 24 49  1  0
 25 50  1  0
 27 51  1  0
 28 52  1  0
 29 53  1  0
 30 54  1  0
M  END
>  <smiles>  (64) 
O=C(NCC(=O)N1CCCCC1c1cccc(C(F)(F)F)c1)c1ccc2ccccc2n1

>  <score_type>  (64) 
oracle

>  <origin>  (64) 
autodockgpu

>  <m_score__min__energy>  (64) 
-8.9399999999999995

>  <m_primary>  (64) 
energy

>  <rmsd>  (64) 
2.1185188560021793

>  <m_score__min__rmsd>  (64) 
2.1185188560021793

>  <meeko>  (64) 
{"free_energy": -8.6, "intermolecular_energy": -10.39, "internal_energy": -1.47, "cluster_size": 19, "cluster_id": 1, "rank_in_cluster": 11}

>  <energy>  (64) 
-8.46

>  <cluster_rmsd>  (64) 
1.67

>  <cluster>  (64) 
1

$$$$

     RDKit          3D

 54 57  0  0  0  0  0  0  0  0999 V2000
  140.4500   71.4330  221.3190 O   0  0  0  0  0  0  0  0  0  0  0  0
  140.1420   71.9740  222.4140 C   0  0  0  0  0  0  0  0  0  0  0  0
  139.8030   73.3920  222.3800 N   0  0  0  0  0  0  0  0  0  0  0  0
  139.8610   74.0060  221.0970 C   0  0  0  0  0  0  0  0  0  0  0  0
  140.5860   75.2480  220.9090 C   0  0  0  0  0  0  0  0  0  0  0  0
  141.0620   75.7420  222.0230 O   0  0  0  0  0  0  0  0  0  0  0  0
  140.8680   76.0070  219.7670 N   0  0  0  0  0  0  0  0  0  0  0  0
  139.9990   76.9850  219.1490 C   0  0  0  0  0  0  0  0  0  0  0  0
  140.8580   77.7740  218.1450 C   0  0  0  0  0  0  0  0  0  0  0  0
  142.1710   78.1910  218.7080 C   0  0  0  0  0  0  0  0  0  0  0  0
  142.9520   77.0350  219.3540 C   0  0  0  0  0  0  0  0  0  0  0  0
  142.1570   75.8060  219.0720 C   0  0  1  0  0  0  0  0  0  0  0  0
  142.7950   74.5260  219.3150 C   0  0  0  0  0  0  0  0  0  0  0  0
  142.1600   73.3250  219.0220 C   0  0  0  0  0  0  0  0  0  0  0  0
  142.7210   72.0980  219.2680 C   0  0  0  0  0  0  0  0  0  0  0  0
  143.9580   72.0070  219.8270 C   0  0  0  0  0  0  0  0  0  0  0  0
  144.6150   73.1860  220.1310 C   0  0  0  0  0  0  0  0  0  0  0  0
  145.9660   73.0680  220.7420 C   0  0  0  0  0  0  0  0  0  0  0  0
  146.7710   74.1560  220.4550 F   0  0  0  0  0  0  0  0  0  0  0  0
  145.7920   72.9980  222.1120 F   0  0  0  0  0  0  0  0  0  0  0  0
  146.5670   71.8820  220.3630 F   0  0  0  0  0  0  0  0  0  0  0  0
  144.0510   74.4200  219.8830 C   0  0  0  0  0  0  0  0  0  0  0  0
  140.1110   71.2600  223.6790 C   0  0  0  0  0  0  0  0  0  0  0  0
  139.5780   69.9880  223.6710 C   0  0  0  0  0  0  0  0  0  0  0  0
  139.5220   69.2650  224.8360 C   0  0  0  0  0  0  0  0  0  0  0  0
  140.0090   69.8400  226.0020 C   0  0  0  0  0  0  0  0  0  0  0  0
  139.9710   69.1500  227.1850 C   0  0  0  0  0  0  0  0  0  0  0  0
  140.4470   69.6940  228.3610 C   0  0  0  0  0  0  0  0  0  0  0  0
  140.9760   70.9730  228.3380 C   0  0  0  0  0  0  0  0  0  0  0  0
  141.0160   71.6810  227.1340 C   0  0  0  0  0  0  0  0  0  0  0  0
  140.5380   71.1220  225.9750 C   0  0  0  0  0  0  0  0  0  0  0  0
  140.5810   71.8080  224.8170 N   0  0  0  0  0  0  0  0  0  0  0  0
  139.5450   73.7810  223.2910 H   0  0  0  0  0  0  0  0  0  0  0  0
  140.3132   73.2705  220.4154 H   0  0  0  0  0  0  0  0  0  0  0  0
  138.8164   74.2984  220.9145 H   0  0  0  0  0  0  0  0  0  0  0  0
  139.1731   76.4806  218.6260 H   0  0  0  0  0  0  0  0  0  0  0  0
  139.5598   77.6544  219.9033 H   0  0  0  0  0  0  0  0  0  0  0  0
  141.0391   77.1405  217.2642 H   0  0  0  0  0  0  0  0  0  0  0  0
  140.3050   78.6886  217.8849 H   0  0  0  0  0  0  0  0  0  0  0  0
  142.7808   78.6129  217.8955 H   0  0  0  0  0  0  0  0  0  0  0  0
  141.9665   78.9274  219.4991 H   0  0  0  0  0  0  0  0  0  0  0  0
  143.9549   76.9538  218.9095 H   0  0  0  0  0  0  0  0  0  0  0  0
  143.0901   77.1911  220.4341 H   0  0  0  0  0  0  0  0  0  0  0  0
  142.0241   75.7033  217.9849 H   0  0  0  0  0  0  0  0  0  0  0  0
  141.1576   73.3603  218.5703 H   0  0  0  0  0  0  0  0  0  0  0  0
  142.1678   71.1824  219.0120 H   0  0  0  0  0  0  0  0  0  0  0  0
  144.4199   71.0296  220.0303 H   0  0  0  0  0  0  0  0  0  0  0  0
  144.6083   75.3326  220.1408 H   0  0  0  0  0  0  0  0  0  0  0  0
  139.1990   69.5544  222.7338 H   0  0  0  0  0  0  0  0  0  0  0  0
  139.0994   68.2495  224.8458 H   0  0  0  0  0  0  0  0  0  0  0  0
  139.5494   68.1341  227.1981 H   0  0  0  0  0  0  0  0  0  0  0  0
  140.4067   69.1215  229.2994 H   0  0  0  0  0  0  0  0  0  0  0  0
  141.3623   71.4290  229.2615 H   0  0  0  0  0  0  0  0  0  0  0  0
  141.4353   72.6978  227.1147 H   0  0  0  0  0  0  0  0  0  0  0  0
  1  2  2  0
  2  3  1  0
  3  4  1  0
  4  5  1  0
  5  6  2  0
  5  7  1  0
  7  8  1  0
  8  9  1  0
  9 10  1  0
 10 11  1  0
 11 12  1  0
 12 13  1  0
 13 14  2  0
 14 15  1  0
 15 16  2  0
 16 17  1  0
 17 18  1  0
 18 19  1  0
 18 20  1  0
 18 21  1  0
 17 22  2  0
  2 23  1  0
 23 24  2  0
 24 25  1  0
 25 26  2  0
 26 27  1  0
 27 28  2  0
 28 29  1  0
 29 30  2  0
 30 31  1  0
 31 32  2  0
 12  7  1  0
 22 13  1  0
 32 23  1  0
 31 26  1  0
  3 33  1  0
  4 34  1  0
  4 35  1  0
  8 36  1  0
  8 37  1  0
  9 38  1  0
  9 39  1  0
 10 40  1  0
 10 41  1  0
 11 42  1  0
 11 43  1  0
 12 44  1  6
 14 45  1  0
 15 46  1  0
 16 47  1  0
 22 48  1  0
 24 49  1  0
 25 50  1  0
 27 51  1  0
 28 52  1  0
 29 53  1  0
 30 54  1  0
M  END
>  <smiles>  (65) 
O=C(NCC(=O)N1CCCCC1c1cccc(C(F)(F)F)c1)c1ccc2ccccc2n1

>  <score_type>  (65) 
oracle

>  <origin>  (65) 
autodockgpu

>  <m_score__min__energy>  (65) 
-8.9399999999999995

>  <m_primary>  (65) 
energy

>  <rmsd>  (65) 
1.8746510884933578

>  <m_score__min__rmsd>  (65) 
1.8746510884933578

>  <meeko>  (65) 
{"free_energy": -8.16, "intermolecular_energy": -9.95, "internal_energy": -1.92, "cluster_size": 16, "cluster_id": 2, "rank_in_cluster": 6}

>  <energy>  (65) 
-8.01

>  <cluster_rmsd>  (65) 
1.87

>  <cluster>  (65) 
1

$$$$

     RDKit          3D

 54 57  0  0  0  0  0  0  0  0999 V2000
  140.4700   71.0500  221.2710 O   0  0  0  0  0  0  0  0  0  0  0  0
  140.1810   71.6470  222.3430 C   0  0  0  0  0  0  0  0  0  0  0  0
  139.9430   73.0830  222.2570 N   0  0  0  0  0  0  0  0  0  0  0  0
  140.0670   73.6490  220.9570 C   0  0  0  0  0  0  0  0  0  0  0  0
  140.7860   74.8940  220.7620 C   0  0  0  0  0  0  0  0  0  0  0  0
  141.2190   75.4200  221.8800 O   0  0  0  0  0  0  0  0  0  0  0  0
  141.0990   75.6280  219.6120 N   0  0  0  0  0  0  0  0  0  0  0  0
  140.1650   76.3340  218.7630 C   0  0  0  0  0  0  0  0  0  0  0  0
  140.9980   77.2410  217.8410 C   0  0  0  0  0  0  0  0  0  0  0  0
  142.0610   77.9880  218.5690 C   0  0  0  0  0  0  0  0  0  0  0  0
  142.9440   77.0890  219.4480 C   0  0  0  0  0  0  0  0  0  0  0  0
  142.5060   75.6930  219.1640 C   0  0  1  0  0  0  0  0  0  0  0  0
  143.3540   74.6150  219.6380 C   0  0  0  0  0  0  0  0  0  0  0  0
  144.4600   74.8580  220.4450 C   0  0  0  0  0  0  0  0  0  0  0  0
  145.3000   73.8670  220.8850 C   0  0  0  0  0  0  0  0  0  0  0  0
  145.0780   72.5710  220.5370 C   0  0  0  0  0  0  0  0  0  0  0  0
  143.9850   72.3000  219.7340 C   0  0  0  0  0  0  0  0  0  0  0  0
  143.7560   70.8770  219.3630 C   0  0  0  0  0  0  0  0  0  0  0  0
  144.9030   70.1120  219.4750 F   0  0  0  0  0  0  0  0  0  0  0  0
  142.8050   70.3750  220.2310 F   0  0  0  0  0  0  0  0  0  0  0  0
  143.2120   70.7890  218.0940 F   0  0  0  0  0  0  0  0  0  0  0  0
  143.1380   73.2950  219.2920 C   0  0  0  0  0  0  0  0  0  0  0  0
  140.0780   70.9790  223.6290 C   0  0  0  0  0  0  0  0  0  0  0  0
  139.5490   69.7060  223.6360 C   0  0  0  0  0  0  0  0  0  0  0  0
  139.4260   69.0240  224.8210 C   0  0  0  0  0  0  0  0  0  0  0  0
  139.8440   69.6430  225.9920 C   0  0  0  0  0  0  0  0  0  0  0  0
  139.7390   68.9950  227.1950 C   0  0  0  0  0  0  0  0  0  0  0  0
  140.1460   69.5830  228.3760 C   0  0  0  0  0  0  0  0  0  0  0  0
  140.6730   70.8630  228.3370 C   0  0  0  0  0  0  0  0  0  0  0  0
  140.7820   71.5270  227.1130 C   0  0  0  0  0  0  0  0  0  0  0  0
  140.3730   70.9250  225.9490 C   0  0  0  0  0  0  0  0  0  0  0  0
  140.4810   71.5690  224.7720 N   0  0  0  0  0  0  0  0  0  0  0  0
  139.6980   73.5190  223.1510 H   0  0  0  0  0  0  0  0  0  0  0  0
  140.5668   72.8950  220.3312 H   0  0  0  0  0  0  0  0  0  0  0  0
  139.0310   73.9192  220.7047 H   0  0  0  0  0  0  0  0  0  0  0  0
  139.5825   75.6184  218.1642 H   0  0  0  0  0  0  0  0  0  0  0  0
  139.4569   76.9251  219.3623 H   0  0  0  0  0  0  0  0  0  0  0  0
  141.4731   76.6164  217.0702 H   0  0  0  0  0  0  0  0  0  0  0  0
  140.3144   77.9830  217.4027 H   0  0  0  0  0  0  0  0  0  0  0  0
  142.7019   78.4915  217.8303 H   0  0  0  0  0  0  0  0  0  0  0  0
  141.5573   78.7022  219.2370 H   0  0  0  0  0  0  0  0  0  0  0  0
  144.0045   77.2191  219.1863 H   0  0  0  0  0  0  0  0  0  0  0  0
  142.8422   77.3377  220.5147 H   0  0  0  0  0  0  0  0  0  0  0  0
  142.6028   75.4961  218.0861 H   0  0  0  0  0  0  0  0  0  0  0  0
  144.6715   75.8950  220.7450 H   0  0  0  0  0  0  0  0  0  0  0  0
  146.1587   74.1220  221.5234 H   0  0  0  0  0  0  0  0  0  0  0  0
  145.7443   71.7667  220.8821 H   0  0  0  0  0  0  0  0  0  0  0  0
  142.2794   73.0341  218.6558 H   0  0  0  0  0  0  0  0  0  0  0  0
  139.2262   69.2379  222.6944 H   0  0  0  0  0  0  0  0  0  0  0  0
  139.0050   68.0080  224.8427 H   0  0  0  0  0  0  0  0  0  0  0  0
  139.3190   67.9787  227.2204 H   0  0  0  0  0  0  0  0  0  0  0  0
  140.0533   69.0445  229.3307 H   0  0  0  0  0  0  0  0  0  0  0  0
  141.0037   71.3538  229.2642 H   0  0  0  0  0  0  0  0  0  0  0  0
  141.2003   72.5439  227.0814 H   0  0  0  0  0  0  0  0  0  0  0  0
  1  2  2  0
  2  3  1  0
  3  4  1  0
  4  5  1  0
  5  6  2  0
  5  7  1  0
  7  8  1  0
  8  9  1  0
  9 10  1  0
 10 11  1  0
 11 12  1  0
 12 13  1  0
 13 14  2  0
 14 15  1  0
 15 16  2  0
 16 17  1  0
 17 18  1  0
 18 19  1  0
 18 20  1  0
 18 21  1  0
 17 22  2  0
  2 23  1  0
 23 24  2  0
 24 25  1  0
 25 26  2  0
 26 27  1  0
 27 28  2  0
 28 29  1  0
 29 30  2  0
 30 31  1  0
 31 32  2  0
 12  7  1  0
 22 13  1  0
 32 23  1  0
 31 26  1  0
  3 33  1  0
  4 34  1  0
  4 35  1  0
  8 36  1  0
  8 37  1  0
  9 38  1  0
  9 39  1  0
 10 40  1  0
 10 41  1  0
 11 42  1  0
 11 43  1  0
 12 44  1  6
 14 45  1  0
 15 46  1  0
 16 47  1  0
 22 48  1  0
 24 49  1  0
 25 50  1  0
 27 51  1  0
 28 52  1  0
 29 53  1  0
 30 54  1  0
M  END
>  <smiles>  (66) 
O=C(NCC(=O)N1CCCCC1c1cccc(C(F)(F)F)c1)c1ccc2ccccc2n1

>  <score_type>  (66) 
oracle

>  <origin>  (66) 
autodockgpu

>  <m_score__min__energy>  (66) 
-8.9399999999999995

>  <m_primary>  (66) 
energy

>  <rmsd>  (66) 
1.7849694533403186

>  <m_score__min__rmsd>  (66) 
1.7849694533403186

>  <meeko>  (66) 
{"free_energy": -8.0, "intermolecular_energy": -9.79, "internal_energy": -2.01, "cluster_size": 16, "cluster_id": 2, "rank_in_cluster": 12}

>  <energy>  (66) 
-7.88

>  <cluster_rmsd>  (66) 
1.8

>  <cluster>  (66) 
1

$$$$

     RDKit          3D

 54 57  0  0  0  0  0  0  0  0999 V2000
  141.4090   72.2410  221.7040 O   0  0  0  0  0  0  0  0  0  0  0  0
  140.4850   72.4270  222.5400 C   0  0  0  0  0  0  0  0  0  0  0  0
  139.6180   73.5780  222.3240 N   0  0  0  0  0  0  0  0  0  0  0  0
  139.9210   74.3690  221.1800 C   0  0  0  0  0  0  0  0  0  0  0  0
  141.0250   75.3100  221.2080 C   0  0  0  0  0  0  0  0  0  0  0  0
  141.1140   75.9670  222.3370 O   0  0  0  0  0  0  0  0  0  0  0  0
  142.0020   75.6410  220.2620 N   0  0  0  0  0  0  0  0  0  0  0  0
  143.0420   74.7690  219.7610 C   0  0  0  0  0  0  0  0  0  0  0  0
  143.6460   75.4600  218.5250 C   0  0  0  0  0  0  0  0  0  0  0  0
  142.6120   76.0000  217.6000 C   0  0  0  0  0  0  0  0  0  0  0  0
  141.5660   76.8810  218.3030 C   0  0  0  0  0  0  0  0  0  0  0  0
  142.0330   77.0120  219.7120 C   0  0  1  0  0  0  0  0  0  0  0  0
  141.3950   78.0210  220.5370 C   0  0  0  0  0  0  0  0  0  0  0  0
  140.1000   78.4590  220.2850 C   0  0  0  0  0  0  0  0  0  0  0  0
  139.4790   79.4330  221.0240 C   0  0  0  0  0  0  0  0  0  0  0  0
  140.1260   80.0260  222.0640 C   0  0  0  0  0  0  0  0  0  0  0  0
  141.4170   79.6110  222.3380 C   0  0  0  0  0  0  0  0  0  0  0  0
  142.1100   80.2690  223.4780 C   0  0  0  0  0  0  0  0  0  0  0  0
  142.2000   79.4480  224.5870 F   0  0  0  0  0  0  0  0  0  0  0  0
  143.3900   80.5800  223.0550 F   0  0  0  0  0  0  0  0  0  0  0  0
  141.4990   81.4710  223.7870 F   0  0  0  0  0  0  0  0  0  0  0  0
  142.0420   78.6310  221.5950 C   0  0  0  0  0  0  0  0  0  0  0  0
  140.2530   71.5590  223.6830 C   0  0  0  0  0  0  0  0  0  0  0  0
  139.5630   70.3880  223.4540 C   0  0  0  0  0  0  0  0  0  0  0  0
  139.3130   69.5280  224.4950 C   0  0  0  0  0  0  0  0  0  0  0  0
  139.7700   69.8660  225.7620 C   0  0  0  0  0  0  0  0  0  0  0  0
  139.5410   69.0340  226.8270 C   0  0  0  0  0  0  0  0  0  0  0  0
  139.9820   69.3420  228.0990 C   0  0  0  0  0  0  0  0  0  0  0  0
  140.6730   70.5250  228.2970 C   0  0  0  0  0  0  0  0  0  0  0  0
  140.9080   71.3770  227.2150 C   0  0  0  0  0  0  0  0  0  0  0  0
  140.4620   71.0520  225.9570 C   0  0  0  0  0  0  0  0  0  0  0  0
  140.6910   71.8760  224.9170 N   0  0  0  0  0  0  0  0  0  0  0  0
  138.8740   73.6770  223.0210 H   0  0  0  0  0  0  0  0  0  0  0  0
  140.1248   73.6682  220.3570 H   0  0  0  0  0  0  0  0  0  0  0  0
  139.0406   75.0224  221.0902 H   0  0  0  0  0  0  0  0  0  0  0  0
  143.8159   74.6228  220.5289 H   0  0  0  0  0  0  0  0  0  0  0  0
  142.6362   73.7802  219.5010 H   0  0  0  0  0  0  0  0  0  0  0  0
  144.2825   76.2909  218.8634 H   0  0  0  0  0  0  0  0  0  0  0  0
  144.2209   74.7029  217.9716 H   0  0  0  0  0  0  0  0  0  0  0  0
  143.1142   76.6026  216.8288 H   0  0  0  0  0  0  0  0  0  0  0  0
  142.0774   75.1394  217.1715 H   0  0  0  0  0  0  0  0  0  0  0  0
  141.5117   77.8693  217.8232 H   0  0  0  0  0  0  0  0  0  0  0  0
  140.5596   76.4404  218.2474 H   0  0  0  0  0  0  0  0  0  0  0  0
  143.0493   77.4328  219.7183 H   0  0  0  0  0  0  0  0  0  0  0  0
  139.5462   78.0018  219.4518 H   0  0  0  0  0  0  0  0  0  0  0  0
  138.4516   79.7368  220.7746 H   0  0  0  0  0  0  0  0  0  0  0  0
  139.6396   80.8079  222.6657 H   0  0  0  0  0  0  0  0  0  0  0  0
  143.0696   78.3309  221.8481 H   0  0  0  0  0  0  0  0  0  0  0  0
  139.2136   70.1430  222.4402 H   0  0  0  0  0  0  0  0  0  0  0  0
  138.7620   68.5906  224.3286 H   0  0  0  0  0  0  0  0  0  0  0  0
  138.9910   68.0954  226.6641 H   0  0  0  0  0  0  0  0  0  0  0  0
  139.7877   68.6596  228.9396 H   0  0  0  0  0  0  0  0  0  0  0  0
  141.0350   70.7927  229.3006 H   0  0  0  0  0  0  0  0  0  0  0  0
  141.4559   72.3178  227.3721 H   0  0  0  0  0  0  0  0  0  0  0  0
  1  2  2  0
  2  3  1  0
  3  4  1  0
  4  5  1  0
  5  6  2  0
  5  7  1  0
  7  8  1  0
  8  9  1  0
  9 10  1  0
 10 11  1  0
 11 12  1  0
 12 13  1  0
 13 14  2  0
 14 15  1  0
 15 16  2  0
 16 17  1  0
 17 18  1  0
 18 19  1  0
 18 20  1  0
 18 21  1  0
 17 22  2  0
  2 23  1  0
 23 24  2  0
 24 25  1  0
 25 26  2  0
 26 27  1  0
 27 28  2  0
 28 29  1  0
 29 30  2  0
 30 31  1  0
 31 32  2  0
 12  7  1  0
 22 13  1  0
 32 23  1  0
 31 26  1  0
  3 33  1  0
  4 34  1  0
  4 35  1  0
  8 36  1  0
  8 37  1  0
  9 38  1  0
  9 39  1  0
 10 40  1  0
 10 41  1  0
 11 42  1  0
 11 43  1  0
 12 44  1  6
 14 45  1  0
 15 46  1  0
 16 47  1  0
 22 48  1  0
 24 49  1  0
 25 50  1  0
 27 51  1  0
 28 52  1  0
 29 53  1  0
 30 54  1  0
M  END
>  <smiles>  (67) 
O=C(NCC(=O)N1CCCCC1c1cccc(C(F)(F)F)c1)c1ccc2ccccc2n1

>  <score_type>  (67) 
oracle

>  <origin>  (67) 
autodockgpu

>  <m_score__min__energy>  (67) 
-8.9399999999999995

>  <m_primary>  (67) 
energy

>  <rmsd>  (67) 
2.0739514746583305

>  <m_score__min__rmsd>  (67) 
2.0739514746583305

>  <meeko>  (67) 
{"free_energy": -8.59, "intermolecular_energy": -10.38, "internal_energy": -1.47, "cluster_size": 19, "cluster_id": 1, "rank_in_cluster": 12}

>  <energy>  (67) 
-7.87

>  <cluster_rmsd>  (67) 
1.83

>  <cluster>  (67) 
1

$$$$

     RDKit          3D

 54 57  0  0  0  0  0  0  0  0999 V2000
  139.9630   71.2060  221.2120 O   0  0  0  0  0  0  0  0  0  0  0  0
  139.6560   71.8010  222.2790 C   0  0  0  0  0  0  0  0  0  0  0  0
  139.1190   73.1510  222.1540 N   0  0  0  0  0  0  0  0  0  0  0  0
  139.0060   73.6450  220.8240 C   0  0  0  0  0  0  0  0  0  0  0  0
  140.1780   74.1160  220.1120 C   0  0  0  0  0  0  0  0  0  0  0  0
  139.8900   74.7280  218.9910 O   0  0  0  0  0  0  0  0  0  0  0  0
  141.5460   74.0390  220.3990 N   0  0  0  0  0  0  0  0  0  0  0  0
  142.3470   72.8350  220.4470 C   0  0  0  0  0  0  0  0  0  0  0  0
  143.8200   73.2800  220.4720 C   0  0  0  0  0  0  0  0  0  0  0  0
  144.1220   74.3410  219.4720 C   0  0  0  0  0  0  0  0  0  0  0  0
  143.1550   75.5340  219.5380 C   0  0  0  0  0  0  0  0  0  0  0  0
  142.2830   75.2790  220.7200 C   0  0  1  0  0  0  0  0  0  0  0  0
  141.4630   76.3780  221.1940 C   0  0  0  0  0  0  0  0  0  0  0  0
  140.5170   76.2030  222.1980 C   0  0  0  0  0  0  0  0  0  0  0  0
  139.7040   77.2120  222.6480 C   0  0  0  0  0  0  0  0  0  0  0  0
  139.7950   78.4600  222.1130 C   0  0  0  0  0  0  0  0  0  0  0  0
  140.7280   78.6630  221.1120 C   0  0  0  0  0  0  0  0  0  0  0  0
  140.8140   80.0330  220.5380 C   0  0  0  0  0  0  0  0  0  0  0  0
  141.8230   80.7840  221.1140 F   0  0  0  0  0  0  0  0  0  0  0  0
  141.0820   79.8960  219.1890 F   0  0  0  0  0  0  0  0  0  0  0  0
  139.5920   80.6740  220.6300 F   0  0  0  0  0  0  0  0  0  0  0  0
  141.5460   77.6500  220.6590 C   0  0  0  0  0  0  0  0  0  0  0  0
  139.8100   71.2100  223.5980 C   0  0  0  0  0  0  0  0  0  0  0  0
  139.3570   69.9190  223.7660 C   0  0  0  0  0  0  0  0  0  0  0  0
  139.4750   69.3070  224.9900 C   0  0  0  0  0  0  0  0  0  0  0  0
  140.0540   70.0150  226.0340 C   0  0  0  0  0  0  0  0  0  0  0  0
  140.1900   69.4400  227.2710 C   0  0  0  0  0  0  0  0  0  0  0  0
  140.7610   70.1170  228.3300 C   0  0  0  0  0  0  0  0  0  0  0  0
  141.2070   71.4130  228.1300 C   0  0  0  0  0  0  0  0  0  0  0  0
  141.0700   72.0030  226.8720 C   0  0  0  0  0  0  0  0  0  0  0  0
  140.4990   71.3130  225.8310 C   0  0  0  0  0  0  0  0  0  0  0  0
  140.3700   71.8870  224.6200 N   0  0  0  0  0  0  0  0  0  0  0  0
  138.8720   73.5850  223.0480 H   0  0  0  0  0  0  0  0  0  0  0  0
  138.5767   72.8313  220.2210 H   0  0  0  0  0  0  0  0  0  0  0  0
  138.4086   74.5600  220.9498 H   0  0  0  0  0  0  0  0  0  0  0  0
  142.1103   72.2589  221.3537 H   0  0  0  0  0  0  0  0  0  0  0  0
  142.1443   72.1918  219.5780 H   0  0  0  0  0  0  0  0  0  0  0  0
  144.0528   73.6667  221.4751 H   0  0  0  0  0  0  0  0  0  0  0  0
  144.4340   72.4032  220.2185 H   0  0  0  0  0  0  0  0  0  0  0  0
  145.1429   74.7091  219.6515 H   0  0  0  0  0  0  0  0  0  0  0  0
  144.0128   73.8888  218.4752 H   0  0  0  0  0  0  0  0  0  0  0  0
  143.7125   76.4733  219.6678 H   0  0  0  0  0  0  0  0  0  0  0  0
  142.5678   75.6334  218.6132 H   0  0  0  0  0  0  0  0  0  0  0  0
  142.9108   75.1618  221.6156 H   0  0  0  0  0  0  0  0  0  0  0  0
  140.4157   75.2069  222.6536 H   0  0  0  0  0  0  0  0  0  0  0  0
  138.9741   77.0112  223.4461 H   0  0  0  0  0  0  0  0  0  0  0  0
  139.1494   79.2785  222.4642 H   0  0  0  0  0  0  0  0  0  0  0  0
  142.2745   77.8566  219.8611 H   0  0  0  0  0  0  0  0  0  0  0  0
  138.9021   69.3802  222.9218 H   0  0  0  0  0  0  0  0  0  0  0  0
  139.1181   68.2773  225.1397 H   0  0  0  0  0  0  0  0  0  0  0  0
  139.8342   68.4104  227.4240 H   0  0  0  0  0  0  0  0  0  0  0  0
  140.8599   69.6361  229.3144 H   0  0  0  0  0  0  0  0  0  0  0  0
  141.6663   71.9740  228.9572 H   0  0  0  0  0  0  0  0  0  0  0  0
  141.4236   73.0324  226.7129 H   0  0  0  0  0  0  0  0  0  0  0  0
  1  2  2  0
  2  3  1  0
  3  4  1  0
  4  5  1  0
  5  6  2  0
  5  7  1  0
  7  8  1  0
  8  9  1  0
  9 10  1  0
 10 11  1  0
 11 12  1  0
 12 13  1  0
 13 14  2  0
 14 15  1  0
 15 16  2  0
 16 17  1  0
 17 18  1  0
 18 19  1  0
 18 20  1  0
 18 21  1  0
 17 22  2  0
  2 23  1  0
 23 24  2  0
 24 25  1  0
 25 26  2  0
 26 27  1  0
 27 28  2  0
 28 29  1  0
 29 30  2  0
 30 31  1  0
 31 32  2  0
 12  7  1  0
 22 13  1  0
 32 23  1  0
 31 26  1  0
  3 33  1  0
  4 34  1  0
  4 35  1  0
  8 36  1  0
  8 37  1  0
  9 38  1  0
  9 39  1  0
 10 40  1  0
 10 41  1  0
 11 42  1  0
 11 43  1  0
 12 44  1  1
 14 45  1  0
 15 46  1  0
 16 47  1  0
 22 48  1  0
 24 49  1  0
 25 50  1  0
 27 51  1  0
 28 52  1  0
 29 53  1  0
 30 54  1  0
M  END
>  <smiles>  (68) 
O=C(NCC(=O)N1CCCCC1c1cccc(C(F)(F)F)c1)c1ccc2ccccc2n1

>  <score_type>  (68) 
oracle

>  <origin>  (68) 
autodockgpu

>  <m_score__min__energy>  (68) 
-8.9399999999999995

>  <m_primary>  (68) 
energy

>  <rmsd>  (68) 
2.46984303186623

>  <m_score__min__rmsd>  (68) 
2.46984303186623

>  <meeko>  (68) 
{"free_energy": -7.83, "intermolecular_energy": -9.62, "internal_energy": -1.81, "cluster_size": 19, "cluster_id": 1, "rank_in_cluster": 19}

>  <energy>  (68) 
-7.86

>  <cluster_rmsd>  (68) 
1.73

>  <cluster>  (68) 
1

$$$$

     RDKit          3D

 54 57  0  0  0  0  0  0  0  0999 V2000
  139.9740   70.9620  221.3050 O   0  0  0  0  0  0  0  0  0  0  0  0
  139.9630   71.5420  222.4240 C   0  0  0  0  0  0  0  0  0  0  0  0
  139.9550   72.9990  222.4150 N   0  0  0  0  0  0  0  0  0  0  0  0
  139.9630   73.6050  221.1260 C   0  0  0  0  0  0  0  0  0  0  0  0
  140.7030   74.8310  220.8940 C   0  0  0  0  0  0  0  0  0  0  0  0
  141.1520   75.3790  221.9940 O   0  0  0  0  0  0  0  0  0  0  0  0
  141.0220   75.5280  219.7230 N   0  0  0  0  0  0  0  0  0  0  0  0
  140.1040   76.2750  218.8910 C   0  0  0  0  0  0  0  0  0  0  0  0
  140.9600   77.1180  217.9290 C   0  0  0  0  0  0  0  0  0  0  0  0
  142.0870   77.8110  218.6110 C   0  0  0  0  0  0  0  0  0  0  0  0
  142.9430   76.8750  219.4780 C   0  0  0  0  0  0  0  0  0  0  0  0
  142.4150   75.5030  219.2310 C   0  0  1  0  0  0  0  0  0  0  0  0
  143.2140   74.3850  219.6970 C   0  0  0  0  0  0  0  0  0  0  0  0
  144.3710   74.5750  220.4440 C   0  0  0  0  0  0  0  0  0  0  0  0
  145.1660   73.5430  220.8730 C   0  0  0  0  0  0  0  0  0  0  0  0
  144.8420   72.2550  220.5750 C   0  0  0  0  0  0  0  0  0  0  0  0
  143.6970   72.0360  219.8330 C   0  0  0  0  0  0  0  0  0  0  0  0
  143.3580   70.6220  219.5150 C   0  0  0  0  0  0  0  0  0  0  0  0
  143.3390   70.3780  218.1540 F   0  0  0  0  0  0  0  0  0  0  0  0
  144.3320   69.8290  220.0920 F   0  0  0  0  0  0  0  0  0  0  0  0
  142.1610   70.2660  220.1100 F   0  0  0  0  0  0  0  0  0  0  0  0
  142.8960   73.0730  219.4010 C   0  0  0  0  0  0  0  0  0  0  0  0
  139.9560   70.8330  223.6920 C   0  0  0  0  0  0  0  0  0  0  0  0
  139.4470   69.5520  223.6950 C   0  0  0  0  0  0  0  0  0  0  0  0
  139.4140   68.8320  224.8640 C   0  0  0  0  0  0  0  0  0  0  0  0
  139.9010   69.4220  226.0220 C   0  0  0  0  0  0  0  0  0  0  0  0
  139.8860   68.7360  227.2090 C   0  0  0  0  0  0  0  0  0  0  0  0
  140.3630   69.2950  228.3780 C   0  0  0  0  0  0  0  0  0  0  0  0
  140.8690   70.5840  228.3440 C   0  0  0  0  0  0  0  0  0  0  0  0
  140.8850   71.2860  227.1370 C   0  0  0  0  0  0  0  0  0  0  0  0
  140.4070   70.7130  225.9850 C   0  0  0  0  0  0  0  0  0  0  0  0
  140.4260   71.3950  224.8240 N   0  0  0  0  0  0  0  0  0  0  0  0
  139.9310   73.4220  223.3470 H   0  0  0  0  0  0  0  0  0  0  0  0
  140.3664   72.8564  220.4282 H   0  0  0  0  0  0  0  0  0  0  0  0
  138.9169   73.9182  220.9931 H   0  0  0  0  0  0  0  0  0  0  0  0
  139.4624   75.5860  218.3221 H   0  0  0  0  0  0  0  0  0  0  0  0
  139.4502   76.9153  219.5014 H   0  0  0  0  0  0  0  0  0  0  0  0
  141.3730   76.4551  217.1544 H   0  0  0  0  0  0  0  0  0  0  0  0
  140.3076   77.8929  217.5001 H   0  0  0  0  0  0  0  0  0  0  0  0
  142.7329   78.2641  217.8445 H   0  0  0  0  0  0  0  0  0  0  0  0
  141.6474   78.5638  219.2818 H   0  0  0  0  0  0  0  0  0  0  0  0
  144.0006   76.9382  219.1821 H   0  0  0  0  0  0  0  0  0  0  0  0
  142.8896   77.1454  220.5429 H   0  0  0  0  0  0  0  0  0  0  0  0
  142.4648   75.2839  218.1542 H   0  0  0  0  0  0  0  0  0  0  0  0
  144.6631   75.6032  220.7037 H   0  0  0  0  0  0  0  0  0  0  0  0
  146.0705   73.7574  221.4612 H   0  0  0  0  0  0  0  0  0  0  0  0
  145.4698   71.4175  220.9131 H   0  0  0  0  0  0  0  0  0  0  0  0
  141.9926   72.8527  218.8134 H   0  0  0  0  0  0  0  0  0  0  0  0
  139.0680   69.1074  222.7630 H   0  0  0  0  0  0  0  0  0  0  0  0
  139.0100   67.8090  224.8822 H   0  0  0  0  0  0  0  0  0  0  0  0
  139.4831   67.7127  227.2306 H   0  0  0  0  0  0  0  0  0  0  0  0
  140.3416   68.7268  229.3196 H   0  0  0  0  0  0  0  0  0  0  0  0
  141.2556   71.0515  229.2616 H   0  0  0  0  0  0  0  0  0  0  0  0
  141.2853   72.3102  227.1091 H   0  0  0  0  0  0  0  0  0  0  0  0
  1  2  2  0
  2  3  1  0
  3  4  1  0
  4  5  1  0
  5  6  2  0
  5  7  1  0
  7  8  1  0
  8  9  1  0
  9 10  1  0
 10 11  1  0
 11 12  1  0
 12 13  1  0
 13 14  2  0
 14 15  1  0
 15 16  2  0
 16 17  1  0
 17 18  1  0
 18 19  1  0
 18 20  1  0
 18 21  1  0
 17 22  2  0
  2 23  1  0
 23 24  2  0
 24 25  1  0
 25 26  2  0
 26 27  1  0
 27 28  2  0
 28 29  1  0
 29 30  2  0
 30 31  1  0
 31 32  2  0
 12  7  1  0
 22 13  1  0
 32 23  1  0
 31 26  1  0
  3 33  1  0
  4 34  1  0
  4 35  1  0
  8 36  1  0
  8 37  1  0
  9 38  1  0
  9 39  1  0
 10 40  1  0
 10 41  1  0
 11 42  1  0
 11 43  1  0
 12 44  1  6
 14 45  1  0
 15 46  1  0
 16 47  1  0
 22 48  1  0
 24 49  1  0
 25 50  1  0
 27 51  1  0
 28 52  1  0
 29 53  1  0
 30 54  1  0
M  END
>  <smiles>  (69) 
O=C(NCC(=O)N1CCCCC1c1cccc(C(F)(F)F)c1)c1ccc2ccccc2n1

>  <score_type>  (69) 
oracle

>  <origin>  (69) 
autodockgpu

>  <m_score__min__energy>  (69) 
-8.9399999999999995

>  <m_primary>  (69) 
energy

>  <rmsd>  (69) 
1.7362012661018773

>  <m_score__min__rmsd>  (69) 
1.7362012661018773

>  <meeko>  (69) 
{"free_energy": -7.92, "intermolecular_energy": -9.71, "internal_energy": -2.12, "cluster_size": 16, "cluster_id": 2, "rank_in_cluster": 13}

>  <energy>  (69) 
-7.83

>  <cluster_rmsd>  (69) 
1.94

>  <cluster>  (69) 
1

$$$$

     RDKit          3D

 54 57  0  0  0  0  0  0  0  0999 V2000
  139.5960   74.3170  221.9640 O   0  0  0  0  0  0  0  0  0  0  0  0
  140.7550   74.7070  221.6620 C   0  0  0  0  0  0  0  0  0  0  0  0
  141.0480   76.1220  221.8540 N   0  0  0  0  0  0  0  0  0  0  0  0
  139.9760   76.9070  222.3650 C   0  0  0  0  0  0  0  0  0  0  0  0
  139.8170   78.2900  221.9560 C   0  0  0  0  0  0  0  0  0  0  0  0
  138.9420   78.4470  220.9950 O   0  0  0  0  0  0  0  0  0  0  0  0
  140.4180   79.4750  222.3960 N   0  0  0  0  0  0  0  0  0  0  0  0
  139.9730   80.3090  223.4900 C   0  0  0  0  0  0  0  0  0  0  0  0
  141.1170   81.2930  223.7950 C   0  0  0  0  0  0  0  0  0  0  0  0
  142.4500   80.6320  223.8520 C   0  0  0  0  0  0  0  0  0  0  0  0
  142.7500   79.7590  222.6220 C   0  0  0  0  0  0  0  0  0  0  0  0
  141.6120   79.9800  221.6850 C   0  0  1  0  0  0  0  0  0  0  0  0
  141.7660   79.5050  220.3230 C   0  0  0  0  0  0  0  0  0  0  0  0
  141.4450   80.3020  219.2310 C   0  0  0  0  0  0  0  0  0  0  0  0
  141.5480   79.8730  217.9320 C   0  0  0  0  0  0  0  0  0  0  0  0
  141.9820   78.6130  217.6550 C   0  0  0  0  0  0  0  0  0  0  0  0
  142.3080   77.7970  218.7230 C   0  0  0  0  0  0  0  0  0  0  0  0
  142.7790   76.4230  218.4030 C   0  0  0  0  0  0  0  0  0  0  0  0
  141.7700   75.4820  218.5020 F   0  0  0  0  0  0  0  0  0  0  0  0
  143.2390   76.4400  217.0990 F   0  0  0  0  0  0  0  0  0  0  0  0
  143.8630   76.0860  219.1940 F   0  0  0  0  0  0  0  0  0  0  0  0
  142.2050   78.2270  220.0300 C   0  0  0  0  0  0  0  0  0  0  0  0
  141.7870   73.8260  221.1440 C   0  0  0  0  0  0  0  0  0  0  0  0
  141.4130   72.5380  220.8240 C   0  0  0  0  0  0  0  0  0  0  0  0
  142.3440   71.6590  220.3300 C   0  0  0  0  0  0  0  0  0  0  0  0
  143.6510   72.0960  220.1650 C   0  0  0  0  0  0  0  0  0  0  0  0
  144.6100   71.2490  219.6740 C   0  0  0  0  0  0  0  0  0  0  0  0
  145.9180   71.6540  219.4980 C   0  0  0  0  0  0  0  0  0  0  0  0
  146.2640   72.9530  219.8290 C   0  0  0  0  0  0  0  0  0  0  0  0
  145.2910   73.8200  220.3290 C   0  0  0  0  0  0  0  0  0  0  0  0
  143.9950   73.3990  220.4970 C   0  0  0  0  0  0  0  0  0  0  0  0
  143.0600   74.2390  220.9790 N   0  0  0  0  0  0  0  0  0  0  0  0
  142.0060   76.3870  221.6080 H   0  0  0  0  0  0  0  0  0  0  0  0
  139.0460   76.3879  222.0899 H   0  0  0  0  0  0  0  0  0  0  0  0
  140.2185   76.9912  223.4346 H   0  0  0  0  0  0  0  0  0  0  0  0
  139.0664   80.8607  223.2008 H   0  0  0  0  0  0  0  0  0  0  0  0
  139.7290   79.7020  224.3743 H   0  0  0  0  0  0  0  0  0  0  0  0
  141.1392   82.0605  223.0073 H   0  0  0  0  0  0  0  0  0  0  0  0
  140.9221   81.7290  224.7859 H   0  0  0  0  0  0  0  0  0  0  0  0
  143.2231   81.4112  223.9239 H   0  0  0  0  0  0  0  0  0  0  0  0
  142.4470   79.9683  224.7292 H   0  0  0  0  0  0  0  0  0  0  0  0
  143.6971   80.0667  222.1548 H   0  0  0  0  0  0  0  0  0  0  0  0
  142.8539   78.6978  222.8922 H   0  0  0  0  0  0  0  0  0  0  0  0
  141.5304   81.0538  221.4609 H   0  0  0  0  0  0  0  0  0  0  0  0
  141.0911   81.3267  219.4171 H   0  0  0  0  0  0  0  0  0  0  0  0
  141.2782   80.5515  217.1093 H   0  0  0  0  0  0  0  0  0  0  0  0
  142.0703   78.2563  216.6182 H   0  0  0  0  0  0  0  0  0  0  0  0
  142.4755   77.5445  220.8492 H   0  0  0  0  0  0  0  0  0  0  0  0
  140.3707   72.2157  220.9644 H   0  0  0  0  0  0  0  0  0  0  0  0
  142.0600   70.6286  220.0700 H   0  0  0  0  0  0  0  0  0  0  0  0
  144.3298   70.2178  219.4129 H   0  0  0  0  0  0  0  0  0  0  0  0
  146.6715   70.9573  219.1020 H   0  0  0  0  0  0  0  0  0  0  0  0
  147.2997   73.2999  219.6987 H   0  0  0  0  0  0  0  0  0  0  0  0
  145.5657   74.8523  220.5914 H   0  0  0  0  0  0  0  0  0  0  0  0
  1  2  2  0
  2  3  1  0
  3  4  1  0
  4  5  1  0
  5  6  2  0
  5  7  1  0
  7  8  1  0
  8  9  1  0
  9 10  1  0
 10 11  1  0
 11 12  1  0
 12 13  1  0
 13 14  2  0
 14 15  1  0
 15 16  2  0
 16 17  1  0
 17 18  1  0
 18 19  1  0
 18 20  1  0
 18 21  1  0
 17 22  2  0
  2 23  1  0
 23 24  2  0
 24 25  1  0
 25 26  2  0
 26 27  1  0
 27 28  2  0
 28 29  1  0
 29 30  2  0
 30 31  1  0
 31 32  2  0
 12  7  1  0
 22 13  1  0
 32 23  1  0
 31 26  1  0
  3 33  1  0
  4 34  1  0
  4 35  1  0
  8 36  1  0
  8 37  1  0
  9 38  1  0
  9 39  1  0
 10 40  1  0
 10 41  1  0
 11 42  1  0
 11 43  1  0
 12 44  1  6
 14 45  1  0
 15 46  1  0
 16 47  1  0
 22 48  1  0
 24 49  1  0
 25 50  1  0
 27 51  1  0
 28 52  1  0
 29 53  1  0
 30 54  1  0
M  END
>  <smiles>  (70) 
O=C(NCC(=O)N1CCCCC1c1cccc(C(F)(F)F)c1)c1ccc2ccccc2n1

>  <score_type>  (70) 
oracle

>  <origin>  (70) 
autodockgpu

>  <m_score__min__energy>  (70) 
-8.9399999999999995

>  <m_primary>  (70) 
energy

>  <rmsd>  (70) 
6.563109290829041

>  <m_score__min__rmsd>  (70) 
6.563109290829041

>  <meeko>  (70) 
{"free_energy": -7.35, "intermolecular_energy": -9.14, "internal_energy": -2.5, "cluster_size": 6, "cluster_id": 8, "rank_in_cluster": 3}

>  <energy>  (70) 
-8.32

>  <cluster_rmsd>  (70) 
0.0

>  <cluster>  (70) 
2

$$$$

     RDKit          3D

 54 57  0  0  0  0  0  0  0  0999 V2000
  140.0210   71.1590  221.1710 O   0  0  0  0  0  0  0  0  0  0  0  0
  139.8770   71.7970  222.2480 C   0  0  0  0  0  0  0  0  0  0  0  0
  139.6430   73.2310  222.1420 N   0  0  0  0  0  0  0  0  0  0  0  0
  139.6050   73.7510  220.8180 C   0  0  0  0  0  0  0  0  0  0  0  0
  140.7430   73.5930  219.9320 C   0  0  0  0  0  0  0  0  0  0  0  0
  140.4120   73.5570  218.6670 O   0  0  0  0  0  0  0  0  0  0  0  0
  142.1160   73.4750  220.1790 N   0  0  0  0  0  0  0  0  0  0  0  0
  142.8400   72.2490  220.4390 C   0  0  0  0  0  0  0  0  0  0  0  0
  144.3370   72.5820  220.3200 C   0  0  0  0  0  0  0  0  0  0  0  0
  144.6560   73.3990  219.1170 C   0  0  0  0  0  0  0  0  0  0  0  0
  143.7720   74.6490  218.9780 C   0  0  0  0  0  0  0  0  0  0  0  0
  142.9460   74.6970  220.2170 C   0  0  1  0  0  0  0  0  0  0  0  0
  142.2230   75.9250  220.4920 C   0  0  0  0  0  0  0  0  0  0  0  0
  141.4110   76.0590  221.6120 C   0  0  0  0  0  0  0  0  0  0  0  0
  140.6890   77.1930  221.8840 C   0  0  0  0  0  0  0  0  0  0  0  0
  140.7420   78.2620  221.0430 C   0  0  0  0  0  0  0  0  0  0  0  0
  141.5420   78.1560  219.9200 C   0  0  0  0  0  0  0  0  0  0  0  0
  141.5880   79.3330  219.0110 C   0  0  0  0  0  0  0  0  0  0  0  0
  141.8640   80.5090  219.6840 F   0  0  0  0  0  0  0  0  0  0  0  0
  142.5960   79.1030  218.0940 F   0  0  0  0  0  0  0  0  0  0  0  0
  140.4150   79.4300  218.2850 F   0  0  0  0  0  0  0  0  0  0  0  0
  142.2680   77.0160  219.6450 C   0  0  0  0  0  0  0  0  0  0  0  0
  139.9330   71.1750  223.5600 C   0  0  0  0  0  0  0  0  0  0  0  0
  139.4280   69.8960  223.6730 C   0  0  0  0  0  0  0  0  0  0  0  0
  139.4540   69.2570  224.8880 C   0  0  0  0  0  0  0  0  0  0  0  0
  139.9940   69.9230  225.9790 C   0  0  0  0  0  0  0  0  0  0  0  0
  140.0380   69.3180  227.2090 C   0  0  0  0  0  0  0  0  0  0  0  0
  140.5700   69.9530  228.3140 C   0  0  0  0  0  0  0  0  0  0  0  0
  141.0690   71.2360  228.1690 C   0  0  0  0  0  0  0  0  0  0  0  0
  141.0260   71.8570  226.9180 C   0  0  0  0  0  0  0  0  0  0  0  0
  140.4950   71.2080  225.8310 C   0  0  0  0  0  0  0  0  0  0  0  0
  140.4560   71.8100  224.6280 N   0  0  0  0  0  0  0  0  0  0  0  0
  139.5180   73.7010  223.0440 H   0  0  0  0  0  0  0  0  0  0  0  0
  138.7478   73.2768  220.3176 H   0  0  0  0  0  0  0  0  0  0  0  0
  139.5668   74.8383  220.9802 H   0  0  0  0  0  0  0  0  0  0  0  0
  142.6130   71.8827  221.4511 H   0  0  0  0  0  0  0  0  0  0  0  0
  142.5530   71.4627  219.7253 H   0  0  0  0  0  0  0  0  0  0  0  0
  144.6441   73.1418  221.2157 H   0  0  0  0  0  0  0  0  0  0  0  0
  144.8799   71.6300  220.2254 H   0  0  0  0  0  0  0  0  0  0  0  0
  145.7062   73.7197  219.1814 H   0  0  0  0  0  0  0  0  0  0  0  0
  144.4682   72.7679  218.2358 H   0  0  0  0  0  0  0  0  0  0  0  0
  144.3946   75.5522  218.8966 H   0  0  0  0  0  0  0  0  0  0  0  0
  143.1467   74.6062  218.0740 H   0  0  0  0  0  0  0  0  0  0  0  0
  143.6097   74.7141  221.0940 H   0  0  0  0  0  0  0  0  0  0  0  0
  141.3441   75.2149  222.3141 H   0  0  0  0  0  0  0  0  0  0  0  0
  140.0632   77.2389  222.7875 H   0  0  0  0  0  0  0  0  0  0  0  0
  140.1687   79.1778  221.2494 H   0  0  0  0  0  0  0  0  0  0  0  0
  142.8911   76.9747  218.7395 H   0  0  0  0  0  0  0  0  0  0  0  0
  139.0058   69.3898  222.7924 H   0  0  0  0  0  0  0  0  0  0  0  0
  139.0547   68.2376  224.9944 H   0  0  0  0  0  0  0  0  0  0  0  0
  139.6385   68.2989  227.3184 H   0  0  0  0  0  0  0  0  0  0  0  0
  140.5967   69.4486  229.2912 H   0  0  0  0  0  0  0  0  0  0  0  0
  141.4971   71.7638  229.0340 H   0  0  0  0  0  0  0  0  0  0  0  0
  141.4219   72.8768  226.8029 H   0  0  0  0  0  0  0  0  0  0  0  0
  1  2  2  0
  2  3  1  0
  3  4  1  0
  4  5  1  0
  5  6  2  0
  5  7  1  0
  7  8  1  0
  8  9  1  0
  9 10  1  0
 10 11  1  0
 11 12  1  0
 12 13  1  0
 13 14  2  0
 14 15  1  0
 15 16  2  0
 16 17  1  0
 17 18  1  0
 18 19  1  0
 18 20  1  0
 18 21  1  0
 17 22  2  0
  2 23  1  0
 23 24  2  0
 24 25  1  0
 25 26  2  0
 26 27  1  0
 27 28  2  0
 28 29  1  0
 29 30  2  0
 30 31  1  0
 31 32  2  0
 12  7  1  0
 22 13  1  0
 32 23  1  0
 31 26  1  0
  3 33  1  0
  4 34  1  0
  4 35  1  0
  8 36  1  0
  8 37  1  0
  9 38  1  0
  9 39  1  0
 10 40  1  0
 10 41  1  0
 11 42  1  0
 11 43  1  0
 12 44  1  1
 14 45  1  0
 15 46  1  0
 16 47  1  0
 22 48  1  0
 24 49  1  0
 25 50  1  0
 27 51  1  0
 28 52  1  0
 29 53  1  0
 30 54  1  0
M  END
>  <smiles>  (71) 
O=C(NCC(=O)N1CCCCC1c1cccc(C(F)(F)F)c1)c1ccc2ccccc2n1

>  <score_type>  (71) 
oracle

>  <origin>  (71) 
autodockgpu

>  <m_score__min__energy>  (71) 
-8.9399999999999995

>  <m_primary>  (71) 
energy

>  <rmsd>  (71) 
2.8628750974082338

>  <m_score__min__rmsd>  (71) 
2.8628750974082338

>  <meeko>  (71) 
{"free_energy": -7.78, "intermolecular_energy": -9.57, "internal_energy": -1.77, "cluster_size": 5, "cluster_id": 3, "rank_in_cluster": 5}

>  <energy>  (71) 
-8.31

>  <cluster_rmsd>  (71) 
1.65

>  <cluster>  (71) 
2

$$$$

     RDKit          3D

 54 57  0  0  0  0  0  0  0  0999 V2000
  141.4830   72.2980  221.8040 O   0  0  0  0  0  0  0  0  0  0  0  0
  140.5050   72.4170  222.5900 C   0  0  0  0  0  0  0  0  0  0  0  0
  139.5590   73.4900  222.3120 N   0  0  0  0  0  0  0  0  0  0  0  0
  139.8550   74.2890  221.1720 C   0  0  0  0  0  0  0  0  0  0  0  0
  140.9300   75.2620  221.2140 C   0  0  0  0  0  0  0  0  0  0  0  0
  141.0840   75.8100  222.3930 O   0  0  0  0  0  0  0  0  0  0  0  0
  141.8240   75.7180  220.2380 N   0  0  0  0  0  0  0  0  0  0  0  0
  142.8300   74.9300  219.5600 C   0  0  0  0  0  0  0  0  0  0  0  0
  143.3240   75.7680  218.3680 C   0  0  0  0  0  0  0  0  0  0  0  0
  142.2130   76.3890  217.5960 C   0  0  0  0  0  0  0  0  0  0  0  0
  141.2180   77.1640  218.4750 C   0  0  0  0  0  0  0  0  0  0  0  0
  141.7960   77.1430  219.8490 C   0  0  1  0  0  0  0  0  0  0  0  0
  141.2150   78.0390  220.8310 C   0  0  0  0  0  0  0  0  0  0  0  0
  139.8400   78.1960  220.9540 C   0  0  0  0  0  0  0  0  0  0  0  0
  139.2590   79.0570  221.8500 C   0  0  0  0  0  0  0  0  0  0  0  0
  140.0300   79.8130  222.6770 C   0  0  0  0  0  0  0  0  0  0  0  0
  141.4030   79.6790  222.5770 C   0  0  0  0  0  0  0  0  0  0  0  0
  142.2320   80.5130  223.4880 C   0  0  0  0  0  0  0  0  0  0  0  0
  141.5660   81.6480  223.9160 F   0  0  0  0  0  0  0  0  0  0  0  0
  142.5350   79.7380  224.5920 F   0  0  0  0  0  0  0  0  0  0  0  0
  143.4380   80.8310  222.8910 F   0  0  0  0  0  0  0  0  0  0  0  0
  141.9880   78.8130  221.6770 C   0  0  0  0  0  0  0  0  0  0  0  0
  140.2870   71.5480  223.7340 C   0  0  0  0  0  0  0  0  0  0  0  0
  139.6020   70.3720  223.5100 C   0  0  0  0  0  0  0  0  0  0  0  0
  139.3660   69.5110  224.5520 C   0  0  0  0  0  0  0  0  0  0  0  0
  139.8290   69.8510  225.8160 C   0  0  0  0  0  0  0  0  0  0  0  0
  139.6140   69.0170  226.8820 C   0  0  0  0  0  0  0  0  0  0  0  0
  140.0620   69.3270  228.1510 C   0  0  0  0  0  0  0  0  0  0  0  0
  140.7470   70.5150  228.3440 C   0  0  0  0  0  0  0  0  0  0  0  0
  140.9690   71.3680  227.2610 C   0  0  0  0  0  0  0  0  0  0  0  0
  140.5150   71.0410  226.0070 C   0  0  0  0  0  0  0  0  0  0  0  0
  140.7330   71.8670  224.9650 N   0  0  0  0  0  0  0  0  0  0  0  0
  138.7750   73.5360  222.9690 H   0  0  0  0  0  0  0  0  0  0  0  0
  140.0908   73.5940  220.3527 H   0  0  0  0  0  0  0  0  0  0  0  0
  138.9573   74.9164  221.0698 H   0  0  0  0  0  0  0  0  0  0  0  0
  143.6650   74.7139  220.2426 H   0  0  0  0  0  0  0  0  0  0  0  0
  142.4158   73.9688  219.2214 H   0  0  0  0  0  0  0  0  0  0  0  0
  143.9772   76.5675  218.7478 H   0  0  0  0  0  0  0  0  0  0  0  0
  143.8599   75.0899  217.6875 H   0  0  0  0  0  0  0  0  0  0  0  0
  142.6449   77.0847  216.8615 H   0  0  0  0  0  0  0  0  0  0  0  0
  141.6545   75.5719  217.1159 H   0  0  0  0  0  0  0  0  0  0  0  0
  141.1152   78.1992  218.1175 H   0  0  0  0  0  0  0  0  0  0  0  0
  140.2149   76.7135  218.4485 H   0  0  0  0  0  0  0  0  0  0  0  0
  142.8053   77.5797  219.8247 H   0  0  0  0  0  0  0  0  0  0  0  0
  139.1851   77.6006  220.3008 H   0  0  0  0  0  0  0  0  0  0  0  0
  138.1630   79.1365  221.9000 H   0  0  0  0  0  0  0  0  0  0  0  0
  139.5772   80.5070  223.4004 H   0  0  0  0  0  0  0  0  0  0  0  0
  143.0844   78.7369  221.6315 H   0  0  0  0  0  0  0  0  0  0  0  0
  139.2459   70.1251  222.4989 H   0  0  0  0  0  0  0  0  0  0  0  0
  138.8206   68.5697  224.3891 H   0  0  0  0  0  0  0  0  0  0  0  0
  139.0695   68.0746  226.7224 H   0  0  0  0  0  0  0  0  0  0  0  0
  139.8782   68.6431  228.9927 H   0  0  0  0  0  0  0  0  0  0  0  0
  141.1142   70.7852  229.3451 H   0  0  0  0  0  0  0  0  0  0  0  0
  141.5132   72.3116  227.4140 H   0  0  0  0  0  0  0  0  0  0  0  0
  1  2  2  0
  2  3  1  0
  3  4  1  0
  4  5  1  0
  5  6  2  0
  5  7  1  0
  7  8  1  0
  8  9  1  0
  9 10  1  0
 10 11  1  0
 11 12  1  0
 12 13  1  0
 13 14  2  0
 14 15  1  0
 15 16  2  0
 16 17  1  0
 17 18  1  0
 18 19  1  0
 18 20  1  0
 18 21  1  0
 17 22  2  0
  2 23  1  0
 23 24  2  0
 24 25  1  0
 25 26  2  0
 26 27  1  0
 27 28  2  0
 28 29  1  0
 29 30  2  0
 30 31  1  0
 31 32  2  0
 12  7  1  0
 22 13  1  0
 32 23  1  0
 31 26  1  0
  3 33  1  0
  4 34  1  0
  4 35  1  0
  8 36  1  0
  8 37  1  0
  9 38  1  0
  9 39  1  0
 10 40  1  0
 10 41  1  0
 11 42  1  0
 11 43  1  0
 12 44  1  6
 14 45  1  0
 15 46  1  0
 16 47  1  0
 22 48  1  0
 24 49  1  0
 25 50  1  0
 27 51  1  0
 28 52  1  0
 29 53  1  0
 30 54  1  0
M  END
>  <smiles>  (72) 
O=C(NCC(=O)N1CCCCC1c1cccc(C(F)(F)F)c1)c1ccc2ccccc2n1

>  <score_type>  (72) 
oracle

>  <origin>  (72) 
autodockgpu

>  <m_score__min__energy>  (72) 
-8.9399999999999995

>  <m_primary>  (72) 
energy

>  <rmsd>  (72) 
1.9678981706811824

>  <m_score__min__rmsd>  (72) 
1.9678981706811824

>  <meeko>  (72) 
{"free_energy": -8.67, "intermolecular_energy": -10.46, "internal_energy": -1.4, "cluster_size": 19, "cluster_id": 1, "rank_in_cluster": 7}

>  <energy>  (72) 
-8.27

>  <cluster_rmsd>  (72) 
0.1

>  <cluster>  (72) 
2

$$$$

     RDKit          3D

 54 57  0  0  0  0  0  0  0  0999 V2000
  140.2000   70.9580  221.3210 O   0  0  0  0  0  0  0  0  0  0  0  0
  140.0790   71.5470  222.4290 C   0  0  0  0  0  0  0  0  0  0  0  0
  140.0240   73.0030  222.4020 N   0  0  0  0  0  0  0  0  0  0  0  0
  140.1180   73.5970  221.1110 C   0  0  0  0  0  0  0  0  0  0  0  0
  140.7020   74.9150  220.9480 C   0  0  0  0  0  0  0  0  0  0  0  0
  140.9930   75.4950  222.0850 O   0  0  0  0  0  0  0  0  0  0  0  0
  141.0090   75.6720  219.8120 N   0  0  0  0  0  0  0  0  0  0  0  0
  140.0860   76.4720  219.0370 C   0  0  0  0  0  0  0  0  0  0  0  0
  140.9340   77.3580  218.1080 C   0  0  0  0  0  0  0  0  0  0  0  0
  142.0780   78.0040  218.8090 C   0  0  0  0  0  0  0  0  0  0  0  0
  142.9390   77.0140  219.6100 C   0  0  0  0  0  0  0  0  0  0  0  0
  142.3940   75.6620  219.2960 C   0  0  1  0  0  0  0  0  0  0  0  0
  143.1890   74.5130  219.6870 C   0  0  0  0  0  0  0  0  0  0  0  0
  144.3510   74.6510  220.4380 C   0  0  0  0  0  0  0  0  0  0  0  0
  145.1430   73.5900  220.7970 C   0  0  0  0  0  0  0  0  0  0  0  0
  144.8110   72.3250  220.4220 C   0  0  0  0  0  0  0  0  0  0  0  0
  143.6600   72.1580  219.6740 C   0  0  0  0  0  0  0  0  0  0  0  0
  143.3120   70.7680  219.2710 C   0  0  0  0  0  0  0  0  0  0  0  0
  143.8150   69.8240  220.1470 F   0  0  0  0  0  0  0  0  0  0  0  0
  141.9320   70.6760  219.2690 F   0  0  0  0  0  0  0  0  0  0  0  0
  143.7220   70.5230  217.9730 F   0  0  0  0  0  0  0  0  0  0  0  0
  142.8620   73.2240  219.3120 C   0  0  0  0  0  0  0  0  0  0  0  0
  139.9910   70.8500  223.7010 C   0  0  0  0  0  0  0  0  0  0  0  0
  139.3210   69.6450  223.7140 C   0  0  0  0  0  0  0  0  0  0  0  0
  139.2060   68.9400  224.8860 C   0  0  0  0  0  0  0  0  0  0  0  0
  139.7750   69.4670  226.0380 C   0  0  0  0  0  0  0  0  0  0  0  0
  139.6810   68.7940  227.2280 C   0  0  0  0  0  0  0  0  0  0  0  0
  140.2360   69.2910  228.3910 C   0  0  0  0  0  0  0  0  0  0  0  0
  140.9030   70.5030  228.3460 C   0  0  0  0  0  0  0  0  0  0  0  0
  141.0000   71.1930  227.1360 C   0  0  0  0  0  0  0  0  0  0  0  0
  140.4420   70.6820  225.9900 C   0  0  0  0  0  0  0  0  0  0  0  0
  140.5390   71.3510  224.8260 N   0  0  0  0  0  0  0  0  0  0  0  0
  139.9110   73.4330  223.3240 H   0  0  0  0  0  0  0  0  0  0  0  0
  140.7121   72.9100  220.4904 H   0  0  0  0  0  0  0  0  0  0  0  0
  139.0653   73.7568  220.8348 H   0  0  0  0  0  0  0  0  0  0  0  0
  139.4282   75.8211  218.4423 H   0  0  0  0  0  0  0  0  0  0  0  0
  139.4494   77.0846  219.6924 H   0  0  0  0  0  0  0  0  0  0  0  0
  141.3290   76.7344  217.2924 H   0  0  0  0  0  0  0  0  0  0  0  0
  140.2823   78.1600  217.7311 H   0  0  0  0  0  0  0  0  0  0  0  0
  142.7160   78.4932  218.0583 H   0  0  0  0  0  0  0  0  0  0  0  0
  141.6558   78.7228  219.5268 H   0  0  0  0  0  0  0  0  0  0  0  0
  143.9924   77.0844  219.3013 H   0  0  0  0  0  0  0  0  0  0  0  0
  142.9048   77.2257  220.6889 H   0  0  0  0  0  0  0  0  0  0  0  0
  142.4250   75.5026  218.2081 H   0  0  0  0  0  0  0  0  0  0  0  0
  144.6496   75.6596  220.7598 H   0  0  0  0  0  0  0  0  0  0  0  0
  146.0521   73.7630  221.3917 H   0  0  0  0  0  0  0  0  0  0  0  0
  145.4363   71.4651  220.7040 H   0  0  0  0  0  0  0  0  0  0  0  0
  141.9540   73.0453  218.7173 H   0  0  0  0  0  0  0  0  0  0  0  0
  138.8797   69.2496  222.7872 H   0  0  0  0  0  0  0  0  0  0  0  0
  138.6741   67.9775  224.9123 H   0  0  0  0  0  0  0  0  0  0  0  0
  139.1490   67.8317  227.2578 H   0  0  0  0  0  0  0  0  0  0  0  0
  140.1495   68.7339  229.3356 H   0  0  0  0  0  0  0  0  0  0  0  0
  141.3541   70.9203  229.2583 H   0  0  0  0  0  0  0  0  0  0  0  0
  141.5293   72.1566  227.1003 H   0  0  0  0  0  0  0  0  0  0  0  0
  1  2  2  0
  2  3  1  0
  3  4  1  0
  4  5  1  0
  5  6  2  0
  5  7  1  0
  7  8  1  0
  8  9  1  0
  9 10  1  0
 10 11  1  0
 11 12  1  0
 12 13  1  0
 13 14  2  0
 14 15  1  0
 15 16  2  0
 16 17  1  0
 17 18  1  0
 18 19  1  0
 18 20  1  0
 18 21  1  0
 17 22  2  0
  2 23  1  0
 23 24  2  0
 24 25  1  0
 25 26  2  0
 26 27  1  0
 27 28  2  0
 28 29  1  0
 29 30  2  0
 30 31  1  0
 31 32  2  0
 12  7  1  0
 22 13  1  0
 32 23  1  0
 31 26  1  0
  3 33  1  0
  4 34  1  0
  4 35  1  0
  8 36  1  0
  8 37  1  0
  9 38  1  0
  9 39  1  0
 10 40  1  0
 10 41  1  0
 11 42  1  0
 11 43  1  0
 12 44  1  6
 14 45  1  0
 15 46  1  0
 16 47  1  0
 22 48  1  0
 24 49  1  0
 25 50  1  0
 27 51  1  0
 28 52  1  0
 29 53  1  0
 30 54  1  0
M  END
>  <smiles>  (73) 
O=C(NCC(=O)N1CCCCC1c1cccc(C(F)(F)F)c1)c1ccc2ccccc2n1

>  <score_type>  (73) 
oracle

>  <origin>  (73) 
autodockgpu

>  <m_score__min__energy>  (73) 
-8.9399999999999995

>  <m_primary>  (73) 
energy

>  <rmsd>  (73) 
1.804523646320647

>  <m_score__min__rmsd>  (73) 
1.804523646320647

>  <meeko>  (73) 
{"free_energy": -7.84, "intermolecular_energy": -9.63, "internal_energy": -2.07, "cluster_size": 16, "cluster_id": 2, "rank_in_cluster": 14}

>  <energy>  (73) 
-8.21

>  <cluster_rmsd>  (73) 
0.16

>  <cluster>  (73) 
2

$$$$

     RDKit          3D

 54 57  0  0  0  0  0  0  0  0999 V2000
  141.4160   72.4870  221.9730 O   0  0  0  0  0  0  0  0  0  0  0  0
  140.3660   72.4200  222.6670 C   0  0  0  0  0  0  0  0  0  0  0  0
  139.3170   73.3890  222.3740 N   0  0  0  0  0  0  0  0  0  0  0  0
  139.6060   74.3080  221.3260 C   0  0  0  0  0  0  0  0  0  0  0  0
  140.6750   75.2780  221.4720 C   0  0  0  0  0  0  0  0  0  0  0  0
  140.5470   76.0320  222.5350 O   0  0  0  0  0  0  0  0  0  0  0  0
  141.8070   75.5520  220.6960 N   0  0  0  0  0  0  0  0  0  0  0  0
  142.8980   74.6430  220.4170 C   0  0  0  0  0  0  0  0  0  0  0  0
  143.7200   75.2700  219.2770 C   0  0  0  0  0  0  0  0  0  0  0  0
  142.8730   75.7850  218.1670 C   0  0  0  0  0  0  0  0  0  0  0  0
  141.7420   76.7120  218.6430 C   0  0  0  0  0  0  0  0  0  0  0  0
  141.9630   76.8970  220.1050 C   0  0  1  0  0  0  0  0  0  0  0  0
  141.2160   77.9510  220.7660 C   0  0  0  0  0  0  0  0  0  0  0  0
  139.9020   78.2420  220.4190 C   0  0  0  0  0  0  0  0  0  0  0  0
  139.1780   79.2510  221.0010 C   0  0  0  0  0  0  0  0  0  0  0  0
  139.7350   80.0290  221.9690 C   0  0  0  0  0  0  0  0  0  0  0  0
  141.0420   79.7630  222.3340 C   0  0  0  0  0  0  0  0  0  0  0  0
  141.6360   80.6230  223.3930 C   0  0  0  0  0  0  0  0  0  0  0  0
  142.6170   79.9680  224.1160 F   0  0  0  0  0  0  0  0  0  0  0  0
  142.2070   81.7130  222.7630 F   0  0  0  0  0  0  0  0  0  0  0  0
  140.6480   81.1240  224.2210 F   0  0  0  0  0  0  0  0  0  0  0  0
  141.7710   78.7480  221.7500 C   0  0  0  0  0  0  0  0  0  0  0  0
  140.1630   71.4410  223.7200 C   0  0  0  0  0  0  0  0  0  0  0  0
  139.4400   70.3110  223.3990 C   0  0  0  0  0  0  0  0  0  0  0  0
  139.2150   69.3500  224.3530 C   0  0  0  0  0  0  0  0  0  0  0  0
  139.7290   69.5440  225.6280 C   0  0  0  0  0  0  0  0  0  0  0  0
  139.5260   68.6080  226.6080 C   0  0  0  0  0  0  0  0  0  0  0  0
  140.0240   68.7720  227.8850 C   0  0  0  0  0  0  0  0  0  0  0  0
  140.7460   69.9160  228.1780 C   0  0  0  0  0  0  0  0  0  0  0  0
  140.9550   70.8740  227.1830 C   0  0  0  0  0  0  0  0  0  0  0  0
  140.4520   70.6920  225.9180 C   0  0  0  0  0  0  0  0  0  0  0  0
  140.6560   71.6180  224.9620 N   0  0  0  0  0  0  0  0  0  0  0  0
  138.4790   73.2840  222.9530 H   0  0  0  0  0  0  0  0  0  0  0  0
  139.8452   73.7067  220.4365 H   0  0  0  0  0  0  0  0  0  0  0  0
  138.7040   74.9367  221.2922 H   0  0  0  0  0  0  0  0  0  0  0  0
  143.5254   74.5187  221.3120 H   0  0  0  0  0  0  0  0  0  0  0  0
  142.5206   73.6501  220.1311 H   0  0  0  0  0  0  0  0  0  0  0  0
  144.3078   76.1049  219.6863 H   0  0  0  0  0  0  0  0  0  0  0  0
  144.3638   74.4806  218.8617 H   0  0  0  0  0  0  0  0  0  0  0  0
  143.5137   76.3456  217.4704 H   0  0  0  0  0  0  0  0  0  0  0  0
  142.4005   74.9149  217.6878 H   0  0  0  0  0  0  0  0  0  0  0  0
  141.7934   77.6792  218.1216 H   0  0  0  0  0  0  0  0  0  0  0  0
  140.7504   76.2850  218.4324 H   0  0  0  0  0  0  0  0  0  0  0  0
  142.9724   77.3018  220.2699 H   0  0  0  0  0  0  0  0  0  0  0  0
  139.4194   77.6336  219.6399 H   0  0  0  0  0  0  0  0  0  0  0  0
  138.1406   79.4326  220.6835 H   0  0  0  0  0  0  0  0  0  0  0  0
  139.1653   80.8411  222.4444 H   0  0  0  0  0  0  0  0  0  0  0  0
  142.8078   78.5703  222.0715 H   0  0  0  0  0  0  0  0  0  0  0  0
  139.0447   70.1803  222.3809 H   0  0  0  0  0  0  0  0  0  0  0  0
  138.6390   68.4444  224.1121 H   0  0  0  0  0  0  0  0  0  0  0  0
  138.9505   67.7011  226.3706 H   0  0  0  0  0  0  0  0  0  0  0  0
  139.8501   68.0070  228.6561 H   0  0  0  0  0  0  0  0  0  0  0  0
  141.1528   70.0699  229.1884 H   0  0  0  0  0  0  0  0  0  0  0  0
  141.5284   71.7836  227.4151 H   0  0  0  0  0  0  0  0  0  0  0  0
  1  2  2  0
  2  3  1  0
  3  4  1  0
  4  5  1  0
  5  6  2  0
  5  7  1  0
  7  8  1  0
  8  9  1  0
  9 10  1  0
 10 11  1  0
 11 12  1  0
 12 13  1  0
 13 14  2  0
 14 15  1  0
 15 16  2  0
 16 17  1  0
 17 18  1  0
 18 19  1  0
 18 20  1  0
 18 21  1  0
 17 22  2  0
  2 23  1  0
 23 24  2  0
 24 25  1  0
 25 26  2  0
 26 27  1  0
 27 28  2  0
 28 29  1  0
 29 30  2  0
 30 31  1  0
 31 32  2  0
 12  7  1  0
 22 13  1  0
 32 23  1  0
 31 26  1  0
  3 33  1  0
  4 34  1  0
  4 35  1  0
  8 36  1  0
  8 37  1  0
  9 38  1  0
  9 39  1  0
 10 40  1  0
 10 41  1  0
 11 42  1  0
 11 43  1  0
 12 44  1  6
 14 45  1  0
 15 46  1  0
 16 47  1  0
 22 48  1  0
 24 49  1  0
 25 50  1  0
 27 51  1  0
 28 52  1  0
 29 53  1  0
 30 54  1  0
M  END
>  <smiles>  (74) 
O=C(NCC(=O)N1CCCCC1c1cccc(C(F)(F)F)c1)c1ccc2ccccc2n1

>  <score_type>  (74) 
oracle

>  <origin>  (74) 
autodockgpu

>  <m_score__min__energy>  (74) 
-8.9399999999999995

>  <m_primary>  (74) 
energy

>  <rmsd>  (74) 
2.111701990577237

>  <m_score__min__rmsd>  (74) 
2.111701990577237

>  <meeko>  (74) 
{"free_energy": -8.5, "intermolecular_energy": -10.29, "internal_energy": -1.4, "cluster_size": 19, "cluster_id": 1, "rank_in_cluster": 13}

>  <energy>  (74) 
-8.18

>  <cluster_rmsd>  (74) 
0.21

>  <cluster>  (74) 
2

$$$$

     RDKit          3D

 54 57  0  0  0  0  0  0  0  0999 V2000
  141.4330   72.6150  221.6780 O   0  0  0  0  0  0  0  0  0  0  0  0
  140.4740   72.7130  222.4900 C   0  0  0  0  0  0  0  0  0  0  0  0
  139.5980   73.8680  222.3440 N   0  0  0  0  0  0  0  0  0  0  0  0
  139.9320   74.7620  221.2890 C   0  0  0  0  0  0  0  0  0  0  0  0
  141.0020   75.7290  221.4550 C   0  0  0  0  0  0  0  0  0  0  0  0
  141.1700   76.1040  222.6970 O   0  0  0  0  0  0  0  0  0  0  0  0
  141.8780   76.3260  220.5410 N   0  0  0  0  0  0  0  0  0  0  0  0
  142.8340   75.6440  219.6970 C   0  0  0  0  0  0  0  0  0  0  0  0
  143.3170   76.6680  218.6540 C   0  0  0  0  0  0  0  0  0  0  0  0
  142.2030   77.4460  218.0460 C   0  0  0  0  0  0  0  0  0  0  0  0
  141.2640   78.0780  219.0860 C   0  0  0  0  0  0  0  0  0  0  0  0
  141.8850   77.7980  220.4110 C   0  0  1  0  0  0  0  0  0  0  0  0
  141.3670   78.5210  221.5580 C   0  0  0  0  0  0  0  0  0  0  0  0
  142.2060   79.0150  222.5500 C   0  0  0  0  0  0  0  0  0  0  0  0
  141.7480   79.6740  223.6620 C   0  0  0  0  0  0  0  0  0  0  0  0
  140.4140   79.8750  223.8420 C   0  0  0  0  0  0  0  0  0  0  0  0
  139.5550   79.3930  222.8710 C   0  0  0  0  0  0  0  0  0  0  0  0
  138.1000   79.6210  223.0840 C   0  0  0  0  0  0  0  0  0  0  0  0
  137.3770   78.4420  223.0930 F   0  0  0  0  0  0  0  0  0  0  0  0
  137.9570   80.2350  224.3140 F   0  0  0  0  0  0  0  0  0  0  0  0
  137.6060   80.5090  222.1450 F   0  0  0  0  0  0  0  0  0  0  0  0
  140.0150   78.7310  221.7520 C   0  0  0  0  0  0  0  0  0  0  0  0
  140.2130   71.7430  223.5400 C   0  0  0  0  0  0  0  0  0  0  0  0
  139.4260   70.6580  223.2140 C   0  0  0  0  0  0  0  0  0  0  0  0
  139.1450   69.7090  224.1650 C   0  0  0  0  0  0  0  0  0  0  0  0
  139.6670   69.8680  225.4410 C   0  0  0  0  0  0  0  0  0  0  0  0
  139.4090   68.9420  226.4170 C   0  0  0  0  0  0  0  0  0  0  0  0
  139.9130   69.0720  227.6960 C   0  0  0  0  0  0  0  0  0  0  0  0
  140.7010   70.1720  227.9930 C   0  0  0  0  0  0  0  0  0  0  0  0
  140.9660   71.1190  227.0010 C   0  0  0  0  0  0  0  0  0  0  0  0
  140.4550   70.9710  225.7360 C   0  0  0  0  0  0  0  0  0  0  0  0
  140.7150   71.8860  224.7830 N   0  0  0  0  0  0  0  0  0  0  0  0
  138.8270   73.8940  223.0180 H   0  0  0  0  0  0  0  0  0  0  0  0
  140.2003   74.1405  220.4220 H   0  0  0  0  0  0  0  0  0  0  0  0
  139.0362   75.3951  221.2077 H   0  0  0  0  0  0  0  0  0  0  0  0
  143.6830   75.2869  220.2984 H   0  0  0  0  0  0  0  0  0  0  0  0
  142.3772   74.7700  219.2097 H   0  0  0  0  0  0  0  0  0  0  0  0
  144.0079   77.3694  219.1447 H   0  0  0  0  0  0  0  0  0  0  0  0
  143.8082   76.1078  217.8447 H   0  0  0  0  0  0  0  0  0  0  0  0
  142.6336   78.2496  217.4305 H   0  0  0  0  0  0  0  0  0  0  0  0
  141.6026   76.7433  217.4495 H   0  0  0  0  0  0  0  0  0  0  0  0
  141.1836   79.1626  218.9214 H   0  0  0  0  0  0  0  0  0  0  0  0
  140.2465   77.6656  219.0187 H   0  0  0  0  0  0  0  0  0  0  0  0
  142.9068   78.2050  220.4256 H   0  0  0  0  0  0  0  0  0  0  0  0
  143.2906   78.8702  222.4376 H   0  0  0  0  0  0  0  0  0  0  0  0
  142.4628   80.0422  224.4127 H   0  0  0  0  0  0  0  0  0  0  0  0
  140.0323   80.4023  224.7287 H   0  0  0  0  0  0  0  0  0  0  0  0
  139.2962   78.3653  221.0040 H   0  0  0  0  0  0  0  0  0  0  0  0
  139.0249   70.5537  222.1951 H   0  0  0  0  0  0  0  0  0  0  0  0
  138.5180   68.8390  223.9204 H   0  0  0  0  0  0  0  0  0  0  0  0
  138.7828   68.0706  226.1751 H   0  0  0  0  0  0  0  0  0  0  0  0
  139.6929   68.3164  228.4645 H   0  0  0  0  0  0  0  0  0  0  0  0
  141.1155   70.2989  229.0040 H   0  0  0  0  0  0  0  0  0  0  0  0
  141.5911   71.9930  227.2364 H   0  0  0  0  0  0  0  0  0  0  0  0
  1  2  2  0
  2  3  1  0
  3  4  1  0
  4  5  1  0
  5  6  2  0
  5  7  1  0
  7  8  1  0
  8  9  1  0
  9 10  1  0
 10 11  1  0
 11 12  1  0
 12 13  1  0
 13 14  2  0
 14 15  1  0
 15 16  2  0
 16 17  1  0
 17 18  1  0
 18 19  1  0
 18 20  1  0
 18 21  1  0
 17 22  2  0
  2 23  1  0
 23 24  2  0
 24 25  1  0
 25 26  2  0
 26 27  1  0
 27 28  2  0
 28 29  1  0
 29 30  2  0
 30 31  1  0
 31 32  2  0
 12  7  1  0
 22 13  1  0
 32 23  1  0
 31 26  1  0
  3 33  1  0
  4 34  1  0
  4 35  1  0
  8 36  1  0
  8 37  1  0
  9 38  1  0
  9 39  1  0
 10 40  1  0
 10 41  1  0
 11 42  1  0
 11 43  1  0
 12 44  1  6
 14 45  1  0
 15 46  1  0
 16 47  1  0
 22 48  1  0
 24 49  1  0
 25 50  1  0
 27 51  1  0
 28 52  1  0
 29 53  1  0
 30 54  1  0
M  END
>  <smiles>  (75) 
O=C(NCC(=O)N1CCCCC1c1cccc(C(F)(F)F)c1)c1ccc2ccccc2n1

>  <score_type>  (75) 
oracle

>  <origin>  (75) 
autodockgpu

>  <m_score__min__energy>  (75) 
-8.9399999999999995

>  <m_primary>  (75) 
energy

>  <rmsd>  (75) 
2.1721199112778353

>  <m_score__min__rmsd>  (75) 
2.1721199112778353

>  <meeko>  (75) 
{"free_energy": -8.88, "intermolecular_energy": -10.67, "internal_energy": -1.39, "cluster_size": 19, "cluster_id": 1, "rank_in_cluster": 4}

>  <energy>  (75) 
-8.16

>  <cluster_rmsd>  (75) 
0.22

>  <cluster>  (75) 
2

$$$$

     RDKit          3D

 54 57  0  0  0  0  0  0  0  0999 V2000
  141.4120   72.2210  221.6960 O   0  0  0  0  0  0  0  0  0  0  0  0
  140.4960   72.4180  222.5390 C   0  0  0  0  0  0  0  0  0  0  0  0
  139.6410   73.5790  222.3310 N   0  0  0  0  0  0  0  0  0  0  0  0
  139.9450   74.3670  221.1850 C   0  0  0  0  0  0  0  0  0  0  0  0
  141.0510   75.3060  221.2090 C   0  0  0  0  0  0  0  0  0  0  0  0
  141.1830   75.9180  222.3590 O   0  0  0  0  0  0  0  0  0  0  0  0
  141.9930   75.6730  220.2410 N   0  0  0  0  0  0  0  0  0  0  0  0
  143.0020   74.8170  219.6570 C   0  0  0  0  0  0  0  0  0  0  0  0
  143.5640   75.5610  218.4330 C   0  0  0  0  0  0  0  0  0  0  0  0
  142.5000   76.1560  217.5780 C   0  0  0  0  0  0  0  0  0  0  0  0
  141.4930   77.0120  218.3640 C   0  0  0  0  0  0  0  0  0  0  0  0
  142.0180   77.0690  219.7580 C   0  0  1  0  0  0  0  0  0  0  0  0
  141.4250   78.0430  220.6560 C   0  0  0  0  0  0  0  0  0  0  0  0
  140.0710   78.3550  220.6040 C   0  0  0  0  0  0  0  0  0  0  0  0
  139.4850   79.2920  221.4150 C   0  0  0  0  0  0  0  0  0  0  0  0
  140.2280   79.9730  222.3290 C   0  0  0  0  0  0  0  0  0  0  0  0
  141.5780   79.6840  222.4030 C   0  0  0  0  0  0  0  0  0  0  0  0
  142.3760   80.4380  223.4070 C   0  0  0  0  0  0  0  0  0  0  0  0
  141.8470   81.6890  223.6700 F   0  0  0  0  0  0  0  0  0  0  0  0
  142.3660   79.7000  224.5770 F   0  0  0  0  0  0  0  0  0  0  0  0
  143.6990   80.5220  223.0110 F   0  0  0  0  0  0  0  0  0  0  0  0
  142.1690   78.7410  221.5880 C   0  0  0  0  0  0  0  0  0  0  0  0
  140.2640   71.5530  223.6840 C   0  0  0  0  0  0  0  0  0  0  0  0
  139.5720   70.3810  223.4580 C   0  0  0  0  0  0  0  0  0  0  0  0
  139.3220   69.5240  224.5000 C   0  0  0  0  0  0  0  0  0  0  0  0
  139.7790   69.8640  225.7660 C   0  0  0  0  0  0  0  0  0  0  0  0
  139.5490   69.0340  226.8320 C   0  0  0  0  0  0  0  0  0  0  0  0
  139.9910   69.3430  228.1040 C   0  0  0  0  0  0  0  0  0  0  0  0
  140.6830   70.5260  228.3000 C   0  0  0  0  0  0  0  0  0  0  0  0
  140.9190   71.3750  227.2160 C   0  0  0  0  0  0  0  0  0  0  0  0
  140.4720   71.0500  225.9590 C   0  0  0  0  0  0  0  0  0  0  0  0
  140.7030   71.8710  224.9180 N   0  0  0  0  0  0  0  0  0  0  0  0
  138.9050   73.6860  223.0340 H   0  0  0  0  0  0  0  0  0  0  0  0
  140.1465   73.6638  220.3635 H   0  0  0  0  0  0  0  0  0  0  0  0
  139.0661   75.0224  221.0953 H   0  0  0  0  0  0  0  0  0  0  0  0
  143.8042   74.6263  220.3851 H   0  0  0  0  0  0  0  0  0  0  0  0
  142.5748   73.8460  219.3661 H   0  0  0  0  0  0  0  0  0  0  0  0
  144.2236   76.3679  218.7850 H   0  0  0  0  0  0  0  0  0  0  0  0
  144.1072   74.8262  217.8207 H   0  0  0  0  0  0  0  0  0  0  0  0
  142.9781   76.7905  216.8172 H   0  0  0  0  0  0  0  0  0  0  0  0
  141.9385   75.3225  217.1308 H   0  0  0  0  0  0  0  0  0  0  0  0
  141.4313   78.0231  217.9352 H   0  0  0  0  0  0  0  0  0  0  0  0
  140.4799   76.5851  218.3276 H   0  0  0  0  0  0  0  0  0  0  0  0
  143.0388   77.4787  219.7442 H   0  0  0  0  0  0  0  0  0  0  0  0
  139.4393   77.8241  219.8766 H   0  0  0  0  0  0  0  0  0  0  0  0
  138.4075   79.4946  221.3263 H   0  0  0  0  0  0  0  0  0  0  0  0
  139.7705   80.7272  222.9862 H   0  0  0  0  0  0  0  0  0  0  0  0
  143.2468   78.5420  221.6812 H   0  0  0  0  0  0  0  0  0  0  0  0
  139.2216   70.1342  222.4449 H   0  0  0  0  0  0  0  0  0  0  0  0
  138.7706   68.5865  224.3355 H   0  0  0  0  0  0  0  0  0  0  0  0
  138.9974   68.0961  226.6705 H   0  0  0  0  0  0  0  0  0  0  0  0
  139.7967   68.6617  228.9455 H   0  0  0  0  0  0  0  0  0  0  0  0
  141.0448   70.7958  229.3032 H   0  0  0  0  0  0  0  0  0  0  0  0
  141.4693   72.3147  227.3712 H   0  0  0  0  0  0  0  0  0  0  0  0
  1  2  2  0
  2  3  1  0
  3  4  1  0
  4  5  1  0
  5  6  2  0
  5  7  1  0
  7  8  1  0
  8  9  1  0
  9 10  1  0
 10 11  1  0
 11 12  1  0
 12 13  1  0
 13 14  2  0
 14 15  1  0
 15 16  2  0
 16 17  1  0
 17 18  1  0
 18 19  1  0
 18 20  1  0
 18 21  1  0
 17 22  2  0
  2 23  1  0
 23 24  2  0
 24 25  1  0
 25 26  2  0
 26 27  1  0
 27 28  2  0
 28 29  1  0
 29 30  2  0
 30 31  1  0
 31 32  2  0
 12  7  1  0
 22 13  1  0
 32 23  1  0
 31 26  1  0
  3 33  1  0
  4 34  1  0
  4 35  1  0
  8 36  1  0
  8 37  1  0
  9 38  1  0
  9 39  1  0
 10 40  1  0
 10 41  1  0
 11 42  1  0
 11 43  1  0
 12 44  1  6
 14 45  1  0
 15 46  1  0
 16 47  1  0
 22 48  1  0
 24 49  1  0
 25 50  1  0
 27 51  1  0
 28 52  1  0
 29 53  1  0
 30 54  1  0
M  END
>  <smiles>  (76) 
O=C(NCC(=O)N1CCCCC1c1cccc(C(F)(F)F)c1)c1ccc2ccccc2n1

>  <score_type>  (76) 
oracle

>  <origin>  (76) 
autodockgpu

>  <m_score__min__energy>  (76) 
-8.9399999999999995

>  <m_primary>  (76) 
energy

>  <rmsd>  (76) 
2.049368698058196

>  <m_score__min__rmsd>  (76) 
2.049368698058196

>  <meeko>  (76) 
{"free_energy": -8.65, "intermolecular_energy": -10.44, "internal_energy": -1.46, "cluster_size": 19, "cluster_id": 1, "rank_in_cluster": 9}

>  <energy>  (76) 
-8.15

>  <cluster_rmsd>  (76) 
0.48

>  <cluster>  (76) 
2

$$$$

     RDKit          3D

 54 57  0  0  0  0  0  0  0  0999 V2000
  139.5400   74.5390  221.9750 O   0  0  0  0  0  0  0  0  0  0  0  0
  140.7070   74.9330  221.7080 C   0  0  0  0  0  0  0  0  0  0  0  0
  140.9890   76.3500  221.9050 N   0  0  0  0  0  0  0  0  0  0  0  0
  139.8990   77.1320  222.3800 C   0  0  0  0  0  0  0  0  0  0  0  0
  139.8100   78.5430  222.0570 C   0  0  0  0  0  0  0  0  0  0  0  0
  138.8450   78.8210  221.2160 O   0  0  0  0  0  0  0  0  0  0  0  0
  140.5560   79.6520  222.4740 N   0  0  0  0  0  0  0  0  0  0  0  0
  140.2600   80.5130  223.5980 C   0  0  0  0  0  0  0  0  0  0  0  0
  141.5160   81.3650  223.8500 C   0  0  0  0  0  0  0  0  0  0  0  0
  142.7720   80.5670  223.8300 C   0  0  0  0  0  0  0  0  0  0  0  0
  142.9130   79.6840  222.5790 C   0  0  0  0  0  0  0  0  0  0  0  0
  141.7580   80.0380  221.7060 C   0  0  1  0  0  0  0  0  0  0  0  0
  141.7890   79.5680  220.3330 C   0  0  0  0  0  0  0  0  0  0  0  0
  141.3750   80.3700  219.2770 C   0  0  0  0  0  0  0  0  0  0  0  0
  141.3620   79.9470  217.9720 C   0  0  0  0  0  0  0  0  0  0  0  0
  141.7660   78.6870  217.6530 C   0  0  0  0  0  0  0  0  0  0  0  0
  142.1840   77.8660  218.6840 C   0  0  0  0  0  0  0  0  0  0  0  0
  142.6220   76.4920  218.3180 C   0  0  0  0  0  0  0  0  0  0  0  0
  141.6190   75.5550  218.4900 F   0  0  0  0  0  0  0  0  0  0  0  0
  142.9770   76.5180  216.9820 F   0  0  0  0  0  0  0  0  0  0  0  0
  143.7630   76.1450  219.0190 F   0  0  0  0  0  0  0  0  0  0  0  0
  142.1980   78.2910  219.9970 C   0  0  0  0  0  0  0  0  0  0  0  0
  141.7580   74.0540  221.2250 C   0  0  0  0  0  0  0  0  0  0  0  0
  141.4020   72.7580  220.9150 C   0  0  0  0  0  0  0  0  0  0  0  0
  142.3520   71.8810  220.4540 C   0  0  0  0  0  0  0  0  0  0  0  0
  143.6580   72.3290  220.3110 C   0  0  0  0  0  0  0  0  0  0  0  0
  144.6350   71.4830  219.8530 C   0  0  0  0  0  0  0  0  0  0  0  0
  145.9430   71.8980  219.7000 C   0  0  0  0  0  0  0  0  0  0  0  0
  146.2700   73.2050  220.0190 C   0  0  0  0  0  0  0  0  0  0  0  0
  145.2780   74.0700  220.4870 C   0  0  0  0  0  0  0  0  0  0  0  0
  143.9830   73.6390  220.6320 C   0  0  0  0  0  0  0  0  0  0  0  0
  143.0300   74.4770  221.0820 N   0  0  0  0  0  0  0  0  0  0  0  0
  141.9530   76.6170  221.6890 H   0  0  0  0  0  0  0  0  0  0  0  0
  138.9822   76.6620  221.9945 H   0  0  0  0  0  0  0  0  0  0  0  0
  140.0538   77.1367  223.4691 H   0  0  0  0  0  0  0  0  0  0  0  0
  139.4036   81.1619  223.3624 H   0  0  0  0  0  0  0  0  0  0  0  0
  139.9990   79.9226  224.4887 H   0  0  0  0  0  0  0  0  0  0  0  0
  141.5786   82.1372  223.0691 H   0  0  0  0  0  0  0  0  0  0  0  0
  141.4204   81.8041  224.8540 H   0  0  0  0  0  0  0  0  0  0  0  0
  143.6260   81.2594  223.8664 H   0  0  0  0  0  0  0  0  0  0  0  0
  142.7447   79.8955  224.7008 H   0  0  0  0  0  0  0  0  0  0  0  0
  143.8620   79.8956  222.0647 H   0  0  0  0  0  0  0  0  0  0  0  0
  142.9171   78.6141  222.8345 H   0  0  0  0  0  0  0  0  0  0  0  0
  141.7805   81.1176  221.4965 H   0  0  0  0  0  0  0  0  0  0  0  0
  141.0412   81.3946  219.4980 H   0  0  0  0  0  0  0  0  0  0  0  0
  141.0232   80.6299  217.1790 H   0  0  0  0  0  0  0  0  0  0  0  0
  141.7602   78.3341  216.6112 H   0  0  0  0  0  0  0  0  0  0  0  0
  142.5390   77.6048  220.7862 H   0  0  0  0  0  0  0  0  0  0  0  0
  140.3597   72.4282  221.0368 H   0  0  0  0  0  0  0  0  0  0  0  0
  142.0838   70.8442  220.2030 H   0  0  0  0  0  0  0  0  0  0  0  0
  144.3696   70.4457  219.6007 H   0  0  0  0  0  0  0  0  0  0  0  0
  146.7115   71.2027  219.3313 H   0  0  0  0  0  0  0  0  0  0  0  0
  147.3048   73.5601  219.9046 H   0  0  0  0  0  0  0  0  0  0  0  0
  145.5376   75.1080  220.7421 H   0  0  0  0  0  0  0  0  0  0  0  0
  1  2  2  0
  2  3  1  0
  3  4  1  0
  4  5  1  0
  5  6  2  0
  5  7  1  0
  7  8  1  0
  8  9  1  0
  9 10  1  0
 10 11  1  0
 11 12  1  0
 12 13  1  0
 13 14  2  0
 14 15  1  0
 15 16  2  0
 16 17  1  0
 17 18  1  0
 18 19  1  0
 18 20  1  0
 18 21  1  0
 17 22  2  0
  2 23  1  0
 23 24  2  0
 24 25  1  0
 25 26  2  0
 26 27  1  0
 27 28  2  0
 28 29  1  0
 29 30  2  0
 30 31  1  0
 31 32  2  0
 12  7  1  0
 22 13  1  0
 32 23  1  0
 31 26  1  0
  3 33  1  0
  4 34  1  0
  4 35  1  0
  8 36  1  0
  8 37  1  0
  9 38  1  0
  9 39  1  0
 10 40  1  0
 10 41  1  0
 11 42  1  0
 11 43  1  0
 12 44  1  6
 14 45  1  0
 15 46  1  0
 16 47  1  0
 22 48  1  0
 24 49  1  0
 25 50  1  0
 27 51  1  0
 28 52  1  0
 29 53  1  0
 30 54  1  0
M  END
>  <smiles>  (77) 
O=C(NCC(=O)N1CCCCC1c1cccc(C(F)(F)F)c1)c1ccc2ccccc2n1

>  <score_type>  (77) 
oracle

>  <origin>  (77) 
autodockgpu

>  <m_score__min__energy>  (77) 
-8.9399999999999995

>  <m_primary>  (77) 
energy

>  <rmsd>  (77) 
6.625010026264677

>  <m_score__min__rmsd>  (77) 
6.625010026264677

>  <meeko>  (77) 
{"free_energy": -7.4, "intermolecular_energy": -9.19, "internal_energy": -2.59, "cluster_size": 6, "cluster_id": 8, "rank_in_cluster": 2}

>  <energy>  (77) 
-8.12

>  <cluster_rmsd>  (77) 
1.46

>  <cluster>  (77) 
2

$$$$

     RDKit          3D

 54 57  0  0  0  0  0  0  0  0999 V2000
  141.4240   72.2300  221.7400 O   0  0  0  0  0  0  0  0  0  0  0  0
  140.4830   72.4160  222.5570 C   0  0  0  0  0  0  0  0  0  0  0  0
  139.6010   73.5480  222.3040 N   0  0  0  0  0  0  0  0  0  0  0  0
  139.9100   74.3210  221.1500 C   0  0  0  0  0  0  0  0  0  0  0  0
  141.0250   75.2490  221.1630 C   0  0  0  0  0  0  0  0  0  0  0  0
  141.2600   75.7580  222.3460 O   0  0  0  0  0  0  0  0  0  0  0  0
  141.8890   75.6940  220.1560 N   0  0  0  0  0  0  0  0  0  0  0  0
  142.9370   74.9260  219.5210 C   0  0  0  0  0  0  0  0  0  0  0  0
  143.3790   75.7160  218.2770 C   0  0  0  0  0  0  0  0  0  0  0  0
  142.2320   76.2230  217.4750 C   0  0  0  0  0  0  0  0  0  0  0  0
  141.1960   76.9910  218.3100 C   0  0  0  0  0  0  0  0  0  0  0  0
  141.7770   77.0890  219.6800 C   0  0  1  0  0  0  0  0  0  0  0  0
  141.1480   78.0090  220.6090 C   0  0  0  0  0  0  0  0  0  0  0  0
  139.7960   78.3220  220.5240 C   0  0  0  0  0  0  0  0  0  0  0  0
  139.1770   79.2110  221.3650 C   0  0  0  0  0  0  0  0  0  0  0  0
  139.8830   79.8380  222.3450 C   0  0  0  0  0  0  0  0  0  0  0  0
  141.2310   79.5460  222.4530 C   0  0  0  0  0  0  0  0  0  0  0  0
  141.9880   80.2410  223.5280 C   0  0  0  0  0  0  0  0  0  0  0  0
  143.1700   80.7930  223.0690 F   0  0  0  0  0  0  0  0  0  0  0  0
  141.1820   81.2590  224.0040 F   0  0  0  0  0  0  0  0  0  0  0  0
  142.2090   79.3880  224.5940 F   0  0  0  0  0  0  0  0  0  0  0  0
  141.8540   78.6520  221.6070 C   0  0  0  0  0  0  0  0  0  0  0  0
  140.2470   71.5670  223.7130 C   0  0  0  0  0  0  0  0  0  0  0  0
  139.5170   70.4150  223.5090 C   0  0  0  0  0  0  0  0  0  0  0  0
  139.2620   69.5730  224.5630 C   0  0  0  0  0  0  0  0  0  0  0  0
  139.7520   69.9100  225.8170 C   0  0  0  0  0  0  0  0  0  0  0  0
  139.5180   69.0950  226.8950 C   0  0  0  0  0  0  0  0  0  0  0  0
  139.9920   69.4020  228.1550 C   0  0  0  0  0  0  0  0  0  0  0  0
  140.7220   70.5660  228.3280 C   0  0  0  0  0  0  0  0  0  0  0  0
  140.9620   71.3990  227.2330 C   0  0  0  0  0  0  0  0  0  0  0  0
  140.4830   71.0760  225.9880 C   0  0  0  0  0  0  0  0  0  0  0  0
  140.7180   71.8830  224.9350 N   0  0  0  0  0  0  0  0  0  0  0  0
  138.8440   73.6470  222.9870 H   0  0  0  0  0  0  0  0  0  0  0  0
  140.1030   73.6077  220.3351 H   0  0  0  0  0  0  0  0  0  0  0  0
  139.0373   74.9838  221.0549 H   0  0  0  0  0  0  0  0  0  0  0  0
  143.7849   74.8007  220.2105 H   0  0  0  0  0  0  0  0  0  0  0  0
  142.5779   73.9239  219.2439 H   0  0  0  0  0  0  0  0  0  0  0  0
  143.9856   76.5737  218.6031 H   0  0  0  0  0  0  0  0  0  0  0  0
  143.9519   75.0295  217.6363 H   0  0  0  0  0  0  0  0  0  0  0  0
  142.6211   76.8962  216.6969 H   0  0  0  0  0  0  0  0  0  0  0  0
  141.7210   75.3469  217.0492 H   0  0  0  0  0  0  0  0  0  0  0  0
  141.0320   77.9943  217.8899 H   0  0  0  0  0  0  0  0  0  0  0  0
  140.2211   76.4817  218.3172 H   0  0  0  0  0  0  0  0  0  0  0  0
  142.7587   77.5820  219.6226 H   0  0  0  0  0  0  0  0  0  0  0  0
  139.1936   77.8328  219.7444 H   0  0  0  0  0  0  0  0  0  0  0  0
  138.1033   79.4185  221.2467 H   0  0  0  0  0  0  0  0  0  0  0  0
  139.3988   80.5520  223.0274 H   0  0  0  0  0  0  0  0  0  0  0  0
  142.9281   78.4484  221.7289 H   0  0  0  0  0  0  0  0  0  0  0  0
  139.1401   70.1714  222.5047 H   0  0  0  0  0  0  0  0  0  0  0  0
  138.6813   68.6503  224.4166 H   0  0  0  0  0  0  0  0  0  0  0  0
  138.9371   68.1719  226.7520 H   0  0  0  0  0  0  0  0  0  0  0  0
  139.7933   68.7340  229.0061 H   0  0  0  0  0  0  0  0  0  0  0  0
  141.1105   70.8329  229.3219 H   0  0  0  0  0  0  0  0  0  0  0  0
  141.5413   72.3241  227.3699 H   0  0  0  0  0  0  0  0  0  0  0  0
  1  2  2  0
  2  3  1  0
  3  4  1  0
  4  5  1  0
  5  6  2  0
  5  7  1  0
  7  8  1  0
  8  9  1  0
  9 10  1  0
 10 11  1  0
 11 12  1  0
 12 13  1  0
 13 14  2  0
 14 15  1  0
 15 16  2  0
 16 17  1  0
 17 18  1  0
 18 19  1  0
 18 20  1  0
 18 21  1  0
 17 22  2  0
  2 23  1  0
 23 24  2  0
 24 25  1  0
 25 26  2  0
 26 27  1  0
 27 28  2  0
 28 29  1  0
 29 30  2  0
 30 31  1  0
 31 32  2  0
 12  7  1  0
 22 13  1  0
 32 23  1  0
 31 26  1  0
  3 33  1  0
  4 34  1  0
  4 35  1  0
  8 36  1  0
  8 37  1  0
  9 38  1  0
  9 39  1  0
 10 40  1  0
 10 41  1  0
 11 42  1  0
 11 43  1  0
 12 44  1  6
 14 45  1  0
 15 46  1  0
 16 47  1  0
 22 48  1  0
 24 49  1  0
 25 50  1  0
 27 51  1  0
 28 52  1  0
 29 53  1  0
 30 54  1  0
M  END
>  <smiles>  (78) 
O=C(NCC(=O)N1CCCCC1c1cccc(C(F)(F)F)c1)c1ccc2ccccc2n1

>  <score_type>  (78) 
oracle

>  <origin>  (78) 
autodockgpu

>  <m_score__min__energy>  (78) 
-8.9399999999999995

>  <m_primary>  (78) 
energy

>  <rmsd>  (78) 
1.994852661160198

>  <m_score__min__rmsd>  (78) 
1.994852661160198

>  <meeko>  (78) 
{"free_energy": -8.46, "intermolecular_energy": -10.25, "internal_energy": -1.52, "cluster_size": 19, "cluster_id": 1, "rank_in_cluster": 14}

>  <energy>  (78) 
-8.11

>  <cluster_rmsd>  (78) 
1.45

>  <cluster>  (78) 
2

$$$$

     RDKit          3D

 54 57  0  0  0  0  0  0  0  0999 V2000
  140.4550   71.3940  221.3250 O   0  0  0  0  0  0  0  0  0  0  0  0
  140.1330   71.9260  222.4210 C   0  0  0  0  0  0  0  0  0  0  0  0
  139.7760   73.3380  222.3930 N   0  0  0  0  0  0  0  0  0  0  0  0
  139.8340   73.9600  221.1140 C   0  0  0  0  0  0  0  0  0  0  0  0
  140.6620   75.1330  220.9030 C   0  0  0  0  0  0  0  0  0  0  0  0
  141.2750   75.5340  221.9880 O   0  0  0  0  0  0  0  0  0  0  0  0
  140.9240   75.9050  219.7660 N   0  0  0  0  0  0  0  0  0  0  0  0
  140.0300   76.8630  219.1530 C   0  0  0  0  0  0  0  0  0  0  0  0
  140.8680   77.6800  218.1540 C   0  0  0  0  0  0  0  0  0  0  0  0
  142.1700   78.1280  218.7190 C   0  0  0  0  0  0  0  0  0  0  0  0
  142.9800   76.9890  219.3590 C   0  0  0  0  0  0  0  0  0  0  0  0
  142.2170   75.7410  219.0690 C   0  0  1  0  0  0  0  0  0  0  0  0
  142.8890   74.4770  219.3060 C   0  0  0  0  0  0  0  0  0  0  0  0
  142.3160   73.2650  218.9370 C   0  0  0  0  0  0  0  0  0  0  0  0
  142.9080   72.0510  219.1740 C   0  0  0  0  0  0  0  0  0  0  0  0
  144.1150   71.9850  219.7980 C   0  0  0  0  0  0  0  0  0  0  0  0
  144.7090   73.1750  220.1770 C   0  0  0  0  0  0  0  0  0  0  0  0
  146.0290   73.0840  220.8590 C   0  0  0  0  0  0  0  0  0  0  0  0
  145.9100   73.0630  222.2370 F   0  0  0  0  0  0  0  0  0  0  0  0
  146.6210   71.9030  220.4500 F   0  0  0  0  0  0  0  0  0  0  0  0
  146.8620   74.1040  220.4380 F   0  0  0  0  0  0  0  0  0  0  0  0
  144.1150   74.3960  219.9390 C   0  0  0  0  0  0  0  0  0  0  0  0
  140.1040   71.2040  223.6830 C   0  0  0  0  0  0  0  0  0  0  0  0
  139.5750   69.9310  223.6670 C   0  0  0  0  0  0  0  0  0  0  0  0
  139.5200   69.2000  224.8280 C   0  0  0  0  0  0  0  0  0  0  0  0
  140.0060   69.7710  225.9970 C   0  0  0  0  0  0  0  0  0  0  0  0
  139.9690   69.0730  227.1770 C   0  0  0  0  0  0  0  0  0  0  0  0
  140.4440   69.6120  228.3560 C   0  0  0  0  0  0  0  0  0  0  0  0
  140.9700   70.8930  228.3400 C   0  0  0  0  0  0  0  0  0  0  0  0
  141.0080   71.6080  227.1400 C   0  0  0  0  0  0  0  0  0  0  0  0
  140.5320   71.0540  225.9780 C   0  0  0  0  0  0  0  0  0  0  0  0
  140.5720   71.7470  224.8240 N   0  0  0  0  0  0  0  0  0  0  0  0
  139.5090   73.7190  223.3050 H   0  0  0  0  0  0  0  0  0  0  0  0
  140.1857   73.1944  220.4068 H   0  0  0  0  0  0  0  0  0  0  0  0
  138.8139   74.3498  220.9817 H   0  0  0  0  0  0  0  0  0  0  0  0
  139.2180   76.3398  218.6268 H   0  0  0  0  0  0  0  0  0  0  0  0
  139.5731   77.5164  219.9108 H   0  0  0  0  0  0  0  0  0  0  0  0
  141.0653   77.0567  217.2694 H   0  0  0  0  0  0  0  0  0  0  0  0
  140.2913   78.5815  217.8998 H   0  0  0  0  0  0  0  0  0  0  0  0
  142.7687   78.5695  217.9086 H   0  0  0  0  0  0  0  0  0  0  0  0
  141.9470   78.8553  219.5136 H   0  0  0  0  0  0  0  0  0  0  0  0
  143.9851   76.9363  218.9151 H   0  0  0  0  0  0  0  0  0  0  0  0
  143.1131   77.1423  220.4401 H   0  0  0  0  0  0  0  0  0  0  0  0
  142.0859   75.6404  217.9815 H   0  0  0  0  0  0  0  0  0  0  0  0
  141.3399   73.2808  218.4301 H   0  0  0  0  0  0  0  0  0  0  0  0
  142.4042   71.1256  218.8579 H   0  0  0  0  0  0  0  0  0  0  0  0
  144.6018   71.0183  219.9944 H   0  0  0  0  0  0  0  0  0  0  0  0
  144.6235   75.3181  220.2571 H   0  0  0  0  0  0  0  0  0  0  0  0
  139.1980   69.5021  222.7268 H   0  0  0  0  0  0  0  0  0  0  0  0
  139.0998   68.1834  224.8321 H   0  0  0  0  0  0  0  0  0  0  0  0
  139.5495   68.0562  227.1843 H   0  0  0  0  0  0  0  0  0  0  0  0
  140.4053   69.0343  229.2913 H   0  0  0  0  0  0  0  0  0  0  0  0
  141.3554   71.3447  229.2659 H   0  0  0  0  0  0  0  0  0  0  0  0
  141.4240   72.6262  227.1265 H   0  0  0  0  0  0  0  0  0  0  0  0
  1  2  2  0
  2  3  1  0
  3  4  1  0
  4  5  1  0
  5  6  2  0
  5  7  1  0
  7  8  1  0
  8  9  1  0
  9 10  1  0
 10 11  1  0
 11 12  1  0
 12 13  1  0
 13 14  2  0
 14 15  1  0
 15 16  2  0
 16 17  1  0
 17 18  1  0
 18 19  1  0
 18 20  1  0
 18 21  1  0
 17 22  2  0
  2 23  1  0
 23 24  2  0
 24 25  1  0
 25 26  2  0
 26 27  1  0
 27 28  2  0
 28 29  1  0
 29 30  2  0
 30 31  1  0
 31 32  2  0
 12  7  1  0
 22 13  1  0
 32 23  1  0
 31 26  1  0
  3 33  1  0
  4 34  1  0
  4 35  1  0
  8 36  1  0
  8 37  1  0
  9 38  1  0
  9 39  1  0
 10 40  1  0
 10 41  1  0
 11 42  1  0
 11 43  1  0
 12 44  1  6
 14 45  1  0
 15 46  1  0
 16 47  1  0
 22 48  1  0
 24 49  1  0
 25 50  1  0
 27 51  1  0
 28 52  1  0
 29 53  1  0
 30 54  1  0
M  END
>  <smiles>  (79) 
O=C(NCC(=O)N1CCCCC1c1cccc(C(F)(F)F)c1)c1ccc2ccccc2n1

>  <score_type>  (79) 
oracle

>  <origin>  (79) 
autodockgpu

>  <m_score__min__energy>  (79) 
-8.9399999999999995

>  <m_primary>  (79) 
energy

>  <rmsd>  (79) 
1.8527749070016153

>  <m_score__min__rmsd>  (79) 
1.8527749070016153

>  <meeko>  (79) 
{"free_energy": -8.18, "intermolecular_energy": -9.97, "internal_energy": -1.95, "cluster_size": 16, "cluster_id": 2, "rank_in_cluster": 5}

>  <energy>  (79) 
-8.05

>  <cluster_rmsd>  (79) 
0.69

>  <cluster>  (79) 
2

$$$$

     RDKit          3D

 54 57  0  0  0  0  0  0  0  0999 V2000
  139.4050   71.0760  221.4760 O   0  0  0  0  0  0  0  0  0  0  0  0
  139.6250   71.5620  222.6180 C   0  0  0  0  0  0  0  0  0  0  0  0
  139.7690   73.0100  222.7050 N   0  0  0  0  0  0  0  0  0  0  0  0
  139.6440   73.7140  221.4740 C   0  0  0  0  0  0  0  0  0  0  0  0
  140.4060   74.9260  221.2390 C   0  0  0  0  0  0  0  0  0  0  0  0
  140.9470   75.4150  222.3260 O   0  0  0  0  0  0  0  0  0  0  0  0
  140.6680   75.6600  220.0760 N   0  0  0  0  0  0  0  0  0  0  0  0
  139.7550   76.5590  219.4040 C   0  0  0  0  0  0  0  0  0  0  0  0
  140.5870   77.3640  218.3900 C   0  0  0  0  0  0  0  0  0  0  0  0
  141.8590   77.8810  218.9650 C   0  0  0  0  0  0  0  0  0  0  0  0
  142.6940   76.7990  219.6700 C   0  0  0  0  0  0  0  0  0  0  0  0
  141.9820   75.5140  219.4160 C   0  0  1  0  0  0  0  0  0  0  0  0
  142.6910   74.2850  219.7200 C   0  0  0  0  0  0  0  0  0  0  0  0
  142.0820   73.0420  219.6010 C   0  0  0  0  0  0  0  0  0  0  0  0
  142.7130   71.8640  219.9110 C   0  0  0  0  0  0  0  0  0  0  0  0
  143.9980   71.8680  220.3590 C   0  0  0  0  0  0  0  0  0  0  0  0
  144.6300   73.0920  220.4880 C   0  0  0  0  0  0  0  0  0  0  0  0
  146.0340   73.0780  220.9800 C   0  0  0  0  0  0  0  0  0  0  0  0
  146.1080   73.0070  222.3600 F   0  0  0  0  0  0  0  0  0  0  0  0
  146.6440   71.9580  220.4480 F   0  0  0  0  0  0  0  0  0  0  0  0
  146.7280   74.1710  220.4920 F   0  0  0  0  0  0  0  0  0  0  0  0
  143.9960   74.2770  220.1770 C   0  0  0  0  0  0  0  0  0  0  0  0
  139.7380   70.7570  223.8220 C   0  0  0  0  0  0  0  0  0  0  0  0
  139.2500   69.4680  223.7660 C   0  0  0  0  0  0  0  0  0  0  0  0
  139.3290   68.6600  224.8730 C   0  0  0  0  0  0  0  0  0  0  0  0
  139.9040   69.1690  226.0300 C   0  0  0  0  0  0  0  0  0  0  0  0
  140.0010   68.3930  227.1550 C   0  0  0  0  0  0  0  0  0  0  0  0
  140.5670   68.8690  228.3210 C   0  0  0  0  0  0  0  0  0  0  0  0
  141.0480   70.1670  228.3470 C   0  0  0  0  0  0  0  0  0  0  0  0
  140.9510   70.9620  227.2020 C   0  0  0  0  0  0  0  0  0  0  0  0
  140.3840   70.4700  226.0520 C   0  0  0  0  0  0  0  0  0  0  0  0
  140.2940   71.2390  224.9510 N   0  0  0  0  0  0  0  0  0  0  0  0
  139.9320   73.3560  223.6540 H   0  0  0  0  0  0  0  0  0  0  0  0
  139.9212   73.0079  220.6774 H   0  0  0  0  0  0  0  0  0  0  0  0
  138.6054   74.0755  221.4997 H   0  0  0  0  0  0  0  0  0  0  0  0
  138.9744   75.9856  218.8826 H   0  0  0  0  0  0  0  0  0  0  0  0
  139.2576   77.2260  220.1236 H   0  0  0  0  0  0  0  0  0  0  0  0
  140.8268   76.7125  217.5368 H   0  0  0  0  0  0  0  0  0  0  0  0
  139.9853   78.2329  218.0851 H   0  0  0  0  0  0  0  0  0  0  0  0
  142.4608   78.3105  218.1505 H   0  0  0  0  0  0  0  0  0  0  0  0
  141.5915   78.6310  219.7239 H   0  0  0  0  0  0  0  0  0  0  0  0
  143.7103   76.7643  219.2505 H   0  0  0  0  0  0  0  0  0  0  0  0
  142.7970   77.0014  220.7463 H   0  0  0  0  0  0  0  0  0  0  0  0
  141.8810   75.3647  218.3309 H   0  0  0  0  0  0  0  0  0  0  0  0
  141.0435   73.0004  219.2407 H   0  0  0  0  0  0  0  0  0  0  0  0
  142.1769   70.9103  219.7967 H   0  0  0  0  0  0  0  0  0  0  0  0
  144.5162   70.9307  220.6098 H   0  0  0  0  0  0  0  0  0  0  0  0
  144.5358   75.2283  220.2941 H   0  0  0  0  0  0  0  0  0  0  0  0
  138.7989   69.0887  222.8372 H   0  0  0  0  0  0  0  0  0  0  0  0
  138.9444   67.6298  224.8441 H   0  0  0  0  0  0  0  0  0  0  0  0
  139.6174   67.3624  227.1286 H   0  0  0  0  0  0  0  0  0  0  0  0
  140.6345   68.2287  229.2129 H   0  0  0  0  0  0  0  0  0  0  0  0
  141.5038   70.5700  229.2635 H   0  0  0  0  0  0  0  0  0  0  0  0
  141.3330   71.9933  227.2219 H   0  0  0  0  0  0  0  0  0  0  0  0
  1  2  2  0
  2  3  1  0
  3  4  1  0
  4  5  1  0
  5  6  2  0
  5  7  1  0
  7  8  1  0
  8  9  1  0
  9 10  1  0
 10 11  1  0
 11 12  1  0
 12 13  1  0
 13 14  2  0
 14 15  1  0
 15 16  2  0
 16 17  1  0
 17 18  1  0
 18 19  1  0
 18 20  1  0
 18 21  1  0
 17 22  2  0
  2 23  1  0
 23 24  2  0
 24 25  1  0
 25 26  2  0
 26 27  1  0
 27 28  2  0
 28 29  1  0
 29 30  2  0
 30 31  1  0
 31 32  2  0
 12  7  1  0
 22 13  1  0
 32 23  1  0
 31 26  1  0
  3 33  1  0
  4 34  1  0
  4 35  1  0
  8 36  1  0
  8 37  1  0
  9 38  1  0
  9 39  1  0
 10 40  1  0
 10 41  1  0
 11 42  1  0
 11 43  1  0
 12 44  1  6
 14 45  1  0
 15 46  1  0
 16 47  1  0
 22 48  1  0
 24 49  1  0
 25 50  1  0
 27 51  1  0
 28 52  1  0
 29 53  1  0
 30 54  1  0
M  END
>  <smiles>  (80) 
O=C(NCC(=O)N1CCCCC1c1cccc(C(F)(F)F)c1)c1ccc2ccccc2n1

>  <score_type>  (80) 
oracle

>  <origin>  (80) 
autodockgpu

>  <m_score__min__energy>  (80) 
-8.9399999999999995

>  <m_primary>  (80) 
energy

>  <rmsd>  (80) 
1.7012117154736728

>  <m_score__min__rmsd>  (80) 
1.7012117154736728

>  <meeko>  (80) 
{"free_energy": -8.15, "intermolecular_energy": -9.94, "internal_energy": -1.97, "cluster_size": 16, "cluster_id": 2, "rank_in_cluster": 7}

>  <energy>  (80) 
-8.0

>  <cluster_rmsd>  (80) 
1.64

>  <cluster>  (80) 
2

$$$$

     RDKit          3D

 54 57  0  0  0  0  0  0  0  0999 V2000
  141.0060   71.6820  221.4240 O   0  0  0  0  0  0  0  0  0  0  0  0
  140.3380   72.0910  222.4110 C   0  0  0  0  0  0  0  0  0  0  0  0
  139.6290   73.3540  222.2530 N   0  0  0  0  0  0  0  0  0  0  0  0
  139.7760   73.9860  220.9870 C   0  0  0  0  0  0  0  0  0  0  0  0
  140.7890   75.0060  220.7870 C   0  0  0  0  0  0  0  0  0  0  0  0
  141.4140   75.3360  221.8890 O   0  0  0  0  0  0  0  0  0  0  0  0
  141.2160   75.6950  219.6460 N   0  0  0  0  0  0  0  0  0  0  0  0
  140.4180   76.5810  218.8280 C   0  0  0  0  0  0  0  0  0  0  0  0
  141.3920   77.3380  217.9080 C   0  0  0  0  0  0  0  0  0  0  0  0
  142.5850   77.8580  218.6300 C   0  0  0  0  0  0  0  0  0  0  0  0
  143.2990   76.7910  219.4760 C   0  0  0  0  0  0  0  0  0  0  0  0
  142.6040   75.5080  219.1730 C   0  0  1  0  0  0  0  0  0  0  0  0
  143.2440   74.2810  219.6110 C   0  0  0  0  0  0  0  0  0  0  0  0
  144.3230   74.2940  220.4870 C   0  0  0  0  0  0  0  0  0  0  0  0
  144.9720   73.1560  220.8960 C   0  0  0  0  0  0  0  0  0  0  0  0
  144.5710   71.9360  220.4460 C   0  0  0  0  0  0  0  0  0  0  0  0
  143.4990   71.8930  219.5720 C   0  0  0  0  0  0  0  0  0  0  0  0
  143.0740   70.5510  219.0900 C   0  0  0  0  0  0  0  0  0  0  0  0
  142.4550   69.8070  220.0780 F   0  0  0  0  0  0  0  0  0  0  0  0
  142.1740   70.7530  218.0600 F   0  0  0  0  0  0  0  0  0  0  0  0
  144.1470   69.8710  218.5430 F   0  0  0  0  0  0  0  0  0  0  0  0
  142.8460   73.0370  219.1610 C   0  0  0  0  0  0  0  0  0  0  0  0
  140.2480   71.3710  223.6700 C   0  0  0  0  0  0  0  0  0  0  0  0
  139.6690   70.1200  223.6400 C   0  0  0  0  0  0  0  0  0  0  0  0
  139.5550   69.3920  224.7980 C   0  0  0  0  0  0  0  0  0  0  0  0
  140.0340   69.9410  225.9800 C   0  0  0  0  0  0  0  0  0  0  0  0
  139.9400   69.2460  227.1570 C   0  0  0  0  0  0  0  0  0  0  0  0
  140.4060   69.7650  228.3490 C   0  0  0  0  0  0  0  0  0  0  0  0
  140.9830   71.0230  228.3470 C   0  0  0  0  0  0  0  0  0  0  0  0
  141.0810   71.7360  227.1500 C   0  0  0  0  0  0  0  0  0  0  0  0
  140.6120   71.2020  225.9750 C   0  0  0  0  0  0  0  0  0  0  0  0
  140.7090   71.8930  224.8240 N   0  0  0  0  0  0  0  0  0  0  0  0
  139.0900   73.6360  223.0770 H   0  0  0  0  0  0  0  0  0  0  0  0
  139.9836   73.1883  220.2586 H   0  0  0  0  0  0  0  0  0  0  0  0
  138.8355   74.5463  220.8791 H   0  0  0  0  0  0  0  0  0  0  0  0
  139.7038   75.9997  218.2264 H   0  0  0  0  0  0  0  0  0  0  0  0
  139.8414   77.2801  219.4515 H   0  0  0  0  0  0  0  0  0  0  0  0
  141.7314   76.6532  217.1169 H   0  0  0  0  0  0  0  0  0  0  0  0
  140.8521   78.2035  217.4965 H   0  0  0  0  0  0  0  0  0  0  0  0
  143.2975   78.2501  217.8893 H   0  0  0  0  0  0  0  0  0  0  0  0
  142.2324   78.6381  219.3208 H   0  0  0  0  0  0  0  0  0  0  0  0
  144.3612   76.7274  219.1972 H   0  0  0  0  0  0  0  0  0  0  0  0
  143.2618   77.0304  220.5490 H   0  0  0  0  0  0  0  0  0  0  0  0
  142.6456   75.3214  218.0897 H   0  0  0  0  0  0  0  0  0  0  0  0
  144.6737   75.2633  220.8711 H   0  0  0  0  0  0  0  0  0  0  0  0
  145.8210   73.2305  221.5914 H   0  0  0  0  0  0  0  0  0  0  0  0
  145.0814   71.0156  220.7660 H   0  0  0  0  0  0  0  0  0  0  0  0
  141.9972   72.9574  218.4658 H   0  0  0  0  0  0  0  0  0  0  0  0
  139.2993   69.7063  222.6902 H   0  0  0  0  0  0  0  0  0  0  0  0
  139.0934   68.3936  224.7898 H   0  0  0  0  0  0  0  0  0  0  0  0
  139.4805   68.2466  227.1524 H   0  0  0  0  0  0  0  0  0  0  0  0
  140.3202   69.1894  229.2824 H   0  0  0  0  0  0  0  0  0  0  0  0
  141.3623   71.4589  229.2830 H   0  0  0  0  0  0  0  0  0  0  0  0
  141.5388   72.7362  227.1485 H   0  0  0  0  0  0  0  0  0  0  0  0
  1  2  2  0
  2  3  1  0
  3  4  1  0
  4  5  1  0
  5  6  2  0
  5  7  1  0
  7  8  1  0
  8  9  1  0
  9 10  1  0
 10 11  1  0
 11 12  1  0
 12 13  1  0
 13 14  2  0
 14 15  1  0
 15 16  2  0
 16 17  1  0
 17 18  1  0
 18 19  1  0
 18 20  1  0
 18 21  1  0
 17 22  2  0
  2 23  1  0
 23 24  2  0
 24 25  1  0
 25 26  2  0
 26 27  1  0
 27 28  2  0
 28 29  1  0
 29 30  2  0
 30 31  1  0
 31 32  2  0
 12  7  1  0
 22 13  1  0
 32 23  1  0
 31 26  1  0
  3 33  1  0
  4 34  1  0
  4 35  1  0
  8 36  1  0
  8 37  1  0
  9 38  1  0
  9 39  1  0
 10 40  1  0
 10 41  1  0
 11 42  1  0
 11 43  1  0
 12 44  1  6
 14 45  1  0
 15 46  1  0
 16 47  1  0
 22 48  1  0
 24 49  1  0
 25 50  1  0
 27 51  1  0
 28 52  1  0
 29 53  1  0
 30 54  1  0
M  END
>  <smiles>  (81) 
O=C(NCC(=O)N1CCCCC1c1cccc(C(F)(F)F)c1)c1ccc2ccccc2n1

>  <score_type>  (81) 
oracle

>  <origin>  (81) 
autodockgpu

>  <m_score__min__energy>  (81) 
-8.9399999999999995

>  <m_primary>  (81) 
energy

>  <rmsd>  (81) 
1.9496657375256443

>  <m_score__min__rmsd>  (81) 
1.9496657375256443

>  <meeko>  (81) 
{"free_energy": -8.0, "intermolecular_energy": -9.79, "internal_energy": -2.08, "cluster_size": 16, "cluster_id": 2, "rank_in_cluster": 11}

>  <energy>  (81) 
-8.0

>  <cluster_rmsd>  (81) 
1.38

>  <cluster>  (81) 
2

$$$$

     RDKit          3D

 54 57  0  0  0  0  0  0  0  0999 V2000
  140.8830   72.3390  221.2050 O   0  0  0  0  0  0  0  0  0  0  0  0
  140.2770   72.7010  222.2480 C   0  0  0  0  0  0  0  0  0  0  0  0
  139.6720   74.0280  222.2360 N   0  0  0  0  0  0  0  0  0  0  0  0
  139.8410   74.7680  221.0330 C   0  0  0  0  0  0  0  0  0  0  0  0
  139.1900   76.0530  220.8610 C   0  0  0  0  0  0  0  0  0  0  0  0
  138.1270   75.9950  220.0990 O   0  0  0  0  0  0  0  0  0  0  0  0
  139.4840   77.3290  221.3560 N   0  0  0  0  0  0  0  0  0  0  0  0
  138.5490   78.2510  221.9640 C   0  0  0  0  0  0  0  0  0  0  0  0
  139.3840   79.3560  222.6340 C   0  0  0  0  0  0  0  0  0  0  0  0
  140.5280   78.8210  223.4220 C   0  0  0  0  0  0  0  0  0  0  0  0
  141.4020   77.8320  222.6340 C   0  0  0  0  0  0  0  0  0  0  0  0
  140.8650   77.8410  221.2440 C   0  0  1  0  0  0  0  0  0  0  0  0
  141.6720   77.2170  220.2110 C   0  0  0  0  0  0  0  0  0  0  0  0
  141.6560   77.6720  218.8980 C   0  0  0  0  0  0  0  0  0  0  0  0
  142.3820   77.0860  217.8920 C   0  0  0  0  0  0  0  0  0  0  0  0
  143.1670   76.0050  218.1490 C   0  0  0  0  0  0  0  0  0  0  0  0
  143.2010   75.5300  219.4480 C   0  0  0  0  0  0  0  0  0  0  0  0
  144.0650   74.3470  219.7120 C   0  0  0  0  0  0  0  0  0  0  0  0
  145.1540   74.6560  220.5060 F   0  0  0  0  0  0  0  0  0  0  0  0
  143.2890   73.4130  220.3720 F   0  0  0  0  0  0  0  0  0  0  0  0
  144.4570   73.7590  218.5230 F   0  0  0  0  0  0  0  0  0  0  0  0
  142.4730   76.1190  220.4600 C   0  0  0  0  0  0  0  0  0  0  0  0
  140.1570   71.8700  223.4340 C   0  0  0  0  0  0  0  0  0  0  0  0
  139.4690   70.6820  223.3030 C   0  0  0  0  0  0  0  0  0  0  0  0
  139.3230   69.8540  224.3890 C   0  0  0  0  0  0  0  0  0  0  0  0
  139.8790   70.2410  225.6000 C   0  0  0  0  0  0  0  0  0  0  0  0
  139.7560   69.4420  226.7070 C   0  0  0  0  0  0  0  0  0  0  0  0
  140.2970   69.7990  227.9260 C   0  0  0  0  0  0  0  0  0  0  0  0
  140.9830   70.9980  228.0270 C   0  0  0  0  0  0  0  0  0  0  0  0
  141.1110   71.8150  226.9010 C   0  0  0  0  0  0  0  0  0  0  0  0
  140.5660   71.4430  225.6980 C   0  0  0  0  0  0  0  0  0  0  0  0
  140.6930   72.2340  224.6160 N   0  0  0  0  0  0  0  0  0  0  0  0
  139.1790   74.2690  223.1000 H   0  0  0  0  0  0  0  0  0  0  0  0
  140.9209   74.9444  220.9207 H   0  0  0  0  0  0  0  0  0  0  0  0
  139.3435   74.1364  220.2823 H   0  0  0  0  0  0  0  0  0  0  0  0
  137.8926   78.6859  221.1958 H   0  0  0  0  0  0  0  0  0  0  0  0
  137.9115   77.7382  222.6993 H   0  0  0  0  0  0  0  0  0  0  0  0
  139.7776   80.0215  221.8516 H   0  0  0  0  0  0  0  0  0  0  0  0
  138.7237   79.8907  223.3326 H   0  0  0  0  0  0  0  0  0  0  0  0
  141.1571   79.6652  223.7406 H   0  0  0  0  0  0  0  0  0  0  0  0
  140.1055   78.2719  224.2764 H   0  0  0  0  0  0  0  0  0  0  0  0
  142.4526   78.1577  222.6417 H   0  0  0  0  0  0  0  0  0  0  0  0
  141.3741   76.8243  223.0743 H   0  0  0  0  0  0  0  0  0  0  0  0
  140.8896   78.8691  220.8537 H   0  0  0  0  0  0  0  0  0  0  0  0
  141.0313   78.5438  218.6535 H   0  0  0  0  0  0  0  0  0  0  0  0
  142.3290   77.4928  216.8713 H   0  0  0  0  0  0  0  0  0  0  0  0
  143.7541   75.5254  217.3519 H   0  0  0  0  0  0  0  0  0  0  0  0
  142.5307   75.7093  221.4792 H   0  0  0  0  0  0  0  0  0  0  0  0
  139.0383   70.3983  222.3314 H   0  0  0  0  0  0  0  0  0  0  0  0
  138.7765   68.9035  224.3006 H   0  0  0  0  0  0  0  0  0  0  0  0
  139.2112   68.4902  226.6218 H   0  0  0  0  0  0  0  0  0  0  0  0
  140.1852   69.1427  228.8017 H   0  0  0  0  0  0  0  0  0  0  0  0
  141.4239   71.3048  228.9869 H   0  0  0  0  0  0  0  0  0  0  0  0
  141.6551   72.7678  226.9798 H   0  0  0  0  0  0  0  0  0  0  0  0
  1  2  2  0
  2  3  1  0
  3  4  1  0
  4  5  1  0
  5  6  2  0
  5  7  1  0
  7  8  1  0
  8  9  1  0
  9 10  1  0
 10 11  1  0
 11 12  1  0
 12 13  1  0
 13 14  2  0
 14 15  1  0
 15 16  2  0
 16 17  1  0
 17 18  1  0
 18 19  1  0
 18 20  1  0
 18 21  1  0
 17 22  2  0
  2 23  1  0
 23 24  2  0
 24 25  1  0
 25 26  2  0
 26 27  1  0
 27 28  2  0
 28 29  1  0
 29 30  2  0
 30 31  1  0
 31 32  2  0
 12  7  1  0
 22 13  1  0
 32 23  1  0
 31 26  1  0
  3 33  1  0
  4 34  1  0
  4 35  1  0
  8 36  1  0
  8 37  1  0
  9 38  1  0
  9 39  1  0
 10 40  1  0
 10 41  1  0
 11 42  1  0
 11 43  1  0
 12 44  1  6
 14 45  1  0
 15 46  1  0
 16 47  1  0
 22 48  1  0
 24 49  1  0
 25 50  1  0
 27 51  1  0
 28 52  1  0
 29 53  1  0
 30 54  1  0
M  END
>  <smiles>  (82) 
O=C(NCC(=O)N1CCCCC1c1cccc(C(F)(F)F)c1)c1ccc2ccccc2n1

>  <score_type>  (82) 
oracle

>  <origin>  (82) 
autodockgpu

>  <m_score__min__energy>  (82) 
-8.9399999999999995

>  <m_primary>  (82) 
energy

>  <rmsd>  (82) 
3.167591394002566

>  <m_score__min__rmsd>  (82) 
3.167591394002566

>  <meeko>  (82) 
{"free_energy": -7.68, "intermolecular_energy": -9.47, "internal_energy": -1.59, "cluster_size": 1, "cluster_id": 6, "rank_in_cluster": 1}

>  <energy>  (82) 
-7.92

>  <cluster_rmsd>  (82) 
1.49

>  <cluster>  (82) 
2

$$$$

     RDKit          3D

 54 57  0  0  0  0  0  0  0  0999 V2000
  139.8100   71.1130  221.2100 O   0  0  0  0  0  0  0  0  0  0  0  0
  139.6540   71.7560  222.2830 C   0  0  0  0  0  0  0  0  0  0  0  0
  139.3070   73.1660  222.1650 N   0  0  0  0  0  0  0  0  0  0  0  0
  139.1850   73.6590  220.8360 C   0  0  0  0  0  0  0  0  0  0  0  0
  140.3670   73.9520  220.0480 C   0  0  0  0  0  0  0  0  0  0  0  0
  140.0920   74.4340  218.8620 O   0  0  0  0  0  0  0  0  0  0  0  0
  141.7340   73.8160  220.3180 N   0  0  0  0  0  0  0  0  0  0  0  0
  142.4560   72.5740  220.4900 C   0  0  0  0  0  0  0  0  0  0  0  0
  143.9550   72.9190  220.4390 C   0  0  0  0  0  0  0  0  0  0  0  0
  144.3000   73.8370  219.3180 C   0  0  0  0  0  0  0  0  0  0  0  0
  143.4150   75.0920  219.2640 C   0  0  0  0  0  0  0  0  0  0  0  0
  142.5580   75.0320  220.4820 C   0  0  1  0  0  0  0  0  0  0  0  0
  141.8220   76.2300  220.8420 C   0  0  0  0  0  0  0  0  0  0  0  0
  141.0020   76.2750  221.9630 C   0  0  0  0  0  0  0  0  0  0  0  0
  140.2690   77.3800  222.3140 C   0  0  0  0  0  0  0  0  0  0  0  0
  140.3190   78.5080  221.5550 C   0  0  0  0  0  0  0  0  0  0  0  0
  141.1270   78.4930  220.4330 C   0  0  0  0  0  0  0  0  0  0  0  0
  141.1690   79.7350  219.6140 C   0  0  0  0  0  0  0  0  0  0  0  0
  141.1230   80.8790  220.3900 F   0  0  0  0  0  0  0  0  0  0  0  0
  142.3620   79.7240  218.9160 F   0  0  0  0  0  0  0  0  0  0  0  0
  140.1620   79.7250  218.6670 F   0  0  0  0  0  0  0  0  0  0  0  0
  141.8650   77.3820  220.0790 C   0  0  0  0  0  0  0  0  0  0  0  0
  139.8020   71.1610  223.6000 C   0  0  0  0  0  0  0  0  0  0  0  0
  139.4090   69.8480  223.7460 C   0  0  0  0  0  0  0  0  0  0  0  0
  139.5240   69.2320  224.9680 C   0  0  0  0  0  0  0  0  0  0  0  0
  140.0410   69.9570  226.0330 C   0  0  0  0  0  0  0  0  0  0  0  0
  140.1720   69.3780  227.2680 C   0  0  0  0  0  0  0  0  0  0  0  0
  140.6820   70.0730  228.3470 C   0  0  0  0  0  0  0  0  0  0  0  0
  141.0680   71.3900  228.1700 C   0  0  0  0  0  0  0  0  0  0  0  0
  140.9360   71.9850  226.9130 C   0  0  0  0  0  0  0  0  0  0  0  0
  140.4270   71.2770  225.8520 C   0  0  0  0  0  0  0  0  0  0  0  0
  140.3020   71.8550  224.6420 N   0  0  0  0  0  0  0  0  0  0  0  0
  139.1770   73.6400  223.0640 H   0  0  0  0  0  0  0  0  0  0  0  0
  138.6091   72.9094  220.2735 H   0  0  0  0  0  0  0  0  0  0  0  0
  138.7321   74.6509  220.9808 H   0  0  0  0  0  0  0  0  0  0  0  0
  142.2046   72.1214  221.4605 H   0  0  0  0  0  0  0  0  0  0  0  0
  142.1907   71.8517  219.7040 H   0  0  0  0  0  0  0  0  0  0  0  0
  144.2368   73.4009  221.3868 H   0  0  0  0  0  0  0  0  0  0  0  0
  144.5049   71.9800  220.2782 H   0  0  0  0  0  0  0  0  0  0  0  0
  145.3470   74.1532  219.4356 H   0  0  0  0  0  0  0  0  0  0  0  0
  144.1362   73.2831  218.3819 H   0  0  0  0  0  0  0  0  0  0  0  0
  144.0356   76.0001  219.2758 H   0  0  0  0  0  0  0  0  0  0  0  0
  142.8126   75.1255  218.3442 H   0  0  0  0  0  0  0  0  0  0  0  0
  143.1999   74.9757  221.3735 H   0  0  0  0  0  0  0  0  0  0  0  0
  140.9376   75.3806  222.6001 H   0  0  0  0  0  0  0  0  0  0  0  0
  139.6373   77.3540  223.2141 H   0  0  0  0  0  0  0  0  0  0  0  0
  139.7366   79.4014  221.8247 H   0  0  0  0  0  0  0  0  0  0  0  0
  142.4955   77.4134  219.1782 H   0  0  0  0  0  0  0  0  0  0  0  0
  139.0042   69.2948  222.8857 H   0  0  0  0  0  0  0  0  0  0  0  0
  139.2128   68.1853  225.1002 H   0  0  0  0  0  0  0  0  0  0  0  0
  139.8625   68.3312  227.4037 H   0  0  0  0  0  0  0  0  0  0  0  0
  140.7796   69.5883  229.3296 H   0  0  0  0  0  0  0  0  0  0  0  0
  141.4764   71.9650  229.0141 H   0  0  0  0  0  0  0  0  0  0  0  0
  141.2430   73.0318  226.7715 H   0  0  0  0  0  0  0  0  0  0  0  0
  1  2  2  0
  2  3  1  0
  3  4  1  0
  4  5  1  0
  5  6  2  0
  5  7  1  0
  7  8  1  0
  8  9  1  0
  9 10  1  0
 10 11  1  0
 11 12  1  0
 12 13  1  0
 13 14  2  0
 14 15  1  0
 15 16  2  0
 16 17  1  0
 17 18  1  0
 18 19  1  0
 18 20  1  0
 18 21  1  0
 17 22  2  0
  2 23  1  0
 23 24  2  0
 24 25  1  0
 25 26  2  0
 26 27  1  0
 27 28  2  0
 28 29  1  0
 29 30  2  0
 30 31  1  0
 31 32  2  0
 12  7  1  0
 22 13  1  0
 32 23  1  0
 31 26  1  0
  3 33  1  0
  4 34  1  0
  4 35  1  0
  8 36  1  0
  8 37  1  0
  9 38  1  0
  9 39  1  0
 10 40  1  0
 10 41  1  0
 11 42  1  0
 11 43  1  0
 12 44  1  1
 14 45  1  0
 15 46  1  0
 16 47  1  0
 22 48  1  0
 24 49  1  0
 25 50  1  0
 27 51  1  0
 28 52  1  0
 29 53  1  0
 30 54  1  0
M  END
>  <smiles>  (83) 
O=C(NCC(=O)N1CCCCC1c1cccc(C(F)(F)F)c1)c1ccc2ccccc2n1

>  <score_type>  (83) 
oracle

>  <origin>  (83) 
autodockgpu

>  <m_score__min__energy>  (83) 
-8.9399999999999995

>  <m_primary>  (83) 
energy

>  <rmsd>  (83) 
2.6055243191472313

>  <m_score__min__rmsd>  (83) 
2.6055243191472313

>  <meeko>  (83) 
{"free_energy": -7.85, "intermolecular_energy": -9.64, "internal_energy": -1.94, "cluster_size": 5, "cluster_id": 3, "rank_in_cluster": 3}

>  <energy>  (83) 
-7.84

>  <cluster_rmsd>  (83) 
1.53

>  <cluster>  (83) 
2

$$$$

     RDKit          3D

 54 57  0  0  0  0  0  0  0  0999 V2000
  140.1980   71.4090  221.3100 O   0  0  0  0  0  0  0  0  0  0  0  0
  140.0070   71.9420  222.4350 C   0  0  0  0  0  0  0  0  0  0  0  0
  139.7340   73.3740  222.4520 N   0  0  0  0  0  0  0  0  0  0  0  0
  139.7160   74.0100  221.1790 C   0  0  0  0  0  0  0  0  0  0  0  0
  140.5470   75.1710  220.9240 C   0  0  0  0  0  0  0  0  0  0  0  0
  141.0850   75.6690  222.0090 O   0  0  0  0  0  0  0  0  0  0  0  0
  140.8780   75.8500  219.7460 N   0  0  0  0  0  0  0  0  0  0  0  0
  140.0280   76.7630  219.0130 C   0  0  0  0  0  0  0  0  0  0  0  0
  140.9260   77.4930  217.9990 C   0  0  0  0  0  0  0  0  0  0  0  0
  142.2030   77.9730  218.5970 C   0  0  0  0  0  0  0  0  0  0  0  0
  142.9650   76.8820  219.3650 C   0  0  0  0  0  0  0  0  0  0  0  0
  142.2030   75.6220  219.1340 C   0  0  1  0  0  0  0  0  0  0  0  0
  142.8470   74.3750  219.5040 C   0  0  0  0  0  0  0  0  0  0  0  0
  142.1950   73.1530  219.3830 C   0  0  0  0  0  0  0  0  0  0  0  0
  142.7620   71.9600  219.7530 C   0  0  0  0  0  0  0  0  0  0  0  0
  144.0210   71.9260  220.2680 C   0  0  0  0  0  0  0  0  0  0  0  0
  144.6930   73.1270  220.4010 C   0  0  0  0  0  0  0  0  0  0  0  0
  146.0680   73.0720  220.9660 C   0  0  0  0  0  0  0  0  0  0  0  0
  146.0680   73.0000  222.3470 F   0  0  0  0  0  0  0  0  0  0  0  0
  146.6720   71.9340  220.4650 F   0  0  0  0  0  0  0  0  0  0  0  0
  146.8200   74.1430  220.5160 F   0  0  0  0  0  0  0  0  0  0  0  0
  144.1250   74.3270  220.0280 C   0  0  0  0  0  0  0  0  0  0  0  0
  140.0470   71.2060  223.6870 C   0  0  0  0  0  0  0  0  0  0  0  0
  139.5760   69.9100  223.6700 C   0  0  0  0  0  0  0  0  0  0  0  0
  139.5880   69.1640  224.8230 C   0  0  0  0  0  0  0  0  0  0  0  0
  140.0800   69.7420  225.9850 C   0  0  0  0  0  0  0  0  0  0  0  0
  140.1090   69.0300  227.1550 C   0  0  0  0  0  0  0  0  0  0  0  0
  140.5920   69.5760  228.3280 C   0  0  0  0  0  0  0  0  0  0  0  0
  141.0580   70.8800  228.3140 C   0  0  0  0  0  0  0  0  0  0  0  0
  141.0300   71.6090  227.1230 C   0  0  0  0  0  0  0  0  0  0  0  0
  140.5460   71.0480  225.9670 C   0  0  0  0  0  0  0  0  0  0  0  0
  140.5230   71.7550  224.8220 N   0  0  0  0  0  0  0  0  0  0  0  0
  139.5710   73.7560  223.3880 H   0  0  0  0  0  0  0  0  0  0  0  0
  140.0058   73.2470  220.4415 H   0  0  0  0  0  0  0  0  0  0  0  0
  138.6963   74.4184  221.1211 H   0  0  0  0  0  0  0  0  0  0  0  0
  139.2390   76.2056  218.4870 H   0  0  0  0  0  0  0  0  0  0  0  0
  139.5394   77.4773  219.6920 H   0  0  0  0  0  0  0  0  0  0  0  0
  141.1615   76.8013  217.1768 H   0  0  0  0  0  0  0  0  0  0  0  0
  140.3743   78.3764  217.6450 H   0  0  0  0  0  0  0  0  0  0  0  0
  142.8486   78.3455  217.7880 H   0  0  0  0  0  0  0  0  0  0  0  0
  141.9469   78.7609  219.3206 H   0  0  0  0  0  0  0  0  0  0  0  0
  143.9908   76.7864  218.9795 H   0  0  0  0  0  0  0  0  0  0  0  0
  143.0445   77.1187  220.4363 H   0  0  0  0  0  0  0  0  0  0  0  0
  142.1269   75.4375  218.0523 H   0  0  0  0  0  0  0  0  0  0  0  0
  141.1753   73.1423  218.9706 H   0  0  0  0  0  0  0  0  0  0  0  0
  142.1953   71.0249  219.6326 H   0  0  0  0  0  0  0  0  0  0  0  0
  144.4878   70.9762  220.5680 H   0  0  0  0  0  0  0  0  0  0  0  0
  144.6969   75.2588  220.1492 H   0  0  0  0  0  0  0  0  0  0  0  0
  139.1918   69.4750  222.7356 H   0  0  0  0  0  0  0  0  0  0  0  0
  139.2151   68.1291  224.8255 H   0  0  0  0  0  0  0  0  0  0  0  0
  139.7373   67.9947  227.1603 H   0  0  0  0  0  0  0  0  0  0  0  0
  140.6063   68.9860  229.2563 H   0  0  0  0  0  0  0  0  0  0  0  0
  141.4476   71.3386  229.2348 H   0  0  0  0  0  0  0  0  0  0  0  0
  141.4001   72.6448  227.1110 H   0  0  0  0  0  0  0  0  0  0  0  0
  1  2  2  0
  2  3  1  0
  3  4  1  0
  4  5  1  0
  5  6  2  0
  5  7  1  0
  7  8  1  0
  8  9  1  0
  9 10  1  0
 10 11  1  0
 11 12  1  0
 12 13  1  0
 13 14  2  0
 14 15  1  0
 15 16  2  0
 16 17  1  0
 17 18  1  0
 18 19  1  0
 18 20  1  0
 18 21  1  0
 17 22  2  0
  2 23  1  0
 23 24  2  0
 24 25  1  0
 25 26  2  0
 26 27  1  0
 27 28  2  0
 28 29  1  0
 29 30  2  0
 30 31  1  0
 31 32  2  0
 12  7  1  0
 22 13  1  0
 32 23  1  0
 31 26  1  0
  3 33  1  0
  4 34  1  0
  4 35  1  0
  8 36  1  0
  8 37  1  0
  9 38  1  0
  9 39  1  0
 10 40  1  0
 10 41  1  0
 11 42  1  0
 11 43  1  0
 12 44  1  6
 14 45  1  0
 15 46  1  0
 16 47  1  0
 22 48  1  0
 24 49  1  0
 25 50  1  0
 27 51  1  0
 28 52  1  0
 29 53  1  0
 30 54  1  0
M  END
>  <smiles>  (84) 
O=C(NCC(=O)N1CCCCC1c1cccc(C(F)(F)F)c1)c1ccc2ccccc2n1

>  <score_type>  (84) 
oracle

>  <origin>  (84) 
autodockgpu

>  <m_score__min__energy>  (84) 
-8.9399999999999995

>  <m_primary>  (84) 
energy

>  <rmsd>  (84) 
1.8004506541096994

>  <m_score__min__rmsd>  (84) 
1.8004506541096994

>  <meeko>  (84) 
{"free_energy": -8.32, "intermolecular_energy": -10.11, "internal_energy": -1.93, "cluster_size": 16, "cluster_id": 2, "rank_in_cluster": 1}

>  <energy>  (84) 
-7.79

>  <cluster_rmsd>  (84) 
1.41

>  <cluster>  (84) 
2

$$$$

     RDKit          3D

 54 57  0  0  0  0  0  0  0  0999 V2000
  139.5720   74.3910  221.9750 O   0  0  0  0  0  0  0  0  0  0  0  0
  140.7290   74.7890  221.6750 C   0  0  0  0  0  0  0  0  0  0  0  0
  141.0060   76.2100  221.8450 N   0  0  0  0  0  0  0  0  0  0  0  0
  139.9220   76.9910  222.3350 C   0  0  0  0  0  0  0  0  0  0  0  0
  139.8110   78.3950  221.9860 C   0  0  0  0  0  0  0  0  0  0  0  0
  138.8930   78.6320  221.0840 O   0  0  0  0  0  0  0  0  0  0  0  0
  140.4960   79.5310  222.4320 N   0  0  0  0  0  0  0  0  0  0  0  0
  140.1210   80.3800  223.5420 C   0  0  0  0  0  0  0  0  0  0  0  0
  141.3320   81.2800  223.8450 C   0  0  0  0  0  0  0  0  0  0  0  0
  142.6180   80.5310  223.8770 C   0  0  0  0  0  0  0  0  0  0  0  0
  142.8440   79.6550  222.6340 C   0  0  0  0  0  0  0  0  0  0  0  0
  141.7130   79.9640  221.7140 C   0  0  1  0  0  0  0  0  0  0  0  0
  141.8190   79.4960  220.3440 C   0  0  0  0  0  0  0  0  0  0  0  0
  141.5160   80.3190  219.2660 C   0  0  0  0  0  0  0  0  0  0  0  0
  141.5750   79.9000  217.9610 C   0  0  0  0  0  0  0  0  0  0  0  0
  141.9430   78.6240  217.6640 C   0  0  0  0  0  0  0  0  0  0  0  0
  142.2500   77.7820  218.7180 C   0  0  0  0  0  0  0  0  0  0  0  0
  142.6500   76.3900  218.3750 C   0  0  0  0  0  0  0  0  0  0  0  0
  143.7740   75.9790  219.0690 F   0  0  0  0  0  0  0  0  0  0  0  0
  141.5950   75.5650  218.7170 F   0  0  0  0  0  0  0  0  0  0  0  0
  142.8230   76.2580  217.0090 F   0  0  0  0  0  0  0  0  0  0  0  0
  142.1920   78.2030  220.0300 C   0  0  0  0  0  0  0  0  0  0  0  0
  141.7750   73.9090  221.1790 C   0  0  0  0  0  0  0  0  0  0  0  0
  141.4060   72.6280  220.8290 C   0  0  0  0  0  0  0  0  0  0  0  0
  142.3500   71.7510  220.3550 C   0  0  0  0  0  0  0  0  0  0  0  0
  143.6630   72.1850  220.2390 C   0  0  0  0  0  0  0  0  0  0  0  0
  144.6340   71.3400  219.7690 C   0  0  0  0  0  0  0  0  0  0  0  0
  145.9490   71.7420  219.6410 C   0  0  0  0  0  0  0  0  0  0  0  0
  146.2890   73.0350  220.0010 C   0  0  0  0  0  0  0  0  0  0  0  0
  145.3030   73.9000  220.4810 C   0  0  0  0  0  0  0  0  0  0  0  0
  144.0000   73.4810  220.5990 C   0  0  0  0  0  0  0  0  0  0  0  0
  143.0530   74.3190  221.0620 N   0  0  0  0  0  0  0  0  0  0  0  0
  141.9640   76.4800  221.6030 H   0  0  0  0  0  0  0  0  0  0  0  0
  138.9994   76.5050  221.9849 H   0  0  0  0  0  0  0  0  0  0  0  0
  140.1062   77.0186  223.4191 H   0  0  0  0  0  0  0  0  0  0  0  0
  139.2507   80.9955  223.2704 H   0  0  0  0  0  0  0  0  0  0  0  0
  139.8465   79.7796  224.4219 H   0  0  0  0  0  0  0  0  0  0  0  0
  141.3966   82.0549  223.0669 H   0  0  0  0  0  0  0  0  0  0  0  0
  141.1784   81.7141  224.8440 H   0  0  0  0  0  0  0  0  0  0  0  0
  143.4423   81.2559  223.9475 H   0  0  0  0  0  0  0  0  0  0  0  0
  142.5811   79.8584  224.7466 H   0  0  0  0  0  0  0  0  0  0  0  0
  143.8043   79.9036  222.1587 H   0  0  0  0  0  0  0  0  0  0  0  0
  142.8790   78.5860  222.8907 H   0  0  0  0  0  0  0  0  0  0  0  0
  141.7019   81.0439  221.5048 H   0  0  0  0  0  0  0  0  0  0  0  0
  141.2141   81.3571  219.4690 H   0  0  0  0  0  0  0  0  0  0  0  0
  141.3234   80.5994  217.1501 H   0  0  0  0  0  0  0  0  0  0  0  0
  141.9946   78.2742  216.6224 H   0  0  0  0  0  0  0  0  0  0  0  0
  142.4460   77.5002  220.8372 H   0  0  0  0  0  0  0  0  0  0  0  0
  140.3580   72.3091  220.9292 H   0  0  0  0  0  0  0  0  0  0  0  0
  142.0712   70.7250  220.0729 H   0  0  0  0  0  0  0  0  0  0  0  0
  144.3585   70.3134  219.4859 H   0  0  0  0  0  0  0  0  0  0  0  0
  146.7124   71.0476  219.2600 H   0  0  0  0  0  0  0  0  0  0  0  0
  147.3298   73.3791  219.9095 H   0  0  0  0  0  0  0  0  0  0  0  0
  145.5725   74.9273  220.7675 H   0  0  0  0  0  0  0  0  0  0  0  0
  1  2  2  0
  2  3  1  0
  3  4  1  0
  4  5  1  0
  5  6  2  0
  5  7  1  0
  7  8  1  0
  8  9  1  0
  9 10  1  0
 10 11  1  0
 11 12  1  0
 12 13  1  0
 13 14  2  0
 14 15  1  0
 15 16  2  0
 16 17  1  0
 17 18  1  0
 18 19  1  0
 18 20  1  0
 18 21  1  0
 17 22  2  0
  2 23  1  0
 23 24  2  0
 24 25  1  0
 25 26  2  0
 26 27  1  0
 27 28  2  0
 28 29  1  0
 29 30  2  0
 30 31  1  0
 31 32  2  0
 12  7  1  0
 22 13  1  0
 32 23  1  0
 31 26  1  0
  3 33  1  0
  4 34  1  0
  4 35  1  0
  8 36  1  0
  8 37  1  0
  9 38  1  0
  9 39  1  0
 10 40  1  0
 10 41  1  0
 11 42  1  0
 11 43  1  0
 12 44  1  6
 14 45  1  0
 15 46  1  0
 16 47  1  0
 22 48  1  0
 24 49  1  0
 25 50  1  0
 27 51  1  0
 28 52  1  0
 29 53  1  0
 30 54  1  0
M  END
>  <smiles>  (85) 
O=C(NCC(=O)N1CCCCC1c1cccc(C(F)(F)F)c1)c1ccc2ccccc2n1

>  <score_type>  (85) 
oracle

>  <origin>  (85) 
autodockgpu

>  <m_score__min__energy>  (85) 
-8.9399999999999995

>  <m_primary>  (85) 
energy

>  <rmsd>  (85) 
6.570942214736258

>  <m_score__min__rmsd>  (85) 
6.570942214736258

>  <meeko>  (85) 
{"free_energy": -7.47, "intermolecular_energy": -9.25, "internal_energy": -2.5, "cluster_size": 6, "cluster_id": 8, "rank_in_cluster": 1}

>  <energy>  (85) 
-7.77

>  <cluster_rmsd>  (85) 
1.48

>  <cluster>  (85) 
2

$$$$

     RDKit          3D

 54 57  0  0  0  0  0  0  0  0999 V2000
  139.4570   75.0790  220.6600 O   0  0  0  0  0  0  0  0  0  0  0  0
  140.6330   75.1740  221.1030 C   0  0  0  0  0  0  0  0  0  0  0  0
  140.9100   76.2780  222.0140 N   0  0  0  0  0  0  0  0  0  0  0  0
  139.8060   77.1290  222.3000 C   0  0  0  0  0  0  0  0  0  0  0  0
  139.8320   78.5250  221.9050 C   0  0  0  0  0  0  0  0  0  0  0  0
  139.0190   78.7970  220.9170 O   0  0  0  0  0  0  0  0  0  0  0  0
  140.5580   79.6230  222.3830 N   0  0  0  0  0  0  0  0  0  0  0  0
  140.2370   80.4270  223.5410 C   0  0  0  0  0  0  0  0  0  0  0  0
  141.4770   81.2840  223.8480 C   0  0  0  0  0  0  0  0  0  0  0  0
  142.7450   80.5040  223.8070 C   0  0  0  0  0  0  0  0  0  0  0  0
  142.9130   79.6820  222.5180 C   0  0  0  0  0  0  0  0  0  0  0  0
  141.7630   80.0600  221.6480 C   0  0  1  0  0  0  0  0  0  0  0  0
  141.8180   79.6550  220.2560 C   0  0  0  0  0  0  0  0  0  0  0  0
  141.4700   80.5240  219.2280 C   0  0  0  0  0  0  0  0  0  0  0  0
  141.4800   80.1630  217.9050 C   0  0  0  0  0  0  0  0  0  0  0  0
  141.8410   78.9040  217.5360 C   0  0  0  0  0  0  0  0  0  0  0  0
  142.1910   78.0170  218.5380 C   0  0  0  0  0  0  0  0  0  0  0  0
  142.5820   76.6440  218.1190 C   0  0  0  0  0  0  0  0  0  0  0  0
  141.5420   75.7400  218.2390 F   0  0  0  0  0  0  0  0  0  0  0  0
  142.9550   76.7130  216.7890 F   0  0  0  0  0  0  0  0  0  0  0  0
  143.7000   76.2240  218.8170 F   0  0  0  0  0  0  0  0  0  0  0  0
  142.1820   78.3790  219.8690 C   0  0  0  0  0  0  0  0  0  0  0  0
  141.6990   74.2510  220.7510 C   0  0  0  0  0  0  0  0  0  0  0  0
  141.3280   72.9810  220.3600 C   0  0  0  0  0  0  0  0  0  0  0  0
  142.2900   72.0650  220.0160 C   0  0  0  0  0  0  0  0  0  0  0  0
  143.6240   72.4470  220.0700 C   0  0  0  0  0  0  0  0  0  0  0  0
  144.6140   71.5610  219.7330 C   0  0  0  0  0  0  0  0  0  0  0  0
  145.9490   71.9100  219.7760 C   0  0  0  0  0  0  0  0  0  0  0  0
  146.2900   73.1930  220.1720 C   0  0  0  0  0  0  0  0  0  0  0  0
  145.2850   74.0990  220.5160 C   0  0  0  0  0  0  0  0  0  0  0  0
  143.9620   73.7320  220.4660 C   0  0  0  0  0  0  0  0  0  0  0  0
  142.9970   74.6100  220.7990 N   0  0  0  0  0  0  0  0  0  0  0  0
  141.8750   76.3030  222.3570 H   0  0  0  0  0  0  0  0  0  0  0  0
  138.9274   76.6800  221.8138 H   0  0  0  0  0  0  0  0  0  0  0  0
  139.8120   77.1821  223.3987 H   0  0  0  0  0  0  0  0  0  0  0  0
  139.3741   81.0741  223.3248 H   0  0  0  0  0  0  0  0  0  0  0  0
  139.9746   79.7924  224.4003 H   0  0  0  0  0  0  0  0  0  0  0  0
  141.5379   82.0923  223.1044 H   0  0  0  0  0  0  0  0  0  0  0  0
  141.3631   81.6755  224.8697 H   0  0  0  0  0  0  0  0  0  0  0  0
  143.5888   81.2052  223.8862 H   0  0  0  0  0  0  0  0  0  0  0  0
  142.7167   79.7925  224.6454 H   0  0  0  0  0  0  0  0  0  0  0  0
  143.8648   79.9304  222.0256 H   0  0  0  0  0  0  0  0  0  0  0  0
  142.9294   78.6015  222.7238 H   0  0  0  0  0  0  0  0  0  0  0  0
  141.7711   81.1483  221.4883 H   0  0  0  0  0  0  0  0  0  0  0  0
  141.1723   81.5505  219.4884 H   0  0  0  0  0  0  0  0  0  0  0  0
  141.1941   80.8964  217.1366 H   0  0  0  0  0  0  0  0  0  0  0  0
  141.8540   78.6023  216.4783 H   0  0  0  0  0  0  0  0  0  0  0  0
  142.4686   77.6417  220.6333 H   0  0  0  0  0  0  0  0  0  0  0  0
  140.2642   72.7036  220.3241 H   0  0  0  0  0  0  0  0  0  0  0  0
  142.0100   71.0481  219.7036 H   0  0  0  0  0  0  0  0  0  0  0  0
  144.3371   70.5436  219.4196 H   0  0  0  0  0  0  0  0  0  0  0  0
  146.7274   71.1830  219.5010 H   0  0  0  0  0  0  0  0  0  0  0  0
  147.3465   73.4962  220.2151 H   0  0  0  0  0  0  0  0  0  0  0  0
  145.5554   75.1178  220.8305 H   0  0  0  0  0  0  0  0  0  0  0  0
  1  2  2  0
  2  3  1  0
  3  4  1  0
  4  5  1  0
  5  6  2  0
  5  7  1  0
  7  8  1  0
  8  9  1  0
  9 10  1  0
 10 11  1  0
 11 12  1  0
 12 13  1  0
 13 14  2  0
 14 15  1  0
 15 16  2  0
 16 17  1  0
 17 18  1  0
 18 19  1  0
 18 20  1  0
 18 21  1  0
 17 22  2  0
  2 23  1  0
 23 24  2  0
 24 25  1  0
 25 26  2  0
 26 27  1  0
 27 28  2  0
 28 29  1  0
 29 30  2  0
 30 31  1  0
 31 32  2  0
 12  7  1  0
 22 13  1  0
 32 23  1  0
 31 26  1  0
  3 33  1  0
  4 34  1  0
  4 35  1  0
  8 36  1  0
  8 37  1  0
  9 38  1  0
  9 39  1  0
 10 40  1  0
 10 41  1  0
 11 42  1  0
 11 43  1  0
 12 44  1  6
 14 45  1  0
 15 46  1  0
 16 47  1  0
 22 48  1  0
 24 49  1  0
 25 50  1  0
 27 51  1  0
 28 52  1  0
 29 53  1  0
 30 54  1  0
M  END
>  <smiles>  (86) 
O=C(NCC(=O)N1CCCCC1c1cccc(C(F)(F)F)c1)c1ccc2ccccc2n1

>  <score_type>  (86) 
oracle

>  <origin>  (86) 
autodockgpu

>  <m_score__min__energy>  (86) 
-8.9399999999999995

>  <m_primary>  (86) 
energy

>  <rmsd>  (86) 
6.650709696283281

>  <m_score__min__rmsd>  (86) 
6.650709696283281

>  <meeko>  (86) 
{"free_energy": -7.12, "intermolecular_energy": -8.91, "internal_energy": -2.61, "cluster_size": 6, "cluster_id": 8, "rank_in_cluster": 5}

>  <energy>  (86) 
-7.96

>  <cluster_rmsd>  (86) 
0.0

>  <cluster>  (86) 
3

$$$$

     RDKit          3D

 54 57  0  0  0  0  0  0  0  0999 V2000
  140.9250   71.5390  221.3760 O   0  0  0  0  0  0  0  0  0  0  0  0
  140.3210   71.9900  222.3860 C   0  0  0  0  0  0  0  0  0  0  0  0
  139.6740   73.2890  222.2470 N   0  0  0  0  0  0  0  0  0  0  0  0
  139.8040   73.9040  220.9700 C   0  0  0  0  0  0  0  0  0  0  0  0
  140.7290   75.0050  220.7740 C   0  0  0  0  0  0  0  0  0  0  0  0
  141.3520   75.3560  221.8700 O   0  0  0  0  0  0  0  0  0  0  0  0
  141.0750   75.7510  219.6420 N   0  0  0  0  0  0  0  0  0  0  0  0
  140.1750   76.5220  218.8130 C   0  0  0  0  0  0  0  0  0  0  0  0
  141.0490   77.4110  217.9110 C   0  0  0  0  0  0  0  0  0  0  0  0
  142.1480   78.0870  218.6530 C   0  0  0  0  0  0  0  0  0  0  0  0
  142.9880   77.1250  219.5080 C   0  0  0  0  0  0  0  0  0  0  0  0
  142.4820   75.7590  219.1900 C   0  0  1  0  0  0  0  0  0  0  0  0
  143.2790   74.6310  219.6360 C   0  0  0  0  0  0  0  0  0  0  0  0
  144.3940   74.8000  220.4480 C   0  0  0  0  0  0  0  0  0  0  0  0
  145.1870   73.7590  220.8610 C   0  0  0  0  0  0  0  0  0  0  0  0
  144.9040   72.4840  220.4790 C   0  0  0  0  0  0  0  0  0  0  0  0
  143.8000   72.2860  219.6690 C   0  0  0  0  0  0  0  0  0  0  0  0
  143.5050   70.8860  219.2600 C   0  0  0  0  0  0  0  0  0  0  0  0
  143.7970   69.9730  220.2570 F   0  0  0  0  0  0  0  0  0  0  0  0
  142.1530   70.8170  218.9810 F   0  0  0  0  0  0  0  0  0  0  0  0
  144.1630   70.5770  218.0830 F   0  0  0  0  0  0  0  0  0  0  0  0
  143.0020   73.3320  219.2540 C   0  0  0  0  0  0  0  0  0  0  0  0
  140.2440   71.2830  223.6540 C   0  0  0  0  0  0  0  0  0  0  0  0
  139.6730   70.0280  223.6410 C   0  0  0  0  0  0  0  0  0  0  0  0
  139.5730   69.3120  224.8080 C   0  0  0  0  0  0  0  0  0  0  0  0
  140.0540   69.8780  225.9800 C   0  0  0  0  0  0  0  0  0  0  0  0
  139.9720   69.1950  227.1660 C   0  0  0  0  0  0  0  0  0  0  0  0
  140.4410   69.7310  228.3490 C   0  0  0  0  0  0  0  0  0  0  0  0
  141.0090   70.9940  228.3300 C   0  0  0  0  0  0  0  0  0  0  0  0
  141.0940   71.6940  227.1240 C   0  0  0  0  0  0  0  0  0  0  0  0
  140.6220   71.1440  225.9580 C   0  0  0  0  0  0  0  0  0  0  0  0
  140.7080   71.8220  224.7990 N   0  0  0  0  0  0  0  0  0  0  0  0
  139.1860   73.6030  223.0890 H   0  0  0  0  0  0  0  0  0  0  0  0
  140.1032   73.1120  220.2677 H   0  0  0  0  0  0  0  0  0  0  0  0
  138.8218   74.3764  220.8215 H   0  0  0  0  0  0  0  0  0  0  0  0
  139.5579   75.8502  218.1983 H   0  0  0  0  0  0  0  0  0  0  0  0
  139.4974   77.1316  219.4288 H   0  0  0  0  0  0  0  0  0  0  0  0
  141.4915   76.7838  217.1231 H   0  0  0  0  0  0  0  0  0  0  0  0
  140.4009   78.1960  217.4941 H   0  0  0  0  0  0  0  0  0  0  0  0
  142.8114   78.5761  217.9245 H   0  0  0  0  0  0  0  0  0  0  0  0
  141.6810   78.8086  219.3394 H   0  0  0  0  0  0  0  0  0  0  0  0
  144.0533   77.2101  219.2472 H   0  0  0  0  0  0  0  0  0  0  0  0
  142.9001   77.3518  220.5808 H   0  0  0  0  0  0  0  0  0  0  0  0
  142.5653   75.5840  218.1072 H   0  0  0  0  0  0  0  0  0  0  0  0
  144.6535   75.8175  220.7756 H   0  0  0  0  0  0  0  0  0  0  0  0
  146.0568   73.9564  221.5048 H   0  0  0  0  0  0  0  0  0  0  0  0
  145.5311   71.6403  220.8029 H   0  0  0  0  0  0  0  0  0  0  0  0
  142.1334   73.1294  218.6102 H   0  0  0  0  0  0  0  0  0  0  0  0
  139.2988   69.6019  222.6985 H   0  0  0  0  0  0  0  0  0  0  0  0
  139.1205   68.3094  224.8139 H   0  0  0  0  0  0  0  0  0  0  0  0
  139.5200   68.1922  227.1754 H   0  0  0  0  0  0  0  0  0  0  0  0
  140.3649   69.1652  229.2893 H   0  0  0  0  0  0  0  0  0  0  0  0
  141.3908   71.4431  229.2587 H   0  0  0  0  0  0  0  0  0  0  0  0
  141.5443   72.6975  227.1084 H   0  0  0  0  0  0  0  0  0  0  0  0
  1  2  2  0
  2  3  1  0
  3  4  1  0
  4  5  1  0
  5  6  2  0
  5  7  1  0
  7  8  1  0
  8  9  1  0
  9 10  1  0
 10 11  1  0
 11 12  1  0
 12 13  1  0
 13 14  2  0
 14 15  1  0
 15 16  2  0
 16 17  1  0
 17 18  1  0
 18 19  1  0
 18 20  1  0
 18 21  1  0
 17 22  2  0
  2 23  1  0
 23 24  2  0
 24 25  1  0
 25 26  2  0
 26 27  1  0
 27 28  2  0
 28 29  1  0
 29 30  2  0
 30 31  1  0
 31 32  2  0
 12  7  1  0
 22 13  1  0
 32 23  1  0
 31 26  1  0
  3 33  1  0
  4 34  1  0
  4 35  1  0
  8 36  1  0
  8 37  1  0
  9 38  1  0
  9 39  1  0
 10 40  1  0
 10 41  1  0
 11 42  1  0
 11 43  1  0
 12 44  1  6
 14 45  1  0
 15 46  1  0
 16 47  1  0
 22 48  1  0
 24 49  1  0
 25 50  1  0
 27 51  1  0
 28 52  1  0
 29 53  1  0
 30 54  1  0
M  END
>  <smiles>  (87) 
O=C(NCC(=O)N1CCCCC1c1cccc(C(F)(F)F)c1)c1ccc2ccccc2n1

>  <score_type>  (87) 
oracle

>  <origin>  (87) 
autodockgpu

>  <m_score__min__energy>  (87) 
-8.9399999999999995

>  <m_primary>  (87) 
energy

>  <rmsd>  (87) 
1.8440508917317202

>  <m_score__min__rmsd>  (87) 
1.8440508917317202

>  <meeko>  (87) 
{"free_energy": -8.11, "intermolecular_energy": -9.9, "internal_energy": -1.98, "cluster_size": 16, "cluster_id": 2, "rank_in_cluster": 9}

>  <energy>  (87) 
-7.9

>  <cluster_rmsd>  (87) 
1.84

>  <cluster>  (87) 
3

$$$$

     RDKit          3D

 54 57  0  0  0  0  0  0  0  0999 V2000
  139.7580   71.2730  221.2300 O   0  0  0  0  0  0  0  0  0  0  0  0
  139.7030   71.8870  222.3290 C   0  0  0  0  0  0  0  0  0  0  0  0
  139.4170   73.3150  222.2770 N   0  0  0  0  0  0  0  0  0  0  0  0
  139.2320   73.8560  220.9730 C   0  0  0  0  0  0  0  0  0  0  0  0
  140.3370   74.4840  220.2730 C   0  0  0  0  0  0  0  0  0  0  0  0
  139.9510   75.3160  219.3400 O   0  0  0  0  0  0  0  0  0  0  0  0
  141.7250   74.3650  220.4110 N   0  0  0  0  0  0  0  0  0  0  0  0
  142.4550   73.1640  220.7530 C   0  0  0  0  0  0  0  0  0  0  0  0
  143.9390   73.4460  220.4640 C   0  0  0  0  0  0  0  0  0  0  0  0
  144.1580   74.1050  219.1470 C   0  0  0  0  0  0  0  0  0  0  0  0
  143.2810   75.3490  218.9350 C   0  0  0  0  0  0  0  0  0  0  0  0
  142.5690   75.5640  220.2270 C   0  0  1  0  0  0  0  0  0  0  0  0
  141.8880   76.8320  220.4120 C   0  0  0  0  0  0  0  0  0  0  0  0
  141.6820   77.7110  219.3560 C   0  0  0  0  0  0  0  0  0  0  0  0
  141.0700   78.9300  219.5020 C   0  0  0  0  0  0  0  0  0  0  0  0
  140.6290   79.3370  220.7230 C   0  0  0  0  0  0  0  0  0  0  0  0
  140.8220   78.4830  221.7940 C   0  0  0  0  0  0  0  0  0  0  0  0
  140.3350   78.9440  223.1220 C   0  0  0  0  0  0  0  0  0  0  0  0
  141.2120   78.6270  224.1440 F   0  0  0  0  0  0  0  0  0  0  0  0
  140.2120   80.3190  223.0580 F   0  0  0  0  0  0  0  0  0  0  0  0
  139.0680   78.4490  223.3710 F   0  0  0  0  0  0  0  0  0  0  0  0
  141.4370   77.2560  221.6480 C   0  0  0  0  0  0  0  0  0  0  0  0
  139.9070   71.2450  223.6170 C   0  0  0  0  0  0  0  0  0  0  0  0
  139.5600   69.9140  223.7180 C   0  0  0  0  0  0  0  0  0  0  0  0
  139.7310   69.2530  224.9090 C   0  0  0  0  0  0  0  0  0  0  0  0
  140.2540   69.9500  225.9890 C   0  0  0  0  0  0  0  0  0  0  0  0
  140.4400   69.3260  227.1950 C   0  0  0  0  0  0  0  0  0  0  0  0
  140.9580   69.9920  228.2880 C   0  0  0  0  0  0  0  0  0  0  0  0
  141.2970   71.3280  228.1550 C   0  0  0  0  0  0  0  0  0  0  0  0
  141.1100   71.9690  226.9280 C   0  0  0  0  0  0  0  0  0  0  0  0
  140.5930   71.2890  225.8530 C   0  0  0  0  0  0  0  0  0  0  0  0
  140.4150   71.9110  224.6720 N   0  0  0  0  0  0  0  0  0  0  0  0
  139.3680   73.7650  223.1950 H   0  0  0  0  0  0  0  0  0  0  0  0
  138.8837   73.0300  220.3355 H   0  0  0  0  0  0  0  0  0  0  0  0
  138.5417   74.6943  221.1485 H   0  0  0  0  0  0  0  0  0  0  0  0
  142.3154   72.9268  221.8180 H   0  0  0  0  0  0  0  0  0  0  0  0
  142.0961   72.3048  220.1674 H   0  0  0  0  0  0  0  0  0  0  0  0
  144.3319   74.1023  221.2545 H   0  0  0  0  0  0  0  0  0  0  0  0
  144.4601   72.4776  220.4391 H   0  0  0  0  0  0  0  0  0  0  0  0
  145.2137   74.4066  219.0791 H   0  0  0  0  0  0  0  0  0  0  0  0
  143.8833   73.3771  218.3694 H   0  0  0  0  0  0  0  0  0  0  0  0
  143.9050   76.2214  218.6909 H   0  0  0  0  0  0  0  0  0  0  0  0
  142.5771   75.2128  218.1007 H   0  0  0  0  0  0  0  0  0  0  0  0
  143.3083   75.6714  221.0344 H   0  0  0  0  0  0  0  0  0  0  0  0
  142.0264   77.4151  218.3541 H   0  0  0  0  0  0  0  0  0  0  0  0
  140.9350   79.5823  218.6266 H   0  0  0  0  0  0  0  0  0  0  0  0
  140.1360   80.3115  220.8541 H   0  0  0  0  0  0  0  0  0  0  0  0
  141.5699   76.6073  222.5263 H   0  0  0  0  0  0  0  0  0  0  0  0
  139.1475   69.3837  222.8470 H   0  0  0  0  0  0  0  0  0  0  0  0
  139.4588   68.1916  225.0053 H   0  0  0  0  0  0  0  0  0  0  0  0
  140.1690   68.2646  227.2950 H   0  0  0  0  0  0  0  0  0  0  0  0
  141.0987   69.4710  229.2465 H   0  0  0  0  0  0  0  0  0  0  0  0
  141.7112   71.8814  229.0107 H   0  0  0  0  0  0  0  0  0  0  0  0
  141.3799   73.0301  226.8218 H   0  0  0  0  0  0  0  0  0  0  0  0
  1  2  2  0
  2  3  1  0
  3  4  1  0
  4  5  1  0
  5  6  2  0
  5  7  1  0
  7  8  1  0
  8  9  1  0
  9 10  1  0
 10 11  1  0
 11 12  1  0
 12 13  1  0
 13 14  2  0
 14 15  1  0
 15 16  2  0
 16 17  1  0
 17 18  1  0
 18 19  1  0
 18 20  1  0
 18 21  1  0
 17 22  2  0
  2 23  1  0
 23 24  2  0
 24 25  1  0
 25 26  2  0
 26 27  1  0
 27 28  2  0
 28 29  1  0
 29 30  2  0
 30 31  1  0
 31 32  2  0
 12  7  1  0
 22 13  1  0
 32 23  1  0
 31 26  1  0
  3 33  1  0
  4 34  1  0
  4 35  1  0
  8 36  1  0
  8 37  1  0
  9 38  1  0
  9 39  1  0
 10 40  1  0
 10 41  1  0
 11 42  1  0
 11 43  1  0
 12 44  1  1
 14 45  1  0
 15 46  1  0
 16 47  1  0
 22 48  1  0
 24 49  1  0
 25 50  1  0
 27 51  1  0
 28 52  1  0
 29 53  1  0
 30 54  1  0
M  END
>  <smiles>  (88) 
O=C(NCC(=O)N1CCCCC1c1cccc(C(F)(F)F)c1)c1ccc2ccccc2n1

>  <score_type>  (88) 
oracle

>  <origin>  (88) 
autodockgpu

>  <m_score__min__energy>  (88) 
-8.9399999999999995

>  <m_primary>  (88) 
energy

>  <rmsd>  (88) 
2.4798139071379803

>  <m_score__min__rmsd>  (88) 
2.4798139071379803

>  <meeko>  (88) 
{"free_energy": -7.86, "intermolecular_energy": -9.64, "internal_energy": -1.71, "cluster_size": 19, "cluster_id": 1, "rank_in_cluster": 18}

>  <energy>  (88) 
-7.85

>  <cluster_rmsd>  (88) 
1.9

>  <cluster>  (88) 
3

$$$$

     RDKit          3D

 54 57  0  0  0  0  0  0  0  0999 V2000
  138.8910   71.1470  221.5900 O   0  0  0  0  0  0  0  0  0  0  0  0
  139.3280   71.6120  222.6760 C   0  0  0  0  0  0  0  0  0  0  0  0
  139.6220   73.0390  222.7150 N   0  0  0  0  0  0  0  0  0  0  0  0
  139.3810   73.7480  221.5050 C   0  0  0  0  0  0  0  0  0  0  0  0
  140.2790   74.8050  221.0800 C   0  0  0  0  0  0  0  0  0  0  0  0
  141.0800   75.2150  222.0300 O   0  0  0  0  0  0  0  0  0  0  0  0
  140.4450   75.4600  219.8540 N   0  0  0  0  0  0  0  0  0  0  0  0
  140.9700   74.8840  218.6360 C   0  0  0  0  0  0  0  0  0  0  0  0
  140.6540   75.8740  217.5010 C   0  0  0  0  0  0  0  0  0  0  0  0
  139.2550   76.3800  217.5460 C   0  0  0  0  0  0  0  0  0  0  0  0
  138.8510   76.9300  218.9240 C   0  0  0  0  0  0  0  0  0  0  0  0
  140.0900   76.8910  219.7510 C   0  0  1  0  0  0  0  0  0  0  0  0
  140.0760   77.6150  221.0090 C   0  0  0  0  0  0  0  0  0  0  0  0
  139.0100   77.5180  221.8960 C   0  0  0  0  0  0  0  0  0  0  0  0
  138.9510   78.2120  223.0770 C   0  0  0  0  0  0  0  0  0  0  0  0
  139.9640   79.0460  223.4380 C   0  0  0  0  0  0  0  0  0  0  0  0
  141.0380   79.1630  222.5740 C   0  0  0  0  0  0  0  0  0  0  0  0
  142.1360   80.0800  222.9830 C   0  0  0  0  0  0  0  0  0  0  0  0
  143.3530   79.4310  223.0890 F   0  0  0  0  0  0  0  0  0  0  0  0
  142.2400   81.0540  222.0070 F   0  0  0  0  0  0  0  0  0  0  0  0
  141.8090   80.7350  224.1560 F   0  0  0  0  0  0  0  0  0  0  0  0
  141.0990   78.4650  221.3860 C   0  0  0  0  0  0  0  0  0  0  0  0
  139.5430   70.8030  223.8640 C   0  0  0  0  0  0  0  0  0  0  0  0
  139.1730   69.4760  223.7980 C   0  0  0  0  0  0  0  0  0  0  0  0
  139.3530   68.6630  224.8890 C   0  0  0  0  0  0  0  0  0  0  0  0
  139.9080   69.2050  226.0400 C   0  0  0  0  0  0  0  0  0  0  0  0
  140.1030   68.4250  227.1500 C   0  0  0  0  0  0  0  0  0  0  0  0
  140.6530   68.9340  228.3100 C   0  0  0  0  0  0  0  0  0  0  0  0
  141.0140   70.2710  228.3460 C   0  0  0  0  0  0  0  0  0  0  0  0
  140.8170   71.0690  227.2170 C   0  0  0  0  0  0  0  0  0  0  0  0
  140.2690   70.5440  226.0730 C   0  0  0  0  0  0  0  0  0  0  0  0
  140.0810   71.3180  224.9880 N   0  0  0  0  0  0  0  0  0  0  0  0
  139.9600   73.3700  223.6230 H   0  0  0  0  0  0  0  0  0  0  0  0
  139.3702   73.0002  220.6983 H   0  0  0  0  0  0  0  0  0  0  0  0
  138.4460   74.2876  221.7164 H   0  0  0  0  0  0  0  0  0  0  0  0
  142.0574   74.7424  218.7226 H   0  0  0  0  0  0  0  0  0  0  0  0
  140.5176   73.9010  218.4384 H   0  0  0  0  0  0  0  0  0  0  0  0
  141.3397   76.7304  217.5813 H   0  0  0  0  0  0  0  0  0  0  0  0
  140.7799   75.3363  216.5497 H   0  0  0  0  0  0  0  0  0  0  0  0
  139.1512   77.1857  216.8044 H   0  0  0  0  0  0  0  0  0  0  0  0
  138.5935   75.5285  217.3284 H   0  0  0  0  0  0  0  0  0  0  0  0
  138.4831   77.9626  218.8323 H   0  0  0  0  0  0  0  0  0  0  0  0
  138.0413   76.3386  219.3764 H   0  0  0  0  0  0  0  0  0  0  0  0
  140.8783   77.4725  219.2507 H   0  0  0  0  0  0  0  0  0  0  0  0
  138.1733   76.8522  221.6379 H   0  0  0  0  0  0  0  0  0  0  0  0
  138.0791   78.0939  223.7371 H   0  0  0  0  0  0  0  0  0  0  0  0
  139.9300   79.6072  224.3834 H   0  0  0  0  0  0  0  0  0  0  0  0
  141.9734   78.5863  220.7297 H   0  0  0  0  0  0  0  0  0  0  0  0
  138.7351   69.0706  222.8740 H   0  0  0  0  0  0  0  0  0  0  0  0
  139.0631   67.6025  224.8520 H   0  0  0  0  0  0  0  0  0  0  0  0
  139.8134   67.3643  227.1159 H   0  0  0  0  0  0  0  0  0  0  0  0
  140.8017   68.2897  229.1891 H   0  0  0  0  0  0  0  0  0  0  0  0
  141.4531   70.7014  229.2581 H   0  0  0  0  0  0  0  0  0  0  0  0
  141.1042   72.1305  227.2447 H   0  0  0  0  0  0  0  0  0  0  0  0
  1  2  2  0
  2  3  1  0
  3  4  1  0
  4  5  1  0
  5  6  2  0
  5  7  1  0
  7  8  1  0
  8  9  1  0
  9 10  1  0
 10 11  1  0
 11 12  1  0
 12 13  1  0
 13 14  2  0
 14 15  1  0
 15 16  2  0
 16 17  1  0
 17 18  1  0
 18 19  1  0
 18 20  1  0
 18 21  1  0
 17 22  2  0
  2 23  1  0
 23 24  2  0
 24 25  1  0
 25 26  2  0
 26 27  1  0
 27 28  2  0
 28 29  1  0
 29 30  2  0
 30 31  1  0
 31 32  2  0
 12  7  1  0
 22 13  1  0
 32 23  1  0
 31 26  1  0
  3 33  1  0
  4 34  1  0
  4 35  1  0
  8 36  1  0
  8 37  1  0
  9 38  1  0
  9 39  1  0
 10 40  1  0
 10 41  1  0
 11 42  1  0
 11 43  1  0
 12 44  1  6
 14 45  1  0
 15 46  1  0
 16 47  1  0
 22 48  1  0
 24 49  1  0
 25 50  1  0
 27 51  1  0
 28 52  1  0
 29 53  1  0
 30 54  1  0
M  END
>  <smiles>  (89) 
O=C(NCC(=O)N1CCCCC1c1cccc(C(F)(F)F)c1)c1ccc2ccccc2n1

>  <score_type>  (89) 
oracle

>  <origin>  (89) 
autodockgpu

>  <m_score__min__energy>  (89) 
-8.9399999999999995

>  <m_primary>  (89) 
energy

>  <rmsd>  (89) 
1.3810452172150058

>  <m_score__min__rmsd>  (89) 
1.3810452172150058

>  <meeko>  (89) 
{"free_energy": -7.53, "intermolecular_energy": -9.32, "internal_energy": -1.75, "cluster_size": 1, "cluster_id": 7, "rank_in_cluster": 1}

>  <energy>  (89) 
-7.81

>  <cluster_rmsd>  (89) 
1.16

>  <cluster>  (89) 
3

$$$$

     RDKit          3D

 54 57  0  0  0  0  0  0  0  0999 V2000
  141.3680   72.5540  221.5710 O   0  0  0  0  0  0  0  0  0  0  0  0
  140.4540   72.6900  222.4260 C   0  0  0  0  0  0  0  0  0  0  0  0
  139.6150   73.8770  222.3180 N   0  0  0  0  0  0  0  0  0  0  0  0
  139.9330   74.7560  221.2450 C   0  0  0  0  0  0  0  0  0  0  0  0
  141.0130   75.7160  221.3760 C   0  0  0  0  0  0  0  0  0  0  0  0
  141.2550   76.0550  222.6170 O   0  0  0  0  0  0  0  0  0  0  0  0
  141.8350   76.3400  220.4300 N   0  0  0  0  0  0  0  0  0  0  0  0
  142.7550   75.6850  219.5270 C   0  0  0  0  0  0  0  0  0  0  0  0
  143.1730   76.7320  218.4790 C   0  0  0  0  0  0  0  0  0  0  0  0
  142.0210   77.5070  217.9430 C   0  0  0  0  0  0  0  0  0  0  0  0
  141.1280   78.1100  219.0390 C   0  0  0  0  0  0  0  0  0  0  0  0
  141.8190   77.8140  220.3270 C   0  0  1  0  0  0  0  0  0  0  0  0
  141.3510   78.5100  221.5110 C   0  0  0  0  0  0  0  0  0  0  0  0
  142.2310   78.9710  222.4830 C   0  0  0  0  0  0  0  0  0  0  0  0
  141.8210   79.6040  223.6280 C   0  0  0  0  0  0  0  0  0  0  0  0
  140.4970   79.8120  223.8640 C   0  0  0  0  0  0  0  0  0  0  0  0
  139.5970   79.3630  222.9140 C   0  0  0  0  0  0  0  0  0  0  0  0
  138.1530   79.5970  223.1870 C   0  0  0  0  0  0  0  0  0  0  0  0
  137.9400   80.1950  224.4160 F   0  0  0  0  0  0  0  0  0  0  0  0
  137.6810   80.4400  222.1990 F   0  0  0  0  0  0  0  0  0  0  0  0
  137.4410   78.4180  223.0680 F   0  0  0  0  0  0  0  0  0  0  0  0
  140.0090   78.7270  221.7610 C   0  0  0  0  0  0  0  0  0  0  0  0
  140.2060   71.7320  223.4910 C   0  0  0  0  0  0  0  0  0  0  0  0
  139.4400   70.6280  223.1790 C   0  0  0  0  0  0  0  0  0  0  0  0
  139.1720   69.6890  224.1440 C   0  0  0  0  0  0  0  0  0  0  0  0
  139.6860   69.8790  225.4200 C   0  0  0  0  0  0  0  0  0  0  0  0
  139.4410   68.9640  226.4100 C   0  0  0  0  0  0  0  0  0  0  0  0
  139.9370   69.1240  227.6880 C   0  0  0  0  0  0  0  0  0  0  0  0
  140.7020   70.2430  227.9710 C   0  0  0  0  0  0  0  0  0  0  0  0
  140.9540   71.1790  226.9650 C   0  0  0  0  0  0  0  0  0  0  0  0
  140.4520   71.0010  225.7000 C   0  0  0  0  0  0  0  0  0  0  0  0
  140.6990   71.9050  224.7330 N   0  0  0  0  0  0  0  0  0  0  0  0
  138.8780   73.9330  223.0260 H   0  0  0  0  0  0  0  0  0  0  0  0
  140.1778   74.1221  220.3800 H   0  0  0  0  0  0  0  0  0  0  0  0
  139.0404   75.3951  221.1754 H   0  0  0  0  0  0  0  0  0  0  0  0
  143.6374   75.3285  220.0786 H   0  0  0  0  0  0  0  0  0  0  0  0
  142.2840   74.8140  219.0478 H   0  0  0  0  0  0  0  0  0  0  0  0
  143.8806   77.4329  218.9460 H   0  0  0  0  0  0  0  0  0  0  0  0
  143.6281   76.1916  217.6359 H   0  0  0  0  0  0  0  0  0  0  0  0
  142.4110   78.3262  217.3211 H   0  0  0  0  0  0  0  0  0  0  0  0
  141.3990   76.8069  217.3661 H   0  0  0  0  0  0  0  0  0  0  0  0
  141.0275   79.1963  218.8980 H   0  0  0  0  0  0  0  0  0  0  0  0
  140.1127   77.6873  219.0152 H   0  0  0  0  0  0  0  0  0  0  0  0
  142.8357   78.2329  220.2981 H   0  0  0  0  0  0  0  0  0  0  0  0
  143.3093   78.8206  222.3260 H   0  0  0  0  0  0  0  0  0  0  0  0
  142.5670   79.9459  224.3605 H   0  0  0  0  0  0  0  0  0  0  0  0
  140.1544   80.3193  224.7779 H   0  0  0  0  0  0  0  0  0  0  0  0
  139.2593   78.3880  221.0308 H   0  0  0  0  0  0  0  0  0  0  0  0
  139.0452   70.5004  222.1603 H   0  0  0  0  0  0  0  0  0  0  0  0
  138.5622   68.8036  223.9111 H   0  0  0  0  0  0  0  0  0  0  0  0
  138.8321   68.0773  226.1799 H   0  0  0  0  0  0  0  0  0  0  0  0
  139.7284   68.3764  228.4674 H   0  0  0  0  0  0  0  0  0  0  0  0
  141.1088   70.3940  228.9818 H   0  0  0  0  0  0  0  0  0  0  0  0
  141.5613   72.0683  227.1891 H   0  0  0  0  0  0  0  0  0  0  0  0
  1  2  2  0
  2  3  1  0
  3  4  1  0
  4  5  1  0
  5  6  2  0
  5  7  1  0
  7  8  1  0
  8  9  1  0
  9 10  1  0
 10 11  1  0
 11 12  1  0
 12 13  1  0
 13 14  2  0
 14 15  1  0
 15 16  2  0
 16 17  1  0
 17 18  1  0
 18 19  1  0
 18 20  1  0
 18 21  1  0
 17 22  2  0
  2 23  1  0
 23 24  2  0
 24 25  1  0
 25 26  2  0
 26 27  1  0
 27 28  2  0
 28 29  1  0
 29 30  2  0
 30 31  1  0
 31 32  2  0
 12  7  1  0
 22 13  1  0
 32 23  1  0
 31 26  1  0
  3 33  1  0
  4 34  1  0
  4 35  1  0
  8 36  1  0
  8 37  1  0
  9 38  1  0
  9 39  1  0
 10 40  1  0
 10 41  1  0
 11 42  1  0
 11 43  1  0
 12 44  1  6
 14 45  1  0
 15 46  1  0
 16 47  1  0
 22 48  1  0
 24 49  1  0
 25 50  1  0
 27 51  1  0
 28 52  1  0
 29 53  1  0
 30 54  1  0
M  END
>  <smiles>  (90) 
O=C(NCC(=O)N1CCCCC1c1cccc(C(F)(F)F)c1)c1ccc2ccccc2n1

>  <score_type>  (90) 
oracle

>  <origin>  (90) 
autodockgpu

>  <m_score__min__energy>  (90) 
-8.9399999999999995

>  <m_primary>  (90) 
energy

>  <rmsd>  (90) 
2.118672199283513

>  <m_score__min__rmsd>  (90) 
2.118672199283513

>  <meeko>  (90) 
{"free_energy": -8.78, "intermolecular_energy": -10.57, "internal_energy": -1.43, "cluster_size": 19, "cluster_id": 1, "rank_in_cluster": 6}

>  <energy>  (90) 
-7.78

>  <cluster_rmsd>  (90) 
1.91

>  <cluster>  (90) 
3

$$$$

     RDKit          3D

 54 57  0  0  0  0  0  0  0  0999 V2000
  139.4180   70.7360  221.3840 O   0  0  0  0  0  0  0  0  0  0  0  0
  139.9780   71.1850  222.4200 C   0  0  0  0  0  0  0  0  0  0  0  0
  140.7000   72.4450  222.2890 N   0  0  0  0  0  0  0  0  0  0  0  0
  140.6880   73.0260  220.9900 C   0  0  0  0  0  0  0  0  0  0  0  0
  141.1520   74.3860  220.7890 C   0  0  0  0  0  0  0  0  0  0  0  0
  141.4360   75.0060  221.9070 O   0  0  0  0  0  0  0  0  0  0  0  0
  141.3500   75.1500  219.6330 N   0  0  0  0  0  0  0  0  0  0  0  0
  140.3200   75.7220  218.7940 C   0  0  0  0  0  0  0  0  0  0  0  0
  141.0130   76.7270  217.8580 C   0  0  0  0  0  0  0  0  0  0  0  0
  141.9760   77.6120  218.5690 C   0  0  0  0  0  0  0  0  0  0  0  0
  142.9820   76.8430  219.4400 C   0  0  0  0  0  0  0  0  0  0  0  0
  142.7300   75.3990  219.1660 C   0  0  1  0  0  0  0  0  0  0  0  0
  143.7200   74.4470  219.6320 C   0  0  0  0  0  0  0  0  0  0  0  0
  144.7670   74.8300  220.4630 C   0  0  0  0  0  0  0  0  0  0  0  0
  145.7370   73.9630  220.8970 C   0  0  0  0  0  0  0  0  0  0  0  0
  145.7110   72.6560  220.5180 C   0  0  0  0  0  0  0  0  0  0  0  0
  144.6820   72.2460  219.6910 C   0  0  0  0  0  0  0  0  0  0  0  0
  144.6690   70.8150  219.2860 C   0  0  0  0  0  0  0  0  0  0  0  0
  143.8090   70.0560  220.0600 F   0  0  0  0  0  0  0  0  0  0  0  0
  144.2410   70.7640  217.9730 F   0  0  0  0  0  0  0  0  0  0  0  0
  145.9510   70.2960  219.2990 F   0  0  0  0  0  0  0  0  0  0  0  0
  143.7050   73.1180  219.2550 C   0  0  0  0  0  0  0  0  0  0  0  0
  139.9350   70.5150  223.7080 C   0  0  0  0  0  0  0  0  0  0  0  0
  139.2560   69.3150  223.7710 C   0  0  0  0  0  0  0  0  0  0  0  0
  139.1810   68.6360  224.9620 C   0  0  0  0  0  0  0  0  0  0  0  0
  139.7970   69.1810  226.0800 C   0  0  0  0  0  0  0  0  0  0  0  0
  139.7440   68.5320  227.2860 C   0  0  0  0  0  0  0  0  0  0  0  0
  140.3460   69.0480  228.4170 C   0  0  0  0  0  0  0  0  0  0  0  0
  141.0200   70.2540  228.3220 C   0  0  0  0  0  0  0  0  0  0  0  0
  141.0760   70.9180  227.0950 C   0  0  0  0  0  0  0  0  0  0  0  0
  140.4710   70.3890  225.9820 C   0  0  0  0  0  0  0  0  0  0  0  0
  140.5290   71.0330  224.8010 N   0  0  0  0  0  0  0  0  0  0  0  0
  141.1240   72.7740  223.1610 H   0  0  0  0  0  0  0  0  0  0  0  0
  141.3105   72.3826  220.3508 H   0  0  0  0  0  0  0  0  0  0  0  0
  139.6148   73.0931  220.7581 H   0  0  0  0  0  0  0  0  0  0  0  0
  139.8300   74.9325  218.2052 H   0  0  0  0  0  0  0  0  0  0  0  0
  139.5477   76.2172  219.4010 H   0  0  0  0  0  0  0  0  0  0  0  0
  141.5571   76.1672  217.0830 H   0  0  0  0  0  0  0  0  0  0  0  0
  140.2312   77.3693  217.4264 H   0  0  0  0  0  0  0  0  0  0  0  0
  142.5350   78.1922  217.8201 H   0  0  0  0  0  0  0  0  0  0  0  0
  141.3902   78.2564  219.2410 H   0  0  0  0  0  0  0  0  0  0  0  0
  144.0124   77.1118  219.1643 H   0  0  0  0  0  0  0  0  0  0  0  0
  142.8614   77.0814  220.5071 H   0  0  0  0  0  0  0  0  0  0  0  0
  142.8379   75.2105  218.0876 H   0  0  0  0  0  0  0  0  0  0  0  0
  144.8199   75.8795  220.7881 H   0  0  0  0  0  0  0  0  0  0  0  0
  146.5404   74.3259  221.5550 H   0  0  0  0  0  0  0  0  0  0  0  0
  146.4827   71.9498  220.8583 H   0  0  0  0  0  0  0  0  0  0  0  0
  142.9032   72.7496  218.5982 H   0  0  0  0  0  0  0  0  0  0  0  0
  138.7766   68.9041  222.8702 H   0  0  0  0  0  0  0  0  0  0  0  0
  138.6432   67.6788  225.0288 H   0  0  0  0  0  0  0  0  0  0  0  0
  139.2075   67.5742  227.3551 H   0  0  0  0  0  0  0  0  0  0  0  0
  140.2910   68.5109  229.3754 H   0  0  0  0  0  0  0  0  0  0  0  0
  141.5083   70.6862  229.2078 H   0  0  0  0  0  0  0  0  0  0  0  0
  141.6111   71.8761  227.0193 H   0  0  0  0  0  0  0  0  0  0  0  0
  1  2  2  0
  2  3  1  0
  3  4  1  0
  4  5  1  0
  5  6  2  0
  5  7  1  0
  7  8  1  0
  8  9  1  0
  9 10  1  0
 10 11  1  0
 11 12  1  0
 12 13  1  0
 13 14  2  0
 14 15  1  0
 15 16  2  0
 16 17  1  0
 17 18  1  0
 18 19  1  0
 18 20  1  0
 18 21  1  0
 17 22  2  0
  2 23  1  0
 23 24  2  0
 24 25  1  0
 25 26  2  0
 26 27  1  0
 27 28  2  0
 28 29  1  0
 29 30  2  0
 30 31  1  0
 31 32  2  0
 12  7  1  0
 22 13  1  0
 32 23  1  0
 31 26  1  0
  3 33  1  0
  4 34  1  0
  4 35  1  0
  8 36  1  0
  8 37  1  0
  9 38  1  0
  9 39  1  0
 10 40  1  0
 10 41  1  0
 11 42  1  0
 11 43  1  0
 12 44  1  6
 14 45  1  0
 15 46  1  0
 16 47  1  0
 22 48  1  0
 24 49  1  0
 25 50  1  0
 27 51  1  0
 28 52  1  0
 29 53  1  0
 30 54  1  0
M  END
>  <smiles>  (91) 
O=C(NCC(=O)N1CCCCC1c1cccc(C(F)(F)F)c1)c1ccc2ccccc2n1

>  <score_type>  (91) 
oracle

>  <origin>  (91) 
autodockgpu

>  <m_score__min__energy>  (91) 
-8.9399999999999995

>  <m_primary>  (91) 
energy

>  <rmsd>  (91) 
1.8914501741663796

>  <m_score__min__rmsd>  (91) 
1.8914501741663796

>  <meeko>  (91) 
{"free_energy": -7.79, "intermolecular_energy": -9.58, "internal_energy": -2.03, "cluster_size": 16, "cluster_id": 2, "rank_in_cluster": 15}

>  <energy>  (91) 
-7.88

>  <cluster_rmsd>  (91) 
0.0

>  <cluster>  (91) 
4

$$$$

     RDKit          3D

 54 57  0  0  0  0  0  0  0  0999 V2000
  139.9880   71.2440  221.2130 O   0  0  0  0  0  0  0  0  0  0  0  0
  139.8760   71.8660  222.3030 C   0  0  0  0  0  0  0  0  0  0  0  0
  139.6550   73.3040  222.2250 N   0  0  0  0  0  0  0  0  0  0  0  0
  139.5930   73.8450  220.9100 C   0  0  0  0  0  0  0  0  0  0  0  0
  140.7680   73.8510  220.0600 C   0  0  0  0  0  0  0  0  0  0  0  0
  140.4870   73.9990  218.7900 O   0  0  0  0  0  0  0  0  0  0  0  0
  142.1330   73.7290  220.3440 N   0  0  0  0  0  0  0  0  0  0  0  0
  142.8110   72.5390  220.8100 C   0  0  0  0  0  0  0  0  0  0  0  0
  144.3210   72.7980  220.6620 C   0  0  0  0  0  0  0  0  0  0  0  0
  144.6800   73.3970  219.3480 C   0  0  0  0  0  0  0  0  0  0  0  0
  143.8420   74.6370  218.9940 C   0  0  0  0  0  0  0  0  0  0  0  0
  143.0060   74.9130  220.1970 C   0  0  1  0  0  0  0  0  0  0  0  0
  142.3230   76.1920  220.2570 C   0  0  0  0  0  0  0  0  0  0  0  0
  141.4430   76.5020  221.2870 C   0  0  0  0  0  0  0  0  0  0  0  0
  140.7580   77.6880  221.3580 C   0  0  0  0  0  0  0  0  0  0  0  0
  140.9190   78.6350  220.3930 C   0  0  0  0  0  0  0  0  0  0  0  0
  141.7880   78.3530  219.3550 C   0  0  0  0  0  0  0  0  0  0  0  0
  141.9520   79.3990  218.3090 C   0  0  0  0  0  0  0  0  0  0  0  0
  142.6110   78.9250  217.1890 F   0  0  0  0  0  0  0  0  0  0  0  0
  140.6850   79.8070  217.9360 F   0  0  0  0  0  0  0  0  0  0  0  0
  142.5830   80.5130  218.8320 F   0  0  0  0  0  0  0  0  0  0  0  0
  142.4780   77.1610  219.2840 C   0  0  0  0  0  0  0  0  0  0  0  0
  139.9550   71.2220  223.6030 C   0  0  0  0  0  0  0  0  0  0  0  0
  139.5090   69.9200  223.6890 C   0  0  0  0  0  0  0  0  0  0  0  0
  139.5590   69.2590  224.8920 C   0  0  0  0  0  0  0  0  0  0  0  0
  140.0620   69.9280  225.9990 C   0  0  0  0  0  0  0  0  0  0  0  0
  140.1290   69.3030  227.2160 C   0  0  0  0  0  0  0  0  0  0  0  0
  140.6240   69.9410  228.3360 C   0  0  0  0  0  0  0  0  0  0  0  0
  141.0640   71.2490  228.2190 C   0  0  0  0  0  0  0  0  0  0  0  0
  140.9980   71.8900  226.9800 C   0  0  0  0  0  0  0  0  0  0  0  0
  140.5020   71.2380  225.8780 C   0  0  0  0  0  0  0  0  0  0  0  0
  140.4420   71.8610  224.6860 N   0  0  0  0  0  0  0  0  0  0  0  0
  139.5560   73.7610  223.1360 H   0  0  0  0  0  0  0  0  0  0  0  0
  138.8182   73.2786  220.3725 H   0  0  0  0  0  0  0  0  0  0  0  0
  139.4135   74.9150  221.0912 H   0  0  0  0  0  0  0  0  0  0  0  0
  142.5612   72.3497  221.8644 H   0  0  0  0  0  0  0  0  0  0  0  0
  142.5038   71.6574  220.2282 H   0  0  0  0  0  0  0  0  0  0  0  0
  144.6390   73.4855  221.4597 H   0  0  0  0  0  0  0  0  0  0  0  0
  144.8309   71.8258  220.7318 H   0  0  0  0  0  0  0  0  0  0  0  0
  145.7403   73.6887  219.3755 H   0  0  0  0  0  0  0  0  0  0  0  0
  144.4782   72.6375  218.5783 H   0  0  0  0  0  0  0  0  0  0  0  0
  144.4969   75.4937  218.7768 H   0  0  0  0  0  0  0  0  0  0  0  0
  143.2246   74.4690  218.0993 H   0  0  0  0  0  0  0  0  0  0  0  0
  143.6614   75.0501  221.0697 H   0  0  0  0  0  0  0  0  0  0  0  0
  141.2883   75.7599  222.0842 H   0  0  0  0  0  0  0  0  0  0  0  0
  140.0746   77.8753  222.1994 H   0  0  0  0  0  0  0  0  0  0  0  0
  140.3767   79.5910  220.4376 H   0  0  0  0  0  0  0  0  0  0  0  0
  143.1611   76.9791  218.4413 H   0  0  0  0  0  0  0  0  0  0  0  0
  139.1143   69.4121  222.7967 H   0  0  0  0  0  0  0  0  0  0  0  0
  139.2074   68.2201  224.9763 H   0  0  0  0  0  0  0  0  0  0  0  0
  139.7787   68.2639  227.3035 H   0  0  0  0  0  0  0  0  0  0  0  0
  140.6681   69.4198  229.3037 H   0  0  0  0  0  0  0  0  0  0  0  0
  141.4628   71.7795  229.0962 H   0  0  0  0  0  0  0  0  0  0  0  0
  141.3473   72.9288  226.8858 H   0  0  0  0  0  0  0  0  0  0  0  0
  1  2  2  0
  2  3  1  0
  3  4  1  0
  4  5  1  0
  5  6  2  0
  5  7  1  0
  7  8  1  0
  8  9  1  0
  9 10  1  0
 10 11  1  0
 11 12  1  0
 12 13  1  0
 13 14  2  0
 14 15  1  0
 15 16  2  0
 16 17  1  0
 17 18  1  0
 18 19  1  0
 18 20  1  0
 18 21  1  0
 17 22  2  0
  2 23  1  0
 23 24  2  0
 24 25  1  0
 25 26  2  0
 26 27  1  0
 27 28  2  0
 28 29  1  0
 29 30  2  0
 30 31  1  0
 31 32  2  0
 12  7  1  0
 22 13  1  0
 32 23  1  0
 31 26  1  0
  3 33  1  0
  4 34  1  0
  4 35  1  0
  8 36  1  0
  8 37  1  0
  9 38  1  0
  9 39  1  0
 10 40  1  0
 10 41  1  0
 11 42  1  0
 11 43  1  0
 12 44  1  1
 14 45  1  0
 15 46  1  0
 16 47  1  0
 22 48  1  0
 24 49  1  0
 25 50  1  0
 27 51  1  0
 28 52  1  0
 29 53  1  0
 30 54  1  0
M  END
>  <smiles>  (92) 
O=C(NCC(=O)N1CCCCC1c1cccc(C(F)(F)F)c1)c1ccc2ccccc2n1

>  <score_type>  (92) 
oracle

>  <origin>  (92) 
autodockgpu

>  <m_score__min__energy>  (92) 
-8.9399999999999995

>  <m_primary>  (92) 
energy

>  <rmsd>  (92) 
2.8672568687777527

>  <m_score__min__rmsd>  (92) 
2.8672568687777527

>  <meeko>  (92) 
{"free_energy": -7.88, "intermolecular_energy": -9.67, "internal_energy": -1.81, "cluster_size": 1, "cluster_id": 4, "rank_in_cluster": 1}

>  <energy>  (92) 
-7.82

>  <cluster_rmsd>  (92) 
0.0

>  <cluster>  (92) 
5

$$$$

     RDKit          3D

 54 57  0  0  0  0  0  0  0  0999 V2000
  141.3220   72.2340  221.6450 O   0  0  0  0  0  0  0  0  0  0  0  0
  140.4340   72.4340  222.5170 C   0  0  0  0  0  0  0  0  0  0  0  0
  139.5940   73.6130  222.3490 N   0  0  0  0  0  0  0  0  0  0  0  0
  139.8800   74.4120  221.2060 C   0  0  0  0  0  0  0  0  0  0  0  0
  140.9830   75.3540  221.2240 C   0  0  0  0  0  0  0  0  0  0  0  0
  141.0860   76.0070  222.3540 O   0  0  0  0  0  0  0  0  0  0  0  0
  141.9490   75.6880  220.2680 N   0  0  0  0  0  0  0  0  0  0  0  0
  142.9670   74.8120  219.7320 C   0  0  0  0  0  0  0  0  0  0  0  0
  143.5600   75.5170  218.4990 C   0  0  0  0  0  0  0  0  0  0  0  0
  142.5180   76.0900  217.6030 C   0  0  0  0  0  0  0  0  0  0  0  0
  141.4980   76.9730  218.3400 C   0  0  0  0  0  0  0  0  0  0  0  0
  141.9910   77.0700  219.7440 C   0  0  1  0  0  0  0  0  0  0  0  0
  141.3820   78.0720  220.5980 C   0  0  0  0  0  0  0  0  0  0  0  0
  140.0700   78.4910  220.4120 C   0  0  0  0  0  0  0  0  0  0  0  0
  139.4730   79.4580  221.1810 C   0  0  0  0  0  0  0  0  0  0  0  0
  140.1650   80.0620  222.1850 C   0  0  0  0  0  0  0  0  0  0  0  0
  141.4730   79.6660  222.3930 C   0  0  0  0  0  0  0  0  0  0  0  0
  142.2150   80.3370  223.4950 C   0  0  0  0  0  0  0  0  0  0  0  0
  141.6390   81.5390  223.8630 F   0  0  0  0  0  0  0  0  0  0  0  0
  142.1900   79.4850  224.5830 F   0  0  0  0  0  0  0  0  0  0  0  0
  143.5460   80.4980  223.1550 F   0  0  0  0  0  0  0  0  0  0  0  0
  142.0740   78.6930  221.6210 C   0  0  0  0  0  0  0  0  0  0  0  0
  140.2170   71.5560  223.6550 C   0  0  0  0  0  0  0  0  0  0  0  0
  139.5660   70.3640  223.4160 C   0  0  0  0  0  0  0  0  0  0  0  0
  139.3330   69.4940  224.4520 C   0  0  0  0  0  0  0  0  0  0  0  0
  139.7650   69.8420  225.7240 C   0  0  0  0  0  0  0  0  0  0  0  0
  139.5520   69.0000  226.7840 C   0  0  0  0  0  0  0  0  0  0  0  0
  139.9700   69.3180  228.0610 C   0  0  0  0  0  0  0  0  0  0  0  0
  140.6220   70.5210  228.2700 C   0  0  0  0  0  0  0  0  0  0  0  0
  140.8410   71.3830  227.1930 C   0  0  0  0  0  0  0  0  0  0  0  0
  140.4180   71.0490  225.9300 C   0  0  0  0  0  0  0  0  0  0  0  0
  140.6330   71.8820  224.8950 N   0  0  0  0  0  0  0  0  0  0  0  0
  138.8790   73.7220  223.0730 H   0  0  0  0  0  0  0  0  0  0  0  0
  140.0727   73.7168  220.3756 H   0  0  0  0  0  0  0  0  0  0  0  0
  138.9978   75.0651  221.1335 H   0  0  0  0  0  0  0  0  0  0  0  0
  143.7519   74.6401  220.4833 H   0  0  0  0  0  0  0  0  0  0  0  0
  142.5418   73.8346  219.4600 H   0  0  0  0  0  0  0  0  0  0  0  0
  144.2151   76.3316  218.8415 H   0  0  0  0  0  0  0  0  0  0  0  0
  144.1137   74.7622  217.9213 H   0  0  0  0  0  0  0  0  0  0  0  0
  143.0158   76.6994  216.8343 H   0  0  0  0  0  0  0  0  0  0  0  0
  141.9628   75.2455  217.1687 H   0  0  0  0  0  0  0  0  0  0  0  0
  141.4510   77.9710  217.8799 H   0  0  0  0  0  0  0  0  0  0  0  0
  140.4841   76.5489  218.2933 H   0  0  0  0  0  0  0  0  0  0  0  0
  143.0135   77.4756  219.7419 H   0  0  0  0  0  0  0  0  0  0  0  0
  139.4811   78.0244  219.6086 H   0  0  0  0  0  0  0  0  0  0  0  0
  138.4298   79.7464  220.9849 H   0  0  0  0  0  0  0  0  0  0  0  0
  139.6995   80.8387  222.8096 H   0  0  0  0  0  0  0  0  0  0  0  0
  143.1172   78.4078  221.8222 H   0  0  0  0  0  0  0  0  0  0  0  0
  139.2344   70.1111  222.3981 H   0  0  0  0  0  0  0  0  0  0  0  0
  138.8141   68.5399  224.2773 H   0  0  0  0  0  0  0  0  0  0  0  0
  139.0340   68.0448  226.6129 H   0  0  0  0  0  0  0  0  0  0  0  0
  139.7880   68.6274  228.8976 H   0  0  0  0  0  0  0  0  0  0  0  0
  140.9655   70.7965  229.2780 H   0  0  0  0  0  0  0  0  0  0  0  0
  141.3579   72.3398  227.3583 H   0  0  0  0  0  0  0  0  0  0  0  0
  1  2  2  0
  2  3  1  0
  3  4  1  0
  4  5  1  0
  5  6  2  0
  5  7  1  0
  7  8  1  0
  8  9  1  0
  9 10  1  0
 10 11  1  0
 11 12  1  0
 12 13  1  0
 13 14  2  0
 14 15  1  0
 15 16  2  0
 16 17  1  0
 17 18  1  0
 18 19  1  0
 18 20  1  0
 18 21  1  0
 17 22  2  0
  2 23  1  0
 23 24  2  0
 24 25  1  0
 25 26  2  0
 26 27  1  0
 27 28  2  0
 28 29  1  0
 29 30  2  0
 30 31  1  0
 31 32  2  0
 12  7  1  0
 22 13  1  0
 32 23  1  0
 31 26  1  0
  3 33  1  0
  4 34  1  0
  4 35  1  0
  8 36  1  0
  8 37  1  0
  9 38  1  0
  9 39  1  0
 10 40  1  0
 10 41  1  0
 11 42  1  0
 11 43  1  0
 12 44  1  6
 14 45  1  0
 15 46  1  0
 16 47  1  0
 22 48  1  0
 24 49  1  0
 25 50  1  0
 27 51  1  0
 28 52  1  0
 29 53  1  0
 30 54  1  0
M  END
>  <smiles>  (93) 
O=C(NCC(=O)N1CCCCC1c1cccc(C(F)(F)F)c1)c1ccc2ccccc2n1

>  <score_type>  (93) 
oracle

>  <origin>  (93) 
autodockgpu

>  <m_score__min__energy>  (93) 
-8.9399999999999995

>  <m_primary>  (93) 
energy

>  <rmsd>  (93) 
2.033515043056767

>  <m_score__min__rmsd>  (93) 
2.033515043056767

>  <meeko>  (93) 
{"free_energy": -8.66, "intermolecular_energy": -10.44, "internal_energy": -1.46, "cluster_size": 19, "cluster_id": 1, "rank_in_cluster": 8}

>  <energy>  (93) 
-7.68

>  <cluster_rmsd>  (93) 
0.0

>  <cluster>  (93) 
6

$$$$

     RDKit          3D

 54 57  0  0  0  0  0  0  0  0999 V2000
  139.9350   73.4760  222.4550 O   0  0  0  0  0  0  0  0  0  0  0  0
  139.9940   72.2170  222.4710 C   0  0  0  0  0  0  0  0  0  0  0  0
  140.0920   71.5420  221.1830 N   0  0  0  0  0  0  0  0  0  0  0  0
  140.1090   72.3940  220.0440 C   0  0  0  0  0  0  0  0  0  0  0  0
  141.3510   72.9920  219.5900 C   0  0  0  0  0  0  0  0  0  0  0  0
  141.2280   73.6460  218.4630 O   0  0  0  0  0  0  0  0  0  0  0  0
  142.6420   73.0000  220.1310 N   0  0  0  0  0  0  0  0  0  0  0  0
  143.3540   71.8630  220.6700 C   0  0  0  0  0  0  0  0  0  0  0  0
  144.8230   72.2920  220.8320 C   0  0  0  0  0  0  0  0  0  0  0  0
  145.3520   73.0090  219.6390 C   0  0  0  0  0  0  0  0  0  0  0  0
  144.4570   74.1710  219.1800 C   0  0  0  0  0  0  0  0  0  0  0  0
  143.3810   74.2780  220.2060 C   0  0  1  0  0  0  0  0  0  0  0  0
  142.5530   75.4700  220.1850 C   0  0  0  0  0  0  0  0  0  0  0  0
  142.7350   76.4680  219.2340 C   0  0  0  0  0  0  0  0  0  0  0  0
  141.9920   77.6210  219.2050 C   0  0  0  0  0  0  0  0  0  0  0  0
  141.0210   77.8380  220.1330 C   0  0  0  0  0  0  0  0  0  0  0  0
  140.8180   76.8620  221.0920 C   0  0  0  0  0  0  0  0  0  0  0  0
  139.7530   77.1160  222.0990 C   0  0  0  0  0  0  0  0  0  0  0  0
  139.3290   75.9560  222.7210 F   0  0  0  0  0  0  0  0  0  0  0  0
  140.2870   77.9600  223.0560 F   0  0  0  0  0  0  0  0  0  0  0  0
  138.6950   77.7970  221.5240 F   0  0  0  0  0  0  0  0  0  0  0  0
  141.5640   75.7020  221.1220 C   0  0  0  0  0  0  0  0  0  0  0  0
  139.9700   71.4310  223.6930 C   0  0  0  0  0  0  0  0  0  0  0  0
  139.3380   70.2060  223.6400 C   0  0  0  0  0  0  0  0  0  0  0  0
  139.2830   69.4180  224.7630 C   0  0  0  0  0  0  0  0  0  0  0  0
  139.8720   69.8810  225.9310 C   0  0  0  0  0  0  0  0  0  0  0  0
  139.8380   69.1230  227.0730 C   0  0  0  0  0  0  0  0  0  0  0  0
  140.4140   69.5560  228.2510 C   0  0  0  0  0  0  0  0  0  0  0  0
  141.0410   70.7910  228.2730 C   0  0  0  0  0  0  0  0  0  0  0  0
  141.0770   71.5660  227.1120 C   0  0  0  0  0  0  0  0  0  0  0  0
  140.4990   71.1180  225.9500 C   0  0  0  0  0  0  0  0  0  0  0  0
  140.5380   71.8690  224.8340 N   0  0  0  0  0  0  0  0  0  0  0  0
  140.1520   70.5220  221.2510 H   0  0  0  0  0  0  0  0  0  0  0  0
  139.7176   71.8033  219.2027 H   0  0  0  0  0  0  0  0  0  0  0  0
  139.5229   73.2634  220.3766 H   0  0  0  0  0  0  0  0  0  0  0  0
  142.9325   71.5806  221.6460 H   0  0  0  0  0  0  0  0  0  0  0  0
  143.2691   70.9926  220.0028 H   0  0  0  0  0  0  0  0  0  0  0  0
  144.9001   72.9576  221.7044 H   0  0  0  0  0  0  0  0  0  0  0  0
  145.4216   71.3781  220.9603 H   0  0  0  0  0  0  0  0  0  0  0  0
  146.3459   73.4106  219.8857 H   0  0  0  0  0  0  0  0  0  0  0  0
  145.3907   72.2827  218.8138 H   0  0  0  0  0  0  0  0  0  0  0  0
  145.0356   75.1053  219.1315 H   0  0  0  0  0  0  0  0  0  0  0  0
  144.0452   73.9951  218.1753 H   0  0  0  0  0  0  0  0  0  0  0  0
  143.8384   74.4291  221.1949 H   0  0  0  0  0  0  0  0  0  0  0  0
  143.5119   76.3263  218.4683 H   0  0  0  0  0  0  0  0  0  0  0  0
  142.1825   78.3746  218.4267 H   0  0  0  0  0  0  0  0  0  0  0  0
  140.4181   78.7580  220.1211 H   0  0  0  0  0  0  0  0  0  0  0  0
  141.3690   74.9516  221.9023 H   0  0  0  0  0  0  0  0  0  0  0  0
  138.8796   69.8617  222.7012 H   0  0  0  0  0  0  0  0  0  0  0  0
  138.7820   68.4391  224.7373 H   0  0  0  0  0  0  0  0  0  0  0  0
  139.3383   68.1433  227.0502 H   0  0  0  0  0  0  0  0  0  0  0  0
  140.3756   68.9314  229.1557 H   0  0  0  0  0  0  0  0  0  0  0  0
  141.5074   71.1587  229.1989 H   0  0  0  0  0  0  0  0  0  0  0  0
  141.5743   72.5470  227.1286 H   0  0  0  0  0  0  0  0  0  0  0  0
  1  2  2  0
  2  3  1  0
  3  4  1  0
  4  5  1  0
  5  6  2  0
  5  7  1  0
  7  8  1  0
  8  9  1  0
  9 10  1  0
 10 11  1  0
 11 12  1  0
 12 13  1  0
 13 14  2  0
 14 15  1  0
 15 16  2  0
 16 17  1  0
 17 18  1  0
 18 19  1  0
 18 20  1  0
 18 21  1  0
 17 22  2  0
  2 23  1  0
 23 24  2  0
 24 25  1  0
 25 26  2  0
 26 27  1  0
 27 28  2  0
 28 29  1  0
 29 30  2  0
 30 31  1  0
 31 32  2  0
 12  7  1  0
 22 13  1  0
 32 23  1  0
 31 26  1  0
  3 33  1  0
  4 34  1  0
  4 35  1  0
  8 36  1  0
  8 37  1  0
  9 38  1  0
  9 39  1  0
 10 40  1  0
 10 41  1  0
 11 42  1  0
 11 43  1  0
 12 44  1  1
 14 45  1  0
 15 46  1  0
 16 47  1  0
 22 48  1  0
 24 49  1  0
 25 50  1  0
 27 51  1  0
 28 52  1  0
 29 53  1  0
 30 54  1  0
M  END
>  <smiles>  (94) 
O=C(NCC(=O)N1CCCCC1c1cccc(C(F)(F)F)c1)c1ccc2ccccc2n1

>  <score_type>  (94) 
oracle

>  <origin>  (94) 
autodockgpu

>  <m_score__min__energy>  (94) 
-8.9399999999999995

>  <m_primary>  (94) 
energy

>  <rmsd>  (94) 
3.4021107477620918

>  <m_score__min__rmsd>  (94) 
3.4021107477620918

>  <meeko>  (94) 
{"free_energy": -7.96, "intermolecular_energy": -9.75, "internal_energy": -1.82, "cluster_size": 5, "cluster_id": 3, "rank_in_cluster": 1}

>  <energy>  (94) 
-7.53

>  <cluster_rmsd>  (94) 
0.0

>  <cluster>  (94) 
7

$$$$

     RDKit          3D

 54 57  0  0  0  0  0  0  0  0999 V2000
  139.4330   73.3130  222.3790 O   0  0  0  0  0  0  0  0  0  0  0  0
  140.0900   72.2490  222.5330 C   0  0  0  0  0  0  0  0  0  0  0  0
  140.9260   71.8200  221.4190 N   0  0  0  0  0  0  0  0  0  0  0  0
  140.9020   72.6630  220.2730 C   0  0  0  0  0  0  0  0  0  0  0  0
  141.4400   74.0090  220.3390 C   0  0  0  0  0  0  0  0  0  0  0  0
  141.6530   74.4210  221.5630 O   0  0  0  0  0  0  0  0  0  0  0  0
  141.7700   74.9380  219.3450 N   0  0  0  0  0  0  0  0  0  0  0  0
  140.8470   75.6150  218.4610 C   0  0  0  0  0  0  0  0  0  0  0  0
  141.6300   76.7570  217.7880 C   0  0  0  0  0  0  0  0  0  0  0  0
  142.4550   77.5390  218.7500 C   0  0  0  0  0  0  0  0  0  0  0  0
  143.3560   76.6610  219.6330 C   0  0  0  0  0  0  0  0  0  0  0  0
  143.1920   75.2720  219.1190 C   0  0  1  0  0  0  0  0  0  0  0  0
  144.1400   74.2730  219.5780 C   0  0  0  0  0  0  0  0  0  0  0  0
  144.9910   74.5120  220.6510 C   0  0  0  0  0  0  0  0  0  0  0  0
  145.9190   73.6030  221.0900 C   0  0  0  0  0  0  0  0  0  0  0  0
  146.0470   72.3970  220.4740 C   0  0  0  0  0  0  0  0  0  0  0  0
  145.2130   72.1310  219.4030 C   0  0  0  0  0  0  0  0  0  0  0  0
  145.3660   70.8080  218.7400 C   0  0  0  0  0  0  0  0  0  0  0  0
  144.1820   70.0930  218.7110 F   0  0  0  0  0  0  0  0  0  0  0  0
  145.7690   71.0450  217.4390 F   0  0  0  0  0  0  0  0  0  0  0  0
  146.3800   70.0810  219.3370 F   0  0  0  0  0  0  0  0  0  0  0  0
  144.2790   73.0440  218.9610 C   0  0  0  0  0  0  0  0  0  0  0  0
  140.0490   71.4510  223.7470 C   0  0  0  0  0  0  0  0  0  0  0  0
  139.4380   70.2170  223.6700 C   0  0  0  0  0  0  0  0  0  0  0  0
  139.3690   69.4190  224.7840 C   0  0  0  0  0  0  0  0  0  0  0  0
  139.9230   69.8810  225.9700 C   0  0  0  0  0  0  0  0  0  0  0  0
  139.8750   69.1130  227.1040 C   0  0  0  0  0  0  0  0  0  0  0  0
  140.4170   69.5440  228.2990 C   0  0  0  0  0  0  0  0  0  0  0  0
  141.0240   70.7880  228.3450 C   0  0  0  0  0  0  0  0  0  0  0  0
  141.0750   71.5740  227.1920 C   0  0  0  0  0  0  0  0  0  0  0  0
  140.5310   71.1270  226.0130 C   0  0  0  0  0  0  0  0  0  0  0  0
  140.5840   71.8880  224.9040 N   0  0  0  0  0  0  0  0  0  0  0  0
  141.4500   70.9590  221.5990 H   0  0  0  0  0  0  0  0  0  0  0  0
  141.4605   72.1384  219.4838 H   0  0  0  0  0  0  0  0  0  0  0  0
  139.8271   72.8332  220.1128 H   0  0  0  0  0  0  0  0  0  0  0  0
  140.4693   74.9156  217.7006 H   0  0  0  0  0  0  0  0  0  0  0  0
  139.9821   76.0048  219.0178 H   0  0  0  0  0  0  0  0  0  0  0  0
  142.2949   76.3251  217.0255 H   0  0  0  0  0  0  0  0  0  0  0  0
  140.8949   77.4463  217.3469 H   0  0  0  0  0  0  0  0  0  0  0  0
  143.0924   78.2316  218.1807 H   0  0  0  0  0  0  0  0  0  0  0  0
  141.7607   78.0689  219.4187 H   0  0  0  0  0  0  0  0  0  0  0  0
  144.4052   76.9803  219.5479 H   0  0  0  0  0  0  0  0  0  0  0  0
  143.0815   76.7363  220.6955 H   0  0  0  0  0  0  0  0  0  0  0  0
  143.4531   75.2484  218.0507 H   0  0  0  0  0  0  0  0  0  0  0  0
  144.9163   75.4772  221.1732 H   0  0  0  0  0  0  0  0  0  0  0  0
  146.5641   73.8506  221.9458 H   0  0  0  0  0  0  0  0  0  0  0  0
  146.7878   71.6591  220.8156 H   0  0  0  0  0  0  0  0  0  0  0  0
  143.6356   72.7908  218.1055 H   0  0  0  0  0  0  0  0  0  0  0  0
  139.0071   69.8734  222.7180 H   0  0  0  0  0  0  0  0  0  0  0  0
  138.8843   68.4326  224.7382 H   0  0  0  0  0  0  0  0  0  0  0  0
  139.3914   68.1259  227.0613 H   0  0  0  0  0  0  0  0  0  0  0  0
  140.3675   68.9111  229.1973 H   0  0  0  0  0  0  0  0  0  0  0  0
  141.4634   71.1547  229.2844 H   0  0  0  0  0  0  0  0  0  0  0  0
  141.5564   72.5624  227.2285 H   0  0  0  0  0  0  0  0  0  0  0  0
  1  2  2  0
  2  3  1  0
  3  4  1  0
  4  5  1  0
  5  6  2  0
  5  7  1  0
  7  8  1  0
  8  9  1  0
  9 10  1  0
 10 11  1  0
 11 12  1  0
 12 13  1  0
 13 14  2  0
 14 15  1  0
 15 16  2  0
 16 17  1  0
 17 18  1  0
 18 19  1  0
 18 20  1  0
 18 21  1  0
 17 22  2  0
  2 23  1  0
 23 24  2  0
 24 25  1  0
 25 26  2  0
 26 27  1  0
 27 28  2  0
 28 29  1  0
 29 30  2  0
 30 31  1  0
 31 32  2  0
 12  7  1  0
 22 13  1  0
 32 23  1  0
 31 26  1  0
  3 33  1  0
  4 34  1  0
  4 35  1  0
  8 36  1  0
  8 37  1  0
  9 38  1  0
  9 39  1  0
 10 40  1  0
 10 41  1  0
 11 42  1  0
 11 43  1  0
 12 44  1  6
 14 45  1  0
 15 46  1  0
 16 47  1  0
 22 48  1  0
 24 49  1  0
 25 50  1  0
 27 51  1  0
 28 52  1  0
 29 53  1  0
 30 54  1  0
M  END
>  <smiles>  (95) 
O=C(NCC(=O)N1CCCCC1c1cccc(C(F)(F)F)c1)c1ccc2ccccc2n1

>  <score_type>  (95) 
oracle

>  <origin>  (95) 
autodockgpu

>  <m_score__min__energy>  (95) 
-8.9399999999999995

>  <m_primary>  (95) 
energy

>  <rmsd>  (95) 
2.2875937686821555

>  <m_score__min__rmsd>  (95) 
2.2875937686821555

>  <meeko>  (95) 
{"free_energy": -8.31, "intermolecular_energy": -10.1, "internal_energy": -1.48, "cluster_size": 16, "cluster_id": 2, "rank_in_cluster": 2}

>  <energy>  (95) 
-7.47

>  <cluster_rmsd>  (95) 
0.0

>  <cluster>  (95) 
8

$$$$

     RDKit          3D

 54 57  0  0  0  0  0  0  0  0999 V2000
  139.5260   74.3740  221.7900 O   0  0  0  0  0  0  0  0  0  0  0  0
  140.7230   74.7100  221.5820 C   0  0  0  0  0  0  0  0  0  0  0  0
  141.0810   76.0940  221.8640 N   0  0  0  0  0  0  0  0  0  0  0  0
  140.0230   76.9160  222.3460 C   0  0  0  0  0  0  0  0  0  0  0  0
  139.9090   78.2970  221.9160 C   0  0  0  0  0  0  0  0  0  0  0  0
  139.0880   78.4580  220.9100 O   0  0  0  0  0  0  0  0  0  0  0  0
  140.5080   79.4760  222.3750 N   0  0  0  0  0  0  0  0  0  0  0  0
  140.0700   80.2830  223.4940 C   0  0  0  0  0  0  0  0  0  0  0  0
  141.2100   81.2670  223.8070 C   0  0  0  0  0  0  0  0  0  0  0  0
  142.5480   80.6150  223.8320 C   0  0  0  0  0  0  0  0  0  0  0  0
  142.8390   79.7720  222.5810 C   0  0  0  0  0  0  0  0  0  0  0  0
  141.6890   80.0050  221.6620 C   0  0  1  0  0  0  0  0  0  0  0  0
  141.8300   79.5610  220.2880 C   0  0  0  0  0  0  0  0  0  0  0  0
  141.5840   80.4120  219.2170 C   0  0  0  0  0  0  0  0  0  0  0  0
  141.6770   80.0160  217.9070 C   0  0  0  0  0  0  0  0  0  0  0  0
  142.0230   78.7370  217.5970 C   0  0  0  0  0  0  0  0  0  0  0  0
  142.2730   77.8680  218.6430 C   0  0  0  0  0  0  0  0  0  0  0  0
  142.6490   76.4730  218.2870 C   0  0  0  0  0  0  0  0  0  0  0  0
  143.0430   76.3540  216.9660 F   0  0  0  0  0  0  0  0  0  0  0  0
  143.7110   76.1160  219.0970 F   0  0  0  0  0  0  0  0  0  0  0  0
  141.6180   75.6020  218.5870 F   0  0  0  0  0  0  0  0  0  0  0  0
  142.1800   78.2650  219.9610 C   0  0  0  0  0  0  0  0  0  0  0  0
  141.7360   73.7950  221.0850 C   0  0  0  0  0  0  0  0  0  0  0  0
  141.3490   72.4910  220.8550 C   0  0  0  0  0  0  0  0  0  0  0  0
  142.2620   71.5800  220.3850 C   0  0  0  0  0  0  0  0  0  0  0  0
  143.5640   72.0020  220.1520 C   0  0  0  0  0  0  0  0  0  0  0  0
  144.5050   71.1230  219.6830 C   0  0  0  0  0  0  0  0  0  0  0  0
  145.8080   71.5120  219.4420 C   0  0  0  0  0  0  0  0  0  0  0  0
  146.1670   72.8270  219.6820 C   0  0  0  0  0  0  0  0  0  0  0  0
  145.2110   73.7270  220.1610 C   0  0  0  0  0  0  0  0  0  0  0  0
  143.9200   73.3210  220.3950 C   0  0  0  0  0  0  0  0  0  0  0  0
  143.0030   74.1920  220.8550 N   0  0  0  0  0  0  0  0  0  0  0  0
  142.0660   76.3130  221.6940 H   0  0  0  0  0  0  0  0  0  0  0  0
  139.0835   76.4190  222.0623 H   0  0  0  0  0  0  0  0  0  0  0  0
  140.2507   77.0088  223.4182 H   0  0  0  0  0  0  0  0  0  0  0  0
  139.1562   80.8346  223.2281 H   0  0  0  0  0  0  0  0  0  0  0  0
  139.8407   79.6547  224.3673 H   0  0  0  0  0  0  0  0  0  0  0  0
  141.2168   82.0526  223.0371 H   0  0  0  0  0  0  0  0  0  0  0  0
  141.0246   81.6784  224.8102 H   0  0  0  0  0  0  0  0  0  0  0  0
  143.3162   81.3983  223.9112 H   0  0  0  0  0  0  0  0  0  0  0  0
  142.5605   79.9320  224.6942 H   0  0  0  0  0  0  0  0  0  0  0  0
  143.7785   80.0964  222.1098 H   0  0  0  0  0  0  0  0  0  0  0  0
  142.9530   78.7059  222.8270 H   0  0  0  0  0  0  0  0  0  0  0  0
  141.5977   81.0828  221.4621 H   0  0  0  0  0  0  0  0  0  0  0  0
  141.3011   81.4534  219.4302 H   0  0  0  0  0  0  0  0  0  0  0  0
  141.4706   80.7368  217.1021 H   0  0  0  0  0  0  0  0  0  0  0  0
  142.1011   78.4060  216.5509 H   0  0  0  0  0  0  0  0  0  0  0  0
  142.3872   77.5402  220.7621 H   0  0  0  0  0  0  0  0  0  0  0  0
  140.3111   72.1819  221.0478 H   0  0  0  0  0  0  0  0  0  0  0  0
  141.9680   70.5369  220.1968 H   0  0  0  0  0  0  0  0  0  0  0  0
  144.2145   70.0791  219.4933 H   0  0  0  0  0  0  0  0  0  0  0  0
  146.5474   70.7896  219.0660 H   0  0  0  0  0  0  0  0  0  0  0  0
  147.1984   73.1617  219.4969 H   0  0  0  0  0  0  0  0  0  0  0  0
  145.4957   74.7721  220.3527 H   0  0  0  0  0  0  0  0  0  0  0  0
  1  2  2  0
  2  3  1  0
  3  4  1  0
  4  5  1  0
  5  6  2  0
  5  7  1  0
  7  8  1  0
  8  9  1  0
  9 10  1  0
 10 11  1  0
 11 12  1  0
 12 13  1  0
 13 14  2  0
 14 15  1  0
 15 16  2  0
 16 17  1  0
 17 18  1  0
 18 19  1  0
 18 20  1  0
 18 21  1  0
 17 22  2  0
  2 23  1  0
 23 24  2  0
 24 25  1  0
 25 26  2  0
 26 27  1  0
 27 28  2  0
 28 29  1  0
 29 30  2  0
 30 31  1  0
 31 32  2  0
 12  7  1  0
 22 13  1  0
 32 23  1  0
 31 26  1  0
  3 33  1  0
  4 34  1  0
  4 35  1  0
  8 36  1  0
  8 37  1  0
  9 38  1  0
  9 39  1  0
 10 40  1  0
 10 41  1  0
 11 42  1  0
 11 43  1  0
 12 44  1  6
 14 45  1  0
 15 46  1  0
 16 47  1  0
 22 48  1  0
 24 49  1  0
 25 50  1  0
 27 51  1  0
 28 52  1  0
 29 53  1  0
 30 54  1  0
M  END
>  <smiles>  (96) 
O=C(NCC(=O)N1CCCCC1c1cccc(C(F)(F)F)c1)c1ccc2ccccc2n1

>  <score_type>  (96) 
oracle

>  <origin>  (96) 
autodockgpu

>  <m_score__min__energy>  (96) 
-8.9399999999999995

>  <m_primary>  (96) 
energy

>  <rmsd>  (96) 
6.550796731925917

>  <m_score__min__rmsd>  (96) 
6.550796731925917

>  <meeko>  (96) 
{"free_energy": -7.34, "intermolecular_energy": -9.13, "internal_energy": -2.45, "cluster_size": 6, "cluster_id": 8, "rank_in_cluster": 4}

>  <energy>  (96) 
-7.4

>  <cluster_rmsd>  (96) 
0.17

>  <cluster>  (96) 
8

$$$$

     RDKit          3D

 54 57  0  0  0  0  0  0  0  0999 V2000
  140.3460   71.4040  221.3190 O   0  0  0  0  0  0  0  0  0  0  0  0
  140.0960   71.9430  222.4300 C   0  0  0  0  0  0  0  0  0  0  0  0
  139.7840   73.3670  222.4200 N   0  0  0  0  0  0  0  0  0  0  0  0
  139.8020   73.9890  221.1400 C   0  0  0  0  0  0  0  0  0  0  0  0
  140.5790   75.1940  220.9180 C   0  0  0  0  0  0  0  0  0  0  0  0
  141.0750   75.6980  222.0190 O   0  0  0  0  0  0  0  0  0  0  0  0
  140.8940   75.9080  219.7560 N   0  0  0  0  0  0  0  0  0  0  0  0
  140.0440   76.8620  219.0770 C   0  0  0  0  0  0  0  0  0  0  0  0
  140.9310   77.6110  218.0680 C   0  0  0  0  0  0  0  0  0  0  0  0
  142.2290   78.0490  218.6500 C   0  0  0  0  0  0  0  0  0  0  0  0
  142.9900   76.9180  219.3620 C   0  0  0  0  0  0  0  0  0  0  0  0
  142.2010   75.6800  219.1050 C   0  0  1  0  0  0  0  0  0  0  0  0
  142.8300   74.4090  219.4160 C   0  0  0  0  0  0  0  0  0  0  0  0
  142.1770   73.2000  219.2060 C   0  0  0  0  0  0  0  0  0  0  0  0
  142.7300   71.9850  219.5180 C   0  0  0  0  0  0  0  0  0  0  0  0
  143.9760   71.9140  220.0600 C   0  0  0  0  0  0  0  0  0  0  0  0
  144.6500   73.1010  220.2800 C   0  0  0  0  0  0  0  0  0  0  0  0
  146.0100   73.0060  220.8740 C   0  0  0  0  0  0  0  0  0  0  0  0
  146.6990   71.8890  220.4370 F   0  0  0  0  0  0  0  0  0  0  0  0
  146.7080   74.1340  220.4840 F   0  0  0  0  0  0  0  0  0  0  0  0
  145.9400   73.0480  222.2550 F   0  0  0  0  0  0  0  0  0  0  0  0
  144.0950   74.3250  219.9670 C   0  0  0  0  0  0  0  0  0  0  0  0
  140.1030   71.2200  223.6910 C   0  0  0  0  0  0  0  0  0  0  0  0
  139.5950   69.9380  223.6840 C   0  0  0  0  0  0  0  0  0  0  0  0
  139.5750   69.2060  224.8450 C   0  0  0  0  0  0  0  0  0  0  0  0
  140.0740   69.7830  226.0050 C   0  0  0  0  0  0  0  0  0  0  0  0
  140.0720   69.0840  227.1840 C   0  0  0  0  0  0  0  0  0  0  0  0
  140.5600   69.6300  228.3550 C   0  0  0  0  0  0  0  0  0  0  0  0
  141.0640   70.9200  228.3290 C   0  0  0  0  0  0  0  0  0  0  0  0
  141.0680   71.6360  227.1300 C   0  0  0  0  0  0  0  0  0  0  0  0
  140.5780   71.0750  225.9770 C   0  0  0  0  0  0  0  0  0  0  0  0
  140.5840   71.7690  224.8230 N   0  0  0  0  0  0  0  0  0  0  0  0
  139.5740   73.7540  223.3440 H   0  0  0  0  0  0  0  0  0  0  0  0
  140.1763   73.2373  220.4295 H   0  0  0  0  0  0  0  0  0  0  0  0
  138.7655   74.3371  221.0194 H   0  0  0  0  0  0  0  0  0  0  0  0
  139.2321   76.3382  218.5512 H   0  0  0  0  0  0  0  0  0  0  0  0
  139.5854   77.5602  219.7926 H   0  0  0  0  0  0  0  0  0  0  0  0
  141.1352   76.9439  217.2175 H   0  0  0  0  0  0  0  0  0  0  0  0
  140.3867   78.5153  217.7581 H   0  0  0  0  0  0  0  0  0  0  0  0
  142.8616   78.4384  217.8387 H   0  0  0  0  0  0  0  0  0  0  0  0
  142.0044   78.8161  219.4057 H   0  0  0  0  0  0  0  0  0  0  0  0
  144.0049   76.8191  218.9494 H   0  0  0  0  0  0  0  0  0  0  0  0
  143.0983   77.1154  220.4387 H   0  0  0  0  0  0  0  0  0  0  0  0
  142.0983   75.5363  218.0193 H   0  0  0  0  0  0  0  0  0  0  0  0
  141.1680   73.2191  218.7684 H   0  0  0  0  0  0  0  0  0  0  0  0
  142.1628   71.0617  219.3290 H   0  0  0  0  0  0  0  0  0  0  0  0
  144.4314   70.9456  220.3144 H   0  0  0  0  0  0  0  0  0  0  0  0
  144.6663   75.2453  220.1583 H   0  0  0  0  0  0  0  0  0  0  0  0
  139.2070   69.5034  222.7510 H   0  0  0  0  0  0  0  0  0  0  0  0
  139.1717   68.1827  224.8561 H   0  0  0  0  0  0  0  0  0  0  0  0
  139.6707   68.0599  227.1979 H   0  0  0  0  0  0  0  0  0  0  0  0
  140.5487   69.0515  229.2905 H   0  0  0  0  0  0  0  0  0  0  0  0
  141.4590   71.3780  229.2478 H   0  0  0  0  0  0  0  0  0  0  0  0
  141.4681   72.6605  227.1093 H   0  0  0  0  0  0  0  0  0  0  0  0
  1  2  2  0
  2  3  1  0
  3  4  1  0
  4  5  1  0
  5  6  2  0
  5  7  1  0
  7  8  1  0
  8  9  1  0
  9 10  1  0
 10 11  1  0
 11 12  1  0
 12 13  1  0
 13 14  2  0
 14 15  1  0
 15 16  2  0
 16 17  1  0
 17 18  1  0
 18 19  1  0
 18 20  1  0
 18 21  1  0
 17 22  2  0
  2 23  1  0
 23 24  2  0
 24 25  1  0
 25 26  2  0
 26 27  1  0
 27 28  2  0
 28 29  1  0
 29 30  2  0
 30 31  1  0
 31 32  2  0
 12  7  1  0
 22 13  1  0
 32 23  1  0
 31 26  1  0
  3 33  1  0
  4 34  1  0
  4 35  1  0
  8 36  1  0
  8 37  1  0
  9 38  1  0
  9 39  1  0
 10 40  1  0
 10 41  1  0
 11 42  1  0
 11 43  1  0
 12 44  1  6
 14 45  1  0
 15 46  1  0
 16 47  1  0
 22 48  1  0
 24 49  1  0
 25 50  1  0
 27 51  1  0
 28 52  1  0
 29 53  1  0
 30 54  1  0
M  END
>  <smiles>  (97) 
O=C(NCC(=O)N1CCCCC1c1cccc(C(F)(F)F)c1)c1ccc2ccccc2n1

>  <score_type>  (97) 
oracle

>  <origin>  (97) 
autodockgpu

>  <m_score__min__energy>  (97) 
-8.9399999999999995

>  <m_primary>  (97) 
energy

>  <rmsd>  (97) 
1.846228517346512

>  <m_score__min__rmsd>  (97) 
1.846228517346512

>  <meeko>  (97) 
{"free_energy": -8.27, "intermolecular_energy": -10.06, "internal_energy": -1.93, "cluster_size": 16, "cluster_id": 2, "rank_in_cluster": 3}

>  <energy>  (97) 
-7.35

>  <cluster_rmsd>  (97) 
0.16

>  <cluster>  (97) 
8

$$$$

     RDKit          3D

 54 57  0  0  0  0  0  0  0  0999 V2000
  139.9680   71.2040  221.1900 O   0  0  0  0  0  0  0  0  0  0  0  0
  139.9560   71.8560  222.2680 C   0  0  0  0  0  0  0  0  0  0  0  0
  139.8830   73.3080  222.1650 N   0  0  0  0  0  0  0  0  0  0  0  0
  139.8330   73.8260  220.8400 C   0  0  0  0  0  0  0  0  0  0  0  0
  140.9980   73.7550  219.9780 C   0  0  0  0  0  0  0  0  0  0  0  0
  140.7010   73.7950  218.7040 O   0  0  0  0  0  0  0  0  0  0  0  0
  142.3670   73.6550  220.2550 N   0  0  0  0  0  0  0  0  0  0  0  0
  143.0370   72.5330  220.8750 C   0  0  0  0  0  0  0  0  0  0  0  0
  144.5470   72.7450  220.6670 C   0  0  0  0  0  0  0  0  0  0  0  0
  144.8900   73.1460  219.2750 C   0  0  0  0  0  0  0  0  0  0  0  0
  144.0620   74.3350  218.7620 C   0  0  0  0  0  0  0  0  0  0  0  0
  143.2510   74.7920  219.9260 C   0  0  1  0  0  0  0  0  0  0  0  0
  142.5860   76.0770  219.8140 C   0  0  0  0  0  0  0  0  0  0  0  0
  142.7390   76.8830  218.6920 C   0  0  0  0  0  0  0  0  0  0  0  0
  142.1510   78.1160  218.5680 C   0  0  0  0  0  0  0  0  0  0  0  0
  141.3720   78.6120  219.5680 C   0  0  0  0  0  0  0  0  0  0  0  0
  141.2030   77.8320  220.6970 C   0  0  0  0  0  0  0  0  0  0  0  0
  140.3490   78.3890  221.7810 C   0  0  0  0  0  0  0  0  0  0  0  0
  139.8970   77.4120  222.6500 F   0  0  0  0  0  0  0  0  0  0  0  0
  141.1240   79.2860  222.4920 F   0  0  0  0  0  0  0  0  0  0  0  0
  139.3010   79.1150  221.2470 F   0  0  0  0  0  0  0  0  0  0  0  0
  141.7930   76.5910  220.8230 C   0  0  0  0  0  0  0  0  0  0  0  0
  140.0110   71.2330  223.5800 C   0  0  0  0  0  0  0  0  0  0  0  0
  139.5450   69.9390  223.6820 C   0  0  0  0  0  0  0  0  0  0  0  0
  139.5710   69.2980  224.8960 C   0  0  0  0  0  0  0  0  0  0  0  0
  140.0730   69.9780  225.9980 C   0  0  0  0  0  0  0  0  0  0  0  0
  140.1160   69.3720  227.2260 C   0  0  0  0  0  0  0  0  0  0  0  0
  140.6090   70.0220  228.3410 C   0  0  0  0  0  0  0  0  0  0  0  0
  141.0700   71.3200  228.2070 C   0  0  0  0  0  0  0  0  0  0  0  0
  141.0270   71.9420  226.9560 C   0  0  0  0  0  0  0  0  0  0  0  0
  140.5340   71.2790  225.8600 C   0  0  0  0  0  0  0  0  0  0  0  0
  140.4960   71.8820  224.6570 N   0  0  0  0  0  0  0  0  0  0  0  0
  139.8610   73.7890  223.0680 H   0  0  0  0  0  0  0  0  0  0  0  0
  139.0243   73.2896  220.3220 H   0  0  0  0  0  0  0  0  0  0  0  0
  139.7095   74.9071  221.0011 H   0  0  0  0  0  0  0  0  0  0  0  0
  142.8040   72.4997  221.9495 H   0  0  0  0  0  0  0  0  0  0  0  0
  142.7075   71.5823  220.4304 H   0  0  0  0  0  0  0  0  0  0  0  0
  144.8884   73.5337  221.3536 H   0  0  0  0  0  0  0  0  0  0  0  0
  145.0453   71.7847  220.8659 H   0  0  0  0  0  0  0  0  0  0  0  0
  145.9542   73.4226  219.2438 H   0  0  0  0  0  0  0  0  0  0  0  0
  144.6648   72.2880  218.6245 H   0  0  0  0  0  0  0  0  0  0  0  0
  144.7238   75.1421  218.4148 H   0  0  0  0  0  0  0  0  0  0  0  0
  143.4266   74.0506  217.9103 H   0  0  0  0  0  0  0  0  0  0  0  0
  143.9235   75.0423  220.7597 H   0  0  0  0  0  0  0  0  0  0  0  0
  143.3617   76.5143  217.8635 H   0  0  0  0  0  0  0  0  0  0  0  0
  142.3100   78.7078  217.6545 H   0  0  0  0  0  0  0  0  0  0  0  0
  140.8937   79.5987  219.4809 H   0  0  0  0  0  0  0  0  0  0  0  0
  141.6302   76.0030  221.7383 H   0  0  0  0  0  0  0  0  0  0  0  0
  139.1536   69.4220  222.7935 H   0  0  0  0  0  0  0  0  0  0  0  0
  139.2016   68.2665  224.9938 H   0  0  0  0  0  0  0  0  0  0  0  0
  139.7481   68.3403  227.3269 H   0  0  0  0  0  0  0  0  0  0  0  0
  140.6346   69.5169  229.3178 H   0  0  0  0  0  0  0  0  0  0  0  0
  141.4678   71.8588  229.0796 H   0  0  0  0  0  0  0  0  0  0  0  0
  141.3922   72.9740  226.8487 H   0  0  0  0  0  0  0  0  0  0  0  0
  1  2  2  0
  2  3  1  0
  3  4  1  0
  4  5  1  0
  5  6  2  0
  5  7  1  0
  7  8  1  0
  8  9  1  0
  9 10  1  0
 10 11  1  0
 11 12  1  0
 12 13  1  0
 13 14  2  0
 14 15  1  0
 15 16  2  0
 16 17  1  0
 17 18  1  0
 18 19  1  0
 18 20  1  0
 18 21  1  0
 17 22  2  0
  2 23  1  0
 23 24  2  0
 24 25  1  0
 25 26  2  0
 26 27  1  0
 27 28  2  0
 28 29  1  0
 29 30  2  0
 30 31  1  0
 31 32  2  0
 12  7  1  0
 22 13  1  0
 32 23  1  0
 31 26  1  0
  3 33  1  0
  4 34  1  0
  4 35  1  0
  8 36  1  0
  8 37  1  0
  9 38  1  0
  9 39  1  0
 10 40  1  0
 10 41  1  0
 11 42  1  0
 11 43  1  0
 12 44  1  1
 14 45  1  0
 15 46  1  0
 16 47  1  0
 22 48  1  0
 24 49  1  0
 25 50  1  0
 27 51  1  0
 28 52  1  0
 29 53  1  0
 30 54  1  0
M  END
>  <smiles>  (98) 
O=C(NCC(=O)N1CCCCC1c1cccc(C(F)(F)F)c1)c1ccc2ccccc2n1

>  <score_type>  (98) 
oracle

>  <origin>  (98) 
autodockgpu

>  <m_score__min__energy>  (98) 
-8.9399999999999995

>  <m_primary>  (98) 
energy

>  <rmsd>  (98) 
3.022648855706911

>  <m_score__min__rmsd>  (98) 
3.022648855706911

>  <meeko>  (98) 
{"free_energy": -7.81, "intermolecular_energy": -9.6, "internal_energy": -1.91, "cluster_size": 5, "cluster_id": 3, "rank_in_cluster": 4}

>  <energy>  (98) 
-7.34

>  <cluster_rmsd>  (98) 
0.2

>  <cluster>  (98) 
8

$$$$

     RDKit          3D

 54 57  0  0  0  0  0  0  0  0999 V2000
  139.8680   71.1530  221.2220 O   0  0  0  0  0  0  0  0  0  0  0  0
  139.7150   71.7820  222.3040 C   0  0  0  0  0  0  0  0  0  0  0  0
  139.3820   73.1970  222.2050 N   0  0  0  0  0  0  0  0  0  0  0  0
  139.2690   73.7100  220.8820 C   0  0  0  0  0  0  0  0  0  0  0  0
  140.4420   73.8300  220.0370 C   0  0  0  0  0  0  0  0  0  0  0  0
  140.1530   74.0990  218.7890 O   0  0  0  0  0  0  0  0  0  0  0  0
  141.8110   73.7140  220.3070 N   0  0  0  0  0  0  0  0  0  0  0  0
  142.5530   72.4830  220.4700 C   0  0  0  0  0  0  0  0  0  0  0  0
  144.0450   72.8520  220.4210 C   0  0  0  0  0  0  0  0  0  0  0  0
  144.3760   73.7840  219.3080 C   0  0  0  0  0  0  0  0  0  0  0  0
  143.4710   75.0250  219.2630 C   0  0  0  0  0  0  0  0  0  0  0  0
  142.6150   74.9420  220.4800 C   0  0  1  0  0  0  0  0  0  0  0  0
  141.8600   76.1260  220.8490 C   0  0  0  0  0  0  0  0  0  0  0  0
  141.0210   76.1410  221.9570 C   0  0  0  0  0  0  0  0  0  0  0  0
  140.2710   77.2320  222.3150 C   0  0  0  0  0  0  0  0  0  0  0  0
  140.3200   78.3740  221.5780 C   0  0  0  0  0  0  0  0  0  0  0  0
  141.1470   78.3880  220.4690 C   0  0  0  0  0  0  0  0  0  0  0  0
  141.1890   79.6440  219.6730 C   0  0  0  0  0  0  0  0  0  0  0  0
  141.7040   80.7070  220.3930 F   0  0  0  0  0  0  0  0  0  0  0  0
  142.0080   79.4120  218.5840 F   0  0  0  0  0  0  0  0  0  0  0  0
  139.9360   79.9380  219.1650 F   0  0  0  0  0  0  0  0  0  0  0  0
  141.9030   77.2910  220.1080 C   0  0  0  0  0  0  0  0  0  0  0  0
  139.8530   71.1670  223.6130 C   0  0  0  0  0  0  0  0  0  0  0  0
  139.4460   69.8560  223.7390 C   0  0  0  0  0  0  0  0  0  0  0  0
  139.5510   69.2220  224.9520 C   0  0  0  0  0  0  0  0  0  0  0  0
  140.0710   69.9260  226.0290 C   0  0  0  0  0  0  0  0  0  0  0  0
  140.1930   69.3280  227.2560 C   0  0  0  0  0  0  0  0  0  0  0  0
  140.7070   70.0020  228.3470 C   0  0  0  0  0  0  0  0  0  0  0  0
  141.1080   71.3180  228.1890 C   0  0  0  0  0  0  0  0  0  0  0  0
  140.9850   71.9320  226.9400 C   0  0  0  0  0  0  0  0  0  0  0  0
  140.4720   71.2450  225.8680 C   0  0  0  0  0  0  0  0  0  0  0  0
  140.3570   71.8410  224.6660 N   0  0  0  0  0  0  0  0  0  0  0  0
  139.2540   73.6590  223.1100 H   0  0  0  0  0  0  0  0  0  0  0  0
  138.5624   73.0563  220.3496 H   0  0  0  0  0  0  0  0  0  0  0  0
  138.9741   74.7569  221.0466 H   0  0  0  0  0  0  0  0  0  0  0  0
  142.3094   72.0196  221.4374 H   0  0  0  0  0  0  0  0  0  0  0  0
  142.2991   71.7621  219.6789 H   0  0  0  0  0  0  0  0  0  0  0  0
  144.3195   73.3305  221.3727 H   0  0  0  0  0  0  0  0  0  0  0  0
  144.6090   71.9229  220.2518 H   0  0  0  0  0  0  0  0  0  0  0  0
  145.4177   74.1161  219.4291 H   0  0  0  0  0  0  0  0  0  0  0  0
  144.2219   73.2349  218.3674 H   0  0  0  0  0  0  0  0  0  0  0  0
  144.0770   75.9429  219.2818 H   0  0  0  0  0  0  0  0  0  0  0  0
  142.8684   75.0558  218.3432 H   0  0  0  0  0  0  0  0  0  0  0  0
  143.2573   74.8891  221.3715 H   0  0  0  0  0  0  0  0  0  0  0  0
  140.9554   75.2344  222.5765 H   0  0  0  0  0  0  0  0  0  0  0  0
  139.6254   77.1831  223.2043 H   0  0  0  0  0  0  0  0  0  0  0  0
  139.7230   79.2557  221.8540 H   0  0  0  0  0  0  0  0  0  0  0  0
  142.5481   77.3452  219.2187 H   0  0  0  0  0  0  0  0  0  0  0  0
  139.0381   69.3193  222.8698 H   0  0  0  0  0  0  0  0  0  0  0  0
  139.2293   68.1765  225.0681 H   0  0  0  0  0  0  0  0  0  0  0  0
  139.8728   68.2824  227.3755 H   0  0  0  0  0  0  0  0  0  0  0  0
  140.7961   69.5025  229.3230 H   0  0  0  0  0  0  0  0  0  0  0  0
  141.5210   71.8767  229.0418 H   0  0  0  0  0  0  0  0  0  0  0  0
  141.3028   72.9776  226.8143 H   0  0  0  0  0  0  0  0  0  0  0  0
  1  2  2  0
  2  3  1  0
  3  4  1  0
  4  5  1  0
  5  6  2  0
  5  7  1  0
  7  8  1  0
  8  9  1  0
  9 10  1  0
 10 11  1  0
 11 12  1  0
 12 13  1  0
 13 14  2  0
 14 15  1  0
 15 16  2  0
 16 17  1  0
 17 18  1  0
 18 19  1  0
 18 20  1  0
 18 21  1  0
 17 22  2  0
  2 23  1  0
 23 24  2  0
 24 25  1  0
 25 26  2  0
 26 27  1  0
 27 28  2  0
 28 29  1  0
 29 30  2  0
 30 31  1  0
 31 32  2  0
 12  7  1  0
 22 13  1  0
 32 23  1  0
 31 26  1  0
  3 33  1  0
  4 34  1  0
  4 35  1  0
  8 36  1  0
  8 37  1  0
  9 38  1  0
  9 39  1  0
 10 40  1  0
 10 41  1  0
 11 42  1  0
 11 43  1  0
 12 44  1  1
 14 45  1  0
 15 46  1  0
 16 47  1  0
 22 48  1  0
 24 49  1  0
 25 50  1  0
 27 51  1  0
 28 52  1  0
 29 53  1  0
 30 54  1  0
M  END
>  <smiles>  (99) 
O=C(NCC(=O)N1CCCCC1c1cccc(C(F)(F)F)c1)c1ccc2ccccc2n1

>  <score_type>  (99) 
oracle

>  <origin>  (99) 
autodockgpu

>  <m_score__min__energy>  (99) 
-8.9399999999999995

>  <m_primary>  (99) 
energy

>  <rmsd>  (99) 
2.662768226574035

>  <m_score__min__rmsd>  (99) 
2.662768226574035

>  <meeko>  (99) 
{"free_energy": -7.9, "intermolecular_energy": -9.69, "internal_energy": -1.9, "cluster_size": 5, "cluster_id": 3, "rank_in_cluster": 2}

>  <energy>  (99) 
-7.12

>  <cluster_rmsd>  (99) 
0.43

>  <cluster>  (99) 
8

$$$$

     RDKit          3D

 54 57  0  0  0  0  0  0  0  0999 V2000
  141.3720   72.4850  221.5330 O   0  0  0  0  0  0  0  0  0  0  0  0
  140.4810   72.6380  222.4110 C   0  0  0  0  0  0  0  0  0  0  0  0
  139.6650   73.8430  222.3240 N   0  0  0  0  0  0  0  0  0  0  0  0
  139.9750   74.7160  221.2440 C   0  0  0  0  0  0  0  0  0  0  0  0
  141.0350   75.6990  221.3740 C   0  0  0  0  0  0  0  0  0  0  0  0
  141.2580   76.0570  222.6130 O   0  0  0  0  0  0  0  0  0  0  0  0
  141.8540   76.3280  220.4290 N   0  0  0  0  0  0  0  0  0  0  0  0
  142.7830   75.6780  219.5300 C   0  0  0  0  0  0  0  0  0  0  0  0
  143.1950   76.7260  218.4800 C   0  0  0  0  0  0  0  0  0  0  0  0
  142.0370   77.4880  217.9380 C   0  0  0  0  0  0  0  0  0  0  0  0
  141.1350   78.0860  219.0300 C   0  0  0  0  0  0  0  0  0  0  0  0
  141.8240   77.8010  220.3200 C   0  0  1  0  0  0  0  0  0  0  0  0
  141.3470   78.4970  221.5010 C   0  0  0  0  0  0  0  0  0  0  0  0
  142.2180   78.9490  222.4840 C   0  0  0  0  0  0  0  0  0  0  0  0
  141.7980   79.5810  223.6270 C   0  0  0  0  0  0  0  0  0  0  0  0
  140.4720   79.7960  223.8470 C   0  0  0  0  0  0  0  0  0  0  0  0
  139.5820   79.3560  222.8850 C   0  0  0  0  0  0  0  0  0  0  0  0
  138.1360   79.5980  223.1420 C   0  0  0  0  0  0  0  0  0  0  0  0
  137.3910   78.4330  223.0980 F   0  0  0  0  0  0  0  0  0  0  0  0
  138.0310   80.1400  224.4100 F   0  0  0  0  0  0  0  0  0  0  0  0
  137.6420   80.5480  222.2680 F   0  0  0  0  0  0  0  0  0  0  0  0
  140.0030   78.7200  221.7360 C   0  0  0  0  0  0  0  0  0  0  0  0
  140.2390   71.6850  223.4810 C   0  0  0  0  0  0  0  0  0  0  0  0
  139.5160   70.5540  223.1650 C   0  0  0  0  0  0  0  0  0  0  0  0
  139.2560   69.6170  224.1340 C   0  0  0  0  0  0  0  0  0  0  0  0
  139.7340   69.8370  225.4190 C   0  0  0  0  0  0  0  0  0  0  0  0
  139.4950   68.9260  226.4140 C   0  0  0  0  0  0  0  0  0  0  0  0
  139.9560   69.1160  227.7010 C   0  0  0  0  0  0  0  0  0  0  0  0
  140.6790   70.2610  227.9880 C   0  0  0  0  0  0  0  0  0  0  0  0
  140.9250   71.1930  226.9770 C   0  0  0  0  0  0  0  0  0  0  0  0
  140.4580   70.9860  225.7030 C   0  0  0  0  0  0  0  0  0  0  0  0
  140.6980   71.8870  224.7320 N   0  0  0  0  0  0  0  0  0  0  0  0
  138.9470   73.9130  223.0500 H   0  0  0  0  0  0  0  0  0  0  0  0
  140.2401   74.0775  220.3884 H   0  0  0  0  0  0  0  0  0  0  0  0
  139.0706   75.3363  221.1591 H   0  0  0  0  0  0  0  0  0  0  0  0
  143.6668   75.3308  220.0852 H   0  0  0  0  0  0  0  0  0  0  0  0
  142.3212   74.8015  219.0520 H   0  0  0  0  0  0  0  0  0  0  0  0
  143.8943   77.4351  218.9472 H   0  0  0  0  0  0  0  0  0  0  0  0
  143.6586   76.1878  217.6402 H   0  0  0  0  0  0  0  0  0  0  0  0
  142.4208   78.3089  217.3145 H   0  0  0  0  0  0  0  0  0  0  0  0
  141.4234   76.7801  217.3615 H   0  0  0  0  0  0  0  0  0  0  0  0
  141.0246   79.1708  218.8852 H   0  0  0  0  0  0  0  0  0  0  0  0
  140.1240   77.6534  219.0045 H   0  0  0  0  0  0  0  0  0  0  0  0
  142.8366   78.2297  220.2915 H   0  0  0  0  0  0  0  0  0  0  0  0
  143.2971   78.7926  222.3390 H   0  0  0  0  0  0  0  0  0  0  0  0
  142.5370   79.9159  224.3698 H   0  0  0  0  0  0  0  0  0  0  0  0
  140.1209   80.3021  224.7584 H   0  0  0  0  0  0  0  0  0  0  0  0
  139.2599   78.3859  220.9970 H   0  0  0  0  0  0  0  0  0  0  0  0
  139.1486   70.4031  222.1392 H   0  0  0  0  0  0  0  0  0  0  0  0
  138.6805   68.7100  223.8972 H   0  0  0  0  0  0  0  0  0  0  0  0
  138.9197   68.0179  226.1807 H   0  0  0  0  0  0  0  0  0  0  0  0
  139.7526   68.3711  228.4844 H   0  0  0  0  0  0  0  0  0  0  0  0
  141.0575   70.4359  229.0059 H   0  0  0  0  0  0  0  0  0  0  0  0
  141.4995   72.1031  227.2044 H   0  0  0  0  0  0  0  0  0  0  0  0
  1  2  2  0
  2  3  1  0
  3  4  1  0
  4  5  1  0
  5  6  2  0
  5  7  1  0
  7  8  1  0
  8  9  1  0
  9 10  1  0
 10 11  1  0
 11 12  1  0
 12 13  1  0
 13 14  2  0
 14 15  1  0
 15 16  2  0
 16 17  1  0
 17 18  1  0
 18 19  1  0
 18 20  1  0
 18 21  1  0
 17 22  2  0
  2 23  1  0
 23 24  2  0
 24 25  1  0
 25 26  2  0
 26 27  1  0
 27 28  2  0
 28 29  1  0
 29 30  2  0
 30 31  1  0
 31 32  2  0
 12  7  1  0
 22 13  1  0
 32 23  1  0
 31 26  1  0
  3 33  1  0
  4 34  1  0
  4 35  1  0
  8 36  1  0
  8 37  1  0
  9 38  1  0
  9 39  1  0
 10 40  1  0
 10 41  1  0
 11 42  1  0
 11 43  1  0
 12 44  1  6
 14 45  1  0
 15 46  1  0
 16 47  1  0
 22 48  1  0
 24 49  1  0
 25 50  1  0
 27 51  1  0
 28 52  1  0
 29 53  1  0
 30 54  1  0
M  END
>  <smiles>  (100) 
O=C(NCC(=O)N1CCCCC1c1cccc(C(F)(F)F)c1)c1ccc2ccccc2n1

>  <score_type>  (100) 
oracle

>  <origin>  (100) 
autodockgpu

>  <m_score__min__energy>  (100) 
-8.9399999999999995

>  <m_primary>  (100) 
energy

>  <rmsd>  (100) 
2.1139878581578637

>  <m_score__min__rmsd>  (100) 
2.1139878581578637

>  <meeko>  (100) 
{"free_energy": -8.8, "intermolecular_energy": -10.59, "internal_energy": -1.4, "cluster_size": 19, "cluster_id": 1, "rank_in_cluster": 5}

>  <energy>  (100) 
-7.02

>  <cluster_rmsd>  (100) 
0.36

>  <cluster>  (100) 
8

$$$$
