
     RDKit          3D

 56 59  0  0  0  0  0  0  0  0999 V2000
  141.8540   81.2140  223.1020 C   0  0  0  0  0  0  0  0  0  0  0  0
  141.0980   79.9950  223.2420 N   0  0  0  0  0  0  0  0  0  0  0  0
  141.8330   78.7820  223.5420 C   0  0  0  0  0  0  0  0  0  0  0  0
  139.6940   79.8900  223.1110 C   0  0  0  0  0  0  0  0  0  0  0  0
  138.9460   80.3140  224.2160 C   0  0  0  0  0  0  0  0  0  0  0  0
  137.5750   80.2550  224.2260 C   0  0  0  0  0  0  0  0  0  0  0  0
  136.9460   79.7670  223.1170 C   0  0  0  0  0  0  0  0  0  0  0  0
  137.6840   79.3510  222.0330 C   0  0  0  0  0  0  0  0  0  0  0  0
  139.0590   79.3890  221.9720 C   0  0  0  0  0  0  0  0  0  0  0  0
  139.8410   78.9220  220.8450 C   0  0  1  0  0  0  0  0  0  0  0  0
  141.0760   79.7570  220.5800 C   0  0  0  0  0  0  0  0  0  0  0  0
  141.8490   78.9010  219.6120 C   0  0  0  0  0  0  0  0  0  0  0  0
  141.1770   77.5620  219.5720 C   0  0  0  0  0  0  0  0  0  0  0  0
  140.3180   77.5870  220.8010 N   0  0  0  0  0  0  0  0  0  0  0  0
  140.1620   76.4040  221.5330 C   0  0  0  0  0  0  0  0  0  0  0  0
  140.7540   76.4090  222.6900 O   0  0  0  0  0  0  0  0  0  0  0  0
  139.4520   75.1830  221.2040 C   0  0  0  0  0  0  0  0  0  0  0  0
  139.5550   74.1870  222.2870 N   0  0  0  0  0  0  0  0  0  0  0  0
  139.7470   72.8190  221.9590 C   0  0  0  0  0  0  0  0  0  0  0  0
  139.8380   72.3850  220.7830 O   0  0  0  0  0  0  0  0  0  0  0  0
  139.8410   71.8670  223.0620 C   0  0  0  0  0  0  0  0  0  0  0  0
  139.3950   70.5570  222.9190 C   0  0  0  0  0  0  0  0  0  0  0  0
  139.4680   69.6310  223.9340 C   0  0  0  0  0  0  0  0  0  0  0  0
  139.9990   69.9970  225.1460 C   0  0  0  0  0  0  0  0  0  0  0  0
  140.0910   69.0990  226.1940 C   0  0  0  0  0  0  0  0  0  0  0  0
  140.6270   69.4780  227.4070 C   0  0  0  0  0  0  0  0  0  0  0  0
  140.7330   68.3320  228.7110 Cl  0  0  0  0  0  0  0  0  0  0  0  0
  141.0630   70.7810  227.5260 C   0  0  0  0  0  0  0  0  0  0  0  0
  140.9690   71.6710  226.4790 C   0  0  0  0  0  0  0  0  0  0  0  0
  140.4370   71.3120  225.2610 C   0  0  0  0  0  0  0  0  0  0  0  0
  140.3570   72.1970  224.2590 N   0  0  0  0  0  0  0  0  0  0  0  0
  142.0994   81.6097  224.0986 H   0  0  0  0  0  0  0  0  0  0  0  0
  142.7831   81.0080  222.5503 H   0  0  0  0  0  0  0  0  0  0  0  0
  141.2565   81.9547  222.5503 H   0  0  0  0  0  0  0  0  0  0  0  0
  141.9077   78.6588  224.6325 H   0  0  0  0  0  0  0  0  0  0  0  0
  141.3064   77.9180  223.1106 H   0  0  0  0  0  0  0  0  0  0  0  0
  142.8426   78.8488  223.1106 H   0  0  0  0  0  0  0  0  0  0  0  0
  139.4714   80.7049  225.0998 H   0  0  0  0  0  0  0  0  0  0  0  0
  137.0000   80.5909  225.1015 H   0  0  0  0  0  0  0  0  0  0  0  0
  135.8480   79.7063  223.0901 H   0  0  0  0  0  0  0  0  0  0  0  0
  137.1406   78.9631  221.1588 H   0  0  0  0  0  0  0  0  0  0  0  0
  139.0396   79.0103  220.0967 H   0  0  0  0  0  0  0  0  0  0  0  0
  140.8117   80.7255  220.1303 H   0  0  0  0  0  0  0  0  0  0  0  0
  141.6399   80.0059  221.4911 H   0  0  0  0  0  0  0  0  0  0  0  0
  141.8377   79.3586  218.6118 H   0  0  0  0  0  0  0  0  0  0  0  0
  142.8979   78.8027  219.9283 H   0  0  0  0  0  0  0  0  0  0  0  0
  140.5665   77.4516  218.6636 H   0  0  0  0  0  0  0  0  0  0  0  0
  141.8839   76.7195  219.5508 H   0  0  0  0  0  0  0  0  0  0  0  0
  138.3910   75.4208  221.0373 H   0  0  0  0  0  0  0  0  0  0  0  0
  139.9054   74.7546  220.2980 H   0  0  0  0  0  0  0  0  0  0  0  0
  139.4860   74.4900  223.2900 H   0  0  0  0  0  0  0  0  0  0  0  0
  138.9661   70.2487  221.9542 H   0  0  0  0  0  0  0  0  0  0  0  0
  139.1037   68.6052  223.7756 H   0  0  0  0  0  0  0  0  0  0  0  0
  139.7317   68.0682  226.0581 H   0  0  0  0  0  0  0  0  0  0  0  0
  141.4960   71.1174  228.4796 H   0  0  0  0  0  0  0  0  0  0  0  0
  141.3301   72.7004  226.6204 H   0  0  0  0  0  0  0  0  0  0  0  0
  1  2  1  0
  2  3  1  0
  2  4  1  0
  4  5  2  0
  5  6  1  0
  6  7  2  0
  7  8  1  0
  8  9  2  0
  9 10  1  0
 10 11  1  0
 11 12  1  0
 12 13  1  0
 13 14  1  0
 14 15  1  0
 15 16  2  0
 15 17  1  0
 17 18  1  0
 18 19  1  0
 19 20  2  0
 19 21  1  0
 21 22  2  0
 22 23  1  0
 23 24  2  0
 24 25  1  0
 25 26  2  0
 26 27  1  0
 26 28  1  0
 28 29  2  0
 29 30  1  0
 30 31  2  0
  9  4  1  0
 14 10  1  0
 31 21  1  0
 30 24  1  0
  1 32  1  0
  1 33  1  0
  1 34  1  0
  3 35  1  0
  3 36  1  0
  3 37  1  0
  5 38  1  0
  6 39  1  0
  7 40  1  0
  8 41  1  0
 10 42  1  6
 11 43  1  0
 11 44  1  0
 12 45  1  0
 12 46  1  0
 13 47  1  0
 13 48  1  0
 17 49  1  0
 17 50  1  0
 18 51  1  0
 22 52  1  0
 23 53  1  0
 25 54  1  0
 28 55  1  0
 29 56  1  0
M  END
>  <smiles>  (1) 
CN(C)c1ccccc1[C@H]1CCCN1C(=O)CNC(=O)c1ccc2cc(Cl)ccc2n1

>  <score_type>  (1) 
oracle

>  <origin>  (1) 
autodockgpu

>  <m_score__min__energy>  (1) 
-8.7300000000000004

>  <m_primary>  (1) 
energy

>  <rmsd>  (1) 
10.26869004072607

>  <m_score__min__rmsd>  (1) 
10.26869004072607

>  <meeko>  (1) 
{"free_energy": -8.42, "intermolecular_energy": -10.21, "internal_energy": -1.61, "cluster_size": 40, "cluster_id": 1, "rank_in_cluster": 8}

>  <energy>  (1) 
-8.73

>  <cluster_rmsd>  (1) 
0.0

>  <cluster>  (1) 
1

$$$$

     RDKit          3D

 56 59  0  0  0  0  0  0  0  0999 V2000
  138.9230   80.2600  220.1130 C   0  0  0  0  0  0  0  0  0  0  0  0
  139.4630   80.9520  221.2570 N   0  0  0  0  0  0  0  0  0  0  0  0
  138.9660   82.2880  221.5260 C   0  0  0  0  0  0  0  0  0  0  0  0
  140.4370   80.4300  222.1370 C   0  0  0  0  0  0  0  0  0  0  0  0
  141.7390   80.9170  221.9620 C   0  0  0  0  0  0  0  0  0  0  0  0
  142.7830   80.4850  222.7420 C   0  0  0  0  0  0  0  0  0  0  0  0
  142.5210   79.5550  223.7070 C   0  0  0  0  0  0  0  0  0  0  0  0
  141.2410   79.0790  223.8760 C   0  0  0  0  0  0  0  0  0  0  0  0
  140.1600   79.4790  223.1220 C   0  0  0  0  0  0  0  0  0  0  0  0
  138.8180   78.9550  223.2750 C   0  0  1  0  0  0  0  0  0  0  0  0
  137.7520   80.0300  223.3080 C   0  0  0  0  0  0  0  0  0  0  0  0
  136.4820   79.2360  223.1480 C   0  0  0  0  0  0  0  0  0  0  0  0
  136.8780   77.8370  222.7850 C   0  0  0  0  0  0  0  0  0  0  0  0
  138.3070   77.9990  222.3620 N   0  0  0  0  0  0  0  0  0  0  0  0
  138.7820   77.2230  221.2970 C   0  0  0  0  0  0  0  0  0  0  0  0
  138.1160   77.3680  220.1900 O   0  0  0  0  0  0  0  0  0  0  0  0
  139.8910   76.2890  221.2370 C   0  0  0  0  0  0  0  0  0  0  0  0
  139.6600   75.1180  222.1040 N   0  0  0  0  0  0  0  0  0  0  0  0
  140.0610   73.8320  221.6580 C   0  0  0  0  0  0  0  0  0  0  0  0
  140.6140   73.6130  220.5500 O   0  0  0  0  0  0  0  0  0  0  0  0
  139.8130   72.7010  222.5470 C   0  0  0  0  0  0  0  0  0  0  0  0
  138.6670   71.9230  222.4150 C   0  0  0  0  0  0  0  0  0  0  0  0
  138.3980   70.8500  223.2320 C   0  0  0  0  0  0  0  0  0  0  0  0
  139.2840   70.5180  224.2260 C   0  0  0  0  0  0  0  0  0  0  0  0
  139.0530   69.4470  225.0720 C   0  0  0  0  0  0  0  0  0  0  0  0
  139.9520   69.1240  226.0670 C   0  0  0  0  0  0  0  0  0  0  0  0
  139.6420   67.7720  227.1180 Cl  0  0  0  0  0  0  0  0  0  0  0  0
  141.0810   69.9080  226.1800 C   0  0  0  0  0  0  0  0  0  0  0  0
  141.3050   70.9730  225.3350 C   0  0  0  0  0  0  0  0  0  0  0  0
  140.4200   71.3120  224.3360 C   0  0  0  0  0  0  0  0  0  0  0  0
  140.6630   72.3530  223.5290 N   0  0  0  0  0  0  0  0  0  0  0  0
  138.2795   79.4354  220.4534 H   0  0  0  0  0  0  0  0  0  0  0  0
  138.3307   80.9609  219.5064 H   0  0  0  0  0  0  0  0  0  0  0  0
  139.7469   79.8558  219.5064 H   0  0  0  0  0  0  0  0  0  0  0  0
  138.9074   82.4454  222.6131 H   0  0  0  0  0  0  0  0  0  0  0  0
  139.6486   83.0290  221.0844 H   0  0  0  0  0  0  0  0  0  0  0  0
  137.9651   82.4027  221.0844 H   0  0  0  0  0  0  0  0  0  0  0  0
  141.9299   81.6654  221.1788 H   0  0  0  0  0  0  0  0  0  0  0  0
  143.8003   80.8764  222.5940 H   0  0  0  0  0  0  0  0  0  0  0  0
  143.3338   79.1861  224.3498 H   0  0  0  0  0  0  0  0  0  0  0  0
  141.0701   78.3308  224.6641 H   0  0  0  0  0  0  0  0  0  0  0  0
  138.9988   78.4355  224.2276 H   0  0  0  0  0  0  0  0  0  0  0  0
  137.7638   80.5721  224.2651 H   0  0  0  0  0  0  0  0  0  0  0  0
  137.8854   80.8032  222.5370 H   0  0  0  0  0  0  0  0  0  0  0  0
  135.9165   79.2350  224.0915 H   0  0  0  0  0  0  0  0  0  0  0  0
  135.8417   79.6756  222.3691 H   0  0  0  0  0  0  0  0  0  0  0  0
  136.7944   77.1637  223.6508 H   0  0  0  0  0  0  0  0  0  0  0  0
  136.2404   77.3903  222.0079 H   0  0  0  0  0  0  0  0  0  0  0  0
  140.0138   75.9464  220.1990 H   0  0  0  0  0  0  0  0  0  0  0  0
  140.7962   76.8054  221.5890 H   0  0  0  0  0  0  0  0  0  0  0  0
  139.2030   75.2390  223.0420 H   0  0  0  0  0  0  0  0  0  0  0  0
  137.9460   72.1768  221.6240 H   0  0  0  0  0  0  0  0  0  0  0  0
  137.4792   70.2621  223.0898 H   0  0  0  0  0  0  0  0  0  0  0  0
  138.1403   68.8455  224.9492 H   0  0  0  0  0  0  0  0  0  0  0  0
  141.8192   69.6779  226.9623 H   0  0  0  0  0  0  0  0  0  0  0  0
  142.2193   71.5711  225.4624 H   0  0  0  0  0  0  0  0  0  0  0  0
  1  2  1  0
  2  3  1  0
  2  4  1  0
  4  5  2  0
  5  6  1  0
  6  7  2  0
  7  8  1  0
  8  9  2  0
  9 10  1  0
 10 11  1  0
 11 12  1  0
 12 13  1  0
 13 14  1  0
 14 15  1  0
 15 16  2  0
 15 17  1  0
 17 18  1  0
 18 19  1  0
 19 20  2  0
 19 21  1  0
 21 22  2  0
 22 23  1  0
 23 24  2  0
 24 25  1  0
 25 26  2  0
 26 27  1  0
 26 28  1  0
 28 29  2  0
 29 30  1  0
 30 31  2  0
  9  4  1  0
 14 10  1  0
 31 21  1  0
 30 24  1  0
  1 32  1  0
  1 33  1  0
  1 34  1  0
  3 35  1  0
  3 36  1  0
  3 37  1  0
  5 38  1  0
  6 39  1  0
  7 40  1  0
  8 41  1  0
 10 42  1  1
 11 43  1  0
 11 44  1  0
 12 45  1  0
 12 46  1  0
 13 47  1  0
 13 48  1  0
 17 49  1  0
 17 50  1  0
 18 51  1  0
 22 52  1  0
 23 53  1  0
 25 54  1  0
 28 55  1  0
 29 56  1  0
M  END
>  <smiles>  (2) 
CN(C)c1ccccc1[C@H]1CCCN1C(=O)CNC(=O)c1ccc2cc(Cl)ccc2n1

>  <score_type>  (2) 
oracle

>  <origin>  (2) 
autodockgpu

>  <m_score__min__energy>  (2) 
-8.7300000000000004

>  <m_primary>  (2) 
energy

>  <rmsd>  (2) 
9.976195854284699

>  <m_score__min__rmsd>  (2) 
9.976195854284699

>  <meeko>  (2) 
{"free_energy": -7.71, "intermolecular_energy": -9.5, "internal_energy": -1.47, "cluster_size": 40, "cluster_id": 1, "rank_in_cluster": 36}

>  <energy>  (2) 
-8.7

>  <cluster_rmsd>  (2) 
1.43

>  <cluster>  (2) 
1

$$$$

     RDKit          3D

 56 59  0  0  0  0  0  0  0  0999 V2000
  138.1730   81.6030  222.0530 C   0  0  0  0  0  0  0  0  0  0  0  0
  138.7760   80.7810  223.0710 N   0  0  0  0  0  0  0  0  0  0  0  0
  138.0420   80.6020  224.3090 C   0  0  0  0  0  0  0  0  0  0  0  0
  140.0280   80.1340  222.9570 C   0  0  0  0  0  0  0  0  0  0  0  0
  141.0250   80.5800  223.8340 C   0  0  0  0  0  0  0  0  0  0  0  0
  142.2900   80.0450  223.8220 C   0  0  0  0  0  0  0  0  0  0  0  0
  142.5580   79.0540  222.9210 C   0  0  0  0  0  0  0  0  0  0  0  0
  141.5760   78.6190  222.0620 C   0  0  0  0  0  0  0  0  0  0  0  0
  140.2940   79.1210  222.0340 C   0  0  0  0  0  0  0  0  0  0  0  0
  139.2670   78.6880  221.1080 C   0  0  1  0  0  0  0  0  0  0  0  0
  139.4860   79.1780  219.6920 C   0  0  0  0  0  0  0  0  0  0  0  0
  138.5050   78.3510  218.9040 C   0  0  0  0  0  0  0  0  0  0  0  0
  137.9800   77.2910  219.8240 C   0  0  0  0  0  0  0  0  0  0  0  0
  138.9720   77.3100  220.9480 N   0  0  0  0  0  0  0  0  0  0  0  0
  139.3220   76.0970  221.5540 C   0  0  0  0  0  0  0  0  0  0  0  0
  139.9650   76.2240  222.6760 O   0  0  0  0  0  0  0  0  0  0  0  0
  139.0840   74.7310  221.1250 C   0  0  0  0  0  0  0  0  0  0  0  0
  139.3290   73.7700  222.2170 N   0  0  0  0  0  0  0  0  0  0  0  0
  139.2300   72.3780  221.9550 C   0  0  0  0  0  0  0  0  0  0  0  0
  138.9420   71.8940  220.8310 O   0  0  0  0  0  0  0  0  0  0  0  0
  139.4790   71.4630  223.0640 C   0  0  0  0  0  0  0  0  0  0  0  0
  139.1550   70.1140  222.9670 C   0  0  0  0  0  0  0  0  0  0  0  0
  139.3740   69.2200  223.9900 C   0  0  0  0  0  0  0  0  0  0  0  0
  139.9350   69.6600  225.1630 C   0  0  0  0  0  0  0  0  0  0  0  0
  140.1730   68.7970  226.2180 C   0  0  0  0  0  0  0  0  0  0  0  0
  140.7360   69.2510  227.3920 C   0  0  0  0  0  0  0  0  0  0  0  0
  141.0270   68.1470  228.7050 Cl  0  0  0  0  0  0  0  0  0  0  0  0
  141.0500   70.5920  227.4670 C   0  0  0  0  0  0  0  0  0  0  0  0
  140.8100   71.4460  226.4130 C   0  0  0  0  0  0  0  0  0  0  0  0
  140.2480   71.0130  225.2330 C   0  0  0  0  0  0  0  0  0  0  0  0
  140.0260   71.8660  224.2250 N   0  0  0  0  0  0  0  0  0  0  0  0
  137.5861   82.4031  222.5278 H   0  0  0  0  0  0  0  0  0  0  0  0
  138.9604   82.0480  221.4270 H   0  0  0  0  0  0  0  0  0  0  0  0
  137.5121   80.9855  221.4270 H   0  0  0  0  0  0  0  0  0  0  0  0
  138.7165   80.7665  225.1622 H   0  0  0  0  0  0  0  0  0  0  0  0
  137.2136   81.3244  224.3519 H   0  0  0  0  0  0  0  0  0  0  0  0
  137.6392   79.5793  224.3519 H   0  0  0  0  0  0  0  0  0  0  0  0
  140.7886   81.3798  224.5512 H   0  0  0  0  0  0  0  0  0  0  0  0
  143.0637   80.4037  224.5168 H   0  0  0  0  0  0  0  0  0  0  0  0
  143.5607   78.6032  222.8824 H   0  0  0  0  0  0  0  0  0  0  0  0
  141.8310   77.8187  221.3517 H   0  0  0  0  0  0  0  0  0  0  0  0
  138.4219   79.1453  221.6434 H   0  0  0  0  0  0  0  0  0  0  0  0
  139.2617   80.2513  219.6039 H   0  0  0  0  0  0  0  0  0  0  0  0
  140.5251   79.0711  219.3474 H   0  0  0  0  0  0  0  0  0  0  0  0
  137.6789   78.9840  218.5479 H   0  0  0  0  0  0  0  0  0  0  0  0
  138.9906   77.9005  218.0258 H   0  0  0  0  0  0  0  0  0  0  0  0
  136.9702   77.5408  220.1818 H   0  0  0  0  0  0  0  0  0  0  0  0
  137.8822   76.3059  219.3445 H   0  0  0  0  0  0  0  0  0  0  0  0
  138.0391   74.6373  220.7944 H   0  0  0  0  0  0  0  0  0  0  0  0
  139.7775   74.5022  220.3024 H   0  0  0  0  0  0  0  0  0  0  0  0
  139.5730   74.1150  223.1780 H   0  0  0  0  0  0  0  0  0  0  0  0
  138.7047   69.7461  222.0332 H   0  0  0  0  0  0  0  0  0  0  0  0
  139.1016   68.1612  223.8687 H   0  0  0  0  0  0  0  0  0  0  0  0
  139.9094   67.7337  226.1188 H   0  0  0  0  0  0  0  0  0  0  0  0
  141.5019   70.9881  228.3884 H   0  0  0  0  0  0  0  0  0  0  0  0
  141.0760   72.5082  226.5175 H   0  0  0  0  0  0  0  0  0  0  0  0
  1  2  1  0
  2  3  1  0
  2  4  1  0
  4  5  2  0
  5  6  1  0
  6  7  2  0
  7  8  1  0
  8  9  2  0
  9 10  1  0
 10 11  1  0
 11 12  1  0
 12 13  1  0
 13 14  1  0
 14 15  1  0
 15 16  2  0
 15 17  1  0
 17 18  1  0
 18 19  1  0
 19 20  2  0
 19 21  1  0
 21 22  2  0
 22 23  1  0
 23 24  2  0
 24 25  1  0
 25 26  2  0
 26 27  1  0
 26 28  1  0
 28 29  2  0
 29 30  1  0
 30 31  2  0
  9  4  1  0
 14 10  1  0
 31 21  1  0
 30 24  1  0
  1 32  1  0
  1 33  1  0
  1 34  1  0
  3 35  1  0
  3 36  1  0
  3 37  1  0
  5 38  1  0
  6 39  1  0
  7 40  1  0
  8 41  1  0
 10 42  1  1
 11 43  1  0
 11 44  1  0
 12 45  1  0
 12 46  1  0
 13 47  1  0
 13 48  1  0
 17 49  1  0
 17 50  1  0
 18 51  1  0
 22 52  1  0
 23 53  1  0
 25 54  1  0
 28 55  1  0
 29 56  1  0
M  END
>  <smiles>  (3) 
CN(C)c1ccccc1[C@H]1CCCN1C(=O)CNC(=O)c1ccc2cc(Cl)ccc2n1

>  <score_type>  (3) 
oracle

>  <origin>  (3) 
autodockgpu

>  <m_score__min__energy>  (3) 
-8.7300000000000004

>  <m_primary>  (3) 
energy

>  <rmsd>  (3) 
10.21265889091024

>  <m_score__min__rmsd>  (3) 
10.21265889091024

>  <meeko>  (3) 
{"free_energy": -8.24, "intermolecular_energy": -10.03, "internal_energy": -2.26, "cluster_size": 40, "cluster_id": 1, "rank_in_cluster": 22}

>  <energy>  (3) 
-8.49

>  <cluster_rmsd>  (3) 
1.33

>  <cluster>  (3) 
1

$$$$

     RDKit          3D

 56 59  0  0  0  0  0  0  0  0999 V2000
  137.8140   80.1990  223.6520 C   0  0  0  0  0  0  0  0  0  0  0  0
  138.1840   79.5480  222.4210 N   0  0  0  0  0  0  0  0  0  0  0  0
  137.6480   80.0920  221.1880 C   0  0  0  0  0  0  0  0  0  0  0  0
  139.0290   78.4190  222.3210 C   0  0  0  0  0  0  0  0  0  0  0  0
  138.4260   77.2470  221.8470 C   0  0  0  0  0  0  0  0  0  0  0  0
  139.1300   76.0760  221.7120 C   0  0  0  0  0  0  0  0  0  0  0  0
  140.4520   76.0790  222.0560 C   0  0  0  0  0  0  0  0  0  0  0  0
  141.0400   77.2320  222.5220 C   0  0  0  0  0  0  0  0  0  0  0  0
  140.3800   78.4310  222.6750 C   0  0  0  0  0  0  0  0  0  0  0  0
  140.9890   79.6390  223.1960 C   0  0  1  0  0  0  0  0  0  0  0  0
  142.1910   79.3760  224.0780 C   0  0  0  0  0  0  0  0  0  0  0  0
  142.8050   80.7440  224.2110 C   0  0  0  0  0  0  0  0  0  0  0  0
  142.1070   81.6390  223.2310 C   0  0  0  0  0  0  0  0  0  0  0  0
  141.4290   80.6620  222.3190 N   0  0  0  0  0  0  0  0  0  0  0  0
  141.3530   80.9630  220.9530 C   0  0  0  0  0  0  0  0  0  0  0  0
  141.8040   82.1400  220.6380 O   0  0  0  0  0  0  0  0  0  0  0  0
  140.8510   80.1730  219.8450 C   0  0  0  0  0  0  0  0  0  0  0  0
  141.5620   78.8860  219.7300 N   0  0  0  0  0  0  0  0  0  0  0  0
  140.9340   77.8000  219.0660 C   0  0  0  0  0  0  0  0  0  0  0  0
  139.7870   77.8590  218.5530 O   0  0  0  0  0  0  0  0  0  0  0  0
  141.6720   76.5440  218.9770 C   0  0  0  0  0  0  0  0  0  0  0  0
  141.2930   75.5500  218.0810 C   0  0  0  0  0  0  0  0  0  0  0  0
  141.9630   74.3540  217.9680 C   0  0  0  0  0  0  0  0  0  0  0  0
  143.0540   74.1130  218.7650 C   0  0  0  0  0  0  0  0  0  0  0  0
  143.7570   72.9240  218.6860 C   0  0  0  0  0  0  0  0  0  0  0  0
  144.8520   72.6940  219.4920 C   0  0  0  0  0  0  0  0  0  0  0  0
  145.7220   71.1910  219.3750 Cl  0  0  0  0  0  0  0  0  0  0  0  0
  145.2110   73.6930  220.3730 C   0  0  0  0  0  0  0  0  0  0  0  0
  144.5060   74.8730  220.4480 C   0  0  0  0  0  0  0  0  0  0  0  0
  143.4110   75.1230  219.6520 C   0  0  0  0  0  0  0  0  0  0  0  0
  142.7440   76.2810  219.7460 N   0  0  0  0  0  0  0  0  0  0  0  0
  138.1577   79.5944  224.5042 H   0  0  0  0  0  0  0  0  0  0  0  0
  138.2818   81.1936  223.6958 H   0  0  0  0  0  0  0  0  0  0  0  0
  136.7201   80.3060  223.6958 H   0  0  0  0  0  0  0  0  0  0  0  0
  136.8937   80.8576  221.4224 H   0  0  0  0  0  0  0  0  0  0  0  0
  138.4617   80.5459  220.6032 H   0  0  0  0  0  0  0  0  0  0  0  0
  137.1821   79.2852  220.6032 H   0  0  0  0  0  0  0  0  0  0  0  0
  137.3601   77.2652  221.5757 H   0  0  0  0  0  0  0  0  0  0  0  0
  138.6440   75.1628  221.3380 H   0  0  0  0  0  0  0  0  0  0  0  0
  141.0468   75.1587  221.9603 H   0  0  0  0  0  0  0  0  0  0  0  0
  142.1062   77.1938  222.7897 H   0  0  0  0  0  0  0  0  0  0  0  0
  140.0932   80.0125  223.7137 H   0  0  0  0  0  0  0  0  0  0  0  0
  141.8857   78.9806  225.0580 H   0  0  0  0  0  0  0  0  0  0  0  0
  142.8806   78.6247  223.6658 H   0  0  0  0  0  0  0  0  0  0  0  0
  142.6643   81.1227  225.2341 H   0  0  0  0  0  0  0  0  0  0  0  0
  143.8855   80.7091  224.0079 H   0  0  0  0  0  0  0  0  0  0  0  0
  141.3738   82.2851  223.7360 H   0  0  0  0  0  0  0  0  0  0  0  0
  142.7866   82.3269  222.7067 H   0  0  0  0  0  0  0  0  0  0  0  0
  139.7803   79.9765  220.0029 H   0  0  0  0  0  0  0  0  0  0  0  0
  141.0135   80.7401  218.9166 H   0  0  0  0  0  0  0  0  0  0  0  0
  142.5230   78.7760  220.1390 H   0  0  0  0  0  0  0  0  0  0  0  0
  140.4204   75.7279  217.4353 H   0  0  0  0  0  0  0  0  0  0  0  0
  141.6270   73.5966  217.2445 H   0  0  0  0  0  0  0  0  0  0  0  0
  143.4381   72.1517  217.9706 H   0  0  0  0  0  0  0  0  0  0  0  0
  146.0802   73.5433  221.0304 H   0  0  0  0  0  0  0  0  0  0  0  0
  144.8279   75.6407  221.1670 H   0  0  0  0  0  0  0  0  0  0  0  0
  1  2  1  0
  2  3  1  0
  2  4  1  0
  4  5  2  0
  5  6  1  0
  6  7  2  0
  7  8  1  0
  8  9  2  0
  9 10  1  0
 10 11  1  0
 11 12  1  0
 12 13  1  0
 13 14  1  0
 14 15  1  0
 15 16  2  0
 15 17  1  0
 17 18  1  0
 18 19  1  0
 19 20  2  0
 19 21  1  0
 21 22  2  0
 22 23  1  0
 23 24  2  0
 24 25  1  0
 25 26  2  0
 26 27  1  0
 26 28  1  0
 28 29  2  0
 29 30  1  0
 30 31  2  0
  9  4  1  0
 14 10  1  0
 31 21  1  0
 30 24  1  0
  1 32  1  0
  1 33  1  0
  1 34  1  0
  3 35  1  0
  3 36  1  0
  3 37  1  0
  5 38  1  0
  6 39  1  0
  7 40  1  0
  8 41  1  0
 10 42  1  1
 11 43  1  0
 11 44  1  0
 12 45  1  0
 12 46  1  0
 13 47  1  0
 13 48  1  0
 17 49  1  0
 17 50  1  0
 18 51  1  0
 22 52  1  0
 23 53  1  0
 25 54  1  0
 28 55  1  0
 29 56  1  0
M  END
>  <smiles>  (4) 
CN(C)c1ccccc1[C@H]1CCCN1C(=O)CNC(=O)c1ccc2cc(Cl)ccc2n1

>  <score_type>  (4) 
oracle

>  <origin>  (4) 
autodockgpu

>  <m_score__min__energy>  (4) 
-8.7300000000000004

>  <m_primary>  (4) 
energy

>  <rmsd>  (4) 
8.64470613544295

>  <m_score__min__rmsd>  (4) 
8.64470613544295

>  <meeko>  (4) 
{"free_energy": -6.32, "intermolecular_energy": -8.1, "internal_energy": -3.03, "cluster_size": 3, "cluster_id": 6, "rank_in_cluster": 2}

>  <energy>  (4) 
-8.49

>  <cluster_rmsd>  (4) 
1.26

>  <cluster>  (4) 
1

$$$$

     RDKit          3D

 56 59  0  0  0  0  0  0  0  0999 V2000
  141.8980   78.6670  223.4440 C   0  0  0  0  0  0  0  0  0  0  0  0
  141.1420   79.8710  223.2100 N   0  0  0  0  0  0  0  0  0  0  0  0
  141.8780   81.1190  223.1360 C   0  0  0  0  0  0  0  0  0  0  0  0
  139.7400   79.9320  223.0450 C   0  0  0  0  0  0  0  0  0  0  0  0
  139.0180   80.4030  224.1480 C   0  0  0  0  0  0  0  0  0  0  0  0
  137.6480   80.5010  224.1270 C   0  0  0  0  0  0  0  0  0  0  0  0
  136.9960   80.1230  222.9890 C   0  0  0  0  0  0  0  0  0  0  0  0
  137.7090   79.6610  221.9070 C   0  0  0  0  0  0  0  0  0  0  0  0
  139.0810   79.5440  221.8770 C   0  0  0  0  0  0  0  0  0  0  0  0
  139.8320   79.0260  220.7510 C   0  0  1  0  0  0  0  0  0  0  0  0
  141.1130   79.7870  220.4800 C   0  0  0  0  0  0  0  0  0  0  0  0
  141.8330   78.8830  219.5150 C   0  0  0  0  0  0  0  0  0  0  0  0
  141.0840   77.5840  219.4830 C   0  0  0  0  0  0  0  0  0  0  0  0
  140.2310   77.6660  220.7130 N   0  0  0  0  0  0  0  0  0  0  0  0
  140.0090   76.4980  221.4520 C   0  0  0  0  0  0  0  0  0  0  0  0
  140.2090   76.6260  222.7300 O   0  0  0  0  0  0  0  0  0  0  0  0
  139.5960   75.1760  221.0180 C   0  0  0  0  0  0  0  0  0  0  0  0
  139.6740   74.1950  222.1170 N   0  0  0  0  0  0  0  0  0  0  0  0
  139.8800   72.8240  221.8130 C   0  0  0  0  0  0  0  0  0  0  0  0
  140.0070   72.3750  220.6460 O   0  0  0  0  0  0  0  0  0  0  0  0
  139.9480   71.8880  222.9310 C   0  0  0  0  0  0  0  0  0  0  0  0
  139.5060   70.5760  222.7950 C   0  0  0  0  0  0  0  0  0  0  0  0
  139.5540   69.6640  223.8250 C   0  0  0  0  0  0  0  0  0  0  0  0
  140.0550   70.0470  225.0440 C   0  0  0  0  0  0  0  0  0  0  0  0
  140.1220   69.1640  226.1070 C   0  0  0  0  0  0  0  0  0  0  0  0
  140.6270   69.5610  227.3270 C   0  0  0  0  0  0  0  0  0  0  0  0
  140.7020   68.4320  228.6500 Cl  0  0  0  0  0  0  0  0  0  0  0  0
  141.0610   70.8660  227.4390 C   0  0  0  0  0  0  0  0  0  0  0  0
  140.9910   71.7400  226.3770 C   0  0  0  0  0  0  0  0  0  0  0  0
  140.4890   71.3640  225.1510 C   0  0  0  0  0  0  0  0  0  0  0  0
  140.4340   72.2350  224.1360 N   0  0  0  0  0  0  0  0  0  0  0  0
  142.0008   78.5032  224.5269 H   0  0  0  0  0  0  0  0  0  0  0  0
  141.3745   77.8117  222.9919 H   0  0  0  0  0  0  0  0  0  0  0  0
  142.8958   78.7669  222.9919 H   0  0  0  0  0  0  0  0  0  0  0  0
  142.0909   81.4800  224.1530 H   0  0  0  0  0  0  0  0  0  0  0  0
  142.8242   80.9554  222.5994 H   0  0  0  0  0  0  0  0  0  0  0  0
  141.2770   81.8679  222.5994 H   0  0  0  0  0  0  0  0  0  0  0  0
  139.5623   80.7026  225.0557 H   0  0  0  0  0  0  0  0  0  0  0  0
  137.0931   80.8729  225.0010 H   0  0  0  0  0  0  0  0  0  0  0  0
  135.8991   80.1879  222.9370 H   0  0  0  0  0  0  0  0  0  0  0  0
  137.1474   79.3662  221.0083 H   0  0  0  0  0  0  0  0  0  0  0  0
  139.0353   79.1559  220.0038 H   0  0  0  0  0  0  0  0  0  0  0  0
  140.9044   80.7670  220.0261 H   0  0  0  0  0  0  0  0  0  0  0  0
  141.6921   80.0073  221.3889 H   0  0  0  0  0  0  0  0  0  0  0  0
  141.8461   79.3355  218.5125 H   0  0  0  0  0  0  0  0  0  0  0  0
  142.8752   78.7258  219.8299 H   0  0  0  0  0  0  0  0  0  0  0  0
  140.4663   77.5044  218.5763 H   0  0  0  0  0  0  0  0  0  0  0  0
  141.7405   76.7016  219.4647 H   0  0  0  0  0  0  0  0  0  0  0  0
  138.5579   75.2266  220.6576 H   0  0  0  0  0  0  0  0  0  0  0  0
  140.2745   74.8493  220.2162 H   0  0  0  0  0  0  0  0  0  0  0  0
  139.5750   74.5120  223.1130 H   0  0  0  0  0  0  0  0  0  0  0  0
  139.1014   70.2540  221.8241 H   0  0  0  0  0  0  0  0  0  0  0  0
  139.1935   68.6360  223.6722 H   0  0  0  0  0  0  0  0  0  0  0  0
  139.7674   68.1309  225.9770 H   0  0  0  0  0  0  0  0  0  0  0  0
  141.4719   71.2159  228.3975 H   0  0  0  0  0  0  0  0  0  0  0  0
  141.3476   72.7718  226.5124 H   0  0  0  0  0  0  0  0  0  0  0  0
  1  2  1  0
  2  3  1  0
  2  4  1  0
  4  5  2  0
  5  6  1  0
  6  7  2  0
  7  8  1  0
  8  9  2  0
  9 10  1  0
 10 11  1  0
 11 12  1  0
 12 13  1  0
 13 14  1  0
 14 15  1  0
 15 16  2  0
 15 17  1  0
 17 18  1  0
 18 19  1  0
 19 20  2  0
 19 21  1  0
 21 22  2  0
 22 23  1  0
 23 24  2  0
 24 25  1  0
 25 26  2  0
 26 27  1  0
 26 28  1  0
 28 29  2  0
 29 30  1  0
 30 31  2  0
  9  4  1  0
 14 10  1  0
 31 21  1  0
 30 24  1  0
  1 32  1  0
  1 33  1  0
  1 34  1  0
  3 35  1  0
  3 36  1  0
  3 37  1  0
  5 38  1  0
  6 39  1  0
  7 40  1  0
  8 41  1  0
 10 42  1  6
 11 43  1  0
 11 44  1  0
 12 45  1  0
 12 46  1  0
 13 47  1  0
 13 48  1  0
 17 49  1  0
 17 50  1  0
 18 51  1  0
 22 52  1  0
 23 53  1  0
 25 54  1  0
 28 55  1  0
 29 56  1  0
M  END
>  <smiles>  (5) 
CN(C)c1ccccc1[C@H]1CCCN1C(=O)CNC(=O)c1ccc2cc(Cl)ccc2n1

>  <score_type>  (5) 
oracle

>  <origin>  (5) 
autodockgpu

>  <m_score__min__energy>  (5) 
-8.7300000000000004

>  <m_primary>  (5) 
energy

>  <rmsd>  (5) 
10.31161427487879

>  <m_score__min__rmsd>  (5) 
10.31161427487879

>  <meeko>  (5) 
{"free_energy": -8.35, "intermolecular_energy": -10.14, "internal_energy": -1.91, "cluster_size": 40, "cluster_id": 1, "rank_in_cluster": 14}

>  <energy>  (5) 
-8.48

>  <cluster_rmsd>  (5) 
1.25

>  <cluster>  (5) 
1

$$$$

     RDKit          3D

 56 59  0  0  0  0  0  0  0  0999 V2000
  138.0100   77.9730  222.6710 C   0  0  0  0  0  0  0  0  0  0  0  0
  138.7730   79.0370  222.0690 N   0  0  0  0  0  0  0  0  0  0  0  0
  138.1030   79.8670  221.0850 C   0  0  0  0  0  0  0  0  0  0  0  0
  140.1220   79.3370  222.3620 C   0  0  0  0  0  0  0  0  0  0  0  0
  140.3430   80.0550  223.5450 C   0  0  0  0  0  0  0  0  0  0  0  0
  141.6050   80.4210  223.9430 C   0  0  0  0  0  0  0  0  0  0  0  0
  142.6570   80.0640  223.1480 C   0  0  0  0  0  0  0  0  0  0  0  0
  142.4360   79.3590  221.9880 C   0  0  0  0  0  0  0  0  0  0  0  0
  141.1920   78.9680  221.5440 C   0  0  0  0  0  0  0  0  0  0  0  0
  140.9530   78.2540  220.3060 C   0  0  1  0  0  0  0  0  0  0  0  0
  142.1330   78.2820  219.3570 C   0  0  0  0  0  0  0  0  0  0  0  0
  141.7580   77.2370  218.3390 C   0  0  0  0  0  0  0  0  0  0  0  0
  140.5610   76.5090  218.8720 C   0  0  0  0  0  0  0  0  0  0  0  0
  140.5620   76.8910  220.3220 N   0  0  0  0  0  0  0  0  0  0  0  0
  140.1800   75.9310  221.2670 C   0  0  0  0  0  0  0  0  0  0  0  0
  140.7490   76.0680  222.4280 O   0  0  0  0  0  0  0  0  0  0  0  0
  139.2590   74.8160  221.1530 C   0  0  0  0  0  0  0  0  0  0  0  0
  139.4470   73.8440  222.2470 N   0  0  0  0  0  0  0  0  0  0  0  0
  139.4480   72.4550  221.9520 C   0  0  0  0  0  0  0  0  0  0  0  0
  139.2980   71.9830  220.7960 O   0  0  0  0  0  0  0  0  0  0  0  0
  139.6350   71.5290  223.0640 C   0  0  0  0  0  0  0  0  0  0  0  0
  139.2520   70.1960  222.9590 C   0  0  0  0  0  0  0  0  0  0  0  0
  139.4130   69.2920  223.9840 C   0  0  0  0  0  0  0  0  0  0  0  0
  139.9710   69.7050  225.1680 C   0  0  0  0  0  0  0  0  0  0  0  0
  140.1510   68.8310  226.2250 C   0  0  0  0  0  0  0  0  0  0  0  0
  140.7130   69.2580  227.4100 C   0  0  0  0  0  0  0  0  0  0  0  0
  140.9300   68.1410  228.7260 Cl  0  0  0  0  0  0  0  0  0  0  0  0
  141.0860   70.5840  227.4920 C   0  0  0  0  0  0  0  0  0  0  0  0
  140.9040   71.4490  226.4360 C   0  0  0  0  0  0  0  0  0  0  0  0
  140.3440   71.0430  225.2450 C   0  0  0  0  0  0  0  0  0  0  0  0
  140.1790   71.9060  224.2350 N   0  0  0  0  0  0  0  0  0  0  0  0
  138.0683   78.0544  223.7664 H   0  0  0  0  0  0  0  0  0  0  0  0
  136.9597   78.0496  222.3530 H   0  0  0  0  0  0  0  0  0  0  0  0
  138.4195   77.0028  222.3530 H   0  0  0  0  0  0  0  0  0  0  0  0
  137.4920   80.6239  221.5987 H   0  0  0  0  0  0  0  0  0  0  0  0
  138.8534   80.3673  220.4552 H   0  0  0  0  0  0  0  0  0  0  0  0
  137.4557   79.2390  220.4552 H   0  0  0  0  0  0  0  0  0  0  0  0
  139.4825   80.3327  224.1714 H   0  0  0  0  0  0  0  0  0  0  0  0
  141.7642   80.9847  224.8740 H   0  0  0  0  0  0  0  0  0  0  0  0
  143.6819   80.3407  223.4359 H   0  0  0  0  0  0  0  0  0  0  0  0
  143.3090   79.0900  221.3752 H   0  0  0  0  0  0  0  0  0  0  0  0
  140.0782   78.8429  219.9931 H   0  0  0  0  0  0  0  0  0  0  0  0
  142.2432   79.2713  218.8889 H   0  0  0  0  0  0  0  0  0  0  0  0
  143.0969   78.0876  219.8501 H   0  0  0  0  0  0  0  0  0  0  0  0
  141.5116   77.7163  217.3801 H   0  0  0  0  0  0  0  0  0  0  0  0
  142.5931   76.5421  218.1667 H   0  0  0  0  0  0  0  0  0  0  0  0
  139.6390   76.8437  218.3742 H   0  0  0  0  0  0  0  0  0  0  0  0
  140.6016   75.4222  218.7067 H   0  0  0  0  0  0  0  0  0  0  0  0
  138.2284   75.1989  221.1885 H   0  0  0  0  0  0  0  0  0  0  0  0
  139.4544   74.3037  220.1994 H   0  0  0  0  0  0  0  0  0  0  0  0
  139.5780   74.1790  223.2330 H   0  0  0  0  0  0  0  0  0  0  0  0
  138.8015   69.8499  222.0171 H   0  0  0  0  0  0  0  0  0  0  0  0
  139.0969   68.2463  223.8554 H   0  0  0  0  0  0  0  0  0  0  0  0
  139.8416   67.7807  226.1190 H   0  0  0  0  0  0  0  0  0  0  0  0
  141.5389   70.9585  228.4218 H   0  0  0  0  0  0  0  0  0  0  0  0
  141.2159   72.4980  226.5473 H   0  0  0  0  0  0  0  0  0  0  0  0
  1  2  1  0
  2  3  1  0
  2  4  1  0
  4  5  2  0
  5  6  1  0
  6  7  2  0
  7  8  1  0
  8  9  2  0
  9 10  1  0
 10 11  1  0
 11 12  1  0
 12 13  1  0
 13 14  1  0
 14 15  1  0
 15 16  2  0
 15 17  1  0
 17 18  1  0
 18 19  1  0
 19 20  2  0
 19 21  1  0
 21 22  2  0
 22 23  1  0
 23 24  2  0
 24 25  1  0
 25 26  2  0
 26 27  1  0
 26 28  1  0
 28 29  2  0
 29 30  1  0
 30 31  2  0
  9  4  1  0
 14 10  1  0
 31 21  1  0
 30 24  1  0
  1 32  1  0
  1 33  1  0
  1 34  1  0
  3 35  1  0
  3 36  1  0
  3 37  1  0
  5 38  1  0
  6 39  1  0
  7 40  1  0
  8 41  1  0
 10 42  1  6
 11 43  1  0
 11 44  1  0
 12 45  1  0
 12 46  1  0
 13 47  1  0
 13 48  1  0
 17 49  1  0
 17 50  1  0
 18 51  1  0
 22 52  1  0
 23 53  1  0
 25 54  1  0
 28 55  1  0
 29 56  1  0
M  END
>  <smiles>  (6) 
CN(C)c1ccccc1[C@H]1CCCN1C(=O)CNC(=O)c1ccc2cc(Cl)ccc2n1

>  <score_type>  (6) 
oracle

>  <origin>  (6) 
autodockgpu

>  <m_score__min__energy>  (6) 
-8.7300000000000004

>  <m_primary>  (6) 
energy

>  <rmsd>  (6) 
10.227917754673275

>  <m_score__min__rmsd>  (6) 
10.227917754673275

>  <meeko>  (6) 
{"free_energy": -8.48, "intermolecular_energy": -10.27, "internal_energy": -2.26, "cluster_size": 40, "cluster_id": 1, "rank_in_cluster": 6}

>  <energy>  (6) 
-8.48

>  <cluster_rmsd>  (6) 
1.24

>  <cluster>  (6) 
1

$$$$

     RDKit          3D

 56 59  0  0  0  0  0  0  0  0999 V2000
  137.9680   77.2620  222.7100 C   0  0  0  0  0  0  0  0  0  0  0  0
  138.5780   78.5170  222.3490 N   0  0  0  0  0  0  0  0  0  0  0  0
  137.7300   79.5210  221.7350 C   0  0  0  0  0  0  0  0  0  0  0  0
  139.9380   78.8470  222.5480 C   0  0  0  0  0  0  0  0  0  0  0  0
  140.2540   79.3980  223.7960 C   0  0  0  0  0  0  0  0  0  0  0  0
  141.5350   79.7730  224.1160 C   0  0  0  0  0  0  0  0  0  0  0  0
  142.5100   79.5950  223.1760 C   0  0  0  0  0  0  0  0  0  0  0  0
  142.1950   79.0540  221.9520 C   0  0  0  0  0  0  0  0  0  0  0  0
  140.9280   78.6610  221.5810 C   0  0  0  0  0  0  0  0  0  0  0  0
  140.5870   78.1200  220.2800 C   0  0  1  0  0  0  0  0  0  0  0  0
  141.6050   78.4460  219.2070 C   0  0  0  0  0  0  0  0  0  0  0  0
  141.1980   77.5300  218.0830 C   0  0  0  0  0  0  0  0  0  0  0  0
  140.1770   76.5810  218.6320 C   0  0  0  0  0  0  0  0  0  0  0  0
  140.3500   76.7320  220.1140 N   0  0  0  0  0  0  0  0  0  0  0  0
  140.2160   75.5980  220.9230 C   0  0  0  0  0  0  0  0  0  0  0  0
  141.2510   75.3460  221.6680 O   0  0  0  0  0  0  0  0  0  0  0  0
  139.1120   74.6660  221.0570 C   0  0  0  0  0  0  0  0  0  0  0  0
  139.3320   73.7210  222.1690 N   0  0  0  0  0  0  0  0  0  0  0  0
  139.2060   72.3270  221.9330 C   0  0  0  0  0  0  0  0  0  0  0  0
  138.9140   71.8270  220.8160 O   0  0  0  0  0  0  0  0  0  0  0  0
  139.4300   71.4280  223.0610 C   0  0  0  0  0  0  0  0  0  0  0  0
  139.0350   70.0950  223.0050 C   0  0  0  0  0  0  0  0  0  0  0  0
  139.2300   69.2180  224.0470 C   0  0  0  0  0  0  0  0  0  0  0  0
  139.8360   69.6570  225.1970 C   0  0  0  0  0  0  0  0  0  0  0  0
  140.0500   68.8100  226.2690 C   0  0  0  0  0  0  0  0  0  0  0  0
  140.6600   69.2640  227.4200 C   0  0  0  0  0  0  0  0  0  0  0  0
  140.9210   68.1800  228.7560 Cl  0  0  0  0  0  0  0  0  0  0  0  0
  141.0440   70.5890  227.4530 C   0  0  0  0  0  0  0  0  0  0  0  0
  140.8260   71.4270  226.3830 C   0  0  0  0  0  0  0  0  0  0  0  0
  140.2190   70.9940  225.2250 C   0  0  0  0  0  0  0  0  0  0  0  0
  140.0210   71.8310  224.2000 N   0  0  0  0  0  0  0  0  0  0  0  0
  137.9264   77.1764  223.8059 H   0  0  0  0  0  0  0  0  0  0  0  0
  136.9483   77.2186  222.2998 H   0  0  0  0  0  0  0  0  0  0  0  0
  138.5638   76.4333  222.2998 H   0  0  0  0  0  0  0  0  0  0  0  0
  137.2324   80.1102  222.5194 H   0  0  0  0  0  0  0  0  0  0  0  0
  138.3434   80.1866  221.1100 H   0  0  0  0  0  0  0  0  0  0  0  0
  136.9711   79.0276  221.1100 H   0  0  0  0  0  0  0  0  0  0  0  0
  139.4547   79.5339  224.5394 H   0  0  0  0  0  0  0  0  0  0  0  0
  141.7696   80.2042  225.1004 H   0  0  0  0  0  0  0  0  0  0  0  0
  143.5476   79.8846  223.3985 H   0  0  0  0  0  0  0  0  0  0  0  0
  143.0075   78.9267  221.2215 H   0  0  0  0  0  0  0  0  0  0  0  0
  139.6177   78.6314  220.1858 H   0  0  0  0  0  0  0  0  0  0  0  0
  141.5388   79.5013  218.9037 H   0  0  0  0  0  0  0  0  0  0  0  0
  142.6461   78.3049  219.5327 H   0  0  0  0  0  0  0  0  0  0  0  0
  140.7640   78.1149  217.2586 H   0  0  0  0  0  0  0  0  0  0  0  0
  142.0681   76.9831  217.6906 H   0  0  0  0  0  0  0  0  0  0  0  0
  139.1616   76.8667  218.3200 H   0  0  0  0  0  0  0  0  0  0  0  0
  140.3083   75.5471  218.2803 H   0  0  0  0  0  0  0  0  0  0  0  0
  138.1879   75.2318  221.2467 H   0  0  0  0  0  0  0  0  0  0  0  0
  139.0338   74.0882  220.1243 H   0  0  0  0  0  0  0  0  0  0  0  0
  139.5780   74.0790  223.1240 H   0  0  0  0  0  0  0  0  0  0  0  0
  138.5469   69.7274  222.0903 H   0  0  0  0  0  0  0  0  0  0  0  0
  138.9022   68.1717  223.9587 H   0  0  0  0  0  0  0  0  0  0  0  0
  139.7294   67.7598  226.2030 H   0  0  0  0  0  0  0  0  0  0  0  0
  141.5352   70.9843  228.3544 H   0  0  0  0  0  0  0  0  0  0  0  0
  141.1470   72.4766  226.4551 H   0  0  0  0  0  0  0  0  0  0  0  0
  1  2  1  0
  2  3  1  0
  2  4  1  0
  4  5  2  0
  5  6  1  0
  6  7  2  0
  7  8  1  0
  8  9  2  0
  9 10  1  0
 10 11  1  0
 11 12  1  0
 12 13  1  0
 13 14  1  0
 14 15  1  0
 15 16  2  0
 15 17  1  0
 17 18  1  0
 18 19  1  0
 19 20  2  0
 19 21  1  0
 21 22  2  0
 22 23  1  0
 23 24  2  0
 24 25  1  0
 25 26  2  0
 26 27  1  0
 26 28  1  0
 28 29  2  0
 29 30  1  0
 30 31  2  0
  9  4  1  0
 14 10  1  0
 31 21  1  0
 30 24  1  0
  1 32  1  0
  1 33  1  0
  1 34  1  0
  3 35  1  0
  3 36  1  0
  3 37  1  0
  5 38  1  0
  6 39  1  0
  7 40  1  0
  8 41  1  0
 10 42  1  6
 11 43  1  0
 11 44  1  0
 12 45  1  0
 12 46  1  0
 13 47  1  0
 13 48  1  0
 17 49  1  0
 17 50  1  0
 18 51  1  0
 22 52  1  0
 23 53  1  0
 25 54  1  0
 28 55  1  0
 29 56  1  0
M  END
>  <smiles>  (7) 
CN(C)c1ccccc1[C@H]1CCCN1C(=O)CNC(=O)c1ccc2cc(Cl)ccc2n1

>  <score_type>  (7) 
oracle

>  <origin>  (7) 
autodockgpu

>  <m_score__min__energy>  (7) 
-8.7300000000000004

>  <m_primary>  (7) 
energy

>  <rmsd>  (7) 
10.090276607253232

>  <m_score__min__rmsd>  (7) 
10.090276607253232

>  <meeko>  (7) 
{"free_energy": -8.3, "intermolecular_energy": -10.09, "internal_energy": -2.11, "cluster_size": 40, "cluster_id": 1, "rank_in_cluster": 19}

>  <energy>  (7) 
-8.42

>  <cluster_rmsd>  (7) 
1.57

>  <cluster>  (7) 
1

$$$$

     RDKit          3D

 56 59  0  0  0  0  0  0  0  0999 V2000
  138.0110   79.6740  220.6930 C   0  0  0  0  0  0  0  0  0  0  0  0
  138.6780   79.0990  221.8330 N   0  0  0  0  0  0  0  0  0  0  0  0
  137.9190   78.1810  222.6600 C   0  0  0  0  0  0  0  0  0  0  0  0
  140.0160   79.3580  222.2080 C   0  0  0  0  0  0  0  0  0  0  0  0
  140.1850   80.0960  223.3870 C   0  0  0  0  0  0  0  0  0  0  0  0
  141.4310   80.4270  223.8590 C   0  0  0  0  0  0  0  0  0  0  0  0
  142.5190   80.0170  223.1430 C   0  0  0  0  0  0  0  0  0  0  0  0
  142.3480   79.2920  221.9860 C   0  0  0  0  0  0  0  0  0  0  0  0
  141.1230   78.9340  221.4700 C   0  0  0  0  0  0  0  0  0  0  0  0
  140.9390   78.1990  220.2340 C   0  0  1  0  0  0  0  0  0  0  0  0
  142.1790   78.1580  219.3670 C   0  0  0  0  0  0  0  0  0  0  0  0
  141.8320   77.1040  218.3500 C   0  0  0  0  0  0  0  0  0  0  0  0
  140.5730   76.4360  218.8150 C   0  0  0  0  0  0  0  0  0  0  0  0
  140.4930   76.8530  220.2530 N   0  0  0  0  0  0  0  0  0  0  0  0
  140.0100   75.9330  221.1910 C   0  0  0  0  0  0  0  0  0  0  0  0
  140.3100   76.2170  222.4230 O   0  0  0  0  0  0  0  0  0  0  0  0
  139.2360   74.7200  221.0040 C   0  0  0  0  0  0  0  0  0  0  0  0
  139.4330   73.7740  222.1180 N   0  0  0  0  0  0  0  0  0  0  0  0
  139.3870   72.3780  221.8630 C   0  0  0  0  0  0  0  0  0  0  0  0
  139.1880   71.8780  220.7260 O   0  0  0  0  0  0  0  0  0  0  0  0
  139.5850   71.4780  222.9940 C   0  0  0  0  0  0  0  0  0  0  0  0
  139.1990   70.1430  222.9250 C   0  0  0  0  0  0  0  0  0  0  0  0
  139.3690   69.2640  223.9690 C   0  0  0  0  0  0  0  0  0  0  0  0
  139.9420   69.7030  225.1370 C   0  0  0  0  0  0  0  0  0  0  0  0
  140.1310   68.8540  226.2120 C   0  0  0  0  0  0  0  0  0  0  0  0
  140.7080   69.3080  227.3800 C   0  0  0  0  0  0  0  0  0  0  0  0
  140.9380   68.2220  228.7200 Cl  0  0  0  0  0  0  0  0  0  0  0  0
  141.0840   70.6350  227.4270 C   0  0  0  0  0  0  0  0  0  0  0  0
  140.8910   71.4750  226.3530 C   0  0  0  0  0  0  0  0  0  0  0  0
  140.3180   71.0410  225.1780 C   0  0  0  0  0  0  0  0  0  0  0  0
  140.1430   71.8810  224.1490 N   0  0  0  0  0  0  0  0  0  0  0  0
  137.2196   80.3563  221.0368 H   0  0  0  0  0  0  0  0  0  0  0  0
  138.7385   80.2327  220.0858 H   0  0  0  0  0  0  0  0  0  0  0  0
  137.5656   78.8722  220.0858 H   0  0  0  0  0  0  0  0  0  0  0  0
  138.1040   78.4047  223.7210 H   0  0  0  0  0  0  0  0  0  0  0  0
  136.8464   78.2932  222.4432 H   0  0  0  0  0  0  0  0  0  0  0  0
  138.2308   77.1487  222.4432 H   0  0  0  0  0  0  0  0  0  0  0  0
  139.2962   80.4186  223.9491 H   0  0  0  0  0  0  0  0  0  0  0  0
  141.5494   81.0057  224.7870 H   0  0  0  0  0  0  0  0  0  0  0  0
  143.5322   80.2663  223.4911 H   0  0  0  0  0  0  0  0  0  0  0  0
  143.2486   78.9782  221.4379 H   0  0  0  0  0  0  0  0  0  0  0  0
  140.1116   78.8137  219.8500 H   0  0  0  0  0  0  0  0  0  0  0  0
  142.3596   79.1305  218.8856 H   0  0  0  0  0  0  0  0  0  0  0  0
  143.0991   77.9389  219.9285 H   0  0  0  0  0  0  0  0  0  0  0  0
  141.6708   77.5685  217.3660 H   0  0  0  0  0  0  0  0  0  0  0  0
  142.6481   76.3731  218.2515 H   0  0  0  0  0  0  0  0  0  0  0  0
  139.7008   76.7944  218.2486 H   0  0  0  0  0  0  0  0  0  0  0  0
  140.5797   75.3449  218.6757 H   0  0  0  0  0  0  0  0  0  0  0  0
  138.1696   74.9827  220.9430 H   0  0  0  0  0  0  0  0  0  0  0  0
  139.5745   74.2351  220.0765 H   0  0  0  0  0  0  0  0  0  0  0  0
  139.6040   74.1320  223.0900 H   0  0  0  0  0  0  0  0  0  0  0  0
  138.7384   69.7751  221.9963 H   0  0  0  0  0  0  0  0  0  0  0  0
  139.0482   68.2166  223.8690 H   0  0  0  0  0  0  0  0  0  0  0  0
  139.8171   67.8026  226.1348 H   0  0  0  0  0  0  0  0  0  0  0  0
  141.5481   71.0305  228.3426 H   0  0  0  0  0  0  0  0  0  0  0  0
  141.2044   72.5261  226.4361 H   0  0  0  0  0  0  0  0  0  0  0  0
  1  2  1  0
  2  3  1  0
  2  4  1  0
  4  5  2  0
  5  6  1  0
  6  7  2  0
  7  8  1  0
  8  9  2  0
  9 10  1  0
 10 11  1  0
 11 12  1  0
 12 13  1  0
 13 14  1  0
 14 15  1  0
 15 16  2  0
 15 17  1  0
 17 18  1  0
 18 19  1  0
 19 20  2  0
 19 21  1  0
 21 22  2  0
 22 23  1  0
 23 24  2  0
 24 25  1  0
 25 26  2  0
 26 27  1  0
 26 28  1  0
 28 29  2  0
 29 30  1  0
 30 31  2  0
  9  4  1  0
 14 10  1  0
 31 21  1  0
 30 24  1  0
  1 32  1  0
  1 33  1  0
  1 34  1  0
  3 35  1  0
  3 36  1  0
  3 37  1  0
  5 38  1  0
  6 39  1  0
  7 40  1  0
  8 41  1  0
 10 42  1  6
 11 43  1  0
 11 44  1  0
 12 45  1  0
 12 46  1  0
 13 47  1  0
 13 48  1  0
 17 49  1  0
 17 50  1  0
 18 51  1  0
 22 52  1  0
 23 53  1  0
 25 54  1  0
 28 55  1  0
 29 56  1  0
M  END
>  <smiles>  (8) 
CN(C)c1ccccc1[C@H]1CCCN1C(=O)CNC(=O)c1ccc2cc(Cl)ccc2n1

>  <score_type>  (8) 
oracle

>  <origin>  (8) 
autodockgpu

>  <m_score__min__energy>  (8) 
-8.7300000000000004

>  <m_primary>  (8) 
energy

>  <rmsd>  (8) 
10.217058827576352

>  <m_score__min__rmsd>  (8) 
10.217058827576352

>  <meeko>  (8) 
{"free_energy": -8.41, "intermolecular_energy": -10.2, "internal_energy": -2.32, "cluster_size": 40, "cluster_id": 1, "rank_in_cluster": 11}

>  <energy>  (8) 
-8.42

>  <cluster_rmsd>  (8) 
1.68

>  <cluster>  (8) 
1

$$$$

     RDKit          3D

 56 59  0  0  0  0  0  0  0  0999 V2000
  137.9050   78.4190  220.6750 C   0  0  0  0  0  0  0  0  0  0  0  0
  138.6940   77.8830  221.7560 N   0  0  0  0  0  0  0  0  0  0  0  0
  138.1730   76.7240  222.4540 C   0  0  0  0  0  0  0  0  0  0  0  0
  139.9370   78.3990  222.1870 C   0  0  0  0  0  0  0  0  0  0  0  0
  139.9600   78.9240  223.4860 C   0  0  0  0  0  0  0  0  0  0  0  0
  141.1000   79.4670  224.0250 C   0  0  0  0  0  0  0  0  0  0  0  0
  142.2280   79.4850  223.2560 C   0  0  0  0  0  0  0  0  0  0  0  0
  142.2010   78.9690  221.9810 C   0  0  0  0  0  0  0  0  0  0  0  0
  141.0860   78.4130  221.3940 C   0  0  0  0  0  0  0  0  0  0  0  0
  141.0460   77.8980  220.0400 C   0  0  1  0  0  0  0  0  0  0  0  0
  142.1760   78.4050  219.1690 C   0  0  0  0  0  0  0  0  0  0  0  0
  142.0930   77.5010  217.9680 C   0  0  0  0  0  0  0  0  0  0  0  0
  141.1320   76.4010  218.3060 C   0  0  0  0  0  0  0  0  0  0  0  0
  141.0320   76.5010  219.7990 N   0  0  0  0  0  0  0  0  0  0  0  0
  140.9190   75.3200  220.5430 C   0  0  0  0  0  0  0  0  0  0  0  0
  142.0010   74.9810  221.1760 O   0  0  0  0  0  0  0  0  0  0  0  0
  139.7920   74.4210  220.7120 C   0  0  0  0  0  0  0  0  0  0  0  0
  140.0140   73.4760  221.8230 N   0  0  0  0  0  0  0  0  0  0  0  0
  139.1330   72.3760  221.9880 C   0  0  0  0  0  0  0  0  0  0  0  0
  138.1530   72.1420  221.2350 O   0  0  0  0  0  0  0  0  0  0  0  0
  139.3890   71.4670  223.1010 C   0  0  0  0  0  0  0  0  0  0  0  0
  138.9970   70.1330  223.0420 C   0  0  0  0  0  0  0  0  0  0  0  0
  139.2210   69.2460  224.0700 C   0  0  0  0  0  0  0  0  0  0  0  0
  139.8550   69.6770  225.2090 C   0  0  0  0  0  0  0  0  0  0  0  0
  140.1000   68.8200  226.2670 C   0  0  0  0  0  0  0  0  0  0  0  0
  140.7380   69.2640  227.4060 C   0  0  0  0  0  0  0  0  0  0  0  0
  141.0360   68.1680  228.7240 Cl  0  0  0  0  0  0  0  0  0  0  0  0
  141.1180   70.5900  227.4420 C   0  0  0  0  0  0  0  0  0  0  0  0
  140.8710   71.4380  226.3850 C   0  0  0  0  0  0  0  0  0  0  0  0
  140.2350   71.0140  225.2400 C   0  0  0  0  0  0  0  0  0  0  0  0
  140.0080   71.8610  224.2280 N   0  0  0  0  0  0  0  0  0  0  0  0
  137.0611   78.9923  221.0862 H   0  0  0  0  0  0  0  0  0  0  0  0
  138.5306   79.0798  220.0570 H   0  0  0  0  0  0  0  0  0  0  0  0
  137.5213   77.5939  220.0570 H   0  0  0  0  0  0  0  0  0  0  0  0
  138.2460   76.8863  223.5395 H   0  0  0  0  0  0  0  0  0  0  0  0
  137.1197   76.5714  222.1760 H   0  0  0  0  0  0  0  0  0  0  0  0
  138.7581   75.8349  222.1760 H   0  0  0  0  0  0  0  0  0  0  0  0
  139.0407   78.9005  224.0896 H   0  0  0  0  0  0  0  0  0  0  0  0
  141.1044   79.8755  225.0463 H   0  0  0  0  0  0  0  0  0  0  0  0
  143.1592   79.9124  223.6562 H   0  0  0  0  0  0  0  0  0  0  0  0
  143.1297   79.0026  221.3925 H   0  0  0  0  0  0  0  0  0  0  0  0
  140.0462   78.2843  219.7926 H   0  0  0  0  0  0  0  0  0  0  0  0
  142.0191   79.4565  218.8866 H   0  0  0  0  0  0  0  0  0  0  0  0
  143.1567   78.3836  219.6668 H   0  0  0  0  0  0  0  0  0  0  0  0
  141.7289   78.0648  217.0965 H   0  0  0  0  0  0  0  0  0  0  0  0
  143.0830   77.0914  217.7187 H   0  0  0  0  0  0  0  0  0  0  0  0
  140.1542   76.5679  217.8305 H   0  0  0  0  0  0  0  0  0  0  0  0
  141.4590   75.4112  217.9548 H   0  0  0  0  0  0  0  0  0  0  0  0
  138.8902   75.0145  220.9228 H   0  0  0  0  0  0  0  0  0  0  0  0
  139.6722   73.8409  219.7851 H   0  0  0  0  0  0  0  0  0  0  0  0
  140.8170   73.6200  222.4840 H   0  0  0  0  0  0  0  0  0  0  0  0
  138.4871   69.7728  222.1364 H   0  0  0  0  0  0  0  0  0  0  0  0
  138.8945   68.1994  223.9799 H   0  0  0  0  0  0  0  0  0  0  0  0
  139.7813   67.7694  226.1987 H   0  0  0  0  0  0  0  0  0  0  0  0
  141.6297   70.9786  228.3349 H   0  0  0  0  0  0  0  0  0  0  0  0
  141.1922   72.4875  226.4581 H   0  0  0  0  0  0  0  0  0  0  0  0
  1  2  1  0
  2  3  1  0
  2  4  1  0
  4  5  2  0
  5  6  1  0
  6  7  2  0
  7  8  1  0
  8  9  2  0
  9 10  1  0
 10 11  1  0
 11 12  1  0
 12 13  1  0
 13 14  1  0
 14 15  1  0
 15 16  2  0
 15 17  1  0
 17 18  1  0
 18 19  1  0
 19 20  2  0
 19 21  1  0
 21 22  2  0
 22 23  1  0
 23 24  2  0
 24 25  1  0
 25 26  2  0
 26 27  1  0
 26 28  1  0
 28 29  2  0
 29 30  1  0
 30 31  2  0
  9  4  1  0
 14 10  1  0
 31 21  1  0
 30 24  1  0
  1 32  1  0
  1 33  1  0
  1 34  1  0
  3 35  1  0
  3 36  1  0
  3 37  1  0
  5 38  1  0
  6 39  1  0
  7 40  1  0
  8 41  1  0
 10 42  1  6
 11 43  1  0
 11 44  1  0
 12 45  1  0
 12 46  1  0
 13 47  1  0
 13 48  1  0
 17 49  1  0
 17 50  1  0
 18 51  1  0
 22 52  1  0
 23 53  1  0
 25 54  1  0
 28 55  1  0
 29 56  1  0
M  END
>  <smiles>  (9) 
CN(C)c1ccccc1[C@H]1CCCN1C(=O)CNC(=O)c1ccc2cc(Cl)ccc2n1

>  <score_type>  (9) 
oracle

>  <origin>  (9) 
autodockgpu

>  <m_score__min__energy>  (9) 
-8.7300000000000004

>  <m_primary>  (9) 
energy

>  <rmsd>  (9) 
10.041890736322099

>  <m_score__min__rmsd>  (9) 
10.041890736322099

>  <meeko>  (9) 
{"free_energy": -7.69, "intermolecular_energy": -9.48, "internal_energy": -2.42, "cluster_size": 40, "cluster_id": 1, "rank_in_cluster": 37}

>  <energy>  (9) 
-8.41

>  <cluster_rmsd>  (9) 
1.06

>  <cluster>  (9) 
1

$$$$

     RDKit          3D

 56 59  0  0  0  0  0  0  0  0999 V2000
  138.7710   76.6880  222.4530 C   0  0  0  0  0  0  0  0  0  0  0  0
  139.1480   78.0430  222.1400 N   0  0  0  0  0  0  0  0  0  0  0  0
  138.1690   78.8700  221.4600 C   0  0  0  0  0  0  0  0  0  0  0  0
  140.3970   78.6300  222.4450 C   0  0  0  0  0  0  0  0  0  0  0  0
  140.5800   79.0110  223.7810 C   0  0  0  0  0  0  0  0  0  0  0  0
  141.7410   79.6030  224.2110 C   0  0  0  0  0  0  0  0  0  0  0  0
  142.7300   79.8160  223.2930 C   0  0  0  0  0  0  0  0  0  0  0  0
  142.5460   79.4410  221.9820 C   0  0  0  0  0  0  0  0  0  0  0  0
  141.4020   78.8450  221.5010 C   0  0  0  0  0  0  0  0  0  0  0  0
  141.1930   78.4780  220.1140 C   0  0  1  0  0  0  0  0  0  0  0  0
  142.1810   79.1230  219.1650 C   0  0  0  0  0  0  0  0  0  0  0  0
  141.9600   78.3520  217.8900 C   0  0  0  0  0  0  0  0  0  0  0  0
  141.0830   77.1830  218.2260 C   0  0  0  0  0  0  0  0  0  0  0  0
  141.1820   77.1160  219.7200 N   0  0  0  0  0  0  0  0  0  0  0  0
  141.2020   75.8580  220.3340 C   0  0  0  0  0  0  0  0  0  0  0  0
  142.1960   75.6760  221.1510 O   0  0  0  0  0  0  0  0  0  0  0  0
  140.2940   74.7340  220.2000 C   0  0  0  0  0  0  0  0  0  0  0  0
  140.3710   73.8330  221.3650 N   0  0  0  0  0  0  0  0  0  0  0  0
  139.4900   72.7220  221.4460 C   0  0  0  0  0  0  0  0  0  0  0  0
  138.6300   72.4430  220.5720 O   0  0  0  0  0  0  0  0  0  0  0  0
  139.5990   71.8580  222.6170 C   0  0  0  0  0  0  0  0  0  0  0  0
  139.0350   70.5860  222.6250 C   0  0  0  0  0  0  0  0  0  0  0  0
  139.1160   69.7430  223.7090 C   0  0  0  0  0  0  0  0  0  0  0  0
  139.7760   70.1560  224.8390 C   0  0  0  0  0  0  0  0  0  0  0  0
  139.8820   69.3410  225.9520 C   0  0  0  0  0  0  0  0  0  0  0  0
  140.5480   69.7680  227.0820 C   0  0  0  0  0  0  0  0  0  0  0  0
  140.6690   68.7260  228.4700 Cl  0  0  0  0  0  0  0  0  0  0  0  0
  141.1000   71.0320  227.0520 C   0  0  0  0  0  0  0  0  0  0  0  0
  140.9910   71.8380  225.9410 C   0  0  0  0  0  0  0  0  0  0  0  0
  140.3300   71.4310  224.8030 C   0  0  0  0  0  0  0  0  0  0  0  0
  140.2390   72.2370  223.7370 N   0  0  0  0  0  0  0  0  0  0  0  0
  138.7354   76.5602  223.5450 H   0  0  0  0  0  0  0  0  0  0  0  0
  137.7796   76.4754  222.0265 H   0  0  0  0  0  0  0  0  0  0  0  0
  139.5101   75.9939  222.0265 H   0  0  0  0  0  0  0  0  0  0  0  0
  137.5502   79.3927  222.2043 H   0  0  0  0  0  0  0  0  0  0  0  0
  138.6868   79.6083  220.8301 H   0  0  0  0  0  0  0  0  0  0  0  0
  137.5277   78.2361  220.8301 H   0  0  0  0  0  0  0  0  0  0  0  0
  139.7713   78.8307  224.5046 H   0  0  0  0  0  0  0  0  0  0  0  0
  141.8713   79.8971  225.2629 H   0  0  0  0  0  0  0  0  0  0  0  0
  143.6744   80.2878  223.6022 H   0  0  0  0  0  0  0  0  0  0  0  0
  143.3655   79.6295  221.2728 H   0  0  0  0  0  0  0  0  0  0  0  0
  140.1590   78.8470  220.0458 H   0  0  0  0  0  0  0  0  0  0  0  0
  141.9597   80.1916  219.0267 H   0  0  0  0  0  0  0  0  0  0  0  0
  143.2202   79.0881  219.5238 H   0  0  0  0  0  0  0  0  0  0  0  0
  141.4663   78.9915  217.1435 H   0  0  0  0  0  0  0  0  0  0  0  0
  142.9174   78.0135  217.4671 H   0  0  0  0  0  0  0  0  0  0  0  0
  140.0459   77.3598  217.9047 H   0  0  0  0  0  0  0  0  0  0  0  0
  141.3866   76.2514  217.7260 H   0  0  0  0  0  0  0  0  0  0  0  0
  139.2658   75.1143  220.1100 H   0  0  0  0  0  0  0  0  0  0  0  0
  140.5814   74.1640  219.3042 H   0  0  0  0  0  0  0  0  0  0  0  0
  141.0690   74.0150  222.1270 H   0  0  0  0  0  0  0  0  0  0  0  0
  138.5021   70.2401  221.7270 H   0  0  0  0  0  0  0  0  0  0  0  0
  138.6550   68.7450  223.6703 H   0  0  0  0  0  0  0  0  0  0  0  0
  139.4290   68.3388  225.9356 H   0  0  0  0  0  0  0  0  0  0  0  0
  141.6393   71.4043  227.9355 H   0  0  0  0  0  0  0  0  0  0  0  0
  141.4464   72.8391  225.9628 H   0  0  0  0  0  0  0  0  0  0  0  0
  1  2  1  0
  2  3  1  0
  2  4  1  0
  4  5  2  0
  5  6  1  0
  6  7  2  0
  7  8  1  0
  8  9  2  0
  9 10  1  0
 10 11  1  0
 11 12  1  0
 12 13  1  0
 13 14  1  0
 14 15  1  0
 15 16  2  0
 15 17  1  0
 17 18  1  0
 18 19  1  0
 19 20  2  0
 19 21  1  0
 21 22  2  0
 22 23  1  0
 23 24  2  0
 24 25  1  0
 25 26  2  0
 26 27  1  0
 26 28  1  0
 28 29  2  0
 29 30  1  0
 30 31  2  0
  9  4  1  0
 14 10  1  0
 31 21  1  0
 30 24  1  0
  1 32  1  0
  1 33  1  0
  1 34  1  0
  3 35  1  0
  3 36  1  0
  3 37  1  0
  5 38  1  0
  6 39  1  0
  7 40  1  0
  8 41  1  0
 10 42  1  6
 11 43  1  0
 11 44  1  0
 12 45  1  0
 12 46  1  0
 13 47  1  0
 13 48  1  0
 17 49  1  0
 17 50  1  0
 18 51  1  0
 22 52  1  0
 23 53  1  0
 25 54  1  0
 28 55  1  0
 29 56  1  0
M  END
>  <smiles>  (10) 
CN(C)c1ccccc1[C@H]1CCCN1C(=O)CNC(=O)c1ccc2cc(Cl)ccc2n1

>  <score_type>  (10) 
oracle

>  <origin>  (10) 
autodockgpu

>  <m_score__min__energy>  (10) 
-8.7300000000000004

>  <m_primary>  (10) 
energy

>  <rmsd>  (10) 
9.984111594799398

>  <m_score__min__rmsd>  (10) 
9.984111594799398

>  <meeko>  (10) 
{"free_energy": -7.44, "intermolecular_energy": -9.23, "internal_energy": -2.52, "cluster_size": 40, "cluster_id": 1, "rank_in_cluster": 40}

>  <energy>  (10) 
-8.41

>  <cluster_rmsd>  (10) 
1.29

>  <cluster>  (10) 
1

$$$$

     RDKit          3D

 56 59  0  0  0  0  0  0  0  0999 V2000
  142.2130   80.3760  218.9890 C   0  0  0  0  0  0  0  0  0  0  0  0
  141.1610   80.3520  219.9740 N   0  0  0  0  0  0  0  0  0  0  0  0
  139.9040   80.9850  219.6250 C   0  0  0  0  0  0  0  0  0  0  0  0
  141.2600   79.7600  221.2530 C   0  0  0  0  0  0  0  0  0  0  0  0
  141.2970   80.6500  222.3340 C   0  0  0  0  0  0  0  0  0  0  0  0
  141.4030   80.2080  223.6300 C   0  0  0  0  0  0  0  0  0  0  0  0
  141.4720   78.8610  223.8450 C   0  0  0  0  0  0  0  0  0  0  0  0
  141.4350   77.9910  222.7800 C   0  0  0  0  0  0  0  0  0  0  0  0
  141.3290   78.3810  221.4640 C   0  0  0  0  0  0  0  0  0  0  0  0
  141.3230   77.4690  220.3380 C   0  0  1  0  0  0  0  0  0  0  0  0
  142.6800   76.8640  220.0450 C   0  0  0  0  0  0  0  0  0  0  0  0
  142.3430   75.7540  219.0860 C   0  0  0  0  0  0  0  0  0  0  0  0
  140.8510   75.6130  219.0780 C   0  0  0  0  0  0  0  0  0  0  0  0
  140.4440   76.3560  220.3150 N   0  0  0  0  0  0  0  0  0  0  0  0
  139.3750   75.8620  221.0720 C   0  0  0  0  0  0  0  0  0  0  0  0
  138.9940   76.6460  222.0360 O   0  0  0  0  0  0  0  0  0  0  0  0
  138.6330   74.6210  220.9510 C   0  0  0  0  0  0  0  0  0  0  0  0
  138.9220   73.7060  222.0710 N   0  0  0  0  0  0  0  0  0  0  0  0
  139.0260   72.3120  221.8220 C   0  0  0  0  0  0  0  0  0  0  0  0
  138.8890   71.7890  220.6870 O   0  0  0  0  0  0  0  0  0  0  0  0
  139.3110   71.4430  222.9600 C   0  0  0  0  0  0  0  0  0  0  0  0
  138.9630   70.0960  222.9380 C   0  0  0  0  0  0  0  0  0  0  0  0
  139.2150   69.2450  223.9890 C   0  0  0  0  0  0  0  0  0  0  0  0
  139.8330   69.7270  225.1160 C   0  0  0  0  0  0  0  0  0  0  0  0
  140.1050   68.9080  226.1970 C   0  0  0  0  0  0  0  0  0  0  0  0
  140.7270   69.4040  227.3230 C   0  0  0  0  0  0  0  0  0  0  0  0
  141.0600   68.3550  228.6710 Cl  0  0  0  0  0  0  0  0  0  0  0  0
  141.0640   70.7420  227.3240 C   0  0  0  0  0  0  0  0  0  0  0  0
  140.7900   71.5520  226.2440 C   0  0  0  0  0  0  0  0  0  0  0  0
  140.1690   71.0760  225.1110 C   0  0  0  0  0  0  0  0  0  0  0  0
  139.9150   71.8880  224.0760 N   0  0  0  0  0  0  0  0  0  0  0  0
  143.1892   80.3983  219.4956 H   0  0  0  0  0  0  0  0  0  0  0  0
  142.1468   79.4761  218.3599 H   0  0  0  0  0  0  0  0  0  0  0  0
  142.1059   81.2719  218.3599 H   0  0  0  0  0  0  0  0  0  0  0  0
  139.3632   81.2573  220.5434 H   0  0  0  0  0  0  0  0  0  0  0  0
  140.1016   81.8911  219.0334 H   0  0  0  0  0  0  0  0  0  0  0  0
  139.2937   80.2868  219.0334 H   0  0  0  0  0  0  0  0  0  0  0  0
  141.2397   81.7312  222.1398 H   0  0  0  0  0  0  0  0  0  0  0  0
  141.4315   80.9178  224.4699 H   0  0  0  0  0  0  0  0  0  0  0  0
  141.5572   78.4716  224.8702 H   0  0  0  0  0  0  0  0  0  0  0  0
  141.4939   76.9136  222.9939 H   0  0  0  0  0  0  0  0  0  0  0  0
  140.9564   78.1941  219.5965 H   0  0  0  0  0  0  0  0  0  0  0  0
  143.3514   77.6008  219.5798 H   0  0  0  0  0  0  0  0  0  0  0  0
  143.2095   76.5192  220.9454 H   0  0  0  0  0  0  0  0  0  0  0  0
  142.7033   76.0050  218.0774 H   0  0  0  0  0  0  0  0  0  0  0  0
  142.8225   74.8131  219.3937 H   0  0  0  0  0  0  0  0  0  0  0  0
  140.4140   76.0708  218.1783 H   0  0  0  0  0  0  0  0  0  0  0  0
  140.5111   74.5669  219.0650 H   0  0  0  0  0  0  0  0  0  0  0  0
  137.5566   74.8476  220.9434 H   0  0  0  0  0  0  0  0  0  0  0  0
  138.9364   74.1277  220.0158 H   0  0  0  0  0  0  0  0  0  0  0  0
  139.0470   74.0850  223.0420 H   0  0  0  0  0  0  0  0  0  0  0  0
  138.4655   69.6948  222.0427 H   0  0  0  0  0  0  0  0  0  0  0  0
  138.9235   68.1862  223.9268 H   0  0  0  0  0  0  0  0  0  0  0  0
  139.8210   67.8460  226.1577 H   0  0  0  0  0  0  0  0  0  0  0  0
  141.5621   71.1710  228.2060 H   0  0  0  0  0  0  0  0  0  0  0  0
  141.0765   72.6131  226.2881 H   0  0  0  0  0  0  0  0  0  0  0  0
  1  2  1  0
  2  3  1  0
  2  4  1  0
  4  5  2  0
  5  6  1  0
  6  7  2  0
  7  8  1  0
  8  9  2  0
  9 10  1  0
 10 11  1  0
 11 12  1  0
 12 13  1  0
 13 14  1  0
 14 15  1  0
 15 16  2  0
 15 17  1  0
 17 18  1  0
 18 19  1  0
 19 20  2  0
 19 21  1  0
 21 22  2  0
 22 23  1  0
 23 24  2  0
 24 25  1  0
 25 26  2  0
 26 27  1  0
 26 28  1  0
 28 29  2  0
 29 30  1  0
 30 31  2  0
  9  4  1  0
 14 10  1  0
 31 21  1  0
 30 24  1  0
  1 32  1  0
  1 33  1  0
  1 34  1  0
  3 35  1  0
  3 36  1  0
  3 37  1  0
  5 38  1  0
  6 39  1  0
  7 40  1  0
  8 41  1  0
 10 42  1  6
 11 43  1  0
 11 44  1  0
 12 45  1  0
 12 46  1  0
 13 47  1  0
 13 48  1  0
 17 49  1  0
 17 50  1  0
 18 51  1  0
 22 52  1  0
 23 53  1  0
 25 54  1  0
 28 55  1  0
 29 56  1  0
M  END
>  <smiles>  (11) 
CN(C)c1ccccc1[C@H]1CCCN1C(=O)CNC(=O)c1ccc2cc(Cl)ccc2n1

>  <score_type>  (11) 
oracle

>  <origin>  (11) 
autodockgpu

>  <m_score__min__energy>  (11) 
-8.7300000000000004

>  <m_primary>  (11) 
energy

>  <rmsd>  (11) 
9.98909241783545

>  <m_score__min__rmsd>  (11) 
9.98909241783545

>  <meeko>  (11) 
{"free_energy": -8.42, "intermolecular_energy": -10.21, "internal_energy": -1.81, "cluster_size": 40, "cluster_id": 1, "rank_in_cluster": 7}

>  <energy>  (11) 
-8.41

>  <cluster_rmsd>  (11) 
1.3

>  <cluster>  (11) 
1

$$$$

     RDKit          3D

 56 59  0  0  0  0  0  0  0  0999 V2000
  138.5000   82.0080  222.1780 C   0  0  0  0  0  0  0  0  0  0  0  0
  139.0350   80.9680  223.0210 N   0  0  0  0  0  0  0  0  0  0  0  0
  138.1990   80.4890  224.1050 C   0  0  0  0  0  0  0  0  0  0  0  0
  140.3110   80.3790  222.8730 C   0  0  0  0  0  0  0  0  0  0  0  0
  141.2780   80.7790  223.8050 C   0  0  0  0  0  0  0  0  0  0  0  0
  142.5610   80.2930  223.7690 C   0  0  0  0  0  0  0  0  0  0  0  0
  142.8800   79.3970  222.7890 C   0  0  0  0  0  0  0  0  0  0  0  0
  141.9290   79.0070  221.8750 C   0  0  0  0  0  0  0  0  0  0  0  0
  140.6290   79.4630  221.8680 C   0  0  0  0  0  0  0  0  0  0  0  0
  139.6330   79.0800  220.8870 C   0  0  1  0  0  0  0  0  0  0  0  0
  140.0090   79.4520  219.4690 C   0  0  0  0  0  0  0  0  0  0  0  0
  139.0070   78.6810  218.6520 C   0  0  0  0  0  0  0  0  0  0  0  0
  138.3030   77.7420  219.5850 C   0  0  0  0  0  0  0  0  0  0  0  0
  139.2050   77.7320  220.7830 N   0  0  0  0  0  0  0  0  0  0  0  0
  139.3760   76.5310  221.4820 C   0  0  0  0  0  0  0  0  0  0  0  0
  139.3500   76.6560  222.7750 O   0  0  0  0  0  0  0  0  0  0  0  0
  139.5790   75.1800  220.9910 C   0  0  0  0  0  0  0  0  0  0  0  0
  139.6650   74.2090  222.0980 N   0  0  0  0  0  0  0  0  0  0  0  0
  139.8670   72.8350  221.8050 C   0  0  0  0  0  0  0  0  0  0  0  0
  139.9820   72.3750  220.6400 O   0  0  0  0  0  0  0  0  0  0  0  0
  139.9430   71.9080  222.9300 C   0  0  0  0  0  0  0  0  0  0  0  0
  139.5150   70.5910  222.8050 C   0  0  0  0  0  0  0  0  0  0  0  0
  139.5720   69.6880  223.8410 C   0  0  0  0  0  0  0  0  0  0  0  0
  140.0680   70.0850  225.0580 C   0  0  0  0  0  0  0  0  0  0  0  0
  140.1430   69.2110  226.1270 C   0  0  0  0  0  0  0  0  0  0  0  0
  140.6430   69.6230  227.3450 C   0  0  0  0  0  0  0  0  0  0  0  0
  140.7290   68.5060  228.6770 Cl  0  0  0  0  0  0  0  0  0  0  0  0
  141.0620   70.9340  227.4470 C   0  0  0  0  0  0  0  0  0  0  0  0
  140.9850   71.7990  226.3780 C   0  0  0  0  0  0  0  0  0  0  0  0
  140.4880   71.4070  225.1550 C   0  0  0  0  0  0  0  0  0  0  0  0
  140.4240   72.2700  224.1330 N   0  0  0  0  0  0  0  0  0  0  0  0
  138.0865   82.8118  222.8049 H   0  0  0  0  0  0  0  0  0  0  0  0
  139.3013   82.4137  221.5429 H   0  0  0  0  0  0  0  0  0  0  0  0
  137.7040   81.5920  221.5429 H   0  0  0  0  0  0  0  0  0  0  0  0
  138.6602   80.7533  225.0680 H   0  0  0  0  0  0  0  0  0  0  0  0
  137.2049   80.9545  224.0346 H   0  0  0  0  0  0  0  0  0  0  0  0
  138.0979   79.3959  224.0346 H   0  0  0  0  0  0  0  0  0  0  0  0
  141.0013   81.5020  224.5865 H   0  0  0  0  0  0  0  0  0  0  0  0
  143.3099   80.6155  224.5074 H   0  0  0  0  0  0  0  0  0  0  0  0
  143.8989   78.9866  222.7305 H   0  0  0  0  0  0  0  0  0  0  0  0
  142.2254   78.2848  221.1000 H   0  0  0  0  0  0  0  0  0  0  0  0
  138.8038   79.6563  221.3233 H   0  0  0  0  0  0  0  0  0  0  0  0
  139.9087   80.5347  219.3024 H   0  0  0  0  0  0  0  0  0  0  0  0
  141.0536   79.2169  219.2168 H   0  0  0  0  0  0  0  0  0  0  0  0
  138.2828   79.3711  218.1944 H   0  0  0  0  0  0  0  0  0  0  0  0
  139.5060   78.1269  217.8433 H   0  0  0  0  0  0  0  0  0  0  0  0
  137.3021   78.1170  219.8449 H   0  0  0  0  0  0  0  0  0  0  0  0
  138.1355   76.7432  219.1557 H   0  0  0  0  0  0  0  0  0  0  0  0
  138.7357   74.9059  220.3400 H   0  0  0  0  0  0  0  0  0  0  0  0
  140.5278   75.1541  220.4351 H   0  0  0  0  0  0  0  0  0  0  0  0
  139.5750   74.5340  223.0930 H   0  0  0  0  0  0  0  0  0  0  0  0
  139.1139   70.2571  221.8367 H   0  0  0  0  0  0  0  0  0  0  0  0
  139.2227   68.6552  223.6954 H   0  0  0  0  0  0  0  0  0  0  0  0
  139.7994   68.1733  226.0045 H   0  0  0  0  0  0  0  0  0  0  0  0
  141.4666   71.2962  228.4036 H   0  0  0  0  0  0  0  0  0  0  0  0
  141.3313   72.8353  226.5051 H   0  0  0  0  0  0  0  0  0  0  0  0
  1  2  1  0
  2  3  1  0
  2  4  1  0
  4  5  2  0
  5  6  1  0
  6  7  2  0
  7  8  1  0
  8  9  2  0
  9 10  1  0
 10 11  1  0
 11 12  1  0
 12 13  1  0
 13 14  1  0
 14 15  1  0
 15 16  2  0
 15 17  1  0
 17 18  1  0
 18 19  1  0
 19 20  2  0
 19 21  1  0
 21 22  2  0
 22 23  1  0
 23 24  2  0
 24 25  1  0
 25 26  2  0
 26 27  1  0
 26 28  1  0
 28 29  2  0
 29 30  1  0
 30 31  2  0
  9  4  1  0
 14 10  1  0
 31 21  1  0
 30 24  1  0
  1 32  1  0
  1 33  1  0
  1 34  1  0
  3 35  1  0
  3 36  1  0
  3 37  1  0
  5 38  1  0
  6 39  1  0
  7 40  1  0
  8 41  1  0
 10 42  1  1
 11 43  1  0
 11 44  1  0
 12 45  1  0
 12 46  1  0
 13 47  1  0
 13 48  1  0
 17 49  1  0
 17 50  1  0
 18 51  1  0
 22 52  1  0
 23 53  1  0
 25 54  1  0
 28 55  1  0
 29 56  1  0
M  END
>  <smiles>  (12) 
CN(C)c1ccccc1[C@H]1CCCN1C(=O)CNC(=O)c1ccc2cc(Cl)ccc2n1

>  <score_type>  (12) 
oracle

>  <origin>  (12) 
autodockgpu

>  <m_score__min__energy>  (12) 
-8.7300000000000004

>  <m_primary>  (12) 
energy

>  <rmsd>  (12) 
10.21882800155349

>  <m_score__min__rmsd>  (12) 
10.21882800155349

>  <meeko>  (12) 
{"free_energy": -8.36, "intermolecular_energy": -10.15, "internal_energy": -2.31, "cluster_size": 40, "cluster_id": 1, "rank_in_cluster": 13}

>  <energy>  (12) 
-8.39

>  <cluster_rmsd>  (12) 
1.28

>  <cluster>  (12) 
1

$$$$

     RDKit          3D

 56 59  0  0  0  0  0  0  0  0999 V2000
  142.1620   80.4940  219.1230 C   0  0  0  0  0  0  0  0  0  0  0  0
  141.1970   80.6260  220.1860 N   0  0  0  0  0  0  0  0  0  0  0  0
  140.0260   81.4430  219.9290 C   0  0  0  0  0  0  0  0  0  0  0  0
  141.3010   80.0200  221.4580 C   0  0  0  0  0  0  0  0  0  0  0  0
  141.4370   80.8980  222.5410 C   0  0  0  0  0  0  0  0  0  0  0  0
  141.5600   80.4420  223.8300 C   0  0  0  0  0  0  0  0  0  0  0  0
  141.5470   79.0930  224.0370 C   0  0  0  0  0  0  0  0  0  0  0  0
  141.4130   78.2330  222.9710 C   0  0  0  0  0  0  0  0  0  0  0  0
  141.2860   78.6390  221.6610 C   0  0  0  0  0  0  0  0  0  0  0  0
  141.1780   77.7350  220.5330 C   0  0  1  0  0  0  0  0  0  0  0  0
  142.5190   77.2950  219.9830 C   0  0  0  0  0  0  0  0  0  0  0  0
  142.1410   76.1560  219.0740 C   0  0  0  0  0  0  0  0  0  0  0  0
  140.6980   75.8420  219.3330 C   0  0  0  0  0  0  0  0  0  0  0  0
  140.4430   76.5280  220.6420 N   0  0  0  0  0  0  0  0  0  0  0  0
  139.5940   75.9090  221.5680 C   0  0  0  0  0  0  0  0  0  0  0  0
  140.1840   75.0460  222.3410 O   0  0  0  0  0  0  0  0  0  0  0  0
  138.1710   76.0770  221.7960 C   0  0  0  0  0  0  0  0  0  0  0  0
  137.8800   77.3400  222.5010 N   0  0  0  0  0  0  0  0  0  0  0  0
  137.8740   78.5590  221.7740 C   0  0  0  0  0  0  0  0  0  0  0  0
  138.1030   78.6410  220.5400 O   0  0  0  0  0  0  0  0  0  0  0  0
  137.5840   79.7840  222.5110 C   0  0  0  0  0  0  0  0  0  0  0  0
  137.4750   81.0070  221.8570 C   0  0  0  0  0  0  0  0  0  0  0  0
  137.2020   82.1820  222.5170 C   0  0  0  0  0  0  0  0  0  0  0  0
  137.0270   82.1690  223.8780 C   0  0  0  0  0  0  0  0  0  0  0  0
  136.7520   83.3270  224.5830 C   0  0  0  0  0  0  0  0  0  0  0  0
  136.5780   83.3000  225.9510 C   0  0  0  0  0  0  0  0  0  0  0  0
  136.2320   84.7690  226.8160 Cl  0  0  0  0  0  0  0  0  0  0  0  0
  136.6900   82.0770  226.5790 C   0  0  0  0  0  0  0  0  0  0  0  0
  136.9640   80.9280  225.8720 C   0  0  0  0  0  0  0  0  0  0  0  0
  137.1410   80.9330  224.5070 C   0  0  0  0  0  0  0  0  0  0  0  0
  137.4080   79.8000  223.8450 N   0  0  0  0  0  0  0  0  0  0  0  0
  143.1650   80.3568  219.5533 H   0  0  0  0  0  0  0  0  0  0  0  0
  141.9069   79.6224  218.5023 H   0  0  0  0  0  0  0  0  0  0  0  0
  142.1503   81.4021  218.5023 H   0  0  0  0  0  0  0  0  0  0  0  0
  139.5794   81.7546  220.8847 H   0  0  0  0  0  0  0  0  0  0  0  0
  140.3193   82.3335  219.3537 H   0  0  0  0  0  0  0  0  0  0  0  0
  139.2915   80.8603  219.3537 H   0  0  0  0  0  0  0  0  0  0  0  0
  141.4455   81.9819  222.3536 H   0  0  0  0  0  0  0  0  0  0  0  0
  141.6659   81.1430  224.6710 H   0  0  0  0  0  0  0  0  0  0  0  0
  141.6437   78.6927  225.0570 H   0  0  0  0  0  0  0  0  0  0  0  0
  141.4069   77.1527  223.1783 H   0  0  0  0  0  0  0  0  0  0  0  0
  140.6001   78.4139  219.8887 H   0  0  0  0  0  0  0  0  0  0  0  0
  143.0042   78.1072  219.4218 H   0  0  0  0  0  0  0  0  0  0  0  0
  143.2412   77.0122  220.7630 H   0  0  0  0  0  0  0  0  0  0  0  0
  142.2799   76.4504  218.0233 H   0  0  0  0  0  0  0  0  0  0  0  0
  142.7727   75.2764  219.2669 H   0  0  0  0  0  0  0  0  0  0  0  0
  140.0545   76.2494  218.5393 H   0  0  0  0  0  0  0  0  0  0  0  0
  140.4824   74.7636  219.3552 H   0  0  0  0  0  0  0  0  0  0  0  0
  137.6520   76.0816  220.8261 H   0  0  0  0  0  0  0  0  0  0  0  0
  137.8221   75.2439  222.4239 H   0  0  0  0  0  0  0  0  0  0  0  0
  137.6820   77.3340  223.5320 H   0  0  0  0  0  0  0  0  0  0  0  0
  137.6130   81.0353  220.7661 H   0  0  0  0  0  0  0  0  0  0  0  0
  137.1244   83.1261  221.9578 H   0  0  0  0  0  0  0  0  0  0  0  0
  136.6709   84.2830  224.0449 H   0  0  0  0  0  0  0  0  0  0  0  0
  136.5574   82.0185  227.6694 H   0  0  0  0  0  0  0  0  0  0  0  0
  137.0441   79.9750  226.4155 H   0  0  0  0  0  0  0  0  0  0  0  0
  1  2  1  0
  2  3  1  0
  2  4  1  0
  4  5  2  0
  5  6  1  0
  6  7  2  0
  7  8  1  0
  8  9  2  0
  9 10  1  0
 10 11  1  0
 11 12  1  0
 12 13  1  0
 13 14  1  0
 14 15  1  0
 15 16  2  0
 15 17  1  0
 17 18  1  0
 18 19  1  0
 19 20  2  0
 19 21  1  0
 21 22  2  0
 22 23  1  0
 23 24  2  0
 24 25  1  0
 25 26  2  0
 26 27  1  0
 26 28  1  0
 28 29  2  0
 29 30  1  0
 30 31  2  0
  9  4  1  0
 14 10  1  0
 31 21  1  0
 30 24  1  0
  1 32  1  0
  1 33  1  0
  1 34  1  0
  3 35  1  0
  3 36  1  0
  3 37  1  0
  5 38  1  0
  6 39  1  0
  7 40  1  0
  8 41  1  0
 10 42  1  6
 11 43  1  0
 11 44  1  0
 12 45  1  0
 12 46  1  0
 13 47  1  0
 13 48  1  0
 17 49  1  0
 17 50  1  0
 18 51  1  0
 22 52  1  0
 23 53  1  0
 25 54  1  0
 28 55  1  0
 29 56  1  0
M  END
>  <smiles>  (13) 
CN(C)c1ccccc1[C@H]1CCCN1C(=O)CNC(=O)c1ccc2cc(Cl)ccc2n1

>  <score_type>  (13) 
oracle

>  <origin>  (13) 
autodockgpu

>  <m_score__min__energy>  (13) 
-8.7300000000000004

>  <m_primary>  (13) 
energy

>  <rmsd>  (13) 
7.790219203289395

>  <m_score__min__rmsd>  (13) 
7.790219203289395

>  <meeko>  (13) 
{"free_energy": -6.32, "intermolecular_energy": -8.11, "internal_energy": -3.22, "cluster_size": 2, "cluster_id": 7, "rank_in_cluster": 2}

>  <energy>  (13) 
-8.36

>  <cluster_rmsd>  (13) 
1.15

>  <cluster>  (13) 
1

$$$$

     RDKit          3D

 56 59  0  0  0  0  0  0  0  0999 V2000
  138.0530   80.8590  224.5540 C   0  0  0  0  0  0  0  0  0  0  0  0
  137.9760   80.2490  223.2500 N   0  0  0  0  0  0  0  0  0  0  0  0
  137.2320   80.9550  222.2240 C   0  0  0  0  0  0  0  0  0  0  0  0
  138.5700   79.0170  222.8930 C   0  0  0  0  0  0  0  0  0  0  0  0
  137.6890   78.0250  222.4440 C   0  0  0  0  0  0  0  0  0  0  0  0
  138.1320   76.7790  222.0760 C   0  0  0  0  0  0  0  0  0  0  0  0
  139.4710   76.5240  222.1590 C   0  0  0  0  0  0  0  0  0  0  0  0
  140.3330   77.5010  222.6010 C   0  0  0  0  0  0  0  0  0  0  0  0
  139.9400   78.7650  222.9800 C   0  0  0  0  0  0  0  0  0  0  0  0
  140.8410   79.7860  223.4770 C   0  0  1  0  0  0  0  0  0  0  0  0
  142.2100   79.2550  223.8450 C   0  0  0  0  0  0  0  0  0  0  0  0
  143.0170   80.5160  224.0090 C   0  0  0  0  0  0  0  0  0  0  0  0
  142.1780   81.6480  223.4980 C   0  0  0  0  0  0  0  0  0  0  0  0
  141.1210   80.9410  222.7040 N   0  0  0  0  0  0  0  0  0  0  0  0
  140.6640   81.5330  221.5200 C   0  0  0  0  0  0  0  0  0  0  0  0
  139.7610   82.4510  221.6940 O   0  0  0  0  0  0  0  0  0  0  0  0
  141.0370   81.2820  220.1400 C   0  0  0  0  0  0  0  0  0  0  0  0
  141.7890   80.0210  220.0030 N   0  0  0  0  0  0  0  0  0  0  0  0
  141.1630   78.8980  219.4020 C   0  0  0  0  0  0  0  0  0  0  0  0
  139.9840   78.9020  218.9660 O   0  0  0  0  0  0  0  0  0  0  0  0
  141.9430   77.6700  219.2880 C   0  0  0  0  0  0  0  0  0  0  0  0
  142.9130   77.5250  218.3020 C   0  0  0  0  0  0  0  0  0  0  0  0
  143.6690   76.3840  218.1630 C   0  0  0  0  0  0  0  0  0  0  0  0
  143.4720   75.3330  219.0240 C   0  0  0  0  0  0  0  0  0  0  0  0
  144.2080   74.1670  218.9210 C   0  0  0  0  0  0  0  0  0  0  0  0
  144.0010   73.1180  219.7920 C   0  0  0  0  0  0  0  0  0  0  0  0
  144.9400   71.6610  219.6440 Cl  0  0  0  0  0  0  0  0  0  0  0  0
  143.0340   73.2830  220.7630 C   0  0  0  0  0  0  0  0  0  0  0  0
  142.3040   74.4470  220.8600 C   0  0  0  0  0  0  0  0  0  0  0  0
  142.4960   75.5050  220.0000 C   0  0  0  0  0  0  0  0  0  0  0  0
  141.7710   76.6250  220.1180 N   0  0  0  0  0  0  0  0  0  0  0  0
  137.9551   80.0835  225.3279 H   0  0  0  0  0  0  0  0  0  0  0  0
  139.0224   81.3670  224.6645 H   0  0  0  0  0  0  0  0  0  0  0  0
  137.2402   81.5920  224.6645 H   0  0  0  0  0  0  0  0  0  0  0  0
  136.5119   81.6383  222.6979 H   0  0  0  0  0  0  0  0  0  0  0  0
  137.9282   81.5325  221.5981 H   0  0  0  0  0  0  0  0  0  0  0  0
  136.6917   80.2295  221.5981 H   0  0  0  0  0  0  0  0  0  0  0  0
  136.6140   78.2503  222.3847 H   0  0  0  0  0  0  0  0  0  0  0  0
  137.4294   76.0089  221.7248 H   0  0  0  0  0  0  0  0  0  0  0  0
  139.8609   75.5362  221.8721 H   0  0  0  0  0  0  0  0  0  0  0  0
  141.4042   77.2568  222.6550 H   0  0  0  0  0  0  0  0  0  0  0  0
  140.2116   80.1011  224.3223 H   0  0  0  0  0  0  0  0  0  0  0  0
  142.1746   78.6812  224.7828 H   0  0  0  0  0  0  0  0  0  0  0  0
  142.6264   78.5625  223.0986 H   0  0  0  0  0  0  0  0  0  0  0  0
  143.2574   80.6743  225.0707 H   0  0  0  0  0  0  0  0  0  0  0  0
  143.9636   80.4492  223.4528 H   0  0  0  0  0  0  0  0  0  0  0  0
  141.7356   82.2198  224.3271 H   0  0  0  0  0  0  0  0  0  0  0  0
  142.7473   82.3833  222.9104 H   0  0  0  0  0  0  0  0  0  0  0  0
  140.1245   81.2220  219.5286 H   0  0  0  0  0  0  0  0  0  0  0  0
  141.6821   82.1064  219.8020 H   0  0  0  0  0  0  0  0  0  0  0  0
  142.7790   79.9570  220.3490 H   0  0  0  0  0  0  0  0  0  0  0  0
  143.0829   78.3578  217.6038 H   0  0  0  0  0  0  0  0  0  0  0  0
  144.4258   76.3143  217.3678 H   0  0  0  0  0  0  0  0  0  0  0  0
  144.9697   74.0748  218.1328 H   0  0  0  0  0  0  0  0  0  0  0  0
  142.8421   72.4669  221.4751 H   0  0  0  0  0  0  0  0  0  0  0  0
  141.5433   74.5341  221.6498 H   0  0  0  0  0  0  0  0  0  0  0  0
  1  2  1  0
  2  3  1  0
  2  4  1  0
  4  5  2  0
  5  6  1  0
  6  7  2  0
  7  8  1  0
  8  9  2  0
  9 10  1  0
 10 11  1  0
 11 12  1  0
 12 13  1  0
 13 14  1  0
 14 15  1  0
 15 16  2  0
 15 17  1  0
 17 18  1  0
 18 19  1  0
 19 20  2  0
 19 21  1  0
 21 22  2  0
 22 23  1  0
 23 24  2  0
 24 25  1  0
 25 26  2  0
 26 27  1  0
 26 28  1  0
 28 29  2  0
 29 30  1  0
 30 31  2  0
  9  4  1  0
 14 10  1  0
 31 21  1  0
 30 24  1  0
  1 32  1  0
  1 33  1  0
  1 34  1  0
  3 35  1  0
  3 36  1  0
  3 37  1  0
  5 38  1  0
  6 39  1  0
  7 40  1  0
  8 41  1  0
 10 42  1  1
 11 43  1  0
 11 44  1  0
 12 45  1  0
 12 46  1  0
 13 47  1  0
 13 48  1  0
 17 49  1  0
 17 50  1  0
 18 51  1  0
 22 52  1  0
 23 53  1  0
 25 54  1  0
 28 55  1  0
 29 56  1  0
M  END
>  <smiles>  (14) 
CN(C)c1ccccc1[C@H]1CCCN1C(=O)CNC(=O)c1ccc2cc(Cl)ccc2n1

>  <score_type>  (14) 
oracle

>  <origin>  (14) 
autodockgpu

>  <m_score__min__energy>  (14) 
-8.7300000000000004

>  <m_primary>  (14) 
energy

>  <rmsd>  (14) 
8.594560123826811

>  <m_score__min__rmsd>  (14) 
8.594560123826811

>  <meeko>  (14) 
{"free_energy": -6.81, "intermolecular_energy": -8.6, "internal_energy": -2.73, "cluster_size": 3, "cluster_id": 6, "rank_in_cluster": 1}

>  <energy>  (14) 
-8.35

>  <cluster_rmsd>  (14) 
1.69

>  <cluster>  (14) 
1

$$$$

     RDKit          3D

 56 59  0  0  0  0  0  0  0  0999 V2000
  141.9150   78.6070  223.5000 C   0  0  0  0  0  0  0  0  0  0  0  0
  141.1340   79.7840  223.2110 N   0  0  0  0  0  0  0  0  0  0  0  0
  141.8390   81.0480  223.1150 C   0  0  0  0  0  0  0  0  0  0  0  0
  139.7350   79.8020  223.0120 C   0  0  0  0  0  0  0  0  0  0  0  0
  138.9740   80.2810  224.0860 C   0  0  0  0  0  0  0  0  0  0  0  0
  137.6040   80.3410  224.0300 C   0  0  0  0  0  0  0  0  0  0  0  0
  136.9890   79.9170  222.8870 C   0  0  0  0  0  0  0  0  0  0  0  0
  137.7390   79.4480  221.8340 C   0  0  0  0  0  0  0  0  0  0  0  0
  139.1140   79.3670  221.8390 C   0  0  0  0  0  0  0  0  0  0  0  0
  139.9060   78.8420  220.7440 C   0  0  1  0  0  0  0  0  0  0  0  0
  141.2020   79.5940  220.5240 C   0  0  0  0  0  0  0  0  0  0  0  0
  141.9530   78.6820  219.5890 C   0  0  0  0  0  0  0  0  0  0  0  0
  141.1970   77.3890  219.5280 C   0  0  0  0  0  0  0  0  0  0  0  0
  140.2960   77.4790  220.7240 N   0  0  0  0  0  0  0  0  0  0  0  0
  140.0350   76.3140  221.4550 C   0  0  0  0  0  0  0  0  0  0  0  0
  140.6400   76.2560  222.6040 O   0  0  0  0  0  0  0  0  0  0  0  0
  139.2050   75.1680  221.1310 C   0  0  0  0  0  0  0  0  0  0  0  0
  139.2720   74.1360  222.1830 N   0  0  0  0  0  0  0  0  0  0  0  0
  140.0200   72.9530  221.9500 C   0  0  0  0  0  0  0  0  0  0  0  0
  140.6480   72.7160  220.8870 O   0  0  0  0  0  0  0  0  0  0  0  0
  140.0570   71.9570  223.0170 C   0  0  0  0  0  0  0  0  0  0  0  0
  139.5830   70.6660  222.8100 C   0  0  0  0  0  0  0  0  0  0  0  0
  139.6010   69.7000  223.7890 C   0  0  0  0  0  0  0  0  0  0  0  0
  140.1050   70.0040  225.0290 C   0  0  0  0  0  0  0  0  0  0  0  0
  140.1420   69.0640  226.0430 C   0  0  0  0  0  0  0  0  0  0  0  0
  140.6510   69.3820  227.2850 C   0  0  0  0  0  0  0  0  0  0  0  0
  140.6890   68.1830  228.5460 Cl  0  0  0  0  0  0  0  0  0  0  0  0
  141.1170   70.6670  227.4690 C   0  0  0  0  0  0  0  0  0  0  0  0
  141.0760   71.5990  226.4550 C   0  0  0  0  0  0  0  0  0  0  0  0
  140.5720   71.3010  225.2080 C   0  0  0  0  0  0  0  0  0  0  0  0
  140.5450   72.2270  224.2410 N   0  0  0  0  0  0  0  0  0  0  0  0
  141.9987   78.4809  224.5895 H   0  0  0  0  0  0  0  0  0  0  0  0
  141.4227   77.7245  223.0655 H   0  0  0  0  0  0  0  0  0  0  0  0
  142.9195   78.7177  223.0655 H   0  0  0  0  0  0  0  0  0  0  0  0
  142.0507   81.4275  224.1256 H   0  0  0  0  0  0  0  0  0  0  0  0
  142.7849   80.9001  222.5733 H   0  0  0  0  0  0  0  0  0  0  0  0
  141.2161   81.7750  222.5733 H   0  0  0  0  0  0  0  0  0  0  0  0
  139.4879   80.6179  224.9983 H   0  0  0  0  0  0  0  0  0  0  0  0
  137.0186   80.7195  224.8809 H   0  0  0  0  0  0  0  0  0  0  0  0
  135.8923   79.9506  222.8084 H   0  0  0  0  0  0  0  0  0  0  0  0
  137.2069   79.1164  220.9302 H   0  0  0  0  0  0  0  0  0  0  0  0
  139.1415   78.9763  219.9646 H   0  0  0  0  0  0  0  0  0  0  0  0
  141.0189   80.5748  220.0609 H   0  0  0  0  0  0  0  0  0  0  0  0
  141.7459   79.8123  221.4548 H   0  0  0  0  0  0  0  0  0  0  0  0
  142.0096   79.1330  218.5873 H   0  0  0  0  0  0  0  0  0  0  0  0
  142.9803   78.5170  219.9461 H   0  0  0  0  0  0  0  0  0  0  0  0
  140.6152   77.3129  218.5976 H   0  0  0  0  0  0  0  0  0  0  0  0
  141.8471   76.5017  219.5362 H   0  0  0  0  0  0  0  0  0  0  0  0
  138.1622   75.5012  221.0233 H   0  0  0  0  0  0  0  0  0  0  0  0
  139.5751   74.7285  220.1930 H   0  0  0  0  0  0  0  0  0  0  0  0
  138.7680   74.2780  223.0930 H   0  0  0  0  0  0  0  0  0  0  0  0
  139.1764   70.4064  221.8214 H   0  0  0  0  0  0  0  0  0  0  0  0
  139.2145   68.6916  223.5798 H   0  0  0  0  0  0  0  0  0  0  0  0
  139.7604   68.0493  225.8565 H   0  0  0  0  0  0  0  0  0  0  0  0
  141.5306   70.9542  228.4470 H   0  0  0  0  0  0  0  0  0  0  0  0
  141.4576   72.6126  226.6472 H   0  0  0  0  0  0  0  0  0  0  0  0
  1  2  1  0
  2  3  1  0
  2  4  1  0
  4  5  2  0
  5  6  1  0
  6  7  2  0
  7  8  1  0
  8  9  2  0
  9 10  1  0
 10 11  1  0
 11 12  1  0
 12 13  1  0
 13 14  1  0
 14 15  1  0
 15 16  2  0
 15 17  1  0
 17 18  1  0
 18 19  1  0
 19 20  2  0
 19 21  1  0
 21 22  2  0
 22 23  1  0
 23 24  2  0
 24 25  1  0
 25 26  2  0
 26 27  1  0
 26 28  1  0
 28 29  2  0
 29 30  1  0
 30 31  2  0
  9  4  1  0
 14 10  1  0
 31 21  1  0
 30 24  1  0
  1 32  1  0
  1 33  1  0
  1 34  1  0
  3 35  1  0
  3 36  1  0
  3 37  1  0
  5 38  1  0
  6 39  1  0
  7 40  1  0
  8 41  1  0
 10 42  1  6
 11 43  1  0
 11 44  1  0
 12 45  1  0
 12 46  1  0
 13 47  1  0
 13 48  1  0
 17 49  1  0
 17 50  1  0
 18 51  1  0
 22 52  1  0
 23 53  1  0
 25 54  1  0
 28 55  1  0
 29 56  1  0
M  END
>  <smiles>  (15) 
CN(C)c1ccccc1[C@H]1CCCN1C(=O)CNC(=O)c1ccc2cc(Cl)ccc2n1

>  <score_type>  (15) 
oracle

>  <origin>  (15) 
autodockgpu

>  <m_score__min__energy>  (15) 
-8.7300000000000004

>  <m_primary>  (15) 
energy

>  <rmsd>  (15) 
10.259688856643955

>  <m_score__min__rmsd>  (15) 
10.259688856643955

>  <meeko>  (15) 
{"free_energy": -8.35, "intermolecular_energy": -10.14, "internal_energy": -1.35, "cluster_size": 40, "cluster_id": 1, "rank_in_cluster": 16}

>  <energy>  (15) 
-8.35

>  <cluster_rmsd>  (15) 
1.21

>  <cluster>  (15) 
1

$$$$

     RDKit          3D

 56 59  0  0  0  0  0  0  0  0999 V2000
  138.4480   77.5110  222.6960 C   0  0  0  0  0  0  0  0  0  0  0  0
  138.9850   78.8230  222.4410 N   0  0  0  0  0  0  0  0  0  0  0  0
  138.0700   79.8390  221.9570 C   0  0  0  0  0  0  0  0  0  0  0  0
  140.3350   79.1990  222.6250 C   0  0  0  0  0  0  0  0  0  0  0  0
  140.6480   79.7480  223.8750 C   0  0  0  0  0  0  0  0  0  0  0  0
  141.9190   80.1660  224.1830 C   0  0  0  0  0  0  0  0  0  0  0  0
  142.8870   80.0320  223.2290 C   0  0  0  0  0  0  0  0  0  0  0  0
  142.5760   79.4920  222.0030 C   0  0  0  0  0  0  0  0  0  0  0  0
  141.3190   79.0580  221.6440 C   0  0  0  0  0  0  0  0  0  0  0  0
  140.9810   78.5190  220.3420 C   0  0  1  0  0  0  0  0  0  0  0  0
  141.8660   79.0350  219.2280 C   0  0  0  0  0  0  0  0  0  0  0  0
  141.5310   78.1090  218.0890 C   0  0  0  0  0  0  0  0  0  0  0  0
  140.7020   76.9950  218.6530 C   0  0  0  0  0  0  0  0  0  0  0  0
  140.9450   77.1180  220.1270 N   0  0  0  0  0  0  0  0  0  0  0  0
  141.0350   75.9480  220.8910 C   0  0  0  0  0  0  0  0  0  0  0  0
  141.0080   76.1440  222.1750 O   0  0  0  0  0  0  0  0  0  0  0  0
  141.1580   74.5630  220.4760 C   0  0  0  0  0  0  0  0  0  0  0  0
  141.0840   73.6440  221.6270 N   0  0  0  0  0  0  0  0  0  0  0  0
  140.0410   72.6830  221.6850 C   0  0  0  0  0  0  0  0  0  0  0  0
  139.1540   72.5550  220.8030 O   0  0  0  0  0  0  0  0  0  0  0  0
  140.0040   71.7950  222.8420 C   0  0  0  0  0  0  0  0  0  0  0  0
  139.3820   70.5520  222.7740 C   0  0  0  0  0  0  0  0  0  0  0  0
  139.3270   69.6880  223.8420 C   0  0  0  0  0  0  0  0  0  0  0  0
  139.9050   70.0480  225.0340 C   0  0  0  0  0  0  0  0  0  0  0  0
  139.8730   69.2100  226.1340 C   0  0  0  0  0  0  0  0  0  0  0  0
  140.4580   69.5830  227.3260 C   0  0  0  0  0  0  0  0  0  0  0  0
  140.4070   68.5130  228.6970 Cl  0  0  0  0  0  0  0  0  0  0  0  0
  141.0700   70.8190  227.3720 C   0  0  0  0  0  0  0  0  0  0  0  0
  141.0980   71.6480  226.2730 C   0  0  0  0  0  0  0  0  0  0  0  0
  140.5200   71.2940  225.0740 C   0  0  0  0  0  0  0  0  0  0  0  0
  140.5620   72.1210  224.0220 N   0  0  0  0  0  0  0  0  0  0  0  0
  138.3808   77.3469  223.7816 H   0  0  0  0  0  0  0  0  0  0  0  0
  137.4453   77.4323  222.2506 H   0  0  0  0  0  0  0  0  0  0  0  0
  139.1077   76.7518  222.2506 H   0  0  0  0  0  0  0  0  0  0  0  0
  137.6071   80.3530  222.8123 H   0  0  0  0  0  0  0  0  0  0  0  0
  138.6219   80.5683  221.3458 H   0  0  0  0  0  0  0  0  0  0  0  0
  137.2871   79.3662  221.3458 H   0  0  0  0  0  0  0  0  0  0  0  0
  139.8543   79.8469  224.6301 H   0  0  0  0  0  0  0  0  0  0  0  0
  142.1507   80.5959  225.1686 H   0  0  0  0  0  0  0  0  0  0  0  0
  143.9164   80.3563  223.4414 H   0  0  0  0  0  0  0  0  0  0  0  0
  143.3832   79.4008  221.2613 H   0  0  0  0  0  0  0  0  0  0  0  0
  139.9419   78.8798  220.3279 H   0  0  0  0  0  0  0  0  0  0  0  0
  141.6219   80.0778  218.9773 H   0  0  0  0  0  0  0  0  0  0  0  0
  142.9353   79.0432  219.4860 H   0  0  0  0  0  0  0  0  0  0  0  0
  140.9617   78.6497  217.3186 H   0  0  0  0  0  0  0  0  0  0  0  0
  142.4466   77.7168  217.6222 H   0  0  0  0  0  0  0  0  0  0  0  0
  139.6372   77.1324  218.4136 H   0  0  0  0  0  0  0  0  0  0  0  0
  140.9649   76.0067  218.2480 H   0  0  0  0  0  0  0  0  0  0  0  0
  140.3427   74.3259  219.7766 H   0  0  0  0  0  0  0  0  0  0  0  0
  142.1383   74.4335  219.9941 H   0  0  0  0  0  0  0  0  0  0  0  0
  141.7970   73.7030  222.3950 H   0  0  0  0  0  0  0  0  0  0  0  0
  138.9147   70.2479  221.8258 H   0  0  0  0  0  0  0  0  0  0  0  0
  138.8234   68.7152  223.7421 H   0  0  0  0  0  0  0  0  0  0  0  0
  139.3741   68.2327  226.0570 H   0  0  0  0  0  0  0  0  0  0  0  0
  141.5459   71.1492  228.3071 H   0  0  0  0  0  0  0  0  0  0  0  0
  141.5980   72.6243  226.3552 H   0  0  0  0  0  0  0  0  0  0  0  0
  1  2  1  0
  2  3  1  0
  2  4  1  0
  4  5  2  0
  5  6  1  0
  6  7  2  0
  7  8  1  0
  8  9  2  0
  9 10  1  0
 10 11  1  0
 11 12  1  0
 12 13  1  0
 13 14  1  0
 14 15  1  0
 15 16  2  0
 15 17  1  0
 17 18  1  0
 18 19  1  0
 19 20  2  0
 19 21  1  0
 21 22  2  0
 22 23  1  0
 23 24  2  0
 24 25  1  0
 25 26  2  0
 26 27  1  0
 26 28  1  0
 28 29  2  0
 29 30  1  0
 30 31  2  0
  9  4  1  0
 14 10  1  0
 31 21  1  0
 30 24  1  0
  1 32  1  0
  1 33  1  0
  1 34  1  0
  3 35  1  0
  3 36  1  0
  3 37  1  0
  5 38  1  0
  6 39  1  0
  7 40  1  0
  8 41  1  0
 10 42  1  6
 11 43  1  0
 11 44  1  0
 12 45  1  0
 12 46  1  0
 13 47  1  0
 13 48  1  0
 17 49  1  0
 17 50  1  0
 18 51  1  0
 22 52  1  0
 23 53  1  0
 25 54  1  0
 28 55  1  0
 29 56  1  0
M  END
>  <smiles>  (16) 
CN(C)c1ccccc1[C@H]1CCCN1C(=O)CNC(=O)c1ccc2cc(Cl)ccc2n1

>  <score_type>  (16) 
oracle

>  <origin>  (16) 
autodockgpu

>  <m_score__min__energy>  (16) 
-8.7300000000000004

>  <m_primary>  (16) 
energy

>  <rmsd>  (16) 
10.126224391039882

>  <m_score__min__rmsd>  (16) 
10.126224391039882

>  <meeko>  (16) 
{"free_energy": -7.96, "intermolecular_energy": -9.75, "internal_energy": -2.02, "cluster_size": 40, "cluster_id": 1, "rank_in_cluster": 27}

>  <energy>  (16) 
-8.35

>  <cluster_rmsd>  (16) 
1.65

>  <cluster>  (16) 
1

$$$$

     RDKit          3D

 56 59  0  0  0  0  0  0  0  0999 V2000
  137.8510   79.0750  220.7870 C   0  0  0  0  0  0  0  0  0  0  0  0
  138.6300   78.6710  221.9300 N   0  0  0  0  0  0  0  0  0  0  0  0
  138.0490   77.6860  222.8220 C   0  0  0  0  0  0  0  0  0  0  0  0
  139.9180   79.1590  222.2490 C   0  0  0  0  0  0  0  0  0  0  0  0
  140.0080   79.9130  223.4260 C   0  0  0  0  0  0  0  0  0  0  0  0
  141.1970   80.4560  223.8460 C   0  0  0  0  0  0  0  0  0  0  0  0
  142.3070   80.2420  223.0800 C   0  0  0  0  0  0  0  0  0  0  0  0
  142.2140   79.5010  221.9250 C   0  0  0  0  0  0  0  0  0  0  0  0
  141.0480   78.9340  221.4600 C   0  0  0  0  0  0  0  0  0  0  0  0
  140.9400   78.1810  220.2260 C   0  0  1  0  0  0  0  0  0  0  0  0
  142.1810   78.2590  219.3620 C   0  0  0  0  0  0  0  0  0  0  0  0
  141.9420   77.1720  218.3480 C   0  0  0  0  0  0  0  0  0  0  0  0
  140.7540   76.3850  218.8140 C   0  0  0  0  0  0  0  0  0  0  0  0
  140.6290   76.7980  220.2500 N   0  0  0  0  0  0  0  0  0  0  0  0
  140.2370   75.8380  221.1910 C   0  0  0  0  0  0  0  0  0  0  0  0
  140.7570   76.0000  222.3700 O   0  0  0  0  0  0  0  0  0  0  0  0
  139.3500   74.6970  221.0550 C   0  0  0  0  0  0  0  0  0  0  0  0
  139.5090   73.7500  222.1740 N   0  0  0  0  0  0  0  0  0  0  0  0
  139.4770   72.3550  221.9160 C   0  0  0  0  0  0  0  0  0  0  0  0
  139.3210   71.8560  220.7720 O   0  0  0  0  0  0  0  0  0  0  0  0
  139.6360   71.4540  223.0530 C   0  0  0  0  0  0  0  0  0  0  0  0
  139.1910   70.1370  222.9920 C   0  0  0  0  0  0  0  0  0  0  0  0
  139.3240   69.2580  224.0420 C   0  0  0  0  0  0  0  0  0  0  0  0
  139.9170   69.6790  225.2060 C   0  0  0  0  0  0  0  0  0  0  0  0
  140.0700   68.8290  226.2870 C   0  0  0  0  0  0  0  0  0  0  0  0
  140.6670   69.2640  227.4510 C   0  0  0  0  0  0  0  0  0  0  0  0
  140.8500   68.1770  228.7980 Cl  0  0  0  0  0  0  0  0  0  0  0  0
  141.1020   70.5730  227.4890 C   0  0  0  0  0  0  0  0  0  0  0  0
  140.9460   71.4140  226.4100 C   0  0  0  0  0  0  0  0  0  0  0  0
  140.3520   70.9990  225.2390 C   0  0  0  0  0  0  0  0  0  0  0  0
  140.2130   71.8390  224.2050 N   0  0  0  0  0  0  0  0  0  0  0  0
  136.9225   79.5565  221.1277 H   0  0  0  0  0  0  0  0  0  0  0  0
  138.4314   79.7857  220.1804 H   0  0  0  0  0  0  0  0  0  0  0  0
  137.6044   78.1911  220.1804 H   0  0  0  0  0  0  0  0  0  0  0  0
  138.2262   77.9864  223.8653 H   0  0  0  0  0  0  0  0  0  0  0  0
  136.9665   77.6186  222.6386 H   0  0  0  0  0  0  0  0  0  0  0  0
  138.5137   76.7060  222.6386 H   0  0  0  0  0  0  0  0  0  0  0  0
  139.1026   80.0743  224.0295 H   0  0  0  0  0  0  0  0  0  0  0  0
  141.2538   81.0462  224.7725 H   0  0  0  0  0  0  0  0  0  0  0  0
  143.2761   80.6624  223.3868 H   0  0  0  0  0  0  0  0  0  0  0  0
  143.1299   79.3515  221.3345 H   0  0  0  0  0  0  0  0  0  0  0  0
  140.0576   78.7101  219.8368 H   0  0  0  0  0  0  0  0  0  0  0  0
  142.2665   79.2427  218.8773 H   0  0  0  0  0  0  0  0  0  0  0  0
  143.1166   78.1335  219.9267 H   0  0  0  0  0  0  0  0  0  0  0  0
  141.7377   77.6146  217.3619 H   0  0  0  0  0  0  0  0  0  0  0  0
  142.8265   76.5249  218.2532 H   0  0  0  0  0  0  0  0  0  0  0  0
  139.8521   76.6530  218.2441 H   0  0  0  0  0  0  0  0  0  0  0  0
  140.8693   75.2993  218.6801 H   0  0  0  0  0  0  0  0  0  0  0  0
  138.3097   75.0539  221.0344 H   0  0  0  0  0  0  0  0  0  0  0  0
  139.6039   74.1729  220.1218 H   0  0  0  0  0  0  0  0  0  0  0  0
  139.6430   74.1080  223.1520 H   0  0  0  0  0  0  0  0  0  0  0  0
  138.7132   69.7841  222.0662 H   0  0  0  0  0  0  0  0  0  0  0  0
  138.9576   68.2250  223.9493 H   0  0  0  0  0  0  0  0  0  0  0  0
  139.7103   67.7919  226.2167 H   0  0  0  0  0  0  0  0  0  0  0  0
  141.5842   70.9531  228.4017 H   0  0  0  0  0  0  0  0  0  0  0  0
  141.3073   72.4502  226.4858 H   0  0  0  0  0  0  0  0  0  0  0  0
  1  2  1  0
  2  3  1  0
  2  4  1  0
  4  5  2  0
  5  6  1  0
  6  7  2  0
  7  8  1  0
  8  9  2  0
  9 10  1  0
 10 11  1  0
 11 12  1  0
 12 13  1  0
 13 14  1  0
 14 15  1  0
 15 16  2  0
 15 17  1  0
 17 18  1  0
 18 19  1  0
 19 20  2  0
 19 21  1  0
 21 22  2  0
 22 23  1  0
 23 24  2  0
 24 25  1  0
 25 26  2  0
 26 27  1  0
 26 28  1  0
 28 29  2  0
 29 30  1  0
 30 31  2  0
  9  4  1  0
 14 10  1  0
 31 21  1  0
 30 24  1  0
  1 32  1  0
  1 33  1  0
  1 34  1  0
  3 35  1  0
  3 36  1  0
  3 37  1  0
  5 38  1  0
  6 39  1  0
  7 40  1  0
  8 41  1  0
 10 42  1  6
 11 43  1  0
 11 44  1  0
 12 45  1  0
 12 46  1  0
 13 47  1  0
 13 48  1  0
 17 49  1  0
 17 50  1  0
 18 51  1  0
 22 52  1  0
 23 53  1  0
 25 54  1  0
 28 55  1  0
 29 56  1  0
M  END
>  <smiles>  (17) 
CN(C)c1ccccc1[C@H]1CCCN1C(=O)CNC(=O)c1ccc2cc(Cl)ccc2n1

>  <score_type>  (17) 
oracle

>  <origin>  (17) 
autodockgpu

>  <m_score__min__energy>  (17) 
-8.7300000000000004

>  <m_primary>  (17) 
energy

>  <rmsd>  (17) 
10.242453348975229

>  <m_score__min__rmsd>  (17) 
10.242453348975229

>  <meeko>  (17) 
{"free_energy": -8.39, "intermolecular_energy": -10.18, "internal_energy": -2.3, "cluster_size": 40, "cluster_id": 1, "rank_in_cluster": 12}

>  <energy>  (17) 
-8.33

>  <cluster_rmsd>  (17) 
1.37

>  <cluster>  (17) 
1

$$$$

     RDKit          3D

 56 59  0  0  0  0  0  0  0  0999 V2000
  140.1350   80.8590  218.8460 C   0  0  0  0  0  0  0  0  0  0  0  0
  141.3730   80.3840  219.4110 N   0  0  0  0  0  0  0  0  0  0  0  0
  142.5050   80.2420  218.5150 C   0  0  0  0  0  0  0  0  0  0  0  0
  141.5700   80.0460  220.7690 C   0  0  0  0  0  0  0  0  0  0  0  0
  141.7590   81.1250  221.6420 C   0  0  0  0  0  0  0  0  0  0  0  0
  141.9730   80.9380  222.9850 C   0  0  0  0  0  0  0  0  0  0  0  0
  141.9990   79.6570  223.4590 C   0  0  0  0  0  0  0  0  0  0  0  0
  141.8130   78.6010  222.5970 C   0  0  0  0  0  0  0  0  0  0  0  0
  141.5940   78.7340  221.2440 C   0  0  0  0  0  0  0  0  0  0  0  0
  141.4310   77.6220  220.3290 C   0  0  1  0  0  0  0  0  0  0  0  0
  142.7420   77.0080  219.8860 C   0  0  0  0  0  0  0  0  0  0  0  0
  142.2990   75.7250  219.2340 C   0  0  0  0  0  0  0  0  0  0  0  0
  140.8440   75.5470  219.5500 C   0  0  0  0  0  0  0  0  0  0  0  0
  140.6350   76.5040  220.6850 N   0  0  0  0  0  0  0  0  0  0  0  0
  139.7640   76.1370  221.7180 C   0  0  0  0  0  0  0  0  0  0  0  0
  139.9350   74.9260  222.1580 O   0  0  0  0  0  0  0  0  0  0  0  0
  138.7060   76.8900  222.3660 C   0  0  0  0  0  0  0  0  0  0  0  0
  137.7620   76.0020  223.0710 N   0  0  0  0  0  0  0  0  0  0  0  0
  136.4700   76.4860  223.4070 C   0  0  0  0  0  0  0  0  0  0  0  0
  136.0630   77.6450  223.1390 O   0  0  0  0  0  0  0  0  0  0  0  0
  135.5690   75.5750  224.1060 C   0  0  0  0  0  0  0  0  0  0  0  0
  135.4870   74.2330  223.7490 C   0  0  0  0  0  0  0  0  0  0  0  0
  134.6510   73.3440  224.3840 C   0  0  0  0  0  0  0  0  0  0  0  0
  133.8560   73.7810  225.4140 C   0  0  0  0  0  0  0  0  0  0  0  0
  133.0000   72.9220  226.0800 C   0  0  0  0  0  0  0  0  0  0  0  0
  132.2060   73.3740  227.1130 C   0  0  0  0  0  0  0  0  0  0  0  0
  131.1370   72.2750  227.9370 Cl  0  0  0  0  0  0  0  0  0  0  0  0
  132.3030   74.7080  227.4510 C   0  0  0  0  0  0  0  0  0  0  0  0
  133.1570   75.5580  226.7830 C   0  0  0  0  0  0  0  0  0  0  0  0
  133.9580   75.1270  225.7490 C   0  0  0  0  0  0  0  0  0  0  0  0
  134.7790   75.9760  225.1180 N   0  0  0  0  0  0  0  0  0  0  0  0
  139.4405   81.1255  219.6564 H   0  0  0  0  0  0  0  0  0  0  0  0
  140.3316   81.7456  218.2252 H   0  0  0  0  0  0  0  0  0  0  0  0
  139.6881   80.0685  218.2252 H   0  0  0  0  0  0  0  0  0  0  0  0
  143.4267   80.1264  219.1042 H   0  0  0  0  0  0  0  0  0  0  0  0
  142.3615   79.3548  217.8807 H   0  0  0  0  0  0  0  0  0  0  0  0
  142.5851   81.1371  217.8807 H   0  0  0  0  0  0  0  0  0  0  0  0
  141.7353   82.1490  221.2409 H   0  0  0  0  0  0  0  0  0  0  0  0
  142.1193   81.7944  223.6597 H   0  0  0  0  0  0  0  0  0  0  0  0
  142.1686   79.4699  224.5296 H   0  0  0  0  0  0  0  0  0  0  0  0
  141.8411   77.5842  223.0158 H   0  0  0  0  0  0  0  0  0  0  0  0
  140.8843   78.1816  219.5557 H   0  0  0  0  0  0  0  0  0  0  0  0
  143.2631   77.6589  219.1685 H   0  0  0  0  0  0  0  0  0  0  0  0
  143.4553   76.8571  220.7097 H   0  0  0  0  0  0  0  0  0  0  0  0
  142.4436   75.7859  218.1452 H   0  0  0  0  0  0  0  0  0  0  0  0
  142.8869   74.8736  219.6075 H   0  0  0  0  0  0  0  0  0  0  0  0
  140.2152   75.8114  218.6870 H   0  0  0  0  0  0  0  0  0  0  0  0
  140.5743   74.5097  219.7977 H   0  0  0  0  0  0  0  0  0  0  0  0
  139.1546   77.5834  223.0926 H   0  0  0  0  0  0  0  0  0  0  0  0
  138.1498   77.4388  221.5917 H   0  0  0  0  0  0  0  0  0  0  0  0
  138.0460   75.0230  223.3210 H   0  0  0  0  0  0  0  0  0  0  0  0
  136.1169   73.8675  222.9246 H   0  0  0  0  0  0  0  0  0  0  0  0
  134.6199   72.2906  224.0686 H   0  0  0  0  0  0  0  0  0  0  0  0
  132.9521   71.8643  225.7816 H   0  0  0  0  0  0  0  0  0  0  0  0
  131.6851   75.1015  228.2716 H   0  0  0  0  0  0  0  0  0  0  0  0
  133.2005   76.6148  227.0852 H   0  0  0  0  0  0  0  0  0  0  0  0
  1  2  1  0
  2  3  1  0
  2  4  1  0
  4  5  2  0
  5  6  1  0
  6  7  2  0
  7  8  1  0
  8  9  2  0
  9 10  1  0
 10 11  1  0
 11 12  1  0
 12 13  1  0
 13 14  1  0
 14 15  1  0
 15 16  2  0
 15 17  1  0
 17 18  1  0
 18 19  1  0
 19 20  2  0
 19 21  1  0
 21 22  2  0
 22 23  1  0
 23 24  2  0
 24 25  1  0
 25 26  2  0
 26 27  1  0
 26 28  1  0
 28 29  2  0
 29 30  1  0
 30 31  2  0
  9  4  1  0
 14 10  1  0
 31 21  1  0
 30 24  1  0
  1 32  1  0
  1 33  1  0
  1 34  1  0
  3 35  1  0
  3 36  1  0
  3 37  1  0
  5 38  1  0
  6 39  1  0
  7 40  1  0
  8 41  1  0
 10 42  1  6
 11 43  1  0
 11 44  1  0
 12 45  1  0
 12 46  1  0
 13 47  1  0
 13 48  1  0
 17 49  1  0
 17 50  1  0
 18 51  1  0
 22 52  1  0
 23 53  1  0
 25 54  1  0
 28 55  1  0
 29 56  1  0
M  END
>  <smiles>  (18) 
CN(C)c1ccccc1[C@H]1CCCN1C(=O)CNC(=O)c1ccc2cc(Cl)ccc2n1

>  <score_type>  (18) 
oracle

>  <origin>  (18) 
autodockgpu

>  <m_score__min__energy>  (18) 
-8.7300000000000004

>  <m_primary>  (18) 
energy

>  <rmsd>  (18) 
9.865789209126554

>  <m_score__min__rmsd>  (18) 
9.865789209126554

>  <meeko>  (18) 
{"free_energy": -7.67, "intermolecular_energy": -9.46, "internal_energy": -2.03, "cluster_size": 1, "cluster_id": 3, "rank_in_cluster": 1}

>  <energy>  (18) 
-8.33

>  <cluster_rmsd>  (18) 
1.41

>  <cluster>  (18) 
1

$$$$

     RDKit          3D

 56 59  0  0  0  0  0  0  0  0999 V2000
  141.7390   76.5880  220.1490 C   0  0  0  0  0  0  0  0  0  0  0  0
  141.6050   78.0150  220.3020 N   0  0  0  0  0  0  0  0  0  0  0  0
  141.9200   78.8440  219.1540 C   0  0  0  0  0  0  0  0  0  0  0  0
  141.1880   78.6700  221.4830 C   0  0  0  0  0  0  0  0  0  0  0  0
  142.2140   79.1680  222.2960 C   0  0  0  0  0  0  0  0  0  0  0  0
  141.9490   79.8150  223.4780 C   0  0  0  0  0  0  0  0  0  0  0  0
  140.6440   79.9640  223.8490 C   0  0  0  0  0  0  0  0  0  0  0  0
  139.6390   79.4730  223.0480 C   0  0  0  0  0  0  0  0  0  0  0  0
  139.8500   78.8180  221.8550 C   0  0  0  0  0  0  0  0  0  0  0  0
  138.7960   78.2710  221.0250 C   0  0  1  0  0  0  0  0  0  0  0  0
  138.8840   78.7020  219.5760 C   0  0  0  0  0  0  0  0  0  0  0  0
  137.9130   77.7720  218.8990 C   0  0  0  0  0  0  0  0  0  0  0  0
  137.5270   76.7270  219.9020 C   0  0  0  0  0  0  0  0  0  0  0  0
  138.5890   76.8700  220.9500 N   0  0  0  0  0  0  0  0  0  0  0  0
  139.0640   75.7150  221.5840 C   0  0  0  0  0  0  0  0  0  0  0  0
  139.6770   75.9350  222.7090 O   0  0  0  0  0  0  0  0  0  0  0  0
  138.9830   74.3230  221.1830 C   0  0  0  0  0  0  0  0  0  0  0  0
  139.2740   73.4160  222.3100 N   0  0  0  0  0  0  0  0  0  0  0  0
  138.9880   72.0320  222.1810 C   0  0  0  0  0  0  0  0  0  0  0  0
  138.4930   71.5100  221.1500 O   0  0  0  0  0  0  0  0  0  0  0  0
  139.2890   71.1720  223.3200 C   0  0  0  0  0  0  0  0  0  0  0  0
  139.0060   69.8100  223.2860 C   0  0  0  0  0  0  0  0  0  0  0  0
  139.2750   68.9670  224.3390 C   0  0  0  0  0  0  0  0  0  0  0  0
  139.8480   69.4710  225.4800 C   0  0  0  0  0  0  0  0  0  0  0  0
  140.1360   68.6600  226.5630 C   0  0  0  0  0  0  0  0  0  0  0  0
  140.7110   69.1800  227.7040 C   0  0  0  0  0  0  0  0  0  0  0  0
  141.0660   68.1410  229.0540 Cl  0  0  0  0  0  0  0  0  0  0  0  0
  140.9850   70.5320  227.7160 C   0  0  0  0  0  0  0  0  0  0  0  0
  140.6950   71.3340  226.6350 C   0  0  0  0  0  0  0  0  0  0  0  0
  140.1210   70.8350  225.4870 C   0  0  0  0  0  0  0  0  0  0  0  0
  139.8500   71.6390  224.4500 N   0  0  0  0  0  0  0  0  0  0  0  0
  141.7834   76.1154  221.1413 H   0  0  0  0  0  0  0  0  0  0  0  0
  140.8737   76.1958  219.5945 H   0  0  0  0  0  0  0  0  0  0  0  0
  142.6622   76.3638  219.5945 H   0  0  0  0  0  0  0  0  0  0  0  0
  142.2911   79.8207  219.4979 H   0  0  0  0  0  0  0  0  0  0  0  0
  142.6934   78.3509  218.5468 H   0  0  0  0  0  0  0  0  0  0  0  0
  141.0143   78.9890  218.5468 H   0  0  0  0  0  0  0  0  0  0  0  0
  143.2594   79.0375  221.9795 H   0  0  0  0  0  0  0  0  0  0  0  0
  142.7643   80.2017  224.1071 H   0  0  0  0  0  0  0  0  0  0  0  0
  140.3955   80.4773  224.7896 H   0  0  0  0  0  0  0  0  0  0  0  0
  138.6002   79.6125  223.3818 H   0  0  0  0  0  0  0  0  0  0  0  0
  137.9587   78.6974  221.5969 H   0  0  0  0  0  0  0  0  0  0  0  0
  138.5792   79.7519  219.4545 H   0  0  0  0  0  0  0  0  0  0  0  0
  139.9024   78.6479  219.1639 H   0  0  0  0  0  0  0  0  0  0  0  0
  137.0221   78.3292  218.5735 H   0  0  0  0  0  0  0  0  0  0  0  0
  138.3690   77.3108  218.0105 H   0  0  0  0  0  0  0  0  0  0  0  0
  136.5287   76.9264  220.3187 H   0  0  0  0  0  0  0  0  0  0  0  0
  137.4661   75.7144  219.4767 H   0  0  0  0  0  0  0  0  0  0  0  0
  137.9684   74.1168  220.8115 H   0  0  0  0  0  0  0  0  0  0  0  0
  139.7321   74.1469  220.3970 H   0  0  0  0  0  0  0  0  0  0  0  0
  139.6880   73.7950  223.1970 H   0  0  0  0  0  0  0  0  0  0  0  0
  138.5478   69.3897  222.3786 H   0  0  0  0  0  0  0  0  0  0  0  0
  139.0326   67.8964  224.2673 H   0  0  0  0  0  0  0  0  0  0  0  0
  139.9034   67.5860  226.5137 H   0  0  0  0  0  0  0  0  0  0  0  0
  141.4455   70.9794  228.6092 H   0  0  0  0  0  0  0  0  0  0  0  0
  140.9293   72.4073  226.6901 H   0  0  0  0  0  0  0  0  0  0  0  0
  1  2  1  0
  2  3  1  0
  2  4  1  0
  4  5  2  0
  5  6  1  0
  6  7  2  0
  7  8  1  0
  8  9  2  0
  9 10  1  0
 10 11  1  0
 11 12  1  0
 12 13  1  0
 13 14  1  0
 14 15  1  0
 15 16  2  0
 15 17  1  0
 17 18  1  0
 18 19  1  0
 19 20  2  0
 19 21  1  0
 21 22  2  0
 22 23  1  0
 23 24  2  0
 24 25  1  0
 25 26  2  0
 26 27  1  0
 26 28  1  0
 28 29  2  0
 29 30  1  0
 30 31  2  0
  9  4  1  0
 14 10  1  0
 31 21  1  0
 30 24  1  0
  1 32  1  0
  1 33  1  0
  1 34  1  0
  3 35  1  0
  3 36  1  0
  3 37  1  0
  5 38  1  0
  6 39  1  0
  7 40  1  0
  8 41  1  0
 10 42  1  1
 11 43  1  0
 11 44  1  0
 12 45  1  0
 12 46  1  0
 13 47  1  0
 13 48  1  0
 17 49  1  0
 17 50  1  0
 18 51  1  0
 22 52  1  0
 23 53  1  0
 25 54  1  0
 28 55  1  0
 29 56  1  0
M  END
>  <smiles>  (19) 
CN(C)c1ccccc1[C@H]1CCCN1C(=O)CNC(=O)c1ccc2cc(Cl)ccc2n1

>  <score_type>  (19) 
oracle

>  <origin>  (19) 
autodockgpu

>  <m_score__min__energy>  (19) 
-8.7300000000000004

>  <m_primary>  (19) 
energy

>  <rmsd>  (19) 
10.19431631096205

>  <m_score__min__rmsd>  (19) 
10.19431631096205

>  <meeko>  (19) 
{"free_energy": -7.88, "intermolecular_energy": -9.67, "internal_energy": -2.3, "cluster_size": 40, "cluster_id": 1, "rank_in_cluster": 28}

>  <energy>  (19) 
-8.3

>  <cluster_rmsd>  (19) 
1.2

>  <cluster>  (19) 
1

$$$$

     RDKit          3D

 56 59  0  0  0  0  0  0  0  0999 V2000
  142.0110   77.0140  220.0810 C   0  0  0  0  0  0  0  0  0  0  0  0
  141.8800   78.4390  220.2540 N   0  0  0  0  0  0  0  0  0  0  0  0
  142.1610   79.2800  219.1060 C   0  0  0  0  0  0  0  0  0  0  0  0
  141.4970   79.0800  221.4530 C   0  0  0  0  0  0  0  0  0  0  0  0
  142.5460   79.5570  222.2500 C   0  0  0  0  0  0  0  0  0  0  0  0
  142.3150   80.1900  223.4460 C   0  0  0  0  0  0  0  0  0  0  0  0
  141.0200   80.3460  223.8490 C   0  0  0  0  0  0  0  0  0  0  0  0
  139.9920   79.8760  223.0650 C   0  0  0  0  0  0  0  0  0  0  0  0
  140.1700   79.2360  221.8580 C   0  0  0  0  0  0  0  0  0  0  0  0
  139.0910   78.7100  221.0450 C   0  0  1  0  0  0  0  0  0  0  0  0
  139.1470   79.1670  219.6020 C   0  0  0  0  0  0  0  0  0  0  0  0
  138.1530   78.2550  218.9330 C   0  0  0  0  0  0  0  0  0  0  0  0
  137.7840   77.1950  219.9260 C   0  0  0  0  0  0  0  0  0  0  0  0
  138.8730   77.3120  220.9500 N   0  0  0  0  0  0  0  0  0  0  0  0
  139.3550   76.1430  221.5520 C   0  0  0  0  0  0  0  0  0  0  0  0
  139.8760   76.3230  222.7290 O   0  0  0  0  0  0  0  0  0  0  0  0
  139.3670   74.7750  221.0690 C   0  0  0  0  0  0  0  0  0  0  0  0
  139.5190   73.8110  222.1750 N   0  0  0  0  0  0  0  0  0  0  0  0
  139.6090   72.4250  221.8830 C   0  0  0  0  0  0  0  0  0  0  0  0
  139.5690   71.9480  220.7200 O   0  0  0  0  0  0  0  0  0  0  0  0
  139.7560   71.5060  223.0070 C   0  0  0  0  0  0  0  0  0  0  0  0
  139.3570   70.1770  222.9040 C   0  0  0  0  0  0  0  0  0  0  0  0
  139.4800   69.2810  223.9410 C   0  0  0  0  0  0  0  0  0  0  0  0
  140.0160   69.6970  225.1340 C   0  0  0  0  0  0  0  0  0  0  0  0
  140.1570   68.8300  226.2030 C   0  0  0  0  0  0  0  0  0  0  0  0
  140.6970   69.2610  227.3970 C   0  0  0  0  0  0  0  0  0  0  0  0
  140.8670   68.1530  228.7280 Cl  0  0  0  0  0  0  0  0  0  0  0  0
  141.0860   70.5820  227.4770 C   0  0  0  0  0  0  0  0  0  0  0  0
  140.9420   71.4390  226.4090 C   0  0  0  0  0  0  0  0  0  0  0  0
  140.4050   71.0300  225.2090 C   0  0  0  0  0  0  0  0  0  0  0  0
  140.2770   71.8860  224.1870 N   0  0  0  0  0  0  0  0  0  0  0  0
  142.0557   76.5276  221.0666 H   0  0  0  0  0  0  0  0  0  0  0  0
  141.1443   76.6313  219.5222 H   0  0  0  0  0  0  0  0  0  0  0  0
  142.9330   76.7957  219.5222 H   0  0  0  0  0  0  0  0  0  0  0  0
  142.4921   80.2710  219.4498 H   0  0  0  0  0  0  0  0  0  0  0  0
  142.9538   78.8187  218.4988 H   0  0  0  0  0  0  0  0  0  0  0  0
  141.2501   79.3880  218.4988 H   0  0  0  0  0  0  0  0  0  0  0  0
  143.5826   79.4206  221.9081 H   0  0  0  0  0  0  0  0  0  0  0  0
  143.1483   80.5604  224.0612 H   0  0  0  0  0  0  0  0  0  0  0  0
  140.7982   80.8483  224.8021 H   0  0  0  0  0  0  0  0  0  0  0  0
  138.9625   80.0203  223.4246 H   0  0  0  0  0  0  0  0  0  0  0  0
  138.2704   79.1302  221.6451 H   0  0  0  0  0  0  0  0  0  0  0  0
  138.8465   80.2209  219.5068 H   0  0  0  0  0  0  0  0  0  0  0  0
  140.1547   79.1144  219.1640 H   0  0  0  0  0  0  0  0  0  0  0  0
  137.2584   78.8237  218.6392 H   0  0  0  0  0  0  0  0  0  0  0  0
  138.5843   77.8064  218.0260 H   0  0  0  0  0  0  0  0  0  0  0  0
  136.7978   77.3938  220.3708 H   0  0  0  0  0  0  0  0  0  0  0  0
  137.7050   76.1906  219.4844 H   0  0  0  0  0  0  0  0  0  0  0  0
  138.4206   74.5725  220.5462 H   0  0  0  0  0  0  0  0  0  0  0  0
  140.2237   74.6572  220.3892 H   0  0  0  0  0  0  0  0  0  0  0  0
  139.5580   74.1500  223.1680 H   0  0  0  0  0  0  0  0  0  0  0  0
  138.9254   69.8282  221.9543 H   0  0  0  0  0  0  0  0  0  0  0  0
  139.1511   68.2389  223.8147 H   0  0  0  0  0  0  0  0  0  0  0  0
  139.8343   67.7835  226.0995 H   0  0  0  0  0  0  0  0  0  0  0  0
  141.5207   70.9590  228.4145 H   0  0  0  0  0  0  0  0  0  0  0  0
  141.2665   72.4844  226.5180 H   0  0  0  0  0  0  0  0  0  0  0  0
  1  2  1  0
  2  3  1  0
  2  4  1  0
  4  5  2  0
  5  6  1  0
  6  7  2  0
  7  8  1  0
  8  9  2  0
  9 10  1  0
 10 11  1  0
 11 12  1  0
 12 13  1  0
 13 14  1  0
 14 15  1  0
 15 16  2  0
 15 17  1  0
 17 18  1  0
 18 19  1  0
 19 20  2  0
 19 21  1  0
 21 22  2  0
 22 23  1  0
 23 24  2  0
 24 25  1  0
 25 26  2  0
 26 27  1  0
 26 28  1  0
 28 29  2  0
 29 30  1  0
 30 31  2  0
  9  4  1  0
 14 10  1  0
 31 21  1  0
 30 24  1  0
  1 32  1  0
  1 33  1  0
  1 34  1  0
  3 35  1  0
  3 36  1  0
  3 37  1  0
  5 38  1  0
  6 39  1  0
  7 40  1  0
  8 41  1  0
 10 42  1  1
 11 43  1  0
 11 44  1  0
 12 45  1  0
 12 46  1  0
 13 47  1  0
 13 48  1  0
 17 49  1  0
 17 50  1  0
 18 51  1  0
 22 52  1  0
 23 53  1  0
 25 54  1  0
 28 55  1  0
 29 56  1  0
M  END
>  <smiles>  (20) 
CN(C)c1ccccc1[C@H]1CCCN1C(=O)CNC(=O)c1ccc2cc(Cl)ccc2n1

>  <score_type>  (20) 
oracle

>  <origin>  (20) 
autodockgpu

>  <m_score__min__energy>  (20) 
-8.7300000000000004

>  <m_primary>  (20) 
energy

>  <rmsd>  (20) 
10.245511923847504

>  <m_score__min__rmsd>  (20) 
10.245511923847504

>  <meeko>  (20) 
{"free_energy": -8.13, "intermolecular_energy": -9.92, "internal_energy": -2.2, "cluster_size": 40, "cluster_id": 1, "rank_in_cluster": 25}

>  <energy>  (20) 
-8.3

>  <cluster_rmsd>  (20) 
1.17

>  <cluster>  (20) 
1

$$$$

     RDKit          3D

 56 59  0  0  0  0  0  0  0  0999 V2000
  137.7100   80.2720  222.0790 C   0  0  0  0  0  0  0  0  0  0  0  0
  138.5790   79.1950  222.4820 N   0  0  0  0  0  0  0  0  0  0  0  0
  137.9680   77.9080  222.7530 C   0  0  0  0  0  0  0  0  0  0  0  0
  139.9810   79.2950  222.6320 C   0  0  0  0  0  0  0  0  0  0  0  0
  140.4240   79.8720  223.8280 C   0  0  0  0  0  0  0  0  0  0  0  0
  141.7600   80.0400  224.0970 C   0  0  0  0  0  0  0  0  0  0  0  0
  142.6610   79.6260  223.1580 C   0  0  0  0  0  0  0  0  0  0  0  0
  142.2210   79.0600  221.9850 C   0  0  0  0  0  0  0  0  0  0  0  0
  140.8950   78.8680  221.6660 C   0  0  0  0  0  0  0  0  0  0  0  0
  140.4270   78.3020  220.4170 C   0  0  1  0  0  0  0  0  0  0  0  0
  141.3980   78.4880  219.2700 C   0  0  0  0  0  0  0  0  0  0  0  0
  140.8440   77.5620  218.2200 C   0  0  0  0  0  0  0  0  0  0  0  0
  139.7830   76.7320  218.8760 C   0  0  0  0  0  0  0  0  0  0  0  0
  140.0630   76.9340  220.3350 N   0  0  0  0  0  0  0  0  0  0  0  0
  139.8850   75.8530  221.2070 C   0  0  0  0  0  0  0  0  0  0  0  0
  140.5530   75.9460  222.3180 O   0  0  0  0  0  0  0  0  0  0  0  0
  139.0800   74.6550  221.0640 C   0  0  0  0  0  0  0  0  0  0  0  0
  139.3150   73.7090  222.1710 N   0  0  0  0  0  0  0  0  0  0  0  0
  139.1650   72.3160  221.9410 C   0  0  0  0  0  0  0  0  0  0  0  0
  138.8390   71.8190  220.8330 O   0  0  0  0  0  0  0  0  0  0  0  0
  139.4050   71.4160  223.0640 C   0  0  0  0  0  0  0  0  0  0  0  0
  139.0270   70.0780  223.0060 C   0  0  0  0  0  0  0  0  0  0  0  0
  139.2360   69.1990  224.0430 C   0  0  0  0  0  0  0  0  0  0  0  0
  139.8420   69.6420  225.1930 C   0  0  0  0  0  0  0  0  0  0  0  0
  140.0710   68.7940  226.2610 C   0  0  0  0  0  0  0  0  0  0  0  0
  140.6800   69.2510  227.4110 C   0  0  0  0  0  0  0  0  0  0  0  0
  140.9600   68.1650  228.7410 Cl  0  0  0  0  0  0  0  0  0  0  0  0
  141.0470   70.5800  227.4470 C   0  0  0  0  0  0  0  0  0  0  0  0
  140.8150   71.4200  226.3810 C   0  0  0  0  0  0  0  0  0  0  0  0
  140.2080   70.9830  225.2240 C   0  0  0  0  0  0  0  0  0  0  0  0
  139.9950   71.8220  224.2030 N   0  0  0  0  0  0  0  0  0  0  0  0
  137.3069   80.7717  222.9722 H   0  0  0  0  0  0  0  0  0  0  0  0
  138.2790   80.9971  221.4786 H   0  0  0  0  0  0  0  0  0  0  0  0
  136.8810   79.8692  221.4786 H   0  0  0  0  0  0  0  0  0  0  0  0
  137.8966   77.7577  223.8403 H   0  0  0  0  0  0  0  0  0  0  0  0
  136.9606   77.8802  222.3121 H   0  0  0  0  0  0  0  0  0  0  0  0
  138.5833   77.1099  222.3121 H   0  0  0  0  0  0  0  0  0  0  0  0
  139.6825   80.1994  224.5717 H   0  0  0  0  0  0  0  0  0  0  0  0
  142.0947   80.4947  225.0411 H   0  0  0  0  0  0  0  0  0  0  0  0
  143.7392   79.7455  223.3403 H   0  0  0  0  0  0  0  0  0  0  0  0
  142.9774   78.7395  221.2534 H   0  0  0  0  0  0  0  0  0  0  0  0
  139.5010   78.8926  220.3558 H   0  0  0  0  0  0  0  0  0  0  0  0
  141.4027   79.5302  218.9183 H   0  0  0  0  0  0  0  0  0  0  0  0
  142.4419   78.2702  219.5398 H   0  0  0  0  0  0  0  0  0  0  0  0
  140.4096   78.1451  217.3946 H   0  0  0  0  0  0  0  0  0  0  0  0
  141.6376   76.9237  217.8045 H   0  0  0  0  0  0  0  0  0  0  0  0
  138.7777   77.0916  218.6114 H   0  0  0  0  0  0  0  0  0  0  0  0
  139.8028   75.6758  218.5695 H   0  0  0  0  0  0  0  0  0  0  0  0
  138.0170   74.9378  221.0554 H   0  0  0  0  0  0  0  0  0  0  0  0
  139.3620   74.1607  220.1226 H   0  0  0  0  0  0  0  0  0  0  0  0
  139.5890   74.0650  223.1200 H   0  0  0  0  0  0  0  0  0  0  0  0
  138.5403   69.7075  222.0917 H   0  0  0  0  0  0  0  0  0  0  0  0
  138.9202   68.1492  223.9519 H   0  0  0  0  0  0  0  0  0  0  0  0
  139.7631   67.7402  226.1924 H   0  0  0  0  0  0  0  0  0  0  0  0
  141.5363   70.9781  228.3482 H   0  0  0  0  0  0  0  0  0  0  0  0
  141.1240   72.4731  226.4555 H   0  0  0  0  0  0  0  0  0  0  0  0
  1  2  1  0
  2  3  1  0
  2  4  1  0
  4  5  2  0
  5  6  1  0
  6  7  2  0
  7  8  1  0
  8  9  2  0
  9 10  1  0
 10 11  1  0
 11 12  1  0
 12 13  1  0
 13 14  1  0
 14 15  1  0
 15 16  2  0
 15 17  1  0
 17 18  1  0
 18 19  1  0
 19 20  2  0
 19 21  1  0
 21 22  2  0
 22 23  1  0
 23 24  2  0
 24 25  1  0
 25 26  2  0
 26 27  1  0
 26 28  1  0
 28 29  2  0
 29 30  1  0
 30 31  2  0
  9  4  1  0
 14 10  1  0
 31 21  1  0
 30 24  1  0
  1 32  1  0
  1 33  1  0
  1 34  1  0
  3 35  1  0
  3 36  1  0
  3 37  1  0
  5 38  1  0
  6 39  1  0
  7 40  1  0
  8 41  1  0
 10 42  1  6
 11 43  1  0
 11 44  1  0
 12 45  1  0
 12 46  1  0
 13 47  1  0
 13 48  1  0
 17 49  1  0
 17 50  1  0
 18 51  1  0
 22 52  1  0
 23 53  1  0
 25 54  1  0
 28 55  1  0
 29 56  1  0
M  END
>  <smiles>  (21) 
CN(C)c1ccccc1[C@H]1CCCN1C(=O)CNC(=O)c1ccc2cc(Cl)ccc2n1

>  <score_type>  (21) 
oracle

>  <origin>  (21) 
autodockgpu

>  <m_score__min__energy>  (21) 
-8.7300000000000004

>  <m_primary>  (21) 
energy

>  <rmsd>  (21) 
10.165148287304902

>  <m_score__min__rmsd>  (21) 
10.165148287304902

>  <meeko>  (21) 
{"free_energy": -8.3, "intermolecular_energy": -10.09, "internal_energy": -2.35, "cluster_size": 40, "cluster_id": 1, "rank_in_cluster": 20}

>  <energy>  (21) 
-8.28

>  <cluster_rmsd>  (21) 
1.19

>  <cluster>  (21) 
1

$$$$

     RDKit          3D

 56 59  0  0  0  0  0  0  0  0999 V2000
  142.0090   79.1750  218.9660 C   0  0  0  0  0  0  0  0  0  0  0  0
  141.7820   78.4710  220.2030 N   0  0  0  0  0  0  0  0  0  0  0  0
  141.9120   77.0270  220.1840 C   0  0  0  0  0  0  0  0  0  0  0  0
  141.4430   79.0780  221.4340 C   0  0  0  0  0  0  0  0  0  0  0  0
  142.5200   79.5340  222.2040 C   0  0  0  0  0  0  0  0  0  0  0  0
  142.3320   80.1320  223.4250 C   0  0  0  0  0  0  0  0  0  0  0  0
  141.0530   80.2760  223.8800 C   0  0  0  0  0  0  0  0  0  0  0  0
  139.9970   79.8270  223.1200 C   0  0  0  0  0  0  0  0  0  0  0  0
  140.1310   79.2210  221.8900 C   0  0  0  0  0  0  0  0  0  0  0  0
  139.0230   78.7180  221.1020 C   0  0  1  0  0  0  0  0  0  0  0  0
  139.0440   79.1900  219.6640 C   0  0  0  0  0  0  0  0  0  0  0  0
  138.0200   78.2980  219.0130 C   0  0  0  0  0  0  0  0  0  0  0  0
  137.6670   77.2310  220.0050 C   0  0  0  0  0  0  0  0  0  0  0  0
  138.7850   77.3240  221.0000 N   0  0  0  0  0  0  0  0  0  0  0  0
  139.2690   76.1430  221.5750 C   0  0  0  0  0  0  0  0  0  0  0  0
  139.8890   76.3120  222.7050 O   0  0  0  0  0  0  0  0  0  0  0  0
  139.1900   74.7710  221.1090 C   0  0  0  0  0  0  0  0  0  0  0  0
  139.3980   73.8120  222.2100 N   0  0  0  0  0  0  0  0  0  0  0  0
  139.3470   72.4190  221.9390 C   0  0  0  0  0  0  0  0  0  0  0  0
  139.1340   71.9330  220.8000 O   0  0  0  0  0  0  0  0  0  0  0  0
  139.5560   71.5060  223.0580 C   0  0  0  0  0  0  0  0  0  0  0  0
  139.1970   70.1650  222.9660 C   0  0  0  0  0  0  0  0  0  0  0  0
  139.3790   69.2730  223.9980 C   0  0  0  0  0  0  0  0  0  0  0  0
  139.9350   69.7060  225.1760 C   0  0  0  0  0  0  0  0  0  0  0  0
  140.1350   68.8450  226.2390 C   0  0  0  0  0  0  0  0  0  0  0  0
  140.6950   69.2920  227.4180 C   0  0  0  0  0  0  0  0  0  0  0  0
  140.9380   68.1900  228.7430 Cl  0  0  0  0  0  0  0  0  0  0  0  0
  141.0440   70.6250  227.4870 C   0  0  0  0  0  0  0  0  0  0  0  0
  140.8410   71.4780  226.4250 C   0  0  0  0  0  0  0  0  0  0  0  0
  140.2840   71.0510  225.2400 C   0  0  0  0  0  0  0  0  0  0  0  0
  140.0990   71.9020  224.2230 N   0  0  0  0  0  0  0  0  0  0  0  0
  142.3399   80.2012  219.1836 H   0  0  0  0  0  0  0  0  0  0  0  0
  142.7850   78.6549  218.3852 H   0  0  0  0  0  0  0  0  0  0  0  0
  141.0754   79.2062  218.3852 H   0  0  0  0  0  0  0  0  0  0  0  0
  141.9461   76.6483  221.2162 H   0  0  0  0  0  0  0  0  0  0  0  0
  141.0497   76.5881  219.6607 H   0  0  0  0  0  0  0  0  0  0  0  0
  142.8388   76.7491  219.6607 H   0  0  0  0  0  0  0  0  0  0  0  0
  143.5434   79.4097  221.8203 H   0  0  0  0  0  0  0  0  0  0  0  0
  143.1873   80.4851  224.0198 H   0  0  0  0  0  0  0  0  0  0  0  0
  140.8663   80.7511  224.8544 H   0  0  0  0  0  0  0  0  0  0  0  0
  138.9811   79.9605  223.5202 H   0  0  0  0  0  0  0  0  0  0  0  0
  138.2243   79.1425  221.7281 H   0  0  0  0  0  0  0  0  0  0  0  0
  138.7543   80.2485  219.5888 H   0  0  0  0  0  0  0  0  0  0  0  0
  140.0382   79.1296  219.1972 H   0  0  0  0  0  0  0  0  0  0  0  0
  137.1244   78.8807  218.7515 H   0  0  0  0  0  0  0  0  0  0  0  0
  138.4191   77.8551  218.0886 H   0  0  0  0  0  0  0  0  0  0  0  0
  136.6958   77.4357  220.4792 H   0  0  0  0  0  0  0  0  0  0  0  0
  137.5649   76.2326  219.5548 H   0  0  0  0  0  0  0  0  0  0  0  0
  138.1964   74.5998  220.6691 H   0  0  0  0  0  0  0  0  0  0  0  0
  139.9820   74.6148  220.3618 H   0  0  0  0  0  0  0  0  0  0  0  0
  139.5800   74.1590  223.1840 H   0  0  0  0  0  0  0  0  0  0  0  0
  138.7489   69.8025  222.0291 H   0  0  0  0  0  0  0  0  0  0  0  0
  139.0811   68.2207  223.8798 H   0  0  0  0  0  0  0  0  0  0  0  0
  139.8435   67.7886  226.1434 H   0  0  0  0  0  0  0  0  0  0  0  0
  141.4947   71.0154  228.4114 H   0  0  0  0  0  0  0  0  0  0  0  0
  141.1330   72.5337  226.5264 H   0  0  0  0  0  0  0  0  0  0  0  0
  1  2  1  0
  2  3  1  0
  2  4  1  0
  4  5  2  0
  5  6  1  0
  6  7  2  0
  7  8  1  0
  8  9  2  0
  9 10  1  0
 10 11  1  0
 11 12  1  0
 12 13  1  0
 13 14  1  0
 14 15  1  0
 15 16  2  0
 15 17  1  0
 17 18  1  0
 18 19  1  0
 19 20  2  0
 19 21  1  0
 21 22  2  0
 22 23  1  0
 23 24  2  0
 24 25  1  0
 25 26  2  0
 26 27  1  0
 26 28  1  0
 28 29  2  0
 29 30  1  0
 30 31  2  0
  9  4  1  0
 14 10  1  0
 31 21  1  0
 30 24  1  0
  1 32  1  0
  1 33  1  0
  1 34  1  0
  3 35  1  0
  3 36  1  0
  3 37  1  0
  5 38  1  0
  6 39  1  0
  7 40  1  0
  8 41  1  0
 10 42  1  1
 11 43  1  0
 11 44  1  0
 12 45  1  0
 12 46  1  0
 13 47  1  0
 13 48  1  0
 17 49  1  0
 17 50  1  0
 18 51  1  0
 22 52  1  0
 23 53  1  0
 25 54  1  0
 28 55  1  0
 29 56  1  0
M  END
>  <smiles>  (22) 
CN(C)c1ccccc1[C@H]1CCCN1C(=O)CNC(=O)c1ccc2cc(Cl)ccc2n1

>  <score_type>  (22) 
oracle

>  <origin>  (22) 
autodockgpu

>  <m_score__min__energy>  (22) 
-8.7300000000000004

>  <m_primary>  (22) 
energy

>  <rmsd>  (22) 
10.237737332874588

>  <m_score__min__rmsd>  (22) 
10.237737332874588

>  <meeko>  (22) 
{"free_energy": -8.08, "intermolecular_energy": -9.87, "internal_energy": -2.2, "cluster_size": 40, "cluster_id": 1, "rank_in_cluster": 26}

>  <energy>  (22) 
-8.24

>  <cluster_rmsd>  (22) 
1.27

>  <cluster>  (22) 
1

$$$$

     RDKit          3D

 56 59  0  0  0  0  0  0  0  0999 V2000
  138.0580   79.3580  220.4570 C   0  0  0  0  0  0  0  0  0  0  0  0
  138.5870   79.0110  221.7520 N   0  0  0  0  0  0  0  0  0  0  0  0
  137.6950   78.3470  222.6830 C   0  0  0  0  0  0  0  0  0  0  0  0
  139.9080   79.2670  222.1850 C   0  0  0  0  0  0  0  0  0  0  0  0
  140.0280   80.0540  223.3370 C   0  0  0  0  0  0  0  0  0  0  0  0
  141.2540   80.3880  223.8590 C   0  0  0  0  0  0  0  0  0  0  0  0
  142.3700   79.9280  223.2210 C   0  0  0  0  0  0  0  0  0  0  0  0
  142.2470   79.1550  222.0900 C   0  0  0  0  0  0  0  0  0  0  0  0
  141.0440   78.7920  221.5260 C   0  0  0  0  0  0  0  0  0  0  0  0
  140.9110   78.0050  220.3160 C   0  0  1  0  0  0  0  0  0  0  0  0
  142.2070   77.8610  219.5460 C   0  0  0  0  0  0  0  0  0  0  0  0
  141.8800   76.7740  218.5570 C   0  0  0  0  0  0  0  0  0  0  0  0
  140.5590   76.1920  218.9590 C   0  0  0  0  0  0  0  0  0  0  0  0
  140.3970   76.6850  220.3660 N   0  0  0  0  0  0  0  0  0  0  0  0
  139.8020   75.8370  221.3080 C   0  0  0  0  0  0  0  0  0  0  0  0
  139.9360   76.2280  222.5400 O   0  0  0  0  0  0  0  0  0  0  0  0
  139.0680   74.5990  221.1250 C   0  0  0  0  0  0  0  0  0  0  0  0
  139.3120   73.6560  222.2330 N   0  0  0  0  0  0  0  0  0  0  0  0
  139.2330   72.2590  221.9890 C   0  0  0  0  0  0  0  0  0  0  0  0
  138.9650   71.7570  220.8680 O   0  0  0  0  0  0  0  0  0  0  0  0
  139.4800   71.3620  223.1130 C   0  0  0  0  0  0  0  0  0  0  0  0
  139.1480   70.0130  223.0410 C   0  0  0  0  0  0  0  0  0  0  0  0
  139.3650   69.1370  224.0780 C   0  0  0  0  0  0  0  0  0  0  0  0
  139.9310   69.5930  225.2420 C   0  0  0  0  0  0  0  0  0  0  0  0
  140.1670   68.7470  226.3110 C   0  0  0  0  0  0  0  0  0  0  0  0
  140.7360   69.2190  227.4750 C   0  0  0  0  0  0  0  0  0  0  0  0
  141.0250   68.1360  228.8070 Cl  0  0  0  0  0  0  0  0  0  0  0  0
  141.0580   70.5590  227.5260 C   0  0  0  0  0  0  0  0  0  0  0  0
  140.8200   71.3960  226.4580 C   0  0  0  0  0  0  0  0  0  0  0  0
  140.2530   70.9460  225.2870 C   0  0  0  0  0  0  0  0  0  0  0  0
  140.0330   71.7820  224.2650 N   0  0  0  0  0  0  0  0  0  0  0  0
  137.1443   79.9574  220.5828 H   0  0  0  0  0  0  0  0  0  0  0  0
  138.8056   79.9417  219.8999 H   0  0  0  0  0  0  0  0  0  0  0  0
  137.8204   78.4397  219.8999 H   0  0  0  0  0  0  0  0  0  0  0  0
  138.0035   78.5767  223.7136 H   0  0  0  0  0  0  0  0  0  0  0  0
  136.6662   78.7008  222.5208 H   0  0  0  0  0  0  0  0  0  0  0  0
  137.7388   77.2599  222.5208 H   0  0  0  0  0  0  0  0  0  0  0  0
  139.1168   80.4142  223.8370 H   0  0  0  0  0  0  0  0  0  0  0  0
  141.3342   81.0077  224.7642 H   0  0  0  0  0  0  0  0  0  0  0  0
  143.3680   80.1757  223.6117 H   0  0  0  0  0  0  0  0  0  0  0  0
  143.1694   78.8039  221.6043 H   0  0  0  0  0  0  0  0  0  0  0  0
  140.1455   78.6376  219.8429 H   0  0  0  0  0  0  0  0  0  0  0  0
  142.4712   78.7980  219.0338 H   0  0  0  0  0  0  0  0  0  0  0  0
  143.0722   77.6274  220.1839 H   0  0  0  0  0  0  0  0  0  0  0  0
  141.8135   77.1947  217.5428 H   0  0  0  0  0  0  0  0  0  0  0  0
  142.6625   76.0009  218.5535 H   0  0  0  0  0  0  0  0  0  0  0  0
  139.7492   76.5622  218.3131 H   0  0  0  0  0  0  0  0  0  0  0  0
  140.5201   75.0961  218.8729 H   0  0  0  0  0  0  0  0  0  0  0  0
  137.9924   74.8249  221.0784 H   0  0  0  0  0  0  0  0  0  0  0  0
  139.4108   74.1297  220.1911 H   0  0  0  0  0  0  0  0  0  0  0  0
  139.5400   74.0170  223.1920 H   0  0  0  0  0  0  0  0  0  0  0  0
  138.6927   69.6312  222.1153 H   0  0  0  0  0  0  0  0  0  0  0  0
  139.0868   68.0777  223.9754 H   0  0  0  0  0  0  0  0  0  0  0  0
  139.8971   67.6836  226.2313 H   0  0  0  0  0  0  0  0  0  0  0  0
  141.5147   70.9683  228.4392 H   0  0  0  0  0  0  0  0  0  0  0  0
  141.0919   72.4584  226.5437 H   0  0  0  0  0  0  0  0  0  0  0  0
  1  2  1  0
  2  3  1  0
  2  4  1  0
  4  5  2  0
  5  6  1  0
  6  7  2  0
  7  8  1  0
  8  9  2  0
  9 10  1  0
 10 11  1  0
 11 12  1  0
 12 13  1  0
 13 14  1  0
 14 15  1  0
 15 16  2  0
 15 17  1  0
 17 18  1  0
 18 19  1  0
 19 20  2  0
 19 21  1  0
 21 22  2  0
 22 23  1  0
 23 24  2  0
 24 25  1  0
 25 26  2  0
 26 27  1  0
 26 28  1  0
 28 29  2  0
 29 30  1  0
 30 31  2  0
  9  4  1  0
 14 10  1  0
 31 21  1  0
 30 24  1  0
  1 32  1  0
  1 33  1  0
  1 34  1  0
  3 35  1  0
  3 36  1  0
  3 37  1  0
  5 38  1  0
  6 39  1  0
  7 40  1  0
  8 41  1  0
 10 42  1  6
 11 43  1  0
 11 44  1  0
 12 45  1  0
 12 46  1  0
 13 47  1  0
 13 48  1  0
 17 49  1  0
 17 50  1  0
 18 51  1  0
 22 52  1  0
 23 53  1  0
 25 54  1  0
 28 55  1  0
 29 56  1  0
M  END
>  <smiles>  (23) 
CN(C)c1ccccc1[C@H]1CCCN1C(=O)CNC(=O)c1ccc2cc(Cl)ccc2n1

>  <score_type>  (23) 
oracle

>  <origin>  (23) 
autodockgpu

>  <m_score__min__energy>  (23) 
-8.7300000000000004

>  <m_primary>  (23) 
energy

>  <rmsd>  (23) 
10.201275695773568

>  <m_score__min__rmsd>  (23) 
10.201275695773568

>  <meeko>  (23) 
{"free_energy": -8.33, "intermolecular_energy": -10.12, "internal_energy": -2.24, "cluster_size": 40, "cluster_id": 1, "rank_in_cluster": 17}

>  <energy>  (23) 
-8.21

>  <cluster_rmsd>  (23) 
1.46

>  <cluster>  (23) 
1

$$$$

     RDKit          3D

 56 59  0  0  0  0  0  0  0  0999 V2000
  138.2440   77.7780  222.7390 C   0  0  0  0  0  0  0  0  0  0  0  0
  138.9310   78.9550  222.2680 N   0  0  0  0  0  0  0  0  0  0  0  0
  138.1830   79.8790  221.4370 C   0  0  0  0  0  0  0  0  0  0  0  0
  140.2770   79.2790  222.5530 C   0  0  0  0  0  0  0  0  0  0  0  0
  140.5160   79.8200  223.8230 C   0  0  0  0  0  0  0  0  0  0  0  0
  141.7760   80.1890  224.2250 C   0  0  0  0  0  0  0  0  0  0  0  0
  142.8070   80.0150  223.3460 C   0  0  0  0  0  0  0  0  0  0  0  0
  142.5680   79.4830  222.1000 C   0  0  0  0  0  0  0  0  0  0  0  0
  141.3250   79.0960  221.6490 C   0  0  0  0  0  0  0  0  0  0  0  0
  141.0650   78.5660  220.3250 C   0  0  1  0  0  0  0  0  0  0  0  0
  142.1070   78.9630  219.3010 C   0  0  0  0  0  0  0  0  0  0  0  0
  141.7930   78.0510  218.1450 C   0  0  0  0  0  0  0  0  0  0  0  0
  140.7990   77.0410  218.6340 C   0  0  0  0  0  0  0  0  0  0  0  0
  140.9050   77.1720  220.1240 N   0  0  0  0  0  0  0  0  0  0  0  0
  140.7960   76.0160  220.9070 C   0  0  0  0  0  0  0  0  0  0  0  0
  140.6760   76.2410  222.1810 O   0  0  0  0  0  0  0  0  0  0  0  0
  140.7980   74.6170  220.5210 C   0  0  0  0  0  0  0  0  0  0  0  0
  140.7150   73.7300  221.6970 N   0  0  0  0  0  0  0  0  0  0  0  0
  140.2500   72.3990  221.5330 C   0  0  0  0  0  0  0  0  0  0  0  0
  139.8970   71.9090  220.4310 O   0  0  0  0  0  0  0  0  0  0  0  0
  140.1820   71.5570  222.7230 C   0  0  0  0  0  0  0  0  0  0  0  0
  139.5830   70.3020  222.6810 C   0  0  0  0  0  0  0  0  0  0  0  0
  139.5000   69.4790  223.7800 C   0  0  0  0  0  0  0  0  0  0  0  0
  140.0230   69.8960  224.9780 C   0  0  0  0  0  0  0  0  0  0  0  0
  139.9610   69.1020  226.1090 C   0  0  0  0  0  0  0  0  0  0  0  0
  140.4910   69.5330  227.3070 C   0  0  0  0  0  0  0  0  0  0  0  0
  140.4020   68.5170  228.7170 Cl  0  0  0  0  0  0  0  0  0  0  0  0
  141.0800   70.7800  227.3270 C   0  0  0  0  0  0  0  0  0  0  0  0
  141.1380   71.5660  226.1980 C   0  0  0  0  0  0  0  0  0  0  0  0
  140.6150   71.1540  224.9920 C   0  0  0  0  0  0  0  0  0  0  0  0
  140.6860   71.9400  223.9100 N   0  0  0  0  0  0  0  0  0  0  0  0
  138.2401   77.7713  223.8390 H   0  0  0  0  0  0  0  0  0  0  0  0
  137.2082   77.7852  222.3687 H   0  0  0  0  0  0  0  0  0  0  0  0
  138.7596   76.8797  222.3687 H   0  0  0  0  0  0  0  0  0  0  0  0
  137.6201   80.5744  222.0769 H   0  0  0  0  0  0  0  0  0  0  0  0
  138.8789   80.4468  220.8019 H   0  0  0  0  0  0  0  0  0  0  0  0
  137.4828   79.3166  220.8019 H   0  0  0  0  0  0  0  0  0  0  0  0
  139.6723   79.9526  224.5162 H   0  0  0  0  0  0  0  0  0  0  0  0
  141.9500   80.6122  225.2253 H   0  0  0  0  0  0  0  0  0  0  0  0
  143.8293   80.3005  223.6347 H   0  0  0  0  0  0  0  0  0  0  0  0
  143.4240   79.3587  221.4204 H   0  0  0  0  0  0  0  0  0  0  0  0
  140.0763   79.0318  220.2004 H   0  0  0  0  0  0  0  0  0  0  0  0
  141.9999   80.0195  219.0141 H   0  0  0  0  0  0  0  0  0  0  0  0
  143.1399   78.8669  219.6669 H   0  0  0  0  0  0  0  0  0  0  0  0
  141.3640   78.6301  217.3139 H   0  0  0  0  0  0  0  0  0  0  0  0
  142.7048   77.5560  217.7795 H   0  0  0  0  0  0  0  0  0  0  0  0
  139.7839   77.2820  218.2855 H   0  0  0  0  0  0  0  0  0  0  0  0
  140.9956   76.0219  218.2695 H   0  0  0  0  0  0  0  0  0  0  0  0
  139.9341   74.4256  219.8676 H   0  0  0  0  0  0  0  0  0  0  0  0
  141.7414   74.4058  219.9961 H   0  0  0  0  0  0  0  0  0  0  0  0
  140.9970   74.0840  222.6450 H   0  0  0  0  0  0  0  0  0  0  0  0
  139.1577   69.9531  221.7284 H   0  0  0  0  0  0  0  0  0  0  0  0
  139.0178   68.4936  223.6990 H   0  0  0  0  0  0  0  0  0  0  0  0
  139.4824   68.1132  226.0520 H   0  0  0  0  0  0  0  0  0  0  0  0
  141.5132   71.1550  228.2660 H   0  0  0  0  0  0  0  0  0  0  0  0
  141.6171   72.5542  226.2610 H   0  0  0  0  0  0  0  0  0  0  0  0
  1  2  1  0
  2  3  1  0
  2  4  1  0
  4  5  2  0
  5  6  1  0
  6  7  2  0
  7  8  1  0
  8  9  2  0
  9 10  1  0
 10 11  1  0
 11 12  1  0
 12 13  1  0
 13 14  1  0
 14 15  1  0
 15 16  2  0
 15 17  1  0
 17 18  1  0
 18 19  1  0
 19 20  2  0
 19 21  1  0
 21 22  2  0
 22 23  1  0
 23 24  2  0
 24 25  1  0
 25 26  2  0
 26 27  1  0
 26 28  1  0
 28 29  2  0
 29 30  1  0
 30 31  2  0
  9  4  1  0
 14 10  1  0
 31 21  1  0
 30 24  1  0
  1 32  1  0
  1 33  1  0
  1 34  1  0
  3 35  1  0
  3 36  1  0
  3 37  1  0
  5 38  1  0
  6 39  1  0
  7 40  1  0
  8 41  1  0
 10 42  1  6
 11 43  1  0
 11 44  1  0
 12 45  1  0
 12 46  1  0
 13 47  1  0
 13 48  1  0
 17 49  1  0
 17 50  1  0
 18 51  1  0
 22 52  1  0
 23 53  1  0
 25 54  1  0
 28 55  1  0
 29 56  1  0
M  END
>  <smiles>  (24) 
CN(C)c1ccccc1[C@H]1CCCN1C(=O)CNC(=O)c1ccc2cc(Cl)ccc2n1

>  <score_type>  (24) 
oracle

>  <origin>  (24) 
autodockgpu

>  <m_score__min__energy>  (24) 
-8.7300000000000004

>  <m_primary>  (24) 
energy

>  <rmsd>  (24) 
10.191029616791443

>  <m_score__min__rmsd>  (24) 
10.191029616791443

>  <meeko>  (24) 
{"free_energy": -7.81, "intermolecular_energy": -9.6, "internal_energy": -2.38, "cluster_size": 40, "cluster_id": 1, "rank_in_cluster": 34}

>  <energy>  (24) 
-8.14

>  <cluster_rmsd>  (24) 
1.23

>  <cluster>  (24) 
1

$$$$

     RDKit          3D

 56 59  0  0  0  0  0  0  0  0999 V2000
  137.7710   80.0170  221.4190 C   0  0  0  0  0  0  0  0  0  0  0  0
  138.6080   79.1350  222.1920 N   0  0  0  0  0  0  0  0  0  0  0  0
  137.9910   77.9480  222.7520 C   0  0  0  0  0  0  0  0  0  0  0  0
  139.9830   79.3360  222.4470 C   0  0  0  0  0  0  0  0  0  0  0  0
  140.2910   79.9920  223.6460 C   0  0  0  0  0  0  0  0  0  0  0  0
  141.5870   80.2610  224.0100 C   0  0  0  0  0  0  0  0  0  0  0  0
  142.5850   79.8700  223.1650 C   0  0  0  0  0  0  0  0  0  0  0  0
  142.2790   79.2260  221.9890 C   0  0  0  0  0  0  0  0  0  0  0  0
  140.9980   78.9320  221.5770 C   0  0  0  0  0  0  0  0  0  0  0  0
  140.6710   78.2840  220.3230 C   0  0  1  0  0  0  0  0  0  0  0  0
  141.7660   78.3950  219.2830 C   0  0  0  0  0  0  0  0  0  0  0  0
  141.3290   77.4000  218.2410 C   0  0  0  0  0  0  0  0  0  0  0  0
  140.1950   76.6130  218.8270 C   0  0  0  0  0  0  0  0  0  0  0  0
  140.3100   76.9130  220.2910 N   0  0  0  0  0  0  0  0  0  0  0  0
  140.0280   75.8920  221.2070 C   0  0  0  0  0  0  0  0  0  0  0  0
  140.6570   76.0000  222.3390 O   0  0  0  0  0  0  0  0  0  0  0  0
  139.1530   74.7410  221.0900 C   0  0  0  0  0  0  0  0  0  0  0  0
  139.3630   73.7850  222.1940 N   0  0  0  0  0  0  0  0  0  0  0  0
  139.2530   72.3930  221.9410 C   0  0  0  0  0  0  0  0  0  0  0  0
  138.9850   71.9030  220.8140 O   0  0  0  0  0  0  0  0  0  0  0  0
  139.4660   71.4840  223.0620 C   0  0  0  0  0  0  0  0  0  0  0  0
  139.0680   70.1520  222.9920 C   0  0  0  0  0  0  0  0  0  0  0  0
  139.2510   69.2650  224.0270 C   0  0  0  0  0  0  0  0  0  0  0  0
  139.8510   69.6920  225.1860 C   0  0  0  0  0  0  0  0  0  0  0  0
  140.0550   68.8350  226.2520 C   0  0  0  0  0  0  0  0  0  0  0  0
  140.6580   69.2760  227.4110 C   0  0  0  0  0  0  0  0  0  0  0  0
  140.9060   68.1800  228.7390 Cl  0  0  0  0  0  0  0  0  0  0  0  0
  141.0460   70.5990  227.4580 C   0  0  0  0  0  0  0  0  0  0  0  0
  140.8390   71.4480  226.3940 C   0  0  0  0  0  0  0  0  0  0  0  0
  140.2390   71.0270  225.2280 C   0  0  0  0  0  0  0  0  0  0  0  0
  140.0500   71.8750  224.2090 N   0  0  0  0  0  0  0  0  0  0  0  0
  137.1750   80.6450  222.0975 H   0  0  0  0  0  0  0  0  0  0  0  0
  138.4010   80.6579  220.7847 H   0  0  0  0  0  0  0  0  0  0  0  0
  137.0980   79.4214  220.7847 H   0  0  0  0  0  0  0  0  0  0  0  0
  138.0197   78.0032  223.8502 H   0  0  0  0  0  0  0  0  0  0  0  0
  136.9457   77.8845  222.4153 H   0  0  0  0  0  0  0  0  0  0  0  0
  138.5396   77.0560  222.4153 H   0  0  0  0  0  0  0  0  0  0  0  0
  139.4726   80.2997  224.3135 H   0  0  0  0  0  0  0  0  0  0  0  0
  141.8145   80.7764  224.9548 H   0  0  0  0  0  0  0  0  0  0  0  0
  143.6350   80.0702  223.4248 H   0  0  0  0  0  0  0  0  0  0  0  0
  143.1112   78.9263  221.3351 H   0  0  0  0  0  0  0  0  0  0  0  0
  139.7618   78.8684  220.1186 H   0  0  0  0  0  0  0  0  0  0  0  0
  141.8160   79.4115  218.8656 H   0  0  0  0  0  0  0  0  0  0  0  0
  142.7716   78.1977  219.6828 H   0  0  0  0  0  0  0  0  0  0  0  0
  140.9940   77.9259  217.3348 H   0  0  0  0  0  0  0  0  0  0  0  0
  142.1609   76.7369  217.9613 H   0  0  0  0  0  0  0  0  0  0  0  0
  139.2280   76.9521  218.4270 H   0  0  0  0  0  0  0  0  0  0  0  0
  140.2430   75.5386  218.5958 H   0  0  0  0  0  0  0  0  0  0  0  0
  138.1079   75.0837  221.1084 H   0  0  0  0  0  0  0  0  0  0  0  0
  139.3819   74.2294  220.1435 H   0  0  0  0  0  0  0  0  0  0  0  0
  139.5890   74.1350  223.1580 H   0  0  0  0  0  0  0  0  0  0  0  0
  138.5868   69.7937  222.0700 H   0  0  0  0  0  0  0  0  0  0  0  0
  138.9191   68.2210  223.9271 H   0  0  0  0  0  0  0  0  0  0  0  0
  139.7316   67.7865  226.1742 H   0  0  0  0  0  0  0  0  0  0  0  0
  141.5319   70.9845  228.3664 H   0  0  0  0  0  0  0  0  0  0  0  0
  141.1631   72.4958  226.4779 H   0  0  0  0  0  0  0  0  0  0  0  0
  1  2  1  0
  2  3  1  0
  2  4  1  0
  4  5  2  0
  5  6  1  0
  6  7  2  0
  7  8  1  0
  8  9  2  0
  9 10  1  0
 10 11  1  0
 11 12  1  0
 12 13  1  0
 13 14  1  0
 14 15  1  0
 15 16  2  0
 15 17  1  0
 17 18  1  0
 18 19  1  0
 19 20  2  0
 19 21  1  0
 21 22  2  0
 22 23  1  0
 23 24  2  0
 24 25  1  0
 25 26  2  0
 26 27  1  0
 26 28  1  0
 28 29  2  0
 29 30  1  0
 30 31  2  0
  9  4  1  0
 14 10  1  0
 31 21  1  0
 30 24  1  0
  1 32  1  0
  1 33  1  0
  1 34  1  0
  3 35  1  0
  3 36  1  0
  3 37  1  0
  5 38  1  0
  6 39  1  0
  7 40  1  0
  8 41  1  0
 10 42  1  6
 11 43  1  0
 11 44  1  0
 12 45  1  0
 12 46  1  0
 13 47  1  0
 13 48  1  0
 17 49  1  0
 17 50  1  0
 18 51  1  0
 22 52  1  0
 23 53  1  0
 25 54  1  0
 28 55  1  0
 29 56  1  0
M  END
>  <smiles>  (25) 
CN(C)c1ccccc1[C@H]1CCCN1C(=O)CNC(=O)c1ccc2cc(Cl)ccc2n1

>  <score_type>  (25) 
oracle

>  <origin>  (25) 
autodockgpu

>  <m_score__min__energy>  (25) 
-8.7300000000000004

>  <m_primary>  (25) 
energy

>  <rmsd>  (25) 
10.198514900084254

>  <m_score__min__rmsd>  (25) 
10.198514900084254

>  <meeko>  (25) 
{"free_energy": -8.35, "intermolecular_energy": -10.14, "internal_energy": -2.34, "cluster_size": 40, "cluster_id": 1, "rank_in_cluster": 15}

>  <energy>  (25) 
-8.13

>  <cluster_rmsd>  (25) 
1.26

>  <cluster>  (25) 
1

$$$$

     RDKit          3D

 56 59  0  0  0  0  0  0  0  0999 V2000
  138.1870   77.5590  222.6650 C   0  0  0  0  0  0  0  0  0  0  0  0
  138.8040   78.8430  222.4500 N   0  0  0  0  0  0  0  0  0  0  0  0
  137.9460   79.9370  222.0350 C   0  0  0  0  0  0  0  0  0  0  0  0
  140.1800   79.1210  222.6130 C   0  0  0  0  0  0  0  0  0  0  0  0
  140.5560   79.6200  223.8660 C   0  0  0  0  0  0  0  0  0  0  0  0
  141.8590   79.9430  224.1540 C   0  0  0  0  0  0  0  0  0  0  0  0
  142.7950   79.7640  223.1770 C   0  0  0  0  0  0  0  0  0  0  0  0
  142.4220   79.2740  221.9470 C   0  0  0  0  0  0  0  0  0  0  0  0
  141.1310   78.9350  221.6070 C   0  0  0  0  0  0  0  0  0  0  0  0
  140.7290   78.4490  220.3020 C   0  0  1  0  0  0  0  0  0  0  0  0
  141.7300   78.7600  219.2090 C   0  0  0  0  0  0  0  0  0  0  0  0
  141.2510   77.8970  218.0720 C   0  0  0  0  0  0  0  0  0  0  0  0
  140.2030   76.9790  218.6240 C   0  0  0  0  0  0  0  0  0  0  0  0
  140.4250   77.0790  220.1040 N   0  0  0  0  0  0  0  0  0  0  0  0
  140.2610   75.9280  220.8850 C   0  0  0  0  0  0  0  0  0  0  0  0
  140.9210   75.9420  222.0040 O   0  0  0  0  0  0  0  0  0  0  0  0
  139.4800   74.7300  220.6390 C   0  0  0  0  0  0  0  0  0  0  0  0
  139.5070   73.8190  221.7990 N   0  0  0  0  0  0  0  0  0  0  0  0
  139.9890   72.4940  221.6310 C   0  0  0  0  0  0  0  0  0  0  0  0
  140.4070   72.0310  220.5400 O   0  0  0  0  0  0  0  0  0  0  0  0
  139.9960   71.6250  222.8040 C   0  0  0  0  0  0  0  0  0  0  0  0
  139.4360   70.3520  222.7570 C   0  0  0  0  0  0  0  0  0  0  0  0
  139.4240   69.5040  223.8400 C   0  0  0  0  0  0  0  0  0  0  0  0
  139.9820   69.9130  225.0260 C   0  0  0  0  0  0  0  0  0  0  0  0
  139.9920   69.0940  226.1400 C   0  0  0  0  0  0  0  0  0  0  0  0
  140.5560   69.5170  227.3260 C   0  0  0  0  0  0  0  0  0  0  0  0
  140.5570   68.4690  228.7150 Cl  0  0  0  0  0  0  0  0  0  0  0  0
  141.1050   70.7820  227.3500 C   0  0  0  0  0  0  0  0  0  0  0  0
  141.0920   71.5930  226.2370 C   0  0  0  0  0  0  0  0  0  0  0  0
  140.5340   71.1900  225.0440 C   0  0  0  0  0  0  0  0  0  0  0  0
  140.5360   72.0000  223.9780 N   0  0  0  0  0  0  0  0  0  0  0  0
  138.0970   77.3717  223.7452 H   0  0  0  0  0  0  0  0  0  0  0  0
  137.1869   77.5515  222.2070 H   0  0  0  0  0  0  0  0  0  0  0  0
  138.8060   76.7735  222.2070 H   0  0  0  0  0  0  0  0  0  0  0  0
  137.5461   80.4469  222.9239 H   0  0  0  0  0  0  0  0  0  0  0  0
  138.5274   80.6510  221.4332 H   0  0  0  0  0  0  0  0  0  0  0  0
  137.1140   79.5425  221.4332 H   0  0  0  0  0  0  0  0  0  0  0  0
  139.7869   79.7569  224.6404 H   0  0  0  0  0  0  0  0  0  0  0  0
  142.1402   80.3344  225.1428 H   0  0  0  0  0  0  0  0  0  0  0  0
  143.8486   80.0118  223.3733 H   0  0  0  0  0  0  0  0  0  0  0  0
  143.2054   79.1445  221.1857 H   0  0  0  0  0  0  0  0  0  0  0  0
  139.7820   79.0063  220.2511 H   0  0  0  0  0  0  0  0  0  0  0  0
  141.7036   79.8256  218.9375 H   0  0  0  0  0  0  0  0  0  0  0  0
  142.7722   78.5624  219.5002 H   0  0  0  0  0  0  0  0  0  0  0  0
  140.8216   78.5247  217.2773 H   0  0  0  0  0  0  0  0  0  0  0  0
  142.0839   77.3235  217.6391 H   0  0  0  0  0  0  0  0  0  0  0  0
  139.1934   77.3192  218.3503 H   0  0  0  0  0  0  0  0  0  0  0  0
  140.2763   75.9509  218.2397 H   0  0  0  0  0  0  0  0  0  0  0  0
  138.4382   75.0182  220.4351 H   0  0  0  0  0  0  0  0  0  0  0  0
  139.9169   74.2043  219.7772 H   0  0  0  0  0  0  0  0  0  0  0  0
  139.1700   74.1490  222.7370 H   0  0  0  0  0  0  0  0  0  0  0  0
  138.9841   70.0095  221.8144 H   0  0  0  0  0  0  0  0  0  0  0  0
  138.9706   68.5053  223.7565 H   0  0  0  0  0  0  0  0  0  0  0  0
  139.5440   68.0912  226.0798 H   0  0  0  0  0  0  0  0  0  0  0  0
  141.5636   71.1515  228.2791 H   0  0  0  0  0  0  0  0  0  0  0  0
  141.5417   72.5947  226.3029 H   0  0  0  0  0  0  0  0  0  0  0  0
  1  2  1  0
  2  3  1  0
  2  4  1  0
  4  5  2  0
  5  6  1  0
  6  7  2  0
  7  8  1  0
  8  9  2  0
  9 10  1  0
 10 11  1  0
 11 12  1  0
 12 13  1  0
 13 14  1  0
 14 15  1  0
 15 16  2  0
 15 17  1  0
 17 18  1  0
 18 19  1  0
 19 20  2  0
 19 21  1  0
 21 22  2  0
 22 23  1  0
 23 24  2  0
 24 25  1  0
 25 26  2  0
 26 27  1  0
 26 28  1  0
 28 29  2  0
 29 30  1  0
 30 31  2  0
  9  4  1  0
 14 10  1  0
 31 21  1  0
 30 24  1  0
  1 32  1  0
  1 33  1  0
  1 34  1  0
  3 35  1  0
  3 36  1  0
  3 37  1  0
  5 38  1  0
  6 39  1  0
  7 40  1  0
  8 41  1  0
 10 42  1  6
 11 43  1  0
 11 44  1  0
 12 45  1  0
 12 46  1  0
 13 47  1  0
 13 48  1  0
 17 49  1  0
 17 50  1  0
 18 51  1  0
 22 52  1  0
 23 53  1  0
 25 54  1  0
 28 55  1  0
 29 56  1  0
M  END
>  <smiles>  (26) 
CN(C)c1ccccc1[C@H]1CCCN1C(=O)CNC(=O)c1ccc2cc(Cl)ccc2n1

>  <score_type>  (26) 
oracle

>  <origin>  (26) 
autodockgpu

>  <m_score__min__energy>  (26) 
-8.7300000000000004

>  <m_primary>  (26) 
energy

>  <rmsd>  (26) 
10.090881665286977

>  <m_score__min__rmsd>  (26) 
10.090881665286977

>  <meeko>  (26) 
{"free_energy": -8.41, "intermolecular_energy": -10.2, "internal_energy": -1.88, "cluster_size": 40, "cluster_id": 1, "rank_in_cluster": 9}

>  <energy>  (26) 
-8.08

>  <cluster_rmsd>  (26) 
1.27

>  <cluster>  (26) 
1

$$$$

     RDKit          3D

 56 59  0  0  0  0  0  0  0  0999 V2000
  138.5780   72.3200  222.4730 C   0  0  0  0  0  0  0  0  0  0  0  0
  139.7570   71.7130  223.0390 N   0  0  0  0  0  0  0  0  0  0  0  0
  141.0140   71.9170  222.3440 C   0  0  0  0  0  0  0  0  0  0  0  0
  139.7840   70.9370  224.2190 C   0  0  0  0  0  0  0  0  0  0  0  0
  140.4270   71.5220  225.3180 C   0  0  0  0  0  0  0  0  0  0  0  0
  140.5340   70.8710  226.5220 C   0  0  0  0  0  0  0  0  0  0  0  0
  139.9940   69.6220  226.6270 C   0  0  0  0  0  0  0  0  0  0  0  0
  139.3630   69.0510  225.5460 C   0  0  0  0  0  0  0  0  0  0  0  0
  139.2280   69.6600  224.3180 C   0  0  0  0  0  0  0  0  0  0  0  0
  138.5930   69.0480  223.1680 C   0  0  1  0  0  0  0  0  0  0  0  0
  138.7830   67.5470  223.1020 C   0  0  0  0  0  0  0  0  0  0  0  0
  137.7930   67.1380  222.0440 C   0  0  0  0  0  0  0  0  0  0  0  0
  136.9370   68.3340  221.7520 C   0  0  0  0  0  0  0  0  0  0  0  0
  137.2070   69.2260  222.9270 N   0  0  0  0  0  0  0  0  0  0  0  0
  136.1530   69.9860  223.4480 C   0  0  0  0  0  0  0  0  0  0  0  0
  135.9110   71.0840  222.7960 O   0  0  0  0  0  0  0  0  0  0  0  0
  135.2960   69.7420  224.5930 C   0  0  0  0  0  0  0  0  0  0  0  0
  134.6610   70.9850  225.0690 N   0  0  0  0  0  0  0  0  0  0  0  0
  133.7960   70.9390  226.1940 C   0  0  0  0  0  0  0  0  0  0  0  0
  133.5270   69.8880  226.8300 O   0  0  0  0  0  0  0  0  0  0  0  0
  133.1870   72.1910  226.6290 C   0  0  0  0  0  0  0  0  0  0  0  0
  131.9540   72.2040  227.2730 C   0  0  0  0  0  0  0  0  0  0  0  0
  131.3480   73.3630  227.6990 C   0  0  0  0  0  0  0  0  0  0  0  0
  131.9710   74.5680  227.4880 C   0  0  0  0  0  0  0  0  0  0  0  0
  131.3980   75.7590  227.8990 C   0  0  0  0  0  0  0  0  0  0  0  0
  132.0340   76.9630  227.6810 C   0  0  0  0  0  0  0  0  0  0  0  0
  131.2950   78.4480  228.2070 Cl  0  0  0  0  0  0  0  0  0  0  0  0
  133.2560   76.9280  227.0420 C   0  0  0  0  0  0  0  0  0  0  0  0
  133.8200   75.7390  226.6350 C   0  0  0  0  0  0  0  0  0  0  0  0
  133.2020   74.5260  226.8430 C   0  0  0  0  0  0  0  0  0  0  0  0
  133.7740   73.3860  226.4360 N   0  0  0  0  0  0  0  0  0  0  0  0
  137.9162   72.6607  223.2829 H   0  0  0  0  0  0  0  0  0  0  0  0
  138.8703   73.1797  221.8521 H   0  0  0  0  0  0  0  0  0  0  0  0
  138.0480   71.5827  221.8521 H   0  0  0  0  0  0  0  0  0  0  0  0
  141.8221   72.0481  223.0787 H   0  0  0  0  0  0  0  0  0  0  0  0
  141.2304   71.0422  221.7132 H   0  0  0  0  0  0  0  0  0  0  0  0
  140.9426   72.8153  221.7132 H   0  0  0  0  0  0  0  0  0  0  0  0
  140.8572   72.5290  225.2133 H   0  0  0  0  0  0  0  0  0  0  0  0
  141.0403   71.3424  227.3772 H   0  0  0  0  0  0  0  0  0  0  0  0
  140.0633   69.0714  227.5767 H   0  0  0  0  0  0  0  0  0  0  0  0
  138.9392   68.0436  225.6704 H   0  0  0  0  0  0  0  0  0  0  0  0
  139.1354   69.6291  222.4077 H   0  0  0  0  0  0  0  0  0  0  0  0
  139.8105   67.2893  222.8055 H   0  0  0  0  0  0  0  0  0  0  0  0
  138.6261   67.0428  224.0670 H   0  0  0  0  0  0  0  0  0  0  0  0
  138.3233   66.8227  221.1333 H   0  0  0  0  0  0  0  0  0  0  0  0
  137.1790   66.2932  222.3894 H   0  0  0  0  0  0  0  0  0  0  0  0
  137.2373   68.8165  220.8102 H   0  0  0  0  0  0  0  0  0  0  0  0
  135.8722   68.0888  221.6251 H   0  0  0  0  0  0  0  0  0  0  0  0
  134.5109   69.0271  224.3056 H   0  0  0  0  0  0  0  0  0  0  0  0
  135.9155   69.3379  225.4072 H   0  0  0  0  0  0  0  0  0  0  0  0
  134.8470   71.8940  224.5770 H   0  0  0  0  0  0  0  0  0  0  0  0
  131.4418   71.2466  227.4490 H   0  0  0  0  0  0  0  0  0  0  0  0
  130.3719   73.3246  228.2048 H   0  0  0  0  0  0  0  0  0  0  0  0
  130.4221   75.7449  228.4064 H   0  0  0  0  0  0  0  0  0  0  0  0
  133.7917   77.8700  226.8534 H   0  0  0  0  0  0  0  0  0  0  0  0
  134.7957   75.7590  226.1274 H   0  0  0  0  0  0  0  0  0  0  0  0
  1  2  1  0
  2  3  1  0
  2  4  1  0
  4  5  2  0
  5  6  1  0
  6  7  2  0
  7  8  1  0
  8  9  2  0
  9 10  1  0
 10 11  1  0
 11 12  1  0
 12 13  1  0
 13 14  1  0
 14 15  1  0
 15 16  2  0
 15 17  1  0
 17 18  1  0
 18 19  1  0
 19 20  2  0
 19 21  1  0
 21 22  2  0
 22 23  1  0
 23 24  2  0
 24 25  1  0
 25 26  2  0
 26 27  1  0
 26 28  1  0
 28 29  2  0
 29 30  1  0
 30 31  2  0
  9  4  1  0
 14 10  1  0
 31 21  1  0
 30 24  1  0
  1 32  1  0
  1 33  1  0
  1 34  1  0
  3 35  1  0
  3 36  1  0
  3 37  1  0
  5 38  1  0
  6 39  1  0
  7 40  1  0
  8 41  1  0
 10 42  1  6
 11 43  1  0
 11 44  1  0
 12 45  1  0
 12 46  1  0
 13 47  1  0
 13 48  1  0
 17 49  1  0
 17 50  1  0
 18 51  1  0
 22 52  1  0
 23 53  1  0
 25 54  1  0
 28 55  1  0
 29 56  1  0
M  END
>  <smiles>  (27) 
CN(C)c1ccccc1[C@H]1CCCN1C(=O)CNC(=O)c1ccc2cc(Cl)ccc2n1

>  <score_type>  (27) 
oracle

>  <origin>  (27) 
autodockgpu

>  <m_score__min__energy>  (27) 
-8.7300000000000004

>  <m_primary>  (27) 
energy

>  <rmsd>  (27) 
8.046806269072212

>  <m_score__min__rmsd>  (27) 
8.046806269072212

>  <meeko>  (27) 
{"free_energy": -7.61, "intermolecular_energy": -9.4, "internal_energy": -2.33, "cluster_size": 1, "cluster_id": 5, "rank_in_cluster": 1}

>  <energy>  (27) 
-7.96

>  <cluster_rmsd>  (27) 
1.35

>  <cluster>  (27) 
1

$$$$

     RDKit          3D

 56 59  0  0  0  0  0  0  0  0999 V2000
  138.2620   79.2570  220.3210 C   0  0  0  0  0  0  0  0  0  0  0  0
  138.7400   78.9210  221.6380 N   0  0  0  0  0  0  0  0  0  0  0  0
  137.8130   78.2630  222.5390 C   0  0  0  0  0  0  0  0  0  0  0  0
  140.0430   79.1810  222.1210 C   0  0  0  0  0  0  0  0  0  0  0  0
  140.1200   80.0130  223.2450 C   0  0  0  0  0  0  0  0  0  0  0  0
  141.3240   80.3560  223.8090 C   0  0  0  0  0  0  0  0  0  0  0  0
  142.4620   79.8600  223.2410 C   0  0  0  0  0  0  0  0  0  0  0  0
  142.3820   79.0440  222.1370 C   0  0  0  0  0  0  0  0  0  0  0  0
  141.2020   78.6700  221.5340 C   0  0  0  0  0  0  0  0  0  0  0  0
  141.1160   77.8370  220.3510 C   0  0  1  0  0  0  0  0  0  0  0  0
  142.4480   77.6320  219.6600 C   0  0  0  0  0  0  0  0  0  0  0  0
  142.1480   76.5120  218.6990 C   0  0  0  0  0  0  0  0  0  0  0  0
  140.7930   75.9760  219.0510 C   0  0  0  0  0  0  0  0  0  0  0  0
  140.5680   76.5310  220.4260 N   0  0  0  0  0  0  0  0  0  0  0  0
  139.9020   75.7370  221.3670 C   0  0  0  0  0  0  0  0  0  0  0  0
  139.9710   76.1810  222.5870 O   0  0  0  0  0  0  0  0  0  0  0  0
  139.1550   74.5040  221.1960 C   0  0  0  0  0  0  0  0  0  0  0  0
  139.3770   73.5750  222.3200 N   0  0  0  0  0  0  0  0  0  0  0  0
  139.3840   72.1770  222.0770 C   0  0  0  0  0  0  0  0  0  0  0  0
  139.2110   71.6610  220.9430 O   0  0  0  0  0  0  0  0  0  0  0  0
  139.6050   71.2940  223.2170 C   0  0  0  0  0  0  0  0  0  0  0  0
  139.2790   69.9430  223.1530 C   0  0  0  0  0  0  0  0  0  0  0  0
  139.4730   69.0790  224.2060 C   0  0  0  0  0  0  0  0  0  0  0  0
  140.0090   69.5520  225.3780 C   0  0  0  0  0  0  0  0  0  0  0  0
  140.2200   68.7200  226.4630 C   0  0  0  0  0  0  0  0  0  0  0  0
  140.7590   69.2070  227.6350 C   0  0  0  0  0  0  0  0  0  0  0  0
  141.0170   68.1410  228.9860 Cl  0  0  0  0  0  0  0  0  0  0  0  0
  141.0750   70.5490  227.6770 C   0  0  0  0  0  0  0  0  0  0  0  0
  140.8610   71.3720  226.5940 C   0  0  0  0  0  0  0  0  0  0  0  0
  140.3250   70.9060  225.4150 C   0  0  0  0  0  0  0  0  0  0  0  0
  140.1280   71.7300  224.3780 N   0  0  0  0  0  0  0  0  0  0  0  0
  137.3648   79.8877  220.4064 H   0  0  0  0  0  0  0  0  0  0  0  0
  139.0446   79.8047  219.7755 H   0  0  0  0  0  0  0  0  0  0  0  0
  138.0116   78.3352  219.7755 H   0  0  0  0  0  0  0  0  0  0  0  0
  138.1040   78.4695  223.5795 H   0  0  0  0  0  0  0  0  0  0  0  0
  136.7962   78.6426  222.3604 H   0  0  0  0  0  0  0  0  0  0  0  0
  137.8359   77.1778  222.3604 H   0  0  0  0  0  0  0  0  0  0  0  0
  139.1912   80.4020  223.6877 H   0  0  0  0  0  0  0  0  0  0  0  0
  141.3702   81.0106  224.6918 H   0  0  0  0  0  0  0  0  0  0  0  0
  143.4441   80.1133  223.6669 H   0  0  0  0  0  0  0  0  0  0  0  0
  143.3215   78.6656  221.7079 H   0  0  0  0  0  0  0  0  0  0  0  0
  140.3935   78.4667  219.8111 H   0  0  0  0  0  0  0  0  0  0  0  0
  142.7626   78.5406  219.1257 H   0  0  0  0  0  0  0  0  0  0  0  0
  143.2714   77.4059  220.3535 H   0  0  0  0  0  0  0  0  0  0  0  0
  142.1464   76.8917  217.6666 H   0  0  0  0  0  0  0  0  0  0  0  0
  142.9105   75.7223  218.7699 H   0  0  0  0  0  0  0  0  0  0  0  0
  140.0283   76.3367  218.3473 H   0  0  0  0  0  0  0  0  0  0  0  0
  140.7320   74.8786  219.0070 H   0  0  0  0  0  0  0  0  0  0  0  0
  138.0827   74.7416  221.1356 H   0  0  0  0  0  0  0  0  0  0  0  0
  139.5017   74.0166  220.2728 H   0  0  0  0  0  0  0  0  0  0  0  0
  139.5280   73.9480  223.2900 H   0  0  0  0  0  0  0  0  0  0  0  0
  138.8478   69.5489  222.2209 H   0  0  0  0  0  0  0  0  0  0  0  0
  139.2008   68.0176  224.1095 H   0  0  0  0  0  0  0  0  0  0  0  0
  139.9541   67.6551  226.3897 H   0  0  0  0  0  0  0  0  0  0  0  0
  141.5076   70.9711  228.5961 H   0  0  0  0  0  0  0  0  0  0  0  0
  141.1270   72.4364  226.6736 H   0  0  0  0  0  0  0  0  0  0  0  0
  1  2  1  0
  2  3  1  0
  2  4  1  0
  4  5  2  0
  5  6  1  0
  6  7  2  0
  7  8  1  0
  8  9  2  0
  9 10  1  0
 10 11  1  0
 11 12  1  0
 12 13  1  0
 13 14  1  0
 14 15  1  0
 15 16  2  0
 15 17  1  0
 17 18  1  0
 18 19  1  0
 19 20  2  0
 19 21  1  0
 21 22  2  0
 22 23  1  0
 23 24  2  0
 24 25  1  0
 25 26  2  0
 26 27  1  0
 26 28  1  0
 28 29  2  0
 29 30  1  0
 30 31  2  0
  9  4  1  0
 14 10  1  0
 31 21  1  0
 30 24  1  0
  1 32  1  0
  1 33  1  0
  1 34  1  0
  3 35  1  0
  3 36  1  0
  3 37  1  0
  5 38  1  0
  6 39  1  0
  7 40  1  0
  8 41  1  0
 10 42  1  6
 11 43  1  0
 11 44  1  0
 12 45  1  0
 12 46  1  0
 13 47  1  0
 13 48  1  0
 17 49  1  0
 17 50  1  0
 18 51  1  0
 22 52  1  0
 23 53  1  0
 25 54  1  0
 28 55  1  0
 29 56  1  0
M  END
>  <smiles>  (28) 
CN(C)c1ccccc1[C@H]1CCCN1C(=O)CNC(=O)c1ccc2cc(Cl)ccc2n1

>  <score_type>  (28) 
oracle

>  <origin>  (28) 
autodockgpu

>  <m_score__min__energy>  (28) 
-8.7300000000000004

>  <m_primary>  (28) 
energy

>  <rmsd>  (28) 
10.198337907070645

>  <m_score__min__rmsd>  (28) 
10.198337907070645

>  <meeko>  (28) 
{"free_energy": -8.33, "intermolecular_energy": -10.12, "internal_energy": -2.19, "cluster_size": 40, "cluster_id": 1, "rank_in_cluster": 18}

>  <energy>  (28) 
-7.88

>  <cluster_rmsd>  (28) 
1.45

>  <cluster>  (28) 
1

$$$$

     RDKit          3D

 56 59  0  0  0  0  0  0  0  0999 V2000
  137.9100   77.7750  222.7100 C   0  0  0  0  0  0  0  0  0  0  0  0
  138.6180   79.0000  222.4340 N   0  0  0  0  0  0  0  0  0  0  0  0
  137.8370   80.1390  221.9900 C   0  0  0  0  0  0  0  0  0  0  0  0
  140.0140   79.1790  222.5650 C   0  0  0  0  0  0  0  0  0  0  0  0
  140.4410   79.7780  223.7560 C   0  0  0  0  0  0  0  0  0  0  0  0
  141.7690   80.0210  224.0070 C   0  0  0  0  0  0  0  0  0  0  0  0
  142.6780   79.6600  223.0540 C   0  0  0  0  0  0  0  0  0  0  0  0
  142.2540   79.0710  221.8850 C   0  0  0  0  0  0  0  0  0  0  0  0
  140.9360   78.8060  221.5860 C   0  0  0  0  0  0  0  0  0  0  0  0
  140.4830   78.2160  220.3410 C   0  0  1  0  0  0  0  0  0  0  0  0
  141.4620   78.3940  219.1990 C   0  0  0  0  0  0  0  0  0  0  0  0
  140.9250   77.4460  218.1590 C   0  0  0  0  0  0  0  0  0  0  0  0
  139.8660   76.6170  218.8200 C   0  0  0  0  0  0  0  0  0  0  0  0
  140.1320   76.8440  220.2780 N   0  0  0  0  0  0  0  0  0  0  0  0
  139.9560   75.7760  221.1650 C   0  0  0  0  0  0  0  0  0  0  0  0
  140.6730   75.8540  222.2470 O   0  0  0  0  0  0  0  0  0  0  0  0
  139.1080   74.6020  221.0660 C   0  0  0  0  0  0  0  0  0  0  0  0
  139.3500   73.6630  222.1770 N   0  0  0  0  0  0  0  0  0  0  0  0
  139.1740   72.2700  221.9620 C   0  0  0  0  0  0  0  0  0  0  0  0
  138.8190   71.7690  220.8650 O   0  0  0  0  0  0  0  0  0  0  0  0
  139.4220   71.3770  223.0890 C   0  0  0  0  0  0  0  0  0  0  0  0
  139.0680   70.0330  223.0300 C   0  0  0  0  0  0  0  0  0  0  0  0
  139.2860   69.1590  224.0700 C   0  0  0  0  0  0  0  0  0  0  0  0
  139.8750   69.6140  225.2230 C   0  0  0  0  0  0  0  0  0  0  0  0
  140.1130   68.7720  226.2940 C   0  0  0  0  0  0  0  0  0  0  0  0
  140.7060   69.2420  227.4470 C   0  0  0  0  0  0  0  0  0  0  0  0
  140.9960   68.1630  228.7820 Cl  0  0  0  0  0  0  0  0  0  0  0  0
  141.0500   70.5770  227.4840 C   0  0  0  0  0  0  0  0  0  0  0  0
  140.8100   71.4110  226.4140 C   0  0  0  0  0  0  0  0  0  0  0  0
  140.2190   70.9620  225.2550 C   0  0  0  0  0  0  0  0  0  0  0  0
  139.9980   71.7950  224.2300 N   0  0  0  0  0  0  0  0  0  0  0  0
  137.8293   77.6353  223.7981 H   0  0  0  0  0  0  0  0  0  0  0  0
  136.9026   77.8269  222.2713 H   0  0  0  0  0  0  0  0  0  0  0  0
  138.4579   76.9280  222.2713 H   0  0  0  0  0  0  0  0  0  0  0  0
  137.4601   80.6887  222.8651 H   0  0  0  0  0  0  0  0  0  0  0  0
  138.4701   80.8039  221.3841 H   0  0  0  0  0  0  0  0  0  0  0  0
  136.9886   79.7881  221.3841 H   0  0  0  0  0  0  0  0  0  0  0  0
  139.6928   80.0616  224.5109 H   0  0  0  0  0  0  0  0  0  0  0  0
  142.0909   80.4922  224.9474 H   0  0  0  0  0  0  0  0  0  0  0  0
  143.7502   79.8403  223.2210 H   0  0  0  0  0  0  0  0  0  0  0  0
  143.0163   78.7941  221.1419 H   0  0  0  0  0  0  0  0  0  0  0  0
  139.5521   78.7966  220.2624 H   0  0  0  0  0  0  0  0  0  0  0  0
  141.4595   79.4307  218.8311 H   0  0  0  0  0  0  0  0  0  0  0  0
  142.5058   78.1909  219.4804 H   0  0  0  0  0  0  0  0  0  0  0  0
  140.4922   78.0118  217.3208 H   0  0  0  0  0  0  0  0  0  0  0  0
  141.7277   76.8085  217.7600 H   0  0  0  0  0  0  0  0  0  0  0  0
  138.8598   76.9635  218.5417 H   0  0  0  0  0  0  0  0  0  0  0  0
  139.8979   75.5563  218.5304 H   0  0  0  0  0  0  0  0  0  0  0  0
  138.0550   74.9191  221.0894 H   0  0  0  0  0  0  0  0  0  0  0  0
  139.3419   74.0869  220.1226 H   0  0  0  0  0  0  0  0  0  0  0  0
  139.6490   74.0230  223.1170 H   0  0  0  0  0  0  0  0  0  0  0  0
  138.5937   69.6529  222.1131 H   0  0  0  0  0  0  0  0  0  0  0  0
  138.9904   68.1035  223.9780 H   0  0  0  0  0  0  0  0  0  0  0  0
  139.8253   67.7125  226.2252 H   0  0  0  0  0  0  0  0  0  0  0  0
  141.5265   70.9849  228.3877 H   0  0  0  0  0  0  0  0  0  0  0  0
  141.1000   72.4695  226.4884 H   0  0  0  0  0  0  0  0  0  0  0  0
  1  2  1  0
  2  3  1  0
  2  4  1  0
  4  5  2  0
  5  6  1  0
  6  7  2  0
  7  8  1  0
  8  9  2  0
  9 10  1  0
 10 11  1  0
 11 12  1  0
 12 13  1  0
 13 14  1  0
 14 15  1  0
 15 16  2  0
 15 17  1  0
 17 18  1  0
 18 19  1  0
 19 20  2  0
 19 21  1  0
 21 22  2  0
 22 23  1  0
 23 24  2  0
 24 25  1  0
 25 26  2  0
 26 27  1  0
 26 28  1  0
 28 29  2  0
 29 30  1  0
 30 31  2  0
  9  4  1  0
 14 10  1  0
 31 21  1  0
 30 24  1  0
  1 32  1  0
  1 33  1  0
  1 34  1  0
  3 35  1  0
  3 36  1  0
  3 37  1  0
  5 38  1  0
  6 39  1  0
  7 40  1  0
  8 41  1  0
 10 42  1  6
 11 43  1  0
 11 44  1  0
 12 45  1  0
 12 46  1  0
 13 47  1  0
 13 48  1  0
 17 49  1  0
 17 50  1  0
 18 51  1  0
 22 52  1  0
 23 53  1  0
 25 54  1  0
 28 55  1  0
 29 56  1  0
M  END
>  <smiles>  (29) 
CN(C)c1ccccc1[C@H]1CCCN1C(=O)CNC(=O)c1ccc2cc(Cl)ccc2n1

>  <score_type>  (29) 
oracle

>  <origin>  (29) 
autodockgpu

>  <m_score__min__energy>  (29) 
-8.7300000000000004

>  <m_primary>  (29) 
energy

>  <rmsd>  (29) 
10.16922056749802

>  <m_score__min__rmsd>  (29) 
10.16922056749802

>  <meeko>  (29) 
{"free_energy": -8.28, "intermolecular_energy": -10.07, "internal_energy": -2.38, "cluster_size": 40, "cluster_id": 1, "rank_in_cluster": 21}

>  <energy>  (29) 
-7.86

>  <cluster_rmsd>  (29) 
1.34

>  <cluster>  (29) 
1

$$$$

     RDKit          3D

 56 59  0  0  0  0  0  0  0  0999 V2000
  137.6610   79.2850  221.6850 C   0  0  0  0  0  0  0  0  0  0  0  0
  138.6600   78.4560  222.3110 N   0  0  0  0  0  0  0  0  0  0  0  0
  138.2640   77.1220  222.7180 C   0  0  0  0  0  0  0  0  0  0  0  0
  139.9970   78.8420  222.5590 C   0  0  0  0  0  0  0  0  0  0  0  0
  140.2480   79.3930  223.8220 C   0  0  0  0  0  0  0  0  0  0  0  0
  141.5000   79.8200  224.1880 C   0  0  0  0  0  0  0  0  0  0  0  0
  142.5120   79.6940  223.2810 C   0  0  0  0  0  0  0  0  0  0  0  0
  142.2620   79.1520  222.0410 C   0  0  0  0  0  0  0  0  0  0  0  0
  141.0260   78.7090  221.6240 C   0  0  0  0  0  0  0  0  0  0  0  0
  140.7530   78.1680  220.3080 C   0  0  1  0  0  0  0  0  0  0  0  0
  141.7720   78.5770  219.2650 C   0  0  0  0  0  0  0  0  0  0  0  0
  141.4540   77.6540  218.1180 C   0  0  0  0  0  0  0  0  0  0  0  0
  140.4840   76.6310  218.6290 C   0  0  0  0  0  0  0  0  0  0  0  0
  140.6120   76.7700  220.1160 N   0  0  0  0  0  0  0  0  0  0  0  0
  140.5340   75.6170  220.9060 C   0  0  0  0  0  0  0  0  0  0  0  0
  141.4200   75.5570  221.8550 O   0  0  0  0  0  0  0  0  0  0  0  0
  139.6280   74.4860  220.8290 C   0  0  0  0  0  0  0  0  0  0  0  0
  139.8380   73.5460  221.9460 N   0  0  0  0  0  0  0  0  0  0  0  0
  139.1250   72.3190  221.9670 C   0  0  0  0  0  0  0  0  0  0  0  0
  138.3090   71.9660  221.0780 O   0  0  0  0  0  0  0  0  0  0  0  0
  139.3610   71.4200  223.0920 C   0  0  0  0  0  0  0  0  0  0  0  0
  138.9440   70.0930  223.0500 C   0  0  0  0  0  0  0  0  0  0  0  0
  139.1490   69.2150  224.0890 C   0  0  0  0  0  0  0  0  0  0  0  0
  139.7890   69.6480  225.2240 C   0  0  0  0  0  0  0  0  0  0  0  0
  140.0160   68.8000  226.2930 C   0  0  0  0  0  0  0  0  0  0  0  0
  140.6600   69.2470  227.4270 C   0  0  0  0  0  0  0  0  0  0  0  0
  140.9350   68.1630  228.7600 Cl  0  0  0  0  0  0  0  0  0  0  0  0
  141.0660   70.5660  227.4470 C   0  0  0  0  0  0  0  0  0  0  0  0
  140.8370   71.4050  226.3790 C   0  0  0  0  0  0  0  0  0  0  0  0
  140.1950   70.9780  225.2380 C   0  0  0  0  0  0  0  0  0  0  0  0
  139.9860   71.8160  224.2150 N   0  0  0  0  0  0  0  0  0  0  0  0
  137.0602   79.7836  222.4599 H   0  0  0  0  0  0  0  0  0  0  0  0
  138.1537   80.0432  221.0587 H   0  0  0  0  0  0  0  0  0  0  0  0
  137.0066   78.6609  221.0587 H   0  0  0  0  0  0  0  0  0  0  0  0
  138.2467   77.0637  223.8163 H   0  0  0  0  0  0  0  0  0  0  0  0
  137.2614   76.9007  222.3232 H   0  0  0  0  0  0  0  0  0  0  0  0
  138.9834   76.3895  222.3232 H   0  0  0  0  0  0  0  0  0  0  0  0
  139.4196   79.4860  224.5397 H   0  0  0  0  0  0  0  0  0  0  0  0
  141.6825   80.2512  225.1834 H   0  0  0  0  0  0  0  0  0  0  0  0
  143.5279   80.0258  223.5413 H   0  0  0  0  0  0  0  0  0  0  0  0
  143.1033   79.0670  221.3375 H   0  0  0  0  0  0  0  0  0  0  0  0
  139.7547   78.6165  220.1976 H   0  0  0  0  0  0  0  0  0  0  0  0
  141.6431   79.6302  218.9750 H   0  0  0  0  0  0  0  0  0  0  0  0
  142.8121   78.4995  219.6145 H   0  0  0  0  0  0  0  0  0  0  0  0
  141.0024   78.2218  217.2912 H   0  0  0  0  0  0  0  0  0  0  0  0
  142.3674   77.1718  217.7396 H   0  0  0  0  0  0  0  0  0  0  0  0
  139.4596   76.8546  218.2964 H   0  0  0  0  0  0  0  0  0  0  0  0
  140.6910   75.6134  218.2661 H   0  0  0  0  0  0  0  0  0  0  0  0
  138.5923   74.8551  220.8628 H   0  0  0  0  0  0  0  0  0  0  0  0
  139.8237   73.9515  219.8877 H   0  0  0  0  0  0  0  0  0  0  0  0
  140.5080   73.7860  222.7180 H   0  0  0  0  0  0  0  0  0  0  0  0
  138.4288   69.7309  222.1481 H   0  0  0  0  0  0  0  0  0  0  0  0
  138.8028   68.1738  224.0111 H   0  0  0  0  0  0  0  0  0  0  0  0
  139.6780   67.7547  226.2375 H   0  0  0  0  0  0  0  0  0  0  0  0
  141.5840   70.9558  228.3357 H   0  0  0  0  0  0  0  0  0  0  0  0
  141.1777   72.4492  226.4393 H   0  0  0  0  0  0  0  0  0  0  0  0
  1  2  1  0
  2  3  1  0
  2  4  1  0
  4  5  2  0
  5  6  1  0
  6  7  2  0
  7  8  1  0
  8  9  2  0
  9 10  1  0
 10 11  1  0
 11 12  1  0
 12 13  1  0
 13 14  1  0
 14 15  1  0
 15 16  2  0
 15 17  1  0
 17 18  1  0
 18 19  1  0
 19 20  2  0
 19 21  1  0
 21 22  2  0
 22 23  1  0
 23 24  2  0
 24 25  1  0
 25 26  2  0
 26 27  1  0
 26 28  1  0
 28 29  2  0
 29 30  1  0
 30 31  2  0
  9  4  1  0
 14 10  1  0
 31 21  1  0
 30 24  1  0
  1 32  1  0
  1 33  1  0
  1 34  1  0
  3 35  1  0
  3 36  1  0
  3 37  1  0
  5 38  1  0
  6 39  1  0
  7 40  1  0
  8 41  1  0
 10 42  1  6
 11 43  1  0
 11 44  1  0
 12 45  1  0
 12 46  1  0
 13 47  1  0
 13 48  1  0
 17 49  1  0
 17 50  1  0
 18 51  1  0
 22 52  1  0
 23 53  1  0
 25 54  1  0
 28 55  1  0
 29 56  1  0
M  END
>  <smiles>  (30) 
CN(C)c1ccccc1[C@H]1CCCN1C(=O)CNC(=O)c1ccc2cc(Cl)ccc2n1

>  <score_type>  (30) 
oracle

>  <origin>  (30) 
autodockgpu

>  <m_score__min__energy>  (30) 
-8.7300000000000004

>  <m_primary>  (30) 
energy

>  <rmsd>  (30) 
10.122611110080674

>  <m_score__min__rmsd>  (30) 
10.122611110080674

>  <meeko>  (30) 
{"free_energy": -7.84, "intermolecular_energy": -9.63, "internal_energy": -2.49, "cluster_size": 40, "cluster_id": 1, "rank_in_cluster": 31}

>  <energy>  (30) 
-7.85

>  <cluster_rmsd>  (30) 
1.3

>  <cluster>  (30) 
1

$$$$

     RDKit          3D

 56 59  0  0  0  0  0  0  0  0999 V2000
  141.9510   77.1410  219.9550 C   0  0  0  0  0  0  0  0  0  0  0  0
  141.8610   78.5610  220.1860 N   0  0  0  0  0  0  0  0  0  0  0  0
  142.1710   79.4410  219.0750 C   0  0  0  0  0  0  0  0  0  0  0  0
  141.4920   79.1640  221.4100 C   0  0  0  0  0  0  0  0  0  0  0  0
  142.5480   79.6590  222.1860 C   0  0  0  0  0  0  0  0  0  0  0  0
  142.3320   80.2580  223.4020 C   0  0  0  0  0  0  0  0  0  0  0  0
  141.0450   80.3610  223.8460 C   0  0  0  0  0  0  0  0  0  0  0  0
  140.0110   79.8730  223.0820 C   0  0  0  0  0  0  0  0  0  0  0  0
  140.1730   79.2650  221.8570 C   0  0  0  0  0  0  0  0  0  0  0  0
  139.0890   78.7200  221.0640 C   0  0  1  0  0  0  0  0  0  0  0  0
  139.1100   79.1760  219.6200 C   0  0  0  0  0  0  0  0  0  0  0  0
  138.1200   78.2460  218.9700 C   0  0  0  0  0  0  0  0  0  0  0  0
  137.7880   77.1810  219.9710 C   0  0  0  0  0  0  0  0  0  0  0  0
  138.8930   77.3180  220.9750 N   0  0  0  0  0  0  0  0  0  0  0  0
  139.4060   76.1590  221.5690 C   0  0  0  0  0  0  0  0  0  0  0  0
  139.9360   76.3470  222.7410 O   0  0  0  0  0  0  0  0  0  0  0  0
  139.4410   74.7920  221.0830 C   0  0  0  0  0  0  0  0  0  0  0  0
  139.5710   73.8260  222.1900 N   0  0  0  0  0  0  0  0  0  0  0  0
  139.7170   72.4450  221.8960 C   0  0  0  0  0  0  0  0  0  0  0  0
  139.7470   71.9750  220.7300 O   0  0  0  0  0  0  0  0  0  0  0  0
  139.8400   71.5240  223.0210 C   0  0  0  0  0  0  0  0  0  0  0  0
  139.4430   70.1960  222.9080 C   0  0  0  0  0  0  0  0  0  0  0  0
  139.5430   69.2980  223.9450 C   0  0  0  0  0  0  0  0  0  0  0  0
  140.0530   69.7110  225.1500 C   0  0  0  0  0  0  0  0  0  0  0  0
  140.1710   68.8420  226.2200 C   0  0  0  0  0  0  0  0  0  0  0  0
  140.6860   69.2700  227.4260 C   0  0  0  0  0  0  0  0  0  0  0  0
  140.8260   68.1600  228.7590 Cl  0  0  0  0  0  0  0  0  0  0  0  0
  141.0740   70.5910  227.5170 C   0  0  0  0  0  0  0  0  0  0  0  0
  140.9530   71.4510  226.4480 C   0  0  0  0  0  0  0  0  0  0  0  0
  140.4420   71.0430  225.2360 C   0  0  0  0  0  0  0  0  0  0  0  0
  140.3360   71.9020  224.2130 N   0  0  0  0  0  0  0  0  0  0  0  0
  141.9844   76.6139  220.9199 H   0  0  0  0  0  0  0  0  0  0  0  0
  141.0723   76.8059  219.3844 H   0  0  0  0  0  0  0  0  0  0  0  0
  142.8650   76.9195  219.3844 H   0  0  0  0  0  0  0  0  0  0  0  0
  142.5132   80.4125  219.4612 H   0  0  0  0  0  0  0  0  0  0  0  0
  142.9645   78.9904  218.4607 H   0  0  0  0  0  0  0  0  0  0  0  0
  141.2703   79.5873  218.4607 H   0  0  0  0  0  0  0  0  0  0  0  0
  143.5778   79.5652  221.8109 H   0  0  0  0  0  0  0  0  0  0  0  0
  143.1705   80.6434  224.0007 H   0  0  0  0  0  0  0  0  0  0  0  0
  140.8349   80.8350  224.8162 H   0  0  0  0  0  0  0  0  0  0  0  0
  138.9885   79.9748  223.4747 H   0  0  0  0  0  0  0  0  0  0  0  0
  138.2726   79.1276  221.6782 H   0  0  0  0  0  0  0  0  0  0  0  0
  138.7893   80.2243  219.5295 H   0  0  0  0  0  0  0  0  0  0  0  0
  140.1101   79.1404  219.1634 H   0  0  0  0  0  0  0  0  0  0  0  0
  137.2104   78.7986  218.6921 H   0  0  0  0  0  0  0  0  0  0  0  0
  138.5422   77.8039  218.0555 H   0  0  0  0  0  0  0  0  0  0  0  0
  136.8067   77.3631  220.4335 H   0  0  0  0  0  0  0  0  0  0  0  0
  137.7189   76.1748  219.5318 H   0  0  0  0  0  0  0  0  0  0  0  0
  138.5102   74.5839  220.5349 H   0  0  0  0  0  0  0  0  0  0  0  0
  140.3163   74.6825  220.4258 H   0  0  0  0  0  0  0  0  0  0  0  0
  139.5530   74.1600  223.1850 H   0  0  0  0  0  0  0  0  0  0  0  0
  139.0316   69.8491  221.9487 H   0  0  0  0  0  0  0  0  0  0  0  0
  139.2165   68.2564  223.8093 H   0  0  0  0  0  0  0  0  0  0  0  0
  139.8499   67.7959  226.1076 H   0  0  0  0  0  0  0  0  0  0  0  0
  141.4892   70.9656  228.4643 H   0  0  0  0  0  0  0  0  0  0  0  0
  141.2746   72.4963  226.5660 H   0  0  0  0  0  0  0  0  0  0  0  0
  1  2  1  0
  2  3  1  0
  2  4  1  0
  4  5  2  0
  5  6  1  0
  6  7  2  0
  7  8  1  0
  8  9  2  0
  9 10  1  0
 10 11  1  0
 11 12  1  0
 12 13  1  0
 13 14  1  0
 14 15  1  0
 15 16  2  0
 15 17  1  0
 17 18  1  0
 18 19  1  0
 19 20  2  0
 19 21  1  0
 21 22  2  0
 22 23  1  0
 23 24  2  0
 24 25  1  0
 25 26  2  0
 26 27  1  0
 26 28  1  0
 28 29  2  0
 29 30  1  0
 30 31  2  0
  9  4  1  0
 14 10  1  0
 31 21  1  0
 30 24  1  0
  1 32  1  0
  1 33  1  0
  1 34  1  0
  3 35  1  0
  3 36  1  0
  3 37  1  0
  5 38  1  0
  6 39  1  0
  7 40  1  0
  8 41  1  0
 10 42  1  1
 11 43  1  0
 11 44  1  0
 12 45  1  0
 12 46  1  0
 13 47  1  0
 13 48  1  0
 17 49  1  0
 17 50  1  0
 18 51  1  0
 22 52  1  0
 23 53  1  0
 25 54  1  0
 28 55  1  0
 29 56  1  0
M  END
>  <smiles>  (31) 
CN(C)c1ccccc1[C@H]1CCCN1C(=O)CNC(=O)c1ccc2cc(Cl)ccc2n1

>  <score_type>  (31) 
oracle

>  <origin>  (31) 
autodockgpu

>  <m_score__min__energy>  (31) 
-8.7300000000000004

>  <m_primary>  (31) 
energy

>  <rmsd>  (31) 
10.259534258998036

>  <m_score__min__rmsd>  (31) 
10.259534258998036

>  <meeko>  (31) 
{"free_energy": -8.14, "intermolecular_energy": -9.93, "internal_energy": -2.16, "cluster_size": 40, "cluster_id": 1, "rank_in_cluster": 24}

>  <energy>  (31) 
-7.84

>  <cluster_rmsd>  (31) 
1.3

>  <cluster>  (31) 
1

$$$$

     RDKit          3D

 56 59  0  0  0  0  0  0  0  0999 V2000
  142.1800   80.5120  219.1310 C   0  0  0  0  0  0  0  0  0  0  0  0
  141.2290   80.6540  220.2040 N   0  0  0  0  0  0  0  0  0  0  0  0
  140.0770   81.5030  219.9680 C   0  0  0  0  0  0  0  0  0  0  0  0
  141.3310   80.0310  221.4680 C   0  0  0  0  0  0  0  0  0  0  0  0
  141.4800   80.8930  222.5620 C   0  0  0  0  0  0  0  0  0  0  0  0
  141.6010   80.4190  223.8440 C   0  0  0  0  0  0  0  0  0  0  0  0
  141.5740   79.0670  224.0340 C   0  0  0  0  0  0  0  0  0  0  0  0
  141.4270   78.2230  222.9570 C   0  0  0  0  0  0  0  0  0  0  0  0
  141.3010   78.6470  221.6530 C   0  0  0  0  0  0  0  0  0  0  0  0
  141.1800   77.7600  220.5130 C   0  0  1  0  0  0  0  0  0  0  0  0
  142.5120   77.3690  219.9090 C   0  0  0  0  0  0  0  0  0  0  0  0
  142.1360   76.2350  218.9940 C   0  0  0  0  0  0  0  0  0  0  0  0
  140.7130   75.8730  219.2970 C   0  0  0  0  0  0  0  0  0  0  0  0
  140.4840   76.5300  220.6260 N   0  0  0  0  0  0  0  0  0  0  0  0
  139.6870   75.8710  221.5700 C   0  0  0  0  0  0  0  0  0  0  0  0
  140.3300   75.0250  222.3170 O   0  0  0  0  0  0  0  0  0  0  0  0
  138.2650   75.9820  221.8390 C   0  0  0  0  0  0  0  0  0  0  0  0
  137.9410   77.2460  222.5260 N   0  0  0  0  0  0  0  0  0  0  0  0
  137.9370   78.4590  221.7880 C   0  0  0  0  0  0  0  0  0  0  0  0
  138.1950   78.5340  220.5600 O   0  0  0  0  0  0  0  0  0  0  0  0
  137.6130   79.6860  222.5080 C   0  0  0  0  0  0  0  0  0  0  0  0
  137.3740   80.8750  221.8270 C   0  0  0  0  0  0  0  0  0  0  0  0
  137.0650   82.0520  222.4700 C   0  0  0  0  0  0  0  0  0  0  0  0
  136.9850   82.0730  223.8400 C   0  0  0  0  0  0  0  0  0  0  0  0
  136.6780   83.2340  224.5280 C   0  0  0  0  0  0  0  0  0  0  0  0
  136.6010   83.2420  225.9050 C   0  0  0  0  0  0  0  0  0  0  0  0
  136.2120   84.7130  226.7490 Cl  0  0  0  0  0  0  0  0  0  0  0  0
  136.8410   82.0520  226.5600 C   0  0  0  0  0  0  0  0  0  0  0  0
  137.1470   80.9000  225.8690 C   0  0  0  0  0  0  0  0  0  0  0  0
  137.2290   80.8710  224.4950 C   0  0  0  0  0  0  0  0  0  0  0  0
  137.5280   79.7360  223.8500 N   0  0  0  0  0  0  0  0  0  0  0  0
  143.1859   80.3618  219.5501 H   0  0  0  0  0  0  0  0  0  0  0  0
  141.9074   79.6446  218.5119 H   0  0  0  0  0  0  0  0  0  0  0  0
  142.1727   81.4212  218.5119 H   0  0  0  0  0  0  0  0  0  0  0  0
  139.6499   81.8177  220.9316 H   0  0  0  0  0  0  0  0  0  0  0  0
  140.3865   82.3906  219.3967 H   0  0  0  0  0  0  0  0  0  0  0  0
  139.3208   80.9446  219.3967 H   0  0  0  0  0  0  0  0  0  0  0  0
  141.5006   81.9791  222.3887 H   0  0  0  0  0  0  0  0  0  0  0  0
  141.7164   81.1079  224.6938 H   0  0  0  0  0  0  0  0  0  0  0  0
  141.6698   78.6524  225.0483 H   0  0  0  0  0  0  0  0  0  0  0  0
  141.4090   77.1403  223.1502 H   0  0  0  0  0  0  0  0  0  0  0  0
  140.5613   78.4330  219.9011 H   0  0  0  0  0  0  0  0  0  0  0  0
  142.9533   78.2044  219.3457 H   0  0  0  0  0  0  0  0  0  0  0  0
  143.2690   77.0945  220.6584 H   0  0  0  0  0  0  0  0  0  0  0  0
  142.2291   76.5510  217.9445 H   0  0  0  0  0  0  0  0  0  0  0  0
  142.7998   75.3717  219.1495 H   0  0  0  0  0  0  0  0  0  0  0  0
  140.0302   76.2734  218.5332 H   0  0  0  0  0  0  0  0  0  0  0  0
  140.5303   74.7883  219.3079 H   0  0  0  0  0  0  0  0  0  0  0  0
  137.7170   75.9427  220.8860 H   0  0  0  0  0  0  0  0  0  0  0  0
  137.9721   75.1486  222.4944 H   0  0  0  0  0  0  0  0  0  0  0  0
  137.7160   77.2460  223.5520 H   0  0  0  0  0  0  0  0  0  0  0  0
  137.4344   80.8746  220.7287 H   0  0  0  0  0  0  0  0  0  0  0  0
  136.8835   82.9690  221.8902 H   0  0  0  0  0  0  0  0  0  0  0  0
  136.4929   84.1631  223.9689 H   0  0  0  0  0  0  0  0  0  0  0  0
  136.7869   82.0221  227.6583 H   0  0  0  0  0  0  0  0  0  0  0  0
  137.3317   79.9739  226.4331 H   0  0  0  0  0  0  0  0  0  0  0  0
  1  2  1  0
  2  3  1  0
  2  4  1  0
  4  5  2  0
  5  6  1  0
  6  7  2  0
  7  8  1  0
  8  9  2  0
  9 10  1  0
 10 11  1  0
 11 12  1  0
 12 13  1  0
 13 14  1  0
 14 15  1  0
 15 16  2  0
 15 17  1  0
 17 18  1  0
 18 19  1  0
 19 20  2  0
 19 21  1  0
 21 22  2  0
 22 23  1  0
 23 24  2  0
 24 25  1  0
 25 26  2  0
 26 27  1  0
 26 28  1  0
 28 29  2  0
 29 30  1  0
 30 31  2  0
  9  4  1  0
 14 10  1  0
 31 21  1  0
 30 24  1  0
  1 32  1  0
  1 33  1  0
  1 34  1  0
  3 35  1  0
  3 36  1  0
  3 37  1  0
  5 38  1  0
  6 39  1  0
  7 40  1  0
  8 41  1  0
 10 42  1  6
 11 43  1  0
 11 44  1  0
 12 45  1  0
 12 46  1  0
 13 47  1  0
 13 48  1  0
 17 49  1  0
 17 50  1  0
 18 51  1  0
 22 52  1  0
 23 53  1  0
 25 54  1  0
 28 55  1  0
 29 56  1  0
M  END
>  <smiles>  (32) 
CN(C)c1ccccc1[C@H]1CCCN1C(=O)CNC(=O)c1ccc2cc(Cl)ccc2n1

>  <score_type>  (32) 
oracle

>  <origin>  (32) 
autodockgpu

>  <m_score__min__energy>  (32) 
-8.7300000000000004

>  <m_primary>  (32) 
energy

>  <rmsd>  (32) 
7.782313167506468

>  <m_score__min__rmsd>  (32) 
7.782313167506468

>  <meeko>  (32) 
{"free_energy": -6.35, "intermolecular_energy": -8.14, "internal_energy": -3.21, "cluster_size": 2, "cluster_id": 7, "rank_in_cluster": 1}

>  <energy>  (32) 
-7.84

>  <cluster_rmsd>  (32) 
1.28

>  <cluster>  (32) 
1

$$$$

     RDKit          3D

 56 59  0  0  0  0  0  0  0  0999 V2000
  137.7230   79.7250  220.8090 C   0  0  0  0  0  0  0  0  0  0  0  0
  138.2090   78.9600  221.9300 N   0  0  0  0  0  0  0  0  0  0  0  0
  137.2500   78.1430  222.6480 C   0  0  0  0  0  0  0  0  0  0  0  0
  139.5470   78.9440  222.3840 C   0  0  0  0  0  0  0  0  0  0  0  0
  139.7870   79.6110  223.5920 C   0  0  0  0  0  0  0  0  0  0  0  0
  141.0440   79.6820  224.1400 C   0  0  0  0  0  0  0  0  0  0  0  0
  142.0710   79.0800  223.4720 C   0  0  0  0  0  0  0  0  0  0  0  0
  141.8300   78.4260  222.2850 C   0  0  0  0  0  0  0  0  0  0  0  0
  140.5910   78.3250  221.6940 C   0  0  0  0  0  0  0  0  0  0  0  0
  140.3400   77.6650  220.4280 C   0  0  1  0  0  0  0  0  0  0  0  0
  141.5660   77.5700  219.5450 C   0  0  0  0  0  0  0  0  0  0  0  0
  141.1300   76.5940  218.4840 C   0  0  0  0  0  0  0  0  0  0  0  0
  139.8280   76.0040  218.9340 C   0  0  0  0  0  0  0  0  0  0  0  0
  139.7920   76.3580  220.3910 N   0  0  0  0  0  0  0  0  0  0  0  0
  139.2480   75.4340  221.2910 C   0  0  0  0  0  0  0  0  0  0  0  0
  139.1530   75.8690  222.5120 O   0  0  0  0  0  0  0  0  0  0  0  0
  138.7810   74.0770  221.0770 C   0  0  0  0  0  0  0  0  0  0  0  0
  139.1160   73.2020  222.2160 N   0  0  0  0  0  0  0  0  0  0  0  0
  138.8620   71.8090  222.1220 C   0  0  0  0  0  0  0  0  0  0  0  0
  138.3610   71.2530  221.1120 O   0  0  0  0  0  0  0  0  0  0  0  0
  139.2070   70.9810  223.2730 C   0  0  0  0  0  0  0  0  0  0  0  0
  138.9330   69.6170  223.2840 C   0  0  0  0  0  0  0  0  0  0  0  0
  139.2430   68.8030  224.3490 C   0  0  0  0  0  0  0  0  0  0  0  0
  139.8480   69.3410  225.4570 C   0  0  0  0  0  0  0  0  0  0  0  0
  140.1760   68.5610  226.5510 C   0  0  0  0  0  0  0  0  0  0  0  0
  140.7840   69.1140  227.6590 C   0  0  0  0  0  0  0  0  0  0  0  0
  141.1900   68.1130  229.0230 Cl  0  0  0  0  0  0  0  0  0  0  0  0
  141.0470   70.4680  227.6270 C   0  0  0  0  0  0  0  0  0  0  0  0
  140.7160   71.2390  226.5350 C   0  0  0  0  0  0  0  0  0  0  0  0
  140.1100   70.7070  225.4200 C   0  0  0  0  0  0  0  0  0  0  0  0
  139.7990   71.4810  224.3720 N   0  0  0  0  0  0  0  0  0  0  0  0
  137.1669   80.6003  221.1759 H   0  0  0  0  0  0  0  0  0  0  0  0
  138.5737   80.0608  220.1979 H   0  0  0  0  0  0  0  0  0  0  0  0
  137.0575   79.0976  220.1979 H   0  0  0  0  0  0  0  0  0  0  0  0
  137.3984   78.2694  223.7306 H   0  0  0  0  0  0  0  0  0  0  0  0
  136.2296   78.4536  222.3790 H   0  0  0  0  0  0  0  0  0  0  0  0
  137.3945   77.0862  222.3790 H   0  0  0  0  0  0  0  0  0  0  0  0
  138.9466   80.0904  224.1153 H   0  0  0  0  0  0  0  0  0  0  0  0
  141.2184   80.2087  225.0898 H   0  0  0  0  0  0  0  0  0  0  0  0
  143.0910   79.1175  223.8822 H   0  0  0  0  0  0  0  0  0  0  0  0
  142.6829   77.9535  221.7757 H   0  0  0  0  0  0  0  0  0  0  0  0
  139.5590   78.3582  220.0823 H   0  0  0  0  0  0  0  0  0  0  0  0
  141.8169   78.5473  219.1069 H   0  0  0  0  0  0  0  0  0  0  0  0
  142.4712   77.2550  220.0847 H   0  0  0  0  0  0  0  0  0  0  0  0
  140.9962   77.1150  217.5245 H   0  0  0  0  0  0  0  0  0  0  0  0
  141.8865   75.8083  218.3410 H   0  0  0  0  0  0  0  0  0  0  0  0
  138.9812   76.4542  218.3953 H   0  0  0  0  0  0  0  0  0  0  0  0
  139.7500   74.9231  218.7452 H   0  0  0  0  0  0  0  0  0  0  0  0
  137.6888   74.0916  220.9471 H   0  0  0  0  0  0  0  0  0  0  0  0
  139.2779   73.6794  220.1797 H   0  0  0  0  0  0  0  0  0  0  0  0
  139.5380   73.6100  223.0880 H   0  0  0  0  0  0  0  0  0  0  0  0
  138.4478   69.1703  222.4036 H   0  0  0  0  0  0  0  0  0  0  0  0
  139.0077   67.7291  224.3126 H   0  0  0  0  0  0  0  0  0  0  0  0
  139.9489   67.4848  226.5374 H   0  0  0  0  0  0  0  0  0  0  0  0
  141.5319   70.9422  228.4930 H   0  0  0  0  0  0  0  0  0  0  0  0
  140.9434   72.3151  226.5547 H   0  0  0  0  0  0  0  0  0  0  0  0
  1  2  1  0
  2  3  1  0
  2  4  1  0
  4  5  2  0
  5  6  1  0
  6  7  2  0
  7  8  1  0
  8  9  2  0
  9 10  1  0
 10 11  1  0
 11 12  1  0
 12 13  1  0
 13 14  1  0
 14 15  1  0
 15 16  2  0
 15 17  1  0
 17 18  1  0
 18 19  1  0
 19 20  2  0
 19 21  1  0
 21 22  2  0
 22 23  1  0
 23 24  2  0
 24 25  1  0
 25 26  2  0
 26 27  1  0
 26 28  1  0
 28 29  2  0
 29 30  1  0
 30 31  2  0
  9  4  1  0
 14 10  1  0
 31 21  1  0
 30 24  1  0
  1 32  1  0
  1 33  1  0
  1 34  1  0
  3 35  1  0
  3 36  1  0
  3 37  1  0
  5 38  1  0
  6 39  1  0
  7 40  1  0
  8 41  1  0
 10 42  1  6
 11 43  1  0
 11 44  1  0
 12 45  1  0
 12 46  1  0
 13 47  1  0
 13 48  1  0
 17 49  1  0
 17 50  1  0
 18 51  1  0
 22 52  1  0
 23 53  1  0
 25 54  1  0
 28 55  1  0
 29 56  1  0
M  END
>  <smiles>  (33) 
CN(C)c1ccccc1[C@H]1CCCN1C(=O)CNC(=O)c1ccc2cc(Cl)ccc2n1

>  <score_type>  (33) 
oracle

>  <origin>  (33) 
autodockgpu

>  <m_score__min__energy>  (33) 
-8.7300000000000004

>  <m_primary>  (33) 
energy

>  <rmsd>  (33) 
10.0764015977507

>  <m_score__min__rmsd>  (33) 
10.0764015977507

>  <meeko>  (33) 
{"free_energy": -7.65, "intermolecular_energy": -9.44, "internal_energy": -2.23, "cluster_size": 40, "cluster_id": 1, "rank_in_cluster": 39}

>  <energy>  (33) 
-7.83

>  <cluster_rmsd>  (33) 
1.32

>  <cluster>  (33) 
1

$$$$

     RDKit          3D

 56 59  0  0  0  0  0  0  0  0999 V2000
  139.1220   81.1050  220.3200 C   0  0  0  0  0  0  0  0  0  0  0  0
  139.9780   79.9890  220.6360 N   0  0  0  0  0  0  0  0  0  0  0  0
  139.9870   78.8710  219.7130 C   0  0  0  0  0  0  0  0  0  0  0  0
  140.8110   79.9010  221.7740 C   0  0  0  0  0  0  0  0  0  0  0  0
  142.0560   80.5340  221.6670 C   0  0  0  0  0  0  0  0  0  0  0  0
  142.9660   80.5150  222.6950 C   0  0  0  0  0  0  0  0  0  0  0  0
  142.6260   79.8560  223.8410 C   0  0  0  0  0  0  0  0  0  0  0  0
  141.4020   79.2350  223.9420 C   0  0  0  0  0  0  0  0  0  0  0  0
  140.4550   79.2250  222.9430 C   0  0  0  0  0  0  0  0  0  0  0  0
  139.1780   78.5440  223.0330 C   0  0  1  0  0  0  0  0  0  0  0  0
  138.0090   79.3940  222.5820 C   0  0  0  0  0  0  0  0  0  0  0  0
  136.8970   78.3850  222.4680 C   0  0  0  0  0  0  0  0  0  0  0  0
  137.5160   77.0270  222.6000 C   0  0  0  0  0  0  0  0  0  0  0  0
  138.9720   77.3050  222.3750 N   0  0  0  0  0  0  0  0  0  0  0  0
  139.7340   76.3630  221.6740 C   0  0  0  0  0  0  0  0  0  0  0  0
  140.9610   76.7270  221.4480 O   0  0  0  0  0  0  0  0  0  0  0  0
  139.3700   75.0550  221.1610 C   0  0  0  0  0  0  0  0  0  0  0  0
  139.3920   74.0310  222.2230 N   0  0  0  0  0  0  0  0  0  0  0  0
  140.2060   72.8790  222.0620 C   0  0  0  0  0  0  0  0  0  0  0  0
  140.9270   72.6640  221.0550 O   0  0  0  0  0  0  0  0  0  0  0  0
  140.1960   71.8910  223.1350 C   0  0  0  0  0  0  0  0  0  0  0  0
  139.7110   70.6040  222.9220 C   0  0  0  0  0  0  0  0  0  0  0  0
  139.6860   69.6450  223.9080 C   0  0  0  0  0  0  0  0  0  0  0  0
  140.1550   69.9510  225.1610 C   0  0  0  0  0  0  0  0  0  0  0  0
  140.1490   69.0180  226.1820 C   0  0  0  0  0  0  0  0  0  0  0  0
  140.6230   69.3380  227.4370 C   0  0  0  0  0  0  0  0  0  0  0  0
  140.6060   68.1480  228.7070 Cl  0  0  0  0  0  0  0  0  0  0  0  0
  141.1000   70.6180  227.6260 C   0  0  0  0  0  0  0  0  0  0  0  0
  141.1040   71.5430  226.6050 C   0  0  0  0  0  0  0  0  0  0  0  0
  140.6340   71.2430  225.3460 C   0  0  0  0  0  0  0  0  0  0  0  0
  140.6500   72.1620  224.3720 N   0  0  0  0  0  0  0  0  0  0  0  0
  138.7659   81.5692  221.2515 H   0  0  0  0  0  0  0  0  0  0  0  0
  139.6861   81.8453  219.7337 H   0  0  0  0  0  0  0  0  0  0  0  0
  138.2608   80.7521  219.7337 H   0  0  0  0  0  0  0  0  0  0  0  0
  139.9946   77.9280  220.2793 H   0  0  0  0  0  0  0  0  0  0  0  0
  139.0885   78.9111  219.0797 H   0  0  0  0  0  0  0  0  0  0  0  0
  140.8847   78.9256  219.0797 H   0  0  0  0  0  0  0  0  0  0  0  0
  142.3113   81.0600  220.7352 H   0  0  0  0  0  0  0  0  0  0  0  0
  143.9404   81.0161  222.5979 H   0  0  0  0  0  0  0  0  0  0  0  0
  143.3310   79.8213  224.6846 H   0  0  0  0  0  0  0  0  0  0  0  0
  141.1653   78.7133  224.8810 H   0  0  0  0  0  0  0  0  0  0  0  0
  139.2261   78.3380  224.1125 H   0  0  0  0  0  0  0  0  0  0  0  0
  137.7692   80.1674  223.3266 H   0  0  0  0  0  0  0  0  0  0  0  0
  138.2005   79.9428  221.6481 H   0  0  0  0  0  0  0  0  0  0  0  0
  136.1608   78.5432  223.2699 H   0  0  0  0  0  0  0  0  0  0  0  0
  136.3763   78.4849  221.5042 H   0  0  0  0  0  0  0  0  0  0  0  0
  137.3425   76.6077  223.6021 H   0  0  0  0  0  0  0  0  0  0  0  0
  137.0996   76.2876  221.9001 H   0  0  0  0  0  0  0  0  0  0  0  0
  138.3567   75.1073  220.7361 H   0  0  0  0  0  0  0  0  0  0  0  0
  140.1034   74.7700  220.3923 H   0  0  0  0  0  0  0  0  0  0  0  0
  138.8100   74.1560  223.0880 H   0  0  0  0  0  0  0  0  0  0  0  0
  139.3317   70.3426  221.9231 H   0  0  0  0  0  0  0  0  0  0  0  0
  139.2930   68.6402  223.6937 H   0  0  0  0  0  0  0  0  0  0  0  0
  139.7608   68.0068  225.9904 H   0  0  0  0  0  0  0  0  0  0  0  0
  141.4861   70.9071  228.6146 H   0  0  0  0  0  0  0  0  0  0  0  0
  141.4947   72.5523  226.8016 H   0  0  0  0  0  0  0  0  0  0  0  0
  1  2  1  0
  2  3  1  0
  2  4  1  0
  4  5  2  0
  5  6  1  0
  6  7  2  0
  7  8  1  0
  8  9  2  0
  9 10  1  0
 10 11  1  0
 11 12  1  0
 12 13  1  0
 13 14  1  0
 14 15  1  0
 15 16  2  0
 15 17  1  0
 17 18  1  0
 18 19  1  0
 19 20  2  0
 19 21  1  0
 21 22  2  0
 22 23  1  0
 23 24  2  0
 24 25  1  0
 25 26  2  0
 26 27  1  0
 26 28  1  0
 28 29  2  0
 29 30  1  0
 30 31  2  0
  9  4  1  0
 14 10  1  0
 31 21  1  0
 30 24  1  0
  1 32  1  0
  1 33  1  0
  1 34  1  0
  3 35  1  0
  3 36  1  0
  3 37  1  0
  5 38  1  0
  6 39  1  0
  7 40  1  0
  8 41  1  0
 10 42  1  1
 11 43  1  0
 11 44  1  0
 12 45  1  0
 12 46  1  0
 13 47  1  0
 13 48  1  0
 17 49  1  0
 17 50  1  0
 18 51  1  0
 22 52  1  0
 23 53  1  0
 25 54  1  0
 28 55  1  0
 29 56  1  0
M  END
>  <smiles>  (34) 
CN(C)c1ccccc1[C@H]1CCCN1C(=O)CNC(=O)c1ccc2cc(Cl)ccc2n1

>  <score_type>  (34) 
oracle

>  <origin>  (34) 
autodockgpu

>  <m_score__min__energy>  (34) 
-8.7300000000000004

>  <m_primary>  (34) 
energy

>  <rmsd>  (34) 
10.136171076657531

>  <m_score__min__rmsd>  (34) 
10.136171076657531

>  <meeko>  (34) 
{"free_energy": -8.73, "intermolecular_energy": -10.52, "internal_energy": -1.39, "cluster_size": 40, "cluster_id": 1, "rank_in_cluster": 1}

>  <energy>  (34) 
-7.81

>  <cluster_rmsd>  (34) 
1.3

>  <cluster>  (34) 
1

$$$$

     RDKit          3D

 56 59  0  0  0  0  0  0  0  0999 V2000
  137.9070   78.9380  220.8780 C   0  0  0  0  0  0  0  0  0  0  0  0
  138.7120   78.3990  221.9460 N   0  0  0  0  0  0  0  0  0  0  0  0
  138.1520   77.3090  222.7200 C   0  0  0  0  0  0  0  0  0  0  0  0
  140.0050   78.8500  222.2960 C   0  0  0  0  0  0  0  0  0  0  0  0
  140.1120   79.4830  223.5410 C   0  0  0  0  0  0  0  0  0  0  0  0
  141.3080   79.9780  223.9990 C   0  0  0  0  0  0  0  0  0  0  0  0
  142.4080   79.8390  223.2020 C   0  0  0  0  0  0  0  0  0  0  0  0
  142.2980   79.2160  221.9800 C   0  0  0  0  0  0  0  0  0  0  0  0
  141.1240   78.7020  221.4750 C   0  0  0  0  0  0  0  0  0  0  0  0
  140.9990   78.0750  220.1740 C   0  0  1  0  0  0  0  0  0  0  0  0
  142.1840   78.3300  219.2660 C   0  0  0  0  0  0  0  0  0  0  0  0
  141.9610   77.3400  218.1530 C   0  0  0  0  0  0  0  0  0  0  0  0
  140.8540   76.4280  218.5870 C   0  0  0  0  0  0  0  0  0  0  0  0
  140.7800   76.6790  220.0630 N   0  0  0  0  0  0  0  0  0  0  0  0
  140.5030   75.6010  220.9130 C   0  0  0  0  0  0  0  0  0  0  0  0
  141.4480   75.3330  221.7640 O   0  0  0  0  0  0  0  0  0  0  0  0
  139.3370   74.7410  220.9880 C   0  0  0  0  0  0  0  0  0  0  0  0
  139.4390   73.7860  222.1080 N   0  0  0  0  0  0  0  0  0  0  0  0
  139.8160   72.4430  221.8450 C   0  0  0  0  0  0  0  0  0  0  0  0
  140.0780   71.9990  220.6980 O   0  0  0  0  0  0  0  0  0  0  0  0
  139.9030   71.5310  222.9810 C   0  0  0  0  0  0  0  0  0  0  0  0
  139.4700   70.2130  222.8780 C   0  0  0  0  0  0  0  0  0  0  0  0
  139.5360   69.3240  223.9250 C   0  0  0  0  0  0  0  0  0  0  0  0
  140.0460   69.7360  225.1310 C   0  0  0  0  0  0  0  0  0  0  0  0
  140.1310   68.8760  226.2110 C   0  0  0  0  0  0  0  0  0  0  0  0
  140.6450   69.3020  227.4180 C   0  0  0  0  0  0  0  0  0  0  0  0
  140.7430   68.2030  228.7630 Cl  0  0  0  0  0  0  0  0  0  0  0  0
  141.0690   70.6130  227.4980 C   0  0  0  0  0  0  0  0  0  0  0  0
  140.9820   71.4640  226.4190 C   0  0  0  0  0  0  0  0  0  0  0  0
  140.4710   71.0580  225.2060 C   0  0  0  0  0  0  0  0  0  0  0  0
  140.3980   71.9070  224.1730 N   0  0  0  0  0  0  0  0  0  0  0  0
  137.0640   79.5024  221.3032 H   0  0  0  0  0  0  0  0  0  0  0  0
  138.5211   79.6077  220.2580 H   0  0  0  0  0  0  0  0  0  0  0  0
  137.5217   78.1151  220.2580 H   0  0  0  0  0  0  0  0  0  0  0  0
  138.2634   77.5259  223.7926 H   0  0  0  0  0  0  0  0  0  0  0  0
  137.0849   77.1974  222.4774 H   0  0  0  0  0  0  0  0  0  0  0  0
  138.6827   76.3765  222.4774 H   0  0  0  0  0  0  0  0  0  0  0  0
  139.2143   79.5862  224.1682 H   0  0  0  0  0  0  0  0  0  0  0  0
  141.3780   80.4721  224.9793 H   0  0  0  0  0  0  0  0  0  0  0  0
  143.3821   80.2250  223.5368 H   0  0  0  0  0  0  0  0  0  0  0  0
  143.2064   79.1224  221.3667 H   0  0  0  0  0  0  0  0  0  0  0  0
  140.0639   78.5778  219.8864 H   0  0  0  0  0  0  0  0  0  0  0  0
  142.1791   79.3625  218.8865 H   0  0  0  0  0  0  0  0  0  0  0  0
  143.1551   78.2127  219.7691 H   0  0  0  0  0  0  0  0  0  0  0  0
  141.6753   77.8674  217.2310 H   0  0  0  0  0  0  0  0  0  0  0  0
  142.8790   76.7699  217.9475 H   0  0  0  0  0  0  0  0  0  0  0  0
  139.9072   76.6900  218.0921 H   0  0  0  0  0  0  0  0  0  0  0  0
  141.0323   75.3729  218.3320 H   0  0  0  0  0  0  0  0  0  0  0  0
  138.4420   75.3644  221.1305 H   0  0  0  0  0  0  0  0  0  0  0  0
  139.2708   74.1678  220.0515 H   0  0  0  0  0  0  0  0  0  0  0  0
  139.2320   74.0990  223.0880 H   0  0  0  0  0  0  0  0  0  0  0  0
  139.0575   69.8674  221.9186 H   0  0  0  0  0  0  0  0  0  0  0  0
  139.1827   68.2902  223.7971 H   0  0  0  0  0  0  0  0  0  0  0  0
  139.7837   67.8376  226.1058 H   0  0  0  0  0  0  0  0  0  0  0  0
  141.4858   70.9864  228.4450 H   0  0  0  0  0  0  0  0  0  0  0  0
  141.3317   72.5011  226.5292 H   0  0  0  0  0  0  0  0  0  0  0  0
  1  2  1  0
  2  3  1  0
  2  4  1  0
  4  5  2  0
  5  6  1  0
  6  7  2  0
  7  8  1  0
  8  9  2  0
  9 10  1  0
 10 11  1  0
 11 12  1  0
 12 13  1  0
 13 14  1  0
 14 15  1  0
 15 16  2  0
 15 17  1  0
 17 18  1  0
 18 19  1  0
 19 20  2  0
 19 21  1  0
 21 22  2  0
 22 23  1  0
 23 24  2  0
 24 25  1  0
 25 26  2  0
 26 27  1  0
 26 28  1  0
 28 29  2  0
 29 30  1  0
 30 31  2  0
  9  4  1  0
 14 10  1  0
 31 21  1  0
 30 24  1  0
  1 32  1  0
  1 33  1  0
  1 34  1  0
  3 35  1  0
  3 36  1  0
  3 37  1  0
  5 38  1  0
  6 39  1  0
  7 40  1  0
  8 41  1  0
 10 42  1  6
 11 43  1  0
 11 44  1  0
 12 45  1  0
 12 46  1  0
 13 47  1  0
 13 48  1  0
 17 49  1  0
 17 50  1  0
 18 51  1  0
 22 52  1  0
 23 53  1  0
 25 54  1  0
 28 55  1  0
 29 56  1  0
M  END
>  <smiles>  (35) 
CN(C)c1ccccc1[C@H]1CCCN1C(=O)CNC(=O)c1ccc2cc(Cl)ccc2n1

>  <score_type>  (35) 
oracle

>  <origin>  (35) 
autodockgpu

>  <m_score__min__energy>  (35) 
-8.7300000000000004

>  <m_primary>  (35) 
energy

>  <rmsd>  (35) 
10.110967184018214

>  <m_score__min__rmsd>  (35) 
10.110967184018214

>  <meeko>  (35) 
{"free_energy": -8.49, "intermolecular_energy": -10.28, "internal_energy": -1.9, "cluster_size": 40, "cluster_id": 1, "rank_in_cluster": 4}

>  <energy>  (35) 
-7.77

>  <cluster_rmsd>  (35) 
1.43

>  <cluster>  (35) 
1

$$$$

     RDKit          3D

 56 59  0  0  0  0  0  0  0  0999 V2000
  137.9950   80.2250  221.6950 C   0  0  0  0  0  0  0  0  0  0  0  0
  138.9320   79.3270  222.3230 N   0  0  0  0  0  0  0  0  0  0  0  0
  138.4420   78.0210  222.7230 C   0  0  0  0  0  0  0  0  0  0  0  0
  140.2910   79.6180  222.5790 C   0  0  0  0  0  0  0  0  0  0  0  0
  140.5680   80.1720  223.8360 C   0  0  0  0  0  0  0  0  0  0  0  0
  141.8440   80.5130  224.2090 C   0  0  0  0  0  0  0  0  0  0  0  0
  142.8530   80.2970  223.3150 C   0  0  0  0  0  0  0  0  0  0  0  0
  142.5770   79.7540  222.0820 C   0  0  0  0  0  0  0  0  0  0  0  0
  141.3170   79.3940  221.6590 C   0  0  0  0  0  0  0  0  0  0  0  0
  141.0180   78.8510  220.3490 C   0  0  1  0  0  0  0  0  0  0  0  0
  141.9760   79.3140  219.2720 C   0  0  0  0  0  0  0  0  0  0  0  0
  141.6560   78.3860  218.1300 C   0  0  0  0  0  0  0  0  0  0  0  0
  140.7550   77.3160  218.6670 C   0  0  0  0  0  0  0  0  0  0  0  0
  140.9330   77.4500  220.1500 N   0  0  0  0  0  0  0  0  0  0  0  0
  140.9380   76.2880  220.9310 C   0  0  0  0  0  0  0  0  0  0  0  0
  140.9850   76.5040  222.2110 O   0  0  0  0  0  0  0  0  0  0  0  0
  140.9020   74.8920  220.5370 C   0  0  0  0  0  0  0  0  0  0  0  0
  140.7970   74.0010  221.7080 N   0  0  0  0  0  0  0  0  0  0  0  0
  140.2600   72.6970  221.5450 C   0  0  0  0  0  0  0  0  0  0  0  0
  139.8590   72.2350  220.4470 O   0  0  0  0  0  0  0  0  0  0  0  0
  140.1720   71.8500  222.7300 C   0  0  0  0  0  0  0  0  0  0  0  0
  139.5620   70.6010  222.6760 C   0  0  0  0  0  0  0  0  0  0  0  0
  139.4610   69.7740  223.7710 C   0  0  0  0  0  0  0  0  0  0  0  0
  139.9760   70.1810  224.9760 C   0  0  0  0  0  0  0  0  0  0  0  0
  139.8960   69.3820  226.1020 C   0  0  0  0  0  0  0  0  0  0  0  0
  140.4180   69.8020  227.3080 C   0  0  0  0  0  0  0  0  0  0  0  0
  140.3060   68.7800  228.7120 Cl  0  0  0  0  0  0  0  0  0  0  0  0
  141.0190   71.0440  227.3390 C   0  0  0  0  0  0  0  0  0  0  0  0
  141.0950   71.8340  226.2140 C   0  0  0  0  0  0  0  0  0  0  0  0
  140.5800   71.4330  225.0020 C   0  0  0  0  0  0  0  0  0  0  0  0
  140.6680   72.2230  223.9240 N   0  0  0  0  0  0  0  0  0  0  0  0
  137.4306   80.7659  222.4688 H   0  0  0  0  0  0  0  0  0  0  0  0
  138.5412   80.9455  221.0685 H   0  0  0  0  0  0  0  0  0  0  0  0
  137.2983   79.6487  221.0685 H   0  0  0  0  0  0  0  0  0  0  0  0
  138.4186   77.9587  223.8210 H   0  0  0  0  0  0  0  0  0  0  0  0
  137.4271   77.8727  222.3256 H   0  0  0  0  0  0  0  0  0  0  0  0
  139.1089   77.2417  222.3256 H   0  0  0  0  0  0  0  0  0  0  0  0
  139.7411   80.3379  224.5422 H   0  0  0  0  0  0  0  0  0  0  0  0
  142.0477   80.9474  225.1988 H   0  0  0  0  0  0  0  0  0  0  0  0
  143.8880   80.5576  223.5813 H   0  0  0  0  0  0  0  0  0  0  0  0
  143.4168   79.5972  221.3891 H   0  0  0  0  0  0  0  0  0  0  0  0
  139.9969   79.2544  220.2807 H   0  0  0  0  0  0  0  0  0  0  0  0
  141.7882   80.3624  218.9969 H   0  0  0  0  0  0  0  0  0  0  0  0
  143.0313   79.2818  219.5806 H   0  0  0  0  0  0  0  0  0  0  0  0
  141.1472   78.9388  217.3265 H   0  0  0  0  0  0  0  0  0  0  0  0
  142.5753   77.9491  217.7129 H   0  0  0  0  0  0  0  0  0  0  0  0
  139.7095   77.4942  218.3751 H   0  0  0  0  0  0  0  0  0  0  0  0
  140.9947   76.3118  218.2872 H   0  0  0  0  0  0  0  0  0  0  0  0
  140.0323   74.7275  219.8839 H   0  0  0  0  0  0  0  0  0  0  0  0
  141.8385   74.6586  220.0093 H   0  0  0  0  0  0  0  0  0  0  0  0
  141.1160   74.3320  222.6520 H   0  0  0  0  0  0  0  0  0  0  0  0
  139.1428   70.2602  221.7178 H   0  0  0  0  0  0  0  0  0  0  0  0
  138.9708   68.7934  223.6811 H   0  0  0  0  0  0  0  0  0  0  0  0
  139.4093   68.3978  226.0351 H   0  0  0  0  0  0  0  0  0  0  0  0
  141.4468   71.4109  228.2836 H   0  0  0  0  0  0  0  0  0  0  0  0
  141.5829   72.8172  226.2860 H   0  0  0  0  0  0  0  0  0  0  0  0
  1  2  1  0
  2  3  1  0
  2  4  1  0
  4  5  2  0
  5  6  1  0
  6  7  2  0
  7  8  1  0
  8  9  2  0
  9 10  1  0
 10 11  1  0
 11 12  1  0
 12 13  1  0
 13 14  1  0
 14 15  1  0
 15 16  2  0
 15 17  1  0
 17 18  1  0
 18 19  1  0
 19 20  2  0
 19 21  1  0
 21 22  2  0
 22 23  1  0
 23 24  2  0
 24 25  1  0
 25 26  2  0
 26 27  1  0
 26 28  1  0
 28 29  2  0
 29 30  1  0
 30 31  2  0
  9  4  1  0
 14 10  1  0
 31 21  1  0
 30 24  1  0
  1 32  1  0
  1 33  1  0
  1 34  1  0
  3 35  1  0
  3 36  1  0
  3 37  1  0
  5 38  1  0
  6 39  1  0
  7 40  1  0
  8 41  1  0
 10 42  1  6
 11 43  1  0
 11 44  1  0
 12 45  1  0
 12 46  1  0
 13 47  1  0
 13 48  1  0
 17 49  1  0
 17 50  1  0
 18 51  1  0
 22 52  1  0
 23 53  1  0
 25 54  1  0
 28 55  1  0
 29 56  1  0
M  END
>  <smiles>  (36) 
CN(C)c1ccccc1[C@H]1CCCN1C(=O)CNC(=O)c1ccc2cc(Cl)ccc2n1

>  <score_type>  (36) 
oracle

>  <origin>  (36) 
autodockgpu

>  <m_score__min__energy>  (36) 
-8.7300000000000004

>  <m_primary>  (36) 
energy

>  <rmsd>  (36) 
10.2192086786015

>  <m_score__min__rmsd>  (36) 
10.2192086786015

>  <meeko>  (36) 
{"free_energy": -7.84, "intermolecular_energy": -9.63, "internal_energy": -2.43, "cluster_size": 40, "cluster_id": 1, "rank_in_cluster": 32}

>  <energy>  (36) 
-7.71

>  <cluster_rmsd>  (36) 
1.17

>  <cluster>  (36) 
1

$$$$

     RDKit          3D

 56 59  0  0  0  0  0  0  0  0999 V2000
  144.6020   74.5030  220.4730 C   0  0  0  0  0  0  0  0  0  0  0  0
  143.4710   74.6140  219.5880 N   0  0  0  0  0  0  0  0  0  0  0  0
  142.5660   73.4830  219.5130 C   0  0  0  0  0  0  0  0  0  0  0  0
  143.1730   75.7400  218.7870 C   0  0  0  0  0  0  0  0  0  0  0  0
  143.6890   75.7140  217.4850 C   0  0  0  0  0  0  0  0  0  0  0  0
  143.4840   76.7490  216.6060 C   0  0  0  0  0  0  0  0  0  0  0  0
  142.7550   77.8200  217.0360 C   0  0  0  0  0  0  0  0  0  0  0  0
  142.2500   77.8420  218.3150 C   0  0  0  0  0  0  0  0  0  0  0  0
  142.4260   76.8320  219.2350 C   0  0  0  0  0  0  0  0  0  0  0  0
  141.9230   76.8660  220.5940 C   0  0  1  0  0  0  0  0  0  0  0  0
  141.7730   78.2680  221.1450 C   0  0  0  0  0  0  0  0  0  0  0  0
  140.9590   78.0430  222.3920 C   0  0  0  0  0  0  0  0  0  0  0  0
  140.4820   76.6220  222.3590 C   0  0  0  0  0  0  0  0  0  0  0  0
  140.6970   76.2360  220.9260 N   0  0  0  0  0  0  0  0  0  0  0  0
  139.7600   75.3970  220.3110 C   0  0  0  0  0  0  0  0  0  0  0  0
  140.0640   75.0580  219.0930 O   0  0  0  0  0  0  0  0  0  0  0  0
  138.5120   74.8550  220.8140 C   0  0  0  0  0  0  0  0  0  0  0  0
  138.7400   73.9100  221.9240 N   0  0  0  0  0  0  0  0  0  0  0  0
  139.4180   72.6880  221.6700 C   0  0  0  0  0  0  0  0  0  0  0  0
  139.8490   72.3460  220.5400 O   0  0  0  0  0  0  0  0  0  0  0  0
  139.6200   71.7820  222.7960 C   0  0  0  0  0  0  0  0  0  0  0  0
  139.2630   70.4410  222.7110 C   0  0  0  0  0  0  0  0  0  0  0  0
  139.4380   69.5560  223.7500 C   0  0  0  0  0  0  0  0  0  0  0  0
  139.9870   69.9970  224.9280 C   0  0  0  0  0  0  0  0  0  0  0  0
  140.1810   69.1420  225.9980 C   0  0  0  0  0  0  0  0  0  0  0  0
  140.7330   69.5980  227.1770 C   0  0  0  0  0  0  0  0  0  0  0  0
  140.9680   68.5050  228.5110 Cl  0  0  0  0  0  0  0  0  0  0  0  0
  141.0800   70.9310  227.2410 C   0  0  0  0  0  0  0  0  0  0  0  0
  140.8840   71.7770  226.1710 C   0  0  0  0  0  0  0  0  0  0  0  0
  140.3340   71.3420  224.9860 C   0  0  0  0  0  0  0  0  0  0  0  0
  140.1550   72.1870  223.9620 N   0  0  0  0  0  0  0  0  0  0  0  0
  144.2557   74.5370  221.5165 H   0  0  0  0  0  0  0  0  0  0  0  0
  145.1193   73.5498  220.2892 H   0  0  0  0  0  0  0  0  0  0  0  0
  145.2947   75.3375  220.2892 H   0  0  0  0  0  0  0  0  0  0  0  0
  142.3037   73.1552  220.5297 H   0  0  0  0  0  0  0  0  0  0  0  0
  141.6527   73.7792  218.9762 H   0  0  0  0  0  0  0  0  0  0  0  0
  143.0552   72.6569  218.9762 H   0  0  0  0  0  0  0  0  0  0  0  0
  144.2738   74.8416  217.1580 H   0  0  0  0  0  0  0  0  0  0  0  0
  143.8949   76.7160  215.5861 H   0  0  0  0  0  0  0  0  0  0  0  0
  142.5712   78.6668  216.3584 H   0  0  0  0  0  0  0  0  0  0  0  0
  141.6680   78.7230  218.6232 H   0  0  0  0  0  0  0  0  0  0  0  0
  142.7307   76.2659  221.0384 H   0  0  0  0  0  0  0  0  0  0  0  0
  142.7524   78.7082  221.3837 H   0  0  0  0  0  0  0  0  0  0  0  0
  141.3066   78.9695  220.4376 H   0  0  0  0  0  0  0  0  0  0  0  0
  141.5809   78.2113  223.2836 H   0  0  0  0  0  0  0  0  0  0  0  0
  140.1088   78.7396  222.4346 H   0  0  0  0  0  0  0  0  0  0  0  0
  141.0760   75.9883  223.0340 H   0  0  0  0  0  0  0  0  0  0  0  0
  139.4403   76.5031  222.6918 H   0  0  0  0  0  0  0  0  0  0  0  0
  137.8821   75.6823  221.1729 H   0  0  0  0  0  0  0  0  0  0  0  0
  138.0172   74.3120  219.9952 H   0  0  0  0  0  0  0  0  0  0  0  0
  138.4020   74.1410  222.8910 H   0  0  0  0  0  0  0  0  0  0  0  0
  138.8219   70.0718  221.7734 H   0  0  0  0  0  0  0  0  0  0  0  0
  139.1402   68.5031  223.6373 H   0  0  0  0  0  0  0  0  0  0  0  0
  139.8913   68.0847  225.9075 H   0  0  0  0  0  0  0  0  0  0  0  0
  141.5230   71.3278  228.1664 H   0  0  0  0  0  0  0  0  0  0  0  0
  141.1762   72.8332  226.2666 H   0  0  0  0  0  0  0  0  0  0  0  0
  1  2  1  0
  2  3  1  0
  2  4  1  0
  4  5  2  0
  5  6  1  0
  6  7  2  0
  7  8  1  0
  8  9  2  0
  9 10  1  0
 10 11  1  0
 11 12  1  0
 12 13  1  0
 13 14  1  0
 14 15  1  0
 15 16  2  0
 15 17  1  0
 17 18  1  0
 18 19  1  0
 19 20  2  0
 19 21  1  0
 21 22  2  0
 22 23  1  0
 23 24  2  0
 24 25  1  0
 25 26  2  0
 26 27  1  0
 26 28  1  0
 28 29  2  0
 29 30  1  0
 30 31  2  0
  9  4  1  0
 14 10  1  0
 31 21  1  0
 30 24  1  0
  1 32  1  0
  1 33  1  0
  1 34  1  0
  3 35  1  0
  3 36  1  0
  3 37  1  0
  5 38  1  0
  6 39  1  0
  7 40  1  0
  8 41  1  0
 10 42  1  1
 11 43  1  0
 11 44  1  0
 12 45  1  0
 12 46  1  0
 13 47  1  0
 13 48  1  0
 17 49  1  0
 17 50  1  0
 18 51  1  0
 22 52  1  0
 23 53  1  0
 25 54  1  0
 28 55  1  0
 29 56  1  0
M  END
>  <smiles>  (37) 
CN(C)c1ccccc1[C@H]1CCCN1C(=O)CNC(=O)c1ccc2cc(Cl)ccc2n1

>  <score_type>  (37) 
oracle

>  <origin>  (37) 
autodockgpu

>  <m_score__min__energy>  (37) 
-8.7300000000000004

>  <m_primary>  (37) 
energy

>  <rmsd>  (37) 
10.25910544050104

>  <m_score__min__rmsd>  (37) 
10.25910544050104

>  <meeko>  (37) 
{"free_energy": -7.74, "intermolecular_energy": -9.53, "internal_energy": -1.98, "cluster_size": 2, "cluster_id": 2, "rank_in_cluster": 1}

>  <energy>  (37) 
-7.69

>  <cluster_rmsd>  (37) 
1.55

>  <cluster>  (37) 
1

$$$$

     RDKit          3D

 56 59  0  0  0  0  0  0  0  0999 V2000
  137.8790   79.5620  220.9400 C   0  0  0  0  0  0  0  0  0  0  0  0
  138.6750   78.9280  221.9610 N   0  0  0  0  0  0  0  0  0  0  0  0
  138.0640   77.8480  222.7110 C   0  0  0  0  0  0  0  0  0  0  0  0
  140.0060   79.2760  222.2860 C   0  0  0  0  0  0  0  0  0  0  0  0
  140.1730   79.9930  223.4780 C   0  0  0  0  0  0  0  0  0  0  0  0
  141.4110   80.4030  223.9060 C   0  0  0  0  0  0  0  0  0  0  0  0
  142.4930   80.0930  223.1330 C   0  0  0  0  0  0  0  0  0  0  0  0
  142.3240   79.3890  221.9630 C   0  0  0  0  0  0  0  0  0  0  0  0
  141.1060   78.9540  221.4900 C   0  0  0  0  0  0  0  0  0  0  0  0
  140.9220   78.2400  220.2420 C   0  0  1  0  0  0  0  0  0  0  0  0
  142.1240   78.3110  219.3240 C   0  0  0  0  0  0  0  0  0  0  0  0
  141.8090   77.2610  218.2910 C   0  0  0  0  0  0  0  0  0  0  0  0
  140.6220   76.4930  218.7890 C   0  0  0  0  0  0  0  0  0  0  0  0
  140.5730   76.8660  220.2400 N   0  0  0  0  0  0  0  0  0  0  0  0
  140.1980   75.8890  221.1700 C   0  0  0  0  0  0  0  0  0  0  0  0
  140.7340   76.0340  222.3450 O   0  0  0  0  0  0  0  0  0  0  0  0
  139.3130   74.7480  221.0280 C   0  0  0  0  0  0  0  0  0  0  0  0
  139.4710   73.7960  222.1430 N   0  0  0  0  0  0  0  0  0  0  0  0
  139.4640   72.4020  221.8760 C   0  0  0  0  0  0  0  0  0  0  0  0
  139.3300   71.9080  220.7270 O   0  0  0  0  0  0  0  0  0  0  0  0
  139.6210   71.4960  223.0090 C   0  0  0  0  0  0  0  0  0  0  0  0
  139.1720   70.1810  222.9440 C   0  0  0  0  0  0  0  0  0  0  0  0
  139.3030   69.2970  223.9900 C   0  0  0  0  0  0  0  0  0  0  0  0
  139.8990   69.7120  225.1550 C   0  0  0  0  0  0  0  0  0  0  0  0
  140.0500   68.8580  226.2320 C   0  0  0  0  0  0  0  0  0  0  0  0
  140.6500   69.2870  227.3980 C   0  0  0  0  0  0  0  0  0  0  0  0
  140.8310   68.1940  228.7400 Cl  0  0  0  0  0  0  0  0  0  0  0  0
  141.0890   70.5940  227.4410 C   0  0  0  0  0  0  0  0  0  0  0  0
  140.9340   71.4400  226.3650 C   0  0  0  0  0  0  0  0  0  0  0  0
  140.3380   71.0310  225.1930 C   0  0  0  0  0  0  0  0  0  0  0  0
  140.2010   71.8750  224.1620 N   0  0  0  0  0  0  0  0  0  0  0  0
  137.1020   80.1809  221.4124 H   0  0  0  0  0  0  0  0  0  0  0  0
  138.5234   80.1970  220.3142 H   0  0  0  0  0  0  0  0  0  0  0  0
  137.4043   78.7919  220.3142 H   0  0  0  0  0  0  0  0  0  0  0  0
  138.1736   78.0418  223.7882 H   0  0  0  0  0  0  0  0  0  0  0  0
  136.9957   77.7837  222.4569 H   0  0  0  0  0  0  0  0  0  0  0  0
  138.5591   76.8992  222.4569 H   0  0  0  0  0  0  0  0  0  0  0  0
  139.2890   80.2336  224.0867 H   0  0  0  0  0  0  0  0  0  0  0  0
  141.5281   80.9649  224.8444 H   0  0  0  0  0  0  0  0  0  0  0  0
  143.5000   80.4062  223.4457 H   0  0  0  0  0  0  0  0  0  0  0  0
  143.2195   79.1588  221.3670 H   0  0  0  0  0  0  0  0  0  0  0  0
  140.0375   78.8034  219.9100 H   0  0  0  0  0  0  0  0  0  0  0  0
  142.2146   79.3062  218.8642 H   0  0  0  0  0  0  0  0  0  0  0  0
  143.0805   78.1440  219.8409 H   0  0  0  0  0  0  0  0  0  0  0  0
  141.5727   77.7380  217.3284 H   0  0  0  0  0  0  0  0  0  0  0  0
  142.6698   76.5937  218.1367 H   0  0  0  0  0  0  0  0  0  0  0  0
  139.7032   76.8017  218.2689 H   0  0  0  0  0  0  0  0  0  0  0  0
  140.7011   75.4090  218.6195 H   0  0  0  0  0  0  0  0  0  0  0  0
  138.2724   75.1039  221.0073 H   0  0  0  0  0  0  0  0  0  0  0  0
  139.5693   74.2282  220.0931 H   0  0  0  0  0  0  0  0  0  0  0  0
  139.5870   74.1500  223.1250 H   0  0  0  0  0  0  0  0  0  0  0  0
  138.6920   69.8333  222.0173 H   0  0  0  0  0  0  0  0  0  0  0  0
  138.9330   68.2656  223.8936 H   0  0  0  0  0  0  0  0  0  0  0  0
  139.6868   67.8223  226.1581 H   0  0  0  0  0  0  0  0  0  0  0  0
  141.5735   70.9689  228.3546 H   0  0  0  0  0  0  0  0  0  0  0  0
  141.2979   72.4750  226.4445 H   0  0  0  0  0  0  0  0  0  0  0  0
  1  2  1  0
  2  3  1  0
  2  4  1  0
  4  5  2  0
  5  6  1  0
  6  7  2  0
  7  8  1  0
  8  9  2  0
  9 10  1  0
 10 11  1  0
 11 12  1  0
 12 13  1  0
 13 14  1  0
 14 15  1  0
 15 16  2  0
 15 17  1  0
 17 18  1  0
 18 19  1  0
 19 20  2  0
 19 21  1  0
 21 22  2  0
 22 23  1  0
 23 24  2  0
 24 25  1  0
 25 26  2  0
 26 27  1  0
 26 28  1  0
 28 29  2  0
 29 30  1  0
 30 31  2  0
  9  4  1  0
 14 10  1  0
 31 21  1  0
 30 24  1  0
  1 32  1  0
  1 33  1  0
  1 34  1  0
  3 35  1  0
  3 36  1  0
  3 37  1  0
  5 38  1  0
  6 39  1  0
  7 40  1  0
  8 41  1  0
 10 42  1  6
 11 43  1  0
 11 44  1  0
 12 45  1  0
 12 46  1  0
 13 47  1  0
 13 48  1  0
 17 49  1  0
 17 50  1  0
 18 51  1  0
 22 52  1  0
 23 53  1  0
 25 54  1  0
 28 55  1  0
 29 56  1  0
M  END
>  <smiles>  (38) 
CN(C)c1ccccc1[C@H]1CCCN1C(=O)CNC(=O)c1ccc2cc(Cl)ccc2n1

>  <score_type>  (38) 
oracle

>  <origin>  (38) 
autodockgpu

>  <m_score__min__energy>  (38) 
-8.7300000000000004

>  <m_primary>  (38) 
energy

>  <rmsd>  (38) 
10.22424486189579

>  <m_score__min__rmsd>  (38) 
10.22424486189579

>  <meeko>  (38) 
{"free_energy": -8.48, "intermolecular_energy": -10.27, "internal_energy": -2.28, "cluster_size": 40, "cluster_id": 1, "rank_in_cluster": 5}

>  <energy>  (38) 
-7.68

>  <cluster_rmsd>  (38) 
1.59

>  <cluster>  (38) 
1

$$$$

     RDKit          3D

 56 59  0  0  0  0  0  0  0  0999 V2000
  142.2620   79.9480  218.7990 C   0  0  0  0  0  0  0  0  0  0  0  0
  141.2500   80.0610  219.8190 N   0  0  0  0  0  0  0  0  0  0  0  0
  140.0250   80.7560  219.4720 C   0  0  0  0  0  0  0  0  0  0  0  0
  141.3580   79.5470  221.1310 C   0  0  0  0  0  0  0  0  0  0  0  0
  141.5030   80.4990  222.1480 C   0  0  0  0  0  0  0  0  0  0  0  0
  141.6290   80.1360  223.4660 C   0  0  0  0  0  0  0  0  0  0  0  0
  141.6100   78.8050  223.7690 C   0  0  0  0  0  0  0  0  0  0  0  0
  141.4680   77.8720  222.7670 C   0  0  0  0  0  0  0  0  0  0  0  0
  141.3370   78.1840  221.4320 C   0  0  0  0  0  0  0  0  0  0  0  0
  141.2190   77.2030  220.3710 C   0  0  1  0  0  0  0  0  0  0  0  0
  142.4130   76.2770  220.2720 C   0  0  0  0  0  0  0  0  0  0  0  0
  141.9120   75.1960  219.3510 C   0  0  0  0  0  0  0  0  0  0  0  0
  140.4370   75.4060  219.1830 C   0  0  0  0  0  0  0  0  0  0  0  0
  140.1050   76.3280  220.3170 N   0  0  0  0  0  0  0  0  0  0  0  0
  138.8810   76.1640  220.9770 C   0  0  0  0  0  0  0  0  0  0  0  0
  138.5430   77.1630  221.7350 O   0  0  0  0  0  0  0  0  0  0  0  0
  137.9400   75.0590  220.9480 C   0  0  0  0  0  0  0  0  0  0  0  0
  138.2480   74.0570  221.9850 N   0  0  0  0  0  0  0  0  0  0  0  0
  138.8480   72.8270  221.6080 C   0  0  0  0  0  0  0  0  0  0  0  0
  139.1440   72.5240  220.4240 O   0  0  0  0  0  0  0  0  0  0  0  0
  139.1350   71.8630  222.6650 C   0  0  0  0  0  0  0  0  0  0  0  0
  138.5950   70.5810  222.6330 C   0  0  0  0  0  0  0  0  0  0  0  0
  138.8420   69.6450  223.6100 C   0  0  0  0  0  0  0  0  0  0  0  0
  139.6520   69.9700  224.6700 C   0  0  0  0  0  0  0  0  0  0  0  0
  139.9260   69.0610  225.6750 C   0  0  0  0  0  0  0  0  0  0  0  0
  140.7420   69.4000  226.7340 C   0  0  0  0  0  0  0  0  0  0  0  0
  141.0740   68.2390  227.9870 Cl  0  0  0  0  0  0  0  0  0  0  0  0
  141.2670   70.6760  226.7460 C   0  0  0  0  0  0  0  0  0  0  0  0
  140.9890   71.5770  225.7420 C   0  0  0  0  0  0  0  0  0  0  0  0
  140.1770   71.2580  224.6760 C   0  0  0  0  0  0  0  0  0  0  0  0
  139.9240   72.1540  223.7140 N   0  0  0  0  0  0  0  0  0  0  0  0
  143.2489   79.8378  219.2722 H   0  0  0  0  0  0  0  0  0  0  0  0
  142.0551   79.0674  218.1731 H   0  0  0  0  0  0  0  0  0  0  0  0
  142.2544   80.8526  218.1731 H   0  0  0  0  0  0  0  0  0  0  0  0
  139.4996   81.0541  220.3913 H   0  0  0  0  0  0  0  0  0  0  0  0
  140.2664   81.6516  218.8808 H   0  0  0  0  0  0  0  0  0  0  0  0
  139.3800   80.0893  218.8808 H   0  0  0  0  0  0  0  0  0  0  0  0
  141.5163   81.5666  221.8835 H   0  0  0  0  0  0  0  0  0  0  0  0
  141.7419   80.8949  224.2543 H   0  0  0  0  0  0  0  0  0  0  0  0
  141.7082   78.4779  224.8146 H   0  0  0  0  0  0  0  0  0  0  0  0
  141.4585   76.8092  223.0507 H   0  0  0  0  0  0  0  0  0  0  0  0
  141.1090   77.9255  219.5488 H   0  0  0  0  0  0  0  0  0  0  0  0
  143.2828   76.7946  219.8412 H   0  0  0  0  0  0  0  0  0  0  0  0
  142.7563   75.8986  221.2462 H   0  0  0  0  0  0  0  0  0  0  0  0
  142.4164   75.2676  218.3761 H   0  0  0  0  0  0  0  0  0  0  0  0
  142.1198   74.1997  219.7684 H   0  0  0  0  0  0  0  0  0  0  0  0
  140.2106   75.8726  218.2129 H   0  0  0  0  0  0  0  0  0  0  0  0
  139.8583   74.4707  219.1967 H   0  0  0  0  0  0  0  0  0  0  0  0
  136.9258   75.4492  221.1185 H   0  0  0  0  0  0  0  0  0  0  0  0
  138.0127   74.5706  219.9650 H   0  0  0  0  0  0  0  0  0  0  0  0
  138.0240   74.2540  222.9920 H   0  0  0  0  0  0  0  0  0  0  0  0
  137.9433   70.3046  221.7911 H   0  0  0  0  0  0  0  0  0  0  0  0
  138.3936   68.6428  223.5427 H   0  0  0  0  0  0  0  0  0  0  0  0
  139.4871   68.0534  225.6294 H   0  0  0  0  0  0  0  0  0  0  0  0
  141.9220   70.9804  227.5757 H   0  0  0  0  0  0  0  0  0  0  0  0
  141.4295   72.5836  225.7931 H   0  0  0  0  0  0  0  0  0  0  0  0
  1  2  1  0
  2  3  1  0
  2  4  1  0
  4  5  2  0
  5  6  1  0
  6  7  2  0
  7  8  1  0
  8  9  2  0
  9 10  1  0
 10 11  1  0
 11 12  1  0
 12 13  1  0
 13 14  1  0
 14 15  1  0
 15 16  2  0
 15 17  1  0
 17 18  1  0
 18 19  1  0
 19 20  2  0
 19 21  1  0
 21 22  2  0
 22 23  1  0
 23 24  2  0
 24 25  1  0
 25 26  2  0
 26 27  1  0
 26 28  1  0
 28 29  2  0
 29 30  1  0
 30 31  2  0
  9  4  1  0
 14 10  1  0
 31 21  1  0
 30 24  1  0
  1 32  1  0
  1 33  1  0
  1 34  1  0
  3 35  1  0
  3 36  1  0
  3 37  1  0
  5 38  1  0
  6 39  1  0
  7 40  1  0
  8 41  1  0
 10 42  1  6
 11 43  1  0
 11 44  1  0
 12 45  1  0
 12 46  1  0
 13 47  1  0
 13 48  1  0
 17 49  1  0
 17 50  1  0
 18 51  1  0
 22 52  1  0
 23 53  1  0
 25 54  1  0
 28 55  1  0
 29 56  1  0
M  END
>  <smiles>  (39) 
CN(C)c1ccccc1[C@H]1CCCN1C(=O)CNC(=O)c1ccc2cc(Cl)ccc2n1

>  <score_type>  (39) 
oracle

>  <origin>  (39) 
autodockgpu

>  <m_score__min__energy>  (39) 
-8.7300000000000004

>  <m_primary>  (39) 
energy

>  <rmsd>  (39) 
9.736513931708147

>  <m_score__min__rmsd>  (39) 
9.736513931708147

>  <meeko>  (39) 
{"free_energy": -7.68, "intermolecular_energy": -9.47, "internal_energy": -1.83, "cluster_size": 40, "cluster_id": 1, "rank_in_cluster": 38}

>  <energy>  (39) 
-7.65

>  <cluster_rmsd>  (39) 
1.45

>  <cluster>  (39) 
1

$$$$

     RDKit          3D

 56 59  0  0  0  0  0  0  0  0999 V2000
  140.5090   76.3020  218.6980 C   0  0  0  0  0  0  0  0  0  0  0  0
  141.6480   75.7470  219.3850 N   0  0  0  0  0  0  0  0  0  0  0  0
  142.8960   76.4830  219.3130 C   0  0  0  0  0  0  0  0  0  0  0  0
  141.6440   74.5430  220.1250 C   0  0  0  0  0  0  0  0  0  0  0  0
  142.2990   73.4590  219.5260 C   0  0  0  0  0  0  0  0  0  0  0  0
  142.3600   72.2280  220.1320 C   0  0  0  0  0  0  0  0  0  0  0  0
  141.7580   72.0810  221.3490 C   0  0  0  0  0  0  0  0  0  0  0  0
  141.1160   73.1480  221.9330 C   0  0  0  0  0  0  0  0  0  0  0  0
  141.0270   74.4020  221.3700 C   0  0  0  0  0  0  0  0  0  0  0  0
  140.3230   75.5190  221.9670 C   0  0  1  0  0  0  0  0  0  0  0  0
  141.0550   76.8370  221.8280 C   0  0  0  0  0  0  0  0  0  0  0  0
  140.0020   77.8380  222.2220 C   0  0  0  0  0  0  0  0  0  0  0  0
  138.7000   77.1010  222.3120 C   0  0  0  0  0  0  0  0  0  0  0  0
  138.9940   75.8250  221.5800 N   0  0  0  0  0  0  0  0  0  0  0  0
  137.9850   75.2590  220.7910 C   0  0  0  0  0  0  0  0  0  0  0  0
  137.3980   76.0970  219.9900 O   0  0  0  0  0  0  0  0  0  0  0  0
  137.4960   73.8950  220.7300 C   0  0  0  0  0  0  0  0  0  0  0  0
  137.9630   73.0990  221.8810 N   0  0  0  0  0  0  0  0  0  0  0  0
  138.0840   71.6910  221.7520 C   0  0  0  0  0  0  0  0  0  0  0  0
  137.8160   71.0570  220.6990 O   0  0  0  0  0  0  0  0  0  0  0  0
  138.5470   70.9430  222.9160 C   0  0  0  0  0  0  0  0  0  0  0  0
  138.2990   69.5800  223.0380 C   0  0  0  0  0  0  0  0  0  0  0  0
  138.7200   68.8400  224.1200 C   0  0  0  0  0  0  0  0  0  0  0  0
  139.4150   69.4560  225.1300 C   0  0  0  0  0  0  0  0  0  0  0  0
  139.8570   68.7520  226.2360 C   0  0  0  0  0  0  0  0  0  0  0  0
  140.5550   69.3820  227.2440 C   0  0  0  0  0  0  0  0  0  0  0  0
  141.1020   68.4760  228.6260 Cl  0  0  0  0  0  0  0  0  0  0  0  0
  140.7920   70.7340  227.1020 C   0  0  0  0  0  0  0  0  0  0  0  0
  140.3480   71.4290  225.9990 C   0  0  0  0  0  0  0  0  0  0  0  0
  139.6500   70.8190  224.9810 C   0  0  0  0  0  0  0  0  0  0  0  0
  139.2310   71.5200  223.9200 N   0  0  0  0  0  0  0  0  0  0  0  0
  139.7749   76.6597  219.4349 H   0  0  0  0  0  0  0  0  0  0  0  0
  140.8349   77.1423  218.0674 H   0  0  0  0  0  0  0  0  0  0  0  0
  140.0480   75.5275  218.0674 H   0  0  0  0  0  0  0  0  0  0  0  0
  143.2558   76.6952  220.3306 H   0  0  0  0  0  0  0  0  0  0  0  0
  143.6455   75.8823  218.7769 H   0  0  0  0  0  0  0  0  0  0  0  0
  142.7330   77.4296  218.7769 H   0  0  0  0  0  0  0  0  0  0  0  0
  142.7768   73.5974  218.5449 H   0  0  0  0  0  0  0  0  0  0  0  0
  142.8785   71.3853  219.6513 H   0  0  0  0  0  0  0  0  0  0  0  0
  141.7866   71.1086  221.8625 H   0  0  0  0  0  0  0  0  0  0  0  0
  140.6429   72.9897  222.9134 H   0  0  0  0  0  0  0  0  0  0  0  0
  140.2813   75.1053  222.9854 H   0  0  0  0  0  0  0  0  0  0  0  0
  141.9210   76.8840  222.5046 H   0  0  0  0  0  0  0  0  0  0  0  0
  141.4660   77.0062  220.8218 H   0  0  0  0  0  0  0  0  0  0  0  0
  140.2511   78.2829  223.1967 H   0  0  0  0  0  0  0  0  0  0  0  0
  139.9401   78.6503  221.4829 H   0  0  0  0  0  0  0  0  0  0  0  0
  138.4269   76.9040  223.3592 H   0  0  0  0  0  0  0  0  0  0  0  0
  137.8511   77.6603  221.8919 H   0  0  0  0  0  0  0  0  0  0  0  0
  136.3961   73.9097  220.7288 H   0  0  0  0  0  0  0  0  0  0  0  0
  137.8835   73.4312  219.8109 H   0  0  0  0  0  0  0  0  0  0  0  0
  138.2020   73.5730  222.7870 H   0  0  0  0  0  0  0  0  0  0  0  0
  137.7431   69.0718  222.2363 H   0  0  0  0  0  0  0  0  0  0  0  0
  138.5009   67.7634  224.1743 H   0  0  0  0  0  0  0  0  0  0  0  0
  139.6485   67.6746  226.3120 H   0  0  0  0  0  0  0  0  0  0  0  0
  141.3476   71.2682  227.8868 H   0  0  0  0  0  0  0  0  0  0  0  0
  140.5579   72.5065  225.9291 H   0  0  0  0  0  0  0  0  0  0  0  0
  1  2  1  0
  2  3  1  0
  2  4  1  0
  4  5  2  0
  5  6  1  0
  6  7  2  0
  7  8  1  0
  8  9  2  0
  9 10  1  0
 10 11  1  0
 11 12  1  0
 12 13  1  0
 13 14  1  0
 14 15  1  0
 15 16  2  0
 15 17  1  0
 17 18  1  0
 18 19  1  0
 19 20  2  0
 19 21  1  0
 21 22  2  0
 22 23  1  0
 23 24  2  0
 24 25  1  0
 25 26  2  0
 26 27  1  0
 26 28  1  0
 28 29  2  0
 29 30  1  0
 30 31  2  0
  9  4  1  0
 14 10  1  0
 31 21  1  0
 30 24  1  0
  1 32  1  0
  1 33  1  0
  1 34  1  0
  3 35  1  0
  3 36  1  0
  3 37  1  0
  5 38  1  0
  6 39  1  0
  7 40  1  0
  8 41  1  0
 10 42  1  1
 11 43  1  0
 11 44  1  0
 12 45  1  0
 12 46  1  0
 13 47  1  0
 13 48  1  0
 17 49  1  0
 17 50  1  0
 18 51  1  0
 22 52  1  0
 23 53  1  0
 25 54  1  0
 28 55  1  0
 29 56  1  0
M  END
>  <smiles>  (40) 
CN(C)c1ccccc1[C@H]1CCCN1C(=O)CNC(=O)c1ccc2cc(Cl)ccc2n1

>  <score_type>  (40) 
oracle

>  <origin>  (40) 
autodockgpu

>  <m_score__min__energy>  (40) 
-8.7300000000000004

>  <m_primary>  (40) 
energy

>  <rmsd>  (40) 
9.03779209189917

>  <m_score__min__rmsd>  (40) 
9.03779209189917

>  <meeko>  (40) 
{"free_energy": -6.85, "intermolecular_energy": -8.64, "internal_energy": -2.42, "cluster_size": 2, "cluster_id": 2, "rank_in_cluster": 2}

>  <energy>  (40) 
-7.44

>  <cluster_rmsd>  (40) 
1.46

>  <cluster>  (40) 
1

$$$$

     RDKit          3D

 56 59  0  0  0  0  0  0  0  0999 V2000
  138.2680   77.6730  222.7040 C   0  0  0  0  0  0  0  0  0  0  0  0
  138.9440   78.8550  222.2320 N   0  0  0  0  0  0  0  0  0  0  0  0
  138.1890   79.7690  221.3960 C   0  0  0  0  0  0  0  0  0  0  0  0
  140.2850   79.1940  222.5210 C   0  0  0  0  0  0  0  0  0  0  0  0
  140.5150   79.7380  223.7910 C   0  0  0  0  0  0  0  0  0  0  0  0
  141.7700   80.1220  224.1960 C   0  0  0  0  0  0  0  0  0  0  0  0
  142.8050   79.9590  223.3200 C   0  0  0  0  0  0  0  0  0  0  0  0
  142.5750   79.4240  222.0740 C   0  0  0  0  0  0  0  0  0  0  0  0
  141.3380   79.0230  221.6190 C   0  0  0  0  0  0  0  0  0  0  0  0
  141.0870   78.4900  220.2950 C   0  0  1  0  0  0  0  0  0  0  0  0
  142.1720   78.8260  219.2940 C   0  0  0  0  0  0  0  0  0  0  0  0
  141.8460   77.9160  218.1400 C   0  0  0  0  0  0  0  0  0  0  0  0
  140.7940   76.9590  218.6140 C   0  0  0  0  0  0  0  0  0  0  0  0
  140.8670   77.1020  220.1050 N   0  0  0  0  0  0  0  0  0  0  0  0
  140.6840   75.9620  220.8970 C   0  0  0  0  0  0  0  0  0  0  0  0
  140.7540   76.1820  222.1760 O   0  0  0  0  0  0  0  0  0  0  0  0
  140.4330   74.5850  220.5150 C   0  0  0  0  0  0  0  0  0  0  0  0
  140.4660   73.6840  221.6830 N   0  0  0  0  0  0  0  0  0  0  0  0
  139.8770   72.3970  221.5870 C   0  0  0  0  0  0  0  0  0  0  0  0
  139.3150   71.9570  220.5510 O   0  0  0  0  0  0  0  0  0  0  0  0
  139.9310   71.5390  222.7660 C   0  0  0  0  0  0  0  0  0  0  0  0
  139.4340   70.2400  222.7320 C   0  0  0  0  0  0  0  0  0  0  0  0
  139.4680   69.4020  223.8230 C   0  0  0  0  0  0  0  0  0  0  0  0
  140.0100   69.8480  225.0020 C   0  0  0  0  0  0  0  0  0  0  0  0
  140.0630   69.0390  226.1230 C   0  0  0  0  0  0  0  0  0  0  0  0
  140.6100   69.4990  227.3030 C   0  0  0  0  0  0  0  0  0  0  0  0
  140.6680   68.4650  228.7010 Cl  0  0  0  0  0  0  0  0  0  0  0  0
  141.0970   70.7900  227.3140 C   0  0  0  0  0  0  0  0  0  0  0  0
  141.0400   71.5900  226.1950 C   0  0  0  0  0  0  0  0  0  0  0  0
  140.4980   71.1500  225.0080 C   0  0  0  0  0  0  0  0  0  0  0  0
  140.4560   71.9500  223.9350 N   0  0  0  0  0  0  0  0  0  0  0  0
  138.2646   77.6671  223.8040 H   0  0  0  0  0  0  0  0  0  0  0  0
  137.2321   77.6707  222.3341 H   0  0  0  0  0  0  0  0  0  0  0  0
  138.7913   76.7789  222.3341 H   0  0  0  0  0  0  0  0  0  0  0  0
  137.6175   80.4608  222.0322 H   0  0  0  0  0  0  0  0  0  0  0  0
  138.8809   80.3416  220.7609 H   0  0  0  0  0  0  0  0  0  0  0  0
  137.4960   79.1976  220.7609 H   0  0  0  0  0  0  0  0  0  0  0  0
  139.6682   79.8609  224.4823 H   0  0  0  0  0  0  0  0  0  0  0  0
  141.9365   80.5482  225.1963 H   0  0  0  0  0  0  0  0  0  0  0  0
  143.8234   80.2558  223.6112 H   0  0  0  0  0  0  0  0  0  0  0  0
  143.4343   79.3089  221.3970 H   0  0  0  0  0  0  0  0  0  0  0  0
  140.1246   78.9996  220.1398 H   0  0  0  0  0  0  0  0  0  0  0  0
  142.1214   79.8828  218.9931 H   0  0  0  0  0  0  0  0  0  0  0  0
  143.1896   78.6864  219.6878 H   0  0  0  0  0  0  0  0  0  0  0  0
  141.4658   78.5043  217.2918 H   0  0  0  0  0  0  0  0  0  0  0  0
  142.7429   77.3753  217.8035 H   0  0  0  0  0  0  0  0  0  0  0  0
  139.8005   77.2425  218.2364 H   0  0  0  0  0  0  0  0  0  0  0  0
  140.9529   75.9277  218.2658 H   0  0  0  0  0  0  0  0  0  0  0  0
  139.4420   74.5205  220.0420 H   0  0  0  0  0  0  0  0  0  0  0  0
  141.2224   74.2719  219.8158 H   0  0  0  0  0  0  0  0  0  0  0  0
  140.9220   73.9960  222.5760 H   0  0  0  0  0  0  0  0  0  0  0  0
  138.9958   69.8674  221.7943 H   0  0  0  0  0  0  0  0  0  0  0  0
  139.0635   68.3817  223.7504 H   0  0  0  0  0  0  0  0  0  0  0  0
  139.6637   68.0153  226.0728 H   0  0  0  0  0  0  0  0  0  0  0  0
  141.5409   71.1891  228.2379 H   0  0  0  0  0  0  0  0  0  0  0  0
  141.4401   72.6131  226.2509 H   0  0  0  0  0  0  0  0  0  0  0  0
  1  2  1  0
  2  3  1  0
  2  4  1  0
  4  5  2  0
  5  6  1  0
  6  7  2  0
  7  8  1  0
  8  9  2  0
  9 10  1  0
 10 11  1  0
 11 12  1  0
 12 13  1  0
 13 14  1  0
 14 15  1  0
 15 16  2  0
 15 17  1  0
 17 18  1  0
 18 19  1  0
 19 20  2  0
 19 21  1  0
 21 22  2  0
 22 23  1  0
 23 24  2  0
 24 25  1  0
 25 26  2  0
 26 27  1  0
 26 28  1  0
 28 29  2  0
 29 30  1  0
 30 31  2  0
  9  4  1  0
 14 10  1  0
 31 21  1  0
 30 24  1  0
  1 32  1  0
  1 33  1  0
  1 34  1  0
  3 35  1  0
  3 36  1  0
  3 37  1  0
  5 38  1  0
  6 39  1  0
  7 40  1  0
  8 41  1  0
 10 42  1  6
 11 43  1  0
 11 44  1  0
 12 45  1  0
 12 46  1  0
 13 47  1  0
 13 48  1  0
 17 49  1  0
 17 50  1  0
 18 51  1  0
 22 52  1  0
 23 53  1  0
 25 54  1  0
 28 55  1  0
 29 56  1  0
M  END
>  <smiles>  (41) 
CN(C)c1ccccc1[C@H]1CCCN1C(=O)CNC(=O)c1ccc2cc(Cl)ccc2n1

>  <score_type>  (41) 
oracle

>  <origin>  (41) 
autodockgpu

>  <m_score__min__energy>  (41) 
-8.7300000000000004

>  <m_primary>  (41) 
energy

>  <rmsd>  (41) 
10.175802597563424

>  <m_score__min__rmsd>  (41) 
10.175802597563424

>  <meeko>  (41) 
{"free_energy": -7.85, "intermolecular_energy": -9.64, "internal_energy": -2.39, "cluster_size": 40, "cluster_id": 1, "rank_in_cluster": 30}

>  <energy>  (41) 
-7.74

>  <cluster_rmsd>  (41) 
0.0

>  <cluster>  (41) 
2

$$$$

     RDKit          3D

 56 59  0  0  0  0  0  0  0  0999 V2000
  138.2490   77.0060  222.7210 C   0  0  0  0  0  0  0  0  0  0  0  0
  138.7520   78.2570  222.2110 N   0  0  0  0  0  0  0  0  0  0  0  0
  137.8700   79.0400  221.3670 C   0  0  0  0  0  0  0  0  0  0  0  0
  140.0390   78.7810  222.4710 C   0  0  0  0  0  0  0  0  0  0  0  0
  140.2090   79.3840  223.7240 C   0  0  0  0  0  0  0  0  0  0  0  0
  141.4050   79.9430  224.1000 C   0  0  0  0  0  0  0  0  0  0  0  0
  142.4410   79.8990  223.2120 C   0  0  0  0  0  0  0  0  0  0  0  0
  142.2710   79.3060  221.9830 C   0  0  0  0  0  0  0  0  0  0  0  0
  141.0940   78.7310  221.5570 C   0  0  0  0  0  0  0  0  0  0  0  0
  140.9010   78.1350  220.2500 C   0  0  1  0  0  0  0  0  0  0  0  0
  141.9890   78.4910  219.2590 C   0  0  0  0  0  0  0  0  0  0  0  0
  141.7370   77.5210  218.1350 C   0  0  0  0  0  0  0  0  0  0  0  0
  140.7270   76.5270  218.6250 C   0  0  0  0  0  0  0  0  0  0  0  0
  140.7600   76.7310  220.1100 N   0  0  0  0  0  0  0  0  0  0  0  0
  140.6200   75.6130  220.9430 C   0  0  0  0  0  0  0  0  0  0  0  0
  141.3980   75.6210  221.9840 O   0  0  0  0  0  0  0  0  0  0  0  0
  139.7520   74.4570  220.8230 C   0  0  0  0  0  0  0  0  0  0  0  0
  139.9340   73.5240  221.9510 N   0  0  0  0  0  0  0  0  0  0  0  0
  139.2400   72.2860  221.9500 C   0  0  0  0  0  0  0  0  0  0  0  0
  138.4620   71.9180  221.0330 O   0  0  0  0  0  0  0  0  0  0  0  0
  139.4470   71.3940  223.0870 C   0  0  0  0  0  0  0  0  0  0  0  0
  139.0060   70.0750  223.0540 C   0  0  0  0  0  0  0  0  0  0  0  0
  139.1830   69.2040  224.1040 C   0  0  0  0  0  0  0  0  0  0  0  0
  139.8190   69.6370  225.2410 C   0  0  0  0  0  0  0  0  0  0  0  0
  140.0180   68.7960  226.3210 C   0  0  0  0  0  0  0  0  0  0  0  0
  140.6590   69.2420  227.4580 C   0  0  0  0  0  0  0  0  0  0  0  0
  140.8990   68.1670  228.8040 Cl  0  0  0  0  0  0  0  0  0  0  0  0
  141.0880   70.5530  227.4690 C   0  0  0  0  0  0  0  0  0  0  0  0
  140.8860   71.3850  226.3900 C   0  0  0  0  0  0  0  0  0  0  0  0
  140.2490   70.9590  225.2470 C   0  0  0  0  0  0  0  0  0  0  0  0
  140.0670   71.7900  224.2130 N   0  0  0  0  0  0  0  0  0  0  0  0
  138.2579   77.0282  223.8207 H   0  0  0  0  0  0  0  0  0  0  0  0
  137.2193   76.8526  222.3657 H   0  0  0  0  0  0  0  0  0  0  0  0
  138.8859   76.1825  222.3657 H   0  0  0  0  0  0  0  0  0  0  0  0
  137.1957   79.6386  221.9970 H   0  0  0  0  0  0  0  0  0  0  0  0
  138.4689   79.7093  220.7319 H   0  0  0  0  0  0  0  0  0  0  0  0
  137.2764   78.3660  220.7319 H   0  0  0  0  0  0  0  0  0  0  0  0
  139.3617   79.4102  224.4250 H   0  0  0  0  0  0  0  0  0  0  0  0
  141.5251   80.4125  225.0875 H   0  0  0  0  0  0  0  0  0  0  0  0
  143.4131   80.3385  223.4800 H   0  0  0  0  0  0  0  0  0  0  0  0
  143.1300   79.2898  221.2961 H   0  0  0  0  0  0  0  0  0  0  0  0
  139.9163   78.5850  220.0556 H   0  0  0  0  0  0  0  0  0  0  0  0
  141.8892   79.5314  218.9160 H   0  0  0  0  0  0  0  0  0  0  0  0
  143.0036   78.4219  219.6784 H   0  0  0  0  0  0  0  0  0  0  0  0
  141.3448   78.0552  217.2570 H   0  0  0  0  0  0  0  0  0  0  0  0
  142.6685   77.0170  217.8380 H   0  0  0  0  0  0  0  0  0  0  0  0
  139.7283   76.7418  218.2169 H   0  0  0  0  0  0  0  0  0  0  0  0
  140.9477   75.4932  218.3207 H   0  0  0  0  0  0  0  0  0  0  0  0
  138.7057   74.7961  220.8051 H   0  0  0  0  0  0  0  0  0  0  0  0
  140.0086   73.9281  219.8932 H   0  0  0  0  0  0  0  0  0  0  0  0
  140.5710   73.7760  222.7470 H   0  0  0  0  0  0  0  0  0  0  0  0
  138.4941   69.7132  222.1501 H   0  0  0  0  0  0  0  0  0  0  0  0
  138.8178   68.1688  224.0331 H   0  0  0  0  0  0  0  0  0  0  0  0
  139.6601   67.7570  226.2724 H   0  0  0  0  0  0  0  0  0  0  0  0
  141.6030   70.9427  228.3595 H   0  0  0  0  0  0  0  0  0  0  0  0
  141.2454   72.4232  226.4437 H   0  0  0  0  0  0  0  0  0  0  0  0
  1  2  1  0
  2  3  1  0
  2  4  1  0
  4  5  2  0
  5  6  1  0
  6  7  2  0
  7  8  1  0
  8  9  2  0
  9 10  1  0
 10 11  1  0
 11 12  1  0
 12 13  1  0
 13 14  1  0
 14 15  1  0
 15 16  2  0
 15 17  1  0
 17 18  1  0
 18 19  1  0
 19 20  2  0
 19 21  1  0
 21 22  2  0
 22 23  1  0
 23 24  2  0
 24 25  1  0
 25 26  2  0
 26 27  1  0
 26 28  1  0
 28 29  2  0
 29 30  1  0
 30 31  2  0
  9  4  1  0
 14 10  1  0
 31 21  1  0
 30 24  1  0
  1 32  1  0
  1 33  1  0
  1 34  1  0
  3 35  1  0
  3 36  1  0
  3 37  1  0
  5 38  1  0
  6 39  1  0
  7 40  1  0
  8 41  1  0
 10 42  1  6
 11 43  1  0
 11 44  1  0
 12 45  1  0
 12 46  1  0
 13 47  1  0
 13 48  1  0
 17 49  1  0
 17 50  1  0
 18 51  1  0
 22 52  1  0
 23 53  1  0
 25 54  1  0
 28 55  1  0
 29 56  1  0
M  END
>  <smiles>  (42) 
CN(C)c1ccccc1[C@H]1CCCN1C(=O)CNC(=O)c1ccc2cc(Cl)ccc2n1

>  <score_type>  (42) 
oracle

>  <origin>  (42) 
autodockgpu

>  <m_score__min__energy>  (42) 
-8.7300000000000004

>  <m_primary>  (42) 
energy

>  <rmsd>  (42) 
10.157901396400922

>  <m_score__min__rmsd>  (42) 
10.157901396400922

>  <meeko>  (42) 
{"free_energy": -7.86, "intermolecular_energy": -9.65, "internal_energy": -2.51, "cluster_size": 40, "cluster_id": 1, "rank_in_cluster": 29}

>  <energy>  (42) 
-6.85

>  <cluster_rmsd>  (42) 
1.76

>  <cluster>  (42) 
2

$$$$

     RDKit          3D

 56 59  0  0  0  0  0  0  0  0999 V2000
  139.0320   80.7150  219.4760 C   0  0  0  0  0  0  0  0  0  0  0  0
  140.4280   80.7330  219.8340 N   0  0  0  0  0  0  0  0  0  0  0  0
  141.3500   81.3500  218.9010 C   0  0  0  0  0  0  0  0  0  0  0  0
  140.9680   80.1960  221.0250 C   0  0  0  0  0  0  0  0  0  0  0  0
  141.1230   81.0990  222.0840 C   0  0  0  0  0  0  0  0  0  0  0  0
  141.6470   80.7120  223.2920 C   0  0  0  0  0  0  0  0  0  0  0  0
  142.0200   79.4070  223.4420 C   0  0  0  0  0  0  0  0  0  0  0  0
  141.8660   78.5230  222.3990 C   0  0  0  0  0  0  0  0  0  0  0  0
  141.3460   78.8590  221.1690 C   0  0  0  0  0  0  0  0  0  0  0  0
  141.2130   77.9380  220.0580 C   0  0  1  0  0  0  0  0  0  0  0  0
  142.5200   77.6590  219.3470 C   0  0  0  0  0  0  0  0  0  0  0  0
  142.1760   76.4730  218.4850 C   0  0  0  0  0  0  0  0  0  0  0  0
  140.8250   75.9880  218.9170 C   0  0  0  0  0  0  0  0  0  0  0  0
  140.6480   76.6520  220.2500 N   0  0  0  0  0  0  0  0  0  0  0  0
  140.0000   75.9440  221.2690 C   0  0  0  0  0  0  0  0  0  0  0  0
  140.2660   76.3680  222.4680 O   0  0  0  0  0  0  0  0  0  0  0  0
  139.0870   74.8180  221.1970 C   0  0  0  0  0  0  0  0  0  0  0  0
  139.3460   73.8410  222.2700 N   0  0  0  0  0  0  0  0  0  0  0  0
  139.2390   72.4530  221.9900 C   0  0  0  0  0  0  0  0  0  0  0  0
  138.9330   71.9860  220.8630 O   0  0  0  0  0  0  0  0  0  0  0  0
  139.5010   71.5210  223.0820 C   0  0  0  0  0  0  0  0  0  0  0  0
  139.2320   70.1630  222.9460 C   0  0  0  0  0  0  0  0  0  0  0  0
  139.4660   69.2540  223.9520 C   0  0  0  0  0  0  0  0  0  0  0  0
  139.9860   69.6850  225.1460 C   0  0  0  0  0  0  0  0  0  0  0  0
  140.2360   68.8060  226.1850 C   0  0  0  0  0  0  0  0  0  0  0  0
  140.7580   69.2530  227.3800 C   0  0  0  0  0  0  0  0  0  0  0  0
  141.0660   68.1290  228.6730 Cl  0  0  0  0  0  0  0  0  0  0  0  0
  141.0180   70.6030  227.4930 C   0  0  0  0  0  0  0  0  0  0  0  0
  140.7660   71.4730  226.4560 C   0  0  0  0  0  0  0  0  0  0  0  0
  140.2450   71.0480  225.2550 C   0  0  0  0  0  0  0  0  0  0  0  0
  140.0090   71.9160  224.2630 N   0  0  0  0  0  0  0  0  0  0  0  0
  138.4193   80.7071  220.3895 H   0  0  0  0  0  0  0  0  0  0  0  0
  138.7941   81.6101  218.8826 H   0  0  0  0  0  0  0  0  0  0  0  0
  138.8172   79.8140  218.8826 H   0  0  0  0  0  0  0  0  0  0  0  0
  142.1380   81.8773  219.4587 H   0  0  0  0  0  0  0  0  0  0  0  0
  141.8054   80.5740  218.2681 H   0  0  0  0  0  0  0  0  0  0  0  0
  140.8063   82.0669  218.2681 H   0  0  0  0  0  0  0  0  0  0  0  0
  140.8167   82.1462  221.9440 H   0  0  0  0  0  0  0  0  0  0  0  0
  141.7631   81.4321  224.1154 H   0  0  0  0  0  0  0  0  0  0  0  0
  142.4437   79.0624  224.3969 H   0  0  0  0  0  0  0  0  0  0  0  0
  142.1785   77.4804  222.5580 H   0  0  0  0  0  0  0  0  0  0  0  0
  140.4836   78.5354  219.4914 H   0  0  0  0  0  0  0  0  0  0  0  0
  142.8308   78.5185  218.7348 H   0  0  0  0  0  0  0  0  0  0  0  0
  143.3607   77.4740  220.0318 H   0  0  0  0  0  0  0  0  0  0  0  0
  142.1485   76.7716  217.4267 H   0  0  0  0  0  0  0  0  0  0  0  0
  142.9293   75.6790  218.5946 H   0  0  0  0  0  0  0  0  0  0  0  0
  140.0447   76.3046  218.2092 H   0  0  0  0  0  0  0  0  0  0  0  0
  140.7481   74.8916  218.9615 H   0  0  0  0  0  0  0  0  0  0  0  0
  138.0555   75.1880  221.2922 H   0  0  0  0  0  0  0  0  0  0  0  0
  139.2359   74.3152  220.2301 H   0  0  0  0  0  0  0  0  0  0  0  0
  139.6060   74.1710  223.2330 H   0  0  0  0  0  0  0  0  0  0  0  0
  138.8149   69.8009  221.9947 H   0  0  0  0  0  0  0  0  0  0  0  0
  139.2376   68.1888  223.7998 H   0  0  0  0  0  0  0  0  0  0  0  0
  140.0152   67.7362  226.0557 H   0  0  0  0  0  0  0  0  0  0  0  0
  141.4360   70.9932  228.4327 H   0  0  0  0  0  0  0  0  0  0  0  0
  140.9881   72.5418  226.5917 H   0  0  0  0  0  0  0  0  0  0  0  0
  1  2  1  0
  2  3  1  0
  2  4  1  0
  4  5  2  0
  5  6  1  0
  6  7  2  0
  7  8  1  0
  8  9  2  0
  9 10  1  0
 10 11  1  0
 11 12  1  0
 12 13  1  0
 13 14  1  0
 14 15  1  0
 15 16  2  0
 15 17  1  0
 17 18  1  0
 18 19  1  0
 19 20  2  0
 19 21  1  0
 21 22  2  0
 22 23  1  0
 23 24  2  0
 24 25  1  0
 25 26  2  0
 26 27  1  0
 26 28  1  0
 28 29  2  0
 29 30  1  0
 30 31  2  0
  9  4  1  0
 14 10  1  0
 31 21  1  0
 30 24  1  0
  1 32  1  0
  1 33  1  0
  1 34  1  0
  3 35  1  0
  3 36  1  0
  3 37  1  0
  5 38  1  0
  6 39  1  0
  7 40  1  0
  8 41  1  0
 10 42  1  6
 11 43  1  0
 11 44  1  0
 12 45  1  0
 12 46  1  0
 13 47  1  0
 13 48  1  0
 17 49  1  0
 17 50  1  0
 18 51  1  0
 22 52  1  0
 23 53  1  0
 25 54  1  0
 28 55  1  0
 29 56  1  0
M  END
>  <smiles>  (43) 
CN(C)c1ccccc1[C@H]1CCCN1C(=O)CNC(=O)c1ccc2cc(Cl)ccc2n1

>  <score_type>  (43) 
oracle

>  <origin>  (43) 
autodockgpu

>  <m_score__min__energy>  (43) 
-8.7300000000000004

>  <m_primary>  (43) 
energy

>  <rmsd>  (43) 
10.295495101050381

>  <m_score__min__rmsd>  (43) 
10.295495101050381

>  <meeko>  (43) 
{"free_energy": -8.21, "intermolecular_energy": -10.0, "internal_energy": -1.95, "cluster_size": 40, "cluster_id": 1, "rank_in_cluster": 23}

>  <energy>  (43) 
-7.67

>  <cluster_rmsd>  (43) 
0.0

>  <cluster>  (43) 
3

$$$$

     RDKit          3D

 56 59  0  0  0  0  0  0  0  0999 V2000
  137.8540   78.0950  222.5670 C   0  0  0  0  0  0  0  0  0  0  0  0
  138.6970   79.0640  221.9140 N   0  0  0  0  0  0  0  0  0  0  0  0
  138.1180   79.8290  220.8260 C   0  0  0  0  0  0  0  0  0  0  0  0
  140.0440   79.3290  222.2520 C   0  0  0  0  0  0  0  0  0  0  0  0
  140.2430   80.0590  223.4300 C   0  0  0  0  0  0  0  0  0  0  0  0
  141.5000   80.3950  223.8680 C   0  0  0  0  0  0  0  0  0  0  0  0
  142.5690   79.9950  223.1170 C   0  0  0  0  0  0  0  0  0  0  0  0
  142.3690   79.2780  221.9600 C   0  0  0  0  0  0  0  0  0  0  0  0
  141.1300   78.9160  221.4780 C   0  0  0  0  0  0  0  0  0  0  0  0
  140.9140   78.1890  220.2430 C   0  0  1  0  0  0  0  0  0  0  0  0
  142.1350   78.1460  219.3480 C   0  0  0  0  0  0  0  0  0  0  0  0
  141.7590   77.0990  218.3330 C   0  0  0  0  0  0  0  0  0  0  0  0
  140.5070   76.4360  218.8240 C   0  0  0  0  0  0  0  0  0  0  0  0
  140.4610   76.8460  220.2650 N   0  0  0  0  0  0  0  0  0  0  0  0
  139.9940   75.9230  221.2090 C   0  0  0  0  0  0  0  0  0  0  0  0
  140.3330   76.1930  222.4340 O   0  0  0  0  0  0  0  0  0  0  0  0
  139.2010   74.7210  221.0340 C   0  0  0  0  0  0  0  0  0  0  0  0
  139.4020   73.7720  222.1460 N   0  0  0  0  0  0  0  0  0  0  0  0
  139.3420   72.3770  221.8900 C   0  0  0  0  0  0  0  0  0  0  0  0
  139.1260   71.8800  220.7550 O   0  0  0  0  0  0  0  0  0  0  0  0
  139.5440   71.4740  223.0180 C   0  0  0  0  0  0  0  0  0  0  0  0
  139.1580   70.1400  222.9480 C   0  0  0  0  0  0  0  0  0  0  0  0
  139.3320   69.2580  223.9900 C   0  0  0  0  0  0  0  0  0  0  0  0
  139.9080   69.6960  225.1560 C   0  0  0  0  0  0  0  0  0  0  0  0
  140.1020   68.8440  226.2290 C   0  0  0  0  0  0  0  0  0  0  0  0
  140.6820   69.2960  227.3960 C   0  0  0  0  0  0  0  0  0  0  0  0
  140.9170   68.2070  228.7330 Cl  0  0  0  0  0  0  0  0  0  0  0  0
  141.0570   70.6230  227.4450 C   0  0  0  0  0  0  0  0  0  0  0  0
  140.8610   71.4650  226.3730 C   0  0  0  0  0  0  0  0  0  0  0  0
  140.2840   71.0340  225.2000 C   0  0  0  0  0  0  0  0  0  0  0  0
  140.1050   71.8750  224.1730 N   0  0  0  0  0  0  0  0  0  0  0  0
  137.9480   78.2030  223.6576 H   0  0  0  0  0  0  0  0  0  0  0  0
  136.8076   78.2606  222.2709 H   0  0  0  0  0  0  0  0  0  0  0  0
  138.1628   77.0816  222.2709 H   0  0  0  0  0  0  0  0  0  0  0  0
  137.5022   80.6426  221.2369 H   0  0  0  0  0  0  0  0  0  0  0  0
  138.9225   80.2543  220.2080 H   0  0  0  0  0  0  0  0  0  0  0  0
  137.4902   79.1702  220.2080 H   0  0  0  0  0  0  0  0  0  0  0  0
  139.3690   80.3716  224.0202 H   0  0  0  0  0  0  0  0  0  0  0  0
  141.6422   80.9689  224.7956 H   0  0  0  0  0  0  0  0  0  0  0  0
  143.5907   80.2465  223.4378 H   0  0  0  0  0  0  0  0  0  0  0  0
  143.2548   78.9743  221.3829 H   0  0  0  0  0  0  0  0  0  0  0  0
  140.0815   78.8100  219.8806 H   0  0  0  0  0  0  0  0  0  0  0  0
  142.3104   79.1201  218.8679 H   0  0  0  0  0  0  0  0  0  0  0  0
  143.0662   77.9189  219.8876 H   0  0  0  0  0  0  0  0  0  0  0  0
  141.5779   77.5695  217.3553 H   0  0  0  0  0  0  0  0  0  0  0  0
  142.5685   76.3642  218.2113 H   0  0  0  0  0  0  0  0  0  0  0  0
  139.6243   76.8019  218.2790 H   0  0  0  0  0  0  0  0  0  0  0  0
  140.5050   75.3455  218.6800 H   0  0  0  0  0  0  0  0  0  0  0  0
  138.1375   74.9982  220.9889 H   0  0  0  0  0  0  0  0  0  0  0  0
  139.5188   74.2314  220.1016 H   0  0  0  0  0  0  0  0  0  0  0  0
  139.5860   74.1280  223.1160 H   0  0  0  0  0  0  0  0  0  0  0  0
  138.6938   69.7741  222.0203 H   0  0  0  0  0  0  0  0  0  0  0  0
  139.0120   68.2104  223.8891 H   0  0  0  0  0  0  0  0  0  0  0  0
  139.7895   67.7923  226.1502 H   0  0  0  0  0  0  0  0  0  0  0  0
  141.5227   71.0170  228.3604 H   0  0  0  0  0  0  0  0  0  0  0  0
  141.1756   72.5157  226.4568 H   0  0  0  0  0  0  0  0  0  0  0  0
  1  2  1  0
  2  3  1  0
  2  4  1  0
  4  5  2  0
  5  6  1  0
  6  7  2  0
  7  8  1  0
  8  9  2  0
  9 10  1  0
 10 11  1  0
 11 12  1  0
 12 13  1  0
 13 14  1  0
 14 15  1  0
 15 16  2  0
 15 17  1  0
 17 18  1  0
 18 19  1  0
 19 20  2  0
 19 21  1  0
 21 22  2  0
 22 23  1  0
 23 24  2  0
 24 25  1  0
 25 26  2  0
 26 27  1  0
 26 28  1  0
 28 29  2  0
 29 30  1  0
 30 31  2  0
  9  4  1  0
 14 10  1  0
 31 21  1  0
 30 24  1  0
  1 32  1  0
  1 33  1  0
  1 34  1  0
  3 35  1  0
  3 36  1  0
  3 37  1  0
  5 38  1  0
  6 39  1  0
  7 40  1  0
  8 41  1  0
 10 42  1  6
 11 43  1  0
 11 44  1  0
 12 45  1  0
 12 46  1  0
 13 47  1  0
 13 48  1  0
 17 49  1  0
 17 50  1  0
 18 51  1  0
 22 52  1  0
 23 53  1  0
 25 54  1  0
 28 55  1  0
 29 56  1  0
M  END
>  <smiles>  (44) 
CN(C)c1ccccc1[C@H]1CCCN1C(=O)CNC(=O)c1ccc2cc(Cl)ccc2n1

>  <score_type>  (44) 
oracle

>  <origin>  (44) 
autodockgpu

>  <m_score__min__energy>  (44) 
-8.7300000000000004

>  <m_primary>  (44) 
energy

>  <rmsd>  (44) 
10.212401192975948

>  <m_score__min__rmsd>  (44) 
10.212401192975948

>  <meeko>  (44) 
{"free_energy": -8.41, "intermolecular_energy": -10.2, "internal_energy": -2.31, "cluster_size": 40, "cluster_id": 1, "rank_in_cluster": 10}

>  <energy>  (44) 
-7.62

>  <cluster_rmsd>  (44) 
0.0

>  <cluster>  (44) 
4

$$$$

     RDKit          3D

 56 59  0  0  0  0  0  0  0  0999 V2000
  137.6150   77.9280  222.3990 C   0  0  0  0  0  0  0  0  0  0  0  0
  138.5730   78.7470  221.7000 N   0  0  0  0  0  0  0  0  0  0  0  0
  138.1710   79.3080  220.4250 C   0  0  0  0  0  0  0  0  0  0  0  0
  139.8750   79.0470  222.1620 C   0  0  0  0  0  0  0  0  0  0  0  0
  139.9440   79.8540  223.3050 C   0  0  0  0  0  0  0  0  0  0  0  0
  141.1460   80.2300  223.8520 C   0  0  0  0  0  0  0  0  0  0  0  0
  142.2900   79.7950  223.2480 C   0  0  0  0  0  0  0  0  0  0  0  0
  142.2180   79.0030  222.1260 C   0  0  0  0  0  0  0  0  0  0  0  0
  141.0400   78.5970  221.5380 C   0  0  0  0  0  0  0  0  0  0  0  0
  140.9610   77.7900  220.3370 C   0  0  1  0  0  0  0  0  0  0  0  0
  142.2980   77.5920  219.6550 C   0  0  0  0  0  0  0  0  0  0  0  0
  142.0020   76.4950  218.6670 C   0  0  0  0  0  0  0  0  0  0  0  0
  140.6400   75.9600  218.9940 C   0  0  0  0  0  0  0  0  0  0  0  0
  140.4040   76.4860  220.3780 N   0  0  0  0  0  0  0  0  0  0  0  0
  139.7250   75.6760  221.2950 C   0  0  0  0  0  0  0  0  0  0  0  0
  139.9830   75.9440  222.5410 O   0  0  0  0  0  0  0  0  0  0  0  0
  138.7880   74.5900  221.0750 C   0  0  0  0  0  0  0  0  0  0  0  0
  138.8620   73.5830  222.1500 N   0  0  0  0  0  0  0  0  0  0  0  0
  140.0780   72.8810  222.3630 C   0  0  0  0  0  0  0  0  0  0  0  0
  141.1210   73.0610  221.6850 O   0  0  0  0  0  0  0  0  0  0  0  0
  140.1070   71.8910  223.4350 C   0  0  0  0  0  0  0  0  0  0  0  0
  139.6540   70.5930  223.2260 C   0  0  0  0  0  0  0  0  0  0  0  0
  139.6670   69.6320  224.2110 C   0  0  0  0  0  0  0  0  0  0  0  0
  140.1410   69.9500  225.4590 C   0  0  0  0  0  0  0  0  0  0  0  0
  140.1700   69.0160  226.4790 C   0  0  0  0  0  0  0  0  0  0  0  0
  140.6490   69.3480  227.7290 C   0  0  0  0  0  0  0  0  0  0  0  0
  140.6780   68.1570  228.9980 Cl  0  0  0  0  0  0  0  0  0  0  0  0
  141.0930   70.6410  227.9150 C   0  0  0  0  0  0  0  0  0  0  0  0
  141.0600   71.5660  226.8950 C   0  0  0  0  0  0  0  0  0  0  0  0
  140.5860   71.2550  225.6400 C   0  0  0  0  0  0  0  0  0  0  0  0
  140.5660   72.1750  224.6670 N   0  0  0  0  0  0  0  0  0  0  0  0
  137.7536   78.0465  223.4838 H   0  0  0  0  0  0  0  0  0  0  0  0
  136.5965   78.2389  222.1234 H   0  0  0  0  0  0  0  0  0  0  0  0
  137.7637   76.8735  222.1234 H   0  0  0  0  0  0  0  0  0  0  0  0
  137.5381   80.1912  220.5962 H   0  0  0  0  0  0  0  0  0  0  0  0
  139.0650   79.6023  219.8557 H   0  0  0  0  0  0  0  0  0  0  0  0
  137.6049   78.5561  219.8557 H   0  0  0  0  0  0  0  0  0  0  0  0
  139.0107   80.1954  223.7767 H   0  0  0  0  0  0  0  0  0  0  0  0
  141.1857   80.8632  224.7506 H   0  0  0  0  0  0  0  0  0  0  0  0
  143.2703   80.0781  223.6589 H   0  0  0  0  0  0  0  0  0  0  0  0
  143.1620   78.6722  221.6684 H   0  0  0  0  0  0  0  0  0  0  0  0
  140.2475   78.4356  219.8039 H   0  0  0  0  0  0  0  0  0  0  0  0
  142.6230   78.5101  219.1437 H   0  0  0  0  0  0  0  0  0  0  0  0
  143.1129   77.3459  220.3517 H   0  0  0  0  0  0  0  0  0  0  0  0
  142.0133   76.8968  217.6431 H   0  0  0  0  0  0  0  0  0  0  0  0
  142.7592   75.6995  218.7281 H   0  0  0  0  0  0  0  0  0  0  0  0
  139.8847   76.3407  218.2907 H   0  0  0  0  0  0  0  0  0  0  0  0
  140.5731   74.8642  218.9258 H   0  0  0  0  0  0  0  0  0  0  0  0
  137.7680   75.0002  221.0397 H   0  0  0  0  0  0  0  0  0  0  0  0
  139.0470   74.0991  220.1253 H   0  0  0  0  0  0  0  0  0  0  0  0
  138.0230   73.3880  222.7490 H   0  0  0  0  0  0  0  0  0  0  0  0
  139.2691   70.3230  222.2315 H   0  0  0  0  0  0  0  0  0  0  0  0
  139.3003   68.6167  223.9996 H   0  0  0  0  0  0  0  0  0  0  0  0
  139.8062   67.9951  226.2907 H   0  0  0  0  0  0  0  0  0  0  0  0
  141.4819   70.9397  228.8996 H   0  0  0  0  0  0  0  0  0  0  0  0
  141.4239   72.5858  227.0891 H   0  0  0  0  0  0  0  0  0  0  0  0
  1  2  1  0
  2  3  1  0
  2  4  1  0
  4  5  2  0
  5  6  1  0
  6  7  2  0
  7  8  1  0
  8  9  2  0
  9 10  1  0
 10 11  1  0
 11 12  1  0
 12 13  1  0
 13 14  1  0
 14 15  1  0
 15 16  2  0
 15 17  1  0
 17 18  1  0
 18 19  1  0
 19 20  2  0
 19 21  1  0
 21 22  2  0
 22 23  1  0
 23 24  2  0
 24 25  1  0
 25 26  2  0
 26 27  1  0
 26 28  1  0
 28 29  2  0
 29 30  1  0
 30 31  2  0
  9  4  1  0
 14 10  1  0
 31 21  1  0
 30 24  1  0
  1 32  1  0
  1 33  1  0
  1 34  1  0
  3 35  1  0
  3 36  1  0
  3 37  1  0
  5 38  1  0
  6 39  1  0
  7 40  1  0
  8 41  1  0
 10 42  1  6
 11 43  1  0
 11 44  1  0
 12 45  1  0
 12 46  1  0
 13 47  1  0
 13 48  1  0
 17 49  1  0
 17 50  1  0
 18 51  1  0
 22 52  1  0
 23 53  1  0
 25 54  1  0
 28 55  1  0
 29 56  1  0
M  END
>  <smiles>  (45) 
CN(C)c1ccccc1[C@H]1CCCN1C(=O)CNC(=O)c1ccc2cc(Cl)ccc2n1

>  <score_type>  (45) 
oracle

>  <origin>  (45) 
autodockgpu

>  <m_score__min__energy>  (45) 
-8.7300000000000004

>  <m_primary>  (45) 
energy

>  <rmsd>  (45) 
10.01285016702334

>  <m_score__min__rmsd>  (45) 
10.01285016702334

>  <meeko>  (45) 
{"free_energy": -8.49, "intermolecular_energy": -10.28, "internal_energy": -1.73, "cluster_size": 40, "cluster_id": 1, "rank_in_cluster": 3}

>  <energy>  (45) 
-7.61

>  <cluster_rmsd>  (45) 
0.0

>  <cluster>  (45) 
5

$$$$

     RDKit          3D

 56 59  0  0  0  0  0  0  0  0999 V2000
  143.1350   77.1480  218.4780 C   0  0  0  0  0  0  0  0  0  0  0  0
  142.1690   78.0220  219.0960 N   0  0  0  0  0  0  0  0  0  0  0  0
  141.5460   79.0280  218.2580 C   0  0  0  0  0  0  0  0  0  0  0  0
  141.7810   77.9740  220.4540 C   0  0  0  0  0  0  0  0  0  0  0  0
  141.8250   79.1930  221.1420 C   0  0  0  0  0  0  0  0  0  0  0  0
  141.4850   79.2860  222.4690 C   0  0  0  0  0  0  0  0  0  0  0  0
  141.0980   78.1460  223.1140 C   0  0  0  0  0  0  0  0  0  0  0  0
  141.0570   76.9500  222.4340 C   0  0  0  0  0  0  0  0  0  0  0  0
  141.3860   76.8030  221.1050 C   0  0  0  0  0  0  0  0  0  0  0  0
  141.3750   75.5400  220.3940 C   0  0  1  0  0  0  0  0  0  0  0  0
  142.4670   74.5900  220.8390 C   0  0  0  0  0  0  0  0  0  0  0  0
  142.0450   73.2900  220.2070 C   0  0  0  0  0  0  0  0  0  0  0  0
  140.6590   73.4860  219.6730 C   0  0  0  0  0  0  0  0  0  0  0  0
  140.2100   74.7330  220.3740 N   0  0  0  0  0  0  0  0  0  0  0  0
  138.8720   74.8300  220.7760 C   0  0  0  0  0  0  0  0  0  0  0  0
  138.4240   76.0480  220.8530 O   0  0  0  0  0  0  0  0  0  0  0  0
  137.9180   73.7930  221.1210 C   0  0  0  0  0  0  0  0  0  0  0  0
  138.4000   72.9630  222.2410 N   0  0  0  0  0  0  0  0  0  0  0  0
  138.2150   71.5570  222.1950 C   0  0  0  0  0  0  0  0  0  0  0  0
  137.6580   70.9520  221.2430 O   0  0  0  0  0  0  0  0  0  0  0  0
  138.7050   70.7740  223.3250 C   0  0  0  0  0  0  0  0  0  0  0  0
  138.4920   69.4010  223.3930 C   0  0  0  0  0  0  0  0  0  0  0  0
  138.9390   68.6290  224.4410 C   0  0  0  0  0  0  0  0  0  0  0  0
  139.6240   69.2210  225.4720 C   0  0  0  0  0  0  0  0  0  0  0  0
  140.0910   68.4840  226.5460 C   0  0  0  0  0  0  0  0  0  0  0  0
  140.7780   69.0910  227.5760 C   0  0  0  0  0  0  0  0  0  0  0  0
  141.3570   68.1440  228.9170 Cl  0  0  0  0  0  0  0  0  0  0  0  0
  140.9780   70.4530  227.4890 C   0  0  0  0  0  0  0  0  0  0  0  0
  140.5100   71.1810  226.4170 C   0  0  0  0  0  0  0  0  0  0  0  0
  139.8220   70.5940  225.3790 C   0  0  0  0  0  0  0  0  0  0  0  0
  139.3790   71.3270  224.3490 N   0  0  0  0  0  0  0  0  0  0  0  0
  143.7103   76.6275  219.2578 H   0  0  0  0  0  0  0  0  0  0  0  0
  142.6133   76.4089  217.8523 H   0  0  0  0  0  0  0  0  0  0  0  0
  143.8184   77.7409  217.8523 H   0  0  0  0  0  0  0  0  0  0  0  0
  141.0729   79.7920  218.8924 H   0  0  0  0  0  0  0  0  0  0  0  0
  142.3098   79.5005  217.6229 H   0  0  0  0  0  0  0  0  0  0  0  0
  140.7827   78.5547  217.6229 H   0  0  0  0  0  0  0  0  0  0  0  0
  142.1402   80.0999  220.6051 H   0  0  0  0  0  0  0  0  0  0  0  0
  141.5232   80.2502  222.9971 H   0  0  0  0  0  0  0  0  0  0  0  0
  140.8190   78.1837  224.1774 H   0  0  0  0  0  0  0  0  0  0  0  0
  140.7410   76.0538  222.9880 H   0  0  0  0  0  0  0  0  0  0  0  0
  141.4969   75.9654  219.3869 H   0  0  0  0  0  0  0  0  0  0  0  0
  143.4505   74.9123  220.4665 H   0  0  0  0  0  0  0  0  0  0  0  0
  142.5784   74.5307  221.9317 H   0  0  0  0  0  0  0  0  0  0  0  0
  142.7311   73.0291  219.3877 H   0  0  0  0  0  0  0  0  0  0  0  0
  142.0679   72.4727  220.9429 H   0  0  0  0  0  0  0  0  0  0  0  0
  140.6702   73.6262  218.5820 H   0  0  0  0  0  0  0  0  0  0  0  0
  139.9977   72.6245  219.8476 H   0  0  0  0  0  0  0  0  0  0  0  0
  136.9669   74.2645  221.4095 H   0  0  0  0  0  0  0  0  0  0  0  0
  137.7839   73.1430  220.2438 H   0  0  0  0  0  0  0  0  0  0  0  0
  138.8730   73.4120  223.0640 H   0  0  0  0  0  0  0  0  0  0  0  0
  137.9432   68.9118  222.5748 H   0  0  0  0  0  0  0  0  0  0  0  0
  138.7486   67.5457  224.4520 H   0  0  0  0  0  0  0  0  0  0  0  0
  139.9118   67.3992  226.5785 H   0  0  0  0  0  0  0  0  0  0  0  0
  141.5230   70.9692  228.2930 H   0  0  0  0  0  0  0  0  0  0  0  0
  140.6918   72.2655  226.3896 H   0  0  0  0  0  0  0  0  0  0  0  0
  1  2  1  0
  2  3  1  0
  2  4  1  0
  4  5  2  0
  5  6  1  0
  6  7  2  0
  7  8  1  0
  8  9  2  0
  9 10  1  0
 10 11  1  0
 11 12  1  0
 12 13  1  0
 13 14  1  0
 14 15  1  0
 15 16  2  0
 15 17  1  0
 17 18  1  0
 18 19  1  0
 19 20  2  0
 19 21  1  0
 21 22  2  0
 22 23  1  0
 23 24  2  0
 24 25  1  0
 25 26  2  0
 26 27  1  0
 26 28  1  0
 28 29  2  0
 29 30  1  0
 30 31  2  0
  9  4  1  0
 14 10  1  0
 31 21  1  0
 30 24  1  0
  1 32  1  0
  1 33  1  0
  1 34  1  0
  3 35  1  0
  3 36  1  0
  3 37  1  0
  5 38  1  0
  6 39  1  0
  7 40  1  0
  8 41  1  0
 10 42  1  6
 11 43  1  0
 11 44  1  0
 12 45  1  0
 12 46  1  0
 13 47  1  0
 13 48  1  0
 17 49  1  0
 17 50  1  0
 18 51  1  0
 22 52  1  0
 23 53  1  0
 25 54  1  0
 28 55  1  0
 29 56  1  0
M  END
>  <smiles>  (46) 
CN(C)c1ccccc1[C@H]1CCCN1C(=O)CNC(=O)c1ccc2cc(Cl)ccc2n1

>  <score_type>  (46) 
oracle

>  <origin>  (46) 
autodockgpu

>  <m_score__min__energy>  (46) 
-8.7300000000000004

>  <m_primary>  (46) 
energy

>  <rmsd>  (46) 
9.755570406592128

>  <m_score__min__rmsd>  (46) 
9.755570406592128

>  <meeko>  (46) 
{"free_energy": -7.62, "intermolecular_energy": -9.41, "internal_energy": -1.91, "cluster_size": 1, "cluster_id": 4, "rank_in_cluster": 1}

>  <energy>  (46) 
-6.81

>  <cluster_rmsd>  (46) 
0.0

>  <cluster>  (46) 
6

$$$$

     RDKit          3D

 56 59  0  0  0  0  0  0  0  0999 V2000
  142.1720   80.4710  219.0810 C   0  0  0  0  0  0  0  0  0  0  0  0
  141.2130   80.5910  220.1500 N   0  0  0  0  0  0  0  0  0  0  0  0
  140.0470   81.4210  219.9130 C   0  0  0  0  0  0  0  0  0  0  0  0
  141.3180   79.9620  221.4110 C   0  0  0  0  0  0  0  0  0  0  0  0
  141.4090   80.8210  222.5140 C   0  0  0  0  0  0  0  0  0  0  0  0
  141.5270   80.3410  223.7950 C   0  0  0  0  0  0  0  0  0  0  0  0
  141.5560   78.9880  223.9740 C   0  0  0  0  0  0  0  0  0  0  0  0
  141.4670   78.1480  222.8880 C   0  0  0  0  0  0  0  0  0  0  0  0
  141.3460   78.5760  221.5850 C   0  0  0  0  0  0  0  0  0  0  0  0
  141.2850   77.6950  220.4360 C   0  0  1  0  0  0  0  0  0  0  0  0
  142.6280   77.1090  220.0540 C   0  0  0  0  0  0  0  0  0  0  0  0
  142.2470   76.0220  219.0840 C   0  0  0  0  0  0  0  0  0  0  0  0
  140.7570   75.8710  219.1520 C   0  0  0  0  0  0  0  0  0  0  0  0
  140.4130   76.5770  220.4290 N   0  0  0  0  0  0  0  0  0  0  0  0
  139.3890   76.0540  221.2280 C   0  0  0  0  0  0  0  0  0  0  0  0
  139.1440   76.7420  222.3030 O   0  0  0  0  0  0  0  0  0  0  0  0
  138.5670   74.8720  221.0470 C   0  0  0  0  0  0  0  0  0  0  0  0
  138.7620   73.9030  222.1420 N   0  0  0  0  0  0  0  0  0  0  0  0
  139.6280   72.7950  221.9460 C   0  0  0  0  0  0  0  0  0  0  0  0
  140.2570   72.5760  220.8790 O   0  0  0  0  0  0  0  0  0  0  0  0
  139.7900   71.8600  223.0540 C   0  0  0  0  0  0  0  0  0  0  0  0
  139.4230   70.5250  222.9260 C   0  0  0  0  0  0  0  0  0  0  0  0
  139.5610   69.6130  223.9470 C   0  0  0  0  0  0  0  0  0  0  0  0
  140.0800   70.0200  225.1510 C   0  0  0  0  0  0  0  0  0  0  0  0
  140.2360   69.1380  226.2050 C   0  0  0  0  0  0  0  0  0  0  0  0
  140.7590   69.5600  227.4100 C   0  0  0  0  0  0  0  0  0  0  0  0
  140.9470   68.4330  228.7230 Cl  0  0  0  0  0  0  0  0  0  0  0  0
  141.1170   70.8880  227.5150 C   0  0  0  0  0  0  0  0  0  0  0  0
  140.9580   71.7610  226.4620 C   0  0  0  0  0  0  0  0  0  0  0  0
  140.4380   71.3600  225.2520 C   0  0  0  0  0  0  0  0  0  0  0  0
  140.2960   72.2310  224.2440 N   0  0  0  0  0  0  0  0  0  0  0  0
  143.1793   80.3449  219.5045 H   0  0  0  0  0  0  0  0  0  0  0  0
  141.9228   79.5970  218.4612 H   0  0  0  0  0  0  0  0  0  0  0  0
  142.1458   81.3794  218.4612 H   0  0  0  0  0  0  0  0  0  0  0  0
  139.6143   81.7290  220.8763 H   0  0  0  0  0  0  0  0  0  0  0  0
  140.3422   82.3134  219.3415 H   0  0  0  0  0  0  0  0  0  0  0  0
  139.3005   80.8500  219.3415 H   0  0  0  0  0  0  0  0  0  0  0  0
  141.3853   81.9084  222.3495 H   0  0  0  0  0  0  0  0  0  0  0  0
  141.5961   81.0269  224.6522 H   0  0  0  0  0  0  0  0  0  0  0  0
  141.6506   78.5692  224.9868 H   0  0  0  0  0  0  0  0  0  0  0  0
  141.4943   77.0640  223.0728 H   0  0  0  0  0  0  0  0  0  0  0  0
  140.8744   78.4372  219.7356 H   0  0  0  0  0  0  0  0  0  0  0  0
  143.2685   77.8634  219.5737 H   0  0  0  0  0  0  0  0  0  0  0  0
  143.2075   76.7443  220.9149 H   0  0  0  0  0  0  0  0  0  0  0  0
  142.5515   76.3024  218.0648 H   0  0  0  0  0  0  0  0  0  0  0  0
  142.7478   75.0766  219.3398 H   0  0  0  0  0  0  0  0  0  0  0  0
  140.2699   76.3502  218.2900 H   0  0  0  0  0  0  0  0  0  0  0  0
  140.4226   74.8233  219.1283 H   0  0  0  0  0  0  0  0  0  0  0  0
  137.5094   75.1731  221.0207 H   0  0  0  0  0  0  0  0  0  0  0  0
  138.8611   74.3892  220.1034 H   0  0  0  0  0  0  0  0  0  0  0  0
  138.2630   74.0340  223.0560 H   0  0  0  0  0  0  0  0  0  0  0  0
  139.0046   70.1834  221.9678 H   0  0  0  0  0  0  0  0  0  0  0  0
  139.2578   68.5659  223.7997 H   0  0  0  0  0  0  0  0  0  0  0  0
  139.9391   68.0861  226.0809 H   0  0  0  0  0  0  0  0  0  0  0  0
  141.5390   71.2579  228.4611 H   0  0  0  0  0  0  0  0  0  0  0  0
  141.2558   72.8119  226.5918 H   0  0  0  0  0  0  0  0  0  0  0  0
  1  2  1  0
  2  3  1  0
  2  4  1  0
  4  5  2  0
  5  6  1  0
  6  7  2  0
  7  8  1  0
  8  9  2  0
  9 10  1  0
 10 11  1  0
 11 12  1  0
 12 13  1  0
 13 14  1  0
 14 15  1  0
 15 16  2  0
 15 17  1  0
 17 18  1  0
 18 19  1  0
 19 20  2  0
 19 21  1  0
 21 22  2  0
 22 23  1  0
 23 24  2  0
 24 25  1  0
 25 26  2  0
 26 27  1  0
 26 28  1  0
 28 29  2  0
 29 30  1  0
 30 31  2  0
  9  4  1  0
 14 10  1  0
 31 21  1  0
 30 24  1  0
  1 32  1  0
  1 33  1  0
  1 34  1  0
  3 35  1  0
  3 36  1  0
  3 37  1  0
  5 38  1  0
  6 39  1  0
  7 40  1  0
  8 41  1  0
 10 42  1  6
 11 43  1  0
 11 44  1  0
 12 45  1  0
 12 46  1  0
 13 47  1  0
 13 48  1  0
 17 49  1  0
 17 50  1  0
 18 51  1  0
 22 52  1  0
 23 53  1  0
 25 54  1  0
 28 55  1  0
 29 56  1  0
M  END
>  <smiles>  (47) 
CN(C)c1ccccc1[C@H]1CCCN1C(=O)CNC(=O)c1ccc2cc(Cl)ccc2n1

>  <score_type>  (47) 
oracle

>  <origin>  (47) 
autodockgpu

>  <m_score__min__energy>  (47) 
-8.7300000000000004

>  <m_primary>  (47) 
energy

>  <rmsd>  (47) 
9.937043688433011

>  <m_score__min__rmsd>  (47) 
9.937043688433011

>  <meeko>  (47) 
{"free_energy": -8.7, "intermolecular_energy": -10.49, "internal_energy": -1.61, "cluster_size": 40, "cluster_id": 1, "rank_in_cluster": 2}

>  <energy>  (47) 
-6.32

>  <cluster_rmsd>  (47) 
1.18

>  <cluster>  (47) 
6

$$$$

     RDKit          3D

 56 59  0  0  0  0  0  0  0  0999 V2000
  137.8620   78.5240  220.9130 C   0  0  0  0  0  0  0  0  0  0  0  0
  138.7890   78.0970  221.9310 N   0  0  0  0  0  0  0  0  0  0  0  0
  138.4380   76.9210  222.7040 C   0  0  0  0  0  0  0  0  0  0  0  0
  140.0130   78.7340  222.2340 C   0  0  0  0  0  0  0  0  0  0  0  0
  140.0840   79.3510  223.4890 C   0  0  0  0  0  0  0  0  0  0  0  0
  141.2110   80.0160  223.9060 C   0  0  0  0  0  0  0  0  0  0  0  0
  142.2780   80.0630  223.0560 C   0  0  0  0  0  0  0  0  0  0  0  0
  142.2050   79.4560  221.8230 C   0  0  0  0  0  0  0  0  0  0  0  0
  141.1000   78.7770  221.3590 C   0  0  0  0  0  0  0  0  0  0  0  0
  141.0080   78.1650  220.0480 C   0  0  1  0  0  0  0  0  0  0  0  0
  142.1350   78.5610  219.1170 C   0  0  0  0  0  0  0  0  0  0  0  0
  141.9890   77.5740  217.9900 C   0  0  0  0  0  0  0  0  0  0  0  0
  140.9960   76.5410  218.4300 C   0  0  0  0  0  0  0  0  0  0  0  0
  140.9350   76.7550  219.9130 N   0  0  0  0  0  0  0  0  0  0  0  0
  140.7960   75.6390  220.7460 C   0  0  0  0  0  0  0  0  0  0  0  0
  141.4350   75.7280  221.8740 O   0  0  0  0  0  0  0  0  0  0  0  0
  140.0570   74.4060  220.5470 C   0  0  0  0  0  0  0  0  0  0  0  0
  140.1740   73.5100  221.7130 N   0  0  0  0  0  0  0  0  0  0  0  0
  139.3910   72.3260  221.7620 C   0  0  0  0  0  0  0  0  0  0  0  0
  138.5870   71.9780  220.8610 O   0  0  0  0  0  0  0  0  0  0  0  0
  139.5350   71.4700  222.9350 C   0  0  0  0  0  0  0  0  0  0  0  0
  139.0310   70.1740  222.9440 C   0  0  0  0  0  0  0  0  0  0  0  0
  139.1480   69.3360  224.0290 C   0  0  0  0  0  0  0  0  0  0  0  0
  139.7850   69.7810  225.1600 C   0  0  0  0  0  0  0  0  0  0  0  0
  139.9250   68.9730  226.2750 C   0  0  0  0  0  0  0  0  0  0  0  0
  140.5680   69.4320  227.4060 C   0  0  0  0  0  0  0  0  0  0  0  0
  140.7330   68.3980  228.7960 Cl  0  0  0  0  0  0  0  0  0  0  0  0
  141.0610   70.7200  227.3760 C   0  0  0  0  0  0  0  0  0  0  0  0
  140.9180   71.5190  226.2630 C   0  0  0  0  0  0  0  0  0  0  0  0
  140.2800   71.0800  225.1240 C   0  0  0  0  0  0  0  0  0  0  0  0
  140.1550   71.8790  224.0570 N   0  0  0  0  0  0  0  0  0  0  0  0
  136.9610   78.9390  221.3883 H   0  0  0  0  0  0  0  0  0  0  0  0
  138.3346   79.2952  220.2869 H   0  0  0  0  0  0  0  0  0  0  0  0
  137.5831   77.6636  220.2869 H   0  0  0  0  0  0  0  0  0  0  0  0
  138.5073   77.1533  223.7769 H   0  0  0  0  0  0  0  0  0  0  0  0
  137.4096   76.6158  222.4606 H   0  0  0  0  0  0  0  0  0  0  0  0
  139.1309   76.1020  222.4606 H   0  0  0  0  0  0  0  0  0  0  0  0
  139.2132   79.3017  224.1593 H   0  0  0  0  0  0  0  0  0  0  0  0
  141.2525   80.4961  224.8948 H   0  0  0  0  0  0  0  0  0  0  0  0
  143.1974   80.5867  223.3569 H   0  0  0  0  0  0  0  0  0  0  0  0
  143.0852   79.5170  221.1661 H   0  0  0  0  0  0  0  0  0  0  0  0
  140.0181   78.5715  219.7935 H   0  0  0  0  0  0  0  0  0  0  0  0
  142.0108   79.5938  218.7594 H   0  0  0  0  0  0  0  0  0  0  0  0
  143.1260   78.5384  219.5939 H   0  0  0  0  0  0  0  0  0  0  0  0
  141.6255   78.0851  217.0864 H   0  0  0  0  0  0  0  0  0  0  0  0
  142.9566   77.1083  217.7516 H   0  0  0  0  0  0  0  0  0  0  0  0
  140.0142   76.7104  217.9638 H   0  0  0  0  0  0  0  0  0  0  0  0
  141.2776   75.5158  218.1476 H   0  0  0  0  0  0  0  0  0  0  0  0
  138.9958   74.6474  220.3871 H   0  0  0  0  0  0  0  0  0  0  0  0
  140.4779   73.8894  219.6718 H   0  0  0  0  0  0  0  0  0  0  0  0
  140.8290   73.7480  222.4970 H   0  0  0  0  0  0  0  0  0  0  0  0
  138.5168   69.8029  222.0452 H   0  0  0  0  0  0  0  0  0  0  0  0
  138.7342   68.3175  223.9901 H   0  0  0  0  0  0  0  0  0  0  0  0
  139.5181   67.9511  226.2591 H   0  0  0  0  0  0  0  0  0  0  0  0
  141.5799   71.1179  228.2606 H   0  0  0  0  0  0  0  0  0  0  0  0
  141.3264   72.5402  226.2846 H   0  0  0  0  0  0  0  0  0  0  0  0
  1  2  1  0
  2  3  1  0
  2  4  1  0
  4  5  2  0
  5  6  1  0
  6  7  2  0
  7  8  1  0
  8  9  2  0
  9 10  1  0
 10 11  1  0
 11 12  1  0
 12 13  1  0
 13 14  1  0
 14 15  1  0
 15 16  2  0
 15 17  1  0
 17 18  1  0
 18 19  1  0
 19 20  2  0
 19 21  1  0
 21 22  2  0
 22 23  1  0
 23 24  2  0
 24 25  1  0
 25 26  2  0
 26 27  1  0
 26 28  1  0
 28 29  2  0
 29 30  1  0
 30 31  2  0
  9  4  1  0
 14 10  1  0
 31 21  1  0
 30 24  1  0
  1 32  1  0
  1 33  1  0
  1 34  1  0
  3 35  1  0
  3 36  1  0
  3 37  1  0
  5 38  1  0
  6 39  1  0
  7 40  1  0
  8 41  1  0
 10 42  1  6
 11 43  1  0
 11 44  1  0
 12 45  1  0
 12 46  1  0
 13 47  1  0
 13 48  1  0
 17 49  1  0
 17 50  1  0
 18 51  1  0
 22 52  1  0
 23 53  1  0
 25 54  1  0
 28 55  1  0
 29 56  1  0
M  END
>  <smiles>  (48) 
CN(C)c1ccccc1[C@H]1CCCN1C(=O)CNC(=O)c1ccc2cc(Cl)ccc2n1

>  <score_type>  (48) 
oracle

>  <origin>  (48) 
autodockgpu

>  <m_score__min__energy>  (48) 
-8.7300000000000004

>  <m_primary>  (48) 
energy

>  <rmsd>  (48) 
10.153844189316672

>  <m_score__min__rmsd>  (48) 
10.153844189316672

>  <meeko>  (48) 
{"free_energy": -7.77, "intermolecular_energy": -9.56, "internal_energy": -2.53, "cluster_size": 40, "cluster_id": 1, "rank_in_cluster": 35}

>  <energy>  (48) 
-6.29

>  <cluster_rmsd>  (48) 
1.04

>  <cluster>  (48) 
6

$$$$

     RDKit          3D

 56 59  0  0  0  0  0  0  0  0999 V2000
  137.9940   79.4310  221.4860 C   0  0  0  0  0  0  0  0  0  0  0  0
  138.9800   78.6750  222.2170 N   0  0  0  0  0  0  0  0  0  0  0  0
  138.5880   77.3690  222.7140 C   0  0  0  0  0  0  0  0  0  0  0  0
  140.2990   79.1050  222.4860 C   0  0  0  0  0  0  0  0  0  0  0  0
  140.5110   79.6570  223.7560 C   0  0  0  0  0  0  0  0  0  0  0  0
  141.7420   80.1250  224.1440 C   0  0  0  0  0  0  0  0  0  0  0  0
  142.7710   80.0400  223.2500 C   0  0  0  0  0  0  0  0  0  0  0  0
  142.5580   79.4980  222.0040 C   0  0  0  0  0  0  0  0  0  0  0  0
  141.3450   79.0140  221.5670 C   0  0  0  0  0  0  0  0  0  0  0  0
  141.1100   78.4720  220.2430 C   0  0  1  0  0  0  0  0  0  0  0  0
  142.1630   78.8740  219.2320 C   0  0  0  0  0  0  0  0  0  0  0  0
  141.8760   77.9510  218.0770 C   0  0  0  0  0  0  0  0  0  0  0  0
  140.8860   76.9330  218.5590 C   0  0  0  0  0  0  0  0  0  0  0  0
  140.9690   77.0750  220.0490 N   0  0  0  0  0  0  0  0  0  0  0  0
  140.8600   75.9230  220.8380 C   0  0  0  0  0  0  0  0  0  0  0  0
  141.3340   76.0520  222.0420 O   0  0  0  0  0  0  0  0  0  0  0  0
  140.3090   74.6180  220.5240 C   0  0  0  0  0  0  0  0  0  0  0  0
  140.3390   73.7200  221.6940 N   0  0  0  0  0  0  0  0  0  0  0  0
  139.6930   72.4580  221.6200 C   0  0  0  0  0  0  0  0  0  0  0  0
  139.0840   72.0400  220.6030 O   0  0  0  0  0  0  0  0  0  0  0  0
  139.7460   71.6030  222.8010 C   0  0  0  0  0  0  0  0  0  0  0  0
  139.1860   70.3300  222.7900 C   0  0  0  0  0  0  0  0  0  0  0  0
  139.2160   69.4940  223.8830 C   0  0  0  0  0  0  0  0  0  0  0  0
  139.8180   69.9170  225.0410 C   0  0  0  0  0  0  0  0  0  0  0  0
  139.8710   69.1100  226.1640 C   0  0  0  0  0  0  0  0  0  0  0  0
  140.4790   69.5470  227.3220 C   0  0  0  0  0  0  0  0  0  0  0  0
  140.5350   68.5150  228.7220 Cl  0  0  0  0  0  0  0  0  0  0  0  0
  141.0280   70.8120  227.3110 C   0  0  0  0  0  0  0  0  0  0  0  0
  140.9720   71.6110  226.1900 C   0  0  0  0  0  0  0  0  0  0  0  0
  140.3690   71.1940  225.0240 C   0  0  0  0  0  0  0  0  0  0  0  0
  140.3290   71.9910  223.9490 N   0  0  0  0  0  0  0  0  0  0  0  0
  137.3259   79.9433  222.1939 H   0  0  0  0  0  0  0  0  0  0  0  0
  138.4984   80.1760  220.8531 H   0  0  0  0  0  0  0  0  0  0  0  0
  137.4054   78.7505  220.8531 H   0  0  0  0  0  0  0  0  0  0  0  0
  138.5911   77.3792  223.8140 H   0  0  0  0  0  0  0  0  0  0  0  0
  137.5777   77.1272  222.3524 H   0  0  0  0  0  0  0  0  0  0  0  0
  139.2981   76.6108  222.3524 H   0  0  0  0  0  0  0  0  0  0  0  0
  139.6688   79.7171  224.4611 H   0  0  0  0  0  0  0  0  0  0  0  0
  141.8949   80.5554  225.1447 H   0  0  0  0  0  0  0  0  0  0  0  0
  143.7710   80.4053  223.5267 H   0  0  0  0  0  0  0  0  0  0  0  0
  143.4115   79.4479  221.3119 H   0  0  0  0  0  0  0  0  0  0  0  0
  140.1178   78.9252  220.1008 H   0  0  0  0  0  0  0  0  0  0  0  0
  142.0488   79.9275  218.9367 H   0  0  0  0  0  0  0  0  0  0  0  0
  143.1913   78.7916  219.6139 H   0  0  0  0  0  0  0  0  0  0  0  0
  141.4527   78.5198  217.2360 H   0  0  0  0  0  0  0  0  0  0  0  0
  142.7984   77.4641  217.7275 H   0  0  0  0  0  0  0  0  0  0  0  0
  139.8734   77.1603  218.1944 H   0  0  0  0  0  0  0  0  0  0  0  0
  141.0991   75.9138  218.2044 H   0  0  0  0  0  0  0  0  0  0  0  0
  139.2666   74.7405  220.1946 H   0  0  0  0  0  0  0  0  0  0  0  0
  140.9219   74.1680  219.7291 H   0  0  0  0  0  0  0  0  0  0  0  0
  140.8330   74.0160  222.5720 H   0  0  0  0  0  0  0  0  0  0  0  0
  138.6988   69.9765  221.8693 H   0  0  0  0  0  0  0  0  0  0  0  0
  138.7607   68.4941  223.8285 H   0  0  0  0  0  0  0  0  0  0  0  0
  139.4220   68.1063  226.1325 H   0  0  0  0  0  0  0  0  0  0  0  0
  141.5218   71.1917  228.2177 H   0  0  0  0  0  0  0  0  0  0  0  0
  141.4231   72.6136  226.2274 H   0  0  0  0  0  0  0  0  0  0  0  0
  1  2  1  0
  2  3  1  0
  2  4  1  0
  4  5  2  0
  5  6  1  0
  6  7  2  0
  7  8  1  0
  8  9  2  0
  9 10  1  0
 10 11  1  0
 11 12  1  0
 12 13  1  0
 13 14  1  0
 14 15  1  0
 15 16  2  0
 15 17  1  0
 17 18  1  0
 18 19  1  0
 19 20  2  0
 19 21  1  0
 21 22  2  0
 22 23  1  0
 23 24  2  0
 24 25  1  0
 25 26  2  0
 26 27  1  0
 26 28  1  0
 28 29  2  0
 29 30  1  0
 30 31  2  0
  9  4  1  0
 14 10  1  0
 31 21  1  0
 30 24  1  0
  1 32  1  0
  1 33  1  0
  1 34  1  0
  3 35  1  0
  3 36  1  0
  3 37  1  0
  5 38  1  0
  6 39  1  0
  7 40  1  0
  8 41  1  0
 10 42  1  6
 11 43  1  0
 11 44  1  0
 12 45  1  0
 12 46  1  0
 13 47  1  0
 13 48  1  0
 17 49  1  0
 17 50  1  0
 18 51  1  0
 22 52  1  0
 23 53  1  0
 25 54  1  0
 28 55  1  0
 29 56  1  0
M  END
>  <smiles>  (49) 
CN(C)c1ccccc1[C@H]1CCCN1C(=O)CNC(=O)c1ccc2cc(Cl)ccc2n1

>  <score_type>  (49) 
oracle

>  <origin>  (49) 
autodockgpu

>  <m_score__min__energy>  (49) 
-8.7300000000000004

>  <m_primary>  (49) 
energy

>  <rmsd>  (49) 
10.164064714236886

>  <m_score__min__rmsd>  (49) 
10.164064714236886

>  <meeko>  (49) 
{"free_energy": -7.83, "intermolecular_energy": -9.62, "internal_energy": -2.5, "cluster_size": 40, "cluster_id": 1, "rank_in_cluster": 33}

>  <energy>  (49) 
-6.35

>  <cluster_rmsd>  (49) 
0.0

>  <cluster>  (49) 
7

$$$$

     RDKit          3D

 56 59  0  0  0  0  0  0  0  0999 V2000
  137.8040   80.1630  223.8360 C   0  0  0  0  0  0  0  0  0  0  0  0
  138.0140   79.3850  222.6410 N   0  0  0  0  0  0  0  0  0  0  0  0
  137.2560   79.7540  221.4610 C   0  0  0  0  0  0  0  0  0  0  0  0
  138.9020   78.2910  222.5300 C   0  0  0  0  0  0  0  0  0  0  0  0
  138.3190   77.0700  222.1680 C   0  0  0  0  0  0  0  0  0  0  0  0
  139.0660   75.9250  222.0360 C   0  0  0  0  0  0  0  0  0  0  0  0
  140.4090   76.0040  222.2690 C   0  0  0  0  0  0  0  0  0  0  0  0
  140.9770   77.2050  222.6240 C   0  0  0  0  0  0  0  0  0  0  0  0
  140.2740   78.3810  222.7700 C   0  0  0  0  0  0  0  0  0  0  0  0
  140.8640   79.6410  223.1760 C   0  0  1  0  0  0  0  0  0  0  0  0
  142.2080   79.4860  223.8560 C   0  0  0  0  0  0  0  0  0  0  0  0
  142.7290   80.8990  223.8770 C   0  0  0  0  0  0  0  0  0  0  0  0
  141.8180   81.7190  223.0140 C   0  0  0  0  0  0  0  0  0  0  0  0
  141.0790   80.6760  222.2310 N   0  0  0  0  0  0  0  0  0  0  0  0
  140.7650   80.9420  220.8920 C   0  0  0  0  0  0  0  0  0  0  0  0
  139.6400   81.5700  220.7210 O   0  0  0  0  0  0  0  0  0  0  0  0
  141.4910   80.6250  219.6770 C   0  0  0  0  0  0  0  0  0  0  0  0
  141.9280   79.2160  219.6580 N   0  0  0  0  0  0  0  0  0  0  0  0
  141.0010   78.2040  219.2950 C   0  0  0  0  0  0  0  0  0  0  0  0
  139.8050   78.4270  218.9800 O   0  0  0  0  0  0  0  0  0  0  0  0
  141.4750   76.8240  219.2920 C   0  0  0  0  0  0  0  0  0  0  0  0
  140.6630   75.7870  218.8450 C   0  0  0  0  0  0  0  0  0  0  0  0
  141.0750   74.4740  218.8260 C   0  0  0  0  0  0  0  0  0  0  0  0
  142.3350   74.1540  219.2640 C   0  0  0  0  0  0  0  0  0  0  0  0
  142.7900   72.8470  219.2640 C   0  0  0  0  0  0  0  0  0  0  0  0
  144.0590   72.5390  219.7070 C   0  0  0  0  0  0  0  0  0  0  0  0
  144.6100   70.8880  219.6960 Cl  0  0  0  0  0  0  0  0  0  0  0  0
  144.8480   73.5820  220.1460 C   0  0  0  0  0  0  0  0  0  0  0  0
  144.3890   74.8810  220.1440 C   0  0  0  0  0  0  0  0  0  0  0  0
  143.1250   75.2090  219.7060 C   0  0  0  0  0  0  0  0  0  0  0  0
  142.7050   76.4810  219.7160 N   0  0  0  0  0  0  0  0  0  0  0  0
  137.9747   79.5308  224.7198 H   0  0  0  0  0  0  0  0  0  0  0  0
  138.5056   81.0101  223.8501 H   0  0  0  0  0  0  0  0  0  0  0  0
  136.7714   80.5419  223.8501 H   0  0  0  0  0  0  0  0  0  0  0  0
  136.3056   80.2166  221.7655 H   0  0  0  0  0  0  0  0  0  0  0  0
  137.8368   80.4702  220.8612 H   0  0  0  0  0  0  0  0  0  0  0  0
  137.0506   78.8551  220.8612 H   0  0  0  0  0  0  0  0  0  0  0  0
  137.2352   77.0270  221.9847 H   0  0  0  0  0  0  0  0  0  0  0  0
  138.5960   74.9722  221.7509 H   0  0  0  0  0  0  0  0  0  0  0  0
  141.0372   75.1062  222.1727 H   0  0  0  0  0  0  0  0  0  0  0  0
  142.0621   77.2283  222.8028 H   0  0  0  0  0  0  0  0  0  0  0  0
  140.0362   79.9576  223.8275 H   0  0  0  0  0  0  0  0  0  0  0  0
  142.0940   79.0894  224.8757 H   0  0  0  0  0  0  0  0  0  0  0  0
  142.8785   78.7795  223.3450 H   0  0  0  0  0  0  0  0  0  0  0  0
  142.7242   81.2874  224.9061 H   0  0  0  0  0  0  0  0  0  0  0  0
  143.7629   80.9400  223.5037 H   0  0  0  0  0  0  0  0  0  0  0  0
  141.1278   82.3199  223.6245 H   0  0  0  0  0  0  0  0  0  0  0  0
  142.3513   82.4436  222.3812 H   0  0  0  0  0  0  0  0  0  0  0  0
  140.8364   80.8075  218.8120 H   0  0  0  0  0  0  0  0  0  0  0  0
  142.3857   81.2635  219.6340 H   0  0  0  0  0  0  0  0  0  0  0  0
  142.9160   78.9670  219.9130 H   0  0  0  0  0  0  0  0  0  0  0  0
  139.6491   76.0263  218.4919 H   0  0  0  0  0  0  0  0  0  0  0  0
  140.3986   73.6866  218.4621 H   0  0  0  0  0  0  0  0  0  0  0  0
  142.1304   72.0429  218.9058 H   0  0  0  0  0  0  0  0  0  0  0  0
  145.8661   73.3719  220.5056 H   0  0  0  0  0  0  0  0  0  0  0  0
  145.0527   75.6812  220.5034 H   0  0  0  0  0  0  0  0  0  0  0  0
  1  2  1  0
  2  3  1  0
  2  4  1  0
  4  5  2  0
  5  6  1  0
  6  7  2  0
  7  8  1  0
  8  9  2  0
  9 10  1  0
 10 11  1  0
 11 12  1  0
 12 13  1  0
 13 14  1  0
 14 15  1  0
 15 16  2  0
 15 17  1  0
 17 18  1  0
 18 19  1  0
 19 20  2  0
 19 21  1  0
 21 22  2  0
 22 23  1  0
 23 24  2  0
 24 25  1  0
 25 26  2  0
 26 27  1  0
 26 28  1  0
 28 29  2  0
 29 30  1  0
 30 31  2  0
  9  4  1  0
 14 10  1  0
 31 21  1  0
 30 24  1  0
  1 32  1  0
  1 33  1  0
  1 34  1  0
  3 35  1  0
  3 36  1  0
  3 37  1  0
  5 38  1  0
  6 39  1  0
  7 40  1  0
  8 41  1  0
 10 42  1  1
 11 43  1  0
 11 44  1  0
 12 45  1  0
 12 46  1  0
 13 47  1  0
 13 48  1  0
 17 49  1  0
 17 50  1  0
 18 51  1  0
 22 52  1  0
 23 53  1  0
 25 54  1  0
 28 55  1  0
 29 56  1  0
M  END
>  <smiles>  (50) 
CN(C)c1ccccc1[C@H]1CCCN1C(=O)CNC(=O)c1ccc2cc(Cl)ccc2n1

>  <score_type>  (50) 
oracle

>  <origin>  (50) 
autodockgpu

>  <m_score__min__energy>  (50) 
-8.7300000000000004

>  <m_primary>  (50) 
energy

>  <rmsd>  (50) 
8.500597733896887

>  <m_score__min__rmsd>  (50) 
8.500597733896887

>  <meeko>  (50) 
{"free_energy": -6.29, "intermolecular_energy": -8.08, "internal_energy": -3.32, "cluster_size": 3, "cluster_id": 6, "rank_in_cluster": 3}

>  <energy>  (50) 
-6.32

>  <cluster_rmsd>  (50) 
0.11

>  <cluster>  (50) 
7

$$$$
