
     RDKit          3D

 50 53  0  0  0  0  0  0  0  0999 V2000
  138.5740   71.6850  220.8780 O   0  0  0  0  0  0  0  0  0  0  0  0
  139.0050   72.1570  221.9610 C   0  0  0  0  0  0  0  0  0  0  0  0
  139.2520   73.5410  222.1730 N   0  0  0  0  0  0  0  0  0  0  0  0
  139.0060   74.5320  221.0930 C   0  0  0  0  0  0  0  0  0  0  0  0
  140.1760   75.4090  221.0000 C   0  0  0  0  0  0  0  0  0  0  0  0
  141.0200   75.3070  221.9740 O   0  0  0  0  0  0  0  0  0  0  0  0
  140.5110   76.3450  220.0180 N   0  0  0  0  0  0  0  0  0  0  0  0
  140.1850   75.9820  218.6260 C   0  0  0  0  0  0  0  0  0  0  0  0
  141.4000   76.1230  217.7540 C   0  0  0  0  0  0  0  0  0  0  0  0
  142.3930   77.1450  218.1300 C   0  0  0  0  0  0  0  0  0  0  0  0
  142.5730   77.3760  219.6150 C   0  0  0  0  0  0  0  0  0  0  0  0
  141.1680   77.6040  220.1530 C   0  0  2  0  0  0  0  0  0  0  0  0
  141.0640   78.3160  221.3980 C   0  0  0  0  0  0  0  0  0  0  0  0
  139.9550   78.3730  222.2190 C   0  0  0  0  0  0  0  0  0  0  0  0
  139.9320   79.0310  223.4240 C   0  0  0  0  0  0  0  0  0  0  0  0
  141.0910   79.6640  223.8190 C   0  0  0  0  0  0  0  0  0  0  0  0
  142.1870   79.6280  223.0470 N   0  0  0  0  0  0  0  0  0  0  0  0
  142.1970   78.9860  221.8790 C   0  0  0  0  0  0  0  0  0  0  0  0
  139.2720   71.2290  223.0810 C   0  0  0  0  0  0  0  0  0  0  0  0
  138.8890   69.9070  223.0020 C   0  0  0  0  0  0  0  0  0  0  0  0
  139.1410   69.0300  224.0600 C   0  0  0  0  0  0  0  0  0  0  0  0
  139.7900   69.5240  225.1970 C   0  0  0  0  0  0  0  0  0  0  0  0
  140.0630   68.7010  226.2700 C   0  0  0  0  0  0  0  0  0  0  0  0
  140.7060   69.2450  227.3630 C   0  0  0  0  0  0  0  0  0  0  0  0
  141.0430   68.1720  228.7210 Cl  0  0  0  0  0  0  0  0  0  0  0  0
  141.0780   70.5730  227.4130 C   0  0  0  0  0  0  0  0  0  0  0  0
  140.8050   71.4090  226.3350 C   0  0  0  0  0  0  0  0  0  0  0  0
  140.1600   70.8510  225.2430 C   0  0  0  0  0  0  0  0  0  0  0  0
  139.8960   71.6520  224.2060 N   0  0  0  0  0  0  0  0  0  0  0  0
  139.6100   73.8450  223.1030 H   0  0  0  0  0  0  0  0  0  0  0  0
  138.8549   74.0103  220.1365 H   0  0  0  0  0  0  0  0  0  0  0  0
  138.1057   75.1227  221.3178 H   0  0  0  0  0  0  0  0  0  0  0  0
  139.8347   74.9397  218.5950 H   0  0  0  0  0  0  0  0  0  0  0  0
  139.3975   76.6546  218.2551 H   0  0  0  0  0  0  0  0  0  0  0  0
  141.9146   75.1508  217.7464 H   0  0  0  0  0  0  0  0  0  0  0  0
  141.0094   76.4566  216.7813 H   0  0  0  0  0  0  0  0  0  0  0  0
  143.3651   76.8389  217.7161 H   0  0  0  0  0  0  0  0  0  0  0  0
  142.0120   78.0940  217.7248 H   0  0  0  0  0  0  0  0  0  0  0  0
  143.0305   76.4958  220.0902 H   0  0  0  0  0  0  0  0  0  0  0  0
  143.2374   78.2278  219.8224 H   0  0  0  0  0  0  0  0  0  0  0  0
  140.6206   78.3573  219.5675 H   0  0  0  0  0  0  0  0  0  0  0  0
  139.0383   77.8624  221.8890 H   0  0  0  0  0  0  0  0  0  0  0  0
  139.0264   79.0521  224.0481 H   0  0  0  0  0  0  0  0  0  0  0  0
  141.1172   80.2040  224.7770 H   0  0  0  0  0  0  0  0  0  0  0  0
  143.1179   78.9820  221.2774 H   0  0  0  0  0  0  0  0  0  0  0  0
  138.3807   69.5396  222.0983 H   0  0  0  0  0  0  0  0  0  0  0  0
  138.8361   67.9748  224.0005 H   0  0  0  0  0  0  0  0  0  0  0  0
  139.7757   67.6393  226.2547 H   0  0  0  0  0  0  0  0  0  0  0  0
  141.5890   70.9695  228.3028 H   0  0  0  0  0  0  0  0  0  0  0  0
  141.0900   72.4713  226.3491 H   0  0  0  0  0  0  0  0  0  0  0  0
  1  2  2  0
  2  3  1  0
  3  4  1  0
  4  5  1  0
  5  6  2  0
  5  7  1  0
  7  8  1  0
  8  9  1  0
  9 10  1  0
 10 11  1  0
 11 12  1  0
 12 13  1  0
 13 14  2  0
 14 15  1  0
 15 16  2  0
 16 17  1  0
 17 18  2  0
  2 19  1  0
 19 20  2  0
 20 21  1  0
 21 22  2  0
 22 23  1  0
 23 24  2  0
 24 25  1  0
 24 26  1  0
 26 27  2  0
 27 28  1  0
 28 29  2  0
 12  7  1  0
 18 13  1  0
 29 19  1  0
 28 22  1  0
  3 30  1  0
  4 31  1  0
  4 32  1  0
  8 33  1  0
  8 34  1  0
  9 35  1  0
  9 36  1  0
 10 37  1  0
 10 38  1  0
 11 39  1  0
 11 40  1  0
 12 41  1  6
 14 42  1  0
 15 43  1  0
 16 44  1  0
 18 45  1  0
 20 46  1  0
 21 47  1  0
 23 48  1  0
 26 49  1  0
 27 50  1  0
M  END
>  <smiles>  (1) 
O=C(NCC(=O)N1CCCCC1c1cccnc1)c1ccc2cc(Cl)ccc2n1

>  <score_type>  (1) 
oracle

>  <origin>  (1) 
autodockgpu

>  <m_score__min__energy>  (1) 
-8.8599999999999994

>  <m_primary>  (1) 
energy

>  <rmsd>  (1) 
1.3725362652817334

>  <m_score__min__rmsd>  (1) 
1.3725362652817334

>  <meeko>  (1) 
{"free_energy": -8.24, "intermolecular_energy": -9.73, "internal_energy": -1.99, "cluster_size": 15, "cluster_id": 2, "rank_in_cluster": 7}

>  <energy>  (1) 
-8.86

>  <cluster_rmsd>  (1) 
0.0

>  <cluster>  (1) 
1

$$$$

     RDKit          3D

 50 53  0  0  0  0  0  0  0  0999 V2000
  140.0510   72.4910  220.7460 O   0  0  0  0  0  0  0  0  0  0  0  0
  139.8820   72.8920  221.9260 C   0  0  0  0  0  0  0  0  0  0  0  0
  139.6400   74.2500  222.2690 N   0  0  0  0  0  0  0  0  0  0  0  0
  139.5730   75.2990  221.2170 C   0  0  0  0  0  0  0  0  0  0  0  0
  138.9020   76.4730  221.7820 C   0  0  0  0  0  0  0  0  0  0  0  0
  138.5890   76.3790  223.0330 O   0  0  0  0  0  0  0  0  0  0  0  0
  138.5450   77.6760  221.1680 N   0  0  0  0  0  0  0  0  0  0  0  0
  137.1910   77.7410  220.5880 C   0  0  0  0  0  0  0  0  0  0  0  0
  137.2600   78.1900  219.1560 C   0  0  0  0  0  0  0  0  0  0  0  0
  138.3650   79.0890  218.7770 C   0  0  0  0  0  0  0  0  0  0  0  0
  139.6770   78.8630  219.4980 C   0  0  0  0  0  0  0  0  0  0  0  0
  139.3190   78.8600  220.9770 C   0  0  2  0  0  0  0  0  0  0  0  0
  140.3840   79.1540  221.8960 C   0  0  0  0  0  0  0  0  0  0  0  0
  140.4510   78.7720  223.2230 C   0  0  0  0  0  0  0  0  0  0  0  0
  141.5200   79.0410  224.0400 C   0  0  0  0  0  0  0  0  0  0  0  0
  142.5780   79.7320  223.4880 C   0  0  0  0  0  0  0  0  0  0  0  0
  142.5470   80.1170  222.2040 N   0  0  0  0  0  0  0  0  0  0  0  0
  141.5030   79.8500  221.4200 C   0  0  0  0  0  0  0  0  0  0  0  0
  139.9350   71.9030  223.0240 C   0  0  0  0  0  0  0  0  0  0  0  0
  139.4950   70.6110  222.8240 C   0  0  0  0  0  0  0  0  0  0  0  0
  139.5450   69.6760  223.8610 C   0  0  0  0  0  0  0  0  0  0  0  0
  140.0500   70.0800  225.1020 C   0  0  0  0  0  0  0  0  0  0  0  0
  140.1210   69.1970  226.1600 C   0  0  0  0  0  0  0  0  0  0  0  0
  140.6290   69.6540  227.3580 C   0  0  0  0  0  0  0  0  0  0  0  0
  140.7100   68.5060  228.6940 Cl  0  0  0  0  0  0  0  0  0  0  0  0
  141.0620   70.9540  227.5280 C   0  0  0  0  0  0  0  0  0  0  0  0
  140.9930   71.8500  226.4660 C   0  0  0  0  0  0  0  0  0  0  0  0
  140.4810   71.3790  225.2670 C   0  0  0  0  0  0  0  0  0  0  0  0
  140.4130   72.2380  224.2450 N   0  0  0  0  0  0  0  0  0  0  0  0
  139.5110   74.4940  223.2720 H   0  0  0  0  0  0  0  0  0  0  0  0
  140.5897   75.5699  220.8961 H   0  0  0  0  0  0  0  0  0  0  0  0
  139.0161   74.9267  220.3445 H   0  0  0  0  0  0  0  0  0  0  0  0
  136.7279   76.7443  220.6342 H   0  0  0  0  0  0  0  0  0  0  0  0
  136.5896   78.4620  221.1612 H   0  0  0  0  0  0  0  0  0  0  0  0
  137.3401   77.2881  218.5314 H   0  0  0  0  0  0  0  0  0  0  0  0
  136.3487   78.7873  219.0055 H   0  0  0  0  0  0  0  0  0  0  0  0
  138.5466   78.9643  217.6993 H   0  0  0  0  0  0  0  0  0  0  0  0
  138.0382   80.0998  219.0625 H   0  0  0  0  0  0  0  0  0  0  0  0
  140.1179   77.8987  219.2051 H   0  0  0  0  0  0  0  0  0  0  0  0
  140.4204   79.6364  219.2547 H   0  0  0  0  0  0  0  0  0  0  0  0
  138.7106   79.7331  221.2554 H   0  0  0  0  0  0  0  0  0  0  0  0
  139.5990   78.2212  223.6480 H   0  0  0  0  0  0  0  0  0  0  0  0
  141.5325   78.7188  225.0917 H   0  0  0  0  0  0  0  0  0  0  0  0
  143.4558   79.9696  224.1069 H   0  0  0  0  0  0  0  0  0  0  0  0
  141.5202   80.1846  220.3723 H   0  0  0  0  0  0  0  0  0  0  0  0
  139.1017   70.3146  221.8404 H   0  0  0  0  0  0  0  0  0  0  0  0
  139.1951   68.6448  223.7053 H   0  0  0  0  0  0  0  0  0  0  0  0
  139.7815   68.1564  226.0508 H   0  0  0  0  0  0  0  0  0  0  0  0
  141.4603   71.2802  228.5001 H   0  0  0  0  0  0  0  0  0  0  0  0
  141.3314   72.8911  226.5735 H   0  0  0  0  0  0  0  0  0  0  0  0
  1  2  2  0
  2  3  1  0
  3  4  1  0
  4  5  1  0
  5  6  2  0
  5  7  1  0
  7  8  1  0
  8  9  1  0
  9 10  1  0
 10 11  1  0
 11 12  1  0
 12 13  1  0
 13 14  2  0
 14 15  1  0
 15 16  2  0
 16 17  1  0
 17 18  2  0
  2 19  1  0
 19 20  2  0
 20 21  1  0
 21 22  2  0
 22 23  1  0
 23 24  2  0
 24 25  1  0
 24 26  1  0
 26 27  2  0
 27 28  1  0
 28 29  2  0
 12  7  1  0
 18 13  1  0
 29 19  1  0
 28 22  1  0
  3 30  1  0
  4 31  1  0
  4 32  1  0
  8 33  1  0
  8 34  1  0
  9 35  1  0
  9 36  1  0
 10 37  1  0
 10 38  1  0
 11 39  1  0
 11 40  1  0
 12 41  1  6
 14 42  1  0
 15 43  1  0
 16 44  1  0
 18 45  1  0
 20 46  1  0
 21 47  1  0
 23 48  1  0
 26 49  1  0
 27 50  1  0
M  END
>  <smiles>  (2) 
O=C(NCC(=O)N1CCCCC1c1cccnc1)c1ccc2cc(Cl)ccc2n1

>  <score_type>  (2) 
oracle

>  <origin>  (2) 
autodockgpu

>  <m_score__min__energy>  (2) 
-8.8599999999999994

>  <m_primary>  (2) 
energy

>  <rmsd>  (2) 
2.5240390532403314

>  <m_score__min__rmsd>  (2) 
2.5240390532403314

>  <meeko>  (2) 
{"free_energy": -7.7, "intermolecular_energy": -9.19, "internal_energy": -1.95, "cluster_size": 15, "cluster_id": 2, "rank_in_cluster": 12}

>  <energy>  (2) 
-8.49

>  <cluster_rmsd>  (2) 
1.05

>  <cluster>  (2) 
1

$$$$

     RDKit          3D

 50 53  0  0  0  0  0  0  0  0999 V2000
  138.5870   71.5420  221.0000 O   0  0  0  0  0  0  0  0  0  0  0  0
  139.0100   72.0320  222.0780 C   0  0  0  0  0  0  0  0  0  0  0  0
  139.2410   73.4210  222.2740 N   0  0  0  0  0  0  0  0  0  0  0  0
  138.9870   74.3960  221.1800 C   0  0  0  0  0  0  0  0  0  0  0  0
  140.0810   75.3710  221.1720 C   0  0  0  0  0  0  0  0  0  0  0  0
  140.7760   75.4280  222.2610 O   0  0  0  0  0  0  0  0  0  0  0  0
  140.4810   76.2510  220.1630 N   0  0  0  0  0  0  0  0  0  0  0  0
  140.1840   75.8410  218.7780 C   0  0  0  0  0  0  0  0  0  0  0  0
  141.4300   75.9020  217.9400 C   0  0  0  0  0  0  0  0  0  0  0  0
  142.4480   76.9020  218.3050 C   0  0  0  0  0  0  0  0  0  0  0  0
  142.5920   77.1890  219.7850 C   0  0  0  0  0  0  0  0  0  0  0  0
  141.1800   77.4900  220.2680 C   0  0  2  0  0  0  0  0  0  0  0  0
  141.0660   78.2570  221.4780 C   0  0  0  0  0  0  0  0  0  0  0  0
  139.9470   78.3580  222.2820 C   0  0  0  0  0  0  0  0  0  0  0  0
  139.9130   79.0680  223.4560 C   0  0  0  0  0  0  0  0  0  0  0  0
  141.0710   79.7110  223.8380 C   0  0  0  0  0  0  0  0  0  0  0  0
  142.1760   79.6340  223.0820 N   0  0  0  0  0  0  0  0  0  0  0  0
  142.1970   78.9410  221.9440 C   0  0  0  0  0  0  0  0  0  0  0  0
  139.2830   71.1210  223.2110 C   0  0  0  0  0  0  0  0  0  0  0  0
  138.9110   69.7950  223.1480 C   0  0  0  0  0  0  0  0  0  0  0  0
  139.1700   68.9330  224.2170 C   0  0  0  0  0  0  0  0  0  0  0  0
  139.8140   69.4480  225.3480 C   0  0  0  0  0  0  0  0  0  0  0  0
  140.0930   68.6410  226.4330 C   0  0  0  0  0  0  0  0  0  0  0  0
  140.7300   69.2050  227.5190 C   0  0  0  0  0  0  0  0  0  0  0  0
  141.0750   68.1520  228.8910 Cl  0  0  0  0  0  0  0  0  0  0  0  0
  141.0910   70.5360  227.5520 C   0  0  0  0  0  0  0  0  0  0  0  0
  140.8120   71.3560  226.4630 C   0  0  0  0  0  0  0  0  0  0  0  0
  140.1720   70.7790  225.3770 C   0  0  0  0  0  0  0  0  0  0  0  0
  139.9030   71.5630  224.3300 N   0  0  0  0  0  0  0  0  0  0  0  0
  139.5920   73.7400  223.2010 H   0  0  0  0  0  0  0  0  0  0  0  0
  138.9495   73.8706  220.2143 H   0  0  0  0  0  0  0  0  0  0  0  0
  138.0254   74.9054  221.3409 H   0  0  0  0  0  0  0  0  0  0  0  0
  139.7969   74.8114  218.7790 H   0  0  0  0  0  0  0  0  0  0  0  0
  139.4330   76.5243  218.3547 H   0  0  0  0  0  0  0  0  0  0  0  0
  141.9082   74.9126  217.9885 H   0  0  0  0  0  0  0  0  0  0  0  0
  141.0816   76.2086  216.9427 H   0  0  0  0  0  0  0  0  0  0  0  0
  143.4201   76.5440  217.9349 H   0  0  0  0  0  0  0  0  0  0  0  0
  142.1147   77.8462  217.8496 H   0  0  0  0  0  0  0  0  0  0  0  0
  143.0018   76.3137  220.3103 H   0  0  0  0  0  0  0  0  0  0  0  0
  143.2813   78.0241  219.9785 H   0  0  0  0  0  0  0  0  0  0  0  0
  140.6778   78.2368  219.6355 H   0  0  0  0  0  0  0  0  0  0  0  0
  139.0308   77.8396  221.9629 H   0  0  0  0  0  0  0  0  0  0  0  0
  138.9997   79.1218  224.0667 H   0  0  0  0  0  0  0  0  0  0  0  0
  141.0888   80.2926  224.7715 H   0  0  0  0  0  0  0  0  0  0  0  0
  143.1256   78.9049  221.3554 H   0  0  0  0  0  0  0  0  0  0  0  0
  138.4061   69.4123  222.2488 H   0  0  0  0  0  0  0  0  0  0  0  0
  138.8746   67.8744  224.1707 H   0  0  0  0  0  0  0  0  0  0  0  0
  139.8148   67.5768  226.4315 H   0  0  0  0  0  0  0  0  0  0  0  0
  141.5981   70.9480  228.4369 H   0  0  0  0  0  0  0  0  0  0  0  0
  141.0885   72.4207  226.4638 H   0  0  0  0  0  0  0  0  0  0  0  0
  1  2  2  0
  2  3  1  0
  3  4  1  0
  4  5  1  0
  5  6  2  0
  5  7  1  0
  7  8  1  0
  8  9  1  0
  9 10  1  0
 10 11  1  0
 11 12  1  0
 12 13  1  0
 13 14  2  0
 14 15  1  0
 15 16  2  0
 16 17  1  0
 17 18  2  0
  2 19  1  0
 19 20  2  0
 20 21  1  0
 21 22  2  0
 22 23  1  0
 23 24  2  0
 24 25  1  0
 24 26  1  0
 26 27  2  0
 27 28  1  0
 28 29  2  0
 12  7  1  0
 18 13  1  0
 29 19  1  0
 28 22  1  0
  3 30  1  0
  4 31  1  0
  4 32  1  0
  8 33  1  0
  8 34  1  0
  9 35  1  0
  9 36  1  0
 10 37  1  0
 10 38  1  0
 11 39  1  0
 11 40  1  0
 12 41  1  6
 14 42  1  0
 15 43  1  0
 16 44  1  0
 18 45  1  0
 20 46  1  0
 21 47  1  0
 23 48  1  0
 26 49  1  0
 27 50  1  0
M  END
>  <smiles>  (3) 
O=C(NCC(=O)N1CCCCC1c1cccnc1)c1ccc2cc(Cl)ccc2n1

>  <score_type>  (3) 
oracle

>  <origin>  (3) 
autodockgpu

>  <m_score__min__energy>  (3) 
-8.8599999999999994

>  <m_primary>  (3) 
energy

>  <rmsd>  (3) 
1.3464411012867683

>  <m_score__min__rmsd>  (3) 
1.3464411012867683

>  <meeko>  (3) 
{"free_energy": -8.28, "intermolecular_energy": -9.77, "internal_energy": -2.01, "cluster_size": 15, "cluster_id": 2, "rank_in_cluster": 5}

>  <energy>  (3) 
-8.49

>  <cluster_rmsd>  (3) 
1.39

>  <cluster>  (3) 
1

$$$$

     RDKit          3D

 50 53  0  0  0  0  0  0  0  0999 V2000
  138.3420   71.3690  221.0840 O   0  0  0  0  0  0  0  0  0  0  0  0
  138.8890   71.8670  222.1020 C   0  0  0  0  0  0  0  0  0  0  0  0
  139.2310   73.2420  222.2190 N   0  0  0  0  0  0  0  0  0  0  0  0
  138.9510   74.1910  221.1100 C   0  0  0  0  0  0  0  0  0  0  0  0
  139.8540   75.3370  221.2490 C   0  0  0  0  0  0  0  0  0  0  0  0
  140.2510   75.5820  222.4550 O   0  0  0  0  0  0  0  0  0  0  0  0
  140.3440   76.2080  220.2730 N   0  0  0  0  0  0  0  0  0  0  0  0
  140.1370   75.8050  218.8690 C   0  0  0  0  0  0  0  0  0  0  0  0
  141.4390   75.8350  218.1210 C   0  0  0  0  0  0  0  0  0  0  0  0
  142.4530   76.8120  218.5590 C   0  0  0  0  0  0  0  0  0  0  0  0
  142.4980   77.0950  220.0450 C   0  0  0  0  0  0  0  0  0  0  0  0
  141.0640   77.4300  220.4280 C   0  0  2  0  0  0  0  0  0  0  0  0
  140.8820   78.2000  221.6280 C   0  0  0  0  0  0  0  0  0  0  0  0
  141.8820   78.6710  222.4580 C   0  0  0  0  0  0  0  0  0  0  0  0
  141.6490   79.4450  223.5670 C   0  0  0  0  0  0  0  0  0  0  0  0
  140.3380   79.7610  223.8520 C   0  0  0  0  0  0  0  0  0  0  0  0
  139.3430   79.3220  223.0680 N   0  0  0  0  0  0  0  0  0  0  0  0
  139.5820   78.5700  221.9930 C   0  0  0  0  0  0  0  0  0  0  0  0
  139.1950   70.9800  223.2450 C   0  0  0  0  0  0  0  0  0  0  0  0
  138.8730   69.6400  223.1970 C   0  0  0  0  0  0  0  0  0  0  0  0
  139.1630   68.8010  224.2770 C   0  0  0  0  0  0  0  0  0  0  0  0
  139.7870   69.3530  225.4020 C   0  0  0  0  0  0  0  0  0  0  0  0
  140.0950   68.5700  226.4960 C   0  0  0  0  0  0  0  0  0  0  0  0
  140.7100   69.1700  227.5750 C   0  0  0  0  0  0  0  0  0  0  0  0
  141.0930   68.1470  228.9600 Cl  0  0  0  0  0  0  0  0  0  0  0  0
  141.0200   70.5140  227.5930 C   0  0  0  0  0  0  0  0  0  0  0  0
  140.7120   71.3100  226.4940 C   0  0  0  0  0  0  0  0  0  0  0  0
  140.0950   70.6960  225.4150 C   0  0  0  0  0  0  0  0  0  0  0  0
  139.7970   71.4580  224.3580 N   0  0  0  0  0  0  0  0  0  0  0  0
  139.6810   73.5680  223.0980 H   0  0  0  0  0  0  0  0  0  0  0  0
  139.1242   73.6956  220.1433 H   0  0  0  0  0  0  0  0  0  0  0  0
  137.9038   74.5252  221.1512 H   0  0  0  0  0  0  0  0  0  0  0  0
  139.7258   74.7851  218.8410 H   0  0  0  0  0  0  0  0  0  0  0  0
  139.4355   76.5072  218.3948 H   0  0  0  0  0  0  0  0  0  0  0  0
  141.8888   74.8344  218.2020 H   0  0  0  0  0  0  0  0  0  0  0  0
  141.1696   76.1484  217.1016 H   0  0  0  0  0  0  0  0  0  0  0  0
  143.4402   76.4313  218.2581 H   0  0  0  0  0  0  0  0  0  0  0  0
  142.1755   77.7638  218.0825 H   0  0  0  0  0  0  0  0  0  0  0  0
  142.8483   76.2099  220.5963 H   0  0  0  0  0  0  0  0  0  0  0  0
  143.1916   77.9135  220.2880 H   0  0  0  0  0  0  0  0  0  0  0  0
  140.6274   78.1890  219.7622 H   0  0  0  0  0  0  0  0  0  0  0  0
  142.9230   78.4108  222.2159 H   0  0  0  0  0  0  0  0  0  0  0  0
  142.4744   79.7986  224.2023 H   0  0  0  0  0  0  0  0  0  0  0  0
  140.1058   80.3795  224.7315 H   0  0  0  0  0  0  0  0  0  0  0  0
  138.7358   78.2316  221.3770 H   0  0  0  0  0  0  0  0  0  0  0  0
  138.3841   69.2280  222.3019 H   0  0  0  0  0  0  0  0  0  0  0  0
  138.9068   67.7318  224.2436 H   0  0  0  0  0  0  0  0  0  0  0  0
  139.8564   67.4962  226.5071 H   0  0  0  0  0  0  0  0  0  0  0  0
  141.5094   70.9553  228.4738 H   0  0  0  0  0  0  0  0  0  0  0  0
  140.9488   72.3841  226.4819 H   0  0  0  0  0  0  0  0  0  0  0  0
  1  2  2  0
  2  3  1  0
  3  4  1  0
  4  5  1  0
  5  6  2  0
  5  7  1  0
  7  8  1  0
  8  9  1  0
  9 10  1  0
 10 11  1  0
 11 12  1  0
 12 13  1  0
 13 14  2  0
 14 15  1  0
 15 16  2  0
 16 17  1  0
 17 18  2  0
  2 19  1  0
 19 20  2  0
 20 21  1  0
 21 22  2  0
 22 23  1  0
 23 24  2  0
 24 25  1  0
 24 26  1  0
 26 27  2  0
 27 28  1  0
 28 29  2  0
 12  7  1  0
 18 13  1  0
 29 19  1  0
 28 22  1  0
  3 30  1  0
  4 31  1  0
  4 32  1  0
  8 33  1  0
  8 34  1  0
  9 35  1  0
  9 36  1  0
 10 37  1  0
 10 38  1  0
 11 39  1  0
 11 40  1  0
 12 41  1  6
 14 42  1  0
 15 43  1  0
 16 44  1  0
 18 45  1  0
 20 46  1  0
 21 47  1  0
 23 48  1  0
 26 49  1  0
 27 50  1  0
M  END
>  <smiles>  (4) 
O=C(NCC(=O)N1CCCCC1c1cccnc1)c1ccc2cc(Cl)ccc2n1

>  <score_type>  (4) 
oracle

>  <origin>  (4) 
autodockgpu

>  <m_score__min__energy>  (4) 
-8.8599999999999994

>  <m_primary>  (4) 
energy

>  <rmsd>  (4) 
1.347514849199387

>  <m_score__min__rmsd>  (4) 
1.347514849199387

>  <meeko>  (4) 
{"free_energy": -8.11, "intermolecular_energy": -9.6, "internal_energy": -2.05, "cluster_size": 15, "cluster_id": 2, "rank_in_cluster": 10}

>  <energy>  (4) 
-8.47

>  <cluster_rmsd>  (4) 
1.39

>  <cluster>  (4) 
1

$$$$

     RDKit          3D

 50 53  0  0  0  0  0  0  0  0999 V2000
  138.3170   72.5680  221.6600 O   0  0  0  0  0  0  0  0  0  0  0  0
  139.3840   72.6130  222.3240 C   0  0  0  0  0  0  0  0  0  0  0  0
  140.3970   73.5890  222.1200 N   0  0  0  0  0  0  0  0  0  0  0  0
  140.2430   74.6390  221.0780 C   0  0  0  0  0  0  0  0  0  0  0  0
  141.3850   74.5500  220.1650 C   0  0  0  0  0  0  0  0  0  0  0  0
  141.6770   73.3570  219.7630 O   0  0  0  0  0  0  0  0  0  0  0  0
  142.2090   75.5640  219.6680 N   0  0  0  0  0  0  0  0  0  0  0  0
  141.6430   76.9260  219.6610 C   0  0  0  0  0  0  0  0  0  0  0  0
  141.7650   77.5330  218.2930 C   0  0  0  0  0  0  0  0  0  0  0  0
  142.9020   77.1070  217.4580 C   0  0  0  0  0  0  0  0  0  0  0  0
  143.3380   75.6660  217.6200 C   0  0  0  0  0  0  0  0  0  0  0  0
  143.5220   75.4760  219.1190 C   0  0  2  0  0  0  0  0  0  0  0  0
  144.3800   74.3970  219.5280 C   0  0  0  0  0  0  0  0  0  0  0  0
  144.7830   74.1150  220.8190 C   0  0  0  0  0  0  0  0  0  0  0  0
  145.5650   73.0380  221.1550 C   0  0  0  0  0  0  0  0  0  0  0  0
  145.9600   72.2020  220.1330 C   0  0  0  0  0  0  0  0  0  0  0  0
  145.5860   72.4440  218.8680 N   0  0  0  0  0  0  0  0  0  0  0  0
  144.8260   73.4930  218.5540 C   0  0  0  0  0  0  0  0  0  0  0  0
  139.6050   71.6000  223.3780 C   0  0  0  0  0  0  0  0  0  0  0  0
  139.2890   70.2770  223.1550 C   0  0  0  0  0  0  0  0  0  0  0  0
  139.4980   69.3190  224.1500 C   0  0  0  0  0  0  0  0  0  0  0  0
  140.0350   69.7340  225.3740 C   0  0  0  0  0  0  0  0  0  0  0  0
  140.2610   68.8300  226.3920 C   0  0  0  0  0  0  0  0  0  0  0  0
  140.7920   69.2980  227.5750 C   0  0  0  0  0  0  0  0  0  0  0  0
  141.0720   68.1220  228.8590 Cl  0  0  0  0  0  0  0  0  0  0  0  0
  141.0990   70.6300  227.7700 C   0  0  0  0  0  0  0  0  0  0  0  0
  140.8730   71.5480  226.7490 C   0  0  0  0  0  0  0  0  0  0  0  0
  140.3400   71.0650  225.5640 C   0  0  0  0  0  0  0  0  0  0  0  0
  140.1210   71.9440  224.5810 N   0  0  0  0  0  0  0  0  0  0  0  0
  141.2500   73.5520  222.7160 H   0  0  0  0  0  0  0  0  0  0  0  0
  139.3081   74.4769  220.5216 H   0  0  0  0  0  0  0  0  0  0  0  0
  140.2068   75.6344  221.5447 H   0  0  0  0  0  0  0  0  0  0  0  0
  140.5811   76.8793  219.9441 H   0  0  0  0  0  0  0  0  0  0  0  0
  142.1971   77.5479  220.3795 H   0  0  0  0  0  0  0  0  0  0  0  0
  140.8436   77.2922  217.7425 H   0  0  0  0  0  0  0  0  0  0  0  0
  141.9379   78.6038  218.4762 H   0  0  0  0  0  0  0  0  0  0  0  0
  142.6221   77.2581  216.4050 H   0  0  0  0  0  0  0  0  0  0  0  0
  143.7573   77.7156  217.7867 H   0  0  0  0  0  0  0  0  0  0  0  0
  142.5661   74.9830  217.2356 H   0  0  0  0  0  0  0  0  0  0  0  0
  144.2591   75.4476  217.0598 H   0  0  0  0  0  0  0  0  0  0  0  0
  144.1460   76.2666  219.5612 H   0  0  0  0  0  0  0  0  0  0  0  0
  144.4589   74.7918  221.6232 H   0  0  0  0  0  0  0  0  0  0  0  0
  145.8640   72.8500  222.1968 H   0  0  0  0  0  0  0  0  0  0  0  0
  146.5884   71.3274  220.3571 H   0  0  0  0  0  0  0  0  0  0  0  0
  144.5415   73.6534  217.5036 H   0  0  0  0  0  0  0  0  0  0  0  0
  138.8686   69.9729  222.1851 H   0  0  0  0  0  0  0  0  0  0  0  0
  139.2462   68.2625  223.9754 H   0  0  0  0  0  0  0  0  0  0  0  0
  140.0236   67.7637  226.2628 H   0  0  0  0  0  0  0  0  0  0  0  0
  141.5208   70.9644  228.7293 H   0  0  0  0  0  0  0  0  0  0  0  0
  141.1080   72.6149  226.8771 H   0  0  0  0  0  0  0  0  0  0  0  0
  1  2  2  0
  2  3  1  0
  3  4  1  0
  4  5  1  0
  5  6  2  0
  5  7  1  0
  7  8  1  0
  8  9  1  0
  9 10  1  0
 10 11  1  0
 11 12  1  0
 12 13  1  0
 13 14  2  0
 14 15  1  0
 15 16  2  0
 16 17  1  0
 17 18  2  0
  2 19  1  0
 19 20  2  0
 20 21  1  0
 21 22  2  0
 22 23  1  0
 23 24  2  0
 24 25  1  0
 24 26  1  0
 26 27  2  0
 27 28  1  0
 28 29  2  0
 12  7  1  0
 18 13  1  0
 29 19  1  0
 28 22  1  0
  3 30  1  0
  4 31  1  0
  4 32  1  0
  8 33  1  0
  8 34  1  0
  9 35  1  0
  9 36  1  0
 10 37  1  0
 10 38  1  0
 11 39  1  0
 11 40  1  0
 12 41  1  1
 14 42  1  0
 15 43  1  0
 16 44  1  0
 18 45  1  0
 20 46  1  0
 21 47  1  0
 23 48  1  0
 26 49  1  0
 27 50  1  0
M  END
>  <smiles>  (5) 
O=C(NCC(=O)N1CCCCC1c1cccnc1)c1ccc2cc(Cl)ccc2n1

>  <score_type>  (5) 
oracle

>  <origin>  (5) 
autodockgpu

>  <m_score__min__energy>  (5) 
-8.8599999999999994

>  <m_primary>  (5) 
energy

>  <rmsd>  (5) 
2.335792795146811

>  <m_score__min__rmsd>  (5) 
2.335792795146811

>  <meeko>  (5) 
{"free_energy": -8.15, "intermolecular_energy": -9.64, "internal_energy": -1.44, "cluster_size": 22, "cluster_id": 1, "rank_in_cluster": 14}

>  <energy>  (5) 
-8.47

>  <cluster_rmsd>  (5) 
1.42

>  <cluster>  (5) 
1

$$$$

     RDKit          3D

 50 53  0  0  0  0  0  0  0  0999 V2000
  138.4890   71.6700  221.0260 O   0  0  0  0  0  0  0  0  0  0  0  0
  138.9610   72.1340  222.0960 C   0  0  0  0  0  0  0  0  0  0  0  0
  139.2380   73.5130  222.3000 N   0  0  0  0  0  0  0  0  0  0  0  0
  138.9770   74.5090  221.2270 C   0  0  0  0  0  0  0  0  0  0  0  0
  140.1720   75.3440  221.0760 C   0  0  0  0  0  0  0  0  0  0  0  0
  141.0700   75.1920  221.9930 O   0  0  0  0  0  0  0  0  0  0  0  0
  140.4820   76.2830  220.0890 N   0  0  0  0  0  0  0  0  0  0  0  0
  140.0900   75.9400  218.7090 C   0  0  0  0  0  0  0  0  0  0  0  0
  141.2690   76.0690  217.7870 C   0  0  0  0  0  0  0  0  0  0  0  0
  142.2960   77.0690  218.1300 C   0  0  0  0  0  0  0  0  0  0  0  0
  142.5430   77.2810  219.6080 C   0  0  0  0  0  0  0  0  0  0  0  0
  141.1670   77.5290  220.2080 C   0  0  2  0  0  0  0  0  0  0  0  0
  141.1300   78.2300  221.4620 C   0  0  0  0  0  0  0  0  0  0  0  0
  142.1790   78.9070  222.0530 C   0  0  0  0  0  0  0  0  0  0  0  0
  142.0700   79.6020  223.2330 C   0  0  0  0  0  0  0  0  0  0  0  0
  140.8350   79.6120  223.8460 C   0  0  0  0  0  0  0  0  0  0  0  0
  139.7950   78.9660  223.3000 N   0  0  0  0  0  0  0  0  0  0  0  0
  139.9130   78.2950  222.1540 C   0  0  0  0  0  0  0  0  0  0  0  0
  139.2450   71.2010  223.2070 C   0  0  0  0  0  0  0  0  0  0  0  0
  138.8850   69.8730  223.1150 C   0  0  0  0  0  0  0  0  0  0  0  0
  139.1540   68.9910  224.1650 C   0  0  0  0  0  0  0  0  0  0  0  0
  139.7950   69.4860  225.3060 C   0  0  0  0  0  0  0  0  0  0  0  0
  140.0830   68.6580  226.3720 C   0  0  0  0  0  0  0  0  0  0  0  0
  140.7170   69.2040  227.4690 C   0  0  0  0  0  0  0  0  0  0  0  0
  141.0740   68.1250  228.8170 Cl  0  0  0  0  0  0  0  0  0  0  0  0
  141.0650   70.5380  227.5320 C   0  0  0  0  0  0  0  0  0  0  0  0
  140.7770   71.3790  226.4610 C   0  0  0  0  0  0  0  0  0  0  0  0
  140.1410   70.8190  225.3640 C   0  0  0  0  0  0  0  0  0  0  0  0
  139.8620   71.6240  224.3340 N   0  0  0  0  0  0  0  0  0  0  0  0
  139.6290   73.8100  223.2180 H   0  0  0  0  0  0  0  0  0  0  0  0
  138.7637   73.9898  220.2810 H   0  0  0  0  0  0  0  0  0  0  0  0
  138.1093   75.1318  221.4899 H   0  0  0  0  0  0  0  0  0  0  0  0
  139.7203   74.9043  218.6832 H   0  0  0  0  0  0  0  0  0  0  0  0
  139.2992   76.6297  218.3788 H   0  0  0  0  0  0  0  0  0  0  0  0
  141.7649   75.0879  217.7473 H   0  0  0  0  0  0  0  0  0  0  0  0
  140.8431   76.4203  216.8356 H   0  0  0  0  0  0  0  0  0  0  0  0
  143.2438   76.7497  217.6721 H   0  0  0  0  0  0  0  0  0  0  0  0
  141.9160   78.0290  217.7505 H   0  0  0  0  0  0  0  0  0  0  0  0
  143.0038   76.3876  220.0546 H   0  0  0  0  0  0  0  0  0  0  0  0
  143.2313   78.1184  219.7950 H   0  0  0  0  0  0  0  0  0  0  0  0
  140.6082   78.2980  219.6544 H   0  0  0  0  0  0  0  0  0  0  0  0
  143.1572   78.8886  221.5502 H   0  0  0  0  0  0  0  0  0  0  0  0
  142.9314   80.1281  223.6702 H   0  0  0  0  0  0  0  0  0  0  0  0
  140.7017   80.1557  224.7929 H   0  0  0  0  0  0  0  0  0  0  0  0
  139.0332   77.7795  221.7413 H   0  0  0  0  0  0  0  0  0  0  0  0
  138.3823   69.5052  222.2083 H   0  0  0  0  0  0  0  0  0  0  0  0
  138.8682   67.9310  224.0960 H   0  0  0  0  0  0  0  0  0  0  0  0
  139.8143   67.5916  226.3476 H   0  0  0  0  0  0  0  0  0  0  0  0
  141.5684   70.9353  228.4257 H   0  0  0  0  0  0  0  0  0  0  0  0
  141.0436   72.4460  226.4842 H   0  0  0  0  0  0  0  0  0  0  0  0
  1  2  2  0
  2  3  1  0
  3  4  1  0
  4  5  1  0
  5  6  2  0
  5  7  1  0
  7  8  1  0
  8  9  1  0
  9 10  1  0
 10 11  1  0
 11 12  1  0
 12 13  1  0
 13 14  2  0
 14 15  1  0
 15 16  2  0
 16 17  1  0
 17 18  2  0
  2 19  1  0
 19 20  2  0
 20 21  1  0
 21 22  2  0
 22 23  1  0
 23 24  2  0
 24 25  1  0
 24 26  1  0
 26 27  2  0
 27 28  1  0
 28 29  2  0
 12  7  1  0
 18 13  1  0
 29 19  1  0
 28 22  1  0
  3 30  1  0
  4 31  1  0
  4 32  1  0
  8 33  1  0
  8 34  1  0
  9 35  1  0
  9 36  1  0
 10 37  1  0
 10 38  1  0
 11 39  1  0
 11 40  1  0
 12 41  1  6
 14 42  1  0
 15 43  1  0
 16 44  1  0
 18 45  1  0
 20 46  1  0
 21 47  1  0
 23 48  1  0
 26 49  1  0
 27 50  1  0
M  END
>  <smiles>  (6) 
O=C(NCC(=O)N1CCCCC1c1cccnc1)c1ccc2cc(Cl)ccc2n1

>  <score_type>  (6) 
oracle

>  <origin>  (6) 
autodockgpu

>  <m_score__min__energy>  (6) 
-8.8599999999999994

>  <m_primary>  (6) 
energy

>  <rmsd>  (6) 
1.332723091342765

>  <m_score__min__rmsd>  (6) 
1.332723091342765

>  <meeko>  (6) 
{"free_energy": -8.3, "intermolecular_energy": -9.79, "internal_energy": -1.92, "cluster_size": 15, "cluster_id": 2, "rank_in_cluster": 4}

>  <energy>  (6) 
-8.46

>  <cluster_rmsd>  (6) 
1.38

>  <cluster>  (6) 
1

$$$$

     RDKit          3D

 50 53  0  0  0  0  0  0  0  0999 V2000
  140.2330   72.2330  220.6480 O   0  0  0  0  0  0  0  0  0  0  0  0
  140.0060   72.6880  221.7980 C   0  0  0  0  0  0  0  0  0  0  0  0
  139.8070   74.0690  222.0720 N   0  0  0  0  0  0  0  0  0  0  0  0
  139.8570   75.0760  220.9790 C   0  0  0  0  0  0  0  0  0  0  0  0
  140.8870   76.0640  221.3140 C   0  0  0  0  0  0  0  0  0  0  0  0
  140.9380   76.4060  222.5590 O   0  0  0  0  0  0  0  0  0  0  0  0
  141.8170   76.6960  220.4840 N   0  0  0  0  0  0  0  0  0  0  0  0
  141.6880   78.1590  220.3470 C   0  0  0  0  0  0  0  0  0  0  0  0
  141.6340   78.5410  218.8950 C   0  0  0  0  0  0  0  0  0  0  0  0
  142.3530   77.6820  217.9370 C   0  0  0  0  0  0  0  0  0  0  0  0
  142.3780   76.2040  218.2660 C   0  0  0  0  0  0  0  0  0  0  0  0
  142.8680   76.1270  219.7050 C   0  0  2  0  0  0  0  0  0  0  0  0
  143.4500   74.8800  220.1200 C   0  0  0  0  0  0  0  0  0  0  0  0
  142.8120   73.6550  220.1670 C   0  0  0  0  0  0  0  0  0  0  0  0
  143.4350   72.4850  220.5260 C   0  0  0  0  0  0  0  0  0  0  0  0
  144.7730   72.5580  220.8530 C   0  0  0  0  0  0  0  0  0  0  0  0
  145.4230   73.7300  220.8170 N   0  0  0  0  0  0  0  0  0  0  0  0
  144.8070   74.8590  220.4670 C   0  0  0  0  0  0  0  0  0  0  0  0
  139.9410   71.7440  222.9330 C   0  0  0  0  0  0  0  0  0  0  0  0
  139.3190   70.5210  222.7920 C   0  0  0  0  0  0  0  0  0  0  0  0
  139.2580   69.6270  223.8640 C   0  0  0  0  0  0  0  0  0  0  0  0
  139.8410   70.0020  225.0800 C   0  0  0  0  0  0  0  0  0  0  0  0
  139.8080   69.1580  226.1710 C   0  0  0  0  0  0  0  0  0  0  0  0
  140.4000   69.5830  227.3430 C   0  0  0  0  0  0  0  0  0  0  0  0
  140.3440   68.4850  228.7220 Cl  0  0  0  0  0  0  0  0  0  0  0  0
  141.0150   70.8130  227.4540 C   0  0  0  0  0  0  0  0  0  0  0  0
  141.0510   71.6690  226.3580 C   0  0  0  0  0  0  0  0  0  0  0  0
  140.4540   71.2320  225.1860 C   0  0  0  0  0  0  0  0  0  0  0  0
  140.4870   72.0530  224.1320 N   0  0  0  0  0  0  0  0  0  0  0  0
  139.6240   74.3590  223.0550 H   0  0  0  0  0  0  0  0  0  0  0  0
  140.1094   74.5823  220.0290 H   0  0  0  0  0  0  0  0  0  0  0  0
  138.8792   75.5680  220.8703 H   0  0  0  0  0  0  0  0  0  0  0  0
  140.7647   78.4906  220.8446 H   0  0  0  0  0  0  0  0  0  0  0  0
  142.5597   78.6415  220.8131 H   0  0  0  0  0  0  0  0  0  0  0  0
  140.5753   78.5525  218.5967 H   0  0  0  0  0  0  0  0  0  0  0  0
  142.1491   79.5115  218.8418 H   0  0  0  0  0  0  0  0  0  0  0  0
  141.8754   77.8006  216.9532 H   0  0  0  0  0  0  0  0  0  0  0  0
  143.4017   78.0125  217.9685 H   0  0  0  0  0  0  0  0  0  0  0  0
  141.3705   75.7714  218.1773 H   0  0  0  0  0  0  0  0  0  0  0  0
  143.0256   75.6395  217.5791 H   0  0  0  0  0  0  0  0  0  0  0  0
  143.7854   76.7138  219.8603 H   0  0  0  0  0  0  0  0  0  0  0  0
  141.7452   73.6149  219.9020 H   0  0  0  0  0  0  0  0  0  0  0  0
  142.8899   71.5299  220.5517 H   0  0  0  0  0  0  0  0  0  0  0  0
  145.3123   71.6452  221.1463 H   0  0  0  0  0  0  0  0  0  0  0  0
  145.3790   75.7985  220.4502 H   0  0  0  0  0  0  0  0  0  0  0  0
  138.8671   70.2471  221.8272 H   0  0  0  0  0  0  0  0  0  0  0  0
  138.7631   68.6507  223.7548 H   0  0  0  0  0  0  0  0  0  0  0  0
  139.3228   68.1728  226.1083 H   0  0  0  0  0  0  0  0  0  0  0  0
  141.4754   71.1158  228.4060 H   0  0  0  0  0  0  0  0  0  0  0  0
  141.5348   72.6550  226.4192 H   0  0  0  0  0  0  0  0  0  0  0  0
  1  2  2  0
  2  3  1  0
  3  4  1  0
  4  5  1  0
  5  6  2  0
  5  7  1  0
  7  8  1  0
  8  9  1  0
  9 10  1  0
 10 11  1  0
 11 12  1  0
 12 13  1  0
 13 14  2  0
 14 15  1  0
 15 16  2  0
 16 17  1  0
 17 18  2  0
  2 19  1  0
 19 20  2  0
 20 21  1  0
 21 22  2  0
 22 23  1  0
 23 24  2  0
 24 25  1  0
 24 26  1  0
 26 27  2  0
 27 28  1  0
 28 29  2  0
 12  7  1  0
 18 13  1  0
 29 19  1  0
 28 22  1  0
  3 30  1  0
  4 31  1  0
  4 32  1  0
  8 33  1  0
  8 34  1  0
  9 35  1  0
  9 36  1  0
 10 37  1  0
 10 38  1  0
 11 39  1  0
 11 40  1  0
 12 41  1  6
 14 42  1  0
 15 43  1  0
 16 44  1  0
 18 45  1  0
 20 46  1  0
 21 47  1  0
 23 48  1  0
 26 49  1  0
 27 50  1  0
M  END
>  <smiles>  (7) 
O=C(NCC(=O)N1CCCCC1c1cccnc1)c1ccc2cc(Cl)ccc2n1

>  <score_type>  (7) 
oracle

>  <origin>  (7) 
autodockgpu

>  <m_score__min__energy>  (7) 
-8.8599999999999994

>  <m_primary>  (7) 
energy

>  <rmsd>  (7) 
2.3505040795601335

>  <m_score__min__rmsd>  (7) 
2.3505040795601335

>  <meeko>  (7) 
{"free_energy": -8.49, "intermolecular_energy": -9.98, "internal_energy": -2.03, "cluster_size": 22, "cluster_id": 1, "rank_in_cluster": 3}

>  <energy>  (7) 
-8.44

>  <cluster_rmsd>  (7) 
1.32

>  <cluster>  (7) 
1

$$$$

     RDKit          3D

 50 53  0  0  0  0  0  0  0  0999 V2000
  133.5790   69.9230  226.6350 O   0  0  0  0  0  0  0  0  0  0  0  0
  133.9720   71.0350  226.1970 C   0  0  0  0  0  0  0  0  0  0  0  0
  135.0560   71.1850  225.2890 N   0  0  0  0  0  0  0  0  0  0  0  0
  135.8030   69.9980  224.7940 C   0  0  0  0  0  0  0  0  0  0  0  0
  137.0780   70.4590  224.2380 C   0  0  0  0  0  0  0  0  0  0  0  0
  137.2250   71.7420  224.1860 O   0  0  0  0  0  0  0  0  0  0  0  0
  138.1560   69.7160  223.7500 N   0  0  0  0  0  0  0  0  0  0  0  0
  138.0600   69.2610  222.3500 C   0  0  0  0  0  0  0  0  0  0  0  0
  138.2970   67.7800  222.2680 C   0  0  0  0  0  0  0  0  0  0  0  0
  139.1890   67.1760  223.2730 C   0  0  0  0  0  0  0  0  0  0  0  0
  139.1450   67.7970  224.6530 C   0  0  0  0  0  0  0  0  0  0  0  0
  139.3390   69.2880  224.4220 C   0  0  2  0  0  0  0  0  0  0  0  0
  139.8240   70.0530  225.5390 C   0  0  0  0  0  0  0  0  0  0  0  0
  139.6220   69.7680  226.8760 C   0  0  0  0  0  0  0  0  0  0  0  0
  140.1530   70.5100  227.9020 C   0  0  0  0  0  0  0  0  0  0  0  0
  140.9280   71.5970  227.5580 C   0  0  0  0  0  0  0  0  0  0  0  0
  141.1440   71.9030  226.2700 N   0  0  0  0  0  0  0  0  0  0  0  0
  140.6240   71.1740  225.2830 C   0  0  0  0  0  0  0  0  0  0  0  0
  133.2740   72.2590  226.6460 C   0  0  0  0  0  0  0  0  0  0  0  0
  132.0460   72.1770  227.2670 C   0  0  0  0  0  0  0  0  0  0  0  0
  131.3860   73.3330  227.6910 C   0  0  0  0  0  0  0  0  0  0  0  0
  132.0010   74.5710  227.4730 C   0  0  0  0  0  0  0  0  0  0  0  0
  131.3930   75.7440  227.8720 C   0  0  0  0  0  0  0  0  0  0  0  0
  132.0480   76.9330  227.6300 C   0  0  0  0  0  0  0  0  0  0  0  0
  131.2500   78.4170  228.1500 Cl  0  0  0  0  0  0  0  0  0  0  0  0
  133.2780   76.9840  227.0070 C   0  0  0  0  0  0  0  0  0  0  0  0
  133.8970   75.8060  226.6010 C   0  0  0  0  0  0  0  0  0  0  0  0
  133.2300   74.6170  226.8500 C   0  0  0  0  0  0  0  0  0  0  0  0
  133.8210   73.4830  226.4610 N   0  0  0  0  0  0  0  0  0  0  0  0
  135.3140   72.1440  224.9780 H   0  0  0  0  0  0  0  0  0  0  0  0
  135.9891   69.3019  225.6251 H   0  0  0  0  0  0  0  0  0  0  0  0
  135.2185   69.4757  224.0223 H   0  0  0  0  0  0  0  0  0  0  0  0
  137.0568   69.4904  221.9615 H   0  0  0  0  0  0  0  0  0  0  0  0
  138.8227   69.7801  221.7510 H   0  0  0  0  0  0  0  0  0  0  0  0
  137.3188   67.2847  222.3559 H   0  0  0  0  0  0  0  0  0  0  0  0
  138.8155   67.6324  221.3092 H   0  0  0  0  0  0  0  0  0  0  0  0
  138.9162   66.1150  223.3718 H   0  0  0  0  0  0  0  0  0  0  0  0
  140.2114   67.3433  222.9032 H   0  0  0  0  0  0  0  0  0  0  0  0
  138.1743   67.6035  225.1330 H   0  0  0  0  0  0  0  0  0  0  0  0
  139.9150   67.3790  225.3182 H   0  0  0  0  0  0  0  0  0  0  0  0
  140.2081   69.4957  223.7805 H   0  0  0  0  0  0  0  0  0  0  0  0
  139.0006   68.8974  227.1328 H   0  0  0  0  0  0  0  0  0  0  0  0
  139.9678   70.2481  228.9542 H   0  0  0  0  0  0  0  0  0  0  0  0
  141.3737   72.2197  228.3477 H   0  0  0  0  0  0  0  0  0  0  0  0
  140.8282   71.4599  224.2406 H   0  0  0  0  0  0  0  0  0  0  0  0
  131.5819   71.1931  227.4300 H   0  0  0  0  0  0  0  0  0  0  0  0
  130.4051   73.2715  228.1850 H   0  0  0  0  0  0  0  0  0  0  0  0
  130.4121   75.7307  228.3697 H   0  0  0  0  0  0  0  0  0  0  0  0
  133.7678   77.9532  226.8318 H   0  0  0  0  0  0  0  0  0  0  0  0
  134.8772   75.8179  226.1020 H   0  0  0  0  0  0  0  0  0  0  0  0
  1  2  2  0
  2  3  1  0
  3  4  1  0
  4  5  1  0
  5  6  2  0
  5  7  1  0
  7  8  1  0
  8  9  1  0
  9 10  1  0
 10 11  1  0
 11 12  1  0
 12 13  1  0
 13 14  2  0
 14 15  1  0
 15 16  2  0
 16 17  1  0
 17 18  2  0
  2 19  1  0
 19 20  2  0
 20 21  1  0
 21 22  2  0
 22 23  1  0
 23 24  2  0
 24 25  1  0
 24 26  1  0
 26 27  2  0
 27 28  1  0
 28 29  2  0
 12  7  1  0
 18 13  1  0
 29 19  1  0
 28 22  1  0
  3 30  1  0
  4 31  1  0
  4 32  1  0
  8 33  1  0
  8 34  1  0
  9 35  1  0
  9 36  1  0
 10 37  1  0
 10 38  1  0
 11 39  1  0
 11 40  1  0
 12 41  1  6
 14 42  1  0
 15 43  1  0
 16 44  1  0
 18 45  1  0
 20 46  1  0
 21 47  1  0
 23 48  1  0
 26 49  1  0
 27 50  1  0
M  END
>  <smiles>  (8) 
O=C(NCC(=O)N1CCCCC1c1cccnc1)c1ccc2cc(Cl)ccc2n1

>  <score_type>  (8) 
oracle

>  <origin>  (8) 
autodockgpu

>  <m_score__min__energy>  (8) 
-8.8599999999999994

>  <m_primary>  (8) 
energy

>  <rmsd>  (8) 
8.745351253926996

>  <m_score__min__rmsd>  (8) 
8.745351253926996

>  <meeko>  (8) 
{"free_energy": -7.97, "intermolecular_energy": -9.47, "internal_energy": -2.14, "cluster_size": 8, "cluster_id": 3, "rank_in_cluster": 7}

>  <energy>  (8) 
-8.42

>  <cluster_rmsd>  (8) 
1.39

>  <cluster>  (8) 
1

$$$$

     RDKit          3D

 50 53  0  0  0  0  0  0  0  0999 V2000
  138.6970   71.5160  220.9280 O   0  0  0  0  0  0  0  0  0  0  0  0
  139.0400   72.0210  222.0280 C   0  0  0  0  0  0  0  0  0  0  0  0
  139.2000   73.4190  222.2360 N   0  0  0  0  0  0  0  0  0  0  0  0
  138.9610   74.3840  221.1310 C   0  0  0  0  0  0  0  0  0  0  0  0
  140.0390   75.3760  221.1490 C   0  0  0  0  0  0  0  0  0  0  0  0
  140.6960   75.4570  222.2590 O   0  0  0  0  0  0  0  0  0  0  0  0
  140.4590   76.2520  220.1440 N   0  0  0  0  0  0  0  0  0  0  0  0
  140.1870   75.8380  218.7550 C   0  0  0  0  0  0  0  0  0  0  0  0
  141.4470   75.8920  217.9400 C   0  0  0  0  0  0  0  0  0  0  0  0
  142.4620   76.8920  218.3190 C   0  0  0  0  0  0  0  0  0  0  0  0
  142.5790   77.1830  219.8000 C   0  0  0  0  0  0  0  0  0  0  0  0
  141.1600   77.4900  220.2560 C   0  0  2  0  0  0  0  0  0  0  0  0
  141.0250   78.2620  221.4610 C   0  0  0  0  0  0  0  0  0  0  0  0
  139.8910   78.3700  222.2430 C   0  0  0  0  0  0  0  0  0  0  0  0
  139.8370   79.0860  223.4130 C   0  0  0  0  0  0  0  0  0  0  0  0
  140.9910   79.7250  223.8150 C   0  0  0  0  0  0  0  0  0  0  0  0
  142.1100   79.6400  223.0810 N   0  0  0  0  0  0  0  0  0  0  0  0
  142.1490   78.9430  221.9470 C   0  0  0  0  0  0  0  0  0  0  0  0
  139.2940   71.1200  223.1720 C   0  0  0  0  0  0  0  0  0  0  0  0
  138.8970   69.8000  223.1250 C   0  0  0  0  0  0  0  0  0  0  0  0
  139.1360   68.9480  224.2060 C   0  0  0  0  0  0  0  0  0  0  0  0
  139.7870   69.4640  225.3320 C   0  0  0  0  0  0  0  0  0  0  0  0
  140.0480   68.6660  226.4270 C   0  0  0  0  0  0  0  0  0  0  0  0
  140.6930   69.2320  227.5080 C   0  0  0  0  0  0  0  0  0  0  0  0
  141.0150   68.1900  228.8940 Cl  0  0  0  0  0  0  0  0  0  0  0  0
  141.0790   70.5560  227.5250 C   0  0  0  0  0  0  0  0  0  0  0  0
  140.8190   71.3670  226.4250 C   0  0  0  0  0  0  0  0  0  0  0  0
  140.1710   70.7880  225.3450 C   0  0  0  0  0  0  0  0  0  0  0  0
  139.9190   71.5640  224.2870 N   0  0  0  0  0  0  0  0  0  0  0  0
  139.4870   73.7500  223.1800 H   0  0  0  0  0  0  0  0  0  0  0  0
  138.9589   73.8537  220.1673 H   0  0  0  0  0  0  0  0  0  0  0  0
  137.9872   74.8784  221.2620 H   0  0  0  0  0  0  0  0  0  0  0  0
  139.7968   74.8095  218.7525 H   0  0  0  0  0  0  0  0  0  0  0  0
  139.4465   76.5225  218.3156 H   0  0  0  0  0  0  0  0  0  0  0  0
  141.9216   74.9016  218.0015 H   0  0  0  0  0  0  0  0  0  0  0  0
  141.1174   76.1951  216.9353 H   0  0  0  0  0  0  0  0  0  0  0  0
  143.4397   76.5304  217.9678 H   0  0  0  0  0  0  0  0  0  0  0  0
  142.1405   77.8354  217.8536 H   0  0  0  0  0  0  0  0  0  0  0  0
  142.9761   76.3080  220.3355 H   0  0  0  0  0  0  0  0  0  0  0  0
  143.2672   78.0167  220.0035 H   0  0  0  0  0  0  0  0  0  0  0  0
  140.6730   78.2361  219.6109 H   0  0  0  0  0  0  0  0  0  0  0  0
  138.9795   77.8527  221.9090 H   0  0  0  0  0  0  0  0  0  0  0  0
  138.9120   79.1474  224.0050 H   0  0  0  0  0  0  0  0  0  0  0  0
  140.9936   80.3100  224.7466 H   0  0  0  0  0  0  0  0  0  0  0  0
  143.0886   78.9007  221.3766 H   0  0  0  0  0  0  0  0  0  0  0  0
  138.3880   69.4150  222.2291 H   0  0  0  0  0  0  0  0  0  0  0  0
  138.8195   67.8950  224.1727 H   0  0  0  0  0  0  0  0  0  0  0  0
  139.7500   67.6072  226.4381 H   0  0  0  0  0  0  0  0  0  0  0  0
  141.5912   70.9697  228.4062 H   0  0  0  0  0  0  0  0  0  0  0  0
  141.1160   72.4261  226.4127 H   0  0  0  0  0  0  0  0  0  0  0  0
  1  2  2  0
  2  3  1  0
  3  4  1  0
  4  5  1  0
  5  6  2  0
  5  7  1  0
  7  8  1  0
  8  9  1  0
  9 10  1  0
 10 11  1  0
 11 12  1  0
 12 13  1  0
 13 14  2  0
 14 15  1  0
 15 16  2  0
 16 17  1  0
 17 18  2  0
  2 19  1  0
 19 20  2  0
 20 21  1  0
 21 22  2  0
 22 23  1  0
 23 24  2  0
 24 25  1  0
 24 26  1  0
 26 27  2  0
 27 28  1  0
 28 29  2  0
 12  7  1  0
 18 13  1  0
 29 19  1  0
 28 22  1  0
  3 30  1  0
  4 31  1  0
  4 32  1  0
  8 33  1  0
  8 34  1  0
  9 35  1  0
  9 36  1  0
 10 37  1  0
 10 38  1  0
 11 39  1  0
 11 40  1  0
 12 41  1  6
 14 42  1  0
 15 43  1  0
 16 44  1  0
 18 45  1  0
 20 46  1  0
 21 47  1  0
 23 48  1  0
 26 49  1  0
 27 50  1  0
M  END
>  <smiles>  (9) 
O=C(NCC(=O)N1CCCCC1c1cccnc1)c1ccc2cc(Cl)ccc2n1

>  <score_type>  (9) 
oracle

>  <origin>  (9) 
autodockgpu

>  <m_score__min__energy>  (9) 
-8.8599999999999994

>  <m_primary>  (9) 
energy

>  <rmsd>  (9) 
1.34163080714786

>  <m_score__min__rmsd>  (9) 
1.34163080714786

>  <meeko>  (9) 
{"free_energy": -8.24, "intermolecular_energy": -9.74, "internal_energy": -1.96, "cluster_size": 15, "cluster_id": 2, "rank_in_cluster": 6}

>  <energy>  (9) 
-8.36

>  <cluster_rmsd>  (9) 
1.35

>  <cluster>  (9) 
1

$$$$

     RDKit          3D

 50 53  0  0  0  0  0  0  0  0999 V2000
  140.3910   72.0570  220.6240 O   0  0  0  0  0  0  0  0  0  0  0  0
  140.1590   72.5380  221.7630 C   0  0  0  0  0  0  0  0  0  0  0  0
  139.9660   73.9250  222.0070 N   0  0  0  0  0  0  0  0  0  0  0  0
  140.0320   74.9090  220.8940 C   0  0  0  0  0  0  0  0  0  0  0  0
  140.9850   75.9580  221.2660 C   0  0  0  0  0  0  0  0  0  0  0  0
  140.9630   76.3070  222.5100 O   0  0  0  0  0  0  0  0  0  0  0  0
  141.9090   76.6430  220.4720 N   0  0  0  0  0  0  0  0  0  0  0  0
  141.7840   78.1120  220.4370 C   0  0  0  0  0  0  0  0  0  0  0  0
  141.7180   78.5930  219.0150 C   0  0  0  0  0  0  0  0  0  0  0  0
  142.4240   77.7990  217.9940 C   0  0  0  0  0  0  0  0  0  0  0  0
  142.4470   76.3030  218.2200 C   0  0  0  0  0  0  0  0  0  0  0  0
  142.9510   76.1260  219.6450 C   0  0  2  0  0  0  0  0  0  0  0  0
  143.5310   74.8510  219.9680 C   0  0  0  0  0  0  0  0  0  0  0  0
  144.7700   74.6370  220.5410 C   0  0  0  0  0  0  0  0  0  0  0  0
  145.2520   73.3940  220.8710 C   0  0  0  0  0  0  0  0  0  0  0  0
  144.4390   72.3120  220.6100 C   0  0  0  0  0  0  0  0  0  0  0  0
  143.2300   72.4840  220.0550 N   0  0  0  0  0  0  0  0  0  0  0  0
  142.7730   73.6950  219.7380 C   0  0  0  0  0  0  0  0  0  0  0  0
  140.0790   71.6170  222.9170 C   0  0  0  0  0  0  0  0  0  0  0  0
  139.4890   70.3770  222.7840 C   0  0  0  0  0  0  0  0  0  0  0  0
  139.4130   69.5070  223.8740 C   0  0  0  0  0  0  0  0  0  0  0  0
  139.9500   69.9210  225.0980 C   0  0  0  0  0  0  0  0  0  0  0  0
  139.9020   69.1010  226.2070 C   0  0  0  0  0  0  0  0  0  0  0  0
  140.4480   69.5640  227.3860 C   0  0  0  0  0  0  0  0  0  0  0  0
  140.3740   68.4960  228.7870 Cl  0  0  0  0  0  0  0  0  0  0  0  0
  141.0330   70.8100  227.4880 C   0  0  0  0  0  0  0  0  0  0  0  0
  141.0850   71.6430  226.3740 C   0  0  0  0  0  0  0  0  0  0  0  0
  140.5340   71.1660  225.1950 C   0  0  0  0  0  0  0  0  0  0  0  0
  140.5810   71.9640  224.1240 N   0  0  0  0  0  0  0  0  0  0  0  0
  139.7790   74.2360  222.9820 H   0  0  0  0  0  0  0  0  0  0  0  0
  140.3692   74.4087  219.9742 H   0  0  0  0  0  0  0  0  0  0  0  0
  139.0385   75.3451  220.7131 H   0  0  0  0  0  0  0  0  0  0  0  0
  140.8665   78.4114  220.9649 H   0  0  0  0  0  0  0  0  0  0  0  0
  142.6617   78.5589  220.9269 H   0  0  0  0  0  0  0  0  0  0  0  0
  140.6566   78.6289  218.7284 H   0  0  0  0  0  0  0  0  0  0  0  0
  142.2367   79.5630  219.0233 H   0  0  0  0  0  0  0  0  0  0  0  0
  141.9373   77.9862  217.0254 H   0  0  0  0  0  0  0  0  0  0  0  0
  143.4742   78.1231  218.0384 H   0  0  0  0  0  0  0  0  0  0  0  0
  141.4372   75.8804  218.1121 H   0  0  0  0  0  0  0  0  0  0  0  0
  143.0856   75.7852  217.4892 H   0  0  0  0  0  0  0  0  0  0  0  0
  143.8722   76.6980  219.8302 H   0  0  0  0  0  0  0  0  0  0  0  0
  145.4060   75.5112  220.7442 H   0  0  0  0  0  0  0  0  0  0  0  0
  146.2459   73.2672  221.3249 H   0  0  0  0  0  0  0  0  0  0  0  0
  144.7848   71.2979  220.8592 H   0  0  0  0  0  0  0  0  0  0  0  0
  141.7754   73.7896  219.2843 H   0  0  0  0  0  0  0  0  0  0  0  0
  139.0752   70.0711  221.8118 H   0  0  0  0  0  0  0  0  0  0  0  0
  138.9415   68.5184  223.7725 H   0  0  0  0  0  0  0  0  0  0  0  0
  139.4403   68.1041  226.1521 H   0  0  0  0  0  0  0  0  0  0  0  0
  141.4568   71.1437  228.4467 H   0  0  0  0  0  0  0  0  0  0  0  0
  141.5453   72.6406  226.4272 H   0  0  0  0  0  0  0  0  0  0  0  0
  1  2  2  0
  2  3  1  0
  3  4  1  0
  4  5  1  0
  5  6  2  0
  5  7  1  0
  7  8  1  0
  8  9  1  0
  9 10  1  0
 10 11  1  0
 11 12  1  0
 12 13  1  0
 13 14  2  0
 14 15  1  0
 15 16  2  0
 16 17  1  0
 17 18  2  0
  2 19  1  0
 19 20  2  0
 20 21  1  0
 21 22  2  0
 22 23  1  0
 23 24  2  0
 24 25  1  0
 24 26  1  0
 26 27  2  0
 27 28  1  0
 28 29  2  0
 12  7  1  0
 18 13  1  0
 29 19  1  0
 28 22  1  0
  3 30  1  0
  4 31  1  0
  4 32  1  0
  8 33  1  0
  8 34  1  0
  9 35  1  0
  9 36  1  0
 10 37  1  0
 10 38  1  0
 11 39  1  0
 11 40  1  0
 12 41  1  6
 14 42  1  0
 15 43  1  0
 16 44  1  0
 18 45  1  0
 20 46  1  0
 21 47  1  0
 23 48  1  0
 26 49  1  0
 27 50  1  0
M  END
>  <smiles>  (10) 
O=C(NCC(=O)N1CCCCC1c1cccnc1)c1ccc2cc(Cl)ccc2n1

>  <score_type>  (10) 
oracle

>  <origin>  (10) 
autodockgpu

>  <m_score__min__energy>  (10) 
-8.8599999999999994

>  <m_primary>  (10) 
energy

>  <rmsd>  (10) 
2.3756078768033984

>  <m_score__min__rmsd>  (10) 
2.3756078768033984

>  <meeko>  (10) 
{"free_energy": -8.35, "intermolecular_energy": -9.84, "internal_energy": -2.04, "cluster_size": 22, "cluster_id": 1, "rank_in_cluster": 10}

>  <energy>  (10) 
-8.35

>  <cluster_rmsd>  (10) 
1.32

>  <cluster>  (10) 
1

$$$$

     RDKit          3D

 50 53  0  0  0  0  0  0  0  0999 V2000
  140.2240   72.2530  220.6260 O   0  0  0  0  0  0  0  0  0  0  0  0
  140.0110   72.7090  221.7790 C   0  0  0  0  0  0  0  0  0  0  0  0
  139.8230   74.0910  222.0560 N   0  0  0  0  0  0  0  0  0  0  0  0
  139.8690   75.0980  220.9640 C   0  0  0  0  0  0  0  0  0  0  0  0
  140.8800   76.1020  221.3080 C   0  0  0  0  0  0  0  0  0  0  0  0
  140.9050   76.4540  222.5520 O   0  0  0  0  0  0  0  0  0  0  0  0
  141.8170   76.7380  220.4900 N   0  0  0  0  0  0  0  0  0  0  0  0
  141.6890   78.2020  220.3600 C   0  0  0  0  0  0  0  0  0  0  0  0
  141.6470   78.5930  218.9110 C   0  0  0  0  0  0  0  0  0  0  0  0
  142.3730   77.7390  217.9540 C   0  0  0  0  0  0  0  0  0  0  0  0
  142.3960   76.2600  218.2740 C   0  0  0  0  0  0  0  0  0  0  0  0
  142.8740   76.1740  219.7160 C   0  0  2  0  0  0  0  0  0  0  0  0
  143.4520   74.9240  220.1280 C   0  0  0  0  0  0  0  0  0  0  0  0
  142.8110   73.7010  220.1730 C   0  0  0  0  0  0  0  0  0  0  0  0
  143.4310   72.5290  220.5290 C   0  0  0  0  0  0  0  0  0  0  0  0
  144.7690   72.5970  220.8560 C   0  0  0  0  0  0  0  0  0  0  0  0
  145.4220   73.7680  220.8210 N   0  0  0  0  0  0  0  0  0  0  0  0
  144.8090   74.8990  220.4740 C   0  0  0  0  0  0  0  0  0  0  0  0
  139.9510   71.7630  222.9140 C   0  0  0  0  0  0  0  0  0  0  0  0
  139.3470   70.5320  222.7690 C   0  0  0  0  0  0  0  0  0  0  0  0
  139.2900   69.6380  223.8410 C   0  0  0  0  0  0  0  0  0  0  0  0
  139.8610   70.0210  225.0600 C   0  0  0  0  0  0  0  0  0  0  0  0
  139.8320   69.1760  226.1520 C   0  0  0  0  0  0  0  0  0  0  0  0
  140.4120   69.6090  227.3260 C   0  0  0  0  0  0  0  0  0  0  0  0
  140.3620   68.5110  228.7050 Cl  0  0  0  0  0  0  0  0  0  0  0  0
  141.0100   70.8470  227.4410 C   0  0  0  0  0  0  0  0  0  0  0  0
  141.0420   71.7040  226.3460 C   0  0  0  0  0  0  0  0  0  0  0  0
  140.4580   71.2590  225.1700 C   0  0  0  0  0  0  0  0  0  0  0  0
  140.4860   72.0800  224.1160 N   0  0  0  0  0  0  0  0  0  0  0  0
  139.6520   74.3800  223.0410 H   0  0  0  0  0  0  0  0  0  0  0  0
  140.1384   74.6079  220.0168 H   0  0  0  0  0  0  0  0  0  0  0  0
  138.8849   75.5752  220.8460 H   0  0  0  0  0  0  0  0  0  0  0  0
  140.7616   78.5306  220.8519 H   0  0  0  0  0  0  0  0  0  0  0  0
  142.5572   78.6815  220.8358 H   0  0  0  0  0  0  0  0  0  0  0  0
  140.5908   78.6074  218.6042 H   0  0  0  0  0  0  0  0  0  0  0  0
  142.1631   79.5635  218.8677 H   0  0  0  0  0  0  0  0  0  0  0  0
  141.9028   77.8632  216.9673 H   0  0  0  0  0  0  0  0  0  0  0  0
  143.4214   78.0692  217.9959 H   0  0  0  0  0  0  0  0  0  0  0  0
  141.3895   75.8276  218.1743 H   0  0  0  0  0  0  0  0  0  0  0  0
  143.0497   75.7001  217.5890 H   0  0  0  0  0  0  0  0  0  0  0  0
  143.7901   76.7598  219.8821 H   0  0  0  0  0  0  0  0  0  0  0  0
  141.7439   73.6642  219.9087 H   0  0  0  0  0  0  0  0  0  0  0  0
  142.8833   71.5753  220.5525 H   0  0  0  0  0  0  0  0  0  0  0  0
  145.3057   71.6824  221.1483 H   0  0  0  0  0  0  0  0  0  0  0  0
  145.3833   75.8370  220.4589 H   0  0  0  0  0  0  0  0  0  0  0  0
  138.9063   70.2515  221.8010 H   0  0  0  0  0  0  0  0  0  0  0  0
  138.8075   68.6558  223.7296 H   0  0  0  0  0  0  0  0  0  0  0  0
  139.3593   68.1849  226.0872 H   0  0  0  0  0  0  0  0  0  0  0  0
  141.4602   71.1554  228.3961 H   0  0  0  0  0  0  0  0  0  0  0  0
  141.5124   72.6963  226.4105 H   0  0  0  0  0  0  0  0  0  0  0  0
  1  2  2  0
  2  3  1  0
  3  4  1  0
  4  5  1  0
  5  6  2  0
  5  7  1  0
  7  8  1  0
  8  9  1  0
  9 10  1  0
 10 11  1  0
 11 12  1  0
 12 13  1  0
 13 14  2  0
 14 15  1  0
 15 16  2  0
 16 17  1  0
 17 18  2  0
  2 19  1  0
 19 20  2  0
 20 21  1  0
 21 22  2  0
 22 23  1  0
 23 24  2  0
 24 25  1  0
 24 26  1  0
 26 27  2  0
 27 28  1  0
 28 29  2  0
 12  7  1  0
 18 13  1  0
 29 19  1  0
 28 22  1  0
  3 30  1  0
  4 31  1  0
  4 32  1  0
  8 33  1  0
  8 34  1  0
  9 35  1  0
  9 36  1  0
 10 37  1  0
 10 38  1  0
 11 39  1  0
 11 40  1  0
 12 41  1  6
 14 42  1  0
 15 43  1  0
 16 44  1  0
 18 45  1  0
 20 46  1  0
 21 47  1  0
 23 48  1  0
 26 49  1  0
 27 50  1  0
M  END
>  <smiles>  (11) 
O=C(NCC(=O)N1CCCCC1c1cccnc1)c1ccc2cc(Cl)ccc2n1

>  <score_type>  (11) 
oracle

>  <origin>  (11) 
autodockgpu

>  <m_score__min__energy>  (11) 
-8.8599999999999994

>  <m_primary>  (11) 
energy

>  <rmsd>  (11) 
2.368698638002734

>  <m_score__min__rmsd>  (11) 
2.368698638002734

>  <meeko>  (11) 
{"free_energy": -8.47, "intermolecular_energy": -9.97, "internal_energy": -2.05, "cluster_size": 22, "cluster_id": 1, "rank_in_cluster": 4}

>  <energy>  (11) 
-8.34

>  <cluster_rmsd>  (11) 
1.36

>  <cluster>  (11) 
1

$$$$

     RDKit          3D

 50 53  0  0  0  0  0  0  0  0999 V2000
  140.9350   72.8400  220.8640 O   0  0  0  0  0  0  0  0  0  0  0  0
  140.3120   73.1040  221.9240 C   0  0  0  0  0  0  0  0  0  0  0  0
  139.7140   74.3650  222.1930 N   0  0  0  0  0  0  0  0  0  0  0  0
  139.7970   75.4720  221.2030 C   0  0  0  0  0  0  0  0  0  0  0  0
  139.9720   76.7290  221.9350 C   0  0  0  0  0  0  0  0  0  0  0  0
  138.9890   77.0580  222.7080 O   0  0  0  0  0  0  0  0  0  0  0  0
  141.0410   77.6290  221.9160 N   0  0  0  0  0  0  0  0  0  0  0  0
  141.2980   78.3700  223.1650 C   0  0  0  0  0  0  0  0  0  0  0  0
  141.3570   79.8460  222.8900 C   0  0  0  0  0  0  0  0  0  0  0  0
  141.8350   80.2730  221.5630 C   0  0  0  0  0  0  0  0  0  0  0  0
  141.4720   79.3650  220.4070 C   0  0  0  0  0  0  0  0  0  0  0  0
  141.9140   77.9750  220.8420 C   0  0  2  0  0  0  0  0  0  0  0  0
  142.1480   77.0180  219.7950 C   0  0  0  0  0  0  0  0  0  0  0  0
  143.0640   75.9840  219.8200 C   0  0  0  0  0  0  0  0  0  0  0  0
  143.2080   75.0690  218.8060 C   0  0  0  0  0  0  0  0  0  0  0  0
  142.3820   75.2070  217.7110 C   0  0  0  0  0  0  0  0  0  0  0  0
  141.4810   76.1990  217.6540 N   0  0  0  0  0  0  0  0  0  0  0  0
  141.3510   77.0810  218.6440 C   0  0  0  0  0  0  0  0  0  0  0  0
  140.1890   72.0500  222.9540 C   0  0  0  0  0  0  0  0  0  0  0  0
  139.5510   70.8610  222.6670 C   0  0  0  0  0  0  0  0  0  0  0  0
  139.4350   69.8650  223.6390 C   0  0  0  0  0  0  0  0  0  0  0  0
  139.9810   70.1010  224.9060 C   0  0  0  0  0  0  0  0  0  0  0  0
  139.8940   69.1500  225.9030 C   0  0  0  0  0  0  0  0  0  0  0  0
  140.4520   69.4400  227.1310 C   0  0  0  0  0  0  0  0  0  0  0  0
  140.3270   68.2090  228.3870 Cl  0  0  0  0  0  0  0  0  0  0  0  0
  141.0850   70.6390  227.3890 C   0  0  0  0  0  0  0  0  0  0  0  0
  141.1760   71.6020  226.3880 C   0  0  0  0  0  0  0  0  0  0  0  0
  140.6130   71.3000  225.1590 C   0  0  0  0  0  0  0  0  0  0  0  0
  140.6980   72.2230  224.1960 N   0  0  0  0  0  0  0  0  0  0  0  0
  139.2170   74.4970  223.0980 H   0  0  0  0  0  0  0  0  0  0  0  0
  140.6541   75.3089  220.5331 H   0  0  0  0  0  0  0  0  0  0  0  0
  138.8794   75.5096  220.5975 H   0  0  0  0  0  0  0  0  0  0  0  0
  140.4888   78.1660  223.8816 H   0  0  0  0  0  0  0  0  0  0  0  0
  142.2616   78.0442  223.5838 H   0  0  0  0  0  0  0  0  0  0  0  0
  140.3403   80.2458  223.0181 H   0  0  0  0  0  0  0  0  0  0  0  0
  142.1074   80.2324  223.5955 H   0  0  0  0  0  0  0  0  0  0  0  0
  141.4126   81.2674  221.3563 H   0  0  0  0  0  0  0  0  0  0  0  0
  142.9333   80.2561  221.6220 H   0  0  0  0  0  0  0  0  0  0  0  0
  140.3874   79.3862  220.2249 H   0  0  0  0  0  0  0  0  0  0  0  0
  141.9556   79.6772  219.4696 H   0  0  0  0  0  0  0  0  0  0  0  0
  142.9512   77.9679  221.2084 H   0  0  0  0  0  0  0  0  0  0  0  0
  143.7146   75.8882  220.7018 H   0  0  0  0  0  0  0  0  0  0  0  0
  143.9511   74.2601  218.8651 H   0  0  0  0  0  0  0  0  0  0  0  0
  142.4626   74.4962  216.8753 H   0  0  0  0  0  0  0  0  0  0  0  0
  140.5990   77.8789  218.5557 H   0  0  0  0  0  0  0  0  0  0  0  0
  139.1301   70.6961  221.6642 H   0  0  0  0  0  0  0  0  0  0  0  0
  138.9259   68.9162  223.4139 H   0  0  0  0  0  0  0  0  0  0  0  0
  139.3934   68.1872  225.7232 H   0  0  0  0  0  0  0  0  0  0  0  0
  141.5161   70.8329  228.3822 H   0  0  0  0  0  0  0  0  0  0  0  0
  141.6757   72.5656  226.5661 H   0  0  0  0  0  0  0  0  0  0  0  0
  1  2  2  0
  2  3  1  0
  3  4  1  0
  4  5  1  0
  5  6  2  0
  5  7  1  0
  7  8  1  0
  8  9  1  0
  9 10  1  0
 10 11  1  0
 11 12  1  0
 12 13  1  0
 13 14  2  0
 14 15  1  0
 15 16  2  0
 16 17  1  0
 17 18  2  0
  2 19  1  0
 19 20  2  0
 20 21  1  0
 21 22  2  0
 22 23  1  0
 23 24  2  0
 24 25  1  0
 24 26  1  0
 26 27  2  0
 27 28  1  0
 28 29  2  0
 12  7  1  0
 18 13  1  0
 29 19  1  0
 28 22  1  0
  3 30  1  0
  4 31  1  0
  4 32  1  0
  8 33  1  0
  8 34  1  0
  9 35  1  0
  9 36  1  0
 10 37  1  0
 10 38  1  0
 11 39  1  0
 11 40  1  0
 12 41  1  1
 14 42  1  0
 15 43  1  0
 16 44  1  0
 18 45  1  0
 20 46  1  0
 21 47  1  0
 23 48  1  0
 26 49  1  0
 27 50  1  0
M  END
>  <smiles>  (12) 
O=C(NCC(=O)N1CCCCC1c1cccnc1)c1ccc2cc(Cl)ccc2n1

>  <score_type>  (12) 
oracle

>  <origin>  (12) 
autodockgpu

>  <m_score__min__energy>  (12) 
-8.8599999999999994

>  <m_primary>  (12) 
energy

>  <rmsd>  (12) 
3.316365629389082

>  <m_score__min__rmsd>  (12) 
3.316365629389082

>  <meeko>  (12) 
{"free_energy": -8.19, "intermolecular_energy": -9.68, "internal_energy": -1.65, "cluster_size": 2, "cluster_id": 4, "rank_in_cluster": 2}

>  <energy>  (12) 
-8.32

>  <cluster_rmsd>  (12) 
1.31

>  <cluster>  (12) 
1

$$$$

     RDKit          3D

 50 53  0  0  0  0  0  0  0  0999 V2000
  133.8480   69.2910  226.4440 O   0  0  0  0  0  0  0  0  0  0  0  0
  134.2970   70.3800  226.0040 C   0  0  0  0  0  0  0  0  0  0  0  0
  135.3990   70.4730  225.1100 N   0  0  0  0  0  0  0  0  0  0  0  0
  136.0980   69.2500  224.6350 C   0  0  0  0  0  0  0  0  0  0  0  0
  137.5380   69.5210  224.6200 C   0  0  0  0  0  0  0  0  0  0  0  0
  138.2910   68.5170  224.9310 O   0  0  0  0  0  0  0  0  0  0  0  0
  138.2170   70.7060  224.3260 N   0  0  0  0  0  0  0  0  0  0  0  0
  137.5210   71.6600  223.4410 C   0  0  0  0  0  0  0  0  0  0  0  0
  138.4080   72.0430  222.2910 C   0  0  0  0  0  0  0  0  0  0  0  0
  139.8630   72.0430  222.5230 C   0  0  0  0  0  0  0  0  0  0  0  0
  140.3800   70.9850  223.4760 C   0  0  0  0  0  0  0  0  0  0  0  0
  139.5210   71.1250  224.7240 C   0  0  2  0  0  0  0  0  0  0  0  0
  140.0770   70.6120  225.9460 C   0  0  0  0  0  0  0  0  0  0  0  0
  140.4800   69.3110  226.1800 C   0  0  0  0  0  0  0  0  0  0  0  0
  141.0510   68.8890  227.3550 C   0  0  0  0  0  0  0  0  0  0  0  0
  141.2250   69.8330  228.3460 C   0  0  0  0  0  0  0  0  0  0  0  0
  140.8460   71.1040  228.1530 N   0  0  0  0  0  0  0  0  0  0  0  0
  140.2920   71.5010  227.0070 C   0  0  0  0  0  0  0  0  0  0  0  0
  133.6500   71.6380  226.4340 C   0  0  0  0  0  0  0  0  0  0  0  0
  132.4910   71.6100  227.1800 C   0  0  0  0  0  0  0  0  0  0  0  0
  131.8790   72.7980  227.5870 C   0  0  0  0  0  0  0  0  0  0  0  0
  132.4700   74.0130  227.2210 C   0  0  0  0  0  0  0  0  0  0  0  0
  131.9070   75.2160  227.5960 C   0  0  0  0  0  0  0  0  0  0  0  0
  132.5360   76.3800  227.2050 C   0  0  0  0  0  0  0  0  0  0  0  0
  131.7960   77.9030  227.6980 Cl  0  0  0  0  0  0  0  0  0  0  0  0
  133.6960   76.3770  226.4590 C   0  0  0  0  0  0  0  0  0  0  0  0
  134.2690   75.1680  226.0770 C   0  0  0  0  0  0  0  0  0  0  0  0
  133.6290   74.0050  226.4750 C   0  0  0  0  0  0  0  0  0  0  0  0
  134.1770   72.8420  226.1090 N   0  0  0  0  0  0  0  0  0  0  0  0
  135.7050   71.4170  224.7960 H   0  0  0  0  0  0  0  0  0  0  0  0
  135.8842   68.4116  225.3142 H   0  0  0  0  0  0  0  0  0  0  0  0
  135.7516   68.9827  223.6257 H   0  0  0  0  0  0  0  0  0  0  0  0
  136.6040   71.1927  223.0526 H   0  0  0  0  0  0  0  0  0  0  0  0
  137.2680   72.5634  224.0154 H   0  0  0  0  0  0  0  0  0  0  0  0
  138.2055   71.3390  221.4704 H   0  0  0  0  0  0  0  0  0  0  0  0
  138.1581   73.0939  222.0831 H   0  0  0  0  0  0  0  0  0  0  0  0
  140.3592   71.8943  221.5526 H   0  0  0  0  0  0  0  0  0  0  0  0
  140.0891   73.0088  222.9986 H   0  0  0  0  0  0  0  0  0  0  0  0
  140.2661   69.9821  223.0388 H   0  0  0  0  0  0  0  0  0  0  0  0
  141.4503   71.1137  223.6947 H   0  0  0  0  0  0  0  0  0  0  0  0
  139.4688   72.1668  225.0733 H   0  0  0  0  0  0  0  0  0  0  0  0
  140.3350   68.5712  225.3789 H   0  0  0  0  0  0  0  0  0  0  0  0
  141.3569   67.8424  227.5002 H   0  0  0  0  0  0  0  0  0  0  0  0
  141.6793   69.5396  229.3039 H   0  0  0  0  0  0  0  0  0  0  0  0
  139.9961   72.5542  226.8917 H   0  0  0  0  0  0  0  0  0  0  0  0
  132.0442   70.6438  227.4572 H   0  0  0  0  0  0  0  0  0  0  0  0
  130.9537   72.7791  228.1816 H   0  0  0  0  0  0  0  0  0  0  0  0
  130.9819   75.2459  228.1904 H   0  0  0  0  0  0  0  0  0  0  0  0
  134.1667   77.3274  226.1670 H   0  0  0  0  0  0  0  0  0  0  0  0
  135.1939   75.1365  225.4823 H   0  0  0  0  0  0  0  0  0  0  0  0
  1  2  2  0
  2  3  1  0
  3  4  1  0
  4  5  1  0
  5  6  2  0
  5  7  1  0
  7  8  1  0
  8  9  1  0
  9 10  1  0
 10 11  1  0
 11 12  1  0
 12 13  1  0
 13 14  2  0
 14 15  1  0
 15 16  2  0
 16 17  1  0
 17 18  2  0
  2 19  1  0
 19 20  2  0
 20 21  1  0
 21 22  2  0
 22 23  1  0
 23 24  2  0
 24 25  1  0
 24 26  1  0
 26 27  2  0
 27 28  1  0
 28 29  2  0
 12  7  1  0
 18 13  1  0
 29 19  1  0
 28 22  1  0
  3 30  1  0
  4 31  1  0
  4 32  1  0
  8 33  1  0
  8 34  1  0
  9 35  1  0
  9 36  1  0
 10 37  1  0
 10 38  1  0
 11 39  1  0
 11 40  1  0
 12 41  1  1
 14 42  1  0
 15 43  1  0
 16 44  1  0
 18 45  1  0
 20 46  1  0
 21 47  1  0
 23 48  1  0
 26 49  1  0
 27 50  1  0
M  END
>  <smiles>  (13) 
O=C(NCC(=O)N1CCCCC1c1cccnc1)c1ccc2cc(Cl)ccc2n1

>  <score_type>  (13) 
oracle

>  <origin>  (13) 
autodockgpu

>  <m_score__min__energy>  (13) 
-8.8599999999999994

>  <m_primary>  (13) 
energy

>  <rmsd>  (13) 
7.761658693987133

>  <m_score__min__rmsd>  (13) 
7.761658693987133

>  <meeko>  (13) 
{"free_energy": -8.51, "intermolecular_energy": -10.0, "internal_energy": -1.36, "cluster_size": 8, "cluster_id": 3, "rank_in_cluster": 1}

>  <energy>  (13) 
-8.3

>  <cluster_rmsd>  (13) 
1.38

>  <cluster>  (13) 
1

$$$$

     RDKit          3D

 50 53  0  0  0  0  0  0  0  0999 V2000
  138.6160   71.6320  221.0030 O   0  0  0  0  0  0  0  0  0  0  0  0
  139.0330   72.1040  222.0920 C   0  0  0  0  0  0  0  0  0  0  0  0
  139.2620   73.4900  222.3110 N   0  0  0  0  0  0  0  0  0  0  0  0
  139.0120   74.4820  221.2330 C   0  0  0  0  0  0  0  0  0  0  0  0
  140.2180   75.3000  221.0750 C   0  0  0  0  0  0  0  0  0  0  0  0
  141.1300   75.1160  221.9720 O   0  0  0  0  0  0  0  0  0  0  0  0
  140.5260   76.2540  220.1010 N   0  0  0  0  0  0  0  0  0  0  0  0
  140.2150   75.8910  218.7050 C   0  0  0  0  0  0  0  0  0  0  0  0
  141.4270   76.0780  217.8380 C   0  0  0  0  0  0  0  0  0  0  0  0
  142.3850   77.1290  218.2240 C   0  0  0  0  0  0  0  0  0  0  0  0
  142.5550   77.3530  219.7120 C   0  0  0  0  0  0  0  0  0  0  0  0
  141.1420   77.5320  220.2480 C   0  0  2  0  0  0  0  0  0  0  0  0
  141.0130   78.2310  221.4970 C   0  0  0  0  0  0  0  0  0  0  0  0
  142.0450   78.7480  222.2570 C   0  0  0  0  0  0  0  0  0  0  0  0
  141.8560   79.4500  223.4210 C   0  0  0  0  0  0  0  0  0  0  0  0
  140.5560   79.6400  223.8390 C   0  0  0  0  0  0  0  0  0  0  0  0
  139.5310   79.1530  223.1260 N   0  0  0  0  0  0  0  0  0  0  0  0
  139.7270   78.4730  221.9970 C   0  0  0  0  0  0  0  0  0  0  0  0
  139.3010   71.1750  223.2100 C   0  0  0  0  0  0  0  0  0  0  0  0
  138.9210   69.8520  223.1280 C   0  0  0  0  0  0  0  0  0  0  0  0
  139.1750   68.9730  224.1840 C   0  0  0  0  0  0  0  0  0  0  0  0
  139.8220   69.4670  225.3220 C   0  0  0  0  0  0  0  0  0  0  0  0
  140.0970   68.6420  226.3940 C   0  0  0  0  0  0  0  0  0  0  0  0
  140.7370   69.1860  227.4880 C   0  0  0  0  0  0  0  0  0  0  0  0
  141.0770   68.1120  228.8440 Cl  0  0  0  0  0  0  0  0  0  0  0  0
  141.1060   70.5150  227.5420 C   0  0  0  0  0  0  0  0  0  0  0  0
  140.8320   71.3520  226.4650 C   0  0  0  0  0  0  0  0  0  0  0  0
  140.1890   70.7950  225.3710 C   0  0  0  0  0  0  0  0  0  0  0  0
  139.9240   71.5970  224.3350 N   0  0  0  0  0  0  0  0  0  0  0  0
  139.6080   73.7940  223.2450 H   0  0  0  0  0  0  0  0  0  0  0  0
  138.7900   73.9599  220.2906 H   0  0  0  0  0  0  0  0  0  0  0  0
  138.1529   75.1178  221.4933 H   0  0  0  0  0  0  0  0  0  0  0  0
  139.8987   74.8382  218.6652 H   0  0  0  0  0  0  0  0  0  0  0  0
  139.4068   76.5401  218.3369 H   0  0  0  0  0  0  0  0  0  0  0  0
  141.9731   75.1232  217.8250 H   0  0  0  0  0  0  0  0  0  0  0  0
  141.0283   76.4058  216.8666 H   0  0  0  0  0  0  0  0  0  0  0  0
  143.3673   76.8589  217.8092 H   0  0  0  0  0  0  0  0  0  0  0  0
  141.9736   78.0683  217.8260 H   0  0  0  0  0  0  0  0  0  0  0  0
  143.0390   76.4836  220.1809 H   0  0  0  0  0  0  0  0  0  0  0  0
  143.1920   78.2232  219.9284 H   0  0  0  0  0  0  0  0  0  0  0  0
  140.5712   78.2717  219.6674 H   0  0  0  0  0  0  0  0  0  0  0  0
  143.0762   78.5878  221.9093 H   0  0  0  0  0  0  0  0  0  0  0  0
  142.7063   79.8446  223.9965 H   0  0  0  0  0  0  0  0  0  0  0  0
  140.3581   80.1968  224.7668 H   0  0  0  0  0  0  0  0  0  0  0  0
  138.8564   78.0918  221.4432 H   0  0  0  0  0  0  0  0  0  0  0  0
  138.4136   69.4855  222.2235 H   0  0  0  0  0  0  0  0  0  0  0  0
  138.8733   67.9170  224.1221 H   0  0  0  0  0  0  0  0  0  0  0  0
  139.8134   67.5793  226.3762 H   0  0  0  0  0  0  0  0  0  0  0  0
  141.6148   70.9109  228.4333 H   0  0  0  0  0  0  0  0  0  0  0  0
  141.1148   72.4149  226.4812 H   0  0  0  0  0  0  0  0  0  0  0  0
  1  2  2  0
  2  3  1  0
  3  4  1  0
  4  5  1  0
  5  6  2  0
  5  7  1  0
  7  8  1  0
  8  9  1  0
  9 10  1  0
 10 11  1  0
 11 12  1  0
 12 13  1  0
 13 14  2  0
 14 15  1  0
 15 16  2  0
 16 17  1  0
 17 18  2  0
  2 19  1  0
 19 20  2  0
 20 21  1  0
 21 22  2  0
 22 23  1  0
 23 24  2  0
 24 25  1  0
 24 26  1  0
 26 27  2  0
 27 28  1  0
 28 29  2  0
 12  7  1  0
 18 13  1  0
 29 19  1  0
 28 22  1  0
  3 30  1  0
  4 31  1  0
  4 32  1  0
  8 33  1  0
  8 34  1  0
  9 35  1  0
  9 36  1  0
 10 37  1  0
 10 38  1  0
 11 39  1  0
 11 40  1  0
 12 41  1  6
 14 42  1  0
 15 43  1  0
 16 44  1  0
 18 45  1  0
 20 46  1  0
 21 47  1  0
 23 48  1  0
 26 49  1  0
 27 50  1  0
M  END
>  <smiles>  (14) 
O=C(NCC(=O)N1CCCCC1c1cccnc1)c1ccc2cc(Cl)ccc2n1

>  <score_type>  (14) 
oracle

>  <origin>  (14) 
autodockgpu

>  <m_score__min__energy>  (14) 
-8.8599999999999994

>  <m_primary>  (14) 
energy

>  <rmsd>  (14) 
1.3602201428567857

>  <m_score__min__rmsd>  (14) 
1.3602201428567857

>  <meeko>  (14) 
{"free_energy": -8.2, "intermolecular_energy": -9.69, "internal_energy": -1.92, "cluster_size": 15, "cluster_id": 2, "rank_in_cluster": 8}

>  <energy>  (14) 
-8.15

>  <cluster_rmsd>  (14) 
0.88

>  <cluster>  (14) 
1

$$$$

     RDKit          3D

 50 53  0  0  0  0  0  0  0  0999 V2000
  139.7770   71.4330  220.3080 O   0  0  0  0  0  0  0  0  0  0  0  0
  140.1160   71.9550  221.4010 C   0  0  0  0  0  0  0  0  0  0  0  0
  140.5820   73.2930  221.5230 N   0  0  0  0  0  0  0  0  0  0  0  0
  140.6970   74.1700  220.3280 C   0  0  0  0  0  0  0  0  0  0  0  0
  141.5640   75.3010  220.6710 C   0  0  0  0  0  0  0  0  0  0  0  0
  141.5690   75.6320  221.9210 O   0  0  0  0  0  0  0  0  0  0  0  0
  142.3810   76.0780  219.8460 N   0  0  0  0  0  0  0  0  0  0  0  0
  142.0100   77.4990  219.7040 C   0  0  0  0  0  0  0  0  0  0  0  0
  141.9030   77.8650  218.2510 C   0  0  0  0  0  0  0  0  0  0  0  0
  142.7620   77.1360  217.3000 C   0  0  0  0  0  0  0  0  0  0  0  0
  143.0310   75.6840  217.6330 C   0  0  0  0  0  0  0  0  0  0  0  0
  143.5170   75.6920  219.0750 C   0  0  2  0  0  0  0  0  0  0  0  0
  144.2960   74.5600  219.4960 C   0  0  0  0  0  0  0  0  0  0  0  0
  144.5100   74.1520  220.7980 C   0  0  0  0  0  0  0  0  0  0  0  0
  145.2250   73.0300  221.1380 C   0  0  0  0  0  0  0  0  0  0  0  0
  145.7500   72.2810  220.1060 C   0  0  0  0  0  0  0  0  0  0  0  0
  145.5610   72.6470  218.8300 N   0  0  0  0  0  0  0  0  0  0  0  0
  144.8650   73.7390  218.5130 C   0  0  0  0  0  0  0  0  0  0  0  0
  140.0270   71.1410  222.6310 C   0  0  0  0  0  0  0  0  0  0  0  0
  139.3680   69.9300  222.6230 C   0  0  0  0  0  0  0  0  0  0  0  0
  139.2840   69.1590  223.7860 C   0  0  0  0  0  0  0  0  0  0  0  0
  139.8830   69.6450  224.9540 C   0  0  0  0  0  0  0  0  0  0  0  0
  139.8290   68.9250  226.1300 C   0  0  0  0  0  0  0  0  0  0  0  0
  140.4390   69.4550  227.2480 C   0  0  0  0  0  0  0  0  0  0  0  0
  140.3560   68.5150  228.7380 Cl  0  0  0  0  0  0  0  0  0  0  0  0
  141.0920   70.6710  227.2250 C   0  0  0  0  0  0  0  0  0  0  0  0
  141.1490   71.4030  226.0430 C   0  0  0  0  0  0  0  0  0  0  0  0
  140.5340   70.8600  224.9260 C   0  0  0  0  0  0  0  0  0  0  0  0
  140.5870   71.5610  223.7900 N   0  0  0  0  0  0  0  0  0  0  0  0
  140.8410   73.6440  222.4680 H   0  0  0  0  0  0  0  0  0  0  0  0
  141.1355   73.6049  219.4923 H   0  0  0  0  0  0  0  0  0  0  0  0
  139.7032   74.5315  220.0252 H   0  0  0  0  0  0  0  0  0  0  0  0
  141.0408   77.6722  220.1946 H   0  0  0  0  0  0  0  0  0  0  0  0
  142.7857   78.1210  220.1744 H   0  0  0  0  0  0  0  0  0  0  0  0
  140.8592   77.6997  217.9457 H   0  0  0  0  0  0  0  0  0  0  0  0
  142.2493   78.9078  218.1986 H   0  0  0  0  0  0  0  0  0  0  0  0
  142.2781   77.1716  216.3128 H   0  0  0  0  0  0  0  0  0  0  0  0
  143.7406   77.6369  217.3376 H   0  0  0  0  0  0  0  0  0  0  0  0
  142.1105   75.0892  217.5389 H   0  0  0  0  0  0  0  0  0  0  0  0
  143.7685   75.2345  216.9518 H   0  0  0  0  0  0  0  0  0  0  0  0
  144.3219   76.4245  219.2350 H   0  0  0  0  0  0  0  0  0  0  0  0
  144.0833   74.7606  221.6089 H   0  0  0  0  0  0  0  0  0  0  0  0
  145.3727   72.7409  222.1890 H   0  0  0  0  0  0  0  0  0  0  0  0
  146.3298   71.3739  220.3319 H   0  0  0  0  0  0  0  0  0  0  0  0
  144.7340   74.0023  217.4530 H   0  0  0  0  0  0  0  0  0  0  0  0
  138.9044   69.5675  221.6937 H   0  0  0  0  0  0  0  0  0  0  0  0
  138.7591   68.1923  223.7833 H   0  0  0  0  0  0  0  0  0  0  0  0
  139.3133   67.9544  226.1747 H   0  0  0  0  0  0  0  0  0  0  0  0
  141.5658   71.0601  228.1383 H   0  0  0  0  0  0  0  0  0  0  0  0
  141.6622   72.3748  225.9969 H   0  0  0  0  0  0  0  0  0  0  0  0
  1  2  2  0
  2  3  1  0
  3  4  1  0
  4  5  1  0
  5  6  2  0
  5  7  1  0
  7  8  1  0
  8  9  1  0
  9 10  1  0
 10 11  1  0
 11 12  1  0
 12 13  1  0
 13 14  2  0
 14 15  1  0
 15 16  2  0
 16 17  1  0
 17 18  2  0
  2 19  1  0
 19 20  2  0
 20 21  1  0
 21 22  2  0
 22 23  1  0
 23 24  2  0
 24 25  1  0
 24 26  1  0
 26 27  2  0
 27 28  1  0
 28 29  2  0
 12  7  1  0
 18 13  1  0
 29 19  1  0
 28 22  1  0
  3 30  1  0
  4 31  1  0
  4 32  1  0
  8 33  1  0
  8 34  1  0
  9 35  1  0
  9 36  1  0
 10 37  1  0
 10 38  1  0
 11 39  1  0
 11 40  1  0
 12 41  1  6
 14 42  1  0
 15 43  1  0
 16 44  1  0
 18 45  1  0
 20 46  1  0
 21 47  1  0
 23 48  1  0
 26 49  1  0
 27 50  1  0
M  END
>  <smiles>  (15) 
O=C(NCC(=O)N1CCCCC1c1cccnc1)c1ccc2cc(Cl)ccc2n1

>  <score_type>  (15) 
oracle

>  <origin>  (15) 
autodockgpu

>  <m_score__min__energy>  (15) 
-8.8599999999999994

>  <m_primary>  (15) 
energy

>  <rmsd>  (15) 
2.400433118686955

>  <m_score__min__rmsd>  (15) 
2.400433118686955

>  <meeko>  (15) 
{"free_energy": -8.0, "intermolecular_energy": -9.49, "internal_energy": -2.22, "cluster_size": 22, "cluster_id": 1, "rank_in_cluster": 18}

>  <energy>  (15) 
-8.1

>  <cluster_rmsd>  (15) 
1.32

>  <cluster>  (15) 
1

$$$$

     RDKit          3D

 50 53  0  0  0  0  0  0  0  0999 V2000
  141.2310   71.6110  221.1260 O   0  0  0  0  0  0  0  0  0  0  0  0
  140.8770   72.5910  221.8300 C   0  0  0  0  0  0  0  0  0  0  0  0
  140.2040   72.4620  223.0750 N   0  0  0  0  0  0  0  0  0  0  0  0
  139.8730   71.1220  223.6260 C   0  0  0  0  0  0  0  0  0  0  0  0
  140.1010   71.1520  225.0730 C   0  0  0  0  0  0  0  0  0  0  0  0
  140.7060   72.2050  225.5140 O   0  0  0  0  0  0  0  0  0  0  0  0
  139.7660   70.2070  226.0470 N   0  0  0  0  0  0  0  0  0  0  0  0
  140.1560   70.5250  227.4330 C   0  0  0  0  0  0  0  0  0  0  0  0
  140.9340   69.3860  228.0290 C   0  0  0  0  0  0  0  0  0  0  0  0
  140.6270   68.0270  227.5490 C   0  0  0  0  0  0  0  0  0  0  0  0
  140.2370   67.9150  226.0900 C   0  0  0  0  0  0  0  0  0  0  0  0
  139.1280   68.9390  225.8970 C   0  0  2  0  0  0  0  0  0  0  0  0
  138.2460   68.7280  224.7820 C   0  0  0  0  0  0  0  0  0  0  0  0
  138.5740   68.1310  223.5800 C   0  0  0  0  0  0  0  0  0  0  0  0
  137.6730   67.9120  222.5670 C   0  0  0  0  0  0  0  0  0  0  0  0
  136.3730   68.3180  222.7810 C   0  0  0  0  0  0  0  0  0  0  0  0
  136.0200   68.9000  223.9360 N   0  0  0  0  0  0  0  0  0  0  0  0
  136.9040   69.1070  224.9120 C   0  0  0  0  0  0  0  0  0  0  0  0
  141.1750   73.9550  221.3450 C   0  0  0  0  0  0  0  0  0  0  0  0
  141.9450   74.1450  220.2160 C   0  0  0  0  0  0  0  0  0  0  0  0
  142.2260   75.4340  219.7560 C   0  0  0  0  0  0  0  0  0  0  0  0
  141.7090   76.5230  220.4660 C   0  0  0  0  0  0  0  0  0  0  0  0
  141.9570   77.8180  220.0560 C   0  0  0  0  0  0  0  0  0  0  0  0
  141.4210   78.8510  220.7970 C   0  0  0  0  0  0  0  0  0  0  0  0
  141.7520   80.4940  220.2520 Cl  0  0  0  0  0  0  0  0  0  0  0  0
  140.6540   78.6300  221.9230 C   0  0  0  0  0  0  0  0  0  0  0  0
  140.4000   77.3280  222.3420 C   0  0  0  0  0  0  0  0  0  0  0  0
  140.9440   76.2980  221.5900 C   0  0  0  0  0  0  0  0  0  0  0  0
  140.7020   75.0460  221.9910 N   0  0  0  0  0  0  0  0  0  0  0  0
  139.9480   73.3290  223.5930 H   0  0  0  0  0  0  0  0  0  0  0  0
  138.8188   70.8850  223.4202 H   0  0  0  0  0  0  0  0  0  0  0  0
  140.5047   70.3526  223.1581 H   0  0  0  0  0  0  0  0  0  0  0  0
  140.7794   71.4313  227.4359 H   0  0  0  0  0  0  0  0  0  0  0  0
  139.2482   70.6908  228.0316 H   0  0  0  0  0  0  0  0  0  0  0  0
  141.9990   69.5736  227.8278 H   0  0  0  0  0  0  0  0  0  0  0  0
  140.6498   69.3785  229.0916 H   0  0  0  0  0  0  0  0  0  0  0  0
  141.5189   67.4033  227.7086 H   0  0  0  0  0  0  0  0  0  0  0  0
  139.7448   67.7012  228.1196 H   0  0  0  0  0  0  0  0  0  0  0  0
  141.0948   68.1478  225.4419 H   0  0  0  0  0  0  0  0  0  0  0  0
  139.9097   66.8982  225.8275 H   0  0  0  0  0  0  0  0  0  0  0  0
  138.3405   68.8429  226.6590 H   0  0  0  0  0  0  0  0  0  0  0  0
  139.6157   67.8131  223.4257 H   0  0  0  0  0  0  0  0  0  0  0  0
  137.9759   67.4327  221.6244 H   0  0  0  0  0  0  0  0  0  0  0  0
  135.6179   68.1629  221.9963 H   0  0  0  0  0  0  0  0  0  0  0  0
  136.5709   69.5879  225.8435 H   0  0  0  0  0  0  0  0  0  0  0  0
  142.3411   73.2740  219.6733 H   0  0  0  0  0  0  0  0  0  0  0  0
  142.8396   75.5890  218.8563 H   0  0  0  0  0  0  0  0  0  0  0  0
  142.5657   78.0206  219.1624 H   0  0  0  0  0  0  0  0  0  0  0  0
  140.2448   79.4809  222.4874 H   0  0  0  0  0  0  0  0  0  0  0  0
  139.7913   77.1236  223.2351 H   0  0  0  0  0  0  0  0  0  0  0  0
  1  2  2  0
  2  3  1  0
  3  4  1  0
  4  5  1  0
  5  6  2  0
  5  7  1  0
  7  8  1  0
  8  9  1  0
  9 10  1  0
 10 11  1  0
 11 12  1  0
 12 13  1  0
 13 14  2  0
 14 15  1  0
 15 16  2  0
 16 17  1  0
 17 18  2  0
  2 19  1  0
 19 20  2  0
 20 21  1  0
 21 22  2  0
 22 23  1  0
 23 24  2  0
 24 25  1  0
 24 26  1  0
 26 27  2  0
 27 28  1  0
 28 29  2  0
 12  7  1  0
 18 13  1  0
 29 19  1  0
 28 22  1  0
  3 30  1  0
  4 31  1  0
  4 32  1  0
  8 33  1  0
  8 34  1  0
  9 35  1  0
  9 36  1  0
 10 37  1  0
 10 38  1  0
 11 39  1  0
 11 40  1  0
 12 41  1  1
 14 42  1  0
 15 43  1  0
 16 44  1  0
 18 45  1  0
 20 46  1  0
 21 47  1  0
 23 48  1  0
 26 49  1  0
 27 50  1  0
M  END
>  <smiles>  (16) 
O=C(NCC(=O)N1CCCCC1c1cccnc1)c1ccc2cc(Cl)ccc2n1

>  <score_type>  (16) 
oracle

>  <origin>  (16) 
autodockgpu

>  <m_score__min__energy>  (16) 
-8.8599999999999994

>  <m_primary>  (16) 
energy

>  <rmsd>  (16) 
8.914569512790314

>  <m_score__min__rmsd>  (16) 
8.914569512790314

>  <meeko>  (16) 
{"free_energy": -8.19, "intermolecular_energy": -9.68, "internal_energy": -1.9, "cluster_size": 3, "cluster_id": 5, "rank_in_cluster": 3}

>  <energy>  (16) 
-8.07

>  <cluster_rmsd>  (16) 
1.37

>  <cluster>  (16) 
1

$$$$

     RDKit          3D

 50 53  0  0  0  0  0  0  0  0999 V2000
  140.2100   72.3340  220.6640 O   0  0  0  0  0  0  0  0  0  0  0  0
  139.9800   72.7700  221.8210 C   0  0  0  0  0  0  0  0  0  0  0  0
  139.7540   74.1420  222.1140 N   0  0  0  0  0  0  0  0  0  0  0  0
  139.7790   75.1640  221.0340 C   0  0  0  0  0  0  0  0  0  0  0  0
  140.8860   76.0860  221.3020 C   0  0  0  0  0  0  0  0  0  0  0  0
  141.0510   76.4030  222.5440 O   0  0  0  0  0  0  0  0  0  0  0  0
  141.7860   76.6780  220.4120 N   0  0  0  0  0  0  0  0  0  0  0  0
  141.6480   78.1330  220.2080 C   0  0  0  0  0  0  0  0  0  0  0  0
  141.5440   78.4440  218.7420 C   0  0  0  0  0  0  0  0  0  0  0  0
  142.2330   77.5400  217.8030 C   0  0  0  0  0  0  0  0  0  0  0  0
  142.2740   76.0800  218.2020 C   0  0  0  0  0  0  0  0  0  0  0  0
  142.8120   76.0740  219.6260 C   0  0  2  0  0  0  0  0  0  0  0  0
  143.4110   74.8490  220.0800 C   0  0  0  0  0  0  0  0  0  0  0  0
  142.8060   73.6080  220.1220 C   0  0  0  0  0  0  0  0  0  0  0  0
  143.4470   72.4610  220.5210 C   0  0  0  0  0  0  0  0  0  0  0  0
  144.7680   72.5750  220.8980 C   0  0  0  0  0  0  0  0  0  0  0  0
  145.3860   73.7650  220.8690 N   0  0  0  0  0  0  0  0  0  0  0  0
  144.7540   74.8710  220.4800 C   0  0  0  0  0  0  0  0  0  0  0  0
  139.9390   71.8090  222.9440 C   0  0  0  0  0  0  0  0  0  0  0  0
  139.3890   70.5550  222.7730 C   0  0  0  0  0  0  0  0  0  0  0  0
  139.3510   69.6470  223.8340 C   0  0  0  0  0  0  0  0  0  0  0  0
  139.8820   70.0380  225.0680 C   0  0  0  0  0  0  0  0  0  0  0  0
  139.8690   69.1810  226.1490 C   0  0  0  0  0  0  0  0  0  0  0  0
  140.4080   69.6230  227.3400 C   0  0  0  0  0  0  0  0  0  0  0  0
  140.3790   68.5070  228.7050 Cl  0  0  0  0  0  0  0  0  0  0  0  0
  140.9520   70.8830  227.4800 C   0  0  0  0  0  0  0  0  0  0  0  0
  140.9680   71.7540  226.3940 C   0  0  0  0  0  0  0  0  0  0  0  0
  140.4240   71.2990  225.2030 C   0  0  0  0  0  0  0  0  0  0  0  0
  140.4380   72.1330  224.1590 N   0  0  0  0  0  0  0  0  0  0  0  0
  139.5700   74.4150  223.1010 H   0  0  0  0  0  0  0  0  0  0  0  0
  139.9299   74.6738  220.0609 H   0  0  0  0  0  0  0  0  0  0  0  0
  138.8257   75.7122  221.0074 H   0  0  0  0  0  0  0  0  0  0  0  0
  140.7410   78.4872  220.7198 H   0  0  0  0  0  0  0  0  0  0  0  0
  142.5337   78.6387  220.6201 H   0  0  0  0  0  0  0  0  0  0  0  0
  140.4758   78.4397  218.4794 H   0  0  0  0  0  0  0  0  0  0  0  0
  142.0541   79.4114  218.6243 H   0  0  0  0  0  0  0  0  0  0  0  0
  141.7221   77.6098  216.8314 H   0  0  0  0  0  0  0  0  0  0  0  0
  143.2811   77.8732  217.7832 H   0  0  0  0  0  0  0  0  0  0  0  0
  141.2656   75.6418  218.1681 H   0  0  0  0  0  0  0  0  0  0  0  0
  142.9002   75.4839  217.5219 H   0  0  0  0  0  0  0  0  0  0  0  0
  143.7315   76.6700  219.7222 H   0  0  0  0  0  0  0  0  0  0  0  0
  141.7512   73.5343  219.8187 H   0  0  0  0  0  0  0  0  0  0  0  0
  142.9278   71.4914  220.5390 H   0  0  0  0  0  0  0  0  0  0  0  0
  145.3203   71.6819  221.2256 H   0  0  0  0  0  0  0  0  0  0  0  0
  145.3000   75.8259  220.4725 H   0  0  0  0  0  0  0  0  0  0  0  0
  138.9775   70.2682  221.7940 H   0  0  0  0  0  0  0  0  0  0  0  0
  138.9132   68.6465  223.7022 H   0  0  0  0  0  0  0  0  0  0  0  0
  139.4402   68.1716  226.0638 H   0  0  0  0  0  0  0  0  0  0  0  0
  141.3718   71.1985  228.4466 H   0  0  0  0  0  0  0  0  0  0  0  0
  141.3957   72.7640  226.4778 H   0  0  0  0  0  0  0  0  0  0  0  0
  1  2  2  0
  2  3  1  0
  3  4  1  0
  4  5  1  0
  5  6  2  0
  5  7  1  0
  7  8  1  0
  8  9  1  0
  9 10  1  0
 10 11  1  0
 11 12  1  0
 12 13  1  0
 13 14  2  0
 14 15  1  0
 15 16  2  0
 16 17  1  0
 17 18  2  0
  2 19  1  0
 19 20  2  0
 20 21  1  0
 21 22  2  0
 22 23  1  0
 23 24  2  0
 24 25  1  0
 24 26  1  0
 26 27  2  0
 27 28  1  0
 28 29  2  0
 12  7  1  0
 18 13  1  0
 29 19  1  0
 28 22  1  0
  3 30  1  0
  4 31  1  0
  4 32  1  0
  8 33  1  0
  8 34  1  0
  9 35  1  0
  9 36  1  0
 10 37  1  0
 10 38  1  0
 11 39  1  0
 11 40  1  0
 12 41  1  6
 14 42  1  0
 15 43  1  0
 16 44  1  0
 18 45  1  0
 20 46  1  0
 21 47  1  0
 23 48  1  0
 26 49  1  0
 27 50  1  0
M  END
>  <smiles>  (17) 
O=C(NCC(=O)N1CCCCC1c1cccnc1)c1ccc2cc(Cl)ccc2n1

>  <score_type>  (17) 
oracle

>  <origin>  (17) 
autodockgpu

>  <m_score__min__energy>  (17) 
-8.8599999999999994

>  <m_primary>  (17) 
energy

>  <rmsd>  (17) 
2.324314657637846

>  <m_score__min__rmsd>  (17) 
2.324314657637846

>  <meeko>  (17) 
{"free_energy": -8.42, "intermolecular_energy": -9.91, "internal_energy": -2.03, "cluster_size": 22, "cluster_id": 1, "rank_in_cluster": 8}

>  <energy>  (17) 
-8.04

>  <cluster_rmsd>  (17) 
0.9

>  <cluster>  (17) 
1

$$$$

     RDKit          3D

 50 53  0  0  0  0  0  0  0  0999 V2000
  140.2650   72.3380  220.6710 O   0  0  0  0  0  0  0  0  0  0  0  0
  140.0250   72.7630  221.8310 C   0  0  0  0  0  0  0  0  0  0  0  0
  139.7460   74.1250  222.1270 N   0  0  0  0  0  0  0  0  0  0  0  0
  139.7230   75.1490  221.0490 C   0  0  0  0  0  0  0  0  0  0  0  0
  139.9640   76.4600  221.6570 C   0  0  0  0  0  0  0  0  0  0  0  0
  141.1260   76.9740  221.4170 O   0  0  0  0  0  0  0  0  0  0  0  0
  139.1260   77.2350  222.4640 N   0  0  0  0  0  0  0  0  0  0  0  0
  137.9550   76.5500  223.0420 C   0  0  0  0  0  0  0  0  0  0  0  0
  136.7000   77.3160  222.7330 C   0  0  0  0  0  0  0  0  0  0  0  0
  136.8130   78.7780  222.5870 C   0  0  0  0  0  0  0  0  0  0  0  0
  138.1040   79.2830  221.9760 C   0  0  0  0  0  0  0  0  0  0  0  0
  139.2090   78.6220  222.7860 C   0  0  2  0  0  0  0  0  0  0  0  0
  140.4930   79.2680  222.7670 C   0  0  0  0  0  0  0  0  0  0  0  0
  140.9730   80.1060  221.7790 C   0  0  0  0  0  0  0  0  0  0  0  0
  142.1920   80.7350  221.8390 C   0  0  0  0  0  0  0  0  0  0  0  0
  142.9660   80.5060  222.9580 C   0  0  0  0  0  0  0  0  0  0  0  0
  142.5300   79.6990  223.9360 N   0  0  0  0  0  0  0  0  0  0  0  0
  141.3450   79.0940  223.8660 C   0  0  0  0  0  0  0  0  0  0  0  0
  140.0300   71.8000  222.9520 C   0  0  0  0  0  0  0  0  0  0  0  0
  139.5460   70.5200  222.7790 C   0  0  0  0  0  0  0  0  0  0  0  0
  139.5500   69.6090  223.8380 C   0  0  0  0  0  0  0  0  0  0  0  0
  140.0580   70.0260  225.0740 C   0  0  0  0  0  0  0  0  0  0  0  0
  140.0860   69.1670  226.1540 C   0  0  0  0  0  0  0  0  0  0  0  0
  140.5980   69.6340  227.3470 C   0  0  0  0  0  0  0  0  0  0  0  0
  140.6220   68.5170  228.7110 Cl  0  0  0  0  0  0  0  0  0  0  0  0
  141.0760   70.9210  227.4900 C   0  0  0  0  0  0  0  0  0  0  0  0
  141.0500   71.7930  226.4060 C   0  0  0  0  0  0  0  0  0  0  0  0
  140.5340   71.3120  225.2130 C   0  0  0  0  0  0  0  0  0  0  0  0
  140.5080   72.1470  224.1700 N   0  0  0  0  0  0  0  0  0  0  0  0
  139.5580   74.3890  223.1160 H   0  0  0  0  0  0  0  0  0  0  0  0
  140.5092   74.9306  220.3113 H   0  0  0  0  0  0  0  0  0  0  0  0
  138.7489   75.1407  220.5381 H   0  0  0  0  0  0  0  0  0  0  0  0
  137.8781   75.5392  222.6149 H   0  0  0  0  0  0  0  0  0  0  0  0
  138.0781   76.4886  224.1334 H   0  0  0  0  0  0  0  0  0  0  0  0
  136.2971   76.9209  221.7888 H   0  0  0  0  0  0  0  0  0  0  0  0
  136.0594   77.1715  223.6155 H   0  0  0  0  0  0  0  0  0  0  0  0
  135.9829   79.1185  221.9507 H   0  0  0  0  0  0  0  0  0  0  0  0
  136.7889   79.1825  223.6096 H   0  0  0  0  0  0  0  0  0  0  0  0
  138.1717   78.9892  220.9181 H   0  0  0  0  0  0  0  0  0  0  0  0
  138.1721   80.3805  222.0035 H   0  0  0  0  0  0  0  0  0  0  0  0
  139.0566   78.7462  223.8683 H   0  0  0  0  0  0  0  0  0  0  0  0
  140.3429   80.2791  220.8942 H   0  0  0  0  0  0  0  0  0  0  0  0
  142.5371   81.3940  221.0287 H   0  0  0  0  0  0  0  0  0  0  0  0
  143.9497   80.9899  223.0486 H   0  0  0  0  0  0  0  0  0  0  0  0
  141.0272   78.4410  224.6922 H   0  0  0  0  0  0  0  0  0  0  0  0
  139.1533   70.2138  221.7982 H   0  0  0  0  0  0  0  0  0  0  0  0
  139.1631   68.5881  223.7038 H   0  0  0  0  0  0  0  0  0  0  0  0
  139.7099   68.1370  226.0659 H   0  0  0  0  0  0  0  0  0  0  0  0
  141.4763   71.2563  228.4581 H   0  0  0  0  0  0  0  0  0  0  0  0
  141.4243   72.8237  226.4925 H   0  0  0  0  0  0  0  0  0  0  0  0
  1  2  2  0
  2  3  1  0
  3  4  1  0
  4  5  1  0
  5  6  2  0
  5  7  1  0
  7  8  1  0
  8  9  1  0
  9 10  1  0
 10 11  1  0
 11 12  1  0
 12 13  1  0
 13 14  2  0
 14 15  1  0
 15 16  2  0
 16 17  1  0
 17 18  2  0
  2 19  1  0
 19 20  2  0
 20 21  1  0
 21 22  2  0
 22 23  1  0
 23 24  2  0
 24 25  1  0
 24 26  1  0
 26 27  2  0
 27 28  1  0
 28 29  2  0
 12  7  1  0
 18 13  1  0
 29 19  1  0
 28 22  1  0
  3 30  1  0
  4 31  1  0
  4 32  1  0
  8 33  1  0
  8 34  1  0
  9 35  1  0
  9 36  1  0
 10 37  1  0
 10 38  1  0
 11 39  1  0
 11 40  1  0
 12 41  1  1
 14 42  1  0
 15 43  1  0
 16 44  1  0
 18 45  1  0
 20 46  1  0
 21 47  1  0
 23 48  1  0
 26 49  1  0
 27 50  1  0
M  END
>  <smiles>  (18) 
O=C(NCC(=O)N1CCCCC1c1cccnc1)c1ccc2cc(Cl)ccc2n1

>  <score_type>  (18) 
oracle

>  <origin>  (18) 
autodockgpu

>  <m_score__min__energy>  (18) 
-8.8599999999999994

>  <m_primary>  (18) 
energy

>  <rmsd>  (18) 
3.3520194244561683

>  <m_score__min__rmsd>  (18) 
3.3520194244561683

>  <meeko>  (18) 
{"free_energy": -8.65, "intermolecular_energy": -10.14, "internal_energy": -1.31, "cluster_size": 15, "cluster_id": 2, "rank_in_cluster": 1}

>  <energy>  (18) 
-8.0

>  <cluster_rmsd>  (18) 
0.89

>  <cluster>  (18) 
1

$$$$

     RDKit          3D

 50 53  0  0  0  0  0  0  0  0999 V2000
  140.8200   72.5930  220.8060 O   0  0  0  0  0  0  0  0  0  0  0  0
  140.3310   72.9610  221.9050 C   0  0  0  0  0  0  0  0  0  0  0  0
  139.8660   74.2810  222.1570 N   0  0  0  0  0  0  0  0  0  0  0  0
  139.9380   75.3270  221.1020 C   0  0  0  0  0  0  0  0  0  0  0  0
  139.9560   76.6380  221.7570 C   0  0  0  0  0  0  0  0  0  0  0  0
  138.8570   76.9730  222.3490 O   0  0  0  0  0  0  0  0  0  0  0  0
  140.9840   77.5810  221.8310 N   0  0  0  0  0  0  0  0  0  0  0  0
  141.1430   78.2800  223.1210 C   0  0  0  0  0  0  0  0  0  0  0  0
  141.1510   79.7670  222.9080 C   0  0  0  0  0  0  0  0  0  0  0  0
  141.6780   80.2690  221.6270 C   0  0  0  0  0  0  0  0  0  0  0  0
  141.4160   79.3960  220.4180 C   0  0  0  0  0  0  0  0  0  0  0  0
  141.8960   78.0090  220.8210 C   0  0  2  0  0  0  0  0  0  0  0  0
  142.2250   77.1070  219.7500 C   0  0  0  0  0  0  0  0  0  0  0  0
  141.9530   77.2940  218.4090 C   0  0  0  0  0  0  0  0  0  0  0  0
  142.3370   76.4190  217.4240 C   0  0  0  0  0  0  0  0  0  0  0  0
  143.0340   75.2950  217.8160 C   0  0  0  0  0  0  0  0  0  0  0  0
  143.3160   75.0830  219.1090 N   0  0  0  0  0  0  0  0  0  0  0  0
  142.9380   75.9400  220.0560 C   0  0  0  0  0  0  0  0  0  0  0  0
  140.2280   71.9730  223.0000 C   0  0  0  0  0  0  0  0  0  0  0  0
  139.6640   70.7350  222.7750 C   0  0  0  0  0  0  0  0  0  0  0  0
  139.5670   69.8000  223.8090 C   0  0  0  0  0  0  0  0  0  0  0  0
  140.0550   70.1500  225.0730 C   0  0  0  0  0  0  0  0  0  0  0  0
  139.9840   69.2660  226.1300 C   0  0  0  0  0  0  0  0  0  0  0  0
  140.4820   69.6670  227.3520 C   0  0  0  0  0  0  0  0  0  0  0  0
  140.3800   68.5180  228.6850 Cl  0  0  0  0  0  0  0  0  0  0  0  0
  141.0420   70.9130  227.5460 C   0  0  0  0  0  0  0  0  0  0  0  0
  141.1170   71.8110  226.4860 C   0  0  0  0  0  0  0  0  0  0  0  0
  140.6140   71.3970  225.2630 C   0  0  0  0  0  0  0  0  0  0  0  0
  140.6830   72.2570  224.2420 N   0  0  0  0  0  0  0  0  0  0  0  0
  139.4760   74.4990  223.0970 H   0  0  0  0  0  0  0  0  0  0  0  0
  140.8547   75.1947  220.5085 H   0  0  0  0  0  0  0  0  0  0  0  0
  139.0701   75.2497  220.4306 H   0  0  0  0  0  0  0  0  0  0  0  0
  140.3075   78.0125  223.7846 H   0  0  0  0  0  0  0  0  0  0  0  0
  142.0970   77.9778  223.5777 H   0  0  0  0  0  0  0  0  0  0  0  0
  140.1123   80.1179  222.9969 H   0  0  0  0  0  0  0  0  0  0  0  0
  141.8460   80.1546  223.6675 H   0  0  0  0  0  0  0  0  0  0  0  0
  141.2235   81.2527  221.4376 H   0  0  0  0  0  0  0  0  0  0  0  0
  142.7714   80.2957  221.7443 H   0  0  0  0  0  0  0  0  0  0  0  0
  140.3424   79.3791  220.1789 H   0  0  0  0  0  0  0  0  0  0  0  0
  141.9331   79.7673  219.5209 H   0  0  0  0  0  0  0  0  0  0  0  0
  142.9117   78.0312  221.2427 H   0  0  0  0  0  0  0  0  0  0  0  0
  141.3968   78.1958  218.1135 H   0  0  0  0  0  0  0  0  0  0  0  0
  142.0990   76.6061  216.3665 H   0  0  0  0  0  0  0  0  0  0  0  0
  143.3614   74.5658  217.0603 H   0  0  0  0  0  0  0  0  0  0  0  0
  143.1919   75.7263  221.1048 H   0  0  0  0  0  0  0  0  0  0  0  0
  139.2873   70.4813  221.7732 H   0  0  0  0  0  0  0  0  0  0  0  0
  139.1174   68.8116  223.6334 H   0  0  0  0  0  0  0  0  0  0  0  0
  139.5416   68.2671  226.0014 H   0  0  0  0  0  0  0  0  0  0  0  0
  141.4283   71.1957  228.5364 H   0  0  0  0  0  0  0  0  0  0  0  0
  141.5583   72.8105  226.6137 H   0  0  0  0  0  0  0  0  0  0  0  0
  1  2  2  0
  2  3  1  0
  3  4  1  0
  4  5  1  0
  5  6  2  0
  5  7  1  0
  7  8  1  0
  8  9  1  0
  9 10  1  0
 10 11  1  0
 11 12  1  0
 12 13  1  0
 13 14  2  0
 14 15  1  0
 15 16  2  0
 16 17  1  0
 17 18  2  0
  2 19  1  0
 19 20  2  0
 20 21  1  0
 21 22  2  0
 22 23  1  0
 23 24  2  0
 24 25  1  0
 24 26  1  0
 26 27  2  0
 27 28  1  0
 28 29  2  0
 12  7  1  0
 18 13  1  0
 29 19  1  0
 28 22  1  0
  3 30  1  0
  4 31  1  0
  4 32  1  0
  8 33  1  0
  8 34  1  0
  9 35  1  0
  9 36  1  0
 10 37  1  0
 10 38  1  0
 11 39  1  0
 11 40  1  0
 12 41  1  1
 14 42  1  0
 15 43  1  0
 16 44  1  0
 18 45  1  0
 20 46  1  0
 21 47  1  0
 23 48  1  0
 26 49  1  0
 27 50  1  0
M  END
>  <smiles>  (19) 
O=C(NCC(=O)N1CCCCC1c1cccnc1)c1ccc2cc(Cl)ccc2n1

>  <score_type>  (19) 
oracle

>  <origin>  (19) 
autodockgpu

>  <m_score__min__energy>  (19) 
-8.8599999999999994

>  <m_primary>  (19) 
energy

>  <rmsd>  (19) 
3.268400354799646

>  <m_score__min__rmsd>  (19) 
3.268400354799646

>  <meeko>  (19) 
{"free_energy": -8.35, "intermolecular_energy": -9.84, "internal_energy": -1.55, "cluster_size": 2, "cluster_id": 4, "rank_in_cluster": 1}

>  <energy>  (19) 
-7.97

>  <cluster_rmsd>  (19) 
1.13

>  <cluster>  (19) 
1

$$$$

     RDKit          3D

 50 53  0  0  0  0  0  0  0  0999 V2000
  138.9610   71.9520  220.7010 O   0  0  0  0  0  0  0  0  0  0  0  0
  139.6350   72.3010  221.7040 C   0  0  0  0  0  0  0  0  0  0  0  0
  140.3360   73.5350  221.7910 N   0  0  0  0  0  0  0  0  0  0  0  0
  140.3090   74.5060  220.6650 C   0  0  0  0  0  0  0  0  0  0  0  0
  141.0420   75.7060  221.0780 C   0  0  0  0  0  0  0  0  0  0  0  0
  140.7690   76.1370  222.2650 O   0  0  0  0  0  0  0  0  0  0  0  0
  141.9880   76.4570  220.3740 N   0  0  0  0  0  0  0  0  0  0  0  0
  141.8380   77.9230  220.4330 C   0  0  0  0  0  0  0  0  0  0  0  0
  141.8250   78.5000  219.0460 C   0  0  0  0  0  0  0  0  0  0  0  0
  142.5880   77.7880  218.0050 C   0  0  0  0  0  0  0  0  0  0  0  0
  142.6280   76.2800  218.1300 C   0  0  0  0  0  0  0  0  0  0  0  0
  143.0720   76.0130  219.5610 C   0  0  2  0  0  0  0  0  0  0  0  0
  143.6610   74.7280  219.8210 C   0  0  0  0  0  0  0  0  0  0  0  0
  143.1410   73.5000  219.4600 C   0  0  0  0  0  0  0  0  0  0  0  0
  143.7750   72.3050  219.6930 C   0  0  0  0  0  0  0  0  0  0  0  0
  144.9990   72.3540  220.3250 C   0  0  0  0  0  0  0  0  0  0  0  0
  145.5340   73.5280  220.6890 N   0  0  0  0  0  0  0  0  0  0  0  0
  144.9090   74.6820  220.4570 C   0  0  0  0  0  0  0  0  0  0  0  0
  139.7060   71.3840  222.8620 C   0  0  0  0  0  0  0  0  0  0  0  0
  139.1990   70.1050  222.7740 C   0  0  0  0  0  0  0  0  0  0  0  0
  139.2660   69.2380  223.8680 C   0  0  0  0  0  0  0  0  0  0  0  0
  139.8600   69.6980  225.0490 C   0  0  0  0  0  0  0  0  0  0  0  0
  139.9520   68.8830  226.1590 C   0  0  0  0  0  0  0  0  0  0  0  0
  140.5490   69.3920  227.2940 C   0  0  0  0  0  0  0  0  0  0  0  0
  140.6550   68.3310  228.6980 Cl  0  0  0  0  0  0  0  0  0  0  0  0
  141.0490   70.6770  227.3510 C   0  0  0  0  0  0  0  0  0  0  0  0
  140.9580   71.5040  226.2360 C   0  0  0  0  0  0  0  0  0  0  0  0
  140.3580   70.9820  225.1010 C   0  0  0  0  0  0  0  0  0  0  0  0
  140.2690   71.7750  224.0290 N   0  0  0  0  0  0  0  0  0  0  0  0
  140.8690   73.7420  222.6600 H   0  0  0  0  0  0  0  0  0  0  0  0
  140.7884   74.0630  219.7796 H   0  0  0  0  0  0  0  0  0  0  0  0
  139.2705   74.7638  220.4102 H   0  0  0  0  0  0  0  0  0  0  0  0
  140.8932   78.1714  220.9386 H   0  0  0  0  0  0  0  0  0  0  0  0
  142.6857   78.3481  220.9904 H   0  0  0  0  0  0  0  0  0  0  0  0
  140.7765   78.5407  218.7160 H   0  0  0  0  0  0  0  0  0  0  0  0
  142.3261   79.4744  219.1434 H   0  0  0  0  0  0  0  0  0  0  0  0
  142.1397   78.0337  217.0310 H   0  0  0  0  0  0  0  0  0  0  0  0
  143.6295   78.1238  218.1170 H   0  0  0  0  0  0  0  0  0  0  0  0
  141.6317   75.8508  217.9482 H   0  0  0  0  0  0  0  0  0  0  0  0
  143.3075   75.8232  217.3954 H   0  0  0  0  0  0  0  0  0  0  0  0
  143.9735   76.5847  219.8266 H   0  0  0  0  0  0  0  0  0  0  0  0
  142.1629   73.4787  218.9571 H   0  0  0  0  0  0  0  0  0  0  0  0
  143.3252   71.3486  219.3882 H   0  0  0  0  0  0  0  0  0  0  0  0
  145.5422   71.4203  220.5328 H   0  0  0  0  0  0  0  0  0  0  0  0
  145.3847   75.6222  220.7727 H   0  0  0  0  0  0  0  0  0  0  0  0
  138.7381   69.7642  221.8352 H   0  0  0  0  0  0  0  0  0  0  0  0
  138.8612   68.2173  223.8025 H   0  0  0  0  0  0  0  0  0  0  0  0
  139.5600   67.8554  226.1393 H   0  0  0  0  0  0  0  0  0  0  0  0
  141.5180   71.0462  228.2750 H   0  0  0  0  0  0  0  0  0  0  0  0
  141.3473   72.5326  226.2545 H   0  0  0  0  0  0  0  0  0  0  0  0
  1  2  2  0
  2  3  1  0
  3  4  1  0
  4  5  1  0
  5  6  2  0
  5  7  1  0
  7  8  1  0
  8  9  1  0
  9 10  1  0
 10 11  1  0
 11 12  1  0
 12 13  1  0
 13 14  2  0
 14 15  1  0
 15 16  2  0
 16 17  1  0
 17 18  2  0
  2 19  1  0
 19 20  2  0
 20 21  1  0
 21 22  2  0
 22 23  1  0
 23 24  2  0
 24 25  1  0
 24 26  1  0
 26 27  2  0
 27 28  1  0
 28 29  2  0
 12  7  1  0
 18 13  1  0
 29 19  1  0
 28 22  1  0
  3 30  1  0
  4 31  1  0
  4 32  1  0
  8 33  1  0
  8 34  1  0
  9 35  1  0
  9 36  1  0
 10 37  1  0
 10 38  1  0
 11 39  1  0
 11 40  1  0
 12 41  1  1
 14 42  1  0
 15 43  1  0
 16 44  1  0
 18 45  1  0
 20 46  1  0
 21 47  1  0
 23 48  1  0
 26 49  1  0
 27 50  1  0
M  END
>  <smiles>  (20) 
O=C(NCC(=O)N1CCCCC1c1cccnc1)c1ccc2cc(Cl)ccc2n1

>  <score_type>  (20) 
oracle

>  <origin>  (20) 
autodockgpu

>  <m_score__min__energy>  (20) 
-8.8599999999999994

>  <m_primary>  (20) 
energy

>  <rmsd>  (20) 
2.3496768094155573

>  <m_score__min__rmsd>  (20) 
2.3496768094155573

>  <meeko>  (20) 
{"free_energy": -7.92, "intermolecular_energy": -9.41, "internal_energy": -2.02, "cluster_size": 22, "cluster_id": 1, "rank_in_cluster": 20}

>  <energy>  (20) 
-7.92

>  <cluster_rmsd>  (20) 
1.16

>  <cluster>  (20) 
1

$$$$

     RDKit          3D

 50 53  0  0  0  0  0  0  0  0999 V2000
  139.8430   72.5130  220.5750 O   0  0  0  0  0  0  0  0  0  0  0  0
  139.7570   72.9170  221.7630 C   0  0  0  0  0  0  0  0  0  0  0  0
  139.5900   74.2840  222.1190 N   0  0  0  0  0  0  0  0  0  0  0  0
  139.5060   75.3370  221.0740 C   0  0  0  0  0  0  0  0  0  0  0  0
  140.3800   76.4460  221.4690 C   0  0  0  0  0  0  0  0  0  0  0  0
  140.1230   76.9640  222.6250 O   0  0  0  0  0  0  0  0  0  0  0  0
  141.4460   77.0290  220.7790 N   0  0  0  0  0  0  0  0  0  0  0  0
  141.7450   78.4370  221.1010 C   0  0  0  0  0  0  0  0  0  0  0  0
  141.7910   79.2590  219.8440 C   0  0  0  0  0  0  0  0  0  0  0  0
  142.2200   78.5850  218.6050 C   0  0  0  0  0  0  0  0  0  0  0  0
  141.8180   77.1320  218.4710 C   0  0  0  0  0  0  0  0  0  0  0  0
  142.2790   76.4730  219.7630 C   0  0  2  0  0  0  0  0  0  0  0  0
  142.4770   75.0500  219.7220 C   0  0  0  0  0  0  0  0  0  0  0  0
  142.1470   74.2060  218.6790 C   0  0  0  0  0  0  0  0  0  0  0  0
  142.4060   72.8580  218.6780 C   0  0  0  0  0  0  0  0  0  0  0  0
  143.0320   72.3350  219.7900 C   0  0  0  0  0  0  0  0  0  0  0  0
  143.3670   73.1260  220.8200 N   0  0  0  0  0  0  0  0  0  0  0  0
  143.1100   74.4330  220.8090 C   0  0  0  0  0  0  0  0  0  0  0  0
  139.8310   71.9240  222.8550 C   0  0  0  0  0  0  0  0  0  0  0  0
  139.4200   70.6240  222.6490 C   0  0  0  0  0  0  0  0  0  0  0  0
  139.4900   69.6840  223.6800 C   0  0  0  0  0  0  0  0  0  0  0  0
  139.9870   70.0930  224.9230 C   0  0  0  0  0  0  0  0  0  0  0  0
  140.0770   69.2060  225.9770 C   0  0  0  0  0  0  0  0  0  0  0  0
  140.5760   69.6680  227.1770 C   0  0  0  0  0  0  0  0  0  0  0  0
  140.6810   68.5150  228.5070 Cl  0  0  0  0  0  0  0  0  0  0  0  0
  140.9800   70.9760  227.3540 C   0  0  0  0  0  0  0  0  0  0  0  0
  140.8910   71.8760  226.2970 C   0  0  0  0  0  0  0  0  0  0  0  0
  140.3900   71.4010  225.0950 C   0  0  0  0  0  0  0  0  0  0  0  0
  140.3030   72.2630  224.0780 N   0  0  0  0  0  0  0  0  0  0  0  0
  139.5280   74.5290  223.1290 H   0  0  0  0  0  0  0  0  0  0  0  0
  139.8360   74.9291  220.1072 H   0  0  0  0  0  0  0  0  0  0  0  0
  138.4688   75.6888  220.9719 H   0  0  0  0  0  0  0  0  0  0  0  0
  140.9619   78.8320  221.7648 H   0  0  0  0  0  0  0  0  0  0  0  0
  142.7235   78.4906  221.6006 H   0  0  0  0  0  0  0  0  0  0  0  0
  140.7788   79.6533  219.6710 H   0  0  0  0  0  0  0  0  0  0  0  0
  142.5654   80.0169  220.0331 H   0  0  0  0  0  0  0  0  0  0  0  0
  141.7880   79.1342  217.7554 H   0  0  0  0  0  0  0  0  0  0  0  0
  143.3197   78.5891  218.6287 H   0  0  0  0  0  0  0  0  0  0  0  0
  140.7274   77.0417  218.3590 H   0  0  0  0  0  0  0  0  0  0  0  0
  142.2666   76.6601  217.5844 H   0  0  0  0  0  0  0  0  0  0  0  0
  143.3285   76.7074  219.9946 H   0  0  0  0  0  0  0  0  0  0  0  0
  141.6483   74.6390  217.7993 H   0  0  0  0  0  0  0  0  0  0  0  0
  142.1259   72.2214  217.8257 H   0  0  0  0  0  0  0  0  0  0  0  0
  143.2586   71.2594  219.8326 H   0  0  0  0  0  0  0  0  0  0  0  0
  143.4024   75.0438  221.6759 H   0  0  0  0  0  0  0  0  0  0  0  0
  139.0334   70.3244  221.6637 H   0  0  0  0  0  0  0  0  0  0  0  0
  139.1622   68.6464  223.5188 H   0  0  0  0  0  0  0  0  0  0  0  0
  139.7593   68.1591  225.8629 H   0  0  0  0  0  0  0  0  0  0  0  0
  141.3711   71.3056  228.3279 H   0  0  0  0  0  0  0  0  0  0  0  0
  141.2060   72.9238  226.4106 H   0  0  0  0  0  0  0  0  0  0  0  0
  1  2  2  0
  2  3  1  0
  3  4  1  0
  4  5  1  0
  5  6  2  0
  5  7  1  0
  7  8  1  0
  8  9  1  0
  9 10  1  0
 10 11  1  0
 11 12  1  0
 12 13  1  0
 13 14  2  0
 14 15  1  0
 15 16  2  0
 16 17  1  0
 17 18  2  0
  2 19  1  0
 19 20  2  0
 20 21  1  0
 21 22  2  0
 22 23  1  0
 23 24  2  0
 24 25  1  0
 24 26  1  0
 26 27  2  0
 27 28  1  0
 28 29  2  0
 12  7  1  0
 18 13  1  0
 29 19  1  0
 28 22  1  0
  3 30  1  0
  4 31  1  0
  4 32  1  0
  8 33  1  0
  8 34  1  0
  9 35  1  0
  9 36  1  0
 10 37  1  0
 10 38  1  0
 11 39  1  0
 11 40  1  0
 12 41  1  1
 14 42  1  0
 15 43  1  0
 16 44  1  0
 18 45  1  0
 20 46  1  0
 21 47  1  0
 23 48  1  0
 26 49  1  0
 27 50  1  0
M  END
>  <smiles>  (21) 
O=C(NCC(=O)N1CCCCC1c1cccnc1)c1ccc2cc(Cl)ccc2n1

>  <score_type>  (21) 
oracle

>  <origin>  (21) 
autodockgpu

>  <m_score__min__energy>  (21) 
-8.8599999999999994

>  <m_primary>  (21) 
energy

>  <rmsd>  (21) 
2.532471214384243

>  <m_score__min__rmsd>  (21) 
2.532471214384243

>  <meeko>  (21) 
{"free_energy": -7.49, "intermolecular_energy": -8.98, "internal_energy": -2.24, "cluster_size": 22, "cluster_id": 1, "rank_in_cluster": 22}

>  <energy>  (21) 
-7.83

>  <cluster_rmsd>  (21) 
1.23

>  <cluster>  (21) 
1

$$$$

     RDKit          3D

 50 53  0  0  0  0  0  0  0  0999 V2000
  139.8550   72.7170  220.3170 O   0  0  0  0  0  0  0  0  0  0  0  0
  140.3470   72.9990  221.4390 C   0  0  0  0  0  0  0  0  0  0  0  0
  141.0740   74.1920  221.7030 N   0  0  0  0  0  0  0  0  0  0  0  0
  141.2960   75.1990  220.6320 C   0  0  0  0  0  0  0  0  0  0  0  0
  140.2480   76.2190  220.7380 C   0  0  0  0  0  0  0  0  0  0  0  0
  139.9940   76.8630  219.6460 O   0  0  0  0  0  0  0  0  0  0  0  0
  139.4870   76.6010  221.8450 N   0  0  0  0  0  0  0  0  0  0  0  0
  138.5170   75.6110  222.3490 C   0  0  0  0  0  0  0  0  0  0  0  0
  137.1520   76.2290  222.4580 C   0  0  0  0  0  0  0  0  0  0  0  0
  137.0790   77.6740  222.7400 C   0  0  0  0  0  0  0  0  0  0  0  0
  138.1790   78.5200  222.1360 C   0  0  0  0  0  0  0  0  0  0  0  0
  139.4750   77.8400  222.5530 C   0  0  2  0  0  0  0  0  0  0  0  0
  140.6590   78.6560  222.5510 C   0  0  0  0  0  0  0  0  0  0  0  0
  141.0970   79.4610  221.5160 C   0  0  0  0  0  0  0  0  0  0  0  0
  142.2120   80.2590  221.5910 C   0  0  0  0  0  0  0  0  0  0  0  0
  142.9200   80.2420  222.7740 C   0  0  0  0  0  0  0  0  0  0  0  0
  142.5230   79.4740  223.7980 N   0  0  0  0  0  0  0  0  0  0  0  0
  141.4390   78.7030  223.7130 C   0  0  0  0  0  0  0  0  0  0  0  0
  140.1650   72.0430  222.5520 C   0  0  0  0  0  0  0  0  0  0  0  0
  139.4400   70.8840  222.3680 C   0  0  0  0  0  0  0  0  0  0  0  0
  139.2670   69.9800  223.4190 C   0  0  0  0  0  0  0  0  0  0  0  0
  139.8460   70.2780  224.6580 C   0  0  0  0  0  0  0  0  0  0  0  0
  139.7060   69.4200  225.7300 C   0  0  0  0  0  0  0  0  0  0  0  0
  140.3000   69.7670  226.9260 C   0  0  0  0  0  0  0  0  0  0  0  0
  140.1070   68.6540  228.2790 Cl  0  0  0  0  0  0  0  0  0  0  0  0
  141.0200   70.9340  227.0800 C   0  0  0  0  0  0  0  0  0  0  0  0
  141.1650   71.8040  226.0040 C   0  0  0  0  0  0  0  0  0  0  0  0
  140.5650   71.4450  224.8070 C   0  0  0  0  0  0  0  0  0  0  0  0
  140.7020   72.2790  223.7720 N   0  0  0  0  0  0  0  0  0  0  0  0
  141.4460   74.3450  222.6630 H   0  0  0  0  0  0  0  0  0  0  0  0
  142.2840   75.6657  220.7586 H   0  0  0  0  0  0  0  0  0  0  0  0
  141.2588   74.7172  219.6438 H   0  0  0  0  0  0  0  0  0  0  0  0
  138.4751   74.7581  221.6556 H   0  0  0  0  0  0  0  0  0  0  0  0
  138.8369   75.2708  223.3450 H   0  0  0  0  0  0  0  0  0  0  0  0
  136.6337   76.0530  221.5039 H   0  0  0  0  0  0  0  0  0  0  0  0
  136.6967   75.7489  223.3368 H   0  0  0  0  0  0  0  0  0  0  0  0
  136.1179   78.0449  222.3544 H   0  0  0  0  0  0  0  0  0  0  0  0
  137.1918   77.7715  223.8299 H   0  0  0  0  0  0  0  0  0  0  0  0
  138.0905   78.5437  221.0398 H   0  0  0  0  0  0  0  0  0  0  0  0
  138.1320   79.5641  222.4791 H   0  0  0  0  0  0  0  0  0  0  0  0
  139.5028   77.6354  223.6334 H   0  0  0  0  0  0  0  0  0  0  0  0
  140.5198   79.4624  220.5796 H   0  0  0  0  0  0  0  0  0  0  0  0
  142.5270   80.8852  220.7433 H   0  0  0  0  0  0  0  0  0  0  0  0
  143.8202   80.8654  222.8784 H   0  0  0  0  0  0  0  0  0  0  0  0
  141.1497   78.0879  224.5778 H   0  0  0  0  0  0  0  0  0  0  0  0
  138.9943   70.6697  221.3854 H   0  0  0  0  0  0  0  0  0  0  0  0
  138.6889   69.0551  223.2761 H   0  0  0  0  0  0  0  0  0  0  0  0
  139.1359   68.4842  225.6334 H   0  0  0  0  0  0  0  0  0  0  0  0
  141.4779   71.1757  228.0505 H   0  0  0  0  0  0  0  0  0  0  0  0
  141.7338   72.7407  226.0994 H   0  0  0  0  0  0  0  0  0  0  0  0
  1  2  2  0
  2  3  1  0
  3  4  1  0
  4  5  1  0
  5  6  2  0
  5  7  1  0
  7  8  1  0
  8  9  1  0
  9 10  1  0
 10 11  1  0
 11 12  1  0
 12 13  1  0
 13 14  2  0
 14 15  1  0
 15 16  2  0
 16 17  1  0
 17 18  2  0
  2 19  1  0
 19 20  2  0
 20 21  1  0
 21 22  2  0
 22 23  1  0
 23 24  2  0
 24 25  1  0
 24 26  1  0
 26 27  2  0
 27 28  1  0
 28 29  2  0
 12  7  1  0
 18 13  1  0
 29 19  1  0
 28 22  1  0
  3 30  1  0
  4 31  1  0
  4 32  1  0
  8 33  1  0
  8 34  1  0
  9 35  1  0
  9 36  1  0
 10 37  1  0
 10 38  1  0
 11 39  1  0
 11 40  1  0
 12 41  1  1
 14 42  1  0
 15 43  1  0
 16 44  1  0
 18 45  1  0
 20 46  1  0
 21 47  1  0
 23 48  1  0
 26 49  1  0
 27 50  1  0
M  END
>  <smiles>  (22) 
O=C(NCC(=O)N1CCCCC1c1cccnc1)c1ccc2cc(Cl)ccc2n1

>  <score_type>  (22) 
oracle

>  <origin>  (22) 
autodockgpu

>  <m_score__min__energy>  (22) 
-8.8599999999999994

>  <m_primary>  (22) 
energy

>  <rmsd>  (22) 
3.333653819889626

>  <m_score__min__rmsd>  (22) 
3.333653819889626

>  <meeko>  (22) 
{"free_energy": -7.65, "intermolecular_energy": -9.15, "internal_energy": -1.8, "cluster_size": 15, "cluster_id": 2, "rank_in_cluster": 13}

>  <energy>  (22) 
-7.49

>  <cluster_rmsd>  (22) 
1.75

>  <cluster>  (22) 
1

$$$$

     RDKit          3D

 50 53  0  0  0  0  0  0  0  0999 V2000
  140.7740   74.0430  222.1400 O   0  0  0  0  0  0  0  0  0  0  0  0
  140.2530   72.9220  221.9080 C   0  0  0  0  0  0  0  0  0  0  0  0
  139.7420   72.5400  220.6380 N   0  0  0  0  0  0  0  0  0  0  0  0
  139.8000   73.4750  219.4830 C   0  0  0  0  0  0  0  0  0  0  0  0
  141.1970   73.8700  219.2830 C   0  0  0  0  0  0  0  0  0  0  0  0
  141.9760   72.9360  218.8450 O   0  0  0  0  0  0  0  0  0  0  0  0
  141.8120   75.1060  219.5010 N   0  0  0  0  0  0  0  0  0  0  0  0
  140.9210   76.2350  219.8270 C   0  0  0  0  0  0  0  0  0  0  0  0
  141.1910   77.3920  218.9080 C   0  0  0  0  0  0  0  0  0  0  0  0
  142.5630   77.5450  218.3900 C   0  0  0  0  0  0  0  0  0  0  0  0
  143.3160   76.2580  218.1280 C   0  0  0  0  0  0  0  0  0  0  0  0
  143.1920   75.4570  219.4160 C   0  0  2  0  0  0  0  0  0  0  0  0
  144.1870   74.4440  219.6400 C   0  0  0  0  0  0  0  0  0  0  0  0
  144.6610   74.0190  220.8670 C   0  0  0  0  0  0  0  0  0  0  0  0
  145.5780   73.0100  221.0210 C   0  0  0  0  0  0  0  0  0  0  0  0
  146.0400   72.3980  219.8750 C   0  0  0  0  0  0  0  0  0  0  0  0
  145.6010   72.7840  218.6680 N   0  0  0  0  0  0  0  0  0  0  0  0
  144.7100   73.7660  218.5320 C   0  0  0  0  0  0  0  0  0  0  0  0
  140.1630   71.9410  223.0110 C   0  0  0  0  0  0  0  0  0  0  0  0
  139.5720   70.7120  222.8080 C   0  0  0  0  0  0  0  0  0  0  0  0
  139.4870   69.7840  223.8490 C   0  0  0  0  0  0  0  0  0  0  0  0
  140.0160   70.1320  225.0980 C   0  0  0  0  0  0  0  0  0  0  0  0
  139.9580   69.2540  226.1610 C   0  0  0  0  0  0  0  0  0  0  0  0
  140.4960   69.6530  227.3670 C   0  0  0  0  0  0  0  0  0  0  0  0
  140.4100   68.5120  228.7090 Cl  0  0  0  0  0  0  0  0  0  0  0  0
  141.0820   70.8900  227.5390 C   0  0  0  0  0  0  0  0  0  0  0  0
  141.1430   71.7810  226.4730 C   0  0  0  0  0  0  0  0  0  0  0  0
  140.6000   71.3690  225.2660 C   0  0  0  0  0  0  0  0  0  0  0  0
  140.6560   72.2230  224.2390 N   0  0  0  0  0  0  0  0  0  0  0  0
  139.3270   71.5910  220.5350 H   0  0  0  0  0  0  0  0  0  0  0  0
  139.4216   72.9745  218.5795 H   0  0  0  0  0  0  0  0  0  0  0  0
  139.1792   74.3614  219.6803 H   0  0  0  0  0  0  0  0  0  0  0  0
  139.8744   75.9166  219.7122 H   0  0  0  0  0  0  0  0  0  0  0  0
  141.1065   76.5502  220.8644 H   0  0  0  0  0  0  0  0  0  0  0  0
  140.5215   77.2875  218.0415 H   0  0  0  0  0  0  0  0  0  0  0  0
  141.0241   78.2859  219.5269 H   0  0  0  0  0  0  0  0  0  0  0  0
  142.5060   78.1014  217.4428 H   0  0  0  0  0  0  0  0  0  0  0  0
  143.1246   78.0639  219.1808 H   0  0  0  0  0  0  0  0  0  0  0  0
  142.8642   75.7105  217.2877 H   0  0  0  0  0  0  0  0  0  0  0  0
  144.3660   76.4426  217.8569 H   0  0  0  0  0  0  0  0  0  0  0  0
  143.4636   76.0519  220.3005 H   0  0  0  0  0  0  0  0  0  0  0  0
  144.2816   74.5179  221.7710 H   0  0  0  0  0  0  0  0  0  0  0  0
  145.9298   72.7023  222.0168 H   0  0  0  0  0  0  0  0  0  0  0  0
  146.7765   71.5845  219.9516 H   0  0  0  0  0  0  0  0  0  0  0  0
  144.3769   74.0512  217.5232 H   0  0  0  0  0  0  0  0  0  0  0  0
  139.1640   70.4599  221.8181 H   0  0  0  0  0  0  0  0  0  0  0  0
  139.0155   68.8028  223.6911 H   0  0  0  0  0  0  0  0  0  0  0  0
  139.4951   68.2624  226.0497 H   0  0  0  0  0  0  0  0  0  0  0  0
  141.5000   71.1709  228.5170 H   0  0  0  0  0  0  0  0  0  0  0  0
  141.6040   72.7736  226.5833 H   0  0  0  0  0  0  0  0  0  0  0  0
  1  2  2  0
  2  3  1  0
  3  4  1  0
  4  5  1  0
  5  6  2  0
  5  7  1  0
  7  8  1  0
  8  9  1  0
  9 10  1  0
 10 11  1  0
 11 12  1  0
 12 13  1  0
 13 14  2  0
 14 15  1  0
 15 16  2  0
 16 17  1  0
 17 18  2  0
  2 19  1  0
 19 20  2  0
 20 21  1  0
 21 22  2  0
 22 23  1  0
 23 24  2  0
 24 25  1  0
 24 26  1  0
 26 27  2  0
 27 28  1  0
 28 29  2  0
 12  7  1  0
 18 13  1  0
 29 19  1  0
 28 22  1  0
  3 30  1  0
  4 31  1  0
  4 32  1  0
  8 33  1  0
  8 34  1  0
  9 35  1  0
  9 36  1  0
 10 37  1  0
 10 38  1  0
 11 39  1  0
 11 40  1  0
 12 41  1  1
 14 42  1  0
 15 43  1  0
 16 44  1  0
 18 45  1  0
 20 46  1  0
 21 47  1  0
 23 48  1  0
 26 49  1  0
 27 50  1  0
M  END
>  <smiles>  (23) 
O=C(NCC(=O)N1CCCCC1c1cccnc1)c1ccc2cc(Cl)ccc2n1

>  <score_type>  (23) 
oracle

>  <origin>  (23) 
autodockgpu

>  <m_score__min__energy>  (23) 
-8.8599999999999994

>  <m_primary>  (23) 
energy

>  <rmsd>  (23) 
2.3310887689520814

>  <m_score__min__rmsd>  (23) 
2.3310887689520814

>  <meeko>  (23) 
{"free_energy": -8.49, "intermolecular_energy": -9.99, "internal_energy": -1.42, "cluster_size": 22, "cluster_id": 1, "rank_in_cluster": 2}

>  <energy>  (23) 
-8.65

>  <cluster_rmsd>  (23) 
0.0

>  <cluster>  (23) 
2

$$$$

     RDKit          3D

 50 53  0  0  0  0  0  0  0  0999 V2000
  139.2930   72.0190  220.4960 O   0  0  0  0  0  0  0  0  0  0  0  0
  139.7170   72.4660  221.5930 C   0  0  0  0  0  0  0  0  0  0  0  0
  140.1530   73.8060  221.7800 N   0  0  0  0  0  0  0  0  0  0  0  0
  140.1310   74.7780  220.6550 C   0  0  0  0  0  0  0  0  0  0  0  0
  141.0040   75.9020  221.0030 C   0  0  0  0  0  0  0  0  0  0  0  0
  140.8620   76.3590  222.2030 O   0  0  0  0  0  0  0  0  0  0  0  0
  141.9630   76.5570  220.2260 N   0  0  0  0  0  0  0  0  0  0  0  0
  141.8030   78.0160  220.0780 C   0  0  0  0  0  0  0  0  0  0  0  0
  141.8220   78.3960  218.6240 C   0  0  0  0  0  0  0  0  0  0  0  0
  142.6160   77.5550  217.7110 C   0  0  0  0  0  0  0  0  0  0  0  0
  142.6610   76.0790  218.0440 C   0  0  0  0  0  0  0  0  0  0  0  0
  143.0710   76.0160  219.5080 C   0  0  2  0  0  0  0  0  0  0  0  0
  143.6600   74.7850  219.9580 C   0  0  0  0  0  0  0  0  0  0  0  0
  143.1020   73.5250  219.8580 C   0  0  0  0  0  0  0  0  0  0  0  0
  143.7360   72.3760  220.2630 C   0  0  0  0  0  0  0  0  0  0  0  0
  145.0010   72.5080  220.7940 C   0  0  0  0  0  0  0  0  0  0  0  0
  145.5740   73.7150  220.9050 N   0  0  0  0  0  0  0  0  0  0  0  0
  144.9480   74.8240  220.5090 C   0  0  0  0  0  0  0  0  0  0  0  0
  139.7660   71.5560  222.7570 C   0  0  0  0  0  0  0  0  0  0  0  0
  139.2620   70.2750  222.6660 C   0  0  0  0  0  0  0  0  0  0  0  0
  139.3090   69.4140  223.7650 C   0  0  0  0  0  0  0  0  0  0  0  0
  139.8780   69.8810  224.9560 C   0  0  0  0  0  0  0  0  0  0  0  0
  139.9490   69.0730  226.0720 C   0  0  0  0  0  0  0  0  0  0  0  0
  140.5220   69.5890  227.2160 C   0  0  0  0  0  0  0  0  0  0  0  0
  140.6010   68.5350  228.6270 Cl  0  0  0  0  0  0  0  0  0  0  0  0
  141.0190   70.8750  227.2760 C   0  0  0  0  0  0  0  0  0  0  0  0
  140.9500   71.6960  226.1550 C   0  0  0  0  0  0  0  0  0  0  0  0
  140.3730   71.1670  225.0110 C   0  0  0  0  0  0  0  0  0  0  0  0
  140.3050   71.9530  223.9330 N   0  0  0  0  0  0  0  0  0  0  0  0
  140.4890   74.0920  222.7230 H   0  0  0  0  0  0  0  0  0  0  0  0
  140.4959   74.2935  219.7373 H   0  0  0  0  0  0  0  0  0  0  0  0
  139.1049   75.1340  220.4809 H   0  0  0  0  0  0  0  0  0  0  0  0
  140.8442   78.3231  220.5212 H   0  0  0  0  0  0  0  0  0  0  0  0
  142.6337   78.5219  220.5918 H   0  0  0  0  0  0  0  0  0  0  0  0
  140.7821   78.3803  218.2658 H   0  0  0  0  0  0  0  0  0  0  0  0
  142.3140   79.3795  218.5980 H   0  0  0  0  0  0  0  0  0  0  0  0
  142.1922   77.6601  216.7014 H   0  0  0  0  0  0  0  0  0  0  0  0
  143.6523   77.9127  217.8017 H   0  0  0  0  0  0  0  0  0  0  0  0
  141.6717   75.6201  217.8998 H   0  0  0  0  0  0  0  0  0  0  0  0
  143.3607   75.5311  217.3958 H   0  0  0  0  0  0  0  0  0  0  0  0
  143.9625   76.6272  219.7123 H   0  0  0  0  0  0  0  0  0  0  0  0
  142.0926   73.4372  219.4297 H   0  0  0  0  0  0  0  0  0  0  0  0
  143.2544   71.3916  220.1676 H   0  0  0  0  0  0  0  0  0  0  0  0
  145.5462   71.6137  221.1302 H   0  0  0  0  0  0  0  0  0  0  0  0
  145.4555   75.7939  220.6176 H   0  0  0  0  0  0  0  0  0  0  0  0
  138.8195   69.9288  221.7203 H   0  0  0  0  0  0  0  0  0  0  0  0
  138.9080   68.3920  223.6962 H   0  0  0  0  0  0  0  0  0  0  0  0
  139.5591   68.0447  226.0503 H   0  0  0  0  0  0  0  0  0  0  0  0
  141.4684   71.2498  228.2074 H   0  0  0  0  0  0  0  0  0  0  0  0
  141.3382   72.7250  226.1757 H   0  0  0  0  0  0  0  0  0  0  0  0
  1  2  2  0
  2  3  1  0
  3  4  1  0
  4  5  1  0
  5  6  2  0
  5  7  1  0
  7  8  1  0
  8  9  1  0
  9 10  1  0
 10 11  1  0
 11 12  1  0
 12 13  1  0
 13 14  2  0
 14 15  1  0
 15 16  2  0
 16 17  1  0
 17 18  2  0
  2 19  1  0
 19 20  2  0
 20 21  1  0
 21 22  2  0
 22 23  1  0
 23 24  2  0
 24 25  1  0
 24 26  1  0
 26 27  2  0
 27 28  1  0
 28 29  2  0
 12  7  1  0
 18 13  1  0
 29 19  1  0
 28 22  1  0
  3 30  1  0
  4 31  1  0
  4 32  1  0
  8 33  1  0
  8 34  1  0
  9 35  1  0
  9 36  1  0
 10 37  1  0
 10 38  1  0
 11 39  1  0
 11 40  1  0
 12 41  1  6
 14 42  1  0
 15 43  1  0
 16 44  1  0
 18 45  1  0
 20 46  1  0
 21 47  1  0
 23 48  1  0
 26 49  1  0
 27 50  1  0
M  END
>  <smiles>  (24) 
O=C(NCC(=O)N1CCCCC1c1cccnc1)c1ccc2cc(Cl)ccc2n1

>  <score_type>  (24) 
oracle

>  <origin>  (24) 
autodockgpu

>  <m_score__min__energy>  (24) 
-8.8599999999999994

>  <m_primary>  (24) 
energy

>  <rmsd>  (24) 
2.3404712767450624

>  <m_score__min__rmsd>  (24) 
2.3404712767450624

>  <meeko>  (24) 
{"free_energy": -7.83, "intermolecular_energy": -9.32, "internal_energy": -2.22, "cluster_size": 22, "cluster_id": 1, "rank_in_cluster": 21}

>  <energy>  (24) 
-8.51

>  <cluster_rmsd>  (24) 
1.73

>  <cluster>  (24) 
2

$$$$

     RDKit          3D

 50 53  0  0  0  0  0  0  0  0999 V2000
  139.2220   73.9200  222.3660 O   0  0  0  0  0  0  0  0  0  0  0  0
  140.0160   72.9570  222.2120 C   0  0  0  0  0  0  0  0  0  0  0  0
  140.8840   72.8230  221.0940 N   0  0  0  0  0  0  0  0  0  0  0  0
  140.8980   73.8470  220.0160 C   0  0  0  0  0  0  0  0  0  0  0  0
  141.6340   75.0160  220.5030 C   0  0  0  0  0  0  0  0  0  0  0  0
  141.4870   75.2740  221.7620 O   0  0  0  0  0  0  0  0  0  0  0  0
  142.4660   75.8980  219.8080 N   0  0  0  0  0  0  0  0  0  0  0  0
  142.0220   77.3020  219.7370 C   0  0  0  0  0  0  0  0  0  0  0  0
  142.0110   77.7710  218.3100 C   0  0  0  0  0  0  0  0  0  0  0  0
  142.9860   77.1660  217.3860 C   0  0  0  0  0  0  0  0  0  0  0  0
  143.3160   75.7090  217.6360 C   0  0  0  0  0  0  0  0  0  0  0  0
  143.6820   75.6340  219.1110 C   0  0  2  0  0  0  0  0  0  0  0  0
  144.4920   74.5180  219.5150 C   0  0  0  0  0  0  0  0  0  0  0  0
  144.8360   74.1810  220.8110 C   0  0  0  0  0  0  0  0  0  0  0  0
  145.5740   73.0710  221.1400 C   0  0  0  0  0  0  0  0  0  0  0  0
  145.9850   72.2590  220.1050 C   0  0  0  0  0  0  0  0  0  0  0  0
  145.6690   72.5550  218.8360 N   0  0  0  0  0  0  0  0  0  0  0  0
  144.9520   73.6350  218.5290 C   0  0  0  0  0  0  0  0  0  0  0  0
  140.0570   71.9010  223.2460 C   0  0  0  0  0  0  0  0  0  0  0  0
  139.6320   70.6210  222.9580 C   0  0  0  0  0  0  0  0  0  0  0  0
  139.6710   69.6230  223.9350 C   0  0  0  0  0  0  0  0  0  0  0  0
  140.1510   69.9530  225.2080 C   0  0  0  0  0  0  0  0  0  0  0  0
  140.2100   69.0060  226.2100 C   0  0  0  0  0  0  0  0  0  0  0  0
  140.6930   69.3900  227.4440 C   0  0  0  0  0  0  0  0  0  0  0  0
  140.7590   68.1610  228.7060 Cl  0  0  0  0  0  0  0  0  0  0  0  0
  141.1120   70.6800  227.7020 C   0  0  0  0  0  0  0  0  0  0  0  0
  141.0540   71.6400  226.6970 C   0  0  0  0  0  0  0  0  0  0  0  0
  140.5680   71.2420  225.4620 C   0  0  0  0  0  0  0  0  0  0  0  0
  140.5110   72.1620  224.4940 N   0  0  0  0  0  0  0  0  0  0  0  0
  141.5100   71.9920  221.0470 H   0  0  0  0  0  0  0  0  0  0  0  0
  141.3946   73.4402  219.1227 H   0  0  0  0  0  0  0  0  0  0  0  0
  139.8693   74.1306  219.7487 H   0  0  0  0  0  0  0  0  0  0  0  0
  141.0075   77.3838  220.1542 H   0  0  0  0  0  0  0  0  0  0  0  0
  142.7174   77.9281  220.3153 H   0  0  0  0  0  0  0  0  0  0  0  0
  141.0074   77.5723  217.9059 H   0  0  0  0  0  0  0  0  0  0  0  0
  142.2966   78.8320  218.3623 H   0  0  0  0  0  0  0  0  0  0  0  0
  142.5817   77.2502  216.3664 H   0  0  0  0  0  0  0  0  0  0  0  0
  143.9259   77.7158  217.5419 H   0  0  0  0  0  0  0  0  0  0  0  0
  142.4444   75.0731  217.4214 H   0  0  0  0  0  0  0  0  0  0  0  0
  144.1324   75.3541  216.9898 H   0  0  0  0  0  0  0  0  0  0  0  0
  144.4251   76.3951  219.3911 H   0  0  0  0  0  0  0  0  0  0  0  0
  144.4992   74.8398  221.6250 H   0  0  0  0  0  0  0  0  0  0  0  0
  145.8265   72.8396  222.1853 H   0  0  0  0  0  0  0  0  0  0  0  0
  146.5785   71.3587  220.3223 H   0  0  0  0  0  0  0  0  0  0  0  0
  144.7150   73.8388  217.4744 H   0  0  0  0  0  0  0  0  0  0  0  0
  139.2592   70.3838  221.9506 H   0  0  0  0  0  0  0  0  0  0  0  0
  139.3322   68.6011  223.7091 H   0  0  0  0  0  0  0  0  0  0  0  0
  139.8806   67.9721  226.0296 H   0  0  0  0  0  0  0  0  0  0  0  0
  141.4906   70.9479  228.6994 H   0  0  0  0  0  0  0  0  0  0  0  0
  141.3812   72.6749  226.8758 H   0  0  0  0  0  0  0  0  0  0  0  0
  1  2  2  0
  2  3  1  0
  3  4  1  0
  4  5  1  0
  5  6  2  0
  5  7  1  0
  7  8  1  0
  8  9  1  0
  9 10  1  0
 10 11  1  0
 11 12  1  0
 12 13  1  0
 13 14  2  0
 14 15  1  0
 15 16  2  0
 16 17  1  0
 17 18  2  0
  2 19  1  0
 19 20  2  0
 20 21  1  0
 21 22  2  0
 22 23  1  0
 23 24  2  0
 24 25  1  0
 24 26  1  0
 26 27  2  0
 27 28  1  0
 28 29  2  0
 12  7  1  0
 18 13  1  0
 29 19  1  0
 28 22  1  0
  3 30  1  0
  4 31  1  0
  4 32  1  0
  8 33  1  0
  8 34  1  0
  9 35  1  0
  9 36  1  0
 10 37  1  0
 10 38  1  0
 11 39  1  0
 11 40  1  0
 12 41  1  6
 14 42  1  0
 15 43  1  0
 16 44  1  0
 18 45  1  0
 20 46  1  0
 21 47  1  0
 23 48  1  0
 26 49  1  0
 27 50  1  0
M  END
>  <smiles>  (25) 
O=C(NCC(=O)N1CCCCC1c1cccnc1)c1ccc2cc(Cl)ccc2n1

>  <score_type>  (25) 
oracle

>  <origin>  (25) 
autodockgpu

>  <m_score__min__energy>  (25) 
-8.8599999999999994

>  <m_primary>  (25) 
energy

>  <rmsd>  (25) 
2.596965030279523

>  <m_score__min__rmsd>  (25) 
2.596965030279523

>  <meeko>  (25) 
{"free_energy": -8.86, "intermolecular_energy": -10.35, "internal_energy": -1.26, "cluster_size": 22, "cluster_id": 1, "rank_in_cluster": 1}

>  <energy>  (25) 
-8.5

>  <cluster_rmsd>  (25) 
1.74

>  <cluster>  (25) 
2

$$$$

     RDKit          3D

 50 53  0  0  0  0  0  0  0  0999 V2000
  140.2310   72.0530  220.6160 O   0  0  0  0  0  0  0  0  0  0  0  0
  140.0620   72.5360  221.7640 C   0  0  0  0  0  0  0  0  0  0  0  0
  139.9340   73.9290  222.0210 N   0  0  0  0  0  0  0  0  0  0  0  0
  139.9940   74.9150  220.9100 C   0  0  0  0  0  0  0  0  0  0  0  0
  140.9260   75.9800  221.2930 C   0  0  0  0  0  0  0  0  0  0  0  0
  140.8350   76.3770  222.5200 O   0  0  0  0  0  0  0  0  0  0  0  0
  141.8950   76.6330  220.5270 N   0  0  0  0  0  0  0  0  0  0  0  0
  141.8110   78.1050  220.4780 C   0  0  0  0  0  0  0  0  0  0  0  0
  141.8050   78.5780  219.0530 C   0  0  0  0  0  0  0  0  0  0  0  0
  142.5220   77.7580  218.0600 C   0  0  0  0  0  0  0  0  0  0  0  0
  142.4960   76.2630  218.2960 C   0  0  0  0  0  0  0  0  0  0  0  0
  142.9480   76.0820  219.7380 C   0  0  2  0  0  0  0  0  0  0  0  0
  143.4820   74.7940  220.0860 C   0  0  0  0  0  0  0  0  0  0  0  0
  142.8170   73.5850  220.0170 C   0  0  0  0  0  0  0  0  0  0  0  0
  143.3980   72.3780  220.3170 C   0  0  0  0  0  0  0  0  0  0  0  0
  144.7200   72.3940  220.7080 C   0  0  0  0  0  0  0  0  0  0  0  0
  145.3960   73.5490  220.7860 N   0  0  0  0  0  0  0  0  0  0  0  0
  144.8210   74.7150  220.4910 C   0  0  0  0  0  0  0  0  0  0  0  0
  139.9910   71.6130  222.9170 C   0  0  0  0  0  0  0  0  0  0  0  0
  139.3790   70.3830  222.7930 C   0  0  0  0  0  0  0  0  0  0  0  0
  139.3120   69.5110  223.8820 C   0  0  0  0  0  0  0  0  0  0  0  0
  139.8790   69.9130  225.0960 C   0  0  0  0  0  0  0  0  0  0  0  0
  139.8400   69.0900  226.2030 C   0  0  0  0  0  0  0  0  0  0  0  0
  140.4170   69.5410  227.3720 C   0  0  0  0  0  0  0  0  0  0  0  0
  140.3540   68.4700  228.7720 Cl  0  0  0  0  0  0  0  0  0  0  0  0
  141.0230   70.7770  227.4660 C   0  0  0  0  0  0  0  0  0  0  0  0
  141.0660   71.6120  226.3540 C   0  0  0  0  0  0  0  0  0  0  0  0
  140.4840   71.1490  225.1850 C   0  0  0  0  0  0  0  0  0  0  0  0
  140.5230   71.9490  224.1160 N   0  0  0  0  0  0  0  0  0  0  0  0
  139.7960   74.2410  223.0040 H   0  0  0  0  0  0  0  0  0  0  0  0
  140.3487   74.4217  219.9930 H   0  0  0  0  0  0  0  0  0  0  0  0
  138.9951   75.3344  220.7196 H   0  0  0  0  0  0  0  0  0  0  0  0
  140.8850   78.4326  220.9733 H   0  0  0  0  0  0  0  0  0  0  0  0
  142.6843   78.5312  220.9935 H   0  0  0  0  0  0  0  0  0  0  0  0
  140.7550   78.6412  218.7314 H   0  0  0  0  0  0  0  0  0  0  0  0
  142.3498   79.5334  219.0729 H   0  0  0  0  0  0  0  0  0  0  0  0
  142.0726   77.9518  217.0749 H   0  0  0  0  0  0  0  0  0  0  0  0
  143.5788   78.0536  218.1364 H   0  0  0  0  0  0  0  0  0  0  0  0
  141.4789   75.8677  218.1575 H   0  0  0  0  0  0  0  0  0  0  0  0
  143.1437   75.7227  217.5899 H   0  0  0  0  0  0  0  0  0  0  0  0
  143.8777   76.6299  219.9513 H   0  0  0  0  0  0  0  0  0  0  0  0
  141.7625   73.5898  219.7040 H   0  0  0  0  0  0  0  0  0  0  0  0
  142.8323   71.4371  220.2483 H   0  0  0  0  0  0  0  0  0  0  0  0
  145.2252   71.4495  220.9585 H   0  0  0  0  0  0  0  0  0  0  0  0
  145.4130   75.6389  220.5675 H   0  0  0  0  0  0  0  0  0  0  0  0
  138.9403   70.0866  221.8288 H   0  0  0  0  0  0  0  0  0  0  0  0
  138.8241   68.5297  223.7871 H   0  0  0  0  0  0  0  0  0  0  0  0
  139.3615   68.1007  226.1545 H   0  0  0  0  0  0  0  0  0  0  0  0
  141.4707   71.1011  228.4171 H   0  0  0  0  0  0  0  0  0  0  0  0
  141.5437   72.6017  226.4011 H   0  0  0  0  0  0  0  0  0  0  0  0
  1  2  2  0
  2  3  1  0
  3  4  1  0
  4  5  1  0
  5  6  2  0
  5  7  1  0
  7  8  1  0
  8  9  1  0
  9 10  1  0
 10 11  1  0
 11 12  1  0
 12 13  1  0
 13 14  2  0
 14 15  1  0
 15 16  2  0
 16 17  1  0
 17 18  2  0
  2 19  1  0
 19 20  2  0
 20 21  1  0
 21 22  2  0
 22 23  1  0
 23 24  2  0
 24 25  1  0
 24 26  1  0
 26 27  2  0
 27 28  1  0
 28 29  2  0
 12  7  1  0
 18 13  1  0
 29 19  1  0
 28 22  1  0
  3 30  1  0
  4 31  1  0
  4 32  1  0
  8 33  1  0
  8 34  1  0
  9 35  1  0
  9 36  1  0
 10 37  1  0
 10 38  1  0
 11 39  1  0
 11 40  1  0
 12 41  1  6
 14 42  1  0
 15 43  1  0
 16 44  1  0
 18 45  1  0
 20 46  1  0
 21 47  1  0
 23 48  1  0
 26 49  1  0
 27 50  1  0
M  END
>  <smiles>  (26) 
O=C(NCC(=O)N1CCCCC1c1cccnc1)c1ccc2cc(Cl)ccc2n1

>  <score_type>  (26) 
oracle

>  <origin>  (26) 
autodockgpu

>  <m_score__min__energy>  (26) 
-8.8599999999999994

>  <m_primary>  (26) 
energy

>  <rmsd>  (26) 
2.3765466133592503

>  <m_score__min__rmsd>  (26) 
2.3765466133592503

>  <meeko>  (26) 
{"free_energy": -8.34, "intermolecular_energy": -9.83, "internal_energy": -2.09, "cluster_size": 22, "cluster_id": 1, "rank_in_cluster": 11}

>  <energy>  (26) 
-8.3

>  <cluster_rmsd>  (26) 
1.8

>  <cluster>  (26) 
2

$$$$

     RDKit          3D

 50 53  0  0  0  0  0  0  0  0999 V2000
  140.1800   72.3990  220.6430 O   0  0  0  0  0  0  0  0  0  0  0  0
  139.9620   72.8370  221.8020 C   0  0  0  0  0  0  0  0  0  0  0  0
  139.7640   74.2140  222.0980 N   0  0  0  0  0  0  0  0  0  0  0  0
  139.8080   75.2370  221.0210 C   0  0  0  0  0  0  0  0  0  0  0  0
  140.8950   76.1730  221.3210 C   0  0  0  0  0  0  0  0  0  0  0  0
  141.0130   76.5000  222.5660 O   0  0  0  0  0  0  0  0  0  0  0  0
  141.8200   76.7680  220.4600 N   0  0  0  0  0  0  0  0  0  0  0  0
  141.7150   78.2300  220.2920 C   0  0  0  0  0  0  0  0  0  0  0  0
  141.6390   78.5810  218.8330 C   0  0  0  0  0  0  0  0  0  0  0  0
  142.3220   77.6870  217.8810 C   0  0  0  0  0  0  0  0  0  0  0  0
  142.3270   76.2170  218.2420 C   0  0  0  0  0  0  0  0  0  0  0  0
  142.8440   76.1630  219.6720 C   0  0  2  0  0  0  0  0  0  0  0  0
  143.4110   74.9140  220.1030 C   0  0  0  0  0  0  0  0  0  0  0  0
  142.7620   73.6950  220.1550 C   0  0  0  0  0  0  0  0  0  0  0  0
  143.3720   72.5230  220.5300 C   0  0  0  0  0  0  0  0  0  0  0  0
  144.7060   72.5870  220.8690 C   0  0  0  0  0  0  0  0  0  0  0  0
  145.3670   73.7530  220.8290 N   0  0  0  0  0  0  0  0  0  0  0  0
  144.7640   74.8850  220.4630 C   0  0  0  0  0  0  0  0  0  0  0  0
  139.9040   71.8750  222.9230 C   0  0  0  0  0  0  0  0  0  0  0  0
  139.2880   70.6510  222.7640 C   0  0  0  0  0  0  0  0  0  0  0  0
  139.2340   69.7410  223.8230 C   0  0  0  0  0  0  0  0  0  0  0  0
  139.8180   70.1010  225.0430 C   0  0  0  0  0  0  0  0  0  0  0  0
  139.7930   69.2400  226.1210 C   0  0  0  0  0  0  0  0  0  0  0  0
  140.3860   69.6500  227.2980 C   0  0  0  0  0  0  0  0  0  0  0  0
  140.3390   68.5310  228.6600 Cl  0  0  0  0  0  0  0  0  0  0  0  0
  140.9950   70.8810  227.4260 C   0  0  0  0  0  0  0  0  0  0  0  0
  141.0240   71.7540  226.3430 C   0  0  0  0  0  0  0  0  0  0  0  0
  140.4260   71.3320  225.1660 C   0  0  0  0  0  0  0  0  0  0  0  0
  140.4520   72.1690  224.1250 N   0  0  0  0  0  0  0  0  0  0  0  0
  139.5890   74.4880  223.0870 H   0  0  0  0  0  0  0  0  0  0  0  0
  139.9931   74.7498  220.0523 H   0  0  0  0  0  0  0  0  0  0  0  0
  138.8492   75.7735  220.9678 H   0  0  0  0  0  0  0  0  0  0  0  0
  140.8080   78.5898  220.7999 H   0  0  0  0  0  0  0  0  0  0  0  0
  142.6048   78.7062  220.7297 H   0  0  0  0  0  0  0  0  0  0  0  0
  140.5749   78.6066  218.5554 H   0  0  0  0  0  0  0  0  0  0  0  0
  142.1712   79.5399  218.7477 H   0  0  0  0  0  0  0  0  0  0  0  0
  141.8266   77.7926  216.9046 H   0  0  0  0  0  0  0  0  0  0  0  0
  143.3771   77.9981  217.8847 H   0  0  0  0  0  0  0  0  0  0  0  0
  141.3104   75.8011  218.1827 H   0  0  0  0  0  0  0  0  0  0  0  0
  142.9504   75.6256  217.5553 H   0  0  0  0  0  0  0  0  0  0  0  0
  143.7743   76.7370  219.7951 H   0  0  0  0  0  0  0  0  0  0  0  0
  141.6973   73.6615  219.8807 H   0  0  0  0  0  0  0  0  0  0  0  0
  142.8186   71.5728  220.5585 H   0  0  0  0  0  0  0  0  0  0  0  0
  145.2342   71.6721  221.1756 H   0  0  0  0  0  0  0  0  0  0  0  0
  145.3441   75.8194  220.4434 H   0  0  0  0  0  0  0  0  0  0  0  0
  138.8358   70.3893  221.7960 H   0  0  0  0  0  0  0  0  0  0  0  0
  138.7437   68.7639  223.7006 H   0  0  0  0  0  0  0  0  0  0  0  0
  139.3132   68.2531  226.0444 H   0  0  0  0  0  0  0  0  0  0  0  0
  141.4563   71.1716  228.3814 H   0  0  0  0  0  0  0  0  0  0  0  0
  141.5032   72.7413  226.4180 H   0  0  0  0  0  0  0  0  0  0  0  0
  1  2  2  0
  2  3  1  0
  3  4  1  0
  4  5  1  0
  5  6  2  0
  5  7  1  0
  7  8  1  0
  8  9  1  0
  9 10  1  0
 10 11  1  0
 11 12  1  0
 12 13  1  0
 13 14  2  0
 14 15  1  0
 15 16  2  0
 16 17  1  0
 17 18  2  0
  2 19  1  0
 19 20  2  0
 20 21  1  0
 21 22  2  0
 22 23  1  0
 23 24  2  0
 24 25  1  0
 24 26  1  0
 26 27  2  0
 27 28  1  0
 28 29  2  0
 12  7  1  0
 18 13  1  0
 29 19  1  0
 28 22  1  0
  3 30  1  0
  4 31  1  0
  4 32  1  0
  8 33  1  0
  8 34  1  0
  9 35  1  0
  9 36  1  0
 10 37  1  0
 10 38  1  0
 11 39  1  0
 11 40  1  0
 12 41  1  6
 14 42  1  0
 15 43  1  0
 16 44  1  0
 18 45  1  0
 20 46  1  0
 21 47  1  0
 23 48  1  0
 26 49  1  0
 27 50  1  0
M  END
>  <smiles>  (27) 
O=C(NCC(=O)N1CCCCC1c1cccnc1)c1ccc2cc(Cl)ccc2n1

>  <score_type>  (27) 
oracle

>  <origin>  (27) 
autodockgpu

>  <m_score__min__energy>  (27) 
-8.8599999999999994

>  <m_primary>  (27) 
energy

>  <rmsd>  (27) 
2.388615778415994

>  <m_score__min__rmsd>  (27) 
2.388615778415994

>  <meeko>  (27) 
{"free_energy": -8.47, "intermolecular_energy": -9.96, "internal_energy": -2.02, "cluster_size": 22, "cluster_id": 1, "rank_in_cluster": 5}

>  <energy>  (27) 
-8.28

>  <cluster_rmsd>  (27) 
1.69

>  <cluster>  (27) 
2

$$$$

     RDKit          3D

 50 53  0  0  0  0  0  0  0  0999 V2000
  140.2310   72.2080  220.6220 O   0  0  0  0  0  0  0  0  0  0  0  0
  140.0330   72.6690  221.7750 C   0  0  0  0  0  0  0  0  0  0  0  0
  139.8600   74.0530  222.0500 N   0  0  0  0  0  0  0  0  0  0  0  0
  139.9070   75.0580  220.9550 C   0  0  0  0  0  0  0  0  0  0  0  0
  140.8890   76.0840  221.3160 C   0  0  0  0  0  0  0  0  0  0  0  0
  140.8740   76.4480  222.5570 O   0  0  0  0  0  0  0  0  0  0  0  0
  141.8350   76.7310  220.5170 N   0  0  0  0  0  0  0  0  0  0  0  0
  141.7080   78.1970  220.4060 C   0  0  0  0  0  0  0  0  0  0  0  0
  141.6820   78.6080  218.9620 C   0  0  0  0  0  0  0  0  0  0  0  0
  142.4180   77.7670  218.0010 C   0  0  0  0  0  0  0  0  0  0  0  0
  142.4370   76.2830  218.3010 C   0  0  0  0  0  0  0  0  0  0  0  0
  142.9000   76.1780  219.7460 C   0  0  2  0  0  0  0  0  0  0  0  0
  143.4730   74.9220  220.1470 C   0  0  0  0  0  0  0  0  0  0  0  0
  142.8210   73.7050  220.2020 C   0  0  0  0  0  0  0  0  0  0  0  0
  143.4360   72.5260  220.5460 C   0  0  0  0  0  0  0  0  0  0  0  0
  144.7800   72.5810  220.8500 C   0  0  0  0  0  0  0  0  0  0  0  0
  145.4440   73.7460  220.8060 N   0  0  0  0  0  0  0  0  0  0  0  0
  144.8360   74.8830  220.4700 C   0  0  0  0  0  0  0  0  0  0  0  0
  139.9730   71.7270  222.9130 C   0  0  0  0  0  0  0  0  0  0  0  0
  139.3720   70.4940  222.7710 C   0  0  0  0  0  0  0  0  0  0  0  0
  139.3160   69.6030  223.8460 C   0  0  0  0  0  0  0  0  0  0  0  0
  139.8820   69.9910  225.0650 C   0  0  0  0  0  0  0  0  0  0  0  0
  139.8540   69.1500  226.1590 C   0  0  0  0  0  0  0  0  0  0  0  0
  140.4290   69.5880  227.3340 C   0  0  0  0  0  0  0  0  0  0  0  0
  140.3790   68.4950  228.7160 Cl  0  0  0  0  0  0  0  0  0  0  0  0
  141.0230   70.8290  227.4460 C   0  0  0  0  0  0  0  0  0  0  0  0
  141.0550   71.6820  226.3480 C   0  0  0  0  0  0  0  0  0  0  0  0
  140.4750   71.2310  225.1730 C   0  0  0  0  0  0  0  0  0  0  0  0
  140.5040   72.0490  224.1160 N   0  0  0  0  0  0  0  0  0  0  0  0
  139.7000   74.3470  223.0360 H   0  0  0  0  0  0  0  0  0  0  0  0
  140.2060   74.5708  220.0152 H   0  0  0  0  0  0  0  0  0  0  0  0
  138.9157   75.5138  220.8152 H   0  0  0  0  0  0  0  0  0  0  0  0
  140.7751   78.5186  220.8921 H   0  0  0  0  0  0  0  0  0  0  0  0
  142.5706   78.6700  220.8981 H   0  0  0  0  0  0  0  0  0  0  0  0
  140.6292   78.6272  218.6440 H   0  0  0  0  0  0  0  0  0  0  0  0
  142.1991   79.5786  218.9379 H   0  0  0  0  0  0  0  0  0  0  0  0
  141.9585   77.9050  217.0112 H   0  0  0  0  0  0  0  0  0  0  0  0
  143.4660   78.0961  218.0586 H   0  0  0  0  0  0  0  0  0  0  0  0
  141.4314   75.8525  218.1852 H   0  0  0  0  0  0  0  0  0  0  0  0
  143.0971   75.7318  217.6151 H   0  0  0  0  0  0  0  0  0  0  0  0
  143.8140   76.7621  219.9289 H   0  0  0  0  0  0  0  0  0  0  0  0
  141.7491   73.6789  219.9565 H   0  0  0  0  0  0  0  0  0  0  0  0
  142.8797   71.5776  220.5777 H   0  0  0  0  0  0  0  0  0  0  0  0
  145.3129   71.6607  221.1313 H   0  0  0  0  0  0  0  0  0  0  0  0
  145.4192   75.8154  220.4455 H   0  0  0  0  0  0  0  0  0  0  0  0
  138.9330   70.2095  221.8034 H   0  0  0  0  0  0  0  0  0  0  0  0
  138.8376   68.6186  223.7361 H   0  0  0  0  0  0  0  0  0  0  0  0
  139.3856   68.1567  226.0957 H   0  0  0  0  0  0  0  0  0  0  0  0
  141.4698   71.1424  228.4011 H   0  0  0  0  0  0  0  0  0  0  0  0
  141.5224   72.6758  226.4098 H   0  0  0  0  0  0  0  0  0  0  0  0
  1  2  2  0
  2  3  1  0
  3  4  1  0
  4  5  1  0
  5  6  2  0
  5  7  1  0
  7  8  1  0
  8  9  1  0
  9 10  1  0
 10 11  1  0
 11 12  1  0
 12 13  1  0
 13 14  2  0
 14 15  1  0
 15 16  2  0
 16 17  1  0
 17 18  2  0
  2 19  1  0
 19 20  2  0
 20 21  1  0
 21 22  2  0
 22 23  1  0
 23 24  2  0
 24 25  1  0
 24 26  1  0
 26 27  2  0
 27 28  1  0
 28 29  2  0
 12  7  1  0
 18 13  1  0
 29 19  1  0
 28 22  1  0
  3 30  1  0
  4 31  1  0
  4 32  1  0
  8 33  1  0
  8 34  1  0
  9 35  1  0
  9 36  1  0
 10 37  1  0
 10 38  1  0
 11 39  1  0
 11 40  1  0
 12 41  1  6
 14 42  1  0
 15 43  1  0
 16 44  1  0
 18 45  1  0
 20 46  1  0
 21 47  1  0
 23 48  1  0
 26 49  1  0
 27 50  1  0
M  END
>  <smiles>  (28) 
O=C(NCC(=O)N1CCCCC1c1cccnc1)c1ccc2cc(Cl)ccc2n1

>  <score_type>  (28) 
oracle

>  <origin>  (28) 
autodockgpu

>  <m_score__min__energy>  (28) 
-8.8599999999999994

>  <m_primary>  (28) 
energy

>  <rmsd>  (28) 
2.3759261720072082

>  <m_score__min__rmsd>  (28) 
2.3759261720072082

>  <meeko>  (28) 
{"free_energy": -8.46, "intermolecular_energy": -9.95, "internal_energy": -2.06, "cluster_size": 22, "cluster_id": 1, "rank_in_cluster": 6}

>  <energy>  (28) 
-8.24

>  <cluster_rmsd>  (28) 
1.69

>  <cluster>  (28) 
2

$$$$

     RDKit          3D

 50 53  0  0  0  0  0  0  0  0999 V2000
  140.4880   72.5900  220.8260 O   0  0  0  0  0  0  0  0  0  0  0  0
  140.0870   72.9470  221.9630 C   0  0  0  0  0  0  0  0  0  0  0  0
  139.6440   74.2640  222.2640 N   0  0  0  0  0  0  0  0  0  0  0  0
  139.6310   75.3190  221.2160 C   0  0  0  0  0  0  0  0  0  0  0  0
  138.7650   76.4090  221.6750 C   0  0  0  0  0  0  0  0  0  0  0  0
  138.1680   76.2010  222.8020 O   0  0  0  0  0  0  0  0  0  0  0  0
  138.4860   77.6380  221.0710 N   0  0  0  0  0  0  0  0  0  0  0  0
  137.1600   77.7730  220.4400 C   0  0  0  0  0  0  0  0  0  0  0  0
  137.3060   78.2450  219.0210 C   0  0  0  0  0  0  0  0  0  0  0  0
  138.4630   79.1010  218.7030 C   0  0  0  0  0  0  0  0  0  0  0  0
  139.7340   78.8040  219.4700 C   0  0  0  0  0  0  0  0  0  0  0  0
  139.3170   78.7900  220.9340 C   0  0  2  0  0  0  0  0  0  0  0  0
  140.3570   79.0200  221.9000 C   0  0  0  0  0  0  0  0  0  0  0  0
  141.7030   79.1780  221.6310 C   0  0  0  0  0  0  0  0  0  0  0  0
  142.6450   79.4450  222.5940 C   0  0  0  0  0  0  0  0  0  0  0  0
  142.2030   79.5590  223.8950 C   0  0  0  0  0  0  0  0  0  0  0  0
  140.9040   79.4110  224.1900 N   0  0  0  0  0  0  0  0  0  0  0  0
  139.9980   79.1520  223.2470 C   0  0  0  0  0  0  0  0  0  0  0  0
  140.0710   71.9480  223.0530 C   0  0  0  0  0  0  0  0  0  0  0  0
  139.5710   70.6810  222.8350 C   0  0  0  0  0  0  0  0  0  0  0  0
  139.5560   69.7370  223.8650 C   0  0  0  0  0  0  0  0  0  0  0  0
  140.0600   70.1070  225.1170 C   0  0  0  0  0  0  0  0  0  0  0  0
  140.0680   69.2130  226.1690 C   0  0  0  0  0  0  0  0  0  0  0  0
  140.5770   69.6360  227.3800 C   0  0  0  0  0  0  0  0  0  0  0  0
  140.5770   68.4750  228.7070 Cl  0  0  0  0  0  0  0  0  0  0  0  0
  141.0710   70.9100  227.5680 C   0  0  0  0  0  0  0  0  0  0  0  0
  141.0650   71.8170  226.5120 C   0  0  0  0  0  0  0  0  0  0  0  0
  140.5520   71.3820  225.3000 C   0  0  0  0  0  0  0  0  0  0  0  0
  140.5440   72.2500  224.2850 N   0  0  0  0  0  0  0  0  0  0  0  0
  139.3280   74.4720  223.2330 H   0  0  0  0  0  0  0  0  0  0  0  0
  140.6515   75.6967  221.0550 H   0  0  0  0  0  0  0  0  0  0  0  0
  139.2547   74.9081  220.2675 H   0  0  0  0  0  0  0  0  0  0  0  0
  136.6528   76.7969  220.4479 H   0  0  0  0  0  0  0  0  0  0  0  0
  136.5676   78.5087  221.0037 H   0  0  0  0  0  0  0  0  0  0  0  0
  137.3716   77.3520  218.3821 H   0  0  0  0  0  0  0  0  0  0  0  0
  136.4284   78.8851  218.8475 H   0  0  0  0  0  0  0  0  0  0  0  0
  138.6817   78.9879  217.6309 H   0  0  0  0  0  0  0  0  0  0  0  0
  138.1694   80.1200  218.9952 H   0  0  0  0  0  0  0  0  0  0  0  0
  140.1438   77.8266  219.1754 H   0  0  0  0  0  0  0  0  0  0  0  0
  140.5196   79.5479  219.2714 H   0  0  0  0  0  0  0  0  0  0  0  0
  138.7360   79.6837  221.2056 H   0  0  0  0  0  0  0  0  0  0  0  0
  142.0387   79.0848  220.5876 H   0  0  0  0  0  0  0  0  0  0  0  0
  143.7083   79.5630  222.3379 H   0  0  0  0  0  0  0  0  0  0  0  0
  142.9232   79.7734  224.6983 H   0  0  0  0  0  0  0  0  0  0  0  0
  138.9422   79.0392  223.5342 H   0  0  0  0  0  0  0  0  0  0  0  0
  139.1810   70.4117  221.8424 H   0  0  0  0  0  0  0  0  0  0  0  0
  139.1571   68.7260  223.6956 H   0  0  0  0  0  0  0  0  0  0  0  0
  139.6793   68.1914  226.0453 H   0  0  0  0  0  0  0  0  0  0  0  0
  141.4685   71.2084  228.5493 H   0  0  0  0  0  0  0  0  0  0  0  0
  141.4523   72.8392  226.6346 H   0  0  0  0  0  0  0  0  0  0  0  0
  1  2  2  0
  2  3  1  0
  3  4  1  0
  4  5  1  0
  5  6  2  0
  5  7  1  0
  7  8  1  0
  8  9  1  0
  9 10  1  0
 10 11  1  0
 11 12  1  0
 12 13  1  0
 13 14  2  0
 14 15  1  0
 15 16  2  0
 16 17  1  0
 17 18  2  0
  2 19  1  0
 19 20  2  0
 20 21  1  0
 21 22  2  0
 22 23  1  0
 23 24  2  0
 24 25  1  0
 24 26  1  0
 26 27  2  0
 27 28  1  0
 28 29  2  0
 12  7  1  0
 18 13  1  0
 29 19  1  0
 28 22  1  0
  3 30  1  0
  4 31  1  0
  4 32  1  0
  8 33  1  0
  8 34  1  0
  9 35  1  0
  9 36  1  0
 10 37  1  0
 10 38  1  0
 11 39  1  0
 11 40  1  0
 12 41  1  6
 14 42  1  0
 15 43  1  0
 16 44  1  0
 18 45  1  0
 20 46  1  0
 21 47  1  0
 23 48  1  0
 26 49  1  0
 27 50  1  0
M  END
>  <smiles>  (29) 
O=C(NCC(=O)N1CCCCC1c1cccnc1)c1ccc2cc(Cl)ccc2n1

>  <score_type>  (29) 
oracle

>  <origin>  (29) 
autodockgpu

>  <m_score__min__energy>  (29) 
-8.8599999999999994

>  <m_primary>  (29) 
energy

>  <rmsd>  (29) 
2.5290364988507528

>  <m_score__min__rmsd>  (29) 
2.5290364988507528

>  <meeko>  (29) 
{"free_energy": -7.65, "intermolecular_energy": -9.14, "internal_energy": -1.93, "cluster_size": 15, "cluster_id": 2, "rank_in_cluster": 14}

>  <energy>  (29) 
-8.24

>  <cluster_rmsd>  (29) 
1.73

>  <cluster>  (29) 
2

$$$$

     RDKit          3D

 50 53  0  0  0  0  0  0  0  0999 V2000
  140.1490   72.3340  220.6540 O   0  0  0  0  0  0  0  0  0  0  0  0
  139.9480   72.7650  221.8180 C   0  0  0  0  0  0  0  0  0  0  0  0
  139.7330   74.1370  222.1220 N   0  0  0  0  0  0  0  0  0  0  0  0
  139.7350   75.1640  221.0470 C   0  0  0  0  0  0  0  0  0  0  0  0
  140.8800   76.0520  221.2640 C   0  0  0  0  0  0  0  0  0  0  0  0
  141.1140   76.3580  222.4970 O   0  0  0  0  0  0  0  0  0  0  0  0
  141.7540   76.6210  220.3330 N   0  0  0  0  0  0  0  0  0  0  0  0
  141.5710   78.0580  220.0530 C   0  0  0  0  0  0  0  0  0  0  0  0
  141.4430   78.2870  218.5740 C   0  0  0  0  0  0  0  0  0  0  0  0
  142.1490   77.3540  217.6770 C   0  0  0  0  0  0  0  0  0  0  0  0
  142.2360   75.9200  218.1530 C   0  0  0  0  0  0  0  0  0  0  0  0
  142.7890   76.0050  219.5680 C   0  0  2  0  0  0  0  0  0  0  0  0
  143.4280   74.8240  220.0800 C   0  0  0  0  0  0  0  0  0  0  0  0
  142.8510   73.5770  220.2220 C   0  0  0  0  0  0  0  0  0  0  0  0
  143.5280   72.4710  220.6730 C   0  0  0  0  0  0  0  0  0  0  0  0
  144.8580   72.6340  220.9970 C   0  0  0  0  0  0  0  0  0  0  0  0
  145.4500   73.8310  220.8700 N   0  0  0  0  0  0  0  0  0  0  0  0
  144.7820   74.8970  220.4320 C   0  0  0  0  0  0  0  0  0  0  0  0
  139.9320   71.7990  222.9370 C   0  0  0  0  0  0  0  0  0  0  0  0
  139.4030   70.5370  222.7660 C   0  0  0  0  0  0  0  0  0  0  0  0
  139.3880   69.6240  223.8230 C   0  0  0  0  0  0  0  0  0  0  0  0
  139.9210   70.0200  225.0550 C   0  0  0  0  0  0  0  0  0  0  0  0
  139.9300   69.1580  226.1330 C   0  0  0  0  0  0  0  0  0  0  0  0
  140.4690   69.6050  227.3210 C   0  0  0  0  0  0  0  0  0  0  0  0
  140.4690   68.4840  228.6820 Cl  0  0  0  0  0  0  0  0  0  0  0  0
  140.9910   70.8740  227.4630 C   0  0  0  0  0  0  0  0  0  0  0  0
  140.9850   71.7490  226.3810 C   0  0  0  0  0  0  0  0  0  0  0  0
  140.4410   71.2890  225.1920 C   0  0  0  0  0  0  0  0  0  0  0  0
  140.4330   72.1270  224.1510 N   0  0  0  0  0  0  0  0  0  0  0  0
  139.5740   74.4060  223.1150 H   0  0  0  0  0  0  0  0  0  0  0  0
  139.8235   74.6754  220.0655 H   0  0  0  0  0  0  0  0  0  0  0  0
  138.7980   75.7398  221.0700 H   0  0  0  0  0  0  0  0  0  0  0  0
  140.6592   78.4127  220.5557 H   0  0  0  0  0  0  0  0  0  0  0  0
  142.4456   78.6104  220.4270 H   0  0  0  0  0  0  0  0  0  0  0  0
  140.3728   78.2378  218.3244 H   0  0  0  0  0  0  0  0  0  0  0  0
  141.9228   79.2612  218.3988 H   0  0  0  0  0  0  0  0  0  0  0  0
  141.6270   77.3569  216.7087 H   0  0  0  0  0  0  0  0  0  0  0  0
  143.1868   77.7154  217.6276 H   0  0  0  0  0  0  0  0  0  0  0  0
  141.2402   75.4527  218.1550 H   0  0  0  0  0  0  0  0  0  0  0  0
  142.8719   75.3062  217.4981 H   0  0  0  0  0  0  0  0  0  0  0  0
  143.6924   76.6304  219.6206 H   0  0  0  0  0  0  0  0  0  0  0  0
  141.7890   73.4637  219.9588 H   0  0  0  0  0  0  0  0  0  0  0  0
  143.0298   71.4953  220.7717 H   0  0  0  0  0  0  0  0  0  0  0  0
  145.4391   71.7747  221.3630 H   0  0  0  0  0  0  0  0  0  0  0  0
  145.3072   75.8596  220.3444 H   0  0  0  0  0  0  0  0  0  0  0  0
  138.9893   70.2469  221.7889 H   0  0  0  0  0  0  0  0  0  0  0  0
  138.9668   68.6166  223.6901 H   0  0  0  0  0  0  0  0  0  0  0  0
  139.5182   68.1416  226.0468 H   0  0  0  0  0  0  0  0  0  0  0  0
  141.4106   71.1932  228.4284 H   0  0  0  0  0  0  0  0  0  0  0  0
  141.3959   72.7658  226.4659 H   0  0  0  0  0  0  0  0  0  0  0  0
  1  2  2  0
  2  3  1  0
  3  4  1  0
  4  5  1  0
  5  6  2  0
  5  7  1  0
  7  8  1  0
  8  9  1  0
  9 10  1  0
 10 11  1  0
 11 12  1  0
 12 13  1  0
 13 14  2  0
 14 15  1  0
 15 16  2  0
 16 17  1  0
 17 18  2  0
  2 19  1  0
 19 20  2  0
 20 21  1  0
 21 22  2  0
 22 23  1  0
 23 24  2  0
 24 25  1  0
 24 26  1  0
 26 27  2  0
 27 28  1  0
 28 29  2  0
 12  7  1  0
 18 13  1  0
 29 19  1  0
 28 22  1  0
  3 30  1  0
  4 31  1  0
  4 32  1  0
  8 33  1  0
  8 34  1  0
  9 35  1  0
  9 36  1  0
 10 37  1  0
 10 38  1  0
 11 39  1  0
 11 40  1  0
 12 41  1  6
 14 42  1  0
 15 43  1  0
 16 44  1  0
 18 45  1  0
 20 46  1  0
 21 47  1  0
 23 48  1  0
 26 49  1  0
 27 50  1  0
M  END
>  <smiles>  (30) 
O=C(NCC(=O)N1CCCCC1c1cccnc1)c1ccc2cc(Cl)ccc2n1

>  <score_type>  (30) 
oracle

>  <origin>  (30) 
autodockgpu

>  <m_score__min__energy>  (30) 
-8.8599999999999994

>  <m_primary>  (30) 
energy

>  <rmsd>  (30) 
2.275158570363528

>  <m_score__min__rmsd>  (30) 
2.275158570363528

>  <meeko>  (30) 
{"free_energy": -8.3, "intermolecular_energy": -9.8, "internal_energy": -2.04, "cluster_size": 22, "cluster_id": 1, "rank_in_cluster": 13}

>  <energy>  (30) 
-8.2

>  <cluster_rmsd>  (30) 
1.81

>  <cluster>  (30) 
2

$$$$

     RDKit          3D

 50 53  0  0  0  0  0  0  0  0999 V2000
  140.1800   72.2160  220.6100 O   0  0  0  0  0  0  0  0  0  0  0  0
  140.0010   72.6750  221.7680 C   0  0  0  0  0  0  0  0  0  0  0  0
  139.8360   74.0590  222.0490 N   0  0  0  0  0  0  0  0  0  0  0  0
  139.8700   75.0660  220.9560 C   0  0  0  0  0  0  0  0  0  0  0  0
  140.9420   76.0220  221.2470 C   0  0  0  0  0  0  0  0  0  0  0  0
  141.0760   76.3380  222.4930 O   0  0  0  0  0  0  0  0  0  0  0  0
  141.8390   76.6460  220.3750 N   0  0  0  0  0  0  0  0  0  0  0  0
  141.7110   78.1090  220.2380 C   0  0  0  0  0  0  0  0  0  0  0  0
  141.5960   78.4870  218.7890 C   0  0  0  0  0  0  0  0  0  0  0  0
  142.2670   77.6210  217.8040 C   0  0  0  0  0  0  0  0  0  0  0  0
  142.2990   76.1440  218.1360 C   0  0  0  0  0  0  0  0  0  0  0  0
  142.8510   76.0690  219.5520 C   0  0  2  0  0  0  0  0  0  0  0  0
  143.4440   74.8200  219.9450 C   0  0  0  0  0  0  0  0  0  0  0  0
  144.7080   74.6430  220.4740 C   0  0  0  0  0  0  0  0  0  0  0  0
  145.2020   73.4280  220.8780 C   0  0  0  0  0  0  0  0  0  0  0  0
  144.3750   72.3330  220.7380 C   0  0  0  0  0  0  0  0  0  0  0  0
  143.1420   72.4680  220.2290 N   0  0  0  0  0  0  0  0  0  0  0  0
  142.6740   73.6540  219.8410 C   0  0  0  0  0  0  0  0  0  0  0  0
  139.9550   71.7300  222.9040 C   0  0  0  0  0  0  0  0  0  0  0  0
  139.3770   70.4860  222.7570 C   0  0  0  0  0  0  0  0  0  0  0  0
  139.3330   69.5920  223.8300 C   0  0  0  0  0  0  0  0  0  0  0  0
  139.8900   69.9880  225.0520 C   0  0  0  0  0  0  0  0  0  0  0  0
  139.8740   69.1450  226.1440 C   0  0  0  0  0  0  0  0  0  0  0  0
  140.4380   69.5910  227.3210 C   0  0  0  0  0  0  0  0  0  0  0  0
  140.4050   68.4940  228.7010 Cl  0  0  0  0  0  0  0  0  0  0  0  0
  141.0100   70.8410  227.4370 C   0  0  0  0  0  0  0  0  0  0  0  0
  141.0300   71.6970  226.3410 C   0  0  0  0  0  0  0  0  0  0  0  0
  140.4600   71.2390  225.1630 C   0  0  0  0  0  0  0  0  0  0  0  0
  140.4770   72.0590  224.1080 N   0  0  0  0  0  0  0  0  0  0  0  0
  139.6920   74.3500  223.0380 H   0  0  0  0  0  0  0  0  0  0  0  0
  140.0669   74.5668  219.9958 H   0  0  0  0  0  0  0  0  0  0  0  0
  138.9037   75.5874  220.8897 H   0  0  0  0  0  0  0  0  0  0  0  0
  140.8117   78.4467  220.7739 H   0  0  0  0  0  0  0  0  0  0  0  0
  142.6047   78.5886  220.6638 H   0  0  0  0  0  0  0  0  0  0  0  0
  140.5254   78.5042  218.5371 H   0  0  0  0  0  0  0  0  0  0  0  0
  142.1140   79.4542  218.7101 H   0  0  0  0  0  0  0  0  0  0  0  0
  141.7471   77.7391  216.8418 H   0  0  0  0  0  0  0  0  0  0  0  0
  143.3179   77.9458  217.7888 H   0  0  0  0  0  0  0  0  0  0  0  0
  141.2865   75.7163  218.0929 H   0  0  0  0  0  0  0  0  0  0  0  0
  142.9130   75.5741  217.4231 H   0  0  0  0  0  0  0  0  0  0  0  0
  143.7771   76.6517  219.6645 H   0  0  0  0  0  0  0  0  0  0  0  0
  145.3553   75.5263  220.5772 H   0  0  0  0  0  0  0  0  0  0  0  0
  146.2149   73.3315  221.2959 H   0  0  0  0  0  0  0  0  0  0  0  0
  144.7306   71.3390  221.0471 H   0  0  0  0  0  0  0  0  0  0  0  0
  141.6565   73.7192  219.4283 H   0  0  0  0  0  0  0  0  0  0  0  0
  138.9472   70.1955  221.7870 H   0  0  0  0  0  0  0  0  0  0  0  0
  138.8714   68.5999  223.7172 H   0  0  0  0  0  0  0  0  0  0  0  0
  139.4234   68.1437  226.0777 H   0  0  0  0  0  0  0  0  0  0  0  0
  141.4491   71.1599  228.3938 H   0  0  0  0  0  0  0  0  0  0  0  0
  141.4805   72.6984  226.4062 H   0  0  0  0  0  0  0  0  0  0  0  0
  1  2  2  0
  2  3  1  0
  3  4  1  0
  4  5  1  0
  5  6  2  0
  5  7  1  0
  7  8  1  0
  8  9  1  0
  9 10  1  0
 10 11  1  0
 11 12  1  0
 12 13  1  0
 13 14  2  0
 14 15  1  0
 15 16  2  0
 16 17  1  0
 17 18  2  0
  2 19  1  0
 19 20  2  0
 20 21  1  0
 21 22  2  0
 22 23  1  0
 23 24  2  0
 24 25  1  0
 24 26  1  0
 26 27  2  0
 27 28  1  0
 28 29  2  0
 12  7  1  0
 18 13  1  0
 29 19  1  0
 28 22  1  0
  3 30  1  0
  4 31  1  0
  4 32  1  0
  8 33  1  0
  8 34  1  0
  9 35  1  0
  9 36  1  0
 10 37  1  0
 10 38  1  0
 11 39  1  0
 11 40  1  0
 12 41  1  6
 14 42  1  0
 15 43  1  0
 16 44  1  0
 18 45  1  0
 20 46  1  0
 21 47  1  0
 23 48  1  0
 26 49  1  0
 27 50  1  0
M  END
>  <smiles>  (31) 
O=C(NCC(=O)N1CCCCC1c1cccnc1)c1ccc2cc(Cl)ccc2n1

>  <score_type>  (31) 
oracle

>  <origin>  (31) 
autodockgpu

>  <m_score__min__energy>  (31) 
-8.8599999999999994

>  <m_primary>  (31) 
energy

>  <rmsd>  (31) 
2.3308580132046326

>  <m_score__min__rmsd>  (31) 
2.3308580132046326

>  <meeko>  (31) 
{"free_energy": -8.36, "intermolecular_energy": -9.86, "internal_energy": -2.05, "cluster_size": 22, "cluster_id": 1, "rank_in_cluster": 9}

>  <energy>  (31) 
-8.12

>  <cluster_rmsd>  (31) 
1.83

>  <cluster>  (31) 
2

$$$$

     RDKit          3D

 50 53  0  0  0  0  0  0  0  0999 V2000
  133.9090   69.2940  226.4920 O   0  0  0  0  0  0  0  0  0  0  0  0
  134.2840   70.3810  225.9830 C   0  0  0  0  0  0  0  0  0  0  0  0
  135.3120   70.4800  225.0060 N   0  0  0  0  0  0  0  0  0  0  0  0
  136.0180   69.2650  224.5210 C   0  0  0  0  0  0  0  0  0  0  0  0
  137.4610   69.5200  224.5810 C   0  0  0  0  0  0  0  0  0  0  0  0
  138.1840   68.5080  224.9330 O   0  0  0  0  0  0  0  0  0  0  0  0
  138.1690   70.6960  224.3210 N   0  0  0  0  0  0  0  0  0  0  0  0
  137.4980   71.6890  223.4610 C   0  0  0  0  0  0  0  0  0  0  0  0
  138.3970   72.0830  222.3240 C   0  0  0  0  0  0  0  0  0  0  0  0
  139.8510   72.0420  222.5590 C   0  0  0  0  0  0  0  0  0  0  0  0
  140.3390   70.9470  223.4830 C   0  0  0  0  0  0  0  0  0  0  0  0
  139.4810   71.0730  224.7340 C   0  0  2  0  0  0  0  0  0  0  0  0
  140.0210   70.5140  225.9420 C   0  0  0  0  0  0  0  0  0  0  0  0
  139.9700   71.0800  227.2020 C   0  0  0  0  0  0  0  0  0  0  0  0
  140.4620   70.4730  228.3310 C   0  0  0  0  0  0  0  0  0  0  0  0
  141.0350   69.2290  228.1790 C   0  0  0  0  0  0  0  0  0  0  0  0
  141.1010   68.6490  226.9710 N   0  0  0  0  0  0  0  0  0  0  0  0
  140.6200   69.2480  225.8820 C   0  0  0  0  0  0  0  0  0  0  0  0
  133.6230   71.6300  226.4180 C   0  0  0  0  0  0  0  0  0  0  0  0
  132.4610   71.5870  227.1600 C   0  0  0  0  0  0  0  0  0  0  0  0
  131.8370   72.7670  227.5710 C   0  0  0  0  0  0  0  0  0  0  0  0
  132.4190   73.9890  227.2160 C   0  0  0  0  0  0  0  0  0  0  0  0
  131.8430   75.1850  227.5960 C   0  0  0  0  0  0  0  0  0  0  0  0
  132.4630   76.3570  227.2160 C   0  0  0  0  0  0  0  0  0  0  0  0
  131.7080   77.8700  227.7150 Cl  0  0  0  0  0  0  0  0  0  0  0  0
  133.6270   76.3690  226.4740 C   0  0  0  0  0  0  0  0  0  0  0  0
  134.2120   75.1680  226.0870 C   0  0  0  0  0  0  0  0  0  0  0  0
  133.5810   73.9960  226.4750 C   0  0  0  0  0  0  0  0  0  0  0  0
  134.1410   72.8410  226.1040 N   0  0  0  0  0  0  0  0  0  0  0  0
  135.5580   71.4220  224.6390 H   0  0  0  0  0  0  0  0  0  0  0  0
  135.7645   68.4066  225.1605 H   0  0  0  0  0  0  0  0  0  0  0  0
  135.7149   69.0355  223.4888 H   0  0  0  0  0  0  0  0  0  0  0  0
  136.5719   71.2535  223.0577 H   0  0  0  0  0  0  0  0  0  0  0  0
  137.2640   72.5819  224.0593 H   0  0  0  0  0  0  0  0  0  0  0  0
  138.1802   71.4073  221.4835 H   0  0  0  0  0  0  0  0  0  0  0  0
  138.1725   73.1449  222.1451 H   0  0  0  0  0  0  0  0  0  0  0  0
  140.3463   71.9080  221.5860 H   0  0  0  0  0  0  0  0  0  0  0  0
  140.0990   72.9888  223.0612 H   0  0  0  0  0  0  0  0  0  0  0  0
  140.2016   69.9596  223.0182 H   0  0  0  0  0  0  0  0  0  0  0  0
  141.4116   71.0440  223.7071 H   0  0  0  0  0  0  0  0  0  0  0  0
  139.4534   72.1052  225.1131 H   0  0  0  0  0  0  0  0  0  0  0  0
  139.5090   72.0733  227.3061 H   0  0  0  0  0  0  0  0  0  0  0  0
  140.4013   70.9594  229.3157 H   0  0  0  0  0  0  0  0  0  0  0  0
  141.4424   68.7062  229.0569 H   0  0  0  0  0  0  0  0  0  0  0  0
  140.6949   68.7360  224.9113 H   0  0  0  0  0  0  0  0  0  0  0  0
  132.0221   70.6152  227.4303 H   0  0  0  0  0  0  0  0  0  0  0  0
  130.9088   72.7364  228.1605 H   0  0  0  0  0  0  0  0  0  0  0  0
  130.9147   75.2026  228.1859 H   0  0  0  0  0  0  0  0  0  0  0  0
  134.0903   77.3253  226.1897 H   0  0  0  0  0  0  0  0  0  0  0  0
  135.1395   75.1487  225.4959 H   0  0  0  0  0  0  0  0  0  0  0  0
  1  2  2  0
  2  3  1  0
  3  4  1  0
  4  5  1  0
  5  6  2  0
  5  7  1  0
  7  8  1  0
  8  9  1  0
  9 10  1  0
 10 11  1  0
 11 12  1  0
 12 13  1  0
 13 14  2  0
 14 15  1  0
 15 16  2  0
 16 17  1  0
 17 18  2  0
  2 19  1  0
 19 20  2  0
 20 21  1  0
 21 22  2  0
 22 23  1  0
 23 24  2  0
 24 25  1  0
 24 26  1  0
 26 27  2  0
 27 28  1  0
 28 29  2  0
 12  7  1  0
 18 13  1  0
 29 19  1  0
 28 22  1  0
  3 30  1  0
  4 31  1  0
  4 32  1  0
  8 33  1  0
  8 34  1  0
  9 35  1  0
  9 36  1  0
 10 37  1  0
 10 38  1  0
 11 39  1  0
 11 40  1  0
 12 41  1  1
 14 42  1  0
 15 43  1  0
 16 44  1  0
 18 45  1  0
 20 46  1  0
 21 47  1  0
 23 48  1  0
 26 49  1  0
 27 50  1  0
M  END
>  <smiles>  (32) 
O=C(NCC(=O)N1CCCCC1c1cccnc1)c1ccc2cc(Cl)ccc2n1

>  <score_type>  (32) 
oracle

>  <origin>  (32) 
autodockgpu

>  <m_score__min__energy>  (32) 
-8.8599999999999994

>  <m_primary>  (32) 
energy

>  <rmsd>  (32) 
7.780452009416089

>  <m_score__min__rmsd>  (32) 
7.780452009416089

>  <meeko>  (32) 
{"free_energy": -8.34, "intermolecular_energy": -9.83, "internal_energy": -1.46, "cluster_size": 8, "cluster_id": 3, "rank_in_cluster": 5}

>  <energy>  (32) 
-8.11

>  <cluster_rmsd>  (32) 
1.77

>  <cluster>  (32) 
2

$$$$

     RDKit          3D

 50 53  0  0  0  0  0  0  0  0999 V2000
  138.6770   71.6130  221.0090 O   0  0  0  0  0  0  0  0  0  0  0  0
  139.0630   72.0880  222.1080 C   0  0  0  0  0  0  0  0  0  0  0  0
  139.2660   73.4770  222.3360 N   0  0  0  0  0  0  0  0  0  0  0  0
  139.0260   74.4680  221.2540 C   0  0  0  0  0  0  0  0  0  0  0  0
  140.2740   75.1970  221.0140 C   0  0  0  0  0  0  0  0  0  0  0  0
  141.2550   74.8820  221.7960 O   0  0  0  0  0  0  0  0  0  0  0  0
  140.5610   76.1850  220.0690 N   0  0  0  0  0  0  0  0  0  0  0  0
  140.2760   75.8500  218.6610 C   0  0  0  0  0  0  0  0  0  0  0  0
  141.4910   76.0990  217.8120 C   0  0  0  0  0  0  0  0  0  0  0  0
  142.4100   77.1690  218.2370 C   0  0  0  0  0  0  0  0  0  0  0  0
  142.5560   77.3600  219.7310 C   0  0  0  0  0  0  0  0  0  0  0  0
  141.1330   77.4790  220.2560 C   0  0  2  0  0  0  0  0  0  0  0  0
  140.9680   78.1390  221.5220 C   0  0  0  0  0  0  0  0  0  0  0  0
  141.9650   78.7300  222.2740 C   0  0  0  0  0  0  0  0  0  0  0  0
  141.7390   79.3910  223.4550 C   0  0  0  0  0  0  0  0  0  0  0  0
  140.4360   79.4590  223.9000 C   0  0  0  0  0  0  0  0  0  0  0  0
  139.4430   78.8980  223.1950 N   0  0  0  0  0  0  0  0  0  0  0  0
  139.6750   78.2580  222.0490 C   0  0  0  0  0  0  0  0  0  0  0  0
  139.3210   71.1600  223.2290 C   0  0  0  0  0  0  0  0  0  0  0  0
  138.9500   69.8350  223.1410 C   0  0  0  0  0  0  0  0  0  0  0  0
  139.1940   68.9570  224.2000 C   0  0  0  0  0  0  0  0  0  0  0  0
  139.8220   69.4540  225.3480 C   0  0  0  0  0  0  0  0  0  0  0  0
  140.0860   68.6310  226.4240 C   0  0  0  0  0  0  0  0  0  0  0  0
  140.7080   69.1780  227.5270 C   0  0  0  0  0  0  0  0  0  0  0  0
  141.0350   68.1050  228.8870 Cl  0  0  0  0  0  0  0  0  0  0  0  0
  141.0680   70.5090  227.5860 C   0  0  0  0  0  0  0  0  0  0  0  0
  140.8040   71.3450  226.5050 C   0  0  0  0  0  0  0  0  0  0  0  0
  140.1800   70.7840  225.4020 C   0  0  0  0  0  0  0  0  0  0  0  0
  139.9250   71.5850  224.3630 N   0  0  0  0  0  0  0  0  0  0  0  0
  139.5880   73.7830  223.2770 H   0  0  0  0  0  0  0  0  0  0  0  0
  138.7161   73.9483  220.3354 H   0  0  0  0  0  0  0  0  0  0  0  0
  138.2293   75.1666  221.5493 H   0  0  0  0  0  0  0  0  0  0  0  0
  139.9942   74.7891  218.5898 H   0  0  0  0  0  0  0  0  0  0  0  0
  139.4511   76.4827  218.3014 H   0  0  0  0  0  0  0  0  0  0  0  0
  142.0678   75.1629  217.7795 H   0  0  0  0  0  0  0  0  0  0  0  0
  141.0922   76.4397  216.8451 H   0  0  0  0  0  0  0  0  0  0  0  0
  143.4052   76.9409  217.8275 H   0  0  0  0  0  0  0  0  0  0  0  0
  141.9727   78.1047  217.8586 H   0  0  0  0  0  0  0  0  0  0  0  0
  143.0634   76.4951  220.1832 H   0  0  0  0  0  0  0  0  0  0  0  0
  143.1613   78.2452  219.9763 H   0  0  0  0  0  0  0  0  0  0  0  0
  140.5450   78.2156  219.6889 H   0  0  0  0  0  0  0  0  0  0  0  0
  142.9993   78.6670  221.9048 H   0  0  0  0  0  0  0  0  0  0  0  0
  142.5630   79.8475  224.0229 H   0  0  0  0  0  0  0  0  0  0  0  0
  140.2088   79.9785  224.8426 H   0  0  0  0  0  0  0  0  0  0  0  0
  138.8304   77.8121  221.5033 H   0  0  0  0  0  0  0  0  0  0  0  0
  138.4577   69.4660  222.2292 H   0  0  0  0  0  0  0  0  0  0  0  0
  138.8993   67.8993  224.1332 H   0  0  0  0  0  0  0  0  0  0  0  0
  139.8078   67.5670  226.4026 H   0  0  0  0  0  0  0  0  0  0  0  0
  141.5619   70.9078  228.4843 H   0  0  0  0  0  0  0  0  0  0  0  0
  141.0799   72.4096  226.5253 H   0  0  0  0  0  0  0  0  0  0  0  0
  1  2  2  0
  2  3  1  0
  3  4  1  0
  4  5  1  0
  5  6  2  0
  5  7  1  0
  7  8  1  0
  8  9  1  0
  9 10  1  0
 10 11  1  0
 11 12  1  0
 12 13  1  0
 13 14  2  0
 14 15  1  0
 15 16  2  0
 16 17  1  0
 17 18  2  0
  2 19  1  0
 19 20  2  0
 20 21  1  0
 21 22  2  0
 22 23  1  0
 23 24  2  0
 24 25  1  0
 24 26  1  0
 26 27  2  0
 27 28  1  0
 28 29  2  0
 12  7  1  0
 18 13  1  0
 29 19  1  0
 28 22  1  0
  3 30  1  0
  4 31  1  0
  4 32  1  0
  8 33  1  0
  8 34  1  0
  9 35  1  0
  9 36  1  0
 10 37  1  0
 10 38  1  0
 11 39  1  0
 11 40  1  0
 12 41  1  6
 14 42  1  0
 15 43  1  0
 16 44  1  0
 18 45  1  0
 20 46  1  0
 21 47  1  0
 23 48  1  0
 26 49  1  0
 27 50  1  0
M  END
>  <smiles>  (33) 
O=C(NCC(=O)N1CCCCC1c1cccnc1)c1ccc2cc(Cl)ccc2n1

>  <score_type>  (33) 
oracle

>  <origin>  (33) 
autodockgpu

>  <m_score__min__energy>  (33) 
-8.8599999999999994

>  <m_primary>  (33) 
energy

>  <rmsd>  (33) 
1.3635101537512626

>  <m_score__min__rmsd>  (33) 
1.3635101537512626

>  <meeko>  (33) 
{"free_energy": -8.12, "intermolecular_energy": -9.61, "internal_energy": -1.8, "cluster_size": 15, "cluster_id": 2, "rank_in_cluster": 9}

>  <energy>  (33) 
-8.03

>  <cluster_rmsd>  (33) 
1.77

>  <cluster>  (33) 
2

$$$$

     RDKit          3D

 50 53  0  0  0  0  0  0  0  0999 V2000
  140.1260   72.1640  220.7800 O   0  0  0  0  0  0  0  0  0  0  0  0
  139.6160   72.4710  221.8880 C   0  0  0  0  0  0  0  0  0  0  0  0
  138.9360   73.6960  222.1290 N   0  0  0  0  0  0  0  0  0  0  0  0
  138.7880   74.7080  221.0500 C   0  0  0  0  0  0  0  0  0  0  0  0
  140.0210   75.4980  220.9910 C   0  0  0  0  0  0  0  0  0  0  0  0
  140.8510   75.2970  221.9620 O   0  0  0  0  0  0  0  0  0  0  0  0
  140.4300   76.4400  220.0430 N   0  0  0  0  0  0  0  0  0  0  0  0
  140.0950   76.1450  218.6380 C   0  0  0  0  0  0  0  0  0  0  0  0
  141.3260   76.2310  217.7810 C   0  0  0  0  0  0  0  0  0  0  0  0
  142.3830   77.1690  218.1990 C   0  0  0  0  0  0  0  0  0  0  0  0
  142.5620   77.3380  219.6930 C   0  0  0  0  0  0  0  0  0  0  0  0
  141.1700   77.6450  220.2260 C   0  0  2  0  0  0  0  0  0  0  0  0
  141.1030   78.3220  221.4930 C   0  0  0  0  0  0  0  0  0  0  0  0
  142.1370   78.9880  222.1210 C   0  0  0  0  0  0  0  0  0  0  0  0
  141.9990   79.6600  223.3110 C   0  0  0  0  0  0  0  0  0  0  0  0
  140.7500   79.6580  223.8950 C   0  0  0  0  0  0  0  0  0  0  0  0
  139.7240   79.0210  223.3120 N   0  0  0  0  0  0  0  0  0  0  0  0
  139.8700   78.3730  222.1570 C   0  0  0  0  0  0  0  0  0  0  0  0
  139.7240   71.5100  223.0070 C   0  0  0  0  0  0  0  0  0  0  0  0
  139.3090   70.2040  222.8510 C   0  0  0  0  0  0  0  0  0  0  0  0
  139.4110   69.2960  223.9080 C   0  0  0  0  0  0  0  0  0  0  0  0
  139.9430   69.7420  225.1230 C   0  0  0  0  0  0  0  0  0  0  0  0
  140.0660   68.8870  226.1990 C   0  0  0  0  0  0  0  0  0  0  0  0
  140.5990   69.3840  227.3700 C   0  0  0  0  0  0  0  0  0  0  0  0
  140.7450   68.2710  228.7300 Cl  0  0  0  0  0  0  0  0  0  0  0  0
  141.0060   70.6970  227.4960 C   0  0  0  0  0  0  0  0  0  0  0  0
  140.8840   71.5650  226.4160 C   0  0  0  0  0  0  0  0  0  0  0  0
  140.3490   71.0540  225.2440 C   0  0  0  0  0  0  0  0  0  0  0  0
  140.2300   71.8860  224.2040 N   0  0  0  0  0  0  0  0  0  0  0  0
  138.5430   73.8670  223.0780 H   0  0  0  0  0  0  0  0  0  0  0  0
  138.6224   74.2036  220.0866 H   0  0  0  0  0  0  0  0  0  0  0  0
  137.9276   75.3613  221.2572 H   0  0  0  0  0  0  0  0  0  0  0  0
  139.6753   75.1305  218.5700 H   0  0  0  0  0  0  0  0  0  0  0  0
  139.3588   76.8811  218.2828 H   0  0  0  0  0  0  0  0  0  0  0  0
  141.7727   75.2265  217.7446 H   0  0  0  0  0  0  0  0  0  0  0  0
  140.9691   76.6231  216.8172 H   0  0  0  0  0  0  0  0  0  0  0  0
  143.3362   76.8101  217.7835 H   0  0  0  0  0  0  0  0  0  0  0  0
  142.0732   78.1549  217.8222 H   0  0  0  0  0  0  0  0  0  0  0  0
  142.9524   76.4130  220.1424 H   0  0  0  0  0  0  0  0  0  0  0  0
  143.2812   78.1344  219.9348 H   0  0  0  0  0  0  0  0  0  0  0  0
  140.6806   78.4526  219.6618 H   0  0  0  0  0  0  0  0  0  0  0  0
  143.1268   78.9799  221.6413 H   0  0  0  0  0  0  0  0  0  0  0  0
  142.8493   80.1781  223.7785 H   0  0  0  0  0  0  0  0  0  0  0  0
  140.5936   80.1840  224.8484 H   0  0  0  0  0  0  0  0  0  0  0  0
  139.0008   77.8653  221.7135 H   0  0  0  0  0  0  0  0  0  0  0  0
  138.8945   69.8747  221.8868 H   0  0  0  0  0  0  0  0  0  0  0  0
  139.0805   68.2537  223.7878 H   0  0  0  0  0  0  0  0  0  0  0  0
  139.7474   67.8368  226.1248 H   0  0  0  0  0  0  0  0  0  0  0  0
  141.4255   71.0557  228.4475 H   0  0  0  0  0  0  0  0  0  0  0  0
  141.1999   72.6161  226.4892 H   0  0  0  0  0  0  0  0  0  0  0  0
  1  2  2  0
  2  3  1  0
  3  4  1  0
  4  5  1  0
  5  6  2  0
  5  7  1  0
  7  8  1  0
  8  9  1  0
  9 10  1  0
 10 11  1  0
 11 12  1  0
 12 13  1  0
 13 14  2  0
 14 15  1  0
 15 16  2  0
 16 17  1  0
 17 18  2  0
  2 19  1  0
 19 20  2  0
 20 21  1  0
 21 22  2  0
 22 23  1  0
 23 24  2  0
 24 25  1  0
 24 26  1  0
 26 27  2  0
 27 28  1  0
 28 29  2  0
 12  7  1  0
 18 13  1  0
 29 19  1  0
 28 22  1  0
  3 30  1  0
  4 31  1  0
  4 32  1  0
  8 33  1  0
  8 34  1  0
  9 35  1  0
  9 36  1  0
 10 37  1  0
 10 38  1  0
 11 39  1  0
 11 40  1  0
 12 41  1  6
 14 42  1  0
 15 43  1  0
 16 44  1  0
 18 45  1  0
 20 46  1  0
 21 47  1  0
 23 48  1  0
 26 49  1  0
 27 50  1  0
M  END
>  <smiles>  (34) 
O=C(NCC(=O)N1CCCCC1c1cccnc1)c1ccc2cc(Cl)ccc2n1

>  <score_type>  (34) 
oracle

>  <origin>  (34) 
autodockgpu

>  <m_score__min__energy>  (34) 
-8.8599999999999994

>  <m_primary>  (34) 
energy

>  <rmsd>  (34) 
1.4563701613653606

>  <m_score__min__rmsd>  (34) 
1.4563701613653606

>  <meeko>  (34) 
{"free_energy": -8.51, "intermolecular_energy": -10.0, "internal_energy": -1.38, "cluster_size": 15, "cluster_id": 2, "rank_in_cluster": 2}

>  <energy>  (34) 
-7.7

>  <cluster_rmsd>  (34) 
1.36

>  <cluster>  (34) 
2

$$$$

     RDKit          3D

 50 53  0  0  0  0  0  0  0  0999 V2000
  133.8870   69.1690  226.4860 O   0  0  0  0  0  0  0  0  0  0  0  0
  134.3670   70.2430  226.0430 C   0  0  0  0  0  0  0  0  0  0  0  0
  135.4830   70.3030  225.1640 N   0  0  0  0  0  0  0  0  0  0  0  0
  136.1600   69.0600  224.7100 C   0  0  0  0  0  0  0  0  0  0  0  0
  137.5420   69.3950  224.3540 C   0  0  0  0  0  0  0  0  0  0  0  0
  138.3170   68.3820  224.1430 O   0  0  0  0  0  0  0  0  0  0  0  0
  138.1470   70.6470  224.2160 N   0  0  0  0  0  0  0  0  0  0  0  0
  137.4470   71.6230  223.3600 C   0  0  0  0  0  0  0  0  0  0  0  0
  138.3860   72.1700  222.3220 C   0  0  0  0  0  0  0  0  0  0  0  0
  139.8150   72.2520  222.6710 C   0  0  0  0  0  0  0  0  0  0  0  0
  140.3390   71.1540  223.5720 C   0  0  0  0  0  0  0  0  0  0  0  0
  139.3800   71.1200  224.7530 C   0  0  2  0  0  0  0  0  0  0  0  0
  139.8810   70.5410  225.9700 C   0  0  0  0  0  0  0  0  0  0  0  0
  140.0150   69.1930  226.2410 C   0  0  0  0  0  0  0  0  0  0  0  0
  140.5470   68.6980  227.4060 C   0  0  0  0  0  0  0  0  0  0  0  0
  140.9660   69.6150  228.3460 C   0  0  0  0  0  0  0  0  0  0  0  0
  140.8520   70.9320  228.1160 N   0  0  0  0  0  0  0  0  0  0  0  0
  140.3330   71.3990  226.9810 C   0  0  0  0  0  0  0  0  0  0  0  0
  133.7430   71.5190  226.4530 C   0  0  0  0  0  0  0  0  0  0  0  0
  132.5830   71.5240  227.1990 C   0  0  0  0  0  0  0  0  0  0  0  0
  131.9930   72.7290  227.5870 C   0  0  0  0  0  0  0  0  0  0  0  0
  132.6060   73.9270  227.2030 C   0  0  0  0  0  0  0  0  0  0  0  0
  132.0650   75.1460  227.5590 C   0  0  0  0  0  0  0  0  0  0  0  0
  132.7150   76.2920  227.1510 C   0  0  0  0  0  0  0  0  0  0  0  0
  132.0040   77.8360  227.6190 Cl  0  0  0  0  0  0  0  0  0  0  0  0
  133.8760   76.2560  226.4060 C   0  0  0  0  0  0  0  0  0  0  0  0
  134.4270   75.0310  226.0430 C   0  0  0  0  0  0  0  0  0  0  0  0
  133.7660   73.8860  226.4580 C   0  0  0  0  0  0  0  0  0  0  0  0
  134.2920   72.7080  226.1100 N   0  0  0  0  0  0  0  0  0  0  0  0
  135.8150   71.2370  224.8460 H   0  0  0  0  0  0  0  0  0  0  0  0
  136.1541   68.3157  225.5199 H   0  0  0  0  0  0  0  0  0  0  0  0
  135.6354   68.6375  223.8404 H   0  0  0  0  0  0  0  0  0  0  0  0
  136.6016   71.1275  222.8602 H   0  0  0  0  0  0  0  0  0  0  0  0
  137.0808   72.4509  223.9848 H   0  0  0  0  0  0  0  0  0  0  0  0
  138.3009   71.5302  221.4313 H   0  0  0  0  0  0  0  0  0  0  0  0
  138.0716   73.2150  222.1836 H   0  0  0  0  0  0  0  0  0  0  0  0
  140.3927   72.2247  221.7353 H   0  0  0  0  0  0  0  0  0  0  0  0
  139.9293   73.1855  223.2415 H   0  0  0  0  0  0  0  0  0  0  0  0
  140.3375   70.1883  223.0452 H   0  0  0  0  0  0  0  0  0  0  0  0
  141.3761   71.3396  223.8881 H   0  0  0  0  0  0  0  0  0  0  0  0
  139.2203   72.1198  225.1831 H   0  0  0  0  0  0  0  0  0  0  0  0
  139.6760   68.4750  225.4797 H   0  0  0  0  0  0  0  0  0  0  0  0
  140.6351   67.6157  227.5817 H   0  0  0  0  0  0  0  0  0  0  0  0
  141.3983   69.2635  229.2944 H   0  0  0  0  0  0  0  0  0  0  0  0
  140.2575   72.4865  226.8341 H   0  0  0  0  0  0  0  0  0  0  0  0
  132.1184   70.5706  227.4910 H   0  0  0  0  0  0  0  0  0  0  0  0
  131.0673   72.7362  228.1811 H   0  0  0  0  0  0  0  0  0  0  0  0
  131.1403   75.2019  228.1522 H   0  0  0  0  0  0  0  0  0  0  0  0
  134.3644   77.1929  226.1000 H   0  0  0  0  0  0  0  0  0  0  0  0
  135.3514   74.9737  225.4496 H   0  0  0  0  0  0  0  0  0  0  0  0
  1  2  2  0
  2  3  1  0
  3  4  1  0
  4  5  1  0
  5  6  2  0
  5  7  1  0
  7  8  1  0
  8  9  1  0
  9 10  1  0
 10 11  1  0
 11 12  1  0
 12 13  1  0
 13 14  2  0
 14 15  1  0
 15 16  2  0
 16 17  1  0
 17 18  2  0
  2 19  1  0
 19 20  2  0
 20 21  1  0
 21 22  2  0
 22 23  1  0
 23 24  2  0
 24 25  1  0
 24 26  1  0
 26 27  2  0
 27 28  1  0
 28 29  2  0
 12  7  1  0
 18 13  1  0
 29 19  1  0
 28 22  1  0
  3 30  1  0
  4 31  1  0
  4 32  1  0
  8 33  1  0
  8 34  1  0
  9 35  1  0
  9 36  1  0
 10 37  1  0
 10 38  1  0
 11 39  1  0
 11 40  1  0
 12 41  1  1
 14 42  1  0
 15 43  1  0
 16 44  1  0
 18 45  1  0
 20 46  1  0
 21 47  1  0
 23 48  1  0
 26 49  1  0
 27 50  1  0
M  END
>  <smiles>  (35) 
O=C(NCC(=O)N1CCCCC1c1cccnc1)c1ccc2cc(Cl)ccc2n1

>  <score_type>  (35) 
oracle

>  <origin>  (35) 
autodockgpu

>  <m_score__min__energy>  (35) 
-8.8599999999999994

>  <m_primary>  (35) 
energy

>  <rmsd>  (35) 
7.699779741882036

>  <m_score__min__rmsd>  (35) 
7.699779741882036

>  <meeko>  (35) 
{"free_energy": -8.36, "intermolecular_energy": -9.85, "internal_energy": -1.54, "cluster_size": 8, "cluster_id": 3, "rank_in_cluster": 4}

>  <energy>  (35) 
-7.65

>  <cluster_rmsd>  (35) 
0.9

>  <cluster>  (35) 
2

$$$$

     RDKit          3D

 50 53  0  0  0  0  0  0  0  0999 V2000
  140.3790   72.1660  220.5720 O   0  0  0  0  0  0  0  0  0  0  0  0
  140.1340   72.6340  221.7140 C   0  0  0  0  0  0  0  0  0  0  0  0
  139.9270   74.0170  221.9700 N   0  0  0  0  0  0  0  0  0  0  0  0
  139.9920   75.0120  220.8670 C   0  0  0  0  0  0  0  0  0  0  0  0
  141.0160   76.0050  221.2050 C   0  0  0  0  0  0  0  0  0  0  0  0
  141.0790   76.3280  222.4550 O   0  0  0  0  0  0  0  0  0  0  0  0
  141.9310   76.6580  220.3750 N   0  0  0  0  0  0  0  0  0  0  0  0
  141.7990   78.1230  220.2770 C   0  0  0  0  0  0  0  0  0  0  0  0
  141.7190   78.5420  218.8370 C   0  0  0  0  0  0  0  0  0  0  0  0
  142.4210   77.7080  217.8450 C   0  0  0  0  0  0  0  0  0  0  0  0
  142.4520   76.2220  218.1360 C   0  0  0  0  0  0  0  0  0  0  0  0
  142.9680   76.1100  219.5630 C   0  0  2  0  0  0  0  0  0  0  0  0
  143.5570   74.8520  219.9350 C   0  0  0  0  0  0  0  0  0  0  0  0
  144.8170   74.6650  220.4700 C   0  0  0  0  0  0  0  0  0  0  0  0
  145.3080   73.4410  220.8530 C   0  0  0  0  0  0  0  0  0  0  0  0
  144.4810   72.3500  220.6870 C   0  0  0  0  0  0  0  0  0  0  0  0
  143.2520   72.4960  220.1710 N   0  0  0  0  0  0  0  0  0  0  0  0
  142.7870   73.6900  219.8030 C   0  0  0  0  0  0  0  0  0  0  0  0
  140.0530   71.7010  222.8580 C   0  0  0  0  0  0  0  0  0  0  0  0
  139.4370   70.4750  222.7200 C   0  0  0  0  0  0  0  0  0  0  0  0
  139.3610   69.5930  223.8010 C   0  0  0  0  0  0  0  0  0  0  0  0
  139.9240   69.9830  225.0220 C   0  0  0  0  0  0  0  0  0  0  0  0
  139.8770   69.1500  226.1220 C   0  0  0  0  0  0  0  0  0  0  0  0
  140.4500   69.5890  227.2970 C   0  0  0  0  0  0  0  0  0  0  0  0
  140.3760   68.5060  228.6870 Cl  0  0  0  0  0  0  0  0  0  0  0  0
  141.0610   70.8220  227.4040 C   0  0  0  0  0  0  0  0  0  0  0  0
  141.1120   71.6670  226.3000 C   0  0  0  0  0  0  0  0  0  0  0  0
  140.5330   71.2150  225.1240 C   0  0  0  0  0  0  0  0  0  0  0  0
  140.5810   72.0250  224.0620 N   0  0  0  0  0  0  0  0  0  0  0  0
  139.7290   74.3170  222.9460 H   0  0  0  0  0  0  0  0  0  0  0  0
  140.2583   74.5080  219.9262 H   0  0  0  0  0  0  0  0  0  0  0  0
  139.0154   75.5019  220.7395 H   0  0  0  0  0  0  0  0  0  0  0  0
  140.8846   78.4411  220.7992 H   0  0  0  0  0  0  0  0  0  0  0  0
  142.6790   78.5941  220.7392 H   0  0  0  0  0  0  0  0  0  0  0  0
  140.6551   78.5605  218.5580 H   0  0  0  0  0  0  0  0  0  0  0  0
  142.2327   79.5140  218.7993 H   0  0  0  0  0  0  0  0  0  0  0  0
  141.9261   77.8512  216.8731 H   0  0  0  0  0  0  0  0  0  0  0  0
  143.4700   78.0382  217.8663 H   0  0  0  0  0  0  0  0  0  0  0  0
  141.4431   75.7912  218.0549 H   0  0  0  0  0  0  0  0  0  0  0  0
  143.0867   75.6749  217.4234 H   0  0  0  0  0  0  0  0  0  0  0  0
  143.8873   76.6941  219.7170 H   0  0  0  0  0  0  0  0  0  0  0  0
  145.4633   75.5461  220.5963 H   0  0  0  0  0  0  0  0  0  0  0  0
  146.3185   73.3353  221.2745 H   0  0  0  0  0  0  0  0  0  0  0  0
  144.8330   71.3501  220.9808 H   0  0  0  0  0  0  0  0  0  0  0  0
  141.7723   73.7642  219.3849 H   0  0  0  0  0  0  0  0  0  0  0  0
  139.0019   70.1891  221.7510 H   0  0  0  0  0  0  0  0  0  0  0  0
  138.8699   68.6144  223.6951 H   0  0  0  0  0  0  0  0  0  0  0  0
  139.3955   68.1628  226.0627 H   0  0  0  0  0  0  0  0  0  0  0  0
  141.5064   71.1357  228.3596 H   0  0  0  0  0  0  0  0  0  0  0  0
  141.5927   72.6547  226.3578 H   0  0  0  0  0  0  0  0  0  0  0  0
  1  2  2  0
  2  3  1  0
  3  4  1  0
  4  5  1  0
  5  6  2  0
  5  7  1  0
  7  8  1  0
  8  9  1  0
  9 10  1  0
 10 11  1  0
 11 12  1  0
 12 13  1  0
 13 14  2  0
 14 15  1  0
 15 16  2  0
 16 17  1  0
 17 18  2  0
  2 19  1  0
 19 20  2  0
 20 21  1  0
 21 22  2  0
 22 23  1  0
 23 24  2  0
 24 25  1  0
 24 26  1  0
 26 27  2  0
 27 28  1  0
 28 29  2  0
 12  7  1  0
 18 13  1  0
 29 19  1  0
 28 22  1  0
  3 30  1  0
  4 31  1  0
  4 32  1  0
  8 33  1  0
  8 34  1  0
  9 35  1  0
  9 36  1  0
 10 37  1  0
 10 38  1  0
 11 39  1  0
 11 40  1  0
 12 41  1  6
 14 42  1  0
 15 43  1  0
 16 44  1  0
 18 45  1  0
 20 46  1  0
 21 47  1  0
 23 48  1  0
 26 49  1  0
 27 50  1  0
M  END
>  <smiles>  (36) 
O=C(NCC(=O)N1CCCCC1c1cccnc1)c1ccc2cc(Cl)ccc2n1

>  <score_type>  (36) 
oracle

>  <origin>  (36) 
autodockgpu

>  <m_score__min__energy>  (36) 
-8.8599999999999994

>  <m_primary>  (36) 
energy

>  <rmsd>  (36) 
2.3831362176720217

>  <m_score__min__rmsd>  (36) 
2.3831362176720217

>  <meeko>  (36) 
{"free_energy": -8.44, "intermolecular_energy": -9.93, "internal_energy": -2.0, "cluster_size": 22, "cluster_id": 1, "rank_in_cluster": 7}

>  <energy>  (36) 
-7.65

>  <cluster_rmsd>  (36) 
1.44

>  <cluster>  (36) 
2

$$$$

     RDKit          3D

 50 53  0  0  0  0  0  0  0  0999 V2000
  133.9300   69.2210  226.4690 O   0  0  0  0  0  0  0  0  0  0  0  0
  134.3480   70.3010  225.9800 C   0  0  0  0  0  0  0  0  0  0  0  0
  135.3980   70.3790  225.0240 N   0  0  0  0  0  0  0  0  0  0  0  0
  136.0770   69.1480  224.5400 C   0  0  0  0  0  0  0  0  0  0  0  0
  137.4960   69.4550  224.3440 C   0  0  0  0  0  0  0  0  0  0  0  0
  138.2790   68.4280  224.2860 O   0  0  0  0  0  0  0  0  0  0  0  0
  138.1300   70.6940  224.2170 N   0  0  0  0  0  0  0  0  0  0  0  0
  137.4560   71.6910  223.3650 C   0  0  0  0  0  0  0  0  0  0  0  0
  138.4110   72.2240  222.3350 C   0  0  0  0  0  0  0  0  0  0  0  0
  139.8400   72.2730  222.6910 C   0  0  0  0  0  0  0  0  0  0  0  0
  140.3350   71.1570  223.5860 C   0  0  0  0  0  0  0  0  0  0  0  0
  139.3710   71.1370  224.7630 C   0  0  2  0  0  0  0  0  0  0  0  0
  139.8530   70.5380  225.9780 C   0  0  0  0  0  0  0  0  0  0  0  0
  139.9430   69.1850  226.2450 C   0  0  0  0  0  0  0  0  0  0  0  0
  140.4590   68.6710  227.4090 C   0  0  0  0  0  0  0  0  0  0  0  0
  140.9090   69.5710  228.3510 C   0  0  0  0  0  0  0  0  0  0  0  0
  140.8380   70.8910  228.1240 N   0  0  0  0  0  0  0  0  0  0  0  0
  140.3350   71.3780  226.9910 C   0  0  0  0  0  0  0  0  0  0  0  0
  133.7170   71.5660  226.4150 C   0  0  0  0  0  0  0  0  0  0  0  0
  132.5620   71.5500  227.1680 C   0  0  0  0  0  0  0  0  0  0  0  0
  131.9650   72.7440  227.5800 C   0  0  0  0  0  0  0  0  0  0  0  0
  132.5680   73.9530  227.2120 C   0  0  0  0  0  0  0  0  0  0  0  0
  132.0210   75.1610  227.5920 C   0  0  0  0  0  0  0  0  0  0  0  0
  132.6610   76.3190  227.2000 C   0  0  0  0  0  0  0  0  0  0  0  0
  131.9410   77.8500  227.6990 Cl  0  0  0  0  0  0  0  0  0  0  0  0
  133.8170   76.3040  226.4470 C   0  0  0  0  0  0  0  0  0  0  0  0
  134.3740   75.0890  226.0600 C   0  0  0  0  0  0  0  0  0  0  0  0
  133.7230   73.9320  226.4600 C   0  0  0  0  0  0  0  0  0  0  0  0
  134.2550   72.7640  226.0890 N   0  0  0  0  0  0  0  0  0  0  0  0
  135.6800   71.3160  224.6720 H   0  0  0  0  0  0  0  0  0  0  0  0
  135.9690   68.3458  225.2848 H   0  0  0  0  0  0  0  0  0  0  0  0
  135.6266   68.8125  223.5942 H   0  0  0  0  0  0  0  0  0  0  0  0
  136.6019   71.2179  222.8583 H   0  0  0  0  0  0  0  0  0  0  0  0
  137.1059   72.5226  223.9941 H   0  0  0  0  0  0  0  0  0  0  0  0
  138.3162   71.5918  221.4398 H   0  0  0  0  0  0  0  0  0  0  0  0
  138.1198   73.2764  222.2018 H   0  0  0  0  0  0  0  0  0  0  0  0
  140.4215   72.2403  221.7578 H   0  0  0  0  0  0  0  0  0  0  0  0
  139.9722   73.1998  223.2685 H   0  0  0  0  0  0  0  0  0  0  0  0
  140.3132   70.1953  223.0524 H   0  0  0  0  0  0  0  0  0  0  0  0
  141.3750   71.3163  223.9072 H   0  0  0  0  0  0  0  0  0  0  0  0
  139.2327   72.1373  225.1992 H   0  0  0  0  0  0  0  0  0  0  0  0
  139.5809   68.4802  225.4820 H   0  0  0  0  0  0  0  0  0  0  0  0
  140.5111   67.5860  227.5825 H   0  0  0  0  0  0  0  0  0  0  0  0
  141.3304   69.2031  229.2981 H   0  0  0  0  0  0  0  0  0  0  0  0
  140.2969   72.4678  226.8466 H   0  0  0  0  0  0  0  0  0  0  0  0
  132.1065   70.5884  227.4469 H   0  0  0  0  0  0  0  0  0  0  0  0
  131.0428   72.7346  228.1795 H   0  0  0  0  0  0  0  0  0  0  0  0
  131.0995   75.2002  228.1913 H   0  0  0  0  0  0  0  0  0  0  0  0
  134.2967   77.2494  226.1536 H   0  0  0  0  0  0  0  0  0  0  0  0
  135.2950   75.0480  225.4600 H   0  0  0  0  0  0  0  0  0  0  0  0
  1  2  2  0
  2  3  1  0
  3  4  1  0
  4  5  1  0
  5  6  2  0
  5  7  1  0
  7  8  1  0
  8  9  1  0
  9 10  1  0
 10 11  1  0
 11 12  1  0
 12 13  1  0
 13 14  2  0
 14 15  1  0
 15 16  2  0
 16 17  1  0
 17 18  2  0
  2 19  1  0
 19 20  2  0
 20 21  1  0
 21 22  2  0
 22 23  1  0
 23 24  2  0
 24 25  1  0
 24 26  1  0
 26 27  2  0
 27 28  1  0
 28 29  2  0
 12  7  1  0
 18 13  1  0
 29 19  1  0
 28 22  1  0
  3 30  1  0
  4 31  1  0
  4 32  1  0
  8 33  1  0
  8 34  1  0
  9 35  1  0
  9 36  1  0
 10 37  1  0
 10 38  1  0
 11 39  1  0
 11 40  1  0
 12 41  1  1
 14 42  1  0
 15 43  1  0
 16 44  1  0
 18 45  1  0
 20 46  1  0
 21 47  1  0
 23 48  1  0
 26 49  1  0
 27 50  1  0
M  END
>  <smiles>  (37) 
O=C(NCC(=O)N1CCCCC1c1cccnc1)c1ccc2cc(Cl)ccc2n1

>  <score_type>  (37) 
oracle

>  <origin>  (37) 
autodockgpu

>  <m_score__min__energy>  (37) 
-8.8599999999999994

>  <m_primary>  (37) 
energy

>  <rmsd>  (37) 
7.699279861264317

>  <m_score__min__rmsd>  (37) 
7.699279861264317

>  <meeko>  (37) 
{"free_energy": -8.46, "intermolecular_energy": -9.95, "internal_energy": -1.4, "cluster_size": 8, "cluster_id": 3, "rank_in_cluster": 2}

>  <energy>  (37) 
-7.42

>  <cluster_rmsd>  (37) 
1.43

>  <cluster>  (37) 
2

$$$$

     RDKit          3D

 50 53  0  0  0  0  0  0  0  0999 V2000
  133.5980   69.8540  226.5500 O   0  0  0  0  0  0  0  0  0  0  0  0
  133.9680   70.9710  226.1060 C   0  0  0  0  0  0  0  0  0  0  0  0
  135.0200   71.1340  225.1630 N   0  0  0  0  0  0  0  0  0  0  0  0
  135.7580   69.9560  224.6370 C   0  0  0  0  0  0  0  0  0  0  0  0
  137.0840   70.4030  224.2020 C   0  0  0  0  0  0  0  0  0  0  0  0
  137.2860   71.6780  224.2710 O   0  0  0  0  0  0  0  0  0  0  0  0
  138.1620   69.6560  223.7190 N   0  0  0  0  0  0  0  0  0  0  0  0
  138.0530   69.1680  222.3320 C   0  0  0  0  0  0  0  0  0  0  0  0
  138.2980   67.6870  222.2810 C   0  0  0  0  0  0  0  0  0  0  0  0
  139.2060   67.1120  223.2900 C   0  0  0  0  0  0  0  0  0  0  0  0
  139.1730   67.7640  224.6560 C   0  0  0  0  0  0  0  0  0  0  0  0
  139.3550   69.2510  224.3880 C   0  0  2  0  0  0  0  0  0  0  0  0
  139.8470   70.0440  225.4810 C   0  0  0  0  0  0  0  0  0  0  0  0
  139.6350   69.8080  226.8260 C   0  0  0  0  0  0  0  0  0  0  0  0
  140.1730   70.5750  227.8290 C   0  0  0  0  0  0  0  0  0  0  0  0
  140.9680   71.6370  227.4530 C   0  0  0  0  0  0  0  0  0  0  0  0
  141.1970   71.8950  226.1570 N   0  0  0  0  0  0  0  0  0  0  0  0
  140.6680   71.1420  225.1920 C   0  0  0  0  0  0  0  0  0  0  0  0
  133.2770   72.1870  226.5850 C   0  0  0  0  0  0  0  0  0  0  0  0
  132.0490   72.0960  227.2060 C   0  0  0  0  0  0  0  0  0  0  0  0
  131.3960   73.2450  227.6600 C   0  0  0  0  0  0  0  0  0  0  0  0
  132.0160   74.4850  227.4700 C   0  0  0  0  0  0  0  0  0  0  0  0
  131.4140   75.6510  227.8980 C   0  0  0  0  0  0  0  0  0  0  0  0
  132.0750   76.8430  227.6830 C   0  0  0  0  0  0  0  0  0  0  0  0
  131.2840   78.3170  228.2390 Cl  0  0  0  0  0  0  0  0  0  0  0  0
  133.3040   76.9020  227.0590 C   0  0  0  0  0  0  0  0  0  0  0  0
  133.9160   75.7310  226.6240 C   0  0  0  0  0  0  0  0  0  0  0  0
  133.2440   74.5390  226.8460 C   0  0  0  0  0  0  0  0  0  0  0  0
  133.8290   73.4130  226.4290 N   0  0  0  0  0  0  0  0  0  0  0  0
  135.2600   72.0970  224.8500 H   0  0  0  0  0  0  0  0  0  0  0  0
  135.8614   69.1980  225.4274 H   0  0  0  0  0  0  0  0  0  0  0  0
  135.2111   69.5112  223.7926 H   0  0  0  0  0  0  0  0  0  0  0  0
  137.0441   69.3825  221.9499 H   0  0  0  0  0  0  0  0  0  0  0  0
  138.8060   69.6773  221.7127 H   0  0  0  0  0  0  0  0  0  0  0  0
  137.3240   67.1879  222.3918 H   0  0  0  0  0  0  0  0  0  0  0  0
  138.8058   67.5200  221.3196 H   0  0  0  0  0  0  0  0  0  0  0  0
  138.9419   66.0516  223.4160 H   0  0  0  0  0  0  0  0  0  0  0  0
  140.2229   67.2780  222.9049 H   0  0  0  0  0  0  0  0  0  0  0  0
  138.2089   67.5756  225.1510 H   0  0  0  0  0  0  0  0  0  0  0  0
  139.9525   67.3661  225.3224 H   0  0  0  0  0  0  0  0  0  0  0  0
  140.2155   69.4493  223.7322 H   0  0  0  0  0  0  0  0  0  0  0  0
  138.9986   68.9566  227.1090 H   0  0  0  0  0  0  0  0  0  0  0  0
  139.9782   70.3519  228.8884 H   0  0  0  0  0  0  0  0  0  0  0  0
  141.4190   72.2792  228.2239 H   0  0  0  0  0  0  0  0  0  0  0  0
  140.8817   71.3893  224.1417 H   0  0  0  0  0  0  0  0  0  0  0  0
  131.5797   71.1109  227.3451 H   0  0  0  0  0  0  0  0  0  0  0  0
  130.4164   73.1762  228.1557 H   0  0  0  0  0  0  0  0  0  0  0  0
  130.4339   75.6305  228.3969 H   0  0  0  0  0  0  0  0  0  0  0  0
  133.7987   77.8725  226.9059 H   0  0  0  0  0  0  0  0  0  0  0  0
  134.8952   75.7501  226.1232 H   0  0  0  0  0  0  0  0  0  0  0  0
  1  2  2  0
  2  3  1  0
  3  4  1  0
  4  5  1  0
  5  6  2  0
  5  7  1  0
  7  8  1  0
  8  9  1  0
  9 10  1  0
 10 11  1  0
 11 12  1  0
 12 13  1  0
 13 14  2  0
 14 15  1  0
 15 16  2  0
 16 17  1  0
 17 18  2  0
  2 19  1  0
 19 20  2  0
 20 21  1  0
 21 22  2  0
 22 23  1  0
 23 24  2  0
 24 25  1  0
 24 26  1  0
 26 27  2  0
 27 28  1  0
 28 29  2  0
 12  7  1  0
 18 13  1  0
 29 19  1  0
 28 22  1  0
  3 30  1  0
  4 31  1  0
  4 32  1  0
  8 33  1  0
  8 34  1  0
  9 35  1  0
  9 36  1  0
 10 37  1  0
 10 38  1  0
 11 39  1  0
 11 40  1  0
 12 41  1  6
 14 42  1  0
 15 43  1  0
 16 44  1  0
 18 45  1  0
 20 46  1  0
 21 47  1  0
 23 48  1  0
 26 49  1  0
 27 50  1  0
M  END
>  <smiles>  (38) 
O=C(NCC(=O)N1CCCCC1c1cccnc1)c1ccc2cc(Cl)ccc2n1

>  <score_type>  (38) 
oracle

>  <origin>  (38) 
autodockgpu

>  <m_score__min__energy>  (38) 
-8.8599999999999994

>  <m_primary>  (38) 
energy

>  <rmsd>  (38) 
8.724477014944458

>  <m_score__min__rmsd>  (38) 
8.724477014944458

>  <meeko>  (38) 
{"free_energy": -7.94, "intermolecular_energy": -9.44, "internal_energy": -2.14, "cluster_size": 8, "cluster_id": 3, "rank_in_cluster": 8}

>  <energy>  (38) 
-8.51

>  <cluster_rmsd>  (38) 
0.0

>  <cluster>  (38) 
3

$$$$

     RDKit          3D

 50 53  0  0  0  0  0  0  0  0999 V2000
  141.2630   71.6190  221.1640 O   0  0  0  0  0  0  0  0  0  0  0  0
  140.9050   72.6050  221.8580 C   0  0  0  0  0  0  0  0  0  0  0  0
  140.2310   72.4870  223.1040 N   0  0  0  0  0  0  0  0  0  0  0  0
  139.9030   71.1500  223.6680 C   0  0  0  0  0  0  0  0  0  0  0  0
  140.2550   71.1540  225.0910 C   0  0  0  0  0  0  0  0  0  0  0  0
  141.0290   72.1190  225.4640 O   0  0  0  0  0  0  0  0  0  0  0  0
  139.8810   70.2660  226.1020 N   0  0  0  0  0  0  0  0  0  0  0  0
  140.2500   70.6450  227.4790 C   0  0  0  0  0  0  0  0  0  0  0  0
  140.9920   69.5220  228.1460 C   0  0  0  0  0  0  0  0  0  0  0  0
  140.6670   68.1470  227.7280 C   0  0  0  0  0  0  0  0  0  0  0  0
  140.3040   67.9700  226.2690 C   0  0  0  0  0  0  0  0  0  0  0  0
  139.2210   69.0050  226.0020 C   0  0  2  0  0  0  0  0  0  0  0  0
  138.3570   68.7560  224.8800 C   0  0  0  0  0  0  0  0  0  0  0  0
  137.0900   69.2740  224.6920 C   0  0  0  0  0  0  0  0  0  0  0  0
  136.3290   69.0390  223.5730 C   0  0  0  0  0  0  0  0  0  0  0  0
  136.8790   68.2390  222.5940 C   0  0  0  0  0  0  0  0  0  0  0  0
  138.1060   67.7200  222.7440 N   0  0  0  0  0  0  0  0  0  0  0  0
  138.8350   67.9560  223.8350 C   0  0  0  0  0  0  0  0  0  0  0  0
  141.2000   73.9650  221.3600 C   0  0  0  0  0  0  0  0  0  0  0  0
  141.9540   74.1450  220.2190 C   0  0  0  0  0  0  0  0  0  0  0  0
  142.2320   75.4300  219.7470 C   0  0  0  0  0  0  0  0  0  0  0  0
  141.7270   76.5260  220.4570 C   0  0  0  0  0  0  0  0  0  0  0  0
  141.9730   77.8170  220.0350 C   0  0  0  0  0  0  0  0  0  0  0  0
  141.4490   78.8560  220.7750 C   0  0  0  0  0  0  0  0  0  0  0  0
  141.7760   80.4950  220.2140 Cl  0  0  0  0  0  0  0  0  0  0  0  0
  140.6970   78.6450  221.9130 C   0  0  0  0  0  0  0  0  0  0  0  0
  140.4460   77.3460  222.3450 C   0  0  0  0  0  0  0  0  0  0  0  0
  140.9770   76.3100  221.5930 C   0  0  0  0  0  0  0  0  0  0  0  0
  140.7380   75.0610  222.0050 N   0  0  0  0  0  0  0  0  0  0  0  0
  139.9720   73.3570  223.6130 H   0  0  0  0  0  0  0  0  0  0  0  0
  138.8276   70.9502  223.5510 H   0  0  0  0  0  0  0  0  0  0  0  0
  140.4658   70.3664  223.1397 H   0  0  0  0  0  0  0  0  0  0  0  0
  140.8919   71.5379  227.4503 H   0  0  0  0  0  0  0  0  0  0  0  0
  139.3342   70.8584  228.0497 H   0  0  0  0  0  0  0  0  0  0  0  0
  142.0644   69.6785  227.9578 H   0  0  0  0  0  0  0  0  0  0  0  0
  140.6862   69.5729  229.2014 H   0  0  0  0  0  0  0  0  0  0  0  0
  141.5427   67.5149  227.9369 H   0  0  0  0  0  0  0  0  0  0  0  0
  139.7673   67.8671  228.2956 H   0  0  0  0  0  0  0  0  0  0  0  0
  141.1793   68.1527  225.6283 H   0  0  0  0  0  0  0  0  0  0  0  0
  139.9605   66.9481  226.0506 H   0  0  0  0  0  0  0  0  0  0  0  0
  138.4172   68.9623  226.7517 H   0  0  0  0  0  0  0  0  0  0  0  0
  136.6669   69.9105  225.4831 H   0  0  0  0  0  0  0  0  0  0  0  0
  135.3233   69.4708  223.4626 H   0  0  0  0  0  0  0  0  0  0  0  0
  136.3051   68.0244  221.6804 H   0  0  0  0  0  0  0  0  0  0  0  0
  139.8376   67.5109  223.9163 H   0  0  0  0  0  0  0  0  0  0  0  0
  142.3396   73.2693  219.6763 H   0  0  0  0  0  0  0  0  0  0  0  0
  142.8339   75.5775  218.8382 H   0  0  0  0  0  0  0  0  0  0  0  0
  142.5710   78.0118  219.1326 H   0  0  0  0  0  0  0  0  0  0  0  0
  140.2973   79.5008  222.4767 H   0  0  0  0  0  0  0  0  0  0  0  0
  139.8495   77.1493  223.2480 H   0  0  0  0  0  0  0  0  0  0  0  0
  1  2  2  0
  2  3  1  0
  3  4  1  0
  4  5  1  0
  5  6  2  0
  5  7  1  0
  7  8  1  0
  8  9  1  0
  9 10  1  0
 10 11  1  0
 11 12  1  0
 12 13  1  0
 13 14  2  0
 14 15  1  0
 15 16  2  0
 16 17  1  0
 17 18  2  0
  2 19  1  0
 19 20  2  0
 20 21  1  0
 21 22  2  0
 22 23  1  0
 23 24  2  0
 24 25  1  0
 24 26  1  0
 26 27  2  0
 27 28  1  0
 28 29  2  0
 12  7  1  0
 18 13  1  0
 29 19  1  0
 28 22  1  0
  3 30  1  0
  4 31  1  0
  4 32  1  0
  8 33  1  0
  8 34  1  0
  9 35  1  0
  9 36  1  0
 10 37  1  0
 10 38  1  0
 11 39  1  0
 11 40  1  0
 12 41  1  1
 14 42  1  0
 15 43  1  0
 16 44  1  0
 18 45  1  0
 20 46  1  0
 21 47  1  0
 23 48  1  0
 26 49  1  0
 27 50  1  0
M  END
>  <smiles>  (39) 
O=C(NCC(=O)N1CCCCC1c1cccnc1)c1ccc2cc(Cl)ccc2n1

>  <score_type>  (39) 
oracle

>  <origin>  (39) 
autodockgpu

>  <m_score__min__energy>  (39) 
-8.8599999999999994

>  <m_primary>  (39) 
energy

>  <rmsd>  (39) 
8.935164783253951

>  <m_score__min__rmsd>  (39) 
8.935164783253951

>  <meeko>  (39) 
{"free_energy": -8.19, "intermolecular_energy": -9.68, "internal_energy": -1.8, "cluster_size": 3, "cluster_id": 5, "rank_in_cluster": 1}

>  <energy>  (39) 
-8.46

>  <cluster_rmsd>  (39) 
0.26

>  <cluster>  (39) 
3

$$$$

     RDKit          3D

 50 53  0  0  0  0  0  0  0  0999 V2000
  141.2780   71.6140  221.1380 O   0  0  0  0  0  0  0  0  0  0  0  0
  140.9080   72.5930  221.8340 C   0  0  0  0  0  0  0  0  0  0  0  0
  140.2190   72.4640  223.0710 N   0  0  0  0  0  0  0  0  0  0  0  0
  139.8920   71.1220  223.6220 C   0  0  0  0  0  0  0  0  0  0  0  0
  140.1070   71.1570  225.0710 C   0  0  0  0  0  0  0  0  0  0  0  0
  140.6980   72.2170  225.5150 O   0  0  0  0  0  0  0  0  0  0  0  0
  139.7720   70.2110  226.0440 N   0  0  0  0  0  0  0  0  0  0  0  0
  140.1520   70.5330  227.4320 C   0  0  0  0  0  0  0  0  0  0  0  0
  140.9330   69.3990  228.0330 C   0  0  0  0  0  0  0  0  0  0  0  0
  140.6360   68.0380  227.5520 C   0  0  0  0  0  0  0  0  0  0  0  0
  140.2550   67.9220  226.0920 C   0  0  0  0  0  0  0  0  0  0  0  0
  139.1420   68.9400  225.8910 C   0  0  2  0  0  0  0  0  0  0  0  0
  138.2680   68.7230  224.7710 C   0  0  0  0  0  0  0  0  0  0  0  0
  138.6050   68.1240  223.5730 C   0  0  0  0  0  0  0  0  0  0  0  0
  137.7120   67.8990  222.5550 C   0  0  0  0  0  0  0  0  0  0  0  0
  136.4080   68.3000  222.7600 C   0  0  0  0  0  0  0  0  0  0  0  0
  136.0460   68.8830  223.9120 N   0  0  0  0  0  0  0  0  0  0  0  0
  136.9230   69.0960  224.8930 C   0  0  0  0  0  0  0  0  0  0  0  0
  141.2010   73.9580  221.3480 C   0  0  0  0  0  0  0  0  0  0  0  0
  141.9710   74.1500  220.2200 C   0  0  0  0  0  0  0  0  0  0  0  0
  142.2490   75.4390  219.7600 C   0  0  0  0  0  0  0  0  0  0  0  0
  141.7260   76.5280  220.4680 C   0  0  0  0  0  0  0  0  0  0  0  0
  141.9700   77.8230  220.0580 C   0  0  0  0  0  0  0  0  0  0  0  0
  141.4280   78.8540  220.7960 C   0  0  0  0  0  0  0  0  0  0  0  0
  141.7540   80.4990  220.2500 Cl  0  0  0  0  0  0  0  0  0  0  0  0
  140.6600   78.6310  221.9210 C   0  0  0  0  0  0  0  0  0  0  0  0
  140.4110   77.3290  222.3410 C   0  0  0  0  0  0  0  0  0  0  0  0
  140.9600   76.3000  221.5910 C   0  0  0  0  0  0  0  0  0  0  0  0
  140.7230   75.0480  221.9930 N   0  0  0  0  0  0  0  0  0  0  0  0
  139.9500   73.3290  223.5820 H   0  0  0  0  0  0  0  0  0  0  0  0
  138.8413   70.8773  223.4073 H   0  0  0  0  0  0  0  0  0  0  0  0
  140.5328   70.3558  223.1613 H   0  0  0  0  0  0  0  0  0  0  0  0
  140.7701   71.4429  227.4377 H   0  0  0  0  0  0  0  0  0  0  0  0
  139.2399   70.6945  228.0253 H   0  0  0  0  0  0  0  0  0  0  0  0
  141.9981   69.5924  227.8375 H   0  0  0  0  0  0  0  0  0  0  0  0
  140.6433   69.3906  229.0941 H   0  0  0  0  0  0  0  0  0  0  0  0
  141.5304   67.4194  227.7172 H   0  0  0  0  0  0  0  0  0  0  0  0
  139.7520   67.7084  228.1177 H   0  0  0  0  0  0  0  0  0  0  0  0
  141.1153   68.1581  225.4484 H   0  0  0  0  0  0  0  0  0  0  0  0
  139.9342   66.9031  225.8293 H   0  0  0  0  0  0  0  0  0  0  0  0
  138.3502   68.8407  226.6481 H   0  0  0  0  0  0  0  0  0  0  0  0
  139.6487   67.8092  223.4262 H   0  0  0  0  0  0  0  0  0  0  0  0
  138.0231   67.4192  221.6153 H   0  0  0  0  0  0  0  0  0  0  0  0
  135.6583   68.1400  221.9711 H   0  0  0  0  0  0  0  0  0  0  0  0
  136.5821   69.5768  225.8218 H   0  0  0  0  0  0  0  0  0  0  0  0
  142.3698   73.2800  219.6777 H   0  0  0  0  0  0  0  0  0  0  0  0
  142.8648   75.5952  218.8620 H   0  0  0  0  0  0  0  0  0  0  0  0
  142.5806   78.0273  219.1662 H   0  0  0  0  0  0  0  0  0  0  0  0
  140.2461   79.4808  222.4837 H   0  0  0  0  0  0  0  0  0  0  0  0
  139.8020   77.1233  223.2337 H   0  0  0  0  0  0  0  0  0  0  0  0
  1  2  2  0
  2  3  1  0
  3  4  1  0
  4  5  1  0
  5  6  2  0
  5  7  1  0
  7  8  1  0
  8  9  1  0
  9 10  1  0
 10 11  1  0
 11 12  1  0
 12 13  1  0
 13 14  2  0
 14 15  1  0
 15 16  2  0
 16 17  1  0
 17 18  2  0
  2 19  1  0
 19 20  2  0
 20 21  1  0
 21 22  2  0
 22 23  1  0
 23 24  2  0
 24 25  1  0
 24 26  1  0
 26 27  2  0
 27 28  1  0
 28 29  2  0
 12  7  1  0
 18 13  1  0
 29 19  1  0
 28 22  1  0
  3 30  1  0
  4 31  1  0
  4 32  1  0
  8 33  1  0
  8 34  1  0
  9 35  1  0
  9 36  1  0
 10 37  1  0
 10 38  1  0
 11 39  1  0
 11 40  1  0
 12 41  1  1
 14 42  1  0
 15 43  1  0
 16 44  1  0
 18 45  1  0
 20 46  1  0
 21 47  1  0
 23 48  1  0
 26 49  1  0
 27 50  1  0
M  END
>  <smiles>  (40) 
O=C(NCC(=O)N1CCCCC1c1cccnc1)c1ccc2cc(Cl)ccc2n1

>  <score_type>  (40) 
oracle

>  <origin>  (40) 
autodockgpu

>  <m_score__min__energy>  (40) 
-8.8599999999999994

>  <m_primary>  (40) 
energy

>  <rmsd>  (40) 
8.91558944530619

>  <m_score__min__rmsd>  (40) 
8.91558944530619

>  <meeko>  (40) 
{"free_energy": -8.19, "intermolecular_energy": -9.68, "internal_energy": -1.9, "cluster_size": 3, "cluster_id": 5, "rank_in_cluster": 2}

>  <energy>  (40) 
-8.46

>  <cluster_rmsd>  (40) 
0.2

>  <cluster>  (40) 
3

$$$$

     RDKit          3D

 50 53  0  0  0  0  0  0  0  0999 V2000
  139.9920   72.0630  220.7110 O   0  0  0  0  0  0  0  0  0  0  0  0
  139.5790   72.4240  221.8430 C   0  0  0  0  0  0  0  0  0  0  0  0
  139.0020   73.6980  222.1010 N   0  0  0  0  0  0  0  0  0  0  0  0
  138.8510   74.6980  221.0120 C   0  0  0  0  0  0  0  0  0  0  0  0
  140.0620   75.5230  220.9760 C   0  0  0  0  0  0  0  0  0  0  0  0
  140.8620   75.3710  221.9800 O   0  0  0  0  0  0  0  0  0  0  0  0
  140.4770   76.4550  220.0210 N   0  0  0  0  0  0  0  0  0  0  0  0
  140.1400   76.1500  218.6170 C   0  0  0  0  0  0  0  0  0  0  0  0
  141.3720   76.2210  217.7600 C   0  0  0  0  0  0  0  0  0  0  0  0
  142.4340   77.1560  218.1710 C   0  0  0  0  0  0  0  0  0  0  0  0
  142.6140   77.3370  219.6630 C   0  0  0  0  0  0  0  0  0  0  0  0
  141.2240   77.6570  220.1930 C   0  0  2  0  0  0  0  0  0  0  0  0
  141.1610   78.3450  221.4540 C   0  0  0  0  0  0  0  0  0  0  0  0
  142.2000   79.0060  222.0790 C   0  0  0  0  0  0  0  0  0  0  0  0
  142.0660   79.6890  223.2630 C   0  0  0  0  0  0  0  0  0  0  0  0
  140.8160   79.7040  223.8440 C   0  0  0  0  0  0  0  0  0  0  0  0
  139.7850   79.0730  223.2640 N   0  0  0  0  0  0  0  0  0  0  0  0
  139.9270   78.4140  222.1150 C   0  0  0  0  0  0  0  0  0  0  0  0
  139.6970   71.4790  222.9740 C   0  0  0  0  0  0  0  0  0  0  0  0
  139.2630   70.1760  222.8460 C   0  0  0  0  0  0  0  0  0  0  0  0
  139.3740   69.2820  223.9140 C   0  0  0  0  0  0  0  0  0  0  0  0
  139.9350   69.7390  225.1110 C   0  0  0  0  0  0  0  0  0  0  0  0
  140.0680   68.8990  226.1980 C   0  0  0  0  0  0  0  0  0  0  0  0
  140.6290   69.4060  227.3510 C   0  0  0  0  0  0  0  0  0  0  0  0
  140.7880   68.3110  228.7240 Cl  0  0  0  0  0  0  0  0  0  0  0  0
  141.0550   70.7150  227.4490 C   0  0  0  0  0  0  0  0  0  0  0  0
  140.9240   71.5690  226.3590 C   0  0  0  0  0  0  0  0  0  0  0  0
  140.3590   71.0480  225.2050 C   0  0  0  0  0  0  0  0  0  0  0  0
  140.2310   71.8660  224.1560 N   0  0  0  0  0  0  0  0  0  0  0  0
  138.6870   73.9130  223.0690 H   0  0  0  0  0  0  0  0  0  0  0  0
  138.7228   74.1828  220.0486 H   0  0  0  0  0  0  0  0  0  0  0  0
  137.9678   75.3277  221.1945 H   0  0  0  0  0  0  0  0  0  0  0  0
  139.7139   75.1377  218.5574 H   0  0  0  0  0  0  0  0  0  0  0  0
  139.4084   76.8876  218.2553 H   0  0  0  0  0  0  0  0  0  0  0  0
  141.8126   75.2135  217.7325 H   0  0  0  0  0  0  0  0  0  0  0  0
  141.0183   76.6067  216.7925 H   0  0  0  0  0  0  0  0  0  0  0  0
  143.3852   76.7880  217.7589 H   0  0  0  0  0  0  0  0  0  0  0  0
  142.1294   78.1404  217.7862 H   0  0  0  0  0  0  0  0  0  0  0  0
  142.9988   76.4137  220.1205 H   0  0  0  0  0  0  0  0  0  0  0  0
  143.3380   78.1311  219.8979 H   0  0  0  0  0  0  0  0  0  0  0  0
  140.7397   78.4624  219.6214 H   0  0  0  0  0  0  0  0  0  0  0  0
  143.1908   78.9843  221.6016 H   0  0  0  0  0  0  0  0  0  0  0  0
  142.9203   80.2025  223.7282 H   0  0  0  0  0  0  0  0  0  0  0  0
  140.6629   80.2390  224.7929 H   0  0  0  0  0  0  0  0  0  0  0  0
  139.0537   77.9113  221.6739 H   0  0  0  0  0  0  0  0  0  0  0  0
  138.8258   69.8378  221.8950 H   0  0  0  0  0  0  0  0  0  0  0  0
  139.0281   68.2424  223.8157 H   0  0  0  0  0  0  0  0  0  0  0  0
  139.7350   67.8519  226.1458 H   0  0  0  0  0  0  0  0  0  0  0  0
  141.4971   71.0821  228.3870 H   0  0  0  0  0  0  0  0  0  0  0  0
  141.2556   72.6166  226.4105 H   0  0  0  0  0  0  0  0  0  0  0  0
  1  2  2  0
  2  3  1  0
  3  4  1  0
  4  5  1  0
  5  6  2  0
  5  7  1  0
  7  8  1  0
  8  9  1  0
  9 10  1  0
 10 11  1  0
 11 12  1  0
 12 13  1  0
 13 14  2  0
 14 15  1  0
 15 16  2  0
 16 17  1  0
 17 18  2  0
  2 19  1  0
 19 20  2  0
 20 21  1  0
 21 22  2  0
 22 23  1  0
 23 24  2  0
 24 25  1  0
 24 26  1  0
 26 27  2  0
 27 28  1  0
 28 29  2  0
 12  7  1  0
 18 13  1  0
 29 19  1  0
 28 22  1  0
  3 30  1  0
  4 31  1  0
  4 32  1  0
  8 33  1  0
  8 34  1  0
  9 35  1  0
  9 36  1  0
 10 37  1  0
 10 38  1  0
 11 39  1  0
 11 40  1  0
 12 41  1  6
 14 42  1  0
 15 43  1  0
 16 44  1  0
 18 45  1  0
 20 46  1  0
 21 47  1  0
 23 48  1  0
 26 49  1  0
 27 50  1  0
M  END
>  <smiles>  (41) 
O=C(NCC(=O)N1CCCCC1c1cccnc1)c1ccc2cc(Cl)ccc2n1

>  <score_type>  (41) 
oracle

>  <origin>  (41) 
autodockgpu

>  <m_score__min__energy>  (41) 
-8.8599999999999994

>  <m_primary>  (41) 
energy

>  <rmsd>  (41) 
1.4601576951411042

>  <m_score__min__rmsd>  (41) 
1.4601576951411042

>  <meeko>  (41) 
{"free_energy": -8.5, "intermolecular_energy": -9.99, "internal_energy": -1.41, "cluster_size": 15, "cluster_id": 2, "rank_in_cluster": 3}

>  <energy>  (41) 
-8.36

>  <cluster_rmsd>  (41) 
0.27

>  <cluster>  (41) 
3

$$$$

     RDKit          3D

 50 53  0  0  0  0  0  0  0  0999 V2000
  133.7030   69.5710  226.5730 O   0  0  0  0  0  0  0  0  0  0  0  0
  134.0540   70.6350  226.0010 C   0  0  0  0  0  0  0  0  0  0  0  0
  135.0100   70.6850  224.9510 N   0  0  0  0  0  0  0  0  0  0  0  0
  135.6640   69.4440  224.4580 C   0  0  0  0  0  0  0  0  0  0  0  0
  136.6980   69.8230  223.4910 C   0  0  0  0  0  0  0  0  0  0  0  0
  136.7130   69.1290  222.4010 O   0  0  0  0  0  0  0  0  0  0  0  0
  137.6720   70.8210  223.5750 N   0  0  0  0  0  0  0  0  0  0  0  0
  137.3130   72.1390  223.0170 C   0  0  0  0  0  0  0  0  0  0  0  0
  138.3630   72.5940  222.0440 C   0  0  0  0  0  0  0  0  0  0  0  0
  139.7470   72.1450  222.2750 C   0  0  0  0  0  0  0  0  0  0  0  0
  139.9010   70.7590  222.8640 C   0  0  0  0  0  0  0  0  0  0  0  0
  139.0000   70.7490  224.0910 C   0  0  2  0  0  0  0  0  0  0  0  0
  139.3050   69.7740  225.1030 C   0  0  0  0  0  0  0  0  0  0  0  0
  139.7720   70.0350  226.3770 C   0  0  0  0  0  0  0  0  0  0  0  0
  139.9980   69.0620  227.3190 C   0  0  0  0  0  0  0  0  0  0  0  0
  139.7380   67.7580  226.9540 C   0  0  0  0  0  0  0  0  0  0  0  0
  139.2840   67.4690  225.7260 N   0  0  0  0  0  0  0  0  0  0  0  0
  139.0680   68.4230  224.8200 C   0  0  0  0  0  0  0  0  0  0  0  0
  133.4440   71.9090  226.4390 C   0  0  0  0  0  0  0  0  0  0  0  0
  132.2750   71.9100  227.1720 C   0  0  0  0  0  0  0  0  0  0  0  0
  131.6980   73.1120  227.5860 C   0  0  0  0  0  0  0  0  0  0  0  0
  132.3320   74.3110  227.2410 C   0  0  0  0  0  0  0  0  0  0  0  0
  131.8050   75.5280  227.6250 C   0  0  0  0  0  0  0  0  0  0  0  0
  132.4750   76.6750  227.2560 C   0  0  0  0  0  0  0  0  0  0  0  0
  131.7810   78.2160  227.7580 Cl  0  0  0  0  0  0  0  0  0  0  0  0
  133.6440   76.6430  226.5220 C   0  0  0  0  0  0  0  0  0  0  0  0
  134.1810   75.4200  226.1320 C   0  0  0  0  0  0  0  0  0  0  0  0
  133.4990   74.2740  226.5090 C   0  0  0  0  0  0  0  0  0  0  0  0
  134.0130   73.0980  226.1350 N   0  0  0  0  0  0  0  0  0  0  0  0
  135.2420   71.6100  224.5340 H   0  0  0  0  0  0  0  0  0  0  0  0
  136.1219   68.9048  225.3003 H   0  0  0  0  0  0  0  0  0  0  0  0
  134.9213   68.7873  223.9815 H   0  0  0  0  0  0  0  0  0  0  0  0
  136.3458   72.0628  222.4985 H   0  0  0  0  0  0  0  0  0  0  0  0
  137.2432   72.8689  223.8370 H   0  0  0  0  0  0  0  0  0  0  0  0
  138.0638   72.2387  221.0469 H   0  0  0  0  0  0  0  0  0  0  0  0
  138.4001   73.6868  222.1637 H   0  0  0  0  0  0  0  0  0  0  0  0
  140.2727   72.1613  221.3089 H   0  0  0  0  0  0  0  0  0  0  0  0
  140.1638   72.8353  223.0232 H   0  0  0  0  0  0  0  0  0  0  0  0
  139.5790   69.9942  222.1419 H   0  0  0  0  0  0  0  0  0  0  0  0
  140.9470   70.5323  223.1181 H   0  0  0  0  0  0  0  0  0  0  0  0
  139.1778   71.6186  224.7407 H   0  0  0  0  0  0  0  0  0  0  0  0
  139.9740   71.0808  226.6519 H   0  0  0  0  0  0  0  0  0  0  0  0
  140.3710   69.3123  228.3231 H   0  0  0  0  0  0  0  0  0  0  0  0
  139.9048   66.9465  227.6777 H   0  0  0  0  0  0  0  0  0  0  0  0
  138.6940   68.1417  223.8245 H   0  0  0  0  0  0  0  0  0  0  0  0
  131.7936   70.9558  227.4323 H   0  0  0  0  0  0  0  0  0  0  0  0
  130.7660   73.1165  228.1702 H   0  0  0  0  0  0  0  0  0  0  0  0
  130.8750   75.5810  228.2100 H   0  0  0  0  0  0  0  0  0  0  0  0
  134.1489   77.5807  226.2466 H   0  0  0  0  0  0  0  0  0  0  0  0
  135.1109   75.3649  225.5470 H   0  0  0  0  0  0  0  0  0  0  0  0
  1  2  2  0
  2  3  1  0
  3  4  1  0
  4  5  1  0
  5  6  2  0
  5  7  1  0
  7  8  1  0
  8  9  1  0
  9 10  1  0
 10 11  1  0
 11 12  1  0
 12 13  1  0
 13 14  2  0
 14 15  1  0
 15 16  2  0
 16 17  1  0
 17 18  2  0
  2 19  1  0
 19 20  2  0
 20 21  1  0
 21 22  2  0
 22 23  1  0
 23 24  2  0
 24 25  1  0
 24 26  1  0
 26 27  2  0
 27 28  1  0
 28 29  2  0
 12  7  1  0
 18 13  1  0
 29 19  1  0
 28 22  1  0
  3 30  1  0
  4 31  1  0
  4 32  1  0
  8 33  1  0
  8 34  1  0
  9 35  1  0
  9 36  1  0
 10 37  1  0
 10 38  1  0
 11 39  1  0
 11 40  1  0
 12 41  1  1
 14 42  1  0
 15 43  1  0
 16 44  1  0
 18 45  1  0
 20 46  1  0
 21 47  1  0
 23 48  1  0
 26 49  1  0
 27 50  1  0
M  END
>  <smiles>  (42) 
O=C(NCC(=O)N1CCCCC1c1cccnc1)c1ccc2cc(Cl)ccc2n1

>  <score_type>  (42) 
oracle

>  <origin>  (42) 
autodockgpu

>  <m_score__min__energy>  (42) 
-8.8599999999999994

>  <m_primary>  (42) 
energy

>  <rmsd>  (42) 
7.796737606688256

>  <m_score__min__rmsd>  (42) 
7.796737606688256

>  <meeko>  (42) 
{"free_energy": -8.14, "intermolecular_energy": -9.63, "internal_energy": -1.57, "cluster_size": 8, "cluster_id": 3, "rank_in_cluster": 6}

>  <energy>  (42) 
-8.34

>  <cluster_rmsd>  (42) 
0.56

>  <cluster>  (42) 
3

$$$$

     RDKit          3D

 50 53  0  0  0  0  0  0  0  0999 V2000
  133.8160   69.2270  226.4370 O   0  0  0  0  0  0  0  0  0  0  0  0
  134.3190   70.3020  226.0230 C   0  0  0  0  0  0  0  0  0  0  0  0
  135.4550   70.3630  225.1700 N   0  0  0  0  0  0  0  0  0  0  0  0
  136.1270   69.1190  224.7090 C   0  0  0  0  0  0  0  0  0  0  0  0
  137.5330   69.4320  224.4370 C   0  0  0  0  0  0  0  0  0  0  0  0
  138.3200   68.4100  224.3610 O   0  0  0  0  0  0  0  0  0  0  0  0
  138.1490   70.6730  224.2520 N   0  0  0  0  0  0  0  0  0  0  0  0
  137.4410   71.6360  223.3880 C   0  0  0  0  0  0  0  0  0  0  0  0
  138.3600   72.1450  222.3150 C   0  0  0  0  0  0  0  0  0  0  0  0
  139.7980   72.2190  222.6290 C   0  0  0  0  0  0  0  0  0  0  0  0
  140.3310   71.1370  223.5440 C   0  0  0  0  0  0  0  0  0  0  0  0
  139.4000   71.1450  224.7490 C   0  0  2  0  0  0  0  0  0  0  0  0
  139.9230   70.5900  225.9680 C   0  0  0  0  0  0  0  0  0  0  0  0
  140.1160   69.2500  226.2400 C   0  0  0  0  0  0  0  0  0  0  0  0
  140.6670   68.7810  227.4080 C   0  0  0  0  0  0  0  0  0  0  0  0
  141.0420   69.7170  228.3480 C   0  0  0  0  0  0  0  0  0  0  0  0
  140.8690   71.0270  228.1160 N   0  0  0  0  0  0  0  0  0  0  0  0
  140.3330   71.4690  226.9780 C   0  0  0  0  0  0  0  0  0  0  0  0
  133.7020   71.5790  226.4400 C   0  0  0  0  0  0  0  0  0  0  0  0
  132.5440   71.5850  227.1890 C   0  0  0  0  0  0  0  0  0  0  0  0
  131.9590   72.7910  227.5850 C   0  0  0  0  0  0  0  0  0  0  0  0
  132.5770   73.9880  227.2040 C   0  0  0  0  0  0  0  0  0  0  0  0
  132.0420   75.2070  227.5670 C   0  0  0  0  0  0  0  0  0  0  0  0
  132.6950   76.3530  227.1620 C   0  0  0  0  0  0  0  0  0  0  0  0
  131.9910   77.8980  227.6400 Cl  0  0  0  0  0  0  0  0  0  0  0  0
  133.8540   76.3150  226.4130 C   0  0  0  0  0  0  0  0  0  0  0  0
  134.3980   75.0900  226.0430 C   0  0  0  0  0  0  0  0  0  0  0  0
  133.7340   73.9460  226.4550 C   0  0  0  0  0  0  0  0  0  0  0  0
  134.2540   72.7670  226.1010 N   0  0  0  0  0  0  0  0  0  0  0  0
  135.8050   71.2980  224.8750 H   0  0  0  0  0  0  0  0  0  0  0  0
  136.0616   68.3486  225.4914 H   0  0  0  0  0  0  0  0  0  0  0  0
  135.6395   68.7384  223.7993 H   0  0  0  0  0  0  0  0  0  0  0  0
  136.5780   71.1388  222.9212 H   0  0  0  0  0  0  0  0  0  0  0  0
  137.1006   72.4840  224.0003 H   0  0  0  0  0  0  0  0  0  0  0  0
  138.2468   71.4837  221.4433 H   0  0  0  0  0  0  0  0  0  0  0  0
  138.0539   73.1896  222.1564 H   0  0  0  0  0  0  0  0  0  0  0  0
  140.3534   72.1628  221.6812 H   0  0  0  0  0  0  0  0  0  0  0  0
  139.9357   73.1645  223.1740 H   0  0  0  0  0  0  0  0  0  0  0  0
  140.3048   70.1587  223.0419 H   0  0  0  0  0  0  0  0  0  0  0  0
  141.3779   71.3167  223.8299 H   0  0  0  0  0  0  0  0  0  0  0  0
  139.2625   72.1568  225.1581 H   0  0  0  0  0  0  0  0  0  0  0  0
  139.8114   68.5167  225.4787 H   0  0  0  0  0  0  0  0  0  0  0  0
  140.8032   67.7040  227.5855 H   0  0  0  0  0  0  0  0  0  0  0  0
  141.4876   69.3865  229.2979 H   0  0  0  0  0  0  0  0  0  0  0  0
  140.2097   72.5518  226.8287 H   0  0  0  0  0  0  0  0  0  0  0  0
  132.0765   70.6319  227.4774 H   0  0  0  0  0  0  0  0  0  0  0  0
  131.0350   72.7994  228.1818 H   0  0  0  0  0  0  0  0  0  0  0  0
  131.1195   75.2636  228.1634 H   0  0  0  0  0  0  0  0  0  0  0  0
  134.3457   77.2511  226.1098 H   0  0  0  0  0  0  0  0  0  0  0  0
  135.3201   75.0315  225.4461 H   0  0  0  0  0  0  0  0  0  0  0  0
  1  2  2  0
  2  3  1  0
  3  4  1  0
  4  5  1  0
  5  6  2  0
  5  7  1  0
  7  8  1  0
  8  9  1  0
  9 10  1  0
 10 11  1  0
 11 12  1  0
 12 13  1  0
 13 14  2  0
 14 15  1  0
 15 16  2  0
 16 17  1  0
 17 18  2  0
  2 19  1  0
 19 20  2  0
 20 21  1  0
 21 22  2  0
 22 23  1  0
 23 24  2  0
 24 25  1  0
 24 26  1  0
 26 27  2  0
 27 28  1  0
 28 29  2  0
 12  7  1  0
 18 13  1  0
 29 19  1  0
 28 22  1  0
  3 30  1  0
  4 31  1  0
  4 32  1  0
  8 33  1  0
  8 34  1  0
  9 35  1  0
  9 36  1  0
 10 37  1  0
 10 38  1  0
 11 39  1  0
 11 40  1  0
 12 41  1  1
 14 42  1  0
 15 43  1  0
 16 44  1  0
 18 45  1  0
 20 46  1  0
 21 47  1  0
 23 48  1  0
 26 49  1  0
 27 50  1  0
M  END
>  <smiles>  (43) 
O=C(NCC(=O)N1CCCCC1c1cccnc1)c1ccc2cc(Cl)ccc2n1

>  <score_type>  (43) 
oracle

>  <origin>  (43) 
autodockgpu

>  <m_score__min__energy>  (43) 
-8.8599999999999994

>  <m_primary>  (43) 
energy

>  <rmsd>  (43) 
7.720518305958152

>  <m_score__min__rmsd>  (43) 
7.720518305958152

>  <meeko>  (43) 
{"free_energy": -8.46, "intermolecular_energy": -9.95, "internal_energy": -1.48, "cluster_size": 8, "cluster_id": 3, "rank_in_cluster": 3}

>  <energy>  (43) 
-8.14

>  <cluster_rmsd>  (43) 
1.29

>  <cluster>  (43) 
3

$$$$

     RDKit          3D

 50 53  0  0  0  0  0  0  0  0999 V2000
  138.5150   71.2960  220.9850 O   0  0  0  0  0  0  0  0  0  0  0  0
  138.9670   71.8150  222.0380 C   0  0  0  0  0  0  0  0  0  0  0  0
  139.2190   73.2070  222.1830 N   0  0  0  0  0  0  0  0  0  0  0  0
  138.9540   74.1490  221.0640 C   0  0  0  0  0  0  0  0  0  0  0  0
  139.8430   75.3030  221.2160 C   0  0  0  0  0  0  0  0  0  0  0  0
  140.3250   75.4750  222.4030 O   0  0  0  0  0  0  0  0  0  0  0  0
  140.2430   76.2490  220.2680 N   0  0  0  0  0  0  0  0  0  0  0  0
  140.0690   75.8750  218.8520 C   0  0  0  0  0  0  0  0  0  0  0  0
  141.3590   76.0560  218.1050 C   0  0  0  0  0  0  0  0  0  0  0  0
  142.2760   77.1110  218.5730 C   0  0  0  0  0  0  0  0  0  0  0  0
  142.3000   77.3480  220.0680 C   0  0  0  0  0  0  0  0  0  0  0  0
  140.8420   77.5290  220.4640 C   0  0  2  0  0  0  0  0  0  0  0  0
  140.5930   78.2380  221.6900 C   0  0  0  0  0  0  0  0  0  0  0  0
  141.5390   78.6230  222.6200 C   0  0  0  0  0  0  0  0  0  0  0  0
  141.2460   79.3430  223.7520 C   0  0  0  0  0  0  0  0  0  0  0  0
  139.9270   79.6920  223.9530 C   0  0  0  0  0  0  0  0  0  0  0  0
  138.9830   79.3350  223.0700 N   0  0  0  0  0  0  0  0  0  0  0  0
  139.2800   78.6360  221.9750 C   0  0  0  0  0  0  0  0  0  0  0  0
  139.2530   70.9380  223.1930 C   0  0  0  0  0  0  0  0  0  0  0  0
  138.9180   69.6010  223.1570 C   0  0  0  0  0  0  0  0  0  0  0  0
  139.1890   68.7710  224.2480 C   0  0  0  0  0  0  0  0  0  0  0  0
  139.8070   69.3280  225.3730 C   0  0  0  0  0  0  0  0  0  0  0  0
  140.0970   68.5540  226.4780 C   0  0  0  0  0  0  0  0  0  0  0  0
  140.7080   69.1590  227.5570 C   0  0  0  0  0  0  0  0  0  0  0  0
  141.0670   68.1480  228.9560 Cl  0  0  0  0  0  0  0  0  0  0  0  0
  141.0320   70.5010  227.5640 C   0  0  0  0  0  0  0  0  0  0  0  0
  140.7420   71.2880  226.4530 C   0  0  0  0  0  0  0  0  0  0  0  0
  140.1290   70.6690  225.3750 C   0  0  0  0  0  0  0  0  0  0  0  0
  139.8500   71.4220  224.3080 N   0  0  0  0  0  0  0  0  0  0  0  0
  139.5940   73.5510  223.0910 H   0  0  0  0  0  0  0  0  0  0  0  0
  139.1516   73.6509  220.1034 H   0  0  0  0  0  0  0  0  0  0  0  0
  137.9033   74.4742  221.0822 H   0  0  0  0  0  0  0  0  0  0  0  0
  139.7581   74.8217  218.7901 H   0  0  0  0  0  0  0  0  0  0  0  0
  139.3004   76.5208  218.4023 H   0  0  0  0  0  0  0  0  0  0  0  0
  141.9037   75.1015  218.1526 H   0  0  0  0  0  0  0  0  0  0  0  0
  141.0558   76.3761  217.0972 H   0  0  0  0  0  0  0  0  0  0  0  0
  143.2939   76.8373  218.2584 H   0  0  0  0  0  0  0  0  0  0  0  0
  141.9064   78.0467  218.1282 H   0  0  0  0  0  0  0  0  0  0  0  0
  142.7373   76.4836  220.5891 H   0  0  0  0  0  0  0  0  0  0  0  0
  142.9117   78.2217  220.3370 H   0  0  0  0  0  0  0  0  0  0  0  0
  140.3293   78.2633  219.8253 H   0  0  0  0  0  0  0  0  0  0  0  0
  142.5864   78.3366  222.4438 H   0  0  0  0  0  0  0  0  0  0  0  0
  142.0302   79.6293  224.4682 H   0  0  0  0  0  0  0  0  0  0  0  0
  139.6465   80.2690  224.8466 H   0  0  0  0  0  0  0  0  0  0  0  0
  138.4741   78.3646  221.2772 H   0  0  0  0  0  0  0  0  0  0  0  0
  138.4333   69.1842  222.2618 H   0  0  0  0  0  0  0  0  0  0  0  0
  138.9225   67.7041  224.2230 H   0  0  0  0  0  0  0  0  0  0  0  0
  139.8476   67.4828  226.4980 H   0  0  0  0  0  0  0  0  0  0  0  0
  141.5177   70.9469  228.4445 H   0  0  0  0  0  0  0  0  0  0  0  0
  140.9897   72.3595  226.4315 H   0  0  0  0  0  0  0  0  0  0  0  0
  1  2  2  0
  2  3  1  0
  3  4  1  0
  4  5  1  0
  5  6  2  0
  5  7  1  0
  7  8  1  0
  8  9  1  0
  9 10  1  0
 10 11  1  0
 11 12  1  0
 12 13  1  0
 13 14  2  0
 14 15  1  0
 15 16  2  0
 16 17  1  0
 17 18  2  0
  2 19  1  0
 19 20  2  0
 20 21  1  0
 21 22  2  0
 22 23  1  0
 23 24  2  0
 24 25  1  0
 24 26  1  0
 26 27  2  0
 27 28  1  0
 28 29  2  0
 12  7  1  0
 18 13  1  0
 29 19  1  0
 28 22  1  0
  3 30  1  0
  4 31  1  0
  4 32  1  0
  8 33  1  0
  8 34  1  0
  9 35  1  0
  9 36  1  0
 10 37  1  0
 10 38  1  0
 11 39  1  0
 11 40  1  0
 12 41  1  6
 14 42  1  0
 15 43  1  0
 16 44  1  0
 18 45  1  0
 20 46  1  0
 21 47  1  0
 23 48  1  0
 26 49  1  0
 27 50  1  0
M  END
>  <smiles>  (44) 
O=C(NCC(=O)N1CCCCC1c1cccnc1)c1ccc2cc(Cl)ccc2n1

>  <score_type>  (44) 
oracle

>  <origin>  (44) 
autodockgpu

>  <m_score__min__energy>  (44) 
-8.8599999999999994

>  <m_primary>  (44) 
energy

>  <rmsd>  (44) 
1.327080914599792

>  <m_score__min__rmsd>  (44) 
1.327080914599792

>  <meeko>  (44) 
{"free_energy": -8.03, "intermolecular_energy": -9.53, "internal_energy": -2.09, "cluster_size": 15, "cluster_id": 2, "rank_in_cluster": 11}

>  <energy>  (44) 
-7.97

>  <cluster_rmsd>  (44) 
1.5

>  <cluster>  (44) 
3

$$$$

     RDKit          3D

 50 53  0  0  0  0  0  0  0  0999 V2000
  140.1020   72.0240  220.5630 O   0  0  0  0  0  0  0  0  0  0  0  0
  140.0330   72.5060  221.7220 C   0  0  0  0  0  0  0  0  0  0  0  0
  139.9850   73.9000  221.9930 N   0  0  0  0  0  0  0  0  0  0  0  0
  140.0150   74.8910  220.8850 C   0  0  0  0  0  0  0  0  0  0  0  0
  141.0050   75.9200  221.2170 C   0  0  0  0  0  0  0  0  0  0  0  0
  141.0250   76.2860  222.4560 O   0  0  0  0  0  0  0  0  0  0  0  0
  141.9270   76.5670  220.3900 N   0  0  0  0  0  0  0  0  0  0  0  0
  141.8500   78.0390  220.3470 C   0  0  0  0  0  0  0  0  0  0  0  0
  141.7550   78.5130  218.9240 C   0  0  0  0  0  0  0  0  0  0  0  0
  142.4020   77.6890  217.8880 C   0  0  0  0  0  0  0  0  0  0  0  0
  142.3820   76.1940  218.1250 C   0  0  0  0  0  0  0  0  0  0  0  0
  142.9240   76.0100  219.5350 C   0  0  2  0  0  0  0  0  0  0  0  0
  143.4720   74.7190  219.8490 C   0  0  0  0  0  0  0  0  0  0  0  0
  142.8960   73.4950  219.5680 C   0  0  0  0  0  0  0  0  0  0  0  0
  143.4910   72.2900  219.8490 C   0  0  0  0  0  0  0  0  0  0  0  0
  144.7340   72.3250  220.4440 C   0  0  0  0  0  0  0  0  0  0  0  0
  145.3230   73.4950  220.7300 N   0  0  0  0  0  0  0  0  0  0  0  0
  144.7340   74.6580  220.4530 C   0  0  0  0  0  0  0  0  0  0  0  0
  139.9980   71.5780  222.8730 C   0  0  0  0  0  0  0  0  0  0  0  0
  139.4580   70.3160  222.7400 C   0  0  0  0  0  0  0  0  0  0  0  0
  139.4250   69.4390  223.8260 C   0  0  0  0  0  0  0  0  0  0  0  0
  139.9530   69.8700  225.0490 C   0  0  0  0  0  0  0  0  0  0  0  0
  139.9460   69.0450  226.1540 C   0  0  0  0  0  0  0  0  0  0  0  0
  140.4810   69.5250  227.3310 C   0  0  0  0  0  0  0  0  0  0  0  0
  140.4590   68.4500  228.7290 Cl  0  0  0  0  0  0  0  0  0  0  0  0
  141.0160   70.7930  227.4340 C   0  0  0  0  0  0  0  0  0  0  0  0
  141.0260   71.6320  226.3240 C   0  0  0  0  0  0  0  0  0  0  0  0
  140.4860   71.1380  225.1470 C   0  0  0  0  0  0  0  0  0  0  0  0
  140.4940   71.9410  224.0790 N   0  0  0  0  0  0  0  0  0  0  0  0
  139.9280   74.2120  222.9850 H   0  0  0  0  0  0  0  0  0  0  0  0
  140.2974   74.3917  219.9464 H   0  0  0  0  0  0  0  0  0  0  0  0
  139.0222   75.3467  220.7560 H   0  0  0  0  0  0  0  0  0  0  0  0
  140.9602   78.3725  220.9011 H   0  0  0  0  0  0  0  0  0  0  0  0
  142.7575   78.4592  220.8052 H   0  0  0  0  0  0  0  0  0  0  0  0
  140.6869   78.5823  218.6704 H   0  0  0  0  0  0  0  0  0  0  0  0
  142.3050   79.4655  218.9085 H   0  0  0  0  0  0  0  0  0  0  0  0
  141.8920   77.8859  216.9335 H   0  0  0  0  0  0  0  0  0  0  0  0
  143.4633   77.9779  217.8973 H   0  0  0  0  0  0  0  0  0  0  0  0
  141.3557   75.8049  218.0517 H   0  0  0  0  0  0  0  0  0  0  0  0
  142.9798   75.6499  217.3789 H   0  0  0  0  0  0  0  0  0  0  0  0
  143.8687   76.5525  219.6875 H   0  0  0  0  0  0  0  0  0  0  0  0
  141.9043   73.4854  219.0921 H   0  0  0  0  0  0  0  0  0  0  0  0
  142.9967   71.3369  219.6095 H   0  0  0  0  0  0  0  0  0  0  0  0
  145.2480   71.3832  220.6867 H   0  0  0  0  0  0  0  0  0  0  0  0
  145.2527   75.5946  220.7054 H   0  0  0  0  0  0  0  0  0  0  0  0
  139.0496   69.9974  221.7696 H   0  0  0  0  0  0  0  0  0  0  0  0
  138.9939   68.4322  223.7230 H   0  0  0  0  0  0  0  0  0  0  0  0
  139.5246   68.0304  226.0981 H   0  0  0  0  0  0  0  0  0  0  0  0
  141.4334   71.1394  228.3910 H   0  0  0  0  0  0  0  0  0  0  0  0
  141.4459   72.6472  226.3785 H   0  0  0  0  0  0  0  0  0  0  0  0
  1  2  2  0
  2  3  1  0
  3  4  1  0
  4  5  1  0
  5  6  2  0
  5  7  1  0
  7  8  1  0
  8  9  1  0
  9 10  1  0
 10 11  1  0
 11 12  1  0
 12 13  1  0
 13 14  2  0
 14 15  1  0
 15 16  2  0
 16 17  1  0
 17 18  2  0
  2 19  1  0
 19 20  2  0
 20 21  1  0
 21 22  2  0
 22 23  1  0
 23 24  2  0
 24 25  1  0
 24 26  1  0
 26 27  2  0
 27 28  1  0
 28 29  2  0
 12  7  1  0
 18 13  1  0
 29 19  1  0
 28 22  1  0
  3 30  1  0
  4 31  1  0
  4 32  1  0
  8 33  1  0
  8 34  1  0
  9 35  1  0
  9 36  1  0
 10 37  1  0
 10 38  1  0
 11 39  1  0
 11 40  1  0
 12 41  1  6
 14 42  1  0
 15 43  1  0
 16 44  1  0
 18 45  1  0
 20 46  1  0
 21 47  1  0
 23 48  1  0
 26 49  1  0
 27 50  1  0
M  END
>  <smiles>  (45) 
O=C(NCC(=O)N1CCCCC1c1cccnc1)c1ccc2cc(Cl)ccc2n1

>  <score_type>  (45) 
oracle

>  <origin>  (45) 
autodockgpu

>  <m_score__min__energy>  (45) 
-8.8599999999999994

>  <m_primary>  (45) 
energy

>  <rmsd>  (45) 
2.349040516471568

>  <m_score__min__rmsd>  (45) 
2.349040516471568

>  <meeko>  (45) 
{"free_energy": -8.1, "intermolecular_energy": -9.59, "internal_energy": -2.17, "cluster_size": 22, "cluster_id": 1, "rank_in_cluster": 15}

>  <energy>  (45) 
-7.94

>  <cluster_rmsd>  (45) 
1.5

>  <cluster>  (45) 
3

$$$$

     RDKit          3D

 50 53  0  0  0  0  0  0  0  0999 V2000
  140.2190   72.1030  220.5860 O   0  0  0  0  0  0  0  0  0  0  0  0
  140.0730   72.5730  221.7430 C   0  0  0  0  0  0  0  0  0  0  0  0
  139.9530   73.9630  222.0170 N   0  0  0  0  0  0  0  0  0  0  0  0
  139.9960   74.9620  220.9170 C   0  0  0  0  0  0  0  0  0  0  0  0
  141.0200   75.9590  221.2430 C   0  0  0  0  0  0  0  0  0  0  0  0
  141.0660   76.3150  222.4840 O   0  0  0  0  0  0  0  0  0  0  0  0
  141.9490   76.5860  220.4080 N   0  0  0  0  0  0  0  0  0  0  0  0
  141.8320   78.0500  220.2780 C   0  0  0  0  0  0  0  0  0  0  0  0
  141.7700   78.4390  218.8280 C   0  0  0  0  0  0  0  0  0  0  0  0
  142.4730   77.5770  217.8610 C   0  0  0  0  0  0  0  0  0  0  0  0
  142.4870   76.0980  218.1840 C   0  0  0  0  0  0  0  0  0  0  0  0
  142.9890   76.0110  219.6180 C   0  0  2  0  0  0  0  0  0  0  0  0
  143.5620   74.7560  220.0230 C   0  0  0  0  0  0  0  0  0  0  0  0
  144.8070   74.5710  220.5920 C   0  0  0  0  0  0  0  0  0  0  0  0
  145.2820   73.3500  221.0040 C   0  0  0  0  0  0  0  0  0  0  0  0
  144.4550   72.2610  220.8330 C   0  0  0  0  0  0  0  0  0  0  0  0
  143.2390   72.4050  220.2850 N   0  0  0  0  0  0  0  0  0  0  0  0
  142.7890   73.5950  219.8890 C   0  0  0  0  0  0  0  0  0  0  0  0
  140.0210   71.6370  222.8860 C   0  0  0  0  0  0  0  0  0  0  0  0
  139.4620   70.3850  222.7410 C   0  0  0  0  0  0  0  0  0  0  0  0
  139.4130   69.5000  223.8210 C   0  0  0  0  0  0  0  0  0  0  0  0
  139.9420   69.9140  225.0480 C   0  0  0  0  0  0  0  0  0  0  0  0
  139.9190   69.0800  226.1470 C   0  0  0  0  0  0  0  0  0  0  0  0
  140.4570   69.5430  227.3300 C   0  0  0  0  0  0  0  0  0  0  0  0
  140.4150   68.4580  228.7190 Cl  0  0  0  0  0  0  0  0  0  0  0  0
  141.0100   70.8020  227.4450 C   0  0  0  0  0  0  0  0  0  0  0  0
  141.0360   71.6490  226.3410 C   0  0  0  0  0  0  0  0  0  0  0  0
  140.4940   71.1730  225.1580 C   0  0  0  0  0  0  0  0  0  0  0  0
  140.5170   71.9840  224.0970 N   0  0  0  0  0  0  0  0  0  0  0  0
  139.8350   74.2650  223.0060 H   0  0  0  0  0  0  0  0  0  0  0  0
  140.2505   74.4628  219.9704 H   0  0  0  0  0  0  0  0  0  0  0  0
  139.0151   75.4473  220.8062 H   0  0  0  0  0  0  0  0  0  0  0  0
  140.9156   78.3876  220.7843 H   0  0  0  0  0  0  0  0  0  0  0  0
  142.7118   78.5227  220.7391 H   0  0  0  0  0  0  0  0  0  0  0  0
  140.7091   78.4620  218.5382 H   0  0  0  0  0  0  0  0  0  0  0  0
  142.2938   79.4048  218.7746 H   0  0  0  0  0  0  0  0  0  0  0  0
  141.9885   77.7038  216.8816 H   0  0  0  0  0  0  0  0  0  0  0  0
  143.5250   77.8976  217.8852 H   0  0  0  0  0  0  0  0  0  0  0  0
  141.4747   75.6752  218.1027 H   0  0  0  0  0  0  0  0  0  0  0  0
  143.1231   75.5300  217.4891 H   0  0  0  0  0  0  0  0  0  0  0  0
  143.9130   76.5887  219.7678 H   0  0  0  0  0  0  0  0  0  0  0  0
  145.4542   75.4508  220.7224 H   0  0  0  0  0  0  0  0  0  0  0  0
  146.2812   73.2456  221.4520 H   0  0  0  0  0  0  0  0  0  0  0  0
  144.7953   71.2638  221.1489 H   0  0  0  0  0  0  0  0  0  0  0  0
  141.7850   73.6678  219.4456 H   0  0  0  0  0  0  0  0  0  0  0  0
  139.0513   70.0804  221.7671 H   0  0  0  0  0  0  0  0  0  0  0  0
  138.9684   68.5001  223.7089 H   0  0  0  0  0  0  0  0  0  0  0  0
  139.4831   68.0722  226.0816 H   0  0  0  0  0  0  0  0  0  0  0  0
  141.4289   71.1351  228.4061 H   0  0  0  0  0  0  0  0  0  0  0  0
  141.4702   72.6577  226.4051 H   0  0  0  0  0  0  0  0  0  0  0  0
  1  2  2  0
  2  3  1  0
  3  4  1  0
  4  5  1  0
  5  6  2  0
  5  7  1  0
  7  8  1  0
  8  9  1  0
  9 10  1  0
 10 11  1  0
 11 12  1  0
 12 13  1  0
 13 14  2  0
 14 15  1  0
 15 16  2  0
 16 17  1  0
 17 18  2  0
  2 19  1  0
 19 20  2  0
 20 21  1  0
 21 22  2  0
 22 23  1  0
 23 24  2  0
 24 25  1  0
 24 26  1  0
 26 27  2  0
 27 28  1  0
 28 29  2  0
 12  7  1  0
 18 13  1  0
 29 19  1  0
 28 22  1  0
  3 30  1  0
  4 31  1  0
  4 32  1  0
  8 33  1  0
  8 34  1  0
  9 35  1  0
  9 36  1  0
 10 37  1  0
 10 38  1  0
 11 39  1  0
 11 40  1  0
 12 41  1  6
 14 42  1  0
 15 43  1  0
 16 44  1  0
 18 45  1  0
 20 46  1  0
 21 47  1  0
 23 48  1  0
 26 49  1  0
 27 50  1  0
M  END
>  <smiles>  (46) 
O=C(NCC(=O)N1CCCCC1c1cccnc1)c1ccc2cc(Cl)ccc2n1

>  <score_type>  (46) 
oracle

>  <origin>  (46) 
autodockgpu

>  <m_score__min__energy>  (46) 
-8.8599999999999994

>  <m_primary>  (46) 
energy

>  <rmsd>  (46) 
2.3590753176840944

>  <m_score__min__rmsd>  (46) 
2.3590753176840944

>  <meeko>  (46) 
{"free_energy": -8.32, "intermolecular_energy": -9.81, "internal_energy": -2.09, "cluster_size": 22, "cluster_id": 1, "rank_in_cluster": 12}

>  <energy>  (46) 
-8.35

>  <cluster_rmsd>  (46) 
0.0

>  <cluster>  (46) 
4

$$$$

     RDKit          3D

 50 53  0  0  0  0  0  0  0  0999 V2000
  139.3570   72.1040  220.7630 O   0  0  0  0  0  0  0  0  0  0  0  0
  139.4680   72.5550  221.9320 C   0  0  0  0  0  0  0  0  0  0  0  0
  139.4240   73.9410  222.2480 N   0  0  0  0  0  0  0  0  0  0  0  0
  139.2390   74.9580  221.1800 C   0  0  0  0  0  0  0  0  0  0  0  0
  138.6530   76.1570  221.7860 C   0  0  0  0  0  0  0  0  0  0  0  0
  138.3900   76.0640  223.0480 O   0  0  0  0  0  0  0  0  0  0  0  0
  138.3320   77.3850  221.2000 N   0  0  0  0  0  0  0  0  0  0  0  0
  137.0580   77.4460  220.4600 C   0  0  0  0  0  0  0  0  0  0  0  0
  137.2870   77.9820  219.0760 C   0  0  0  0  0  0  0  0  0  0  0  0
  138.3980   78.9330  218.8880 C   0  0  0  0  0  0  0  0  0  0  0  0
  139.6180   78.7010  219.7540 C   0  0  0  0  0  0  0  0  0  0  0  0
  139.0810   78.5990  221.1740 C   0  0  2  0  0  0  0  0  0  0  0  0
  140.0140   78.8670  222.2340 C   0  0  0  0  0  0  0  0  0  0  0  0
  140.9480   77.9870  222.7460 C   0  0  0  0  0  0  0  0  0  0  0  0
  141.8490   78.3170  223.7280 C   0  0  0  0  0  0  0  0  0  0  0  0
  141.8030   79.6050  224.2180 C   0  0  0  0  0  0  0  0  0  0  0  0
  140.9100   80.4860  223.7440 N   0  0  0  0  0  0  0  0  0  0  0  0
  140.0400   80.1530  222.7910 C   0  0  0  0  0  0  0  0  0  0  0  0
  139.6540   71.6000  223.0450 C   0  0  0  0  0  0  0  0  0  0  0  0
  139.3090   70.2730  222.8930 C   0  0  0  0  0  0  0  0  0  0  0  0
  139.4840   69.3690  223.9440 C   0  0  0  0  0  0  0  0  0  0  0  0
  140.0170   69.8420  225.1490 C   0  0  0  0  0  0  0  0  0  0  0  0
  140.2110   68.9920  226.2200 C   0  0  0  0  0  0  0  0  0  0  0  0
  140.7400   69.5160  227.3810 C   0  0  0  0  0  0  0  0  0  0  0  0
  140.9780   68.4090  228.7330 Cl  0  0  0  0  0  0  0  0  0  0  0  0
  141.0760   70.8490  227.5020 C   0  0  0  0  0  0  0  0  0  0  0  0
  140.8830   71.7110  226.4280 C   0  0  0  0  0  0  0  0  0  0  0  0
  140.3510   71.1740  225.2660 C   0  0  0  0  0  0  0  0  0  0  0  0
  140.1640   72.0000  224.2320 N   0  0  0  0  0  0  0  0  0  0  0  0
  139.5240   74.2260  223.2440 H   0  0  0  0  0  0  0  0  0  0  0  0
  140.2114   75.2058  220.7293 H   0  0  0  0  0  0  0  0  0  0  0  0
  138.5765   74.5671  220.3937 H   0  0  0  0  0  0  0  0  0  0  0  0
  136.6287   76.4355  220.3918 H   0  0  0  0  0  0  0  0  0  0  0  0
  136.3650   78.1134  220.9932 H   0  0  0  0  0  0  0  0  0  0  0  0
  137.4749   77.1217  218.4167 H   0  0  0  0  0  0  0  0  0  0  0  0
  136.3808   78.5620  218.8473 H   0  0  0  0  0  0  0  0  0  0  0  0
  138.7153   78.8776  217.8362 H   0  0  0  0  0  0  0  0  0  0  0  0
  138.0033   79.9158  219.1852 H   0  0  0  0  0  0  0  0  0  0  0  0
  140.1254   77.7688  219.4649 H   0  0  0  0  0  0  0  0  0  0  0  0
  140.3577   79.5084  219.6496 H   0  0  0  0  0  0  0  0  0  0  0  0
  138.4124   79.4363  221.4228 H   0  0  0  0  0  0  0  0  0  0  0  0
  140.9711   76.9634  222.3439 H   0  0  0  0  0  0  0  0  0  0  0  0
  142.5768   77.5848  224.1078 H   0  0  0  0  0  0  0  0  0  0  0  0
  142.5061   79.9131  225.0059 H   0  0  0  0  0  0  0  0  0  0  0  0
  139.3238   80.9068  222.4322 H   0  0  0  0  0  0  0  0  0  0  0  0
  138.8927   69.9237  221.9366 H   0  0  0  0  0  0  0  0  0  0  0  0
  139.2093   68.3103  223.8273 H   0  0  0  0  0  0  0  0  0  0  0  0
  139.9506   67.9256  226.1490 H   0  0  0  0  0  0  0  0  0  0  0  0
  141.4953   71.2286  228.4454 H   0  0  0  0  0  0  0  0  0  0  0  0
  141.1424   72.7777  226.4978 H   0  0  0  0  0  0  0  0  0  0  0  0
  1  2  2  0
  2  3  1  0
  3  4  1  0
  4  5  1  0
  5  6  2  0
  5  7  1  0
  7  8  1  0
  8  9  1  0
  9 10  1  0
 10 11  1  0
 11 12  1  0
 12 13  1  0
 13 14  2  0
 14 15  1  0
 15 16  2  0
 16 17  1  0
 17 18  2  0
  2 19  1  0
 19 20  2  0
 20 21  1  0
 21 22  2  0
 22 23  1  0
 23 24  2  0
 24 25  1  0
 24 26  1  0
 26 27  2  0
 27 28  1  0
 28 29  2  0
 12  7  1  0
 18 13  1  0
 29 19  1  0
 28 22  1  0
  3 30  1  0
  4 31  1  0
  4 32  1  0
  8 33  1  0
  8 34  1  0
  9 35  1  0
  9 36  1  0
 10 37  1  0
 10 38  1  0
 11 39  1  0
 11 40  1  0
 12 41  1  6
 14 42  1  0
 15 43  1  0
 16 44  1  0
 18 45  1  0
 20 46  1  0
 21 47  1  0
 23 48  1  0
 26 49  1  0
 27 50  1  0
M  END
>  <smiles>  (47) 
O=C(NCC(=O)N1CCCCC1c1cccnc1)c1ccc2cc(Cl)ccc2n1

>  <score_type>  (47) 
oracle

>  <origin>  (47) 
autodockgpu

>  <m_score__min__energy>  (47) 
-8.8599999999999994

>  <m_primary>  (47) 
energy

>  <rmsd>  (47) 
2.366354378245481

>  <m_score__min__rmsd>  (47) 
2.366354378245481

>  <meeko>  (47) 
{"free_energy": -7.42, "intermolecular_energy": -8.92, "internal_energy": -2.03, "cluster_size": 15, "cluster_id": 2, "rank_in_cluster": 15}

>  <energy>  (47) 
-8.19

>  <cluster_rmsd>  (47) 
0.58

>  <cluster>  (47) 
4

$$$$

     RDKit          3D

 50 53  0  0  0  0  0  0  0  0999 V2000
  140.4400   71.9750  220.5570 O   0  0  0  0  0  0  0  0  0  0  0  0
  140.2230   72.4740  221.6910 C   0  0  0  0  0  0  0  0  0  0  0  0
  140.0590   73.8670  221.9200 N   0  0  0  0  0  0  0  0  0  0  0  0
  140.1380   74.8370  220.7960 C   0  0  0  0  0  0  0  0  0  0  0  0
  140.8890   76.0090  221.2540 C   0  0  0  0  0  0  0  0  0  0  0  0
  140.6110   76.4080  222.4510 O   0  0  0  0  0  0  0  0  0  0  0  0
  141.8580   76.7620  220.5850 N   0  0  0  0  0  0  0  0  0  0  0  0
  141.8050   78.2230  220.7800 C   0  0  0  0  0  0  0  0  0  0  0  0
  141.7830   78.9240  219.4520 C   0  0  0  0  0  0  0  0  0  0  0  0
  142.4660   78.2660  218.3230 C   0  0  0  0  0  0  0  0  0  0  0  0
  142.4120   76.7530  218.3110 C   0  0  0  0  0  0  0  0  0  0  0  0
  142.8850   76.3300  219.6940 C   0  0  2  0  0  0  0  0  0  0  0  0
  143.3990   74.9920  219.8150 C   0  0  0  0  0  0  0  0  0  0  0  0
  142.8210   73.8440  219.3080 C   0  0  0  0  0  0  0  0  0  0  0  0
  143.3850   72.5970  219.4130 C   0  0  0  0  0  0  0  0  0  0  0  0
  144.5960   72.5060  220.0660 C   0  0  0  0  0  0  0  0  0  0  0  0
  145.1850   73.6000  220.5700 N   0  0  0  0  0  0  0  0  0  0  0  0
  144.6280   74.8060  220.4610 C   0  0  0  0  0  0  0  0  0  0  0  0
  140.1310   71.5680  222.8560 C   0  0  0  0  0  0  0  0  0  0  0  0
  139.5550   70.3210  222.7300 C   0  0  0  0  0  0  0  0  0  0  0  0
  139.4670   69.4640  223.8300 C   0  0  0  0  0  0  0  0  0  0  0  0
  139.9780   69.9000  225.0580 C   0  0  0  0  0  0  0  0  0  0  0  0
  139.9180   69.0950  226.1770 C   0  0  0  0  0  0  0  0  0  0  0  0
  140.4380   69.5790  227.3590 C   0  0  0  0  0  0  0  0  0  0  0  0
  140.3480   68.5300  228.7730 Cl  0  0  0  0  0  0  0  0  0  0  0  0
  141.0090   70.8320  227.4540 C   0  0  0  0  0  0  0  0  0  0  0  0
  141.0730   71.6500  226.3310 C   0  0  0  0  0  0  0  0  0  0  0  0
  140.5480   71.1520  225.1480 C   0  0  0  0  0  0  0  0  0  0  0  0
  140.6080   71.9360  224.0680 N   0  0  0  0  0  0  0  0  0  0  0  0
  139.8820   74.1930  222.8930 H   0  0  0  0  0  0  0  0  0  0  0  0
  140.6537   74.3751  219.9412 H   0  0  0  0  0  0  0  0  0  0  0  0
  139.1274   75.1337  220.4787 H   0  0  0  0  0  0  0  0  0  0  0  0
  140.8956   78.4816  221.3423 H   0  0  0  0  0  0  0  0  0  0  0  0
  142.6966   78.5426  221.3394 H   0  0  0  0  0  0  0  0  0  0  0  0
  140.7289   79.0568  219.1671 H   0  0  0  0  0  0  0  0  0  0  0  0
  142.3469   79.8540  219.6169 H   0  0  0  0  0  0  0  0  0  0  0  0
  142.0043   78.6275  217.3923 H   0  0  0  0  0  0  0  0  0  0  0  0
  143.5299   78.5259  218.4252 H   0  0  0  0  0  0  0  0  0  0  0  0
  141.3844   76.4044  218.1307 H   0  0  0  0  0  0  0  0  0  0  0  0
  143.0353   76.3241  217.5125 H   0  0  0  0  0  0  0  0  0  0  0  0
  143.8291   76.8198  219.9747 H   0  0  0  0  0  0  0  0  0  0  0  0
  141.8543   73.9345  218.7910 H   0  0  0  0  0  0  0  0  0  0  0  0
  142.8916   71.7077  218.9938 H   0  0  0  0  0  0  0  0  0  0  0  0
  145.0838   71.5261  220.1745 H   0  0  0  0  0  0  0  0  0  0  0  0
  145.1462   75.6768  220.8889 H   0  0  0  0  0  0  0  0  0  0  0  0
  139.1614   69.9984  221.7548 H   0  0  0  0  0  0  0  0  0  0  0  0
  139.0068   68.4696  223.7332 H   0  0  0  0  0  0  0  0  0  0  0  0
  139.4670   68.0929  226.1276 H   0  0  0  0  0  0  0  0  0  0  0  0
  141.4124   71.1827  228.4154 H   0  0  0  0  0  0  0  0  0  0  0  0
  141.5225   72.6528  226.3793 H   0  0  0  0  0  0  0  0  0  0  0  0
  1  2  2  0
  2  3  1  0
  3  4  1  0
  4  5  1  0
  5  6  2  0
  5  7  1  0
  7  8  1  0
  8  9  1  0
  9 10  1  0
 10 11  1  0
 11 12  1  0
 12 13  1  0
 13 14  2  0
 14 15  1  0
 15 16  2  0
 16 17  1  0
 17 18  2  0
  2 19  1  0
 19 20  2  0
 20 21  1  0
 21 22  2  0
 22 23  1  0
 23 24  2  0
 24 25  1  0
 24 26  1  0
 26 27  2  0
 27 28  1  0
 28 29  2  0
 12  7  1  0
 18 13  1  0
 29 19  1  0
 28 22  1  0
  3 30  1  0
  4 31  1  0
  4 32  1  0
  8 33  1  0
  8 34  1  0
  9 35  1  0
  9 36  1  0
 10 37  1  0
 10 38  1  0
 11 39  1  0
 11 40  1  0
 12 41  1  1
 14 42  1  0
 15 43  1  0
 16 44  1  0
 18 45  1  0
 20 46  1  0
 21 47  1  0
 23 48  1  0
 26 49  1  0
 27 50  1  0
M  END
>  <smiles>  (48) 
O=C(NCC(=O)N1CCCCC1c1cccnc1)c1ccc2cc(Cl)ccc2n1

>  <score_type>  (48) 
oracle

>  <origin>  (48) 
autodockgpu

>  <m_score__min__energy>  (48) 
-8.8599999999999994

>  <m_primary>  (48) 
energy

>  <rmsd>  (48) 
2.459491521182526

>  <m_score__min__rmsd>  (48) 
2.459491521182526

>  <meeko>  (48) 
{"free_energy": -8.07, "intermolecular_energy": -9.56, "internal_energy": -2.1, "cluster_size": 22, "cluster_id": 1, "rank_in_cluster": 16}

>  <energy>  (48) 
-8.19

>  <cluster_rmsd>  (48) 
0.0

>  <cluster>  (48) 
5

$$$$

     RDKit          3D

 50 53  0  0  0  0  0  0  0  0999 V2000
  139.8490   71.4210  220.2440 O   0  0  0  0  0  0  0  0  0  0  0  0
  140.1880   71.9390  221.3380 C   0  0  0  0  0  0  0  0  0  0  0  0
  140.6900   73.2640  221.4600 N   0  0  0  0  0  0  0  0  0  0  0  0
  140.8440   74.1310  220.2620 C   0  0  0  0  0  0  0  0  0  0  0  0
  141.6130   75.3170  220.6500 C   0  0  0  0  0  0  0  0  0  0  0  0
  141.4820   75.6790  221.8840 O   0  0  0  0  0  0  0  0  0  0  0  0
  142.4630   76.1170  219.8830 N   0  0  0  0  0  0  0  0  0  0  0  0
  142.1130   77.5470  219.7890 C   0  0  0  0  0  0  0  0  0  0  0  0
  142.0530   77.9740  218.3500 C   0  0  0  0  0  0  0  0  0  0  0  0
  142.9310   77.2750  217.3950 C   0  0  0  0  0  0  0  0  0  0  0  0
  143.1740   75.8070  217.6750 C   0  0  0  0  0  0  0  0  0  0  0  0
  143.6170   75.7500  219.1290 C   0  0  2  0  0  0  0  0  0  0  0  0
  144.3710   74.5910  219.5250 C   0  0  0  0  0  0  0  0  0  0  0  0
  144.5890   74.1590  220.8200 C   0  0  0  0  0  0  0  0  0  0  0  0
  145.2780   73.0140  221.1350 C   0  0  0  0  0  0  0  0  0  0  0  0
  145.7710   72.2660  220.0870 C   0  0  0  0  0  0  0  0  0  0  0  0
  145.5760   72.6550  218.8180 N   0  0  0  0  0  0  0  0  0  0  0  0
  144.9060   73.7690  218.5250 C   0  0  0  0  0  0  0  0  0  0  0  0
  140.0600   71.1350  222.5720 C   0  0  0  0  0  0  0  0  0  0  0  0
  139.3660   69.9430  222.5620 C   0  0  0  0  0  0  0  0  0  0  0  0
  139.2450   69.1820  223.7270 C   0  0  0  0  0  0  0  0  0  0  0  0
  139.8440   69.6560  224.9000 C   0  0  0  0  0  0  0  0  0  0  0  0
  139.7550   68.9450  226.0790 C   0  0  0  0  0  0  0  0  0  0  0  0
  140.3660   69.4630  227.2020 C   0  0  0  0  0  0  0  0  0  0  0  0
  140.2380   68.5340  228.6950 Cl  0  0  0  0  0  0  0  0  0  0  0  0
  141.0550   70.6590  227.1810 C   0  0  0  0  0  0  0  0  0  0  0  0
  141.1480   71.3820  225.9960 C   0  0  0  0  0  0  0  0  0  0  0  0
  140.5310   70.8510  224.8740 C   0  0  0  0  0  0  0  0  0  0  0  0
  140.6190   71.5440  223.7350 N   0  0  0  0  0  0  0  0  0  0  0  0
  140.9460   73.6130  222.4060 H   0  0  0  0  0  0  0  0  0  0  0  0
  141.3783   73.5829  219.4720 H   0  0  0  0  0  0  0  0  0  0  0  0
  139.8566   74.4275  219.8784 H   0  0  0  0  0  0  0  0  0  0  0  0
  141.1319   77.7123  220.2581 H   0  0  0  0  0  0  0  0  0  0  0  0
  142.8820   78.1390  220.3068 H   0  0  0  0  0  0  0  0  0  0  0  0
  141.0169   77.8342  218.0079 H   0  0  0  0  0  0  0  0  0  0  0  0
  142.4123   79.0136  218.3513 H   0  0  0  0  0  0  0  0  0  0  0  0
  142.4767   77.3573  216.3966 H   0  0  0  0  0  0  0  0  0  0  0  0
  143.9136   77.7619  217.4815 H   0  0  0  0  0  0  0  0  0  0  0  0
  142.2502   75.2279  217.5296 H   0  0  0  0  0  0  0  0  0  0  0  0
  143.9262   75.3768  216.9974 H   0  0  0  0  0  0  0  0  0  0  0  0
  144.4242   76.4663  219.3420 H   0  0  0  0  0  0  0  0  0  0  0  0
  144.1879   74.7668  221.6444 H   0  0  0  0  0  0  0  0  0  0  0  0
  145.4303   72.7062  222.1800 H   0  0  0  0  0  0  0  0  0  0  0  0
  146.3297   71.3412  220.2934 H   0  0  0  0  0  0  0  0  0  0  0  0
  144.7695   74.0503  217.4704 H   0  0  0  0  0  0  0  0  0  0  0  0
  138.9040   69.5887  221.6287 H   0  0  0  0  0  0  0  0  0  0  0  0
  138.6914   68.2315  223.7228 H   0  0  0  0  0  0  0  0  0  0  0  0
  139.2110   67.9899  226.1223 H   0  0  0  0  0  0  0  0  0  0  0  0
  141.5289   71.0391  228.0980 H   0  0  0  0  0  0  0  0  0  0  0  0
  141.6902   72.3381  225.9512 H   0  0  0  0  0  0  0  0  0  0  0  0
  1  2  2  0
  2  3  1  0
  3  4  1  0
  4  5  1  0
  5  6  2  0
  5  7  1  0
  7  8  1  0
  8  9  1  0
  9 10  1  0
 10 11  1  0
 11 12  1  0
 12 13  1  0
 13 14  2  0
 14 15  1  0
 15 16  2  0
 16 17  1  0
 17 18  2  0
  2 19  1  0
 19 20  2  0
 20 21  1  0
 21 22  2  0
 22 23  1  0
 23 24  2  0
 24 25  1  0
 24 26  1  0
 26 27  2  0
 27 28  1  0
 28 29  2  0
 12  7  1  0
 18 13  1  0
 29 19  1  0
 28 22  1  0
  3 30  1  0
  4 31  1  0
  4 32  1  0
  8 33  1  0
  8 34  1  0
  9 35  1  0
  9 36  1  0
 10 37  1  0
 10 38  1  0
 11 39  1  0
 11 40  1  0
 12 41  1  6
 14 42  1  0
 15 43  1  0
 16 44  1  0
 18 45  1  0
 20 46  1  0
 21 47  1  0
 23 48  1  0
 26 49  1  0
 27 50  1  0
M  END
>  <smiles>  (49) 
O=C(NCC(=O)N1CCCCC1c1cccnc1)c1ccc2cc(Cl)ccc2n1

>  <score_type>  (49) 
oracle

>  <origin>  (49) 
autodockgpu

>  <m_score__min__energy>  (49) 
-8.8599999999999994

>  <m_primary>  (49) 
energy

>  <rmsd>  (49) 
2.4785585688113314

>  <m_score__min__rmsd>  (49) 
2.4785585688113314

>  <meeko>  (49) 
{"free_energy": -8.04, "intermolecular_energy": -9.53, "internal_energy": -2.22, "cluster_size": 22, "cluster_id": 1, "rank_in_cluster": 17}

>  <energy>  (49) 
-8.19

>  <cluster_rmsd>  (49) 
0.54

>  <cluster>  (49) 
5

$$$$

     RDKit          3D

 50 53  0  0  0  0  0  0  0  0999 V2000
  139.3910   71.9200  220.5020 O   0  0  0  0  0  0  0  0  0  0  0  0
  139.7910   72.3840  221.6000 C   0  0  0  0  0  0  0  0  0  0  0  0
  140.2380   73.7230  221.7720 N   0  0  0  0  0  0  0  0  0  0  0  0
  140.2550   74.6720  220.6280 C   0  0  0  0  0  0  0  0  0  0  0  0
  141.1470   75.7840  220.9680 C   0  0  0  0  0  0  0  0  0  0  0  0
  141.0610   76.2060  222.1860 O   0  0  0  0  0  0  0  0  0  0  0  0
  142.0720   76.4590  220.1670 N   0  0  0  0  0  0  0  0  0  0  0  0
  141.8750   77.9130  220.0190 C   0  0  0  0  0  0  0  0  0  0  0  0
  141.8520   78.2890  218.5650 C   0  0  0  0  0  0  0  0  0  0  0  0
  142.6440   77.4640  217.6360 C   0  0  0  0  0  0  0  0  0  0  0  0
  142.7320   75.9910  217.9710 C   0  0  0  0  0  0  0  0  0  0  0  0
  143.1760   75.9420  219.4260 C   0  0  2  0  0  0  0  0  0  0  0  0
  143.8040   74.7260  219.8650 C   0  0  0  0  0  0  0  0  0  0  0  0
  145.0250   74.6190  220.5040 C   0  0  0  0  0  0  0  0  0  0  0  0
  145.5520   73.4300  220.9450 C   0  0  0  0  0  0  0  0  0  0  0  0
  144.8070   72.2910  220.7290 C   0  0  0  0  0  0  0  0  0  0  0  0
  143.6180   72.3580  220.1130 N   0  0  0  0  0  0  0  0  0  0  0  0
  143.1160   73.5180  219.6890 C   0  0  0  0  0  0  0  0  0  0  0  0
  139.8010   71.4970  222.7830 C   0  0  0  0  0  0  0  0  0  0  0  0
  139.2280   70.2440  222.7230 C   0  0  0  0  0  0  0  0  0  0  0  0
  139.2360   69.4050  223.8400 C   0  0  0  0  0  0  0  0  0  0  0  0
  139.8400   69.8650  225.0160 C   0  0  0  0  0  0  0  0  0  0  0  0
  139.8760   69.0770  226.1490 C   0  0  0  0  0  0  0  0  0  0  0  0
  140.4840   69.5850  227.2770 C   0  0  0  0  0  0  0  0  0  0  0  0
  140.5170   68.5580  228.7110 Cl  0  0  0  0  0  0  0  0  0  0  0  0
  141.0500   70.8430  227.3070 C   0  0  0  0  0  0  0  0  0  0  0  0
  141.0170   71.6440  226.1690 C   0  0  0  0  0  0  0  0  0  0  0  0
  140.4030   71.1230  225.0410 C   0  0  0  0  0  0  0  0  0  0  0  0
  140.3690   71.8890  223.9470 N   0  0  0  0  0  0  0  0  0  0  0  0
  140.5520   74.0240  222.7180 H   0  0  0  0  0  0  0  0  0  0  0  0
  140.6237   74.1614  219.7262 H   0  0  0  0  0  0  0  0  0  0  0  0
  139.2398   75.0464  220.4301 H   0  0  0  0  0  0  0  0  0  0  0  0
  140.9197   78.1992  220.4833 H   0  0  0  0  0  0  0  0  0  0  0  0
  142.7054   78.4393  220.5123 H   0  0  0  0  0  0  0  0  0  0  0  0
  140.8048   78.2483  218.2308 H   0  0  0  0  0  0  0  0  0  0  0  0
  142.3205   79.2834  218.5255 H   0  0  0  0  0  0  0  0  0  0  0  0
  142.1943   77.5560  216.6364 H   0  0  0  0  0  0  0  0  0  0  0  0
  143.6733   77.8463  217.7019 H   0  0  0  0  0  0  0  0  0  0  0  0
  141.7511   75.5080  217.8499 H   0  0  0  0  0  0  0  0  0  0  0  0
  143.4301   75.4583  217.3085 H   0  0  0  0  0  0  0  0  0  0  0  0
  144.0569   76.5746  219.6097 H   0  0  0  0  0  0  0  0  0  0  0  0
  145.6072   75.5377  220.6685 H   0  0  0  0  0  0  0  0  0  0  0  0
  146.5285   73.3885  221.4498 H   0  0  0  0  0  0  0  0  0  0  0  0
  145.1917   71.3169  221.0654 H   0  0  0  0  0  0  0  0  0  0  0  0
  142.1367   73.5271  219.1882 H   0  0  0  0  0  0  0  0  0  0  0  0
  138.7607   69.9023  221.7877 H   0  0  0  0  0  0  0  0  0  0  0  0
  138.7781   68.4058  223.7964 H   0  0  0  0  0  0  0  0  0  0  0  0
  139.4315   68.0708  226.1515 H   0  0  0  0  0  0  0  0  0  0  0  0
  141.5259   71.2119  228.2276 H   0  0  0  0  0  0  0  0  0  0  0  0
  141.4606   72.6506  226.1652 H   0  0  0  0  0  0  0  0  0  0  0  0
  1  2  2  0
  2  3  1  0
  3  4  1  0
  4  5  1  0
  5  6  2  0
  5  7  1  0
  7  8  1  0
  8  9  1  0
  9 10  1  0
 10 11  1  0
 11 12  1  0
 12 13  1  0
 13 14  2  0
 14 15  1  0
 15 16  2  0
 16 17  1  0
 17 18  2  0
  2 19  1  0
 19 20  2  0
 20 21  1  0
 21 22  2  0
 22 23  1  0
 23 24  2  0
 24 25  1  0
 24 26  1  0
 26 27  2  0
 27 28  1  0
 28 29  2  0
 12  7  1  0
 18 13  1  0
 29 19  1  0
 28 22  1  0
  3 30  1  0
  4 31  1  0
  4 32  1  0
  8 33  1  0
  8 34  1  0
  9 35  1  0
  9 36  1  0
 10 37  1  0
 10 38  1  0
 11 39  1  0
 11 40  1  0
 12 41  1  6
 14 42  1  0
 15 43  1  0
 16 44  1  0
 18 45  1  0
 20 46  1  0
 21 47  1  0
 23 48  1  0
 26 49  1  0
 27 50  1  0
M  END
>  <smiles>  (50) 
O=C(NCC(=O)N1CCCCC1c1cccnc1)c1ccc2cc(Cl)ccc2n1

>  <score_type>  (50) 
oracle

>  <origin>  (50) 
autodockgpu

>  <m_score__min__energy>  (50) 
-8.8599999999999994

>  <m_primary>  (50) 
energy

>  <rmsd>  (50) 
2.3472963356224015

>  <m_score__min__rmsd>  (50) 
2.3472963356224015

>  <meeko>  (50) 
{"free_energy": -7.97, "intermolecular_energy": -9.46, "internal_energy": -2.22, "cluster_size": 22, "cluster_id": 1, "rank_in_cluster": 19}

>  <energy>  (50) 
-8.19

>  <cluster_rmsd>  (50) 
0.54

>  <cluster>  (50) 
5

$$$$

     RDKit          3D

 50 53  0  0  0  0  0  0  0  0999 V2000
  138.4920   72.2040  221.0590 O   0  0  0  0  0  0  0  0  0  0  0  0
  139.3410   72.4490  221.9720 C   0  0  0  0  0  0  0  0  0  0  0  0
  140.1400   73.6320  221.9410 N   0  0  0  0  0  0  0  0  0  0  0  0
  140.0280   74.6070  220.8730 C   0  0  0  0  0  0  0  0  0  0  0  0
  141.1560   75.5650  220.8780 C   0  0  0  0  0  0  0  0  0  0  0  0
  142.3600   75.1650  220.8310 O   0  0  0  0  0  0  0  0  0  0  0  0
  140.8370   76.9490  220.9400 N   0  0  0  0  0  0  0  0  0  0  0  0
  139.5070   77.4370  221.2860 C   0  0  0  0  0  0  0  0  0  0  0  0
  139.1020   78.4810  220.2840 C   0  0  0  0  0  0  0  0  0  0  0  0
  139.9740   78.5630  219.0750 C   0  0  0  0  0  0  0  0  0  0  0  0
  141.4460   78.5600  219.3390 C   0  0  0  0  0  0  0  0  0  0  0  0
  141.8380   77.9830  220.6560 C   0  0  1  0  0  0  0  0  0  0  0  0
  141.8180   78.9000  221.7930 C   0  0  0  0  0  0  0  0  0  0  0  0
  141.8460   80.2600  221.5380 C   0  0  0  0  0  0  0  0  0  0  0  0
  141.8290   81.1840  222.5770 C   0  0  0  0  0  0  0  0  0  0  0  0
  141.7860   80.7610  223.9060 C   0  0  0  0  0  0  0  0  0  0  0  0
  141.7600   79.4290  224.1150 N   0  0  0  0  0  0  0  0  0  0  0  0
  141.7750   78.5240  223.1180 C   0  0  0  0  0  0  0  0  0  0  0  0
  139.5110   71.5060  223.0920 C   0  0  0  0  0  0  0  0  0  0  0  0
  139.0180   70.2230  222.9680 C   0  0  0  0  0  0  0  0  0  0  0  0
  139.1810   69.3330  224.0260 C   0  0  0  0  0  0  0  0  0  0  0  0
  139.8420   69.7830  225.1740 C   0  0  0  0  0  0  0  0  0  0  0  0
  140.0070   68.8930  226.2350 C   0  0  0  0  0  0  0  0  0  0  0  0
  140.6650   69.3230  227.3910 C   0  0  0  0  0  0  0  0  0  0  0  0
  140.8810   68.2030  228.7460 Cl  0  0  0  0  0  0  0  0  0  0  0  0
  141.1360   70.6190  227.4520 C   0  0  0  0  0  0  0  0  0  0  0  0
  140.9800   71.5160  226.4050 C   0  0  0  0  0  0  0  0  0  0  0  0
  140.3260   71.0740  225.2690 C   0  0  0  0  0  0  0  0  0  0  0  0
  140.1420   71.8940  224.2160 N   0  0  0  0  0  0  0  0  0  0  0  0
  140.8260   73.7650  222.7420 H   0  0  0  0  0  0  0  0  0  0  0  0
  140.0154   74.0779  219.9087 H   0  0  0  0  0  0  0  0  0  0  0  0
  139.0985   75.1749  221.0267 H   0  0  0  0  0  0  0  0  0  0  0  0
  138.7893   76.6037  221.2632 H   0  0  0  0  0  0  0  0  0  0  0  0
  139.5179   77.8712  222.2966 H   0  0  0  0  0  0  0  0  0  0  0  0
  138.0776   78.2568  219.9520 H   0  0  0  0  0  0  0  0  0  0  0  0
  139.1913   79.4508  220.7954 H   0  0  0  0  0  0  0  0  0  0  0  0
  139.7436   77.7005  218.4323 H   0  0  0  0  0  0  0  0  0  0  0  0
  139.7535   79.5353  218.6101 H   0  0  0  0  0  0  0  0  0  0  0  0
  141.9355   77.9732  218.5478 H   0  0  0  0  0  0  0  0  0  0  0  0
  141.7628   79.6133  219.3529 H   0  0  0  0  0  0  0  0  0  0  0  0
  142.8807   77.6460  220.5601 H   0  0  0  0  0  0  0  0  0  0  0  0
  141.8822   80.6154  220.4976 H   0  0  0  0  0  0  0  0  0  0  0  0
  141.8497   82.2599  222.3488 H   0  0  0  0  0  0  0  0  0  0  0  0
  141.7739   81.4775  224.7406 H   0  0  0  0  0  0  0  0  0  0  0  0
  141.7523   77.4532  223.3686 H   0  0  0  0  0  0  0  0  0  0  0  0
  138.5043   69.9085  222.0476 H   0  0  0  0  0  0  0  0  0  0  0  0
  138.8001   68.3031  223.9611 H   0  0  0  0  0  0  0  0  0  0  0  0
  139.6238   67.8644  226.1630 H   0  0  0  0  0  0  0  0  0  0  0  0
  141.6537   70.9527  228.3634 H   0  0  0  0  0  0  0  0  0  0  0  0
  141.3636   72.5445  226.4759 H   0  0  0  0  0  0  0  0  0  0  0  0
  1  2  2  0
  2  3  1  0
  3  4  1  0
  4  5  1  0
  5  6  2  0
  5  7  1  0
  7  8  1  0
  8  9  1  0
  9 10  1  0
 10 11  1  0
 11 12  1  0
 12 13  1  0
 13 14  2  0
 14 15  1  0
 15 16  2  0
 16 17  1  0
 17 18  2  0
  2 19  1  0
 19 20  2  0
 20 21  1  0
 21 22  2  0
 22 23  1  0
 23 24  2  0
 24 25  1  0
 24 26  1  0
 26 27  2  0
 27 28  1  0
 28 29  2  0
 12  7  1  0
 18 13  1  0
 29 19  1  0
 28 22  1  0
  3 30  1  0
  4 31  1  0
  4 32  1  0
  8 33  1  0
  8 34  1  0
  9 35  1  0
  9 36  1  0
 10 37  1  0
 10 38  1  0
 11 39  1  0
 11 40  1  0
 12 41  1  6
 14 42  1  0
 15 43  1  0
 16 44  1  0
 18 45  1  0
 20 46  1  0
 21 47  1  0
 23 48  1  0
 26 49  1  0
 27 50  1  0
M  END
>  <smiles>  (51) 
O=C(NCC(=O)N1CCCCC1c1cccnc1)c1ccc2cc(Cl)ccc2n1

>  <score_type>  (51) 
oracle

>  <origin>  (51) 
autodockgpu

>  <m_score__min__energy>  (51) 
-8.7100000000000009

>  <m_primary>  (51) 
energy

>  <rmsd>  (51) 
2.175594625701099

>  <m_score__min__rmsd>  (51) 
2.175594625701099

>  <meeko>  (51) 
{"free_energy": -7.87, "intermolecular_energy": -9.36, "internal_energy": -1.54, "cluster_size": 38, "cluster_id": 1, "rank_in_cluster": 35}

>  <energy>  (51) 
-8.71

>  <cluster_rmsd>  (51) 
0.0

>  <cluster>  (51) 
1

$$$$

     RDKit          3D

 50 53  0  0  0  0  0  0  0  0999 V2000
  139.7720   72.2550  220.7920 O   0  0  0  0  0  0  0  0  0  0  0  0
  139.7280   72.6450  222.0000 C   0  0  0  0  0  0  0  0  0  0  0  0
  139.5650   74.0250  222.3260 N   0  0  0  0  0  0  0  0  0  0  0  0
  139.4440   75.0470  221.3030 C   0  0  0  0  0  0  0  0  0  0  0  0
  140.7170   75.7690  221.0890 C   0  0  0  0  0  0  0  0  0  0  0  0
  141.8220   75.1490  221.0140 O   0  0  0  0  0  0  0  0  0  0  0  0
  140.6540   77.1850  220.9740 N   0  0  0  0  0  0  0  0  0  0  0  0
  139.4070   77.9310  221.0960 C   0  0  0  0  0  0  0  0  0  0  0  0
  139.3140   78.9010  219.9520 C   0  0  0  0  0  0  0  0  0  0  0  0
  140.3130   78.6890  218.8640 C   0  0  0  0  0  0  0  0  0  0  0  0
  141.7210   78.4650  219.3150 C   0  0  0  0  0  0  0  0  0  0  0  0
  141.8530   77.9910  220.7220 C   0  0  1  0  0  0  0  0  0  0  0  0
  141.8780   79.0270  221.7510 C   0  0  0  0  0  0  0  0  0  0  0  0
  141.8000   78.6350  223.0770 C   0  0  0  0  0  0  0  0  0  0  0  0
  141.8190   79.5730  224.1030 C   0  0  0  0  0  0  0  0  0  0  0  0
  141.9160   80.9360  223.8210 C   0  0  0  0  0  0  0  0  0  0  0  0
  141.9900   81.2790  222.5200 N   0  0  0  0  0  0  0  0  0  0  0  0
  141.9730   80.3820  221.5160 C   0  0  0  0  0  0  0  0  0  0  0  0
  139.8440   71.6660  223.0950 C   0  0  0  0  0  0  0  0  0  0  0  0
  139.4370   70.3650  222.8760 C   0  0  0  0  0  0  0  0  0  0  0  0
  139.5480   69.4410  223.9110 C   0  0  0  0  0  0  0  0  0  0  0  0
  140.0690   69.8760  225.1350 C   0  0  0  0  0  0  0  0  0  0  0  0
  140.1820   68.9520  226.1730 C   0  0  0  0  0  0  0  0  0  0  0  0
  140.7010   69.3660  227.4030 C   0  0  0  0  0  0  0  0  0  0  0  0
  140.8480   68.2030  228.7310 Cl  0  0  0  0  0  0  0  0  0  0  0  0
  141.0900   70.6820  227.5580 C   0  0  0  0  0  0  0  0  0  0  0  0
  140.9850   71.6120  226.5350 C   0  0  0  0  0  0  0  0  0  0  0  0
  140.4690   71.1850  225.3240 C   0  0  0  0  0  0  0  0  0  0  0  0
  140.3410   72.0380  224.2900 N   0  0  0  0  0  0  0  0  0  0  0  0
  139.5370   74.2710  223.3600 H   0  0  0  0  0  0  0  0  0  0  0  0
  139.1427   74.5704  220.3585 H   0  0  0  0  0  0  0  0  0  0  0  0
  138.6916   75.7761  221.6379 H   0  0  0  0  0  0  0  0  0  0  0  0
  138.5549   77.2362  221.0628 H   0  0  0  0  0  0  0  0  0  0  0  0
  139.3867   78.4747  222.0520 H   0  0  0  0  0  0  0  0  0  0  0  0
  138.3087   78.8166  219.5136 H   0  0  0  0  0  0  0  0  0  0  0  0
  139.5240   79.8951  220.3734 H   0  0  0  0  0  0  0  0  0  0  0  0
  139.9995   77.8090  218.2833 H   0  0  0  0  0  0  0  0  0  0  0  0
  140.3279   79.6228  218.2828 H   0  0  0  0  0  0  0  0  0  0  0  0
  142.1772   77.7125  218.6550 H   0  0  0  0  0  0  0  0  0  0  0  0
  142.2235   79.4423  219.2664 H   0  0  0  0  0  0  0  0  0  0  0  0
  142.8198   77.4714  220.7954 H   0  0  0  0  0  0  0  0  0  0  0  0
  141.7218   77.5655  223.3221 H   0  0  0  0  0  0  0  0  0  0  0  0
  141.7569   79.2369  225.1485 H   0  0  0  0  0  0  0  0  0  0  0  0
  141.9313   81.6920  224.6199 H   0  0  0  0  0  0  0  0  0  0  0  0
  142.0368   80.7408  220.4781 H   0  0  0  0  0  0  0  0  0  0  0  0
  139.0314   70.0635  221.8990 H   0  0  0  0  0  0  0  0  0  0  0  0
  139.2344   68.3960  223.7706 H   0  0  0  0  0  0  0  0  0  0  0  0
  139.8662   67.9087  226.0256 H   0  0  0  0  0  0  0  0  0  0  0  0
  141.4977   71.0039  228.5276 H   0  0  0  0  0  0  0  0  0  0  0  0
  141.3016   72.6553  226.6812 H   0  0  0  0  0  0  0  0  0  0  0  0
  1  2  2  0
  2  3  1  0
  3  4  1  0
  4  5  1  0
  5  6  2  0
  5  7  1  0
  7  8  1  0
  8  9  1  0
  9 10  1  0
 10 11  1  0
 11 12  1  0
 12 13  1  0
 13 14  2  0
 14 15  1  0
 15 16  2  0
 16 17  1  0
 17 18  2  0
  2 19  1  0
 19 20  2  0
 20 21  1  0
 21 22  2  0
 22 23  1  0
 23 24  2  0
 24 25  1  0
 24 26  1  0
 26 27  2  0
 27 28  1  0
 28 29  2  0
 12  7  1  0
 18 13  1  0
 29 19  1  0
 28 22  1  0
  3 30  1  0
  4 31  1  0
  4 32  1  0
  8 33  1  0
  8 34  1  0
  9 35  1  0
  9 36  1  0
 10 37  1  0
 10 38  1  0
 11 39  1  0
 11 40  1  0
 12 41  1  6
 14 42  1  0
 15 43  1  0
 16 44  1  0
 18 45  1  0
 20 46  1  0
 21 47  1  0
 23 48  1  0
 26 49  1  0
 27 50  1  0
M  END
>  <smiles>  (52) 
O=C(NCC(=O)N1CCCCC1c1cccnc1)c1ccc2cc(Cl)ccc2n1

>  <score_type>  (52) 
oracle

>  <origin>  (52) 
autodockgpu

>  <m_score__min__energy>  (52) 
-8.7100000000000009

>  <m_primary>  (52) 
energy

>  <rmsd>  (52) 
2.1996534112192374

>  <m_score__min__rmsd>  (52) 
2.1996534112192374

>  <meeko>  (52) 
{"free_energy": -8.53, "intermolecular_energy": -10.02, "internal_energy": -1.49, "cluster_size": 38, "cluster_id": 1, "rank_in_cluster": 20}

>  <energy>  (52) 
-8.64

>  <cluster_rmsd>  (52) 
0.23

>  <cluster>  (52) 
1

$$$$

     RDKit          3D

 50 53  0  0  0  0  0  0  0  0999 V2000
  139.9160   72.0930  220.7850 O   0  0  0  0  0  0  0  0  0  0  0  0
  139.8140   72.4980  221.9860 C   0  0  0  0  0  0  0  0  0  0  0  0
  139.6220   73.8800  222.2850 N   0  0  0  0  0  0  0  0  0  0  0  0
  139.5340   74.8880  221.2450 C   0  0  0  0  0  0  0  0  0  0  0  0
  140.7790   75.6810  221.1370 C   0  0  0  0  0  0  0  0  0  0  0  0
  141.9130   75.1180  221.0510 O   0  0  0  0  0  0  0  0  0  0  0  0
  140.6520   77.0960  221.1340 N   0  0  0  0  0  0  0  0  0  0  0  0
  139.4020   77.7770  221.4500 C   0  0  0  0  0  0  0  0  0  0  0  0
  139.1430   78.8200  220.3990 C   0  0  0  0  0  0  0  0  0  0  0  0
  140.0160   78.7270  219.1930 C   0  0  0  0  0  0  0  0  0  0  0  0
  141.4740   78.5340  219.4640 C   0  0  0  0  0  0  0  0  0  0  0  0
  141.7850   77.9700  220.8080 C   0  0  1  0  0  0  0  0  0  0  0  0
  141.8920   78.9320  221.9020 C   0  0  0  0  0  0  0  0  0  0  0  0
  142.0450   80.2710  221.5840 C   0  0  0  0  0  0  0  0  0  0  0  0
  142.1530   81.2350  222.5800 C   0  0  0  0  0  0  0  0  0  0  0  0
  142.1110   80.8760  223.9270 C   0  0  0  0  0  0  0  0  0  0  0  0
  141.9610   79.5640  224.1970 N   0  0  0  0  0  0  0  0  0  0  0  0
  141.8550   78.6190  223.2440 C   0  0  0  0  0  0  0  0  0  0  0  0
  139.8920   71.5350  223.0980 C   0  0  0  0  0  0  0  0  0  0  0  0
  139.4490   70.2420  222.8970 C   0  0  0  0  0  0  0  0  0  0  0  0
  139.5250   69.3340  223.9490 C   0  0  0  0  0  0  0  0  0  0  0  0
  140.0490   69.7730  225.1690 C   0  0  0  0  0  0  0  0  0  0  0  0
  140.1260   68.8650  226.2230 C   0  0  0  0  0  0  0  0  0  0  0  0
  140.6470   69.2840  227.4510 C   0  0  0  0  0  0  0  0  0  0  0  0
  140.7500   68.1400  228.7990 Cl  0  0  0  0  0  0  0  0  0  0  0  0
  141.0740   70.5910  227.5860 C   0  0  0  0  0  0  0  0  0  0  0  0
  141.0040   71.5060  226.5480 C   0  0  0  0  0  0  0  0  0  0  0  0
  140.4850   71.0740  225.3400 C   0  0  0  0  0  0  0  0  0  0  0  0
  140.3910   71.9120  224.2900 N   0  0  0  0  0  0  0  0  0  0  0  0
  139.5460   74.1390  223.3130 H   0  0  0  0  0  0  0  0  0  0  0  0
  139.3451   74.3901  220.2825 H   0  0  0  0  0  0  0  0  0  0  0  0
  138.7145   75.5744  221.5045 H   0  0  0  0  0  0  0  0  0  0  0  0
  138.5767   77.0498  221.4612 H   0  0  0  0  0  0  0  0  0  0  0  0
  139.4733   78.2516  222.4398 H   0  0  0  0  0  0  0  0  0  0  0  0
  138.0972   78.7232  220.0720 H   0  0  0  0  0  0  0  0  0  0  0  0
  139.3652   79.7906  220.8664 H   0  0  0  0  0  0  0  0  0  0  0  0
  139.6686   77.8761  218.5885 H   0  0  0  0  0  0  0  0  0  0  0  0
  139.9306   79.6984  218.6841 H   0  0  0  0  0  0  0  0  0  0  0  0
  141.8770   77.8496  218.7029 H   0  0  0  0  0  0  0  0  0  0  0  0
  141.9326   79.5333  219.4311 H   0  0  0  0  0  0  0  0  0  0  0  0
  142.7718   77.4899  220.7327 H   0  0  0  0  0  0  0  0  0  0  0  0
  142.0816   80.5765  220.5279 H   0  0  0  0  0  0  0  0  0  0  0  0
  142.2729   82.2926  222.3025 H   0  0  0  0  0  0  0  0  0  0  0  0
  142.1959   81.6251  224.7280 H   0  0  0  0  0  0  0  0  0  0  0  0
  141.7355   77.5676  223.5446 H   0  0  0  0  0  0  0  0  0  0  0  0
  139.0430   69.9352  221.9218 H   0  0  0  0  0  0  0  0  0  0  0  0
  139.1813   68.2966  223.8239 H   0  0  0  0  0  0  0  0  0  0  0  0
  139.7805   67.8291  226.0904 H   0  0  0  0  0  0  0  0  0  0  0  0
  141.4846   70.9171  228.5530 H   0  0  0  0  0  0  0  0  0  0  0  0
  141.3496   72.5419  226.6797 H   0  0  0  0  0  0  0  0  0  0  0  0
  1  2  2  0
  2  3  1  0
  3  4  1  0
  4  5  1  0
  5  6  2  0
  5  7  1  0
  7  8  1  0
  8  9  1  0
  9 10  1  0
 10 11  1  0
 11 12  1  0
 12 13  1  0
 13 14  2  0
 14 15  1  0
 15 16  2  0
 16 17  1  0
 17 18  2  0
  2 19  1  0
 19 20  2  0
 20 21  1  0
 21 22  2  0
 22 23  1  0
 23 24  2  0
 24 25  1  0
 24 26  1  0
 26 27  2  0
 27 28  1  0
 28 29  2  0
 12  7  1  0
 18 13  1  0
 29 19  1  0
 28 22  1  0
  3 30  1  0
  4 31  1  0
  4 32  1  0
  8 33  1  0
  8 34  1  0
  9 35  1  0
  9 36  1  0
 10 37  1  0
 10 38  1  0
 11 39  1  0
 11 40  1  0
 12 41  1  6
 14 42  1  0
 15 43  1  0
 16 44  1  0
 18 45  1  0
 20 46  1  0
 21 47  1  0
 23 48  1  0
 26 49  1  0
 27 50  1  0
M  END
>  <smiles>  (53) 
O=C(NCC(=O)N1CCCCC1c1cccnc1)c1ccc2cc(Cl)ccc2n1

>  <score_type>  (53) 
oracle

>  <origin>  (53) 
autodockgpu

>  <m_score__min__energy>  (53) 
-8.7100000000000009

>  <m_primary>  (53) 
energy

>  <rmsd>  (53) 
2.243096531909604

>  <m_score__min__rmsd>  (53) 
2.243096531909604

>  <meeko>  (53) 
{"free_energy": -8.59, "intermolecular_energy": -10.08, "internal_energy": -1.43, "cluster_size": 38, "cluster_id": 1, "rank_in_cluster": 8}

>  <energy>  (53) 
-8.64

>  <cluster_rmsd>  (53) 
0.3

>  <cluster>  (53) 
1

$$$$

     RDKit          3D

 50 53  0  0  0  0  0  0  0  0999 V2000
  139.8010   72.2250  220.7980 O   0  0  0  0  0  0  0  0  0  0  0  0
  139.7290   72.6090  222.0070 C   0  0  0  0  0  0  0  0  0  0  0  0
  139.5430   73.9870  222.3340 N   0  0  0  0  0  0  0  0  0  0  0  0
  139.4280   75.0110  221.3130 C   0  0  0  0  0  0  0  0  0  0  0  0
  139.1830   76.3480  221.8970 C   0  0  0  0  0  0  0  0  0  0  0  0
  138.3760   76.5070  222.8640 O   0  0  0  0  0  0  0  0  0  0  0  0
  139.8850   77.4470  221.3300 N   0  0  0  0  0  0  0  0  0  0  0  0
  139.2330   78.4600  220.5090 C   0  0  0  0  0  0  0  0  0  0  0  0
  140.0530   78.6720  219.2670 C   0  0  0  0  0  0  0  0  0  0  0  0
  141.1190   77.6540  219.0360 C   0  0  0  0  0  0  0  0  0  0  0  0
  141.9580   77.3160  220.2270 C   0  0  0  0  0  0  0  0  0  0  0  0
  141.3250   77.6300  221.5390 C   0  0  1  0  0  0  0  0  0  0  0  0
  141.5010   78.9950  222.0290 C   0  0  0  0  0  0  0  0  0  0  0  0
  141.1010   79.2840  223.3230 C   0  0  0  0  0  0  0  0  0  0  0  0
  141.2430   80.5630  223.8470 C   0  0  0  0  0  0  0  0  0  0  0  0
  141.7900   81.5910  223.0790 C   0  0  0  0  0  0  0  0  0  0  0  0
  142.1670   81.2730  221.8250 N   0  0  0  0  0  0  0  0  0  0  0  0
  142.0370   80.0380  221.3040 C   0  0  0  0  0  0  0  0  0  0  0  0
  139.8360   71.6280  223.1000 C   0  0  0  0  0  0  0  0  0  0  0  0
  139.4370   70.3260  222.8740 C   0  0  0  0  0  0  0  0  0  0  0  0
  139.5400   69.4000  223.9070 C   0  0  0  0  0  0  0  0  0  0  0  0
  140.0460   69.8330  225.1370 C   0  0  0  0  0  0  0  0  0  0  0  0
  140.1500   68.9070  226.1750 C   0  0  0  0  0  0  0  0  0  0  0  0
  140.6530   69.3200  227.4120 C   0  0  0  0  0  0  0  0  0  0  0  0
  140.7910   68.1540  228.7380 Cl  0  0  0  0  0  0  0  0  0  0  0  0
  141.0360   70.6370  227.5740 C   0  0  0  0  0  0  0  0  0  0  0  0
  140.9390   71.5690  226.5530 C   0  0  0  0  0  0  0  0  0  0  0  0
  140.4380   71.1440  225.3350 C   0  0  0  0  0  0  0  0  0  0  0  0
  140.3190   71.9990  224.3010 N   0  0  0  0  0  0  0  0  0  0  0  0
  139.4930   74.2280  223.3680 H   0  0  0  0  0  0  0  0  0  0  0  0
  140.3625   75.0419  220.7336 H   0  0  0  0  0  0  0  0  0  0  0  0
  138.5714   74.7574  220.6712 H   0  0  0  0  0  0  0  0  0  0  0  0
  138.2238   78.1201  220.2332 H   0  0  0  0  0  0  0  0  0  0  0  0
  139.1508   79.4025  221.0702 H   0  0  0  0  0  0  0  0  0  0  0  0
  139.3733   78.6571  218.4023 H   0  0  0  0  0  0  0  0  0  0  0  0
  140.5692   79.6343  219.3990 H   0  0  0  0  0  0  0  0  0  0  0  0
  140.6346   76.7291  218.6897 H   0  0  0  0  0  0  0  0  0  0  0  0
  141.8055   78.0985  218.3004 H   0  0  0  0  0  0  0  0  0  0  0  0
  142.1748   76.2379  220.1996 H   0  0  0  0  0  0  0  0  0  0  0  0
  142.8621   77.9389  220.1592 H   0  0  0  0  0  0  0  0  0  0  0  0
  141.8001   76.9784  222.2871 H   0  0  0  0  0  0  0  0  0  0  0  0
  140.6643   78.4890  223.9453 H   0  0  0  0  0  0  0  0  0  0  0  0
  140.9206   80.7671  224.8787 H   0  0  0  0  0  0  0  0  0  0  0  0
  141.9076   82.6097  223.4769 H   0  0  0  0  0  0  0  0  0  0  0  0
  142.3678   79.8563  220.2708 H   0  0  0  0  0  0  0  0  0  0  0  0
  139.0435   70.0252  221.8918 H   0  0  0  0  0  0  0  0  0  0  0  0
  139.2315   68.3544  223.7603 H   0  0  0  0  0  0  0  0  0  0  0  0
  139.8395   67.8629  226.0217 H   0  0  0  0  0  0  0  0  0  0  0  0
  141.4324   70.9578  228.5487 H   0  0  0  0  0  0  0  0  0  0  0  0
  141.2502   72.6129  226.7058 H   0  0  0  0  0  0  0  0  0  0  0  0
  1  2  2  0
  2  3  1  0
  3  4  1  0
  4  5  1  0
  5  6  2  0
  5  7  1  0
  7  8  1  0
  8  9  1  0
  9 10  1  0
 10 11  1  0
 11 12  1  0
 12 13  1  0
 13 14  2  0
 14 15  1  0
 15 16  2  0
 16 17  1  0
 17 18  2  0
  2 19  1  0
 19 20  2  0
 20 21  1  0
 21 22  2  0
 22 23  1  0
 23 24  2  0
 24 25  1  0
 24 26  1  0
 26 27  2  0
 27 28  1  0
 28 29  2  0
 12  7  1  0
 18 13  1  0
 29 19  1  0
 28 22  1  0
  3 30  1  0
  4 31  1  0
  4 32  1  0
  8 33  1  0
  8 34  1  0
  9 35  1  0
  9 36  1  0
 10 37  1  0
 10 38  1  0
 11 39  1  0
 11 40  1  0
 12 41  1  1
 14 42  1  0
 15 43  1  0
 16 44  1  0
 18 45  1  0
 20 46  1  0
 21 47  1  0
 23 48  1  0
 26 49  1  0
 27 50  1  0
M  END
>  <smiles>  (54) 
O=C(NCC(=O)N1CCCCC1c1cccnc1)c1ccc2cc(Cl)ccc2n1

>  <score_type>  (54) 
oracle

>  <origin>  (54) 
autodockgpu

>  <m_score__min__energy>  (54) 
-8.7100000000000009

>  <m_primary>  (54) 
energy

>  <rmsd>  (54) 
2.209564931928292

>  <m_score__min__rmsd>  (54) 
2.209564931928292

>  <meeko>  (54) 
{"free_energy": -8.41, "intermolecular_energy": -9.9, "internal_energy": -1.6, "cluster_size": 38, "cluster_id": 1, "rank_in_cluster": 25}

>  <energy>  (54) 
-8.61

>  <cluster_rmsd>  (54) 
1.1

>  <cluster>  (54) 
1

$$$$

     RDKit          3D

 50 53  0  0  0  0  0  0  0  0999 V2000
  139.9030   72.2070  220.7290 O   0  0  0  0  0  0  0  0  0  0  0  0
  139.7120   72.5910  221.9250 C   0  0  0  0  0  0  0  0  0  0  0  0
  139.3830   73.9480  222.2210 N   0  0  0  0  0  0  0  0  0  0  0  0
  139.2500   74.9520  221.1830 C   0  0  0  0  0  0  0  0  0  0  0  0
  138.8650   76.2700  221.7340 C   0  0  0  0  0  0  0  0  0  0  0  0
  137.8630   76.3960  222.5030 O   0  0  0  0  0  0  0  0  0  0  0  0
  139.6600   77.3890  221.3650 N   0  0  0  0  0  0  0  0  0  0  0  0
  139.1370   78.5070  220.5890 C   0  0  0  0  0  0  0  0  0  0  0  0
  140.0970   78.8090  219.4720 C   0  0  0  0  0  0  0  0  0  0  0  0
  141.1500   77.7740  219.2530 C   0  0  0  0  0  0  0  0  0  0  0  0
  141.8380   77.2820  220.4860 C   0  0  0  0  0  0  0  0  0  0  0  0
  141.0730   77.4890  221.7470 C   0  0  1  0  0  0  0  0  0  0  0  0
  141.2350   78.7890  222.3940 C   0  0  0  0  0  0  0  0  0  0  0  0
  142.3580   79.5380  222.0870 C   0  0  0  0  0  0  0  0  0  0  0  0
  142.5700   80.7820  222.6690 C   0  0  0  0  0  0  0  0  0  0  0  0
  141.6530   81.3090  223.5790 C   0  0  0  0  0  0  0  0  0  0  0  0
  140.5720   80.5510  223.8530 N   0  0  0  0  0  0  0  0  0  0  0  0
  140.3540   79.3440  223.2970 C   0  0  0  0  0  0  0  0  0  0  0  0
  139.8280   71.6300  223.0360 C   0  0  0  0  0  0  0  0  0  0  0  0
  139.4140   70.3270  222.8400 C   0  0  0  0  0  0  0  0  0  0  0  0
  139.5250   69.4200  223.8900 C   0  0  0  0  0  0  0  0  0  0  0  0
  140.0540   69.8720  225.1030 C   0  0  0  0  0  0  0  0  0  0  0  0
  140.1670   68.9650  226.1560 C   0  0  0  0  0  0  0  0  0  0  0  0
  140.6930   69.3970  227.3780 C   0  0  0  0  0  0  0  0  0  0  0  0
  140.8410   68.2560  228.7240 Cl  0  0  0  0  0  0  0  0  0  0  0  0
  141.0890   70.7130  227.5090 C   0  0  0  0  0  0  0  0  0  0  0  0
  140.9840   71.6270  226.4710 C   0  0  0  0  0  0  0  0  0  0  0  0
  140.4610   71.1830  225.2700 C   0  0  0  0  0  0  0  0  0  0  0  0
  140.3320   72.0190  224.2220 N   0  0  0  0  0  0  0  0  0  0  0  0
  139.2380   74.1910  223.2470 H   0  0  0  0  0  0  0  0  0  0  0  0
  140.2128   75.0528  220.6607 H   0  0  0  0  0  0  0  0  0  0  0  0
  138.4565   74.6263  220.4944 H   0  0  0  0  0  0  0  0  0  0  0  0
  138.1550   78.2404  220.1712 H   0  0  0  0  0  0  0  0  0  0  0  0
  139.0228   79.3904  221.2344 H   0  0  0  0  0  0  0  0  0  0  0  0
  139.5185   78.9104  218.5419 H   0  0  0  0  0  0  0  0  0  0  0  0
  140.6245   79.7308  219.7585 H   0  0  0  0  0  0  0  0  0  0  0  0
  140.6787   76.9105  218.7609 H   0  0  0  0  0  0  0  0  0  0  0  0
  141.9289   78.2603  218.6473 H   0  0  0  0  0  0  0  0  0  0  0  0
  142.0219   76.2038  220.3693 H   0  0  0  0  0  0  0  0  0  0  0  0
  142.7630   77.8694  220.5824 H   0  0  0  0  0  0  0  0  0  0  0  0
  141.4415   76.7462  222.4698 H   0  0  0  0  0  0  0  0  0  0  0  0
  143.0938   79.1424  221.3714 H   0  0  0  0  0  0  0  0  0  0  0  0
  143.4707   81.3576  222.4094 H   0  0  0  0  0  0  0  0  0  0  0  0
  141.8041   82.2921  224.0487 H   0  0  0  0  0  0  0  0  0  0  0  0
  139.4471   78.7852  223.5713 H   0  0  0  0  0  0  0  0  0  0  0  0
  139.0032   70.0111  221.8697 H   0  0  0  0  0  0  0  0  0  0  0  0
  139.2048   68.3746  223.7687 H   0  0  0  0  0  0  0  0  0  0  0  0
  139.8459   67.9208  226.0271 H   0  0  0  0  0  0  0  0  0  0  0  0
  141.5028   71.0489  228.4713 H   0  0  0  0  0  0  0  0  0  0  0  0
  141.3062   72.6710  226.5988 H   0  0  0  0  0  0  0  0  0  0  0  0
  1  2  2  0
  2  3  1  0
  3  4  1  0
  4  5  1  0
  5  6  2  0
  5  7  1  0
  7  8  1  0
  8  9  1  0
  9 10  1  0
 10 11  1  0
 11 12  1  0
 12 13  1  0
 13 14  2  0
 14 15  1  0
 15 16  2  0
 16 17  1  0
 17 18  2  0
  2 19  1  0
 19 20  2  0
 20 21  1  0
 21 22  2  0
 22 23  1  0
 23 24  2  0
 24 25  1  0
 24 26  1  0
 26 27  2  0
 27 28  1  0
 28 29  2  0
 12  7  1  0
 18 13  1  0
 29 19  1  0
 28 22  1  0
  3 30  1  0
  4 31  1  0
  4 32  1  0
  8 33  1  0
  8 34  1  0
  9 35  1  0
  9 36  1  0
 10 37  1  0
 10 38  1  0
 11 39  1  0
 11 40  1  0
 12 41  1  1
 14 42  1  0
 15 43  1  0
 16 44  1  0
 18 45  1  0
 20 46  1  0
 21 47  1  0
 23 48  1  0
 26 49  1  0
 27 50  1  0
M  END
>  <smiles>  (55) 
O=C(NCC(=O)N1CCCCC1c1cccnc1)c1ccc2cc(Cl)ccc2n1

>  <score_type>  (55) 
oracle

>  <origin>  (55) 
autodockgpu

>  <m_score__min__energy>  (55) 
-8.7100000000000009

>  <m_primary>  (55) 
energy

>  <rmsd>  (55) 
2.270592975816948

>  <m_score__min__rmsd>  (55) 
2.270592975816948

>  <meeko>  (55) 
{"free_energy": -8.57, "intermolecular_energy": -10.06, "internal_energy": -1.49, "cluster_size": 38, "cluster_id": 1, "rank_in_cluster": 13}

>  <energy>  (55) 
-8.6

>  <cluster_rmsd>  (55) 
0.95

>  <cluster>  (55) 
1

$$$$

     RDKit          3D

 50 53  0  0  0  0  0  0  0  0999 V2000
  139.7050   72.1350  220.8120 O   0  0  0  0  0  0  0  0  0  0  0  0
  139.6950   72.5400  222.0170 C   0  0  0  0  0  0  0  0  0  0  0  0
  139.5700   73.9270  222.3290 N   0  0  0  0  0  0  0  0  0  0  0  0
  139.4490   74.9400  221.2980 C   0  0  0  0  0  0  0  0  0  0  0  0
  140.6900   75.7330  221.1530 C   0  0  0  0  0  0  0  0  0  0  0  0
  141.8190   75.1690  221.0120 O   0  0  0  0  0  0  0  0  0  0  0  0
  140.5670   77.1480  221.1790 N   0  0  0  0  0  0  0  0  0  0  0  0
  139.3350   77.8260  221.5660 C   0  0  0  0  0  0  0  0  0  0  0  0
  139.0290   78.8870  220.5460 C   0  0  0  0  0  0  0  0  0  0  0  0
  139.8450   78.8120  219.2980 C   0  0  0  0  0  0  0  0  0  0  0  0
  141.3130   78.6130  219.4980 C   0  0  0  0  0  0  0  0  0  0  0  0
  141.6850   78.0250  220.8150 C   0  0  1  0  0  0  0  0  0  0  0  0
  141.8460   78.9690  221.9190 C   0  0  0  0  0  0  0  0  0  0  0  0
  142.0290   80.3070  221.6160 C   0  0  0  0  0  0  0  0  0  0  0  0
  142.1880   81.2540  222.6210 C   0  0  0  0  0  0  0  0  0  0  0  0
  142.1690   80.8770  223.9640 C   0  0  0  0  0  0  0  0  0  0  0  0
  141.9890   79.5660  224.2210 N   0  0  0  0  0  0  0  0  0  0  0  0
  141.8330   78.6380  223.2570 C   0  0  0  0  0  0  0  0  0  0  0  0
  139.8130   71.5710  223.1210 C   0  0  0  0  0  0  0  0  0  0  0  0
  139.4000   70.2700  222.9170 C   0  0  0  0  0  0  0  0  0  0  0  0
  139.5130   69.3560  223.9600 C   0  0  0  0  0  0  0  0  0  0  0  0
  140.0420   69.8000  225.1770 C   0  0  0  0  0  0  0  0  0  0  0  0
  140.1570   68.8860  226.2240 C   0  0  0  0  0  0  0  0  0  0  0  0
  140.6830   69.3110  227.4470 C   0  0  0  0  0  0  0  0  0  0  0  0
  140.8330   68.1610  228.7860 Cl  0  0  0  0  0  0  0  0  0  0  0  0
  141.0770   70.6270  227.5870 C   0  0  0  0  0  0  0  0  0  0  0  0
  140.9700   71.5470  226.5560 C   0  0  0  0  0  0  0  0  0  0  0  0
  140.4470   71.1110  225.3520 C   0  0  0  0  0  0  0  0  0  0  0  0
  140.3170   71.9540  224.3090 N   0  0  0  0  0  0  0  0  0  0  0  0
  139.5700   74.1860  223.3610 H   0  0  0  0  0  0  0  0  0  0  0  0
  139.2283   74.4471  220.3397 H   0  0  0  0  0  0  0  0  0  0  0  0
  138.6391   75.6256  221.5880 H   0  0  0  0  0  0  0  0  0  0  0  0
  138.5093   77.1002  221.6045 H   0  0  0  0  0  0  0  0  0  0  0  0
  139.4547   78.2837  222.5591 H   0  0  0  0  0  0  0  0  0  0  0  0
  137.9687   78.7974  220.2671 H   0  0  0  0  0  0  0  0  0  0  0  0
  139.2747   79.8496  221.0183 H   0  0  0  0  0  0  0  0  0  0  0  0
  139.4681   77.9712  218.6971 H   0  0  0  0  0  0  0  0  0  0  0  0
  139.7377   79.7913  218.8086 H   0  0  0  0  0  0  0  0  0  0  0  0
  141.6793   77.9421  218.7069 H   0  0  0  0  0  0  0  0  0  0  0  0
  141.7710   79.6125  219.4622 H   0  0  0  0  0  0  0  0  0  0  0  0
  142.6655   77.5436  220.6852 H   0  0  0  0  0  0  0  0  0  0  0  0
  142.0489   80.6260  220.5634 H   0  0  0  0  0  0  0  0  0  0  0  0
  142.3303   82.3117  222.3546 H   0  0  0  0  0  0  0  0  0  0  0  0
  142.2946   81.6123  224.7724 H   0  0  0  0  0  0  0  0  0  0  0  0
  141.6912   77.5861  223.5459 H   0  0  0  0  0  0  0  0  0  0  0  0
  138.9880   69.9605  221.9452 H   0  0  0  0  0  0  0  0  0  0  0  0
  139.1946   68.3110  223.8312 H   0  0  0  0  0  0  0  0  0  0  0  0
  139.8373   67.8422  226.0887 H   0  0  0  0  0  0  0  0  0  0  0  0
  141.4906   70.9570  228.5514 H   0  0  0  0  0  0  0  0  0  0  0  0
  141.2907   72.5905  226.6909 H   0  0  0  0  0  0  0  0  0  0  0  0
  1  2  2  0
  2  3  1  0
  3  4  1  0
  4  5  1  0
  5  6  2  0
  5  7  1  0
  7  8  1  0
  8  9  1  0
  9 10  1  0
 10 11  1  0
 11 12  1  0
 12 13  1  0
 13 14  2  0
 14 15  1  0
 15 16  2  0
 16 17  1  0
 17 18  2  0
  2 19  1  0
 19 20  2  0
 20 21  1  0
 21 22  2  0
 22 23  1  0
 23 24  2  0
 24 25  1  0
 24 26  1  0
 26 27  2  0
 27 28  1  0
 28 29  2  0
 12  7  1  0
 18 13  1  0
 29 19  1  0
 28 22  1  0
  3 30  1  0
  4 31  1  0
  4 32  1  0
  8 33  1  0
  8 34  1  0
  9 35  1  0
  9 36  1  0
 10 37  1  0
 10 38  1  0
 11 39  1  0
 11 40  1  0
 12 41  1  6
 14 42  1  0
 15 43  1  0
 16 44  1  0
 18 45  1  0
 20 46  1  0
 21 47  1  0
 23 48  1  0
 26 49  1  0
 27 50  1  0
M  END
>  <smiles>  (56) 
O=C(NCC(=O)N1CCCCC1c1cccnc1)c1ccc2cc(Cl)ccc2n1

>  <score_type>  (56) 
oracle

>  <origin>  (56) 
autodockgpu

>  <m_score__min__energy>  (56) 
-8.7100000000000009

>  <m_primary>  (56) 
energy

>  <rmsd>  (56) 
2.2923366995813708

>  <m_score__min__rmsd>  (56) 
2.2923366995813708

>  <meeko>  (56) 
{"free_energy": -8.6, "intermolecular_energy": -10.09, "internal_energy": -1.44, "cluster_size": 38, "cluster_id": 1, "rank_in_cluster": 5}

>  <energy>  (56) 
-8.6

>  <cluster_rmsd>  (56) 
1.14

>  <cluster>  (56) 
1

$$$$

     RDKit          3D

 50 53  0  0  0  0  0  0  0  0999 V2000
  139.5110   72.0550  220.7590 O   0  0  0  0  0  0  0  0  0  0  0  0
  139.5630   72.4680  221.9600 C   0  0  0  0  0  0  0  0  0  0  0  0
  139.4570   73.8580  222.2680 N   0  0  0  0  0  0  0  0  0  0  0  0
  139.2890   74.8640  221.2360 C   0  0  0  0  0  0  0  0  0  0  0  0
  138.8840   76.1710  221.7990 C   0  0  0  0  0  0  0  0  0  0  0  0
  137.8800   76.2740  222.5690 O   0  0  0  0  0  0  0  0  0  0  0  0
  139.6620   77.3050  221.4420 N   0  0  0  0  0  0  0  0  0  0  0  0
  139.1120   78.4410  220.7120 C   0  0  0  0  0  0  0  0  0  0  0  0
  140.0410   78.7810  219.5800 C   0  0  0  0  0  0  0  0  0  0  0  0
  141.0950   77.7600  219.3040 C   0  0  0  0  0  0  0  0  0  0  0  0
  141.8170   77.2380  220.5040 C   0  0  0  0  0  0  0  0  0  0  0  0
  141.0840   77.4030  221.7910 C   0  0  1  0  0  0  0  0  0  0  0  0
  141.2550   78.6860  222.4700 C   0  0  0  0  0  0  0  0  0  0  0  0
  142.4450   79.3690  222.2890 C   0  0  0  0  0  0  0  0  0  0  0  0
  142.6690   80.5930  222.9080 C   0  0  0  0  0  0  0  0  0  0  0  0
  141.6970   81.1650  223.7290 C   0  0  0  0  0  0  0  0  0  0  0  0
  140.5510   80.4710  223.8810 N   0  0  0  0  0  0  0  0  0  0  0  0
  140.3210   79.2840  223.2880 C   0  0  0  0  0  0  0  0  0  0  0  0
  139.7310   71.5070  223.0640 C   0  0  0  0  0  0  0  0  0  0  0  0
  139.3650   70.1900  222.8670 C   0  0  0  0  0  0  0  0  0  0  0  0
  139.5260   69.2830  223.9110 C   0  0  0  0  0  0  0  0  0  0  0  0
  140.0540   69.7500  225.1190 C   0  0  0  0  0  0  0  0  0  0  0  0
  140.2160   68.8430  226.1660 C   0  0  0  0  0  0  0  0  0  0  0  0
  140.7420   69.2890  227.3820 C   0  0  0  0  0  0  0  0  0  0  0  0
  140.9530   68.1490  228.7200 Cl  0  0  0  0  0  0  0  0  0  0  0  0
  141.0880   70.6190  227.5140 C   0  0  0  0  0  0  0  0  0  0  0  0
  140.9340   71.5330  226.4830 C   0  0  0  0  0  0  0  0  0  0  0  0
  140.4110   71.0750  225.2870 C   0  0  0  0  0  0  0  0  0  0  0  0
  140.2360   71.9100  224.2450 N   0  0  0  0  0  0  0  0  0  0  0  0
  139.5090   74.1240  223.2960 H   0  0  0  0  0  0  0  0  0  0  0  0
  140.2424   74.9873  220.7013 H   0  0  0  0  0  0  0  0  0  0  0  0
  138.4935   74.5249  220.5562 H   0  0  0  0  0  0  0  0  0  0  0  0
  138.1212   78.1796  220.3121 H   0  0  0  0  0  0  0  0  0  0  0  0
  139.0088   79.3050  221.3850 H   0  0  0  0  0  0  0  0  0  0  0  0
  139.4380   78.9048  218.6684 H   0  0  0  0  0  0  0  0  0  0  0  0
  140.5701   79.6977  219.8796 H   0  0  0  0  0  0  0  0  0  0  0  0
  140.6169   76.9076  218.7992 H   0  0  0  0  0  0  0  0  0  0  0  0
  141.8549   78.2689  218.6928 H   0  0  0  0  0  0  0  0  0  0  0  0
  142.0045   76.1649  220.3514 H   0  0  0  0  0  0  0  0  0  0  0  0
  142.7401   77.8296  220.5935 H   0  0  0  0  0  0  0  0  0  0  0  0
  141.4752   76.6424  222.4827 H   0  0  0  0  0  0  0  0  0  0  0  0
  143.2253   78.9366  221.6455 H   0  0  0  0  0  0  0  0  0  0  0  0
  143.6233   81.1165  222.7488 H   0  0  0  0  0  0  0  0  0  0  0  0
  141.8573   82.1327  224.2269 H   0  0  0  0  0  0  0  0  0  0  0  0
  139.3602   78.7773  223.4615 H   0  0  0  0  0  0  0  0  0  0  0  0
  138.9530   69.8629  221.9010 H   0  0  0  0  0  0  0  0  0  0  0  0
  139.2452   68.2265  223.7889 H   0  0  0  0  0  0  0  0  0  0  0  0
  139.9329   67.7880  226.0363 H   0  0  0  0  0  0  0  0  0  0  0  0
  141.5011   70.9663  228.4725 H   0  0  0  0  0  0  0  0  0  0  0  0
  141.2184   72.5878  226.6118 H   0  0  0  0  0  0  0  0  0  0  0  0
  1  2  2  0
  2  3  1  0
  3  4  1  0
  4  5  1  0
  5  6  2  0
  5  7  1  0
  7  8  1  0
  8  9  1  0
  9 10  1  0
 10 11  1  0
 11 12  1  0
 12 13  1  0
 13 14  2  0
 14 15  1  0
 15 16  2  0
 16 17  1  0
 17 18  2  0
  2 19  1  0
 19 20  2  0
 20 21  1  0
 21 22  2  0
 22 23  1  0
 23 24  2  0
 24 25  1  0
 24 26  1  0
 26 27  2  0
 27 28  1  0
 28 29  2  0
 12  7  1  0
 18 13  1  0
 29 19  1  0
 28 22  1  0
  3 30  1  0
  4 31  1  0
  4 32  1  0
  8 33  1  0
  8 34  1  0
  9 35  1  0
  9 36  1  0
 10 37  1  0
 10 38  1  0
 11 39  1  0
 11 40  1  0
 12 41  1  1
 14 42  1  0
 15 43  1  0
 16 44  1  0
 18 45  1  0
 20 46  1  0
 21 47  1  0
 23 48  1  0
 26 49  1  0
 27 50  1  0
M  END
>  <smiles>  (57) 
O=C(NCC(=O)N1CCCCC1c1cccnc1)c1ccc2cc(Cl)ccc2n1

>  <score_type>  (57) 
oracle

>  <origin>  (57) 
autodockgpu

>  <m_score__min__energy>  (57) 
-8.7100000000000009

>  <m_primary>  (57) 
energy

>  <rmsd>  (57) 
2.248680097961604

>  <m_score__min__rmsd>  (57) 
2.248680097961604

>  <meeko>  (57) 
{"free_energy": -8.64, "intermolecular_energy": -10.13, "internal_energy": -1.44, "cluster_size": 38, "cluster_id": 1, "rank_in_cluster": 3}

>  <energy>  (57) 
-8.6

>  <cluster_rmsd>  (57) 
0.93

>  <cluster>  (57) 
1

$$$$

     RDKit          3D

 50 53  0  0  0  0  0  0  0  0999 V2000
  140.1110   72.4900  220.6700 O   0  0  0  0  0  0  0  0  0  0  0  0
  139.6600   72.7850  221.8210 C   0  0  0  0  0  0  0  0  0  0  0  0
  139.0070   74.0310  222.0620 N   0  0  0  0  0  0  0  0  0  0  0  0
  138.8260   75.0200  221.0150 C   0  0  0  0  0  0  0  0  0  0  0  0
  138.5980   76.3740  221.5670 C   0  0  0  0  0  0  0  0  0  0  0  0
  137.5620   76.6400  222.2510 O   0  0  0  0  0  0  0  0  0  0  0  0
  139.5830   77.3630  221.3000 N   0  0  0  0  0  0  0  0  0  0  0  0
  139.3320   78.5120  220.4380 C   0  0  0  0  0  0  0  0  0  0  0  0
  140.4720   78.6420  219.4670 C   0  0  0  0  0  0  0  0  0  0  0  0
  141.3950   77.4700  219.4190 C   0  0  0  0  0  0  0  0  0  0  0  0
  141.8280   76.9350  220.7470 C   0  0  0  0  0  0  0  0  0  0  0  0
  140.9270   77.2870  221.8800 C   0  0  1  0  0  0  0  0  0  0  0  0
  141.1730   78.5760  222.5220 C   0  0  0  0  0  0  0  0  0  0  0  0
  142.4120   79.1690  222.3480 C   0  0  0  0  0  0  0  0  0  0  0  0
  142.7070   80.3950  222.9320 C   0  0  0  0  0  0  0  0  0  0  0  0
  141.7600   81.0590  223.7120 C   0  0  0  0  0  0  0  0  0  0  0  0
  140.5660   80.4510  223.8590 N   0  0  0  0  0  0  0  0  0  0  0  0
  140.2660   79.2640  223.2990 C   0  0  0  0  0  0  0  0  0  0  0  0
  139.8050   71.8320  222.9350 C   0  0  0  0  0  0  0  0  0  0  0  0
  139.4190   70.5190  222.7490 C   0  0  0  0  0  0  0  0  0  0  0  0
  139.5580   69.6200  223.8020 C   0  0  0  0  0  0  0  0  0  0  0  0
  140.0850   70.0900  225.0100 C   0  0  0  0  0  0  0  0  0  0  0  0
  140.2250   69.1910  226.0660 C   0  0  0  0  0  0  0  0  0  0  0  0
  140.7490   69.6410  227.2820 C   0  0  0  0  0  0  0  0  0  0  0  0
  140.9320   68.5100  228.6320 Cl  0  0  0  0  0  0  0  0  0  0  0  0
  141.1160   70.9670  227.4040 C   0  0  0  0  0  0  0  0  0  0  0  0
  140.9840   71.8730  226.3630 C   0  0  0  0  0  0  0  0  0  0  0  0
  140.4620   71.4110  225.1670 C   0  0  0  0  0  0  0  0  0  0  0  0
  140.3080   72.2390  224.1160 N   0  0  0  0  0  0  0  0  0  0  0  0
  138.6580   74.2030  223.0510 H   0  0  0  0  0  0  0  0  0  0  0  0
  139.7277   75.0401  220.3853 H   0  0  0  0  0  0  0  0  0  0  0  0
  137.9389   74.7373  220.4293 H   0  0  0  0  0  0  0  0  0  0  0  0
  138.3914   78.3635  219.8873 H   0  0  0  0  0  0  0  0  0  0  0  0
  139.2495   79.4258  221.0448 H   0  0  0  0  0  0  0  0  0  0  0  0
  140.0495   78.7853  218.4615 H   0  0  0  0  0  0  0  0  0  0  0  0
  141.0749   79.4948  219.8123 H   0  0  0  0  0  0  0  0  0  0  0  0
  140.8854   76.6596  218.8772 H   0  0  0  0  0  0  0  0  0  0  0  0
  142.3105   77.8274  218.9250 H   0  0  0  0  0  0  0  0  0  0  0  0
  141.8776   75.8384  220.6757 H   0  0  0  0  0  0  0  0  0  0  0  0
  142.8017   77.3970  220.9673 H   0  0  0  0  0  0  0  0  0  0  0  0
  141.0834   76.5274  222.6601 H   0  0  0  0  0  0  0  0  0  0  0  0
  143.1744   78.6620  221.7383 H   0  0  0  0  0  0  0  0  0  0  0  0
  143.6980   80.8468  222.7776 H   0  0  0  0  0  0  0  0  0  0  0  0
  141.9766   82.0292  224.1830 H   0  0  0  0  0  0  0  0  0  0  0  0
  139.2688   78.8310  223.4663 H   0  0  0  0  0  0  0  0  0  0  0  0
  139.0081   70.1890  221.7834 H   0  0  0  0  0  0  0  0  0  0  0  0
  139.2612   68.5670  223.6877 H   0  0  0  0  0  0  0  0  0  0  0  0
  139.9266   68.1393  225.9442 H   0  0  0  0  0  0  0  0  0  0  0  0
  141.5280   71.3169  228.3620 H   0  0  0  0  0  0  0  0  0  0  0  0
  141.2842   72.9244  226.4834 H   0  0  0  0  0  0  0  0  0  0  0  0
  1  2  2  0
  2  3  1  0
  3  4  1  0
  4  5  1  0
  5  6  2  0
  5  7  1  0
  7  8  1  0
  8  9  1  0
  9 10  1  0
 10 11  1  0
 11 12  1  0
 12 13  1  0
 13 14  2  0
 14 15  1  0
 15 16  2  0
 16 17  1  0
 17 18  2  0
  2 19  1  0
 19 20  2  0
 20 21  1  0
 21 22  2  0
 22 23  1  0
 23 24  2  0
 24 25  1  0
 24 26  1  0
 26 27  2  0
 27 28  1  0
 28 29  2  0
 12  7  1  0
 18 13  1  0
 29 19  1  0
 28 22  1  0
  3 30  1  0
  4 31  1  0
  4 32  1  0
  8 33  1  0
  8 34  1  0
  9 35  1  0
  9 36  1  0
 10 37  1  0
 10 38  1  0
 11 39  1  0
 11 40  1  0
 12 41  1  1
 14 42  1  0
 15 43  1  0
 16 44  1  0
 18 45  1  0
 20 46  1  0
 21 47  1  0
 23 48  1  0
 26 49  1  0
 27 50  1  0
M  END
>  <smiles>  (58) 
O=C(NCC(=O)N1CCCCC1c1cccnc1)c1ccc2cc(Cl)ccc2n1

>  <score_type>  (58) 
oracle

>  <origin>  (58) 
autodockgpu

>  <m_score__min__energy>  (58) 
-8.7100000000000009

>  <m_primary>  (58) 
energy

>  <rmsd>  (58) 
2.3221656010059206

>  <m_score__min__rmsd>  (58) 
2.3221656010059206

>  <meeko>  (58) 
{"free_energy": -8.57, "intermolecular_energy": -10.06, "internal_energy": -1.45, "cluster_size": 38, "cluster_id": 1, "rank_in_cluster": 12}

>  <energy>  (58) 
-8.59

>  <cluster_rmsd>  (58) 
0.95

>  <cluster>  (58) 
1

$$$$

     RDKit          3D

 50 53  0  0  0  0  0  0  0  0999 V2000
  140.6940   72.5970  220.8290 O   0  0  0  0  0  0  0  0  0  0  0  0
  140.1200   72.8780  221.9270 C   0  0  0  0  0  0  0  0  0  0  0  0
  139.4760   74.1370  222.1230 N   0  0  0  0  0  0  0  0  0  0  0  0
  139.4450   75.1540  221.0890 C   0  0  0  0  0  0  0  0  0  0  0  0
  140.5850   76.0910  221.2010 C   0  0  0  0  0  0  0  0  0  0  0  0
  141.7790   75.7000  221.0260 O   0  0  0  0  0  0  0  0  0  0  0  0
  140.2870   77.4450  221.5140 N   0  0  0  0  0  0  0  0  0  0  0  0
  139.2870   77.8250  222.5060 C   0  0  0  0  0  0  0  0  0  0  0  0
  138.4000   78.8830  221.9130 C   0  0  0  0  0  0  0  0  0  0  0  0
  138.5540   79.0810  220.4420 C   0  0  0  0  0  0  0  0  0  0  0  0
  139.9620   79.1670  219.9460 C   0  0  0  0  0  0  0  0  0  0  0  0
  140.9760   78.5580  220.8510 C   0  0  1  0  0  0  0  0  0  0  0  0
  141.4900   79.4180  221.9150 C   0  0  0  0  0  0  0  0  0  0  0  0
  141.3200   80.7860  221.7900 C   0  0  0  0  0  0  0  0  0  0  0  0
  141.7850   81.6580  222.7680 C   0  0  0  0  0  0  0  0  0  0  0  0
  142.4390   81.1730  223.9010 C   0  0  0  0  0  0  0  0  0  0  0  0
  142.5860   79.8360  223.9880 N   0  0  0  0  0  0  0  0  0  0  0  0
  142.1400   78.9800  223.0490 C   0  0  0  0  0  0  0  0  0  0  0  0
  140.1080   71.8960  223.0250 C   0  0  0  0  0  0  0  0  0  0  0  0
  139.6010   70.6330  222.7890 C   0  0  0  0  0  0  0  0  0  0  0  0
  139.5920   69.7060  223.8280 C   0  0  0  0  0  0  0  0  0  0  0  0
  140.0990   70.0980  225.0710 C   0  0  0  0  0  0  0  0  0  0  0  0
  140.0910   69.1710  226.1120 C   0  0  0  0  0  0  0  0  0  0  0  0
  140.5930   69.5430  227.3630 C   0  0  0  0  0  0  0  0  0  0  0  0
  140.5890   68.3760  228.6950 Cl  0  0  0  0  0  0  0  0  0  0  0  0
  141.0860   70.8220  227.5340 C   0  0  0  0  0  0  0  0  0  0  0  0
  141.1020   71.7550  226.5080 C   0  0  0  0  0  0  0  0  0  0  0  0
  140.6000   71.3700  225.2780 C   0  0  0  0  0  0  0  0  0  0  0  0
  140.5870   72.2280  224.2390 N   0  0  0  0  0  0  0  0  0  0  0  0
  139.0180   74.2960  223.0690 H   0  0  0  0  0  0  0  0  0  0  0  0
  139.4842   74.6625  220.1057 H   0  0  0  0  0  0  0  0  0  0  0  0
  138.5165   75.7318  221.2074 H   0  0  0  0  0  0  0  0  0  0  0  0
  138.6840   76.9466  222.7793 H   0  0  0  0  0  0  0  0  0  0  0  0
  139.7820   78.2128  223.4085 H   0  0  0  0  0  0  0  0  0  0  0  0
  137.3549   78.6037  222.1125 H   0  0  0  0  0  0  0  0  0  0  0  0
  138.6950   79.8321  222.3842 H   0  0  0  0  0  0  0  0  0  0  0  0
  138.0671   78.2356  219.9338 H   0  0  0  0  0  0  0  0  0  0  0  0
  138.0964   80.0564  220.2199 H   0  0  0  0  0  0  0  0  0  0  0  0
  140.0158   78.6529  218.9750 H   0  0  0  0  0  0  0  0  0  0  0  0
  140.2050   80.2379  219.8810 H   0  0  0  0  0  0  0  0  0  0  0  0
  141.8449   78.2982  220.2285 H   0  0  0  0  0  0  0  0  0  0  0  0
  140.8092   81.1895  220.9033 H   0  0  0  0  0  0  0  0  0  0  0  0
  141.6358   82.7411  222.6473 H   0  0  0  0  0  0  0  0  0  0  0  0
  142.8157   81.8478  224.6838 H   0  0  0  0  0  0  0  0  0  0  0  0
  142.2988   77.9008  223.1908 H   0  0  0  0  0  0  0  0  0  0  0  0
  139.2107   70.3639  221.7964 H   0  0  0  0  0  0  0  0  0  0  0  0
  139.1962   68.6912  223.6750 H   0  0  0  0  0  0  0  0  0  0  0  0
  139.6941   68.1578  225.9511 H   0  0  0  0  0  0  0  0  0  0  0  0
  141.4801   71.1109  228.5195 H   0  0  0  0  0  0  0  0  0  0  0  0
  141.5008   72.7677  226.6672 H   0  0  0  0  0  0  0  0  0  0  0  0
  1  2  2  0
  2  3  1  0
  3  4  1  0
  4  5  1  0
  5  6  2  0
  5  7  1  0
  7  8  1  0
  8  9  1  0
  9 10  1  0
 10 11  1  0
 11 12  1  0
 12 13  1  0
 13 14  2  0
 14 15  1  0
 15 16  2  0
 16 17  1  0
 17 18  2  0
  2 19  1  0
 19 20  2  0
 20 21  1  0
 21 22  2  0
 22 23  1  0
 23 24  2  0
 24 25  1  0
 24 26  1  0
 26 27  2  0
 27 28  1  0
 28 29  2  0
 12  7  1  0
 18 13  1  0
 29 19  1  0
 28 22  1  0
  3 30  1  0
  4 31  1  0
  4 32  1  0
  8 33  1  0
  8 34  1  0
  9 35  1  0
  9 36  1  0
 10 37  1  0
 10 38  1  0
 11 39  1  0
 11 40  1  0
 12 41  1  6
 14 42  1  0
 15 43  1  0
 16 44  1  0
 18 45  1  0
 20 46  1  0
 21 47  1  0
 23 48  1  0
 26 49  1  0
 27 50  1  0
M  END
>  <smiles>  (59) 
O=C(NCC(=O)N1CCCCC1c1cccnc1)c1ccc2cc(Cl)ccc2n1

>  <score_type>  (59) 
oracle

>  <origin>  (59) 
autodockgpu

>  <m_score__min__energy>  (59) 
-8.7100000000000009

>  <m_primary>  (59) 
energy

>  <rmsd>  (59) 
2.808097973369431

>  <m_score__min__rmsd>  (59) 
2.808097973369431

>  <meeko>  (59) 
{"free_energy": -8.6, "intermolecular_energy": -10.09, "internal_energy": -1.28, "cluster_size": 38, "cluster_id": 1, "rank_in_cluster": 6}

>  <energy>  (59) 
-8.58

>  <cluster_rmsd>  (59) 
0.76

>  <cluster>  (59) 
1

$$$$

     RDKit          3D

 50 53  0  0  0  0  0  0  0  0999 V2000
  140.8960   72.2640  220.6720 O   0  0  0  0  0  0  0  0  0  0  0  0
  140.3280   72.6550  221.7390 C   0  0  0  0  0  0  0  0  0  0  0  0
  139.7910   73.9730  221.8490 N   0  0  0  0  0  0  0  0  0  0  0  0
  139.8660   74.9280  220.7600 C   0  0  0  0  0  0  0  0  0  0  0  0
  141.0480   75.8100  220.8780 C   0  0  0  0  0  0  0  0  0  0  0  0
  141.1000   76.7300  221.7500 O   0  0  0  0  0  0  0  0  0  0  0  0
  142.1220   75.5850  219.9740 N   0  0  0  0  0  0  0  0  0  0  0  0
  143.1160   76.6060  219.6610 C   0  0  0  0  0  0  0  0  0  0  0  0
  143.2830   76.6730  218.1690 C   0  0  0  0  0  0  0  0  0  0  0  0
  142.2490   75.9340  217.3870 C   0  0  0  0  0  0  0  0  0  0  0  0
  141.9390   74.5530  217.8690 C   0  0  0  0  0  0  0  0  0  0  0  0
  142.2990   74.2990  219.2930 C   0  0  1  0  0  0  0  0  0  0  0  0
  143.6770   73.8840  219.5450 C   0  0  0  0  0  0  0  0  0  0  0  0
  144.1290   73.8720  220.8530 C   0  0  0  0  0  0  0  0  0  0  0  0
  145.4290   73.4870  221.1580 C   0  0  0  0  0  0  0  0  0  0  0  0
  146.3140   73.1030  220.1500 C   0  0  0  0  0  0  0  0  0  0  0  0
  145.8380   73.1270  218.8890 N   0  0  0  0  0  0  0  0  0  0  0  0
  144.5810   73.4970  218.5790 C   0  0  0  0  0  0  0  0  0  0  0  0
  140.2120   71.7430  222.8900 C   0  0  0  0  0  0  0  0  0  0  0  0
  139.6030   70.5160  222.7140 C   0  0  0  0  0  0  0  0  0  0  0  0
  139.4960   69.6550  223.8020 C   0  0  0  0  0  0  0  0  0  0  0  0
  140.0120   70.0740  225.0330 C   0  0  0  0  0  0  0  0  0  0  0  0
  139.9060   69.2130  226.1240 C   0  0  0  0  0  0  0  0  0  0  0  0
  140.4160   69.6130  227.3630 C   0  0  0  0  0  0  0  0  0  0  0  0
  140.2870   68.5290  228.7580 Cl  0  0  0  0  0  0  0  0  0  0  0  0
  141.0140   70.8520  227.4730 C   0  0  0  0  0  0  0  0  0  0  0  0
  141.1280   71.7200  226.3970 C   0  0  0  0  0  0  0  0  0  0  0  0
  140.6170   71.3080  225.1790 C   0  0  0  0  0  0  0  0  0  0  0  0
  140.6960   72.1020  224.0940 N   0  0  0  0  0  0  0  0  0  0  0  0
  139.3310   74.2250  222.7750 H   0  0  0  0  0  0  0  0  0  0  0  0
  139.9262   74.3785  219.8090 H   0  0  0  0  0  0  0  0  0  0  0  0
  138.9657   75.5588  220.7981 H   0  0  0  0  0  0  0  0  0  0  0  0
  142.7769   77.5814  220.0399 H   0  0  0  0  0  0  0  0  0  0  0  0
  144.0758   76.3530  220.1350 H   0  0  0  0  0  0  0  0  0  0  0  0
  143.2476   77.7305  217.8684 H   0  0  0  0  0  0  0  0  0  0  0  0
  144.2445   76.1882  217.9442 H   0  0  0  0  0  0  0  0  0  0  0  0
  141.3186   76.5200  217.4177 H   0  0  0  0  0  0  0  0  0  0  0  0
  142.6655   75.8134  216.3761 H   0  0  0  0  0  0  0  0  0  0  0  0
  140.8585   74.3831  217.7524 H   0  0  0  0  0  0  0  0  0  0  0  0
  142.5505   73.8666  217.2649 H   0  0  0  0  0  0  0  0  0  0  0  0
  141.6669   73.4681  219.6393 H   0  0  0  0  0  0  0  0  0  0  0  0
  143.4487   74.1718  221.6638 H   0  0  0  0  0  0  0  0  0  0  0  0
  145.7640   73.4850  222.2057 H   0  0  0  0  0  0  0  0  0  0  0  0
  147.3467   72.7965  220.3727 H   0  0  0  0  0  0  0  0  0  0  0  0
  144.2666   73.4903  217.5249 H   0  0  0  0  0  0  0  0  0  0  0  0
  139.2088   70.2240  221.7295 H   0  0  0  0  0  0  0  0  0  0  0  0
  139.0178   68.6700  223.6968 H   0  0  0  0  0  0  0  0  0  0  0  0
  139.4264   68.2295  226.0115 H   0  0  0  0  0  0  0  0  0  0  0  0
  141.4147   71.1624  228.4493 H   0  0  0  0  0  0  0  0  0  0  0  0
  141.6087   72.7031  226.5084 H   0  0  0  0  0  0  0  0  0  0  0  0
  1  2  2  0
  2  3  1  0
  3  4  1  0
  4  5  1  0
  5  6  2  0
  5  7  1  0
  7  8  1  0
  8  9  1  0
  9 10  1  0
 10 11  1  0
 11 12  1  0
 12 13  1  0
 13 14  2  0
 14 15  1  0
 15 16  2  0
 16 17  1  0
 17 18  2  0
  2 19  1  0
 19 20  2  0
 20 21  1  0
 21 22  2  0
 22 23  1  0
 23 24  2  0
 24 25  1  0
 24 26  1  0
 26 27  2  0
 27 28  1  0
 28 29  2  0
 12  7  1  0
 18 13  1  0
 29 19  1  0
 28 22  1  0
  3 30  1  0
  4 31  1  0
  4 32  1  0
  8 33  1  0
  8 34  1  0
  9 35  1  0
  9 36  1  0
 10 37  1  0
 10 38  1  0
 11 39  1  0
 11 40  1  0
 12 41  1  1
 14 42  1  0
 15 43  1  0
 16 44  1  0
 18 45  1  0
 20 46  1  0
 21 47  1  0
 23 48  1  0
 26 49  1  0
 27 50  1  0
M  END
>  <smiles>  (60) 
O=C(NCC(=O)N1CCCCC1c1cccnc1)c1ccc2cc(Cl)ccc2n1

>  <score_type>  (60) 
oracle

>  <origin>  (60) 
autodockgpu

>  <m_score__min__energy>  (60) 
-8.7100000000000009

>  <m_primary>  (60) 
energy

>  <rmsd>  (60) 
2.554844595779038

>  <m_score__min__rmsd>  (60) 
2.554844595779038

>  <meeko>  (60) 
{"free_energy": -8.62, "intermolecular_energy": -10.11, "internal_energy": -1.7, "cluster_size": 11, "cluster_id": 2, "rank_in_cluster": 1}

>  <energy>  (60) 
-8.58

>  <cluster_rmsd>  (60) 
0.88

>  <cluster>  (60) 
1

$$$$

     RDKit          3D

 50 53  0  0  0  0  0  0  0  0999 V2000
  138.8340   71.9250  220.8590 O   0  0  0  0  0  0  0  0  0  0  0  0
  139.1640   72.3690  222.0030 C   0  0  0  0  0  0  0  0  0  0  0  0
  139.2920   73.7700  222.2430 N   0  0  0  0  0  0  0  0  0  0  0  0
  139.0550   74.7530  221.2030 C   0  0  0  0  0  0  0  0  0  0  0  0
  138.7870   76.0970  221.7620 C   0  0  0  0  0  0  0  0  0  0  0  0
  137.8350   76.2920  222.5790 O   0  0  0  0  0  0  0  0  0  0  0  0
  139.6370   77.1580  221.3480 N   0  0  0  0  0  0  0  0  0  0  0  0
  139.1810   78.2420  220.4860 C   0  0  0  0  0  0  0  0  0  0  0  0
  140.1840   78.4330  219.3830 C   0  0  0  0  0  0  0  0  0  0  0  0
  141.2010   77.3470  219.2640 C   0  0  0  0  0  0  0  0  0  0  0  0
  141.8330   76.9100  220.5470 C   0  0  0  0  0  0  0  0  0  0  0  0
  141.0400   77.2280  221.7670 C   0  0  1  0  0  0  0  0  0  0  0  0
  141.2360   78.5610  222.3340 C   0  0  0  0  0  0  0  0  0  0  0  0
  140.3190   79.0170  223.2660 C   0  0  0  0  0  0  0  0  0  0  0  0
  140.4510   80.2760  223.8410 C   0  0  0  0  0  0  0  0  0  0  0  0
  141.5110   81.1120  223.4920 C   0  0  0  0  0  0  0  0  0  0  0  0
  142.3830   80.6340  222.5820 N   0  0  0  0  0  0  0  0  0  0  0  0
  142.2680   79.4170  222.0170 C   0  0  0  0  0  0  0  0  0  0  0  0
  139.4210   71.4320  223.1110 C   0  0  0  0  0  0  0  0  0  0  0  0
  139.0720   70.1050  222.9610 C   0  0  0  0  0  0  0  0  0  0  0  0
  139.3160   69.2210  224.0080 C   0  0  0  0  0  0  0  0  0  0  0  0
  139.9070   69.7220  225.1730 C   0  0  0  0  0  0  0  0  0  0  0  0
  140.1530   68.8380  226.2240 C   0  0  0  0  0  0  0  0  0  0  0  0
  140.7430   69.3180  227.3960 C   0  0  0  0  0  0  0  0  0  0  0  0
  141.0610   68.2080  228.7390 Cl  0  0  0  0  0  0  0  0  0  0  0  0
  141.0690   70.6570  227.4830 C   0  0  0  0  0  0  0  0  0  0  0  0
  140.8310   71.5480  226.4480 C   0  0  0  0  0  0  0  0  0  0  0  0
  140.2460   71.0560  225.2950 C   0  0  0  0  0  0  0  0  0  0  0  0
  139.9890   71.8680  224.2510 N   0  0  0  0  0  0  0  0  0  0  0  0
  139.5710   74.0620  223.2260 H   0  0  0  0  0  0  0  0  0  0  0  0
  139.9435   74.8077  220.5567 H   0  0  0  0  0  0  0  0  0  0  0  0
  138.1680   74.4385  220.6336 H   0  0  0  0  0  0  0  0  0  0  0  0
  138.2015   77.9861  220.0557 H   0  0  0  0  0  0  0  0  0  0  0  0
  139.0831   79.1695  221.0692 H   0  0  0  0  0  0  0  0  0  0  0  0
  139.6371   78.4949  218.4306 H   0  0  0  0  0  0  0  0  0  0  0  0
  140.7394   79.3508  219.6263 H   0  0  0  0  0  0  0  0  0  0  0  0
  140.7103   76.4718  218.8132 H   0  0  0  0  0  0  0  0  0  0  0  0
  142.0159   77.7635  218.6538 H   0  0  0  0  0  0  0  0  0  0  0  0
  141.9767   75.8202  220.5053 H   0  0  0  0  0  0  0  0  0  0  0  0
  142.7780   77.4660  220.6350 H   0  0  0  0  0  0  0  0  0  0  0  0
  141.3562   76.5200  222.5472 H   0  0  0  0  0  0  0  0  0  0  0  0
  139.4745   78.3743  223.5555 H   0  0  0  0  0  0  0  0  0  0  0  0
  139.7106   80.6165  224.5798 H   0  0  0  0  0  0  0  0  0  0  0  0
  141.6296   82.1110  223.9368 H   0  0  0  0  0  0  0  0  0  0  0  0
  143.0201   79.0970  221.2808 H   0  0  0  0  0  0  0  0  0  0  0  0
  138.6082   69.7516  222.0283 H   0  0  0  0  0  0  0  0  0  0  0  0
  139.0512   68.1568  223.9218 H   0  0  0  0  0  0  0  0  0  0  0  0
  139.8855   67.7751  226.1310 H   0  0  0  0  0  0  0  0  0  0  0  0
  141.5345   71.0302  228.4072 H   0  0  0  0  0  0  0  0  0  0  0  0
  141.0984   72.6110  226.5405 H   0  0  0  0  0  0  0  0  0  0  0  0
  1  2  2  0
  2  3  1  0
  3  4  1  0
  4  5  1  0
  5  6  2  0
  5  7  1  0
  7  8  1  0
  8  9  1  0
  9 10  1  0
 10 11  1  0
 11 12  1  0
 12 13  1  0
 13 14  2  0
 14 15  1  0
 15 16  2  0
 16 17  1  0
 17 18  2  0
  2 19  1  0
 19 20  2  0
 20 21  1  0
 21 22  2  0
 22 23  1  0
 23 24  2  0
 24 25  1  0
 24 26  1  0
 26 27  2  0
 27 28  1  0
 28 29  2  0
 12  7  1  0
 18 13  1  0
 29 19  1  0
 28 22  1  0
  3 30  1  0
  4 31  1  0
  4 32  1  0
  8 33  1  0
  8 34  1  0
  9 35  1  0
  9 36  1  0
 10 37  1  0
 10 38  1  0
 11 39  1  0
 11 40  1  0
 12 41  1  1
 14 42  1  0
 15 43  1  0
 16 44  1  0
 18 45  1  0
 20 46  1  0
 21 47  1  0
 23 48  1  0
 26 49  1  0
 27 50  1  0
M  END
>  <smiles>  (61) 
O=C(NCC(=O)N1CCCCC1c1cccnc1)c1ccc2cc(Cl)ccc2n1

>  <score_type>  (61) 
oracle

>  <origin>  (61) 
autodockgpu

>  <m_score__min__energy>  (61) 
-8.7100000000000009

>  <m_primary>  (61) 
energy

>  <rmsd>  (61) 
2.109866825881491

>  <m_score__min__rmsd>  (61) 
2.109866825881491

>  <meeko>  (61) 
{"free_energy": -8.37, "intermolecular_energy": -9.86, "internal_energy": -1.58, "cluster_size": 38, "cluster_id": 1, "rank_in_cluster": 28}

>  <energy>  (61) 
-8.58

>  <cluster_rmsd>  (61) 
1.12

>  <cluster>  (61) 
1

$$$$

     RDKit          3D

 50 53  0  0  0  0  0  0  0  0999 V2000
  141.8030   78.6720  216.7440 O   0  0  0  0  0  0  0  0  0  0  0  0
  142.3530   78.2590  217.8130 C   0  0  0  0  0  0  0  0  0  0  0  0
  142.3980   79.0750  218.9830 N   0  0  0  0  0  0  0  0  0  0  0  0
  141.8260   80.4080  219.0140 C   0  0  0  0  0  0  0  0  0  0  0  0
  141.4830   80.8310  220.3900 C   0  0  0  0  0  0  0  0  0  0  0  0
  141.6320   82.0340  220.7660 O   0  0  0  0  0  0  0  0  0  0  0  0
  140.9810   79.8360  221.2730 N   0  0  0  0  0  0  0  0  0  0  0  0
  139.6020   79.8250  221.7470 C   0  0  0  0  0  0  0  0  0  0  0  0
  139.6080   79.6240  223.2360 C   0  0  0  0  0  0  0  0  0  0  0  0
  140.9450   79.7650  223.8850 C   0  0  0  0  0  0  0  0  0  0  0  0
  142.0710   79.0540  223.2040 C   0  0  0  0  0  0  0  0  0  0  0  0
  141.8300   78.7460  221.7660 C   0  0  1  0  0  0  0  0  0  0  0  0
  141.1140   77.5040  221.4840 C   0  0  0  0  0  0  0  0  0  0  0  0
  140.4850   77.3750  220.2580 C   0  0  0  0  0  0  0  0  0  0  0  0
  139.7880   76.2190  219.9290 C   0  0  0  0  0  0  0  0  0  0  0  0
  139.7030   75.1570  220.8300 C   0  0  0  0  0  0  0  0  0  0  0  0
  140.3280   75.3190  222.0140 N   0  0  0  0  0  0  0  0  0  0  0  0
  141.0070   76.4340  222.3450 C   0  0  0  0  0  0  0  0  0  0  0  0
  142.9560   76.9150  217.8600 C   0  0  0  0  0  0  0  0  0  0  0  0
  143.2480   76.2700  216.6750 C   0  0  0  0  0  0  0  0  0  0  0  0
  143.8190   75.0020  216.7220 C   0  0  0  0  0  0  0  0  0  0  0  0
  144.0710   74.4340  217.9760 C   0  0  0  0  0  0  0  0  0  0  0  0
  144.6430   73.1630  218.0250 C   0  0  0  0  0  0  0  0  0  0  0  0
  144.9030   72.5780  219.2680 C   0  0  0  0  0  0  0  0  0  0  0  0
  145.6280   70.9650  219.3460 Cl  0  0  0  0  0  0  0  0  0  0  0  0
  144.5870   73.2770  220.4170 C   0  0  0  0  0  0  0  0  0  0  0  0
  144.0180   74.5410  220.3850 C   0  0  0  0  0  0  0  0  0  0  0  0
  143.7670   75.1040  219.1460 C   0  0  0  0  0  0  0  0  0  0  0  0
  143.2170   76.3300  219.0440 N   0  0  0  0  0  0  0  0  0  0  0  0
  142.8740   78.6580  219.8370 H   0  0  0  0  0  0  0  0  0  0  0  0
  142.5552   81.1174  218.5955 H   0  0  0  0  0  0  0  0  0  0  0  0
  140.8995   80.3946  218.4212 H   0  0  0  0  0  0  0  0  0  0  0  0
  139.1192   80.7832  221.5044 H   0  0  0  0  0  0  0  0  0  0  0  0
  139.0441   79.0114  221.2604 H   0  0  0  0  0  0  0  0  0  0  0  0
  138.9311   80.3667  223.6836 H   0  0  0  0  0  0  0  0  0  0  0  0
  139.2903   78.5850  223.4078 H   0  0  0  0  0  0  0  0  0  0  0  0
  141.1930   80.8361  223.9204 H   0  0  0  0  0  0  0  0  0  0  0  0
  140.8495   79.2982  224.8764 H   0  0  0  0  0  0  0  0  0  0  0  0
  142.9684   79.6863  223.2739 H   0  0  0  0  0  0  0  0  0  0  0  0
  142.1842   78.0868  223.7156 H   0  0  0  0  0  0  0  0  0  0  0  0
  142.8167   78.6376  221.2919 H   0  0  0  0  0  0  0  0  0  0  0  0
  140.5377   78.2004  219.5328 H   0  0  0  0  0  0  0  0  0  0  0  0
  139.2978   76.1401  218.9474 H   0  0  0  0  0  0  0  0  0  0  0  0
  139.1544   74.2350  220.5871 H   0  0  0  0  0  0  0  0  0  0  0  0
  141.4902   76.4920  223.3315 H   0  0  0  0  0  0  0  0  0  0  0  0
  143.0328   76.7506  215.7093 H   0  0  0  0  0  0  0  0  0  0  0  0
  144.0660   74.4599  215.7973 H   0  0  0  0  0  0  0  0  0  0  0  0
  144.8869   72.6267  217.0961 H   0  0  0  0  0  0  0  0  0  0  0  0
  144.7944   72.8138  221.3929 H   0  0  0  0  0  0  0  0  0  0  0  0
  143.7743   75.0783  221.3134 H   0  0  0  0  0  0  0  0  0  0  0  0
  1  2  2  0
  2  3  1  0
  3  4  1  0
  4  5  1  0
  5  6  2  0
  5  7  1  0
  7  8  1  0
  8  9  1  0
  9 10  1  0
 10 11  1  0
 11 12  1  0
 12 13  1  0
 13 14  2  0
 14 15  1  0
 15 16  2  0
 16 17  1  0
 17 18  2  0
  2 19  1  0
 19 20  2  0
 20 21  1  0
 21 22  2  0
 22 23  1  0
 23 24  2  0
 24 25  1  0
 24 26  1  0
 26 27  2  0
 27 28  1  0
 28 29  2  0
 12  7  1  0
 18 13  1  0
 29 19  1  0
 28 22  1  0
  3 30  1  0
  4 31  1  0
  4 32  1  0
  8 33  1  0
  8 34  1  0
  9 35  1  0
  9 36  1  0
 10 37  1  0
 10 38  1  0
 11 39  1  0
 11 40  1  0
 12 41  1  6
 14 42  1  0
 15 43  1  0
 16 44  1  0
 18 45  1  0
 20 46  1  0
 21 47  1  0
 23 48  1  0
 26 49  1  0
 27 50  1  0
M  END
>  <smiles>  (62) 
O=C(NCC(=O)N1CCCCC1c1cccnc1)c1ccc2cc(Cl)ccc2n1

>  <score_type>  (62) 
oracle

>  <origin>  (62) 
autodockgpu

>  <m_score__min__energy>  (62) 
-8.7100000000000009

>  <m_primary>  (62) 
energy

>  <rmsd>  (62) 
8.172475016526407

>  <m_score__min__rmsd>  (62) 
8.172475016526407

>  <meeko>  (62) 
{"free_energy": -6.65, "intermolecular_energy": -8.14, "internal_energy": -2.33, "cluster_size": 1, "cluster_id": 3, "rank_in_cluster": 1}

>  <energy>  (62) 
-8.57

>  <cluster_rmsd>  (62) 
0.28

>  <cluster>  (62) 
1

$$$$

     RDKit          3D

 50 53  0  0  0  0  0  0  0  0999 V2000
  138.7190   72.3110  220.9630 O   0  0  0  0  0  0  0  0  0  0  0  0
  139.5450   72.5230  221.9040 C   0  0  0  0  0  0  0  0  0  0  0  0
  140.3840   73.6780  221.9040 N   0  0  0  0  0  0  0  0  0  0  0  0
  140.3390   74.6620  220.8390 C   0  0  0  0  0  0  0  0  0  0  0  0
  139.5480   75.8530  221.2200 C   0  0  0  0  0  0  0  0  0  0  0  0
  138.4320   75.7410  221.8130 O   0  0  0  0  0  0  0  0  0  0  0  0
  140.0890   77.1270  220.8930 N   0  0  0  0  0  0  0  0  0  0  0  0
  139.2650   78.2370  220.4290 C   0  0  0  0  0  0  0  0  0  0  0  0
  139.9100   78.8380  219.2120 C   0  0  0  0  0  0  0  0  0  0  0  0
  141.0190   78.0300  218.6240 C   0  0  0  0  0  0  0  0  0  0  0  0
  142.0180   77.4970  219.6010 C   0  0  0  0  0  0  0  0  0  0  0  0
  141.5250   77.4050  221.0040 C   0  0  1  0  0  0  0  0  0  0  0  0
  141.6490   78.6160  221.8110 C   0  0  0  0  0  0  0  0  0  0  0  0
  141.1920   78.5820  223.1180 C   0  0  0  0  0  0  0  0  0  0  0  0
  141.2830   79.7010  223.9370 C   0  0  0  0  0  0  0  0  0  0  0  0
  141.8370   80.8890  223.4620 C   0  0  0  0  0  0  0  0  0  0  0  0
  142.2710   80.8840  222.1850 N   0  0  0  0  0  0  0  0  0  0  0  0
  142.1900   79.8080  221.3800 C   0  0  0  0  0  0  0  0  0  0  0  0
  139.6490   71.5700  223.0230 C   0  0  0  0  0  0  0  0  0  0  0  0
  139.1290   70.3000  222.8720 C   0  0  0  0  0  0  0  0  0  0  0  0
  139.2290   69.4000  223.9290 C   0  0  0  0  0  0  0  0  0  0  0  0
  139.8550   69.8270  225.1050 C   0  0  0  0  0  0  0  0  0  0  0  0
  139.9570   68.9270  226.1660 C   0  0  0  0  0  0  0  0  0  0  0  0
  140.5800   69.3340  227.3490 C   0  0  0  0  0  0  0  0  0  0  0  0
  140.7150   68.2010  228.7050 Cl  0  0  0  0  0  0  0  0  0  0  0  0
  141.0790   70.6180  227.4370 C   0  0  0  0  0  0  0  0  0  0  0  0
  140.9870   71.5240  226.3920 C   0  0  0  0  0  0  0  0  0  0  0  0
  140.3670   71.1050  225.2280 C   0  0  0  0  0  0  0  0  0  0  0  0
  140.2450   71.9350  224.1740 N   0  0  0  0  0  0  0  0  0  0  0  0
  141.0490   73.7840  222.7280 H   0  0  0  0  0  0  0  0  0  0  0  0
  141.3660   74.9779  220.6033 H   0  0  0  0  0  0  0  0  0  0  0  0
  139.8563   74.1975  219.9665 H   0  0  0  0  0  0  0  0  0  0  0  0
  138.2600   77.8705  220.1728 H   0  0  0  0  0  0  0  0  0  0  0  0
  139.1769   78.9957  221.2206 H   0  0  0  0  0  0  0  0  0  0  0  0
  139.1347   78.9653  218.4421 H   0  0  0  0  0  0  0  0  0  0  0  0
  140.3598   79.7873  219.5385 H   0  0  0  0  0  0  0  0  0  0  0  0
  140.5717   77.1746  218.0965 H   0  0  0  0  0  0  0  0  0  0  0  0
  141.5756   78.7153  217.9678 H   0  0  0  0  0  0  0  0  0  0  0  0
  142.3134   76.4890  219.2743 H   0  0  0  0  0  0  0  0  0  0  0  0
  142.8556   78.2100  219.6109 H   0  0  0  0  0  0  0  0  0  0  0  0
  142.1368   76.6430  221.5089 H   0  0  0  0  0  0  0  0  0  0  0  0
  140.7504   77.6555  223.5136 H   0  0  0  0  0  0  0  0  0  0  0  0
  140.9137   79.6489  224.9718 H   0  0  0  0  0  0  0  0  0  0  0  0
  141.9161   81.7843  224.0961 H   0  0  0  0  0  0  0  0  0  0  0  0
  142.5663   79.8823  220.3490 H   0  0  0  0  0  0  0  0  0  0  0  0
  138.6430   70.0039  221.9306 H   0  0  0  0  0  0  0  0  0  0  0  0
  138.8265   68.3800  223.8420 H   0  0  0  0  0  0  0  0  0  0  0  0
  139.5517   67.9087  226.0726 H   0  0  0  0  0  0  0  0  0  0  0  0
  141.5675   70.9338  228.3706 H   0  0  0  0  0  0  0  0  0  0  0  0
  141.3933   72.5420  226.4849 H   0  0  0  0  0  0  0  0  0  0  0  0
  1  2  2  0
  2  3  1  0
  3  4  1  0
  4  5  1  0
  5  6  2  0
  5  7  1  0
  7  8  1  0
  8  9  1  0
  9 10  1  0
 10 11  1  0
 11 12  1  0
 12 13  1  0
 13 14  2  0
 14 15  1  0
 15 16  2  0
 16 17  1  0
 17 18  2  0
  2 19  1  0
 19 20  2  0
 20 21  1  0
 21 22  2  0
 22 23  1  0
 23 24  2  0
 24 25  1  0
 24 26  1  0
 26 27  2  0
 27 28  1  0
 28 29  2  0
 12  7  1  0
 18 13  1  0
 29 19  1  0
 28 22  1  0
  3 30  1  0
  4 31  1  0
  4 32  1  0
  8 33  1  0
  8 34  1  0
  9 35  1  0
  9 36  1  0
 10 37  1  0
 10 38  1  0
 11 39  1  0
 11 40  1  0
 12 41  1  1
 14 42  1  0
 15 43  1  0
 16 44  1  0
 18 45  1  0
 20 46  1  0
 21 47  1  0
 23 48  1  0
 26 49  1  0
 27 50  1  0
M  END
>  <smiles>  (63) 
O=C(NCC(=O)N1CCCCC1c1cccnc1)c1ccc2cc(Cl)ccc2n1

>  <score_type>  (63) 
oracle

>  <origin>  (63) 
autodockgpu

>  <m_score__min__energy>  (63) 
-8.7100000000000009

>  <m_primary>  (63) 
energy

>  <rmsd>  (63) 
2.1717661529128813

>  <m_score__min__rmsd>  (63) 
2.1717661529128813

>  <meeko>  (63) 
{"free_energy": -7.73, "intermolecular_energy": -9.23, "internal_energy": -1.55, "cluster_size": 38, "cluster_id": 1, "rank_in_cluster": 37}

>  <energy>  (63) 
-8.57

>  <cluster_rmsd>  (63) 
0.21

>  <cluster>  (63) 
1

$$$$

     RDKit          3D

 50 53  0  0  0  0  0  0  0  0999 V2000
  140.8560   72.7010  220.9520 O   0  0  0  0  0  0  0  0  0  0  0  0
  140.2030   72.9450  222.0140 C   0  0  0  0  0  0  0  0  0  0  0  0
  139.4970   74.1750  222.1800 N   0  0  0  0  0  0  0  0  0  0  0  0
  139.4910   75.2030  221.1560 C   0  0  0  0  0  0  0  0  0  0  0  0
  140.6800   76.0790  221.2450 C   0  0  0  0  0  0  0  0  0  0  0  0
  141.8550   75.6000  221.2190 O   0  0  0  0  0  0  0  0  0  0  0  0
  140.4530   77.4770  221.3620 N   0  0  0  0  0  0  0  0  0  0  0  0
  139.2630   78.0330  221.9950 C   0  0  0  0  0  0  0  0  0  0  0  0
  138.6940   79.0970  221.0980 C   0  0  0  0  0  0  0  0  0  0  0  0
  139.2720   79.1350  219.7230 C   0  0  0  0  0  0  0  0  0  0  0  0
  140.7630   79.0560  219.6470 C   0  0  0  0  0  0  0  0  0  0  0  0
  141.4140   78.4590  220.8470 C   0  0  1  0  0  0  0  0  0  0  0  0
  141.6990   79.3750  221.9480 C   0  0  0  0  0  0  0  0  0  0  0  0
  141.5320   80.7320  221.7320 C   0  0  0  0  0  0  0  0  0  0  0  0
  141.7860   81.6550  222.7400 C   0  0  0  0  0  0  0  0  0  0  0  0
  142.2190   81.2340  223.9980 C   0  0  0  0  0  0  0  0  0  0  0  0
  142.3700   79.9060  224.1710 N   0  0  0  0  0  0  0  0  0  0  0  0
  142.1270   79.0010  223.2040 C   0  0  0  0  0  0  0  0  0  0  0  0
  140.1610   71.9500  223.0990 C   0  0  0  0  0  0  0  0  0  0  0  0
  139.6290   70.7020  222.8440 C   0  0  0  0  0  0  0  0  0  0  0  0
  139.5920   69.7620  223.8700 C   0  0  0  0  0  0  0  0  0  0  0  0
  140.0970   70.1280  225.1220 C   0  0  0  0  0  0  0  0  0  0  0  0
  140.0600   69.1890  226.1520 C   0  0  0  0  0  0  0  0  0  0  0  0
  140.5600   69.5340  227.4110 C   0  0  0  0  0  0  0  0  0  0  0  0
  140.5200   68.3510  228.7270 Cl  0  0  0  0  0  0  0  0  0  0  0  0
  141.0790   70.8000  227.6010 C   0  0  0  0  0  0  0  0  0  0  0  0
  141.1230   71.7450  226.5880 C   0  0  0  0  0  0  0  0  0  0  0  0
  140.6230   71.3860  225.3490 C   0  0  0  0  0  0  0  0  0  0  0  0
  140.6360   72.2570  224.3210 N   0  0  0  0  0  0  0  0  0  0  0  0
  138.9740   74.3040  223.0970 H   0  0  0  0  0  0  0  0  0  0  0  0
  139.4785   74.7201  220.1677 H   0  0  0  0  0  0  0  0  0  0  0  0
  138.5970   75.8264  221.3048 H   0  0  0  0  0  0  0  0  0  0  0  0
  138.5178   77.2380  222.1455 H   0  0  0  0  0  0  0  0  0  0  0  0
  139.5249   78.4660  222.9716 H   0  0  0  0  0  0  0  0  0  0  0  0
  137.6111   78.9254  221.0088 H   0  0  0  0  0  0  0  0  0  0  0  0
  138.9453   80.0608  221.5649 H   0  0  0  0  0  0  0  0  0  0  0  0
  138.8588   78.2861  219.1586 H   0  0  0  0  0  0  0  0  0  0  0  0
  139.0011   80.1177  219.3096 H   0  0  0  0  0  0  0  0  0  0  0  0
  141.0302   78.4452  218.7720 H   0  0  0  0  0  0  0  0  0  0  0  0
  141.1271   80.0916  219.5773 H   0  0  0  0  0  0  0  0  0  0  0  0
  142.3895   78.0688  220.5211 H   0  0  0  0  0  0  0  0  0  0  0  0
  141.1929   81.0856  220.7471 H   0  0  0  0  0  0  0  0  0  0  0  0
  141.6442   82.7281  222.5440 H   0  0  0  0  0  0  0  0  0  0  0  0
  142.4265   81.9496  224.8072 H   0  0  0  0  0  0  0  0  0  0  0  0
  142.2742   77.9330  223.4224 H   0  0  0  0  0  0  0  0  0  0  0  0
  139.2403   70.4541  221.8453 H   0  0  0  0  0  0  0  0  0  0  0  0
  139.1765   68.7577  223.7006 H   0  0  0  0  0  0  0  0  0  0  0  0
  139.6417   68.1870  225.9757 H   0  0  0  0  0  0  0  0  0  0  0  0
  141.4719   71.0681  228.5929 H   0  0  0  0  0  0  0  0  0  0  0  0
  141.5415   72.7470  226.7633 H   0  0  0  0  0  0  0  0  0  0  0  0
  1  2  2  0
  2  3  1  0
  3  4  1  0
  4  5  1  0
  5  6  2  0
  5  7  1  0
  7  8  1  0
  8  9  1  0
  9 10  1  0
 10 11  1  0
 11 12  1  0
 12 13  1  0
 13 14  2  0
 14 15  1  0
 15 16  2  0
 16 17  1  0
 17 18  2  0
  2 19  1  0
 19 20  2  0
 20 21  1  0
 21 22  2  0
 22 23  1  0
 23 24  2  0
 24 25  1  0
 24 26  1  0
 26 27  2  0
 27 28  1  0
 28 29  2  0
 12  7  1  0
 18 13  1  0
 29 19  1  0
 28 22  1  0
  3 30  1  0
  4 31  1  0
  4 32  1  0
  8 33  1  0
  8 34  1  0
  9 35  1  0
  9 36  1  0
 10 37  1  0
 10 38  1  0
 11 39  1  0
 11 40  1  0
 12 41  1  6
 14 42  1  0
 15 43  1  0
 16 44  1  0
 18 45  1  0
 20 46  1  0
 21 47  1  0
 23 48  1  0
 26 49  1  0
 27 50  1  0
M  END
>  <smiles>  (64) 
O=C(NCC(=O)N1CCCCC1c1cccnc1)c1ccc2cc(Cl)ccc2n1

>  <score_type>  (64) 
oracle

>  <origin>  (64) 
autodockgpu

>  <m_score__min__energy>  (64) 
-8.7100000000000009

>  <m_primary>  (64) 
energy

>  <rmsd>  (64) 
2.636407063225118

>  <m_score__min__rmsd>  (64) 
2.636407063225118

>  <meeko>  (64) 
{"free_energy": -8.61, "intermolecular_energy": -10.1, "internal_energy": -1.28, "cluster_size": 38, "cluster_id": 1, "rank_in_cluster": 4}

>  <energy>  (64) 
-8.57

>  <cluster_rmsd>  (64) 
0.92

>  <cluster>  (64) 
1

$$$$

     RDKit          3D

 50 53  0  0  0  0  0  0  0  0999 V2000
  139.1780   71.9780  220.7310 O   0  0  0  0  0  0  0  0  0  0  0  0
  139.4030   72.4180  221.9020 C   0  0  0  0  0  0  0  0  0  0  0  0
  139.4950   73.8190  222.1590 N   0  0  0  0  0  0  0  0  0  0  0  0
  139.3400   74.8060  221.1070 C   0  0  0  0  0  0  0  0  0  0  0  0
  140.6100   75.5080  220.8170 C   0  0  0  0  0  0  0  0  0  0  0  0
  141.6750   74.8660  220.5630 O   0  0  0  0  0  0  0  0  0  0  0  0
  140.5880   76.9290  220.8340 N   0  0  0  0  0  0  0  0  0  0  0  0
  139.3570   77.6980  220.9750 C   0  0  0  0  0  0  0  0  0  0  0  0
  139.3400   78.7740  219.9260 C   0  0  0  0  0  0  0  0  0  0  0  0
  140.3810   78.6350  218.8660 C   0  0  0  0  0  0  0  0  0  0  0  0
  141.7610   78.3280  219.3520 C   0  0  0  0  0  0  0  0  0  0  0  0
  141.8180   77.7190  220.7110 C   0  0  1  0  0  0  0  0  0  0  0  0
  141.8240   78.6520  221.8350 C   0  0  0  0  0  0  0  0  0  0  0  0
  142.1720   79.9700  221.5910 C   0  0  0  0  0  0  0  0  0  0  0  0
  142.1960   80.9050  222.6190 C   0  0  0  0  0  0  0  0  0  0  0  0
  141.8720   80.5380  223.9250 C   0  0  0  0  0  0  0  0  0  0  0  0
  141.5390   79.2470  224.1240 N   0  0  0  0  0  0  0  0  0  0  0  0
  141.5110   78.3300  223.1380 C   0  0  0  0  0  0  0  0  0  0  0  0
  139.5710   71.4770  223.0240 C   0  0  0  0  0  0  0  0  0  0  0  0
  139.1310   70.1760  222.8790 C   0  0  0  0  0  0  0  0  0  0  0  0
  139.2920   69.2890  223.9390 C   0  0  0  0  0  0  0  0  0  0  0  0
  139.8950   69.7580  225.1110 C   0  0  0  0  0  0  0  0  0  0  0  0
  140.0570   68.8710  226.1740 C   0  0  0  0  0  0  0  0  0  0  0  0
  140.6570   69.3210  227.3540 C   0  0  0  0  0  0  0  0  0  0  0  0
  140.8690   68.2050  228.7130 Cl  0  0  0  0  0  0  0  0  0  0  0  0
  141.0750   70.6340  227.4350 C   0  0  0  0  0  0  0  0  0  0  0  0
  140.9210   71.5280  226.3870 C   0  0  0  0  0  0  0  0  0  0  0  0
  140.3250   71.0670  225.2270 C   0  0  0  0  0  0  0  0  0  0  0  0
  140.1460   71.8840  224.1710 N   0  0  0  0  0  0  0  0  0  0  0  0
  139.6840   74.1080  223.1650 H   0  0  0  0  0  0  0  0  0  0  0  0
  138.9966   74.3001  220.1926 H   0  0  0  0  0  0  0  0  0  0  0  0
  138.6074   75.5532  221.4460 H   0  0  0  0  0  0  0  0  0  0  0  0
  138.4891   77.0357  220.8404 H   0  0  0  0  0  0  0  0  0  0  0  0
  139.3091   78.1496  221.9769 H   0  0  0  0  0  0  0  0  0  0  0  0
  138.3534   78.7614  219.4397 H   0  0  0  0  0  0  0  0  0  0  0  0
  139.5561   79.7175  220.4486 H   0  0  0  0  0  0  0  0  0  0  0  0
  140.0712   77.8229  218.1919 H   0  0  0  0  0  0  0  0  0  0  0  0
  140.4460   79.6184  218.3774 H   0  0  0  0  0  0  0  0  0  0  0  0
  142.2271   77.6284  218.6425 H   0  0  0  0  0  0  0  0  0  0  0  0
  142.2897   79.2903  219.4187 H   0  0  0  0  0  0  0  0  0  0  0  0
  142.7666   77.1658  220.7747 H   0  0  0  0  0  0  0  0  0  0  0  0
  142.4332   80.2814  220.5688 H   0  0  0  0  0  0  0  0  0  0  0  0
  142.4738   81.9466  222.4001 H   0  0  0  0  0  0  0  0  0  0  0  0
  141.8874   81.2649  224.7505 H   0  0  0  0  0  0  0  0  0  0  0  0
  141.2302   77.2942  223.3796 H   0  0  0  0  0  0  0  0  0  0  0  0
  138.6609   69.8463  221.9408 H   0  0  0  0  0  0  0  0  0  0  0  0
  138.9537   68.2455  223.8575 H   0  0  0  0  0  0  0  0  0  0  0  0
  139.7166   67.8287  226.0855 H   0  0  0  0  0  0  0  0  0  0  0  0
  141.5474   70.9835  228.3649 H   0  0  0  0  0  0  0  0  0  0  0  0
  141.2617   72.5702  226.4749 H   0  0  0  0  0  0  0  0  0  0  0  0
  1  2  2  0
  2  3  1  0
  3  4  1  0
  4  5  1  0
  5  6  2  0
  5  7  1  0
  7  8  1  0
  8  9  1  0
  9 10  1  0
 10 11  1  0
 11 12  1  0
 12 13  1  0
 13 14  2  0
 14 15  1  0
 15 16  2  0
 16 17  1  0
 17 18  2  0
  2 19  1  0
 19 20  2  0
 20 21  1  0
 21 22  2  0
 22 23  1  0
 23 24  2  0
 24 25  1  0
 24 26  1  0
 26 27  2  0
 27 28  1  0
 28 29  2  0
 12  7  1  0
 18 13  1  0
 29 19  1  0
 28 22  1  0
  3 30  1  0
  4 31  1  0
  4 32  1  0
  8 33  1  0
  8 34  1  0
  9 35  1  0
  9 36  1  0
 10 37  1  0
 10 38  1  0
 11 39  1  0
 11 40  1  0
 12 41  1  6
 14 42  1  0
 15 43  1  0
 16 44  1  0
 18 45  1  0
 20 46  1  0
 21 47  1  0
 23 48  1  0
 26 49  1  0
 27 50  1  0
M  END
>  <smiles>  (65) 
O=C(NCC(=O)N1CCCCC1c1cccnc1)c1ccc2cc(Cl)ccc2n1

>  <score_type>  (65) 
oracle

>  <origin>  (65) 
autodockgpu

>  <m_score__min__energy>  (65) 
-8.7100000000000009

>  <m_primary>  (65) 
energy

>  <rmsd>  (65) 
2.053879292658123

>  <m_score__min__rmsd>  (65) 
2.053879292658123

>  <meeko>  (65) 
{"free_energy": -8.3, "intermolecular_energy": -9.8, "internal_energy": -1.49, "cluster_size": 38, "cluster_id": 1, "rank_in_cluster": 32}

>  <energy>  (65) 
-8.56

>  <cluster_rmsd>  (65) 
1.04

>  <cluster>  (65) 
1

$$$$

     RDKit          3D

 50 53  0  0  0  0  0  0  0  0999 V2000
  139.9480   72.6910  220.7380 O   0  0  0  0  0  0  0  0  0  0  0  0
  139.7690   73.0010  221.9570 C   0  0  0  0  0  0  0  0  0  0  0  0
  139.4630   74.3410  222.3400 N   0  0  0  0  0  0  0  0  0  0  0  0
  139.3420   75.4110  221.3680 C   0  0  0  0  0  0  0  0  0  0  0  0
  139.0680   76.7150  222.0120 C   0  0  0  0  0  0  0  0  0  0  0  0
  138.0520   76.8830  222.7540 O   0  0  0  0  0  0  0  0  0  0  0  0
  139.9880   77.7710  221.7650 N   0  0  0  0  0  0  0  0  0  0  0  0
  141.2900   77.8500  222.4160 C   0  0  0  0  0  0  0  0  0  0  0  0
  141.4780   79.2430  222.9480 C   0  0  0  0  0  0  0  0  0  0  0  0
  140.2480   80.0880  222.9440 C   0  0  0  0  0  0  0  0  0  0  0  0
  139.4460   80.0570  221.6820 C   0  0  0  0  0  0  0  0  0  0  0  0
  139.6790   78.8570  220.8300 C   0  0  1  0  0  0  0  0  0  0  0  0
  140.8040   78.9350  219.9010 C   0  0  0  0  0  0  0  0  0  0  0  0
  141.2060   77.7750  219.2620 C   0  0  0  0  0  0  0  0  0  0  0  0
  142.2690   77.7830  218.3660 C   0  0  0  0  0  0  0  0  0  0  0  0
  142.9600   78.9640  218.0910 C   0  0  0  0  0  0  0  0  0  0  0  0
  142.5400   80.0720  218.7320 N   0  0  0  0  0  0  0  0  0  0  0  0
  141.5110   80.0790  219.6020 C   0  0  0  0  0  0  0  0  0  0  0  0
  139.8740   71.9690  223.0030 C   0  0  0  0  0  0  0  0  0  0  0  0
  139.4740   70.6790  222.7150 C   0  0  0  0  0  0  0  0  0  0  0  0
  139.5750   69.7060  223.7050 C   0  0  0  0  0  0  0  0  0  0  0  0
  140.0810   70.0800  224.9540 C   0  0  0  0  0  0  0  0  0  0  0  0
  140.1840   69.1060  225.9470 C   0  0  0  0  0  0  0  0  0  0  0  0
  140.6870   69.4600  227.2020 C   0  0  0  0  0  0  0  0  0  0  0  0
  140.8220   68.2330  228.4720 Cl  0  0  0  0  0  0  0  0  0  0  0  0
  141.0700   70.7670  227.4260 C   0  0  0  0  0  0  0  0  0  0  0  0
  140.9750   71.7470  226.4500 C   0  0  0  0  0  0  0  0  0  0  0  0
  140.4740   71.3800  225.2130 C   0  0  0  0  0  0  0  0  0  0  0  0
  140.3560   72.2830  224.2210 N   0  0  0  0  0  0  0  0  0  0  0  0
  139.3270   74.5200  223.3800 H   0  0  0  0  0  0  0  0  0  0  0  0
  140.2822   75.4848  220.8019 H   0  0  0  0  0  0  0  0  0  0  0  0
  138.4967   75.1746  220.7051 H   0  0  0  0  0  0  0  0  0  0  0  0
  141.3341   77.1280  223.2447 H   0  0  0  0  0  0  0  0  0  0  0  0
  142.0854   77.6136  221.6939 H   0  0  0  0  0  0  0  0  0  0  0  0
  141.8373   79.1673  223.9849 H   0  0  0  0  0  0  0  0  0  0  0  0
  142.1939   79.7367  222.2744 H   0  0  0  0  0  0  0  0  0  0  0  0
  139.6003   79.7465  223.7649 H   0  0  0  0  0  0  0  0  0  0  0  0
  140.5959   81.1258  223.0537 H   0  0  0  0  0  0  0  0  0  0  0  0
  138.3800   80.0848  221.9518 H   0  0  0  0  0  0  0  0  0  0  0  0
  139.7630   80.9275  221.0890 H   0  0  0  0  0  0  0  0  0  0  0  0
  138.7823   78.7287  220.2059 H   0  0  0  0  0  0  0  0  0  0  0  0
  140.6765   76.8327  219.4661 H   0  0  0  0  0  0  0  0  0  0  0  0
  142.5686   76.8487  217.8686 H   0  0  0  0  0  0  0  0  0  0  0  0
  143.8046   78.9889  217.3867 H   0  0  0  0  0  0  0  0  0  0  0  0
  141.2276   81.0247  220.0871 H   0  0  0  0  0  0  0  0  0  0  0  0
  139.0819   70.4246  221.7192 H   0  0  0  0  0  0  0  0  0  0  0  0
  139.2646   68.6689  223.5100 H   0  0  0  0  0  0  0  0  0  0  0  0
  139.8728   68.0705  225.7446 H   0  0  0  0  0  0  0  0  0  0  0  0
  141.4652   71.0411  228.4153 H   0  0  0  0  0  0  0  0  0  0  0  0
  141.2875   72.7822  226.6520 H   0  0  0  0  0  0  0  0  0  0  0  0
  1  2  2  0
  2  3  1  0
  3  4  1  0
  4  5  1  0
  5  6  2  0
  5  7  1  0
  7  8  1  0
  8  9  1  0
  9 10  1  0
 10 11  1  0
 11 12  1  0
 12 13  1  0
 13 14  2  0
 14 15  1  0
 15 16  2  0
 16 17  1  0
 17 18  2  0
  2 19  1  0
 19 20  2  0
 20 21  1  0
 21 22  2  0
 22 23  1  0
 23 24  2  0
 24 25  1  0
 24 26  1  0
 26 27  2  0
 27 28  1  0
 28 29  2  0
 12  7  1  0
 18 13  1  0
 29 19  1  0
 28 22  1  0
  3 30  1  0
  4 31  1  0
  4 32  1  0
  8 33  1  0
  8 34  1  0
  9 35  1  0
  9 36  1  0
 10 37  1  0
 10 38  1  0
 11 39  1  0
 11 40  1  0
 12 41  1  6
 14 42  1  0
 15 43  1  0
 16 44  1  0
 18 45  1  0
 20 46  1  0
 21 47  1  0
 23 48  1  0
 26 49  1  0
 27 50  1  0
M  END
>  <smiles>  (66) 
O=C(NCC(=O)N1CCCCC1c1cccnc1)c1ccc2cc(Cl)ccc2n1

>  <score_type>  (66) 
oracle

>  <origin>  (66) 
autodockgpu

>  <m_score__min__energy>  (66) 
-8.7100000000000009

>  <m_primary>  (66) 
energy

>  <rmsd>  (66) 
3.413225907506422

>  <m_score__min__rmsd>  (66) 
3.413225907506422

>  <meeko>  (66) 
{"free_energy": -7.83, "intermolecular_energy": -9.32, "internal_energy": -1.53, "cluster_size": 38, "cluster_id": 1, "rank_in_cluster": 36}

>  <energy>  (66) 
-8.55

>  <cluster_rmsd>  (66) 
0.99

>  <cluster>  (66) 
1

$$$$

     RDKit          3D

 50 53  0  0  0  0  0  0  0  0999 V2000
  138.8460   71.9800  220.6830 O   0  0  0  0  0  0  0  0  0  0  0  0
  139.4600   72.3680  221.7260 C   0  0  0  0  0  0  0  0  0  0  0  0
  140.0260   73.6760  221.8060 N   0  0  0  0  0  0  0  0  0  0  0  0
  139.9340   74.6220  220.7100 C   0  0  0  0  0  0  0  0  0  0  0  0
  141.0220   75.6240  220.7520 C   0  0  0  0  0  0  0  0  0  0  0  0
  140.9660   76.6270  221.5280 O   0  0  0  0  0  0  0  0  0  0  0  0
  142.1310   75.4190  219.8860 N   0  0  0  0  0  0  0  0  0  0  0  0
  143.1100   76.4610  219.5980 C   0  0  0  0  0  0  0  0  0  0  0  0
  143.3250   76.5200  218.1120 C   0  0  0  0  0  0  0  0  0  0  0  0
  142.3350   75.7500  217.3020 C   0  0  0  0  0  0  0  0  0  0  0  0
  142.0430   74.3660  217.7860 C   0  0  0  0  0  0  0  0  0  0  0  0
  142.3610   74.1310  219.2220 C   0  0  1  0  0  0  0  0  0  0  0  0
  143.7390   73.7520  219.5240 C   0  0  0  0  0  0  0  0  0  0  0  0
  144.1460   73.7580  220.8470 C   0  0  0  0  0  0  0  0  0  0  0  0
  145.4440   73.4060  221.1980 C   0  0  0  0  0  0  0  0  0  0  0  0
  146.3720   73.0400  220.2230 C   0  0  0  0  0  0  0  0  0  0  0  0
  145.9400   73.0460  218.9460 N   0  0  0  0  0  0  0  0  0  0  0  0
  144.6860   73.3840  218.5910 C   0  0  0  0  0  0  0  0  0  0  0  0
  139.5950   71.4640  222.8820 C   0  0  0  0  0  0  0  0  0  0  0  0
  139.1050   70.1760  222.7860 C   0  0  0  0  0  0  0  0  0  0  0  0
  139.2350   69.3240  223.8780 C   0  0  0  0  0  0  0  0  0  0  0  0
  139.8590   69.8120  225.0310 C   0  0  0  0  0  0  0  0  0  0  0  0
  139.9910   68.9600  226.1260 C   0  0  0  0  0  0  0  0  0  0  0  0
  140.6110   69.4290  227.2870 C   0  0  0  0  0  0  0  0  0  0  0  0
  140.7840   68.3570  228.6860 Cl  0  0  0  0  0  0  0  0  0  0  0  0
  141.0800   70.7270  227.3190 C   0  0  0  0  0  0  0  0  0  0  0  0
  140.9580   71.5870  226.2380 C   0  0  0  0  0  0  0  0  0  0  0  0
  140.3400   71.1070  225.0970 C   0  0  0  0  0  0  0  0  0  0  0  0
  140.1900   71.8900  224.0120 N   0  0  0  0  0  0  0  0  0  0  0  0
  140.5240   73.9260  222.7120 H   0  0  0  0  0  0  0  0  0  0  0  0
  139.9941   74.0717  219.7595 H   0  0  0  0  0  0  0  0  0  0  0  0
  138.9762   75.1554  220.8001 H   0  0  0  0  0  0  0  0  0  0  0  0
  142.7352   77.4309  219.9569 H   0  0  0  0  0  0  0  0  0  0  0  0
  144.0591   76.2354  220.1062 H   0  0  0  0  0  0  0  0  0  0  0  0
  143.2747   77.5740  217.8012 H   0  0  0  0  0  0  0  0  0  0  0  0
  144.3046   76.0564  217.9236 H   0  0  0  0  0  0  0  0  0  0  0  0
  141.3902   76.3134  217.2970 H   0  0  0  0  0  0  0  0  0  0  0  0
  142.7870   75.6320  216.3061 H   0  0  0  0  0  0  0  0  0  0  0  0
  140.9714   74.1688  217.6352 H   0  0  0  0  0  0  0  0  0  0  0  0
  142.6915   73.6907  217.2087 H   0  0  0  0  0  0  0  0  0  0  0  0
  141.7379   73.2872  219.5534 H   0  0  0  0  0  0  0  0  0  0  0  0
  143.4315   74.0457  221.6323 H   0  0  0  0  0  0  0  0  0  0  0  0
  145.7428   73.4162  222.2566 H   0  0  0  0  0  0  0  0  0  0  0  0
  147.4037   72.7607  220.4829 H   0  0  0  0  0  0  0  0  0  0  0  0
  144.4088   73.3662  217.5267 H   0  0  0  0  0  0  0  0  0  0  0  0
  138.6200   69.8298  221.8614 H   0  0  0  0  0  0  0  0  0  0  0  0
  138.8565   68.2920  223.8359 H   0  0  0  0  0  0  0  0  0  0  0  0
  139.6110   67.9289  226.0768 H   0  0  0  0  0  0  0  0  0  0  0  0
  141.5680   71.0921  228.2347 H   0  0  0  0  0  0  0  0  0  0  0  0
  141.3401   72.6174  226.2861 H   0  0  0  0  0  0  0  0  0  0  0  0
  1  2  2  0
  2  3  1  0
  3  4  1  0
  4  5  1  0
  5  6  2  0
  5  7  1  0
  7  8  1  0
  8  9  1  0
  9 10  1  0
 10 11  1  0
 11 12  1  0
 12 13  1  0
 13 14  2  0
 14 15  1  0
 15 16  2  0
 16 17  1  0
 17 18  2  0
  2 19  1  0
 19 20  2  0
 20 21  1  0
 21 22  2  0
 22 23  1  0
 23 24  2  0
 24 25  1  0
 24 26  1  0
 26 27  2  0
 27 28  1  0
 28 29  2  0
 12  7  1  0
 18 13  1  0
 29 19  1  0
 28 22  1  0
  3 30  1  0
  4 31  1  0
  4 32  1  0
  8 33  1  0
  8 34  1  0
  9 35  1  0
  9 36  1  0
 10 37  1  0
 10 38  1  0
 11 39  1  0
 11 40  1  0
 12 41  1  1
 14 42  1  0
 15 43  1  0
 16 44  1  0
 18 45  1  0
 20 46  1  0
 21 47  1  0
 23 48  1  0
 26 49  1  0
 27 50  1  0
M  END
>  <smiles>  (67) 
O=C(NCC(=O)N1CCCCC1c1cccnc1)c1ccc2cc(Cl)ccc2n1

>  <score_type>  (67) 
oracle

>  <origin>  (67) 
autodockgpu

>  <m_score__min__energy>  (67) 
-8.7100000000000009

>  <m_primary>  (67) 
energy

>  <rmsd>  (67) 
2.4995060582635316

>  <m_score__min__rmsd>  (67) 
2.4995060582635316

>  <meeko>  (67) 
{"free_energy": -8.11, "intermolecular_energy": -9.6, "internal_energy": -1.8, "cluster_size": 11, "cluster_id": 2, "rank_in_cluster": 8}

>  <energy>  (67) 
-8.54

>  <cluster_rmsd>  (67) 
0.7

>  <cluster>  (67) 
1

$$$$

     RDKit          3D

 50 53  0  0  0  0  0  0  0  0999 V2000
  139.6960   72.2030  220.7890 O   0  0  0  0  0  0  0  0  0  0  0  0
  139.6910   72.5940  221.9970 C   0  0  0  0  0  0  0  0  0  0  0  0
  139.5520   73.9770  222.3250 N   0  0  0  0  0  0  0  0  0  0  0  0
  139.4100   74.9990  221.3050 C   0  0  0  0  0  0  0  0  0  0  0  0
  140.6810   75.7160  221.0610 C   0  0  0  0  0  0  0  0  0  0  0  0
  141.7700   75.0870  220.8890 O   0  0  0  0  0  0  0  0  0  0  0  0
  140.6330   77.1360  221.0280 N   0  0  0  0  0  0  0  0  0  0  0  0
  139.3980   77.8880  221.2210 C   0  0  0  0  0  0  0  0  0  0  0  0
  139.2920   78.9240  220.1380 C   0  0  0  0  0  0  0  0  0  0  0  0
  140.2630   78.7630  219.0160 C   0  0  0  0  0  0  0  0  0  0  0  0
  141.6780   78.4980  219.4210 C   0  0  0  0  0  0  0  0  0  0  0  0
  141.8360   77.9420  220.7940 C   0  0  1  0  0  0  0  0  0  0  0  0
  141.8980   78.9160  221.8810 C   0  0  0  0  0  0  0  0  0  0  0  0
  142.0670   80.2510  221.5550 C   0  0  0  0  0  0  0  0  0  0  0  0
  142.1330   81.2270  222.5430 C   0  0  0  0  0  0  0  0  0  0  0  0
  142.0320   80.8830  223.8910 C   0  0  0  0  0  0  0  0  0  0  0  0
  141.8670   79.5750  224.1700 N   0  0  0  0  0  0  0  0  0  0  0  0
  141.8010   78.6190  223.2230 C   0  0  0  0  0  0  0  0  0  0  0  0
  139.8300   71.6160  223.0900 C   0  0  0  0  0  0  0  0  0  0  0  0
  139.4460   70.3080  222.8710 C   0  0  0  0  0  0  0  0  0  0  0  0
  139.5790   69.3840  223.9040 C   0  0  0  0  0  0  0  0  0  0  0  0
  140.0970   69.8260  225.1250 C   0  0  0  0  0  0  0  0  0  0  0  0
  140.2310   68.9030  226.1620 C   0  0  0  0  0  0  0  0  0  0  0  0
  140.7470   69.3250  227.3910 C   0  0  0  0  0  0  0  0  0  0  0  0
  140.9220   68.1630  228.7160 Cl  0  0  0  0  0  0  0  0  0  0  0  0
  141.1120   70.6480  227.5460 C   0  0  0  0  0  0  0  0  0  0  0  0
  140.9860   71.5780  226.5250 C   0  0  0  0  0  0  0  0  0  0  0  0
  140.4730   71.1430  225.3160 C   0  0  0  0  0  0  0  0  0  0  0  0
  140.3250   71.9950  224.2830 N   0  0  0  0  0  0  0  0  0  0  0  0
  139.5570   74.2240  223.3590 H   0  0  0  0  0  0  0  0  0  0  0  0
  139.0846   74.5234  220.3680 H   0  0  0  0  0  0  0  0  0  0  0  0
  138.6681   75.7309  221.6570 H   0  0  0  0  0  0  0  0  0  0  0  0
  138.5367   77.2059  221.1666 H   0  0  0  0  0  0  0  0  0  0  0  0
  139.4056   78.3753  222.2071 H   0  0  0  0  0  0  0  0  0  0  0  0
  138.2758   78.8779  219.7195 H   0  0  0  0  0  0  0  0  0  0  0  0
  139.5252   79.8893  220.6111 H   0  0  0  0  0  0  0  0  0  0  0  0
  139.9253   77.9209  218.3940 H   0  0  0  0  0  0  0  0  0  0  0  0
  140.2761   79.7278  218.4877 H   0  0  0  0  0  0  0  0  0  0  0  0
  142.1102   77.7802  218.7083 H   0  0  0  0  0  0  0  0  0  0  0  0
  142.1908   79.4711  219.4177 H   0  0  0  0  0  0  0  0  0  0  0  0
  142.7976   77.4083  220.8136 H   0  0  0  0  0  0  0  0  0  0  0  0
  142.1503   80.5440  220.4980 H   0  0  0  0  0  0  0  0  0  0  0  0
  142.2662   82.2812  222.2587 H   0  0  0  0  0  0  0  0  0  0  0  0
  142.0844   81.6412  224.6862 H   0  0  0  0  0  0  0  0  0  0  0  0
  141.6658   77.5714  223.5299 H   0  0  0  0  0  0  0  0  0  0  0  0
  139.0412   70.0006  221.8955 H   0  0  0  0  0  0  0  0  0  0  0  0
  139.2842   68.3337  223.7631 H   0  0  0  0  0  0  0  0  0  0  0  0
  139.9339   67.8542  226.0145 H   0  0  0  0  0  0  0  0  0  0  0  0
  141.5174   70.9760  228.5146 H   0  0  0  0  0  0  0  0  0  0  0  0
  141.2840   72.6267  226.6715 H   0  0  0  0  0  0  0  0  0  0  0  0
  1  2  2  0
  2  3  1  0
  3  4  1  0
  4  5  1  0
  5  6  2  0
  5  7  1  0
  7  8  1  0
  8  9  1  0
  9 10  1  0
 10 11  1  0
 11 12  1  0
 12 13  1  0
 13 14  2  0
 14 15  1  0
 15 16  2  0
 16 17  1  0
 17 18  2  0
  2 19  1  0
 19 20  2  0
 20 21  1  0
 21 22  2  0
 22 23  1  0
 23 24  2  0
 24 25  1  0
 24 26  1  0
 26 27  2  0
 27 28  1  0
 28 29  2  0
 12  7  1  0
 18 13  1  0
 29 19  1  0
 28 22  1  0
  3 30  1  0
  4 31  1  0
  4 32  1  0
  8 33  1  0
  8 34  1  0
  9 35  1  0
  9 36  1  0
 10 37  1  0
 10 38  1  0
 11 39  1  0
 11 40  1  0
 12 41  1  6
 14 42  1  0
 15 43  1  0
 16 44  1  0
 18 45  1  0
 20 46  1  0
 21 47  1  0
 23 48  1  0
 26 49  1  0
 27 50  1  0
M  END
>  <smiles>  (68) 
O=C(NCC(=O)N1CCCCC1c1cccnc1)c1ccc2cc(Cl)ccc2n1

>  <score_type>  (68) 
oracle

>  <origin>  (68) 
autodockgpu

>  <m_score__min__energy>  (68) 
-8.7100000000000009

>  <m_primary>  (68) 
energy

>  <rmsd>  (68) 
2.2200013638376217

>  <m_score__min__rmsd>  (68) 
2.2200013638376217

>  <meeko>  (68) 
{"free_energy": -8.53, "intermolecular_energy": -10.03, "internal_energy": -1.47, "cluster_size": 38, "cluster_id": 1, "rank_in_cluster": 19}

>  <energy>  (68) 
-8.54

>  <cluster_rmsd>  (68) 
0.72

>  <cluster>  (68) 
1

$$$$

     RDKit          3D

 50 53  0  0  0  0  0  0  0  0999 V2000
  140.9940   72.7490  221.0820 O   0  0  0  0  0  0  0  0  0  0  0  0
  140.2270   72.9100  222.0820 C   0  0  0  0  0  0  0  0  0  0  0  0
  139.3990   74.0670  222.1980 N   0  0  0  0  0  0  0  0  0  0  0  0
  139.3890   75.1110  221.1910 C   0  0  0  0  0  0  0  0  0  0  0  0
  138.9720   76.4160  221.7510 C   0  0  0  0  0  0  0  0  0  0  0  0
  137.9960   76.5040  222.5580 O   0  0  0  0  0  0  0  0  0  0  0  0
  139.7050   77.5640  221.3470 N   0  0  0  0  0  0  0  0  0  0  0  0
  139.0640   78.8230  220.9870 C   0  0  0  0  0  0  0  0  0  0  0  0
  139.6520   79.3090  219.6920 C   0  0  0  0  0  0  0  0  0  0  0  0
  140.4940   78.3090  218.9700 C   0  0  0  0  0  0  0  0  0  0  0  0
  141.4860   77.5730  219.8120 C   0  0  0  0  0  0  0  0  0  0  0  0
  141.1700   77.5530  221.2680 C   0  0  1  0  0  0  0  0  0  0  0  0
  141.6340   78.7000  222.0440 C   0  0  0  0  0  0  0  0  0  0  0  0
  141.5270   78.6450  223.4230 C   0  0  0  0  0  0  0  0  0  0  0  0
  141.9520   79.7050  224.2170 C   0  0  0  0  0  0  0  0  0  0  0  0
  142.4960   80.8530  223.6410 C   0  0  0  0  0  0  0  0  0  0  0  0
  142.5840   80.8700  222.2960 N   0  0  0  0  0  0  0  0  0  0  0  0
  142.1770   79.8520  221.5150 C   0  0  0  0  0  0  0  0  0  0  0  0
  140.1800   71.8930  223.1470 C   0  0  0  0  0  0  0  0  0  0  0  0
  139.6500   70.6500  222.8630 C   0  0  0  0  0  0  0  0  0  0  0  0
  139.6070   69.6900  223.8700 C   0  0  0  0  0  0  0  0  0  0  0  0
  140.1060   70.0300  225.1310 C   0  0  0  0  0  0  0  0  0  0  0  0
  140.0640   69.0690  226.1410 C   0  0  0  0  0  0  0  0  0  0  0  0
  140.5580   69.3890  227.4100 C   0  0  0  0  0  0  0  0  0  0  0  0
  140.5110   68.1790  228.7020 Cl  0  0  0  0  0  0  0  0  0  0  0  0
  141.0750   70.6500  227.6290 C   0  0  0  0  0  0  0  0  0  0  0  0
  141.1240   71.6160  226.6350 C   0  0  0  0  0  0  0  0  0  0  0  0
  140.6310   71.2830  225.3860 C   0  0  0  0  0  0  0  0  0  0  0  0
  140.6500   72.1740  224.3770 N   0  0  0  0  0  0  0  0  0  0  0  0
  138.7850   74.1290  223.0650 H   0  0  0  0  0  0  0  0  0  0  0  0
  140.4015   75.2110  220.7728 H   0  0  0  0  0  0  0  0  0  0  0  0
  138.6643   74.8271  220.4137 H   0  0  0  0  0  0  0  0  0  0  0  0
  137.9819   78.6665  220.8667 H   0  0  0  0  0  0  0  0  0  0  0  0
  139.2310   79.5688  221.7782 H   0  0  0  0  0  0  0  0  0  0  0  0
  138.8242   79.6011  219.0291 H   0  0  0  0  0  0  0  0  0  0  0  0
  140.3186   80.1451  219.9501 H   0  0  0  0  0  0  0  0  0  0  0  0
  139.8221   77.5678  218.5126 H   0  0  0  0  0  0  0  0  0  0  0  0
  141.0847   78.8829  218.2408 H   0  0  0  0  0  0  0  0  0  0  0  0
  141.5329   76.5330  219.4568 H   0  0  0  0  0  0  0  0  0  0  0  0
  142.4414   78.1081  219.7076 H   0  0  0  0  0  0  0  0  0  0  0  0
  141.6797   76.6763  221.6942 H   0  0  0  0  0  0  0  0  0  0  0  0
  141.0995   77.7497  223.8980 H   0  0  0  0  0  0  0  0  0  0  0  0
  141.8581   79.6372  225.3109 H   0  0  0  0  0  0  0  0  0  0  0  0
  142.8359   81.7013  224.2532 H   0  0  0  0  0  0  0  0  0  0  0  0
  142.2805   79.9416  220.4235 H   0  0  0  0  0  0  0  0  0  0  0  0
  139.2679   70.4221  221.8570 H   0  0  0  0  0  0  0  0  0  0  0  0
  139.1912   68.6898  223.6786 H   0  0  0  0  0  0  0  0  0  0  0  0
  139.6471   68.0707  225.9419 H   0  0  0  0  0  0  0  0  0  0  0  0
  141.4623   70.8978  228.6283 H   0  0  0  0  0  0  0  0  0  0  0  0
  141.5412   72.6143  226.8333 H   0  0  0  0  0  0  0  0  0  0  0  0
  1  2  2  0
  2  3  1  0
  3  4  1  0
  4  5  1  0
  5  6  2  0
  5  7  1  0
  7  8  1  0
  8  9  1  0
  9 10  1  0
 10 11  1  0
 11 12  1  0
 12 13  1  0
 13 14  2  0
 14 15  1  0
 15 16  2  0
 16 17  1  0
 17 18  2  0
  2 19  1  0
 19 20  2  0
 20 21  1  0
 21 22  2  0
 22 23  1  0
 23 24  2  0
 24 25  1  0
 24 26  1  0
 26 27  2  0
 27 28  1  0
 28 29  2  0
 12  7  1  0
 18 13  1  0
 29 19  1  0
 28 22  1  0
  3 30  1  0
  4 31  1  0
  4 32  1  0
  8 33  1  0
  8 34  1  0
  9 35  1  0
  9 36  1  0
 10 37  1  0
 10 38  1  0
 11 39  1  0
 11 40  1  0
 12 41  1  1
 14 42  1  0
 15 43  1  0
 16 44  1  0
 18 45  1  0
 20 46  1  0
 21 47  1  0
 23 48  1  0
 26 49  1  0
 27 50  1  0
M  END
>  <smiles>  (69) 
O=C(NCC(=O)N1CCCCC1c1cccnc1)c1ccc2cc(Cl)ccc2n1

>  <score_type>  (69) 
oracle

>  <origin>  (69) 
autodockgpu

>  <m_score__min__energy>  (69) 
-8.7100000000000009

>  <m_primary>  (69) 
energy

>  <rmsd>  (69) 
2.4478658937183826

>  <m_score__min__rmsd>  (69) 
2.4478658937183826

>  <meeko>  (69) 
{"free_energy": -8.58, "intermolecular_energy": -10.08, "internal_energy": -1.47, "cluster_size": 38, "cluster_id": 1, "rank_in_cluster": 9}

>  <energy>  (69) 
-8.53

>  <cluster_rmsd>  (69) 
0.91

>  <cluster>  (69) 
1

$$$$

     RDKit          3D

 50 53  0  0  0  0  0  0  0  0999 V2000
  138.9330   71.4300  220.5830 O   0  0  0  0  0  0  0  0  0  0  0  0
  138.9220   71.9300  221.7510 C   0  0  0  0  0  0  0  0  0  0  0  0
  138.6120   73.3080  221.9610 N   0  0  0  0  0  0  0  0  0  0  0  0
  138.2980   74.2020  220.8630 C   0  0  0  0  0  0  0  0  0  0  0  0
  139.3790   74.2400  219.8540 C   0  0  0  0  0  0  0  0  0  0  0  0
  139.2160   73.7490  218.6950 O   0  0  0  0  0  0  0  0  0  0  0  0
  140.6070   74.8460  220.2350 N   0  0  0  0  0  0  0  0  0  0  0  0
  140.8720   75.3010  221.5950 C   0  0  0  0  0  0  0  0  0  0  0  0
  141.4360   76.6930  221.5340 C   0  0  0  0  0  0  0  0  0  0  0  0
  141.3280   77.3570  220.2020 C   0  0  0  0  0  0  0  0  0  0  0  0
  141.7320   76.5220  219.0300 C   0  0  0  0  0  0  0  0  0  0  0  0
  141.6950   75.0530  219.2740 C   0  0  1  0  0  0  0  0  0  0  0  0
  142.8930   74.4690  219.8730 C   0  0  0  0  0  0  0  0  0  0  0  0
  142.8490   73.1420  220.2640 C   0  0  0  0  0  0  0  0  0  0  0  0
  143.9550   72.5280  220.8400 C   0  0  0  0  0  0  0  0  0  0  0  0
  145.1400   73.2380  221.0410 C   0  0  0  0  0  0  0  0  0  0  0  0
  145.1440   74.5270  220.6470 N   0  0  0  0  0  0  0  0  0  0  0  0
  144.0810   75.1340  220.0880 C   0  0  0  0  0  0  0  0  0  0  0  0
  139.2300   71.0850  222.9180 C   0  0  0  0  0  0  0  0  0  0  0  0
  138.9030   69.7450  222.8800 C   0  0  0  0  0  0  0  0  0  0  0  0
  139.1970   68.9480  223.9820 C   0  0  0  0  0  0  0  0  0  0  0  0
  139.8130   69.5450  225.0870 C   0  0  0  0  0  0  0  0  0  0  0  0
  140.1080   68.7490  226.1930 C   0  0  0  0  0  0  0  0  0  0  0  0
  140.7240   69.3270  227.3070 C   0  0  0  0  0  0  0  0  0  0  0  0
  141.1030   68.3270  228.7190 Cl  0  0  0  0  0  0  0  0  0  0  0  0
  141.0250   70.6740  227.2820 C   0  0  0  0  0  0  0  0  0  0  0  0
  140.7390   71.4790  226.1900 C   0  0  0  0  0  0  0  0  0  0  0  0
  140.1290   70.8910  225.0970 C   0  0  0  0  0  0  0  0  0  0  0  0
  139.8240   71.6170  224.0030 N   0  0  0  0  0  0  0  0  0  0  0  0
  138.6240   73.6510  222.9680 H   0  0  0  0  0  0  0  0  0  0  0  0
  137.3720   73.8585  220.3788 H   0  0  0  0  0  0  0  0  0  0  0  0
  138.1796   75.2158  221.2730 H   0  0  0  0  0  0  0  0  0  0  0  0
  139.9362   75.3054  222.1732 H   0  0  0  0  0  0  0  0  0  0  0  0
  141.5899   74.6259  222.0838 H   0  0  0  0  0  0  0  0  0  0  0  0
  140.8995   77.3115  222.2686 H   0  0  0  0  0  0  0  0  0  0  0  0
  142.5114   76.5996  221.7458 H   0  0  0  0  0  0  0  0  0  0  0  0
  140.2799   77.6582  220.0579 H   0  0  0  0  0  0  0  0  0  0  0  0
  142.0333   78.2007  220.2280 H   0  0  0  0  0  0  0  0  0  0  0  0
  141.0514   76.7487  218.1961 H   0  0  0  0  0  0  0  0  0  0  0  0
  142.7799   76.7759  218.8123 H   0  0  0  0  0  0  0  0  0  0  0  0
  141.5832   74.5683  218.2929 H   0  0  0  0  0  0  0  0  0  0  0  0
  141.9245   72.5644  220.1167 H   0  0  0  0  0  0  0  0  0  0  0  0
  143.8959   71.4715  221.1406 H   0  0  0  0  0  0  0  0  0  0  0  0
  146.0246   72.7698  221.4973 H   0  0  0  0  0  0  0  0  0  0  0  0
  144.1625   76.1909  219.7943 H   0  0  0  0  0  0  0  0  0  0  0  0
  138.4174   69.3135  221.9923 H   0  0  0  0  0  0  0  0  0  0  0  0
  138.9513   67.8758  223.9842 H   0  0  0  0  0  0  0  0  0  0  0  0
  139.8587   67.6776  226.1891 H   0  0  0  0  0  0  0  0  0  0  0  0
  141.5094   71.1251  228.1605 H   0  0  0  0  0  0  0  0  0  0  0  0
  140.9891   72.5502  226.1929 H   0  0  0  0  0  0  0  0  0  0  0  0
  1  2  2  0
  2  3  1  0
  3  4  1  0
  4  5  1  0
  5  6  2  0
  5  7  1  0
  7  8  1  0
  8  9  1  0
  9 10  1  0
 10 11  1  0
 11 12  1  0
 12 13  1  0
 13 14  2  0
 14 15  1  0
 15 16  2  0
 16 17  1  0
 17 18  2  0
  2 19  1  0
 19 20  2  0
 20 21  1  0
 21 22  2  0
 22 23  1  0
 23 24  2  0
 24 25  1  0
 24 26  1  0
 26 27  2  0
 27 28  1  0
 28 29  2  0
 12  7  1  0
 18 13  1  0
 29 19  1  0
 28 22  1  0
  3 30  1  0
  4 31  1  0
  4 32  1  0
  8 33  1  0
  8 34  1  0
  9 35  1  0
  9 36  1  0
 10 37  1  0
 10 38  1  0
 11 39  1  0
 11 40  1  0
 12 41  1  6
 14 42  1  0
 15 43  1  0
 16 44  1  0
 18 45  1  0
 20 46  1  0
 21 47  1  0
 23 48  1  0
 26 49  1  0
 27 50  1  0
M  END
>  <smiles>  (70) 
O=C(NCC(=O)N1CCCCC1c1cccnc1)c1ccc2cc(Cl)ccc2n1

>  <score_type>  (70) 
oracle

>  <origin>  (70) 
autodockgpu

>  <m_score__min__energy>  (70) 
-8.7100000000000009

>  <m_primary>  (70) 
energy

>  <rmsd>  (70) 
2.1765638800524316

>  <m_score__min__rmsd>  (70) 
2.1765638800524316

>  <meeko>  (70) 
{"free_energy": -7.44, "intermolecular_energy": -8.94, "internal_energy": -1.82, "cluster_size": 11, "cluster_id": 2, "rank_in_cluster": 11}

>  <energy>  (70) 
-8.53

>  <cluster_rmsd>  (70) 
0.99

>  <cluster>  (70) 
1

$$$$

     RDKit          3D

 50 53  0  0  0  0  0  0  0  0999 V2000
  140.4960   72.5570  220.7900 O   0  0  0  0  0  0  0  0  0  0  0  0
  139.9590   72.8450  221.9050 C   0  0  0  0  0  0  0  0  0  0  0  0
  139.3100   74.1000  222.1100 N   0  0  0  0  0  0  0  0  0  0  0  0
  139.2320   75.1050  221.0680 C   0  0  0  0  0  0  0  0  0  0  0  0
  140.5430   75.7450  220.8170 C   0  0  0  0  0  0  0  0  0  0  0  0
  141.5860   75.0510  220.6120 O   0  0  0  0  0  0  0  0  0  0  0  0
  140.5860   77.1660  220.8170 N   0  0  0  0  0  0  0  0  0  0  0  0
  139.3880   77.9910  220.9160 C   0  0  0  0  0  0  0  0  0  0  0  0
  139.4470   79.0530  219.8540 C   0  0  0  0  0  0  0  0  0  0  0  0
  140.5070   78.8530  218.8230 C   0  0  0  0  0  0  0  0  0  0  0  0
  141.8580   78.4900  219.3480 C   0  0  0  0  0  0  0  0  0  0  0  0
  141.8530   77.8970  220.7150 C   0  0  1  0  0  0  0  0  0  0  0  0
  141.8740   78.8430  221.8280 C   0  0  0  0  0  0  0  0  0  0  0  0
  142.1630   80.1690  221.5550 C   0  0  0  0  0  0  0  0  0  0  0  0
  142.1980   81.1180  222.5700 C   0  0  0  0  0  0  0  0  0  0  0  0
  141.9420   80.7560  223.8930 C   0  0  0  0  0  0  0  0  0  0  0  0
  141.6650   79.4570  224.1200 N   0  0  0  0  0  0  0  0  0  0  0  0
  141.6270   78.5270  223.1470 C   0  0  0  0  0  0  0  0  0  0  0  0
  139.9960   71.8740  223.0130 C   0  0  0  0  0  0  0  0  0  0  0  0
  139.5370   70.5910  222.7950 C   0  0  0  0  0  0  0  0  0  0  0  0
  139.5740   69.6750  223.8430 C   0  0  0  0  0  0  0  0  0  0  0  0
  140.0780   70.1000  225.0770 C   0  0  0  0  0  0  0  0  0  0  0  0
  140.1170   69.1840  226.1280 C   0  0  0  0  0  0  0  0  0  0  0  0
  140.6160   69.5890  227.3690 C   0  0  0  0  0  0  0  0  0  0  0  0
  140.6700   68.4360  228.7130 Cl  0  0  0  0  0  0  0  0  0  0  0  0
  141.0610   70.8870  227.5220 C   0  0  0  0  0  0  0  0  0  0  0  0
  141.0300   71.8090  226.4870 C   0  0  0  0  0  0  0  0  0  0  0  0
  140.5310   71.3920  225.2650 C   0  0  0  0  0  0  0  0  0  0  0  0
  140.4740   72.2380  224.2180 N   0  0  0  0  0  0  0  0  0  0  0  0
  138.8850   74.2640  223.0710 H   0  0  0  0  0  0  0  0  0  0  0  0
  138.8859   74.6278  220.1393 H   0  0  0  0  0  0  0  0  0  0  0  0
  138.5305   75.8849  221.3993 H   0  0  0  0  0  0  0  0  0  0  0  0
  138.4948   77.3666  220.7663 H   0  0  0  0  0  0  0  0  0  0  0  0
  139.3345   78.4574  221.9108 H   0  0  0  0  0  0  0  0  0  0  0  0
  138.4735   79.0790  219.3425 H   0  0  0  0  0  0  0  0  0  0  0  0
  139.6929   79.9924  220.3708 H   0  0  0  0  0  0  0  0  0  0  0  0
  140.1774   78.0471  218.1507 H   0  0  0  0  0  0  0  0  0  0  0  0
  140.6293   79.8259  218.3245 H   0  0  0  0  0  0  0  0  0  0  0  0
  142.3093   77.7607  218.6592 H   0  0  0  0  0  0  0  0  0  0  0  0
  142.4283   79.4281  219.4170 H   0  0  0  0  0  0  0  0  0  0  0  0
  142.7735   77.3021  220.8085 H   0  0  0  0  0  0  0  0  0  0  0  0
  142.3681   80.4764  220.5189 H   0  0  0  0  0  0  0  0  0  0  0  0
  142.4300   82.1656  222.3277 H   0  0  0  0  0  0  0  0  0  0  0  0
  141.9651   81.4933  224.7090 H   0  0  0  0  0  0  0  0  0  0  0  0
  141.3922   77.4856  223.4121 H   0  0  0  0  0  0  0  0  0  0  0  0
  139.1481   70.2966  221.8090 H   0  0  0  0  0  0  0  0  0  0  0  0
  139.2163   68.6441  223.7043 H   0  0  0  0  0  0  0  0  0  0  0  0
  139.7590   68.1542  225.9818 H   0  0  0  0  0  0  0  0  0  0  0  0
  141.4543   71.2009  228.5002 H   0  0  0  0  0  0  0  0  0  0  0  0
  141.3901   72.8382  226.6322 H   0  0  0  0  0  0  0  0  0  0  0  0
  1  2  2  0
  2  3  1  0
  3  4  1  0
  4  5  1  0
  5  6  2  0
  5  7  1  0
  7  8  1  0
  8  9  1  0
  9 10  1  0
 10 11  1  0
 11 12  1  0
 12 13  1  0
 13 14  2  0
 14 15  1  0
 15 16  2  0
 16 17  1  0
 17 18  2  0
  2 19  1  0
 19 20  2  0
 20 21  1  0
 21 22  2  0
 22 23  1  0
 23 24  2  0
 24 25  1  0
 24 26  1  0
 26 27  2  0
 27 28  1  0
 28 29  2  0
 12  7  1  0
 18 13  1  0
 29 19  1  0
 28 22  1  0
  3 30  1  0
  4 31  1  0
  4 32  1  0
  8 33  1  0
  8 34  1  0
  9 35  1  0
  9 36  1  0
 10 37  1  0
 10 38  1  0
 11 39  1  0
 11 40  1  0
 12 41  1  6
 14 42  1  0
 15 43  1  0
 16 44  1  0
 18 45  1  0
 20 46  1  0
 21 47  1  0
 23 48  1  0
 26 49  1  0
 27 50  1  0
M  END
>  <smiles>  (71) 
O=C(NCC(=O)N1CCCCC1c1cccnc1)c1ccc2cc(Cl)ccc2n1

>  <score_type>  (71) 
oracle

>  <origin>  (71) 
autodockgpu

>  <m_score__min__energy>  (71) 
-8.7100000000000009

>  <m_primary>  (71) 
energy

>  <rmsd>  (71) 
2.2392799574989675

>  <m_score__min__rmsd>  (71) 
2.2392799574989675

>  <meeko>  (71) 
{"free_energy": -8.58, "intermolecular_energy": -10.07, "internal_energy": -1.29, "cluster_size": 38, "cluster_id": 1, "rank_in_cluster": 10}

>  <energy>  (71) 
-8.5

>  <cluster_rmsd>  (71) 
1.09

>  <cluster>  (71) 
1

$$$$

     RDKit          3D

 50 53  0  0  0  0  0  0  0  0999 V2000
  139.2650   71.8680  220.6330 O   0  0  0  0  0  0  0  0  0  0  0  0
  139.0800   72.2890  221.8180 C   0  0  0  0  0  0  0  0  0  0  0  0
  138.6090   73.6130  222.0670 N   0  0  0  0  0  0  0  0  0  0  0  0
  138.3210   74.5420  220.9900 C   0  0  0  0  0  0  0  0  0  0  0  0
  138.6200   75.9400  221.3720 C   0  0  0  0  0  0  0  0  0  0  0  0
  137.7030   76.7290  221.7560 O   0  0  0  0  0  0  0  0  0  0  0  0
  139.9740   76.3640  221.2890 N   0  0  0  0  0  0  0  0  0  0  0  0
  140.7510   76.7540  222.4600 C   0  0  0  0  0  0  0  0  0  0  0  0
  141.4430   78.0560  222.1670 C   0  0  0  0  0  0  0  0  0  0  0  0
  140.9730   78.7520  220.9330 C   0  0  0  0  0  0  0  0  0  0  0  0
  140.8310   77.8910  219.7200 C   0  0  0  0  0  0  0  0  0  0  0  0
  140.6820   76.4360  220.0070 C   0  0  1  0  0  0  0  0  0  0  0  0
  141.9220   75.6820  220.1760 C   0  0  0  0  0  0  0  0  0  0  0  0
  141.8390   74.3840  220.6510 C   0  0  0  0  0  0  0  0  0  0  0  0
  142.9830   73.6150  220.8330 C   0  0  0  0  0  0  0  0  0  0  0  0
  144.2450   74.1340  220.5420 C   0  0  0  0  0  0  0  0  0  0  0  0
  144.2850   75.4000  220.0820 N   0  0  0  0  0  0  0  0  0  0  0  0
  143.1860   76.1570  219.9000 C   0  0  0  0  0  0  0  0  0  0  0  0
  139.3490   71.4030  222.9650 C   0  0  0  0  0  0  0  0  0  0  0  0
  139.0090   70.0680  222.8750 C   0  0  0  0  0  0  0  0  0  0  0  0
  139.2660   69.2330  223.9580 C   0  0  0  0  0  0  0  0  0  0  0  0
  139.8590   69.7890  225.0970 C   0  0  0  0  0  0  0  0  0  0  0  0
  140.1170   68.9540  226.1840 C   0  0  0  0  0  0  0  0  0  0  0  0
  140.7090   69.4900  227.3320 C   0  0  0  0  0  0  0  0  0  0  0  0
  141.0420   68.4410  228.7200 Cl  0  0  0  0  0  0  0  0  0  0  0  0
  141.0250   70.8330  227.3580 C   0  0  0  0  0  0  0  0  0  0  0  0
  140.7750   71.6760  226.2860 C   0  0  0  0  0  0  0  0  0  0  0  0
  140.1880   71.1300  225.1590 C   0  0  0  0  0  0  0  0  0  0  0  0
  139.9200   71.8930  224.0820 N   0  0  0  0  0  0  0  0  0  0  0  0
  138.4790   73.8900  223.0850 H   0  0  0  0  0  0  0  0  0  0  0  0
  138.9326   74.2737  220.1159 H   0  0  0  0  0  0  0  0  0  0  0  0
  137.2476   74.4739  220.7592 H   0  0  0  0  0  0  0  0  0  0  0  0
  140.0817   76.8767  223.3243 H   0  0  0  0  0  0  0  0  0  0  0  0
  141.4951   75.9777  222.6918 H   0  0  0  0  0  0  0  0  0  0  0  0
  141.2814   78.7291  223.0219 H   0  0  0  0  0  0  0  0  0  0  0  0
  142.5026   77.8123  222.0000 H   0  0  0  0  0  0  0  0  0  0  0  0
  139.9905   79.1970  221.1489 H   0  0  0  0  0  0  0  0  0  0  0  0
  141.7516   79.4896  220.6887 H   0  0  0  0  0  0  0  0  0  0  0  0
  139.9418   78.2242  219.1647 H   0  0  0  0  0  0  0  0  0  0  0  0
  141.7635   78.0023  219.1472 H   0  0  0  0  0  0  0  0  0  0  0  0
  140.1751   75.9887  219.1392 H   0  0  0  0  0  0  0  0  0  0  0  0
  140.8541   73.9552  220.8877 H   0  0  0  0  0  0  0  0  0  0  0  0
  142.8921   72.5859  221.2106 H   0  0  0  0  0  0  0  0  0  0  0  0
  145.1604   73.5402  220.6810 H   0  0  0  0  0  0  0  0  0  0  0  0
  143.3005   77.1831  219.5204 H   0  0  0  0  0  0  0  0  0  0  0  0
  138.5423   69.6707  221.9616 H   0  0  0  0  0  0  0  0  0  0  0  0
  139.0098   68.1639  223.9198 H   0  0  0  0  0  0  0  0  0  0  0  0
  139.8578   67.8859  226.1388 H   0  0  0  0  0  0  0  0  0  0  0  0
  141.4923   71.2500  228.2623 H   0  0  0  0  0  0  0  0  0  0  0  0
  141.0350   72.7439  226.3304 H   0  0  0  0  0  0  0  0  0  0  0  0
  1  2  2  0
  2  3  1  0
  3  4  1  0
  4  5  1  0
  5  6  2  0
  5  7  1  0
  7  8  1  0
  8  9  1  0
  9 10  1  0
 10 11  1  0
 11 12  1  0
 12 13  1  0
 13 14  2  0
 14 15  1  0
 15 16  2  0
 16 17  1  0
 17 18  2  0
  2 19  1  0
 19 20  2  0
 20 21  1  0
 21 22  2  0
 22 23  1  0
 23 24  2  0
 24 25  1  0
 24 26  1  0
 26 27  2  0
 27 28  1  0
 28 29  2  0
 12  7  1  0
 18 13  1  0
 29 19  1  0
 28 22  1  0
  3 30  1  0
  4 31  1  0
  4 32  1  0
  8 33  1  0
  8 34  1  0
  9 35  1  0
  9 36  1  0
 10 37  1  0
 10 38  1  0
 11 39  1  0
 11 40  1  0
 12 41  1  6
 14 42  1  0
 15 43  1  0
 16 44  1  0
 18 45  1  0
 20 46  1  0
 21 47  1  0
 23 48  1  0
 26 49  1  0
 27 50  1  0
M  END
>  <smiles>  (72) 
O=C(NCC(=O)N1CCCCC1c1cccnc1)c1ccc2cc(Cl)ccc2n1

>  <score_type>  (72) 
oracle

>  <origin>  (72) 
autodockgpu

>  <m_score__min__energy>  (72) 
-8.7100000000000009

>  <m_primary>  (72) 
energy

>  <rmsd>  (72) 
2.4986500200746042

>  <m_score__min__rmsd>  (72) 
2.4986500200746042

>  <meeko>  (72) 
{"free_energy": -7.71, "intermolecular_energy": -9.2, "internal_energy": -1.81, "cluster_size": 11, "cluster_id": 2, "rank_in_cluster": 10}

>  <energy>  (72) 
-8.49

>  <cluster_rmsd>  (72) 
0.97

>  <cluster>  (72) 
1

$$$$

     RDKit          3D

 50 53  0  0  0  0  0  0  0  0999 V2000
  138.9670   72.7860  220.3170 O   0  0  0  0  0  0  0  0  0  0  0  0
  139.8250   72.8740  221.2490 C   0  0  0  0  0  0  0  0  0  0  0  0
  140.9060   73.8040  221.1720 N   0  0  0  0  0  0  0  0  0  0  0  0
  141.0820   74.6870  220.0360 C   0  0  0  0  0  0  0  0  0  0  0  0
  141.7610   75.9460  220.4140 C   0  0  0  0  0  0  0  0  0  0  0  0
  142.9740   76.1580  220.1060 O   0  0  0  0  0  0  0  0  0  0  0  0
  141.0020   76.9060  221.1360 N   0  0  0  0  0  0  0  0  0  0  0  0
  140.3730   76.6120  222.4190 C   0  0  0  0  0  0  0  0  0  0  0  0
  138.9500   77.0910  222.3780 C   0  0  0  0  0  0  0  0  0  0  0  0
  138.4530   77.4700  221.0220 C   0  0  0  0  0  0  0  0  0  0  0  0
  139.3720   78.3280  220.2140 C   0  0  0  0  0  0  0  0  0  0  0  0
  140.8020   78.2680  220.6300 C   0  0  1  0  0  0  0  0  0  0  0  0
  141.1980   79.1720  221.7080 C   0  0  0  0  0  0  0  0  0  0  0  0
  142.5100   79.1340  222.1460 C   0  0  0  0  0  0  0  0  0  0  0  0
  142.9490   79.9680  223.1680 C   0  0  0  0  0  0  0  0  0  0  0  0
  142.0740   80.8660  223.7800 C   0  0  0  0  0  0  0  0  0  0  0  0
  140.8040   80.8740  223.3270 N   0  0  0  0  0  0  0  0  0  0  0  0
  140.3660   80.0720  222.3380 C   0  0  0  0  0  0  0  0  0  0  0  0
  139.7150   72.0100  222.4380 C   0  0  0  0  0  0  0  0  0  0  0  0
  138.8630   70.9240  222.4000 C   0  0  0  0  0  0  0  0  0  0  0  0
  138.7610   70.1090  223.5230 C   0  0  0  0  0  0  0  0  0  0  0  0
  139.5290   70.4280  224.6460 C   0  0  0  0  0  0  0  0  0  0  0  0
  139.4290   69.6120  225.7730 C   0  0  0  0  0  0  0  0  0  0  0  0
  140.1890   69.9150  226.9060 C   0  0  0  0  0  0  0  0  0  0  0  0
  140.0700   68.8880  228.3440 Cl  0  0  0  0  0  0  0  0  0  0  0  0
  141.0220   71.0160  226.8800 C   0  0  0  0  0  0  0  0  0  0  0  0
  141.1340   71.8360  225.7690 C   0  0  0  0  0  0  0  0  0  0  0  0
  140.3740   71.5230  224.6560 C   0  0  0  0  0  0  0  0  0  0  0  0
  140.4360   72.2780  223.5420 N   0  0  0  0  0  0  0  0  0  0  0  0
  141.5830   73.8170  221.9930 H   0  0  0  0  0  0  0  0  0  0  0  0
  141.6870   74.1715  219.2756 H   0  0  0  0  0  0  0  0  0  0  0  0
  140.0857   74.9417  219.6454 H   0  0  0  0  0  0  0  0  0  0  0  0
  140.3935   75.5274  222.6015 H   0  0  0  0  0  0  0  0  0  0  0  0
  140.9168   77.1207  223.2286 H   0  0  0  0  0  0  0  0  0  0  0  0
  138.3074   76.2864  222.7649 H   0  0  0  0  0  0  0  0  0  0  0  0
  138.9151   78.0068  222.9864 H   0  0  0  0  0  0  0  0  0  0  0  0
  138.2708   76.5438  220.4572 H   0  0  0  0  0  0  0  0  0  0  0  0
  137.5487   78.0732  221.1907 H   0  0  0  0  0  0  0  0  0  0  0  0
  139.3063   78.0072  219.1639 H   0  0  0  0  0  0  0  0  0  0  0  0
  139.0454   79.3669  220.3687 H   0  0  0  0  0  0  0  0  0  0  0  0
  141.4024   78.5615  219.7563 H   0  0  0  0  0  0  0  0  0  0  0  0
  143.2168   78.4329  221.6782 H   0  0  0  0  0  0  0  0  0  0  0  0
  143.9973   79.9194  223.4976 H   0  0  0  0  0  0  0  0  0  0  0  0
  142.4032   81.5331  224.5903 H   0  0  0  0  0  0  0  0  0  0  0  0
  139.3138   80.1371  222.0239 H   0  0  0  0  0  0  0  0  0  0  0  0
  138.2745   70.7067  221.4964 H   0  0  0  0  0  0  0  0  0  0  0  0
  138.0925   69.2354  223.5268 H   0  0  0  0  0  0  0  0  0  0  0  0
  138.7592   68.7395  225.7699 H   0  0  0  0  0  0  0  0  0  0  0  0
  141.6184   71.2505  227.7740 H   0  0  0  0  0  0  0  0  0  0  0  0
  141.8052   72.7075  225.7716 H   0  0  0  0  0  0  0  0  0  0  0  0
  1  2  2  0
  2  3  1  0
  3  4  1  0
  4  5  1  0
  5  6  2  0
  5  7  1  0
  7  8  1  0
  8  9  1  0
  9 10  1  0
 10 11  1  0
 11 12  1  0
 12 13  1  0
 13 14  2  0
 14 15  1  0
 15 16  2  0
 16 17  1  0
 17 18  2  0
  2 19  1  0
 19 20  2  0
 20 21  1  0
 21 22  2  0
 22 23  1  0
 23 24  2  0
 24 25  1  0
 24 26  1  0
 26 27  2  0
 27 28  1  0
 28 29  2  0
 12  7  1  0
 18 13  1  0
 29 19  1  0
 28 22  1  0
  3 30  1  0
  4 31  1  0
  4 32  1  0
  8 33  1  0
  8 34  1  0
  9 35  1  0
  9 36  1  0
 10 37  1  0
 10 38  1  0
 11 39  1  0
 11 40  1  0
 12 41  1  6
 14 42  1  0
 15 43  1  0
 16 44  1  0
 18 45  1  0
 20 46  1  0
 21 47  1  0
 23 48  1  0
 26 49  1  0
 27 50  1  0
M  END
>  <smiles>  (73) 
O=C(NCC(=O)N1CCCCC1c1cccnc1)c1ccc2cc(Cl)ccc2n1

>  <score_type>  (73) 
oracle

>  <origin>  (73) 
autodockgpu

>  <m_score__min__energy>  (73) 
-8.7100000000000009

>  <m_primary>  (73) 
energy

>  <rmsd>  (73) 
2.957691848297032

>  <m_score__min__rmsd>  (73) 
2.957691848297032

>  <meeko>  (73) 
{"free_energy": -7.56, "intermolecular_energy": -9.05, "internal_energy": -1.77, "cluster_size": 38, "cluster_id": 1, "rank_in_cluster": 38}

>  <energy>  (73) 
-8.42

>  <cluster_rmsd>  (73) 
0.49

>  <cluster>  (73) 
1

$$$$

     RDKit          3D

 50 53  0  0  0  0  0  0  0  0999 V2000
  139.2950   72.4440  220.4040 O   0  0  0  0  0  0  0  0  0  0  0  0
  139.7390   72.8320  221.5290 C   0  0  0  0  0  0  0  0  0  0  0  0
  140.1320   74.1890  221.7400 N   0  0  0  0  0  0  0  0  0  0  0  0
  140.0470   75.1860  220.6910 C   0  0  0  0  0  0  0  0  0  0  0  0
  141.2780   76.0020  220.6020 C   0  0  0  0  0  0  0  0  0  0  0  0
  141.4180   77.0610  221.2870 O   0  0  0  0  0  0  0  0  0  0  0  0
  142.2970   75.5520  219.7180 N   0  0  0  0  0  0  0  0  0  0  0  0
  143.3290   76.4360  219.1890 C   0  0  0  0  0  0  0  0  0  0  0  0
  143.4310   76.2220  217.7050 C   0  0  0  0  0  0  0  0  0  0  0  0
  142.3230   75.4180  217.1080 C   0  0  0  0  0  0  0  0  0  0  0  0
  141.9620   74.1690  217.8460 C   0  0  0  0  0  0  0  0  0  0  0  0
  142.3720   74.1550  219.2790 C   0  0  1  0  0  0  0  0  0  0  0  0
  143.7360   73.7090  219.5540 C   0  0  0  0  0  0  0  0  0  0  0  0
  144.2180   73.8330  220.8460 C   0  0  0  0  0  0  0  0  0  0  0  0
  145.5060   73.4270  221.1720 C   0  0  0  0  0  0  0  0  0  0  0  0
  146.3490   72.8830  220.2020 C   0  0  0  0  0  0  0  0  0  0  0  0
  145.8450   72.7780  218.9560 N   0  0  0  0  0  0  0  0  0  0  0  0
  144.5990   73.1670  218.6260 C   0  0  0  0  0  0  0  0  0  0  0  0
  139.8550   71.8770  222.6450 C   0  0  0  0  0  0  0  0  0  0  0  0
  139.4470   70.5720  222.4550 C   0  0  0  0  0  0  0  0  0  0  0  0
  139.5580   69.6710  223.5100 C   0  0  0  0  0  0  0  0  0  0  0  0
  140.0810   70.1320  224.7230 C   0  0  0  0  0  0  0  0  0  0  0  0
  140.1930   69.2310  225.7810 C   0  0  0  0  0  0  0  0  0  0  0  0
  140.7130   69.6720  227.0020 C   0  0  0  0  0  0  0  0  0  0  0  0
  140.8600   68.5380  228.3540 Cl  0  0  0  0  0  0  0  0  0  0  0  0
  141.1020   70.9900  227.1270 C   0  0  0  0  0  0  0  0  0  0  0  0
  140.9980   71.8980  226.0850 C   0  0  0  0  0  0  0  0  0  0  0  0
  140.4810   71.4450  224.8840 C   0  0  0  0  0  0  0  0  0  0  0  0
  140.3530   72.2750  223.8310 N   0  0  0  0  0  0  0  0  0  0  0  0
  140.4940   74.4350  222.7090 H   0  0  0  0  0  0  0  0  0  0  0  0
  139.8879   74.6769  219.7290 H   0  0  0  0  0  0  0  0  0  0  0  0
  139.2095   75.8586  220.9280 H   0  0  0  0  0  0  0  0  0  0  0  0
  143.0610   77.4828  219.3946 H   0  0  0  0  0  0  0  0  0  0  0  0
  144.2944   76.2141  219.6673 H   0  0  0  0  0  0  0  0  0  0  0  0
  143.4389   77.2080  217.2173 H   0  0  0  0  0  0  0  0  0  0  0  0
  144.3537   75.6467  217.5390 H   0  0  0  0  0  0  0  0  0  0  0  0
  141.4278   76.0557  217.0636 H   0  0  0  0  0  0  0  0  0  0  0  0
  142.6852   75.0913  216.1221 H   0  0  0  0  0  0  0  0  0  0  0  0
  140.8698   74.0469  217.8003 H   0  0  0  0  0  0  0  0  0  0  0  0
  142.5084   73.3489  217.3572 H   0  0  0  0  0  0  0  0  0  0  0  0
  141.7121   73.4412  219.7938 H   0  0  0  0  0  0  0  0  0  0  0  0
  143.5710   74.2597  221.6266 H   0  0  0  0  0  0  0  0  0  0  0  0
  145.8653   73.5355  222.2060 H   0  0  0  0  0  0  0  0  0  0  0  0
  147.3718   72.5568  220.4417 H   0  0  0  0  0  0  0  0  0  0  0  0
  144.2601   73.0489  217.5862 H   0  0  0  0  0  0  0  0  0  0  0  0
  139.0406   70.2493  221.4851 H   0  0  0  0  0  0  0  0  0  0  0  0
  139.2427   68.6236  223.3931 H   0  0  0  0  0  0  0  0  0  0  0  0
  139.8759   68.1850  225.6568 H   0  0  0  0  0  0  0  0  0  0  0  0
  141.5098   71.3328  228.0894 H   0  0  0  0  0  0  0  0  0  0  0  0
  141.3158   72.9438  226.2086 H   0  0  0  0  0  0  0  0  0  0  0  0
  1  2  2  0
  2  3  1  0
  3  4  1  0
  4  5  1  0
  5  6  2  0
  5  7  1  0
  7  8  1  0
  8  9  1  0
  9 10  1  0
 10 11  1  0
 11 12  1  0
 12 13  1  0
 13 14  2  0
 14 15  1  0
 15 16  2  0
 16 17  1  0
 17 18  2  0
  2 19  1  0
 19 20  2  0
 20 21  1  0
 21 22  2  0
 22 23  1  0
 23 24  2  0
 24 25  1  0
 24 26  1  0
 26 27  2  0
 27 28  1  0
 28 29  2  0
 12  7  1  0
 18 13  1  0
 29 19  1  0
 28 22  1  0
  3 30  1  0
  4 31  1  0
  4 32  1  0
  8 33  1  0
  8 34  1  0
  9 35  1  0
  9 36  1  0
 10 37  1  0
 10 38  1  0
 11 39  1  0
 11 40  1  0
 12 41  1  1
 14 42  1  0
 15 43  1  0
 16 44  1  0
 18 45  1  0
 20 46  1  0
 21 47  1  0
 23 48  1  0
 26 49  1  0
 27 50  1  0
M  END
>  <smiles>  (74) 
O=C(NCC(=O)N1CCCCC1c1cccnc1)c1ccc2cc(Cl)ccc2n1

>  <score_type>  (74) 
oracle

>  <origin>  (74) 
autodockgpu

>  <m_score__min__energy>  (74) 
-8.7100000000000009

>  <m_primary>  (74) 
energy

>  <rmsd>  (74) 
2.686181201977864

>  <m_score__min__rmsd>  (74) 
2.686181201977864

>  <meeko>  (74) 
{"free_energy": -7.85, "intermolecular_energy": -9.34, "internal_energy": -1.96, "cluster_size": 11, "cluster_id": 2, "rank_in_cluster": 9}

>  <energy>  (74) 
-8.42

>  <cluster_rmsd>  (74) 
0.76

>  <cluster>  (74) 
1

$$$$

     RDKit          3D

 50 53  0  0  0  0  0  0  0  0999 V2000
  139.6700   72.2000  220.8030 O   0  0  0  0  0  0  0  0  0  0  0  0
  139.6760   72.5930  222.0110 C   0  0  0  0  0  0  0  0  0  0  0  0
  139.5500   73.9770  222.3380 N   0  0  0  0  0  0  0  0  0  0  0  0
  139.4120   74.9990  221.3170 C   0  0  0  0  0  0  0  0  0  0  0  0
  140.6920   75.6920  221.0520 C   0  0  0  0  0  0  0  0  0  0  0  0
  141.7770   75.0460  220.9270 O   0  0  0  0  0  0  0  0  0  0  0  0
  140.6570   77.1090  220.9450 N   0  0  0  0  0  0  0  0  0  0  0  0
  139.4200   77.8760  221.0380 C   0  0  0  0  0  0  0  0  0  0  0  0
  139.3760   78.8560  219.9000 C   0  0  0  0  0  0  0  0  0  0  0  0
  140.4010   78.6330  218.8380 C   0  0  0  0  0  0  0  0  0  0  0  0
  141.7910   78.3810  219.3260 C   0  0  0  0  0  0  0  0  0  0  0  0
  141.8760   77.8950  220.7320 C   0  0  1  0  0  0  0  0  0  0  0  0
  141.8920   78.9240  221.7690 C   0  0  0  0  0  0  0  0  0  0  0  0
  141.7920   78.5230  223.0910 C   0  0  0  0  0  0  0  0  0  0  0  0
  141.8010   79.4530  224.1240 C   0  0  0  0  0  0  0  0  0  0  0  0
  141.9090   80.8170  223.8530 C   0  0  0  0  0  0  0  0  0  0  0  0
  142.0040   81.1690  222.5560 N   0  0  0  0  0  0  0  0  0  0  0  0
  141.9970   80.2800  221.5450 C   0  0  0  0  0  0  0  0  0  0  0  0
  139.8110   71.6140  223.1040 C   0  0  0  0  0  0  0  0  0  0  0  0
  139.4170   70.3090  222.8880 C   0  0  0  0  0  0  0  0  0  0  0  0
  139.5470   69.3860  223.9210 C   0  0  0  0  0  0  0  0  0  0  0  0
  140.0730   69.8250  225.1400 C   0  0  0  0  0  0  0  0  0  0  0  0
  140.2050   68.9020  226.1770 C   0  0  0  0  0  0  0  0  0  0  0  0
  140.7290   69.3210  227.4030 C   0  0  0  0  0  0  0  0  0  0  0  0
  140.9010   68.1590  228.7290 Cl  0  0  0  0  0  0  0  0  0  0  0  0
  141.1050   70.6410  227.5550 C   0  0  0  0  0  0  0  0  0  0  0  0
  140.9820   71.5710  226.5340 C   0  0  0  0  0  0  0  0  0  0  0  0
  140.4600   71.1390  225.3280 C   0  0  0  0  0  0  0  0  0  0  0  0
  140.3140   71.9910  224.2950 N   0  0  0  0  0  0  0  0  0  0  0  0
  139.5630   74.2260  223.3710 H   0  0  0  0  0  0  0  0  0  0  0  0
  139.0641   74.5270  220.3863 H   0  0  0  0  0  0  0  0  0  0  0  0
  138.6891   75.7454  221.6780 H   0  0  0  0  0  0  0  0  0  0  0  0
  138.5572   77.1965  220.9753 H   0  0  0  0  0  0  0  0  0  0  0  0
  139.3823   78.4128  221.9974 H   0  0  0  0  0  0  0  0  0  0  0  0
  138.3817   78.7936  219.4336 H   0  0  0  0  0  0  0  0  0  0  0  0
  139.5921   79.8431  220.3347 H   0  0  0  0  0  0  0  0  0  0  0  0
  140.0881   77.7625  218.2428 H   0  0  0  0  0  0  0  0  0  0  0  0
  140.4485   79.5699  218.2636 H   0  0  0  0  0  0  0  0  0  0  0  0
  142.2521   77.6252  218.6732 H   0  0  0  0  0  0  0  0  0  0  0  0
  142.3114   79.3497  219.2989 H   0  0  0  0  0  0  0  0  0  0  0  0
  142.8307   77.3572  220.8283 H   0  0  0  0  0  0  0  0  0  0  0  0
  141.7041   77.4522  223.3270 H   0  0  0  0  0  0  0  0  0  0  0  0
  141.7221   79.1097  225.1661 H   0  0  0  0  0  0  0  0  0  0  0  0
  141.9162   81.5672  224.6574 H   0  0  0  0  0  0  0  0  0  0  0  0
  142.0773   80.6462  220.5108 H   0  0  0  0  0  0  0  0  0  0  0  0
  139.0066   70.0034  221.9143 H   0  0  0  0  0  0  0  0  0  0  0  0
  139.2437   68.3378  223.7823 H   0  0  0  0  0  0  0  0  0  0  0  0
  139.8999   67.8552  226.0316 H   0  0  0  0  0  0  0  0  0  0  0  0
  141.5172   70.9666  228.5215 H   0  0  0  0  0  0  0  0  0  0  0  0
  141.2892   72.6173  226.6782 H   0  0  0  0  0  0  0  0  0  0  0  0
  1  2  2  0
  2  3  1  0
  3  4  1  0
  4  5  1  0
  5  6  2  0
  5  7  1  0
  7  8  1  0
  8  9  1  0
  9 10  1  0
 10 11  1  0
 11 12  1  0
 12 13  1  0
 13 14  2  0
 14 15  1  0
 15 16  2  0
 16 17  1  0
 17 18  2  0
  2 19  1  0
 19 20  2  0
 20 21  1  0
 21 22  2  0
 22 23  1  0
 23 24  2  0
 24 25  1  0
 24 26  1  0
 26 27  2  0
 27 28  1  0
 28 29  2  0
 12  7  1  0
 18 13  1  0
 29 19  1  0
 28 22  1  0
  3 30  1  0
  4 31  1  0
  4 32  1  0
  8 33  1  0
  8 34  1  0
  9 35  1  0
  9 36  1  0
 10 37  1  0
 10 38  1  0
 11 39  1  0
 11 40  1  0
 12 41  1  6
 14 42  1  0
 15 43  1  0
 16 44  1  0
 18 45  1  0
 20 46  1  0
 21 47  1  0
 23 48  1  0
 26 49  1  0
 27 50  1  0
M  END
>  <smiles>  (75) 
O=C(NCC(=O)N1CCCCC1c1cccnc1)c1ccc2cc(Cl)ccc2n1

>  <score_type>  (75) 
oracle

>  <origin>  (75) 
autodockgpu

>  <m_score__min__energy>  (75) 
-8.7100000000000009

>  <m_primary>  (75) 
energy

>  <rmsd>  (75) 
2.152800827968397

>  <m_score__min__rmsd>  (75) 
2.152800827968397

>  <meeko>  (75) 
{"free_energy": -8.49, "intermolecular_energy": -9.98, "internal_energy": -1.5, "cluster_size": 38, "cluster_id": 1, "rank_in_cluster": 22}

>  <energy>  (75) 
-8.41

>  <cluster_rmsd>  (75) 
0.66

>  <cluster>  (75) 
1

$$$$

     RDKit          3D

 50 53  0  0  0  0  0  0  0  0999 V2000
  139.4110   72.0480  220.8350 O   0  0  0  0  0  0  0  0  0  0  0  0
  139.4510   72.4580  222.0370 C   0  0  0  0  0  0  0  0  0  0  0  0
  139.3150   73.8440  222.3490 N   0  0  0  0  0  0  0  0  0  0  0  0
  139.1270   74.8500  221.3200 C   0  0  0  0  0  0  0  0  0  0  0  0
  138.8600   76.1860  221.8960 C   0  0  0  0  0  0  0  0  0  0  0  0
  137.9400   76.3630  222.7520 O   0  0  0  0  0  0  0  0  0  0  0  0
  139.6740   77.2630  221.4510 N   0  0  0  0  0  0  0  0  0  0  0  0
  139.1690   78.3340  220.6000 C   0  0  0  0  0  0  0  0  0  0  0  0
  140.1320   78.5410  219.4650 C   0  0  0  0  0  0  0  0  0  0  0  0
  141.1670   77.4760  219.3170 C   0  0  0  0  0  0  0  0  0  0  0  0
  141.8490   77.0570  220.5810 C   0  0  0  0  0  0  0  0  0  0  0  0
  141.0890   77.3640  221.8250 C   0  0  1  0  0  0  0  0  0  0  0  0
  141.2750   78.7020  222.3810 C   0  0  0  0  0  0  0  0  0  0  0  0
  142.2080   79.5350  221.7860 C   0  0  0  0  0  0  0  0  0  0  0  0
  142.4310   80.8190  222.2680 C   0  0  0  0  0  0  0  0  0  0  0  0
  141.7190   81.3020  223.3660 C   0  0  0  0  0  0  0  0  0  0  0  0
  140.8190   80.4640  223.9180 N   0  0  0  0  0  0  0  0  0  0  0  0
  140.5930   79.2170  223.4620 C   0  0  0  0  0  0  0  0  0  0  0  0
  139.6390   71.4970  223.1380 C   0  0  0  0  0  0  0  0  0  0  0  0
  139.3070   70.1720  222.9350 C   0  0  0  0  0  0  0  0  0  0  0  0
  139.4860   69.2660  223.9750 C   0  0  0  0  0  0  0  0  0  0  0  0
  139.9970   69.7400  225.1870 C   0  0  0  0  0  0  0  0  0  0  0  0
  140.1780   68.8340  226.2310 C   0  0  0  0  0  0  0  0  0  0  0  0
  140.6880   69.2890  227.4510 C   0  0  0  0  0  0  0  0  0  0  0  0
  140.9220   68.1480  228.7860 Cl  0  0  0  0  0  0  0  0  0  0  0  0
  141.0010   70.6260  227.5900 C   0  0  0  0  0  0  0  0  0  0  0  0
  140.8280   71.5400  226.5620 C   0  0  0  0  0  0  0  0  0  0  0  0
  140.3210   71.0730  225.3620 C   0  0  0  0  0  0  0  0  0  0  0  0
  140.1300   71.9080  224.3220 N   0  0  0  0  0  0  0  0  0  0  0  0
  139.3600   74.1070  223.3780 H   0  0  0  0  0  0  0  0  0  0  0  0
  140.0373   74.9036  220.7047 H   0  0  0  0  0  0  0  0  0  0  0  0
  138.2555   74.5596  220.7150 H   0  0  0  0  0  0  0  0  0  0  0  0
  138.1818   78.0565  220.2021 H   0  0  0  0  0  0  0  0  0  0  0  0
  139.0711   79.2617  221.1829 H   0  0  0  0  0  0  0  0  0  0  0  0
  139.5537   78.5877  218.5304 H   0  0  0  0  0  0  0  0  0  0  0  0
  140.6758   79.4709  219.6875 H   0  0  0  0  0  0  0  0  0  0  0  0
  140.6805   76.5891  218.8849 H   0  0  0  0  0  0  0  0  0  0  0  0
  141.9531   77.9070  218.6796 H   0  0  0  0  0  0  0  0  0  0  0  0
  142.0135   75.9702  220.5384 H   0  0  0  0  0  0  0  0  0  0  0  0
  142.7849   77.6323  220.6366 H   0  0  0  0  0  0  0  0  0  0  0  0
  141.4450   76.6662  222.5972 H   0  0  0  0  0  0  0  0  0  0  0  0
  142.7810   79.1747  220.9189 H   0  0  0  0  0  0  0  0  0  0  0  0
  143.1773   81.4618  221.7783 H   0  0  0  0  0  0  0  0  0  0  0  0
  141.8836   82.3152  223.7613 H   0  0  0  0  0  0  0  0  0  0  0  0
  139.8423   78.5915  223.9671 H   0  0  0  0  0  0  0  0  0  0  0  0
  138.9073   69.8384  221.9660 H   0  0  0  0  0  0  0  0  0  0  0  0
  139.2319   68.2034  223.8472 H   0  0  0  0  0  0  0  0  0  0  0  0
  139.9224   67.7726  226.0965 H   0  0  0  0  0  0  0  0  0  0  0  0
  141.4023   70.9792  228.5513 H   0  0  0  0  0  0  0  0  0  0  0  0
  141.0852   72.6011  226.6957 H   0  0  0  0  0  0  0  0  0  0  0  0
  1  2  2  0
  2  3  1  0
  3  4  1  0
  4  5  1  0
  5  6  2  0
  5  7  1  0
  7  8  1  0
  8  9  1  0
  9 10  1  0
 10 11  1  0
 11 12  1  0
 12 13  1  0
 13 14  2  0
 14 15  1  0
 15 16  2  0
 16 17  1  0
 17 18  2  0
  2 19  1  0
 19 20  2  0
 20 21  1  0
 21 22  2  0
 22 23  1  0
 23 24  2  0
 24 25  1  0
 24 26  1  0
 26 27  2  0
 27 28  1  0
 28 29  2  0
 12  7  1  0
 18 13  1  0
 29 19  1  0
 28 22  1  0
  3 30  1  0
  4 31  1  0
  4 32  1  0
  8 33  1  0
  8 34  1  0
  9 35  1  0
  9 36  1  0
 10 37  1  0
 10 38  1  0
 11 39  1  0
 11 40  1  0
 12 41  1  1
 14 42  1  0
 15 43  1  0
 16 44  1  0
 18 45  1  0
 20 46  1  0
 21 47  1  0
 23 48  1  0
 26 49  1  0
 27 50  1  0
M  END
>  <smiles>  (76) 
O=C(NCC(=O)N1CCCCC1c1cccnc1)c1ccc2cc(Cl)ccc2n1

>  <score_type>  (76) 
oracle

>  <origin>  (76) 
autodockgpu

>  <m_score__min__energy>  (76) 
-8.7100000000000009

>  <m_primary>  (76) 
energy

>  <rmsd>  (76) 
2.1828593775402054

>  <m_score__min__rmsd>  (76) 
2.1828593775402054

>  <meeko>  (76) 
{"free_energy": -8.36, "intermolecular_energy": -9.85, "internal_energy": -1.59, "cluster_size": 38, "cluster_id": 1, "rank_in_cluster": 29}

>  <energy>  (76) 
-8.4

>  <cluster_rmsd>  (76) 
0.82

>  <cluster>  (76) 
1

$$$$

     RDKit          3D

 50 53  0  0  0  0  0  0  0  0999 V2000
  140.2710   72.3970  220.8040 O   0  0  0  0  0  0  0  0  0  0  0  0
  139.9710   72.7410  221.9900 C   0  0  0  0  0  0  0  0  0  0  0  0
  139.5910   74.0830  222.2950 N   0  0  0  0  0  0  0  0  0  0  0  0
  139.5280   75.1150  221.2780 C   0  0  0  0  0  0  0  0  0  0  0  0
  139.0340   76.3990  221.8220 C   0  0  0  0  0  0  0  0  0  0  0  0
  138.0440   76.4410  222.6160 O   0  0  0  0  0  0  0  0  0  0  0  0
  139.7100   77.5830  221.4200 N   0  0  0  0  0  0  0  0  0  0  0  0
  139.0170   78.8400  221.1660 C   0  0  0  0  0  0  0  0  0  0  0  0
  139.4960   79.3980  219.8560 C   0  0  0  0  0  0  0  0  0  0  0  0
  140.3030   78.4540  219.0280 C   0  0  0  0  0  0  0  0  0  0  0  0
  141.3710   77.7050  219.7600 C   0  0  0  0  0  0  0  0  0  0  0  0
  141.1650   77.6120  221.2320 C   0  0  1  0  0  0  0  0  0  0  0  0
  141.6610   78.7350  222.0250 C   0  0  0  0  0  0  0  0  0  0  0  0
  141.5890   78.6450  223.4040 C   0  0  0  0  0  0  0  0  0  0  0  0
  142.0440   79.6800  224.2130 C   0  0  0  0  0  0  0  0  0  0  0  0
  142.5850   80.8370  223.6530 C   0  0  0  0  0  0  0  0  0  0  0  0
  142.6390   80.8880  222.3070 N   0  0  0  0  0  0  0  0  0  0  0  0
  142.2020   79.8940  221.5110 C   0  0  0  0  0  0  0  0  0  0  0  0
  140.0100   71.7490  223.0780 C   0  0  0  0  0  0  0  0  0  0  0  0
  139.5530   70.4690  222.8350 C   0  0  0  0  0  0  0  0  0  0  0  0
  139.5920   69.5330  223.8640 C   0  0  0  0  0  0  0  0  0  0  0  0
  140.0950   69.9340  225.1060 C   0  0  0  0  0  0  0  0  0  0  0  0
  140.1350   68.9970  226.1380 C   0  0  0  0  0  0  0  0  0  0  0  0
  140.6340   69.3780  227.3870 C   0  0  0  0  0  0  0  0  0  0  0  0
  140.6900   68.1990  228.7080 Cl  0  0  0  0  0  0  0  0  0  0  0  0
  141.0770   70.6730  227.5660 C   0  0  0  0  0  0  0  0  0  0  0  0
  141.0440   71.6160  226.5500 C   0  0  0  0  0  0  0  0  0  0  0  0
  140.5460   71.2230  225.3200 C   0  0  0  0  0  0  0  0  0  0  0  0
  140.4870   72.0890  224.2900 N   0  0  0  0  0  0  0  0  0  0  0  0
  139.3550   74.2920  223.3100 H   0  0  0  0  0  0  0  0  0  0  0  0
  140.5358   75.2685  220.8648 H   0  0  0  0  0  0  0  0  0  0  0  0
  138.8254   74.7828  220.4995 H   0  0  0  0  0  0  0  0  0  0  0  0
  137.9326   78.6617  221.1180 H   0  0  0  0  0  0  0  0  0  0  0  0
  139.2264   79.5538  221.9764 H   0  0  0  0  0  0  0  0  0  0  0  0
  138.6149   79.6989  219.2702 H   0  0  0  0  0  0  0  0  0  0  0  0
  140.1619   80.2378  220.1036 H   0  0  0  0  0  0  0  0  0  0  0  0
  139.6152   77.7179  218.5863 H   0  0  0  0  0  0  0  0  0  0  0  0
  140.8253   79.0751  218.2854 H   0  0  0  0  0  0  0  0  0  0  0  0
  141.4133   76.6835  219.3542 H   0  0  0  0  0  0  0  0  0  0  0  0
  142.3045   78.2674  219.6107 H   0  0  0  0  0  0  0  0  0  0  0  0
  141.7239   76.7298  221.5775 H   0  0  0  0  0  0  0  0  0  0  0  0
  141.1656   77.7414  223.8668 H   0  0  0  0  0  0  0  0  0  0  0  0
  141.9766   79.5853  225.3068 H   0  0  0  0  0  0  0  0  0  0  0  0
  142.9491   81.6658  224.2779 H   0  0  0  0  0  0  0  0  0  0  0  0
  142.2788   80.0100  220.4198 H   0  0  0  0  0  0  0  0  0  0  0  0
  139.1642   70.1934  221.8436 H   0  0  0  0  0  0  0  0  0  0  0  0
  139.2364   68.5043  223.7047 H   0  0  0  0  0  0  0  0  0  0  0  0
  139.7780   67.9700  225.9712 H   0  0  0  0  0  0  0  0  0  0  0  0
  141.4704   70.9675  228.5501 H   0  0  0  0  0  0  0  0  0  0  0  0
  141.4019   72.6428  226.7162 H   0  0  0  0  0  0  0  0  0  0  0  0
  1  2  2  0
  2  3  1  0
  3  4  1  0
  4  5  1  0
  5  6  2  0
  5  7  1  0
  7  8  1  0
  8  9  1  0
  9 10  1  0
 10 11  1  0
 11 12  1  0
 12 13  1  0
 13 14  2  0
 14 15  1  0
 15 16  2  0
 16 17  1  0
 17 18  2  0
  2 19  1  0
 19 20  2  0
 20 21  1  0
 21 22  2  0
 22 23  1  0
 23 24  2  0
 24 25  1  0
 24 26  1  0
 26 27  2  0
 27 28  1  0
 28 29  2  0
 12  7  1  0
 18 13  1  0
 29 19  1  0
 28 22  1  0
  3 30  1  0
  4 31  1  0
  4 32  1  0
  8 33  1  0
  8 34  1  0
  9 35  1  0
  9 36  1  0
 10 37  1  0
 10 38  1  0
 11 39  1  0
 11 40  1  0
 12 41  1  1
 14 42  1  0
 15 43  1  0
 16 44  1  0
 18 45  1  0
 20 46  1  0
 21 47  1  0
 23 48  1  0
 26 49  1  0
 27 50  1  0
M  END
>  <smiles>  (77) 
O=C(NCC(=O)N1CCCCC1c1cccnc1)c1ccc2cc(Cl)ccc2n1

>  <score_type>  (77) 
oracle

>  <origin>  (77) 
autodockgpu

>  <m_score__min__energy>  (77) 
-8.7100000000000009

>  <m_primary>  (77) 
energy

>  <rmsd>  (77) 
2.458017560107692

>  <m_score__min__rmsd>  (77) 
2.458017560107692

>  <meeko>  (77) 
{"free_energy": -8.54, "intermolecular_energy": -10.03, "internal_energy": -1.54, "cluster_size": 38, "cluster_id": 1, "rank_in_cluster": 18}

>  <energy>  (77) 
-8.38

>  <cluster_rmsd>  (77) 
0.86

>  <cluster>  (77) 
1

$$$$

     RDKit          3D

 50 53  0  0  0  0  0  0  0  0999 V2000
  139.7930   72.1950  220.7660 O   0  0  0  0  0  0  0  0  0  0  0  0
  139.7290   72.5860  221.9740 C   0  0  0  0  0  0  0  0  0  0  0  0
  139.5610   73.9670  222.2940 N   0  0  0  0  0  0  0  0  0  0  0  0
  139.4560   74.9880  221.2680 C   0  0  0  0  0  0  0  0  0  0  0  0
  140.7100   75.7600  221.1270 C   0  0  0  0  0  0  0  0  0  0  0  0
  141.8390   75.1820  221.0860 O   0  0  0  0  0  0  0  0  0  0  0  0
  140.5990   77.1750  221.0390 N   0  0  0  0  0  0  0  0  0  0  0  0
  139.3440   77.8820  221.2640 C   0  0  0  0  0  0  0  0  0  0  0  0
  139.1390   78.8660  220.1470 C   0  0  0  0  0  0  0  0  0  0  0  0
  140.0610   78.6980  218.9850 C   0  0  0  0  0  0  0  0  0  0  0  0
  141.5040   78.5090  219.3280 C   0  0  0  0  0  0  0  0  0  0  0  0
  141.7530   78.0190  220.7130 C   0  0  1  0  0  0  0  0  0  0  0  0
  141.8250   79.0400  221.7550 C   0  0  0  0  0  0  0  0  0  0  0  0
  141.8030   78.6300  223.0770 C   0  0  0  0  0  0  0  0  0  0  0  0
  141.8690   79.5530  224.1140 C   0  0  0  0  0  0  0  0  0  0  0  0
  141.9570   80.9200  223.8470 C   0  0  0  0  0  0  0  0  0  0  0  0
  141.9760   81.2810  222.5490 N   0  0  0  0  0  0  0  0  0  0  0  0
  141.9130   80.3980  221.5340 C   0  0  0  0  0  0  0  0  0  0  0  0
  139.8270   71.6090  223.0720 C   0  0  0  0  0  0  0  0  0  0  0  0
  139.4100   70.3110  222.8530 C   0  0  0  0  0  0  0  0  0  0  0  0
  139.5050   69.3890  223.8910 C   0  0  0  0  0  0  0  0  0  0  0  0
  140.0200   69.8220  225.1170 C   0  0  0  0  0  0  0  0  0  0  0  0
  140.1160   68.9000  226.1590 C   0  0  0  0  0  0  0  0  0  0  0  0
  140.6290   69.3130  227.3920 C   0  0  0  0  0  0  0  0  0  0  0  0
  140.7560   68.1520  228.7240 Cl  0  0  0  0  0  0  0  0  0  0  0  0
  141.0290   70.6250  227.5470 C   0  0  0  0  0  0  0  0  0  0  0  0
  140.9410   71.5540  226.5210 C   0  0  0  0  0  0  0  0  0  0  0  0
  140.4300   71.1290  225.3070 C   0  0  0  0  0  0  0  0  0  0  0  0
  140.3180   71.9800  224.2690 N   0  0  0  0  0  0  0  0  0  0  0  0
  139.5160   74.2150  223.3270 H   0  0  0  0  0  0  0  0  0  0  0  0
  139.2264   74.5042  220.3072 H   0  0  0  0  0  0  0  0  0  0  0  0
  138.6577   75.6855  221.5618 H   0  0  0  0  0  0  0  0  0  0  0  0
  138.5118   77.1628  221.2813 H   0  0  0  0  0  0  0  0  0  0  0  0
  139.3791   78.4108  222.2279 H   0  0  0  0  0  0  0  0  0  0  0  0
  138.1067   78.7591  219.7825 H   0  0  0  0  0  0  0  0  0  0  0  0
  139.3510   79.8598  220.5682 H   0  0  0  0  0  0  0  0  0  0  0  0
  139.7303   77.8172  218.4151 H   0  0  0  0  0  0  0  0  0  0  0  0
  140.0068   79.6396  218.4190 H   0  0  0  0  0  0  0  0  0  0  0  0
  141.9314   77.7798  218.6240 H   0  0  0  0  0  0  0  0  0  0  0  0
  141.9735   79.5014  219.2591 H   0  0  0  0  0  0  0  0  0  0  0  0
  142.7369   77.5271  220.7062 H   0  0  0  0  0  0  0  0  0  0  0  0
  141.7322   77.5574  223.3103 H   0  0  0  0  0  0  0  0  0  0  0  0
  141.8517   79.2023  225.1564 H   0  0  0  0  0  0  0  0  0  0  0  0
  142.0082   81.6647  224.6550 H   0  0  0  0  0  0  0  0  0  0  0  0
  141.9323   80.7709  220.4993 H   0  0  0  0  0  0  0  0  0  0  0  0
  139.0091   70.0106  221.8737 H   0  0  0  0  0  0  0  0  0  0  0  0
  139.1833   68.3465  223.7508 H   0  0  0  0  0  0  0  0  0  0  0  0
  139.7916   67.8592  226.0122 H   0  0  0  0  0  0  0  0  0  0  0  0
  141.4320   70.9452  228.5191 H   0  0  0  0  0  0  0  0  0  0  0  0
  141.2666   72.5945  226.6673 H   0  0  0  0  0  0  0  0  0  0  0  0
  1  2  2  0
  2  3  1  0
  3  4  1  0
  4  5  1  0
  5  6  2  0
  5  7  1  0
  7  8  1  0
  8  9  1  0
  9 10  1  0
 10 11  1  0
 11 12  1  0
 12 13  1  0
 13 14  2  0
 14 15  1  0
 15 16  2  0
 16 17  1  0
 17 18  2  0
  2 19  1  0
 19 20  2  0
 20 21  1  0
 21 22  2  0
 22 23  1  0
 23 24  2  0
 24 25  1  0
 24 26  1  0
 26 27  2  0
 27 28  1  0
 28 29  2  0
 12  7  1  0
 18 13  1  0
 29 19  1  0
 28 22  1  0
  3 30  1  0
  4 31  1  0
  4 32  1  0
  8 33  1  0
  8 34  1  0
  9 35  1  0
  9 36  1  0
 10 37  1  0
 10 38  1  0
 11 39  1  0
 11 40  1  0
 12 41  1  6
 14 42  1  0
 15 43  1  0
 16 44  1  0
 18 45  1  0
 20 46  1  0
 21 47  1  0
 23 48  1  0
 26 49  1  0
 27 50  1  0
M  END
>  <smiles>  (78) 
O=C(NCC(=O)N1CCCCC1c1cccnc1)c1ccc2cc(Cl)ccc2n1

>  <score_type>  (78) 
oracle

>  <origin>  (78) 
autodockgpu

>  <m_score__min__energy>  (78) 
-8.7100000000000009

>  <m_primary>  (78) 
energy

>  <rmsd>  (78) 
2.213422816807602

>  <m_score__min__rmsd>  (78) 
2.213422816807602

>  <meeko>  (78) 
{"free_energy": -8.55, "intermolecular_energy": -10.04, "internal_energy": -1.47, "cluster_size": 38, "cluster_id": 1, "rank_in_cluster": 16}

>  <energy>  (78) 
-8.37

>  <cluster_rmsd>  (78) 
0.64

>  <cluster>  (78) 
1

$$$$

     RDKit          3D

 50 53  0  0  0  0  0  0  0  0999 V2000
  139.9230   72.6870  220.5710 O   0  0  0  0  0  0  0  0  0  0  0  0
  139.8140   73.0090  221.7960 C   0  0  0  0  0  0  0  0  0  0  0  0
  139.6160   74.3670  222.1890 N   0  0  0  0  0  0  0  0  0  0  0  0
  139.5300   75.4430  221.2200 C   0  0  0  0  0  0  0  0  0  0  0  0
  140.7560   76.2720  221.2040 C   0  0  0  0  0  0  0  0  0  0  0  0
  141.8680   75.7960  220.8190 O   0  0  0  0  0  0  0  0  0  0  0  0
  140.6380   77.6200  221.6390 N   0  0  0  0  0  0  0  0  0  0  0  0
  140.6380   78.7490  220.7160 C   0  0  0  0  0  0  0  0  0  0  0  0
  141.5940   79.7890  221.2280 C   0  0  0  0  0  0  0  0  0  0  0  0
  142.4840   79.3330  222.3360 C   0  0  0  0  0  0  0  0  0  0  0  0
  141.8100   78.5790  223.4380 C   0  0  0  0  0  0  0  0  0  0  0  0
  140.5070   77.9620  223.0590 C   0  0  1  0  0  0  0  0  0  0  0  0
  139.3310   78.8210  223.1700 C   0  0  0  0  0  0  0  0  0  0  0  0
  139.4660   80.0360  223.8200 C   0  0  0  0  0  0  0  0  0  0  0  0
  138.3840   80.8980  223.9580 C   0  0  0  0  0  0  0  0  0  0  0  0
  137.1320   80.5580  223.4460 C   0  0  0  0  0  0  0  0  0  0  0  0
  137.0390   79.3670  222.8210 N   0  0  0  0  0  0  0  0  0  0  0  0
  138.0780   78.5230  222.6790 C   0  0  0  0  0  0  0  0  0  0  0  0
  139.8890   71.9710  222.8400 C   0  0  0  0  0  0  0  0  0  0  0  0
  139.4430   70.6970  222.5510 C   0  0  0  0  0  0  0  0  0  0  0  0
  139.5160   69.7180  223.5380 C   0  0  0  0  0  0  0  0  0  0  0  0
  140.0410   70.0720  224.7850 C   0  0  0  0  0  0  0  0  0  0  0  0
  140.1160   69.0930  225.7750 C   0  0  0  0  0  0  0  0  0  0  0  0
  140.6370   69.4260  227.0290 C   0  0  0  0  0  0  0  0  0  0  0  0
  140.7370   68.1930  228.2950 Cl  0  0  0  0  0  0  0  0  0  0  0  0
  141.0670   70.7190  227.2530 C   0  0  0  0  0  0  0  0  0  0  0  0
  141.0000   71.7040  226.2800 C   0  0  0  0  0  0  0  0  0  0  0  0
  140.4810   71.3570  225.0450 C   0  0  0  0  0  0  0  0  0  0  0  0
  140.3880   72.2650  224.0550 N   0  0  0  0  0  0  0  0  0  0  0  0
  139.5340   74.5540  223.2320 H   0  0  0  0  0  0  0  0  0  0  0  0
  139.3809   75.0097  220.2200 H   0  0  0  0  0  0  0  0  0  0  0  0
  138.6858   76.0891  221.5027 H   0  0  0  0  0  0  0  0  0  0  0  0
  140.9569   78.4119  219.7187 H   0  0  0  0  0  0  0  0  0  0  0  0
  139.6259   79.1736  220.6428 H   0  0  0  0  0  0  0  0  0  0  0  0
  142.2294   80.1113  220.3899 H   0  0  0  0  0  0  0  0  0  0  0  0
  140.9759   80.5991  221.6422 H   0  0  0  0  0  0  0  0  0  0  0  0
  143.2565   78.6806  221.9028 H   0  0  0  0  0  0  0  0  0  0  0  0
  142.8825   80.2484  222.7978 H   0  0  0  0  0  0  0  0  0  0  0  0
  142.4863   77.7771  223.7691 H   0  0  0  0  0  0  0  0  0  0  0  0
  141.5907   79.3113  224.2290 H   0  0  0  0  0  0  0  0  0  0  0  0
  140.3349   77.1260  223.7529 H   0  0  0  0  0  0  0  0  0  0  0  0
  140.4440   80.3236  224.2334 H   0  0  0  0  0  0  0  0  0  0  0  0
  138.5168   81.8589  224.4767 H   0  0  0  0  0  0  0  0  0  0  0  0
  136.2649   81.2273  223.5469 H   0  0  0  0  0  0  0  0  0  0  0  0
  137.9226   77.5679  222.1560 H   0  0  0  0  0  0  0  0  0  0  0  0
  139.0365   70.4592  221.5569 H   0  0  0  0  0  0  0  0  0  0  0  0
  139.1697   68.6925  223.3421 H   0  0  0  0  0  0  0  0  0  0  0  0
  139.7689   68.0692  225.5715 H   0  0  0  0  0  0  0  0  0  0  0  0
  141.4780   70.9769  228.2402 H   0  0  0  0  0  0  0  0  0  0  0  0
  141.3479   72.7276  226.4829 H   0  0  0  0  0  0  0  0  0  0  0  0
  1  2  2  0
  2  3  1  0
  3  4  1  0
  4  5  1  0
  5  6  2  0
  5  7  1  0
  7  8  1  0
  8  9  1  0
  9 10  1  0
 10 11  1  0
 11 12  1  0
 12 13  1  0
 13 14  2  0
 14 15  1  0
 15 16  2  0
 16 17  1  0
 17 18  2  0
  2 19  1  0
 19 20  2  0
 20 21  1  0
 21 22  2  0
 22 23  1  0
 23 24  2  0
 24 25  1  0
 24 26  1  0
 26 27  2  0
 27 28  1  0
 28 29  2  0
 12  7  1  0
 18 13  1  0
 29 19  1  0
 28 22  1  0
  3 30  1  0
  4 31  1  0
  4 32  1  0
  8 33  1  0
  8 34  1  0
  9 35  1  0
  9 36  1  0
 10 37  1  0
 10 38  1  0
 11 39  1  0
 11 40  1  0
 12 41  1  1
 14 42  1  0
 15 43  1  0
 16 44  1  0
 18 45  1  0
 20 46  1  0
 21 47  1  0
 23 48  1  0
 26 49  1  0
 27 50  1  0
M  END
>  <smiles>  (79) 
O=C(NCC(=O)N1CCCCC1c1cccnc1)c1ccc2cc(Cl)ccc2n1

>  <score_type>  (79) 
oracle

>  <origin>  (79) 
autodockgpu

>  <m_score__min__energy>  (79) 
-8.7100000000000009

>  <m_primary>  (79) 
energy

>  <rmsd>  (79) 
3.2545874196789355

>  <m_score__min__rmsd>  (79) 
3.2545874196789355

>  <meeko>  (79) 
{"free_energy": -8.32, "intermolecular_energy": -9.82, "internal_energy": -1.48, "cluster_size": 38, "cluster_id": 1, "rank_in_cluster": 31}

>  <energy>  (79) 
-8.36

>  <cluster_rmsd>  (79) 
0.41

>  <cluster>  (79) 
1

$$$$

     RDKit          3D

 50 53  0  0  0  0  0  0  0  0999 V2000
  139.9590   72.3780  220.7090 O   0  0  0  0  0  0  0  0  0  0  0  0
  139.8150   72.7850  221.9040 C   0  0  0  0  0  0  0  0  0  0  0  0
  139.5950   74.1660  222.1930 N   0  0  0  0  0  0  0  0  0  0  0  0
  139.5280   75.1690  221.1480 C   0  0  0  0  0  0  0  0  0  0  0  0
  140.6860   76.0890  221.1890 C   0  0  0  0  0  0  0  0  0  0  0  0
  141.8720   75.6620  221.0420 O   0  0  0  0  0  0  0  0  0  0  0  0
  140.4170   77.4690  221.4010 N   0  0  0  0  0  0  0  0  0  0  0  0
  139.2910   77.9390  222.2000 C   0  0  0  0  0  0  0  0  0  0  0  0
  138.5710   79.0120  221.4320 C   0  0  0  0  0  0  0  0  0  0  0  0
  138.9730   79.1370  220.0000 C   0  0  0  0  0  0  0  0  0  0  0  0
  140.4460   79.1330  219.7400 C   0  0  0  0  0  0  0  0  0  0  0  0
  141.2640   78.5160  220.8220 C   0  0  1  0  0  0  0  0  0  0  0  0
  141.6440   79.3970  221.9240 C   0  0  0  0  0  0  0  0  0  0  0  0
  141.4440   80.7580  221.7740 C   0  0  0  0  0  0  0  0  0  0  0  0
  141.7840   81.6480  222.7870 C   0  0  0  0  0  0  0  0  0  0  0  0
  142.3390   81.1890  223.9820 C   0  0  0  0  0  0  0  0  0  0  0  0
  142.5180   79.8570  224.0920 N   0  0  0  0  0  0  0  0  0  0  0  0
  142.1930   78.9840  223.1200 C   0  0  0  0  0  0  0  0  0  0  0  0
  139.8700   71.8250  223.0210 C   0  0  0  0  0  0  0  0  0  0  0  0
  139.3990   70.5420  222.8260 C   0  0  0  0  0  0  0  0  0  0  0  0
  139.4540   69.6370  223.8810 C   0  0  0  0  0  0  0  0  0  0  0  0
  139.9850   70.0710  225.1000 C   0  0  0  0  0  0  0  0  0  0  0  0
  140.0400   69.1660  226.1590 C   0  0  0  0  0  0  0  0  0  0  0  0
  140.5670   69.5800  227.3860 C   0  0  0  0  0  0  0  0  0  0  0  0
  140.6430   68.4400  228.7400 Cl  0  0  0  0  0  0  0  0  0  0  0  0
  141.0210   70.8770  227.5170 C   0  0  0  0  0  0  0  0  0  0  0  0
  140.9740   71.7890  226.4730 C   0  0  0  0  0  0  0  0  0  0  0  0
  140.4480   71.3630  225.2670 C   0  0  0  0  0  0  0  0  0  0  0  0
  140.3740   72.1980  224.2130 N   0  0  0  0  0  0  0  0  0  0  0  0
  139.4840   74.4260  223.2180 H   0  0  0  0  0  0  0  0  0  0  0  0
  139.5101   74.6637  220.1711 H   0  0  0  0  0  0  0  0  0  0  0  0
  138.6157   75.7632  221.3048 H   0  0  0  0  0  0  0  0  0  0  0  0
  138.6046   77.1031  222.4004 H   0  0  0  0  0  0  0  0  0  0  0  0
  139.6526   78.3415  223.1577 H   0  0  0  0  0  0  0  0  0  0  0  0
  137.4937   78.7926  221.4666 H   0  0  0  0  0  0  0  0  0  0  0  0
  138.8367   79.9657  221.9115 H   0  0  0  0  0  0  0  0  0  0  0  0
  138.5297   78.2943  219.4492 H   0  0  0  0  0  0  0  0  0  0  0  0
  138.6118   80.1225  219.6708 H   0  0  0  0  0  0  0  0  0  0  0  0
  140.6290   78.5744  218.8102 H   0  0  0  0  0  0  0  0  0  0  0  0
  140.7549   80.1869  219.6773 H   0  0  0  0  0  0  0  0  0  0  0  0
  142.2071   78.1865  220.3616 H   0  0  0  0  0  0  0  0  0  0  0  0
  141.0094   81.1418  220.8392 H   0  0  0  0  0  0  0  0  0  0  0  0
  141.6136   82.7254  222.6447 H   0  0  0  0  0  0  0  0  0  0  0  0
  142.6164   81.8785  224.7930 H   0  0  0  0  0  0  0  0  0  0  0  0
  142.3703   77.9109  223.2843 H   0  0  0  0  0  0  0  0  0  0  0  0
  138.9868   70.2402  221.8519 H   0  0  0  0  0  0  0  0  0  0  0  0
  139.0892   68.6064  223.7596 H   0  0  0  0  0  0  0  0  0  0  0  0
  139.6727   68.1371  226.0306 H   0  0  0  0  0  0  0  0  0  0  0  0
  141.4349   71.1988  228.4840 H   0  0  0  0  0  0  0  0  0  0  0  0
  141.3430   72.8174  226.6001 H   0  0  0  0  0  0  0  0  0  0  0  0
  1  2  2  0
  2  3  1  0
  3  4  1  0
  4  5  1  0
  5  6  2  0
  5  7  1  0
  7  8  1  0
  8  9  1  0
  9 10  1  0
 10 11  1  0
 11 12  1  0
 12 13  1  0
 13 14  2  0
 14 15  1  0
 15 16  2  0
 16 17  1  0
 17 18  2  0
  2 19  1  0
 19 20  2  0
 20 21  1  0
 21 22  2  0
 22 23  1  0
 23 24  2  0
 24 25  1  0
 24 26  1  0
 26 27  2  0
 27 28  1  0
 28 29  2  0
 12  7  1  0
 18 13  1  0
 29 19  1  0
 28 22  1  0
  3 30  1  0
  4 31  1  0
  4 32  1  0
  8 33  1  0
  8 34  1  0
  9 35  1  0
  9 36  1  0
 10 37  1  0
 10 38  1  0
 11 39  1  0
 11 40  1  0
 12 41  1  6
 14 42  1  0
 15 43  1  0
 16 44  1  0
 18 45  1  0
 20 46  1  0
 21 47  1  0
 23 48  1  0
 26 49  1  0
 27 50  1  0
M  END
>  <smiles>  (80) 
O=C(NCC(=O)N1CCCCC1c1cccnc1)c1ccc2cc(Cl)ccc2n1

>  <score_type>  (80) 
oracle

>  <origin>  (80) 
autodockgpu

>  <m_score__min__energy>  (80) 
-8.7100000000000009

>  <m_primary>  (80) 
energy

>  <rmsd>  (80) 
2.667756387886848

>  <m_score__min__rmsd>  (80) 
2.667756387886848

>  <meeko>  (80) 
{"free_energy": -8.5, "intermolecular_energy": -9.99, "internal_energy": -1.41, "cluster_size": 38, "cluster_id": 1, "rank_in_cluster": 21}

>  <energy>  (80) 
-8.34

>  <cluster_rmsd>  (80) 
0.59

>  <cluster>  (80) 
1

$$$$

     RDKit          3D

 50 53  0  0  0  0  0  0  0  0999 V2000
  140.1100   72.5400  220.8030 O   0  0  0  0  0  0  0  0  0  0  0  0
  139.8840   72.8930  222.0020 C   0  0  0  0  0  0  0  0  0  0  0  0
  139.5640   74.2460  222.3270 N   0  0  0  0  0  0  0  0  0  0  0  0
  139.4820   75.2810  221.3140 C   0  0  0  0  0  0  0  0  0  0  0  0
  140.7290   76.0730  221.2300 C   0  0  0  0  0  0  0  0  0  0  0  0
  141.8680   75.5110  221.2370 O   0  0  0  0  0  0  0  0  0  0  0  0
  140.6010   77.4860  221.1440 N   0  0  0  0  0  0  0  0  0  0  0  0
  139.3530   78.1830  221.4290 C   0  0  0  0  0  0  0  0  0  0  0  0
  139.0840   79.1610  220.3200 C   0  0  0  0  0  0  0  0  0  0  0  0
  139.9480   78.9960  219.1140 C   0  0  0  0  0  0  0  0  0  0  0  0
  141.4080   78.8210  219.3840 C   0  0  0  0  0  0  0  0  0  0  0  0
  141.7300   78.3380  220.7570 C   0  0  1  0  0  0  0  0  0  0  0  0
  141.8450   79.3650  221.7900 C   0  0  0  0  0  0  0  0  0  0  0  0
  142.0740   78.9590  223.0940 C   0  0  0  0  0  0  0  0  0  0  0  0
  142.1940   79.8870  224.1220 C   0  0  0  0  0  0  0  0  0  0  0  0
  142.0840   81.2540  223.8650 C   0  0  0  0  0  0  0  0  0  0  0  0
  141.8610   81.6100  222.5840 N   0  0  0  0  0  0  0  0  0  0  0  0
  141.7430   80.7230  221.5780 C   0  0  0  0  0  0  0  0  0  0  0  0
  139.9470   71.8980  223.0880 C   0  0  0  0  0  0  0  0  0  0  0  0
  139.5030   70.6130  222.8460 C   0  0  0  0  0  0  0  0  0  0  0  0
  139.5650   69.6750  223.8710 C   0  0  0  0  0  0  0  0  0  0  0  0
  140.0760   70.0780  225.1090 C   0  0  0  0  0  0  0  0  0  0  0  0
  140.1400   69.1400  226.1380 C   0  0  0  0  0  0  0  0  0  0  0  0
  140.6470   69.5230  227.3830 C   0  0  0  0  0  0  0  0  0  0  0  0
  140.7330   68.3410  228.6990 Cl  0  0  0  0  0  0  0  0  0  0  0  0
  141.0750   70.8240  227.5610 C   0  0  0  0  0  0  0  0  0  0  0  0
  141.0200   71.7680  226.5470 C   0  0  0  0  0  0  0  0  0  0  0  0
  140.5140   71.3720  225.3220 C   0  0  0  0  0  0  0  0  0  0  0  0
  140.4330   72.2410  224.2960 N   0  0  0  0  0  0  0  0  0  0  0  0
  139.3880   74.4610  223.3530 H   0  0  0  0  0  0  0  0  0  0  0  0
  139.2944   74.8091  220.3382 H   0  0  0  0  0  0  0  0  0  0  0  0
  138.6639   75.9627  221.5896 H   0  0  0  0  0  0  0  0  0  0  0  0
  138.5290   77.4569  221.4903 H   0  0  0  0  0  0  0  0  0  0  0  0
  139.4315   78.7158  222.3881 H   0  0  0  0  0  0  0  0  0  0  0  0
  138.0357   79.0442  220.0080 H   0  0  0  0  0  0  0  0  0  0  0  0
  139.3084   80.1582  220.7265 H   0  0  0  0  0  0  0  0  0  0  0  0
  139.5969   78.1099  218.5649 H   0  0  0  0  0  0  0  0  0  0  0  0
  139.8572   79.9350  218.5482 H   0  0  0  0  0  0  0  0  0  0  0  0
  141.8060   78.0930  218.6617 H   0  0  0  0  0  0  0  0  0  0  0  0
  141.8651   79.8169  219.2879 H   0  0  0  0  0  0  0  0  0  0  0  0
  142.7160   77.8534  220.7029 H   0  0  0  0  0  0  0  0  0  0  0  0
  142.1623   77.8860  223.3197 H   0  0  0  0  0  0  0  0  0  0  0  0
  142.3777   79.5398  225.1495 H   0  0  0  0  0  0  0  0  0  0  0  0
  142.1745   82.0024  224.6661 H   0  0  0  0  0  0  0  0  0  0  0  0
  141.5600   81.0926  220.5582 H   0  0  0  0  0  0  0  0  0  0  0  0
  139.1066   70.3357  221.8581 H   0  0  0  0  0  0  0  0  0  0  0  0
  139.2209   68.6424  223.7121 H   0  0  0  0  0  0  0  0  0  0  0  0
  139.7950   68.1088  225.9720 H   0  0  0  0  0  0  0  0  0  0  0  0
  141.4736   71.1218  228.5420 H   0  0  0  0  0  0  0  0  0  0  0  0
  141.3676   72.7986  226.7114 H   0  0  0  0  0  0  0  0  0  0  0  0
  1  2  2  0
  2  3  1  0
  3  4  1  0
  4  5  1  0
  5  6  2  0
  5  7  1  0
  7  8  1  0
  8  9  1  0
  9 10  1  0
 10 11  1  0
 11 12  1  0
 12 13  1  0
 13 14  2  0
 14 15  1  0
 15 16  2  0
 16 17  1  0
 17 18  2  0
  2 19  1  0
 19 20  2  0
 20 21  1  0
 21 22  2  0
 22 23  1  0
 23 24  2  0
 24 25  1  0
 24 26  1  0
 26 27  2  0
 27 28  1  0
 28 29  2  0
 12  7  1  0
 18 13  1  0
 29 19  1  0
 28 22  1  0
  3 30  1  0
  4 31  1  0
  4 32  1  0
  8 33  1  0
  8 34  1  0
  9 35  1  0
  9 36  1  0
 10 37  1  0
 10 38  1  0
 11 39  1  0
 11 40  1  0
 12 41  1  6
 14 42  1  0
 15 43  1  0
 16 44  1  0
 18 45  1  0
 20 46  1  0
 21 47  1  0
 23 48  1  0
 26 49  1  0
 27 50  1  0
M  END
>  <smiles>  (81) 
O=C(NCC(=O)N1CCCCC1c1cccnc1)c1ccc2cc(Cl)ccc2n1

>  <score_type>  (81) 
oracle

>  <origin>  (81) 
autodockgpu

>  <m_score__min__energy>  (81) 
-8.7100000000000009

>  <m_primary>  (81) 
energy

>  <rmsd>  (81) 
2.445422361319933

>  <m_score__min__rmsd>  (81) 
2.445422361319933

>  <meeko>  (81) 
{"free_energy": -8.56, "intermolecular_energy": -10.05, "internal_energy": -1.43, "cluster_size": 38, "cluster_id": 1, "rank_in_cluster": 15}

>  <energy>  (81) 
-8.32

>  <cluster_rmsd>  (81) 
1.67

>  <cluster>  (81) 
1

$$$$

     RDKit          3D

 50 53  0  0  0  0  0  0  0  0999 V2000
  140.5890   72.1560  220.6170 O   0  0  0  0  0  0  0  0  0  0  0  0
  140.2040   72.5870  221.7490 C   0  0  0  0  0  0  0  0  0  0  0  0
  139.8410   73.9550  221.9340 N   0  0  0  0  0  0  0  0  0  0  0  0
  139.8920   74.9180  220.8500 C   0  0  0  0  0  0  0  0  0  0  0  0
  141.0900   75.7820  220.9340 C   0  0  0  0  0  0  0  0  0  0  0  0
  141.1730   76.7110  221.7940 O   0  0  0  0  0  0  0  0  0  0  0  0
  142.1420   75.5300  220.0110 N   0  0  0  0  0  0  0  0  0  0  0  0
  143.1450   76.5310  219.6670 C   0  0  0  0  0  0  0  0  0  0  0  0
  143.2830   76.5790  218.1710 C   0  0  0  0  0  0  0  0  0  0  0  0
  142.2210   75.8470  217.4190 C   0  0  0  0  0  0  0  0  0  0  0  0
  141.9000   74.4770  217.9230 C   0  0  0  0  0  0  0  0  0  0  0  0
  142.2840   74.2330  219.3420 C   0  0  1  0  0  0  0  0  0  0  0  0
  143.6600   73.7990  219.5710 C   0  0  0  0  0  0  0  0  0  0  0  0
  144.1290   73.7670  220.8730 C   0  0  0  0  0  0  0  0  0  0  0  0
  145.4280   73.3620  221.1570 C   0  0  0  0  0  0  0  0  0  0  0  0
  146.2950   72.9800  220.1330 C   0  0  0  0  0  0  0  0  0  0  0  0
  145.8040   73.0250  218.8790 N   0  0  0  0  0  0  0  0  0  0  0  0
  144.5480   73.4130  218.5890 C   0  0  0  0  0  0  0  0  0  0  0  0
  140.1250   71.6690  222.9000 C   0  0  0  0  0  0  0  0  0  0  0  0
  139.5410   70.4300  222.7290 C   0  0  0  0  0  0  0  0  0  0  0  0
  139.4680   69.5650  223.8160 C   0  0  0  0  0  0  0  0  0  0  0  0
  139.9930   69.9920  225.0400 C   0  0  0  0  0  0  0  0  0  0  0  0
  139.9220   69.1260  226.1310 C   0  0  0  0  0  0  0  0  0  0  0  0
  140.4410   69.5350  227.3630 C   0  0  0  0  0  0  0  0  0  0  0  0
  140.3560   68.4450  228.7570 Cl  0  0  0  0  0  0  0  0  0  0  0  0
  141.0130   70.7870  227.4680 C   0  0  0  0  0  0  0  0  0  0  0  0
  141.0920   71.6590  226.3930 C   0  0  0  0  0  0  0  0  0  0  0  0
  140.5730   71.2390  225.1810 C   0  0  0  0  0  0  0  0  0  0  0  0
  140.6180   72.0370  224.0970 N   0  0  0  0  0  0  0  0  0  0  0  0
  139.5290   74.2380  222.9100 H   0  0  0  0  0  0  0  0  0  0  0  0
  139.9114   74.3755  219.8933 H   0  0  0  0  0  0  0  0  0  0  0  0
  139.0026   75.5611  220.9239 H   0  0  0  0  0  0  0  0  0  0  0  0
  142.8291   77.5158  220.0416 H   0  0  0  0  0  0  0  0  0  0  0  0
  144.1101   76.2679  220.1246 H   0  0  0  0  0  0  0  0  0  0  0  0
  143.2578   77.6335  217.8590 H   0  0  0  0  0  0  0  0  0  0  0  0
  144.2324   76.0774  217.9320 H   0  0  0  0  0  0  0  0  0  0  0  0
  141.3005   76.4477  217.4624 H   0  0  0  0  0  0  0  0  0  0  0  0
  142.6144   75.7085  216.4011 H   0  0  0  0  0  0  0  0  0  0  0  0
  140.8149   74.3224  217.8296 H   0  0  0  0  0  0  0  0  0  0  0  0
  142.4894   73.7748  217.3151 H   0  0  0  0  0  0  0  0  0  0  0  0
  141.6456   73.4166  219.7107 H   0  0  0  0  0  0  0  0  0  0  0  0
  143.4633   74.0668  221.6958 H   0  0  0  0  0  0  0  0  0  0  0  0
  145.7761   73.3425  222.2003 H   0  0  0  0  0  0  0  0  0  0  0  0
  147.3267   72.6585  220.3388 H   0  0  0  0  0  0  0  0  0  0  0  0
  144.2207   73.4224  217.5389 H   0  0  0  0  0  0  0  0  0  0  0  0
  139.1399   70.1315  221.7492 H   0  0  0  0  0  0  0  0  0  0  0  0
  139.0090   68.5704  223.7154 H   0  0  0  0  0  0  0  0  0  0  0  0
  139.4628   68.1323  226.0233 H   0  0  0  0  0  0  0  0  0  0  0  0
  141.4207   71.1041  228.4392 H   0  0  0  0  0  0  0  0  0  0  0  0
  141.5522   72.6523  226.5001 H   0  0  0  0  0  0  0  0  0  0  0  0
  1  2  2  0
  2  3  1  0
  3  4  1  0
  4  5  1  0
  5  6  2  0
  5  7  1  0
  7  8  1  0
  8  9  1  0
  9 10  1  0
 10 11  1  0
 11 12  1  0
 12 13  1  0
 13 14  2  0
 14 15  1  0
 15 16  2  0
 16 17  1  0
 17 18  2  0
  2 19  1  0
 19 20  2  0
 20 21  1  0
 21 22  2  0
 22 23  1  0
 23 24  2  0
 24 25  1  0
 24 26  1  0
 26 27  2  0
 27 28  1  0
 28 29  2  0
 12  7  1  0
 18 13  1  0
 29 19  1  0
 28 22  1  0
  3 30  1  0
  4 31  1  0
  4 32  1  0
  8 33  1  0
  8 34  1  0
  9 35  1  0
  9 36  1  0
 10 37  1  0
 10 38  1  0
 11 39  1  0
 11 40  1  0
 12 41  1  1
 14 42  1  0
 15 43  1  0
 16 44  1  0
 18 45  1  0
 20 46  1  0
 21 47  1  0
 23 48  1  0
 26 49  1  0
 27 50  1  0
M  END
>  <smiles>  (82) 
O=C(NCC(=O)N1CCCCC1c1cccnc1)c1ccc2cc(Cl)ccc2n1

>  <score_type>  (82) 
oracle

>  <origin>  (82) 
autodockgpu

>  <m_score__min__energy>  (82) 
-8.7100000000000009

>  <m_primary>  (82) 
energy

>  <rmsd>  (82) 
2.5405752714695335

>  <m_score__min__rmsd>  (82) 
2.5405752714695335

>  <meeko>  (82) 
{"free_energy": -8.58, "intermolecular_energy": -10.07, "internal_energy": -1.78, "cluster_size": 11, "cluster_id": 2, "rank_in_cluster": 6}

>  <energy>  (82) 
-8.3

>  <cluster_rmsd>  (82) 
0.9

>  <cluster>  (82) 
1

$$$$

     RDKit          3D

 50 53  0  0  0  0  0  0  0  0999 V2000
  140.3440   72.1160  220.5360 O   0  0  0  0  0  0  0  0  0  0  0  0
  140.1180   72.5650  221.7030 C   0  0  0  0  0  0  0  0  0  0  0  0
  139.8860   73.9550  221.9270 N   0  0  0  0  0  0  0  0  0  0  0  0
  139.8980   74.9220  220.8460 C   0  0  0  0  0  0  0  0  0  0  0  0
  141.0860   75.8020  220.9040 C   0  0  0  0  0  0  0  0  0  0  0  0
  141.1630   76.7500  221.7450 O   0  0  0  0  0  0  0  0  0  0  0  0
  142.1350   75.5450  219.9800 N   0  0  0  0  0  0  0  0  0  0  0  0
  143.1230   76.5510  219.6080 C   0  0  0  0  0  0  0  0  0  0  0  0
  143.2500   76.5690  218.1110 C   0  0  0  0  0  0  0  0  0  0  0  0
  142.1930   75.8080  217.3810 C   0  0  0  0  0  0  0  0  0  0  0  0
  141.8930   74.4450  217.9160 C   0  0  0  0  0  0  0  0  0  0  0  0
  142.2900   74.2360  219.3370 C   0  0  1  0  0  0  0  0  0  0  0  0
  143.6730   73.8240  219.5660 C   0  0  0  0  0  0  0  0  0  0  0  0
  144.1460   73.8130  220.8670 C   0  0  0  0  0  0  0  0  0  0  0  0
  145.4520   73.4310  221.1500 C   0  0  0  0  0  0  0  0  0  0  0  0
  146.3210   73.0500  220.1270 C   0  0  0  0  0  0  0  0  0  0  0  0
  145.8250   73.0740  218.8740 N   0  0  0  0  0  0  0  0  0  0  0  0
  144.5620   73.4420  218.5850 C   0  0  0  0  0  0  0  0  0  0  0  0
  140.0880   71.6450  222.8530 C   0  0  0  0  0  0  0  0  0  0  0  0
  139.5680   70.3770  222.6840 C   0  0  0  0  0  0  0  0  0  0  0  0
  139.5430   69.5090  223.7720 C   0  0  0  0  0  0  0  0  0  0  0  0
  140.0470   69.9630  224.9950 C   0  0  0  0  0  0  0  0  0  0  0  0
  140.0230   69.0950  226.0860 C   0  0  0  0  0  0  0  0  0  0  0  0
  140.5220   69.5300  227.3170 C   0  0  0  0  0  0  0  0  0  0  0  0
  140.4970   68.4380  228.7110 Cl  0  0  0  0  0  0  0  0  0  0  0  0
  141.0290   70.8110  227.4200 C   0  0  0  0  0  0  0  0  0  0  0  0
  141.0610   71.6850  226.3450 C   0  0  0  0  0  0  0  0  0  0  0  0
  140.5620   71.2390  225.1340 C   0  0  0  0  0  0  0  0  0  0  0  0
  140.5640   72.0380  224.0500 N   0  0  0  0  0  0  0  0  0  0  0  0
  139.7030   74.2520  222.9320 H   0  0  0  0  0  0  0  0  0  0  0  0
  139.9016   74.3830  219.8871 H   0  0  0  0  0  0  0  0  0  0  0  0
  139.0022   75.5529  220.9439 H   0  0  0  0  0  0  0  0  0  0  0  0
  142.7972   77.5395  219.9640 H   0  0  0  0  0  0  0  0  0  0  0  0
  144.0944   76.3098  220.0643 H   0  0  0  0  0  0  0  0  0  0  0  0
  143.2091   77.6163  217.7772 H   0  0  0  0  0  0  0  0  0  0  0  0
  144.2039   76.0741  217.8764 H   0  0  0  0  0  0  0  0  0  0  0  0
  141.2651   76.3977  217.4174 H   0  0  0  0  0  0  0  0  0  0  0  0
  142.5817   75.6532  216.3637 H   0  0  0  0  0  0  0  0  0  0  0  0
  140.8094   74.2748  217.8338 H   0  0  0  0  0  0  0  0  0  0  0  0
  142.4870   73.7376  217.3187 H   0  0  0  0  0  0  0  0  0  0  0  0
  141.6650   73.4191  219.7270 H   0  0  0  0  0  0  0  0  0  0  0  0
  143.4784   74.1110  221.6889 H   0  0  0  0  0  0  0  0  0  0  0  0
  145.8045   73.4290  222.1920 H   0  0  0  0  0  0  0  0  0  0  0  0
  147.3579   72.7456  220.3326 H   0  0  0  0  0  0  0  0  0  0  0  0
  144.2308   73.4375  217.5361 H   0  0  0  0  0  0  0  0  0  0  0  0
  139.1798   70.0580  221.7055 H   0  0  0  0  0  0  0  0  0  0  0  0
  139.1370   68.4915  223.6723 H   0  0  0  0  0  0  0  0  0  0  0  0
  139.6157   68.0788  225.9790 H   0  0  0  0  0  0  0  0  0  0  0  0
  141.4215   71.1494  228.3903 H   0  0  0  0  0  0  0  0  0  0  0  0
  141.4700   72.7006  226.4511 H   0  0  0  0  0  0  0  0  0  0  0  0
  1  2  2  0
  2  3  1  0
  3  4  1  0
  4  5  1  0
  5  6  2  0
  5  7  1  0
  7  8  1  0
  8  9  1  0
  9 10  1  0
 10 11  1  0
 11 12  1  0
 12 13  1  0
 13 14  2  0
 14 15  1  0
 15 16  2  0
 16 17  1  0
 17 18  2  0
  2 19  1  0
 19 20  2  0
 20 21  1  0
 21 22  2  0
 22 23  1  0
 23 24  2  0
 24 25  1  0
 24 26  1  0
 26 27  2  0
 27 28  1  0
 28 29  2  0
 12  7  1  0
 18 13  1  0
 29 19  1  0
 28 22  1  0
  3 30  1  0
  4 31  1  0
  4 32  1  0
  8 33  1  0
  8 34  1  0
  9 35  1  0
  9 36  1  0
 10 37  1  0
 10 38  1  0
 11 39  1  0
 11 40  1  0
 12 41  1  1
 14 42  1  0
 15 43  1  0
 16 44  1  0
 18 45  1  0
 20 46  1  0
 21 47  1  0
 23 48  1  0
 26 49  1  0
 27 50  1  0
M  END
>  <smiles>  (83) 
O=C(NCC(=O)N1CCCCC1c1cccnc1)c1ccc2cc(Cl)ccc2n1

>  <score_type>  (83) 
oracle

>  <origin>  (83) 
autodockgpu

>  <m_score__min__energy>  (83) 
-8.7100000000000009

>  <m_primary>  (83) 
energy

>  <rmsd>  (83) 
2.531263859996592

>  <m_score__min__rmsd>  (83) 
2.531263859996592

>  <meeko>  (83) 
{"free_energy": -8.5, "intermolecular_energy": -9.99, "internal_energy": -1.84, "cluster_size": 11, "cluster_id": 2, "rank_in_cluster": 7}

>  <energy>  (83) 
-8.04

>  <cluster_rmsd>  (83) 
1.75

>  <cluster>  (83) 
1

$$$$

     RDKit          3D

 50 53  0  0  0  0  0  0  0  0999 V2000
  140.1960   72.4540  220.7020 O   0  0  0  0  0  0  0  0  0  0  0  0
  139.9310   72.8330  221.8860 C   0  0  0  0  0  0  0  0  0  0  0  0
  139.5800   74.1880  222.1660 N   0  0  0  0  0  0  0  0  0  0  0  0
  139.5090   75.1960  221.1250 C   0  0  0  0  0  0  0  0  0  0  0  0
  140.6450   76.1420  221.1920 C   0  0  0  0  0  0  0  0  0  0  0  0
  141.8370   75.7540  220.9950 O   0  0  0  0  0  0  0  0  0  0  0  0
  140.3460   77.4990  221.4880 N   0  0  0  0  0  0  0  0  0  0  0  0
  139.2980   77.8910  222.4230 C   0  0  0  0  0  0  0  0  0  0  0  0
  138.4570   78.9590  221.7820 C   0  0  0  0  0  0  0  0  0  0  0  0
  138.6940   79.1540  220.3210 C   0  0  0  0  0  0  0  0  0  0  0  0
  140.1280   79.2230  219.9030 C   0  0  0  0  0  0  0  0  0  0  0  0
  141.0840   78.6030  220.8630 C   0  0  1  0  0  0  0  0  0  0  0  0
  141.5480   79.4580  221.9530 C   0  0  0  0  0  0  0  0  0  0  0  0
  141.3650   80.8260  221.8360 C   0  0  0  0  0  0  0  0  0  0  0  0
  141.7840   81.6920  222.8390 C   0  0  0  0  0  0  0  0  0  0  0  0
  142.4030   81.2040  223.9900 C   0  0  0  0  0  0  0  0  0  0  0  0
  142.5640   79.8680  224.0680 N   0  0  0  0  0  0  0  0  0  0  0  0
  142.1620   79.0170  223.1050 C   0  0  0  0  0  0  0  0  0  0  0  0
  139.9810   71.8680  222.9980 C   0  0  0  0  0  0  0  0  0  0  0  0
  139.5300   70.5800  222.7870 C   0  0  0  0  0  0  0  0  0  0  0  0
  139.5790   69.6690  223.8380 C   0  0  0  0  0  0  0  0  0  0  0  0
  140.0860   70.1020  225.0680 C   0  0  0  0  0  0  0  0  0  0  0  0
  140.1360   69.1910  226.1230 C   0  0  0  0  0  0  0  0  0  0  0  0
  140.6390   69.6050  227.3600 C   0  0  0  0  0  0  0  0  0  0  0  0
  140.7080   68.4580  228.7080 Cl  0  0  0  0  0  0  0  0  0  0  0  0
  141.0740   70.9070  227.5050 C   0  0  0  0  0  0  0  0  0  0  0  0
  141.0310   71.8250  226.4670 C   0  0  0  0  0  0  0  0  0  0  0  0
  140.5300   71.3990  225.2490 C   0  0  0  0  0  0  0  0  0  0  0  0
  140.4620   72.2390  224.1990 N   0  0  0  0  0  0  0  0  0  0  0  0
  139.3720   74.4260  223.1810 H   0  0  0  0  0  0  0  0  0  0  0  0
  139.5202   74.6962  220.1452 H   0  0  0  0  0  0  0  0  0  0  0  0
  138.5808   75.7685  221.2687 H   0  0  0  0  0  0  0  0  0  0  0  0
  138.6707   77.0198  222.6628 H   0  0  0  0  0  0  0  0  0  0  0  0
  139.7471   78.2737  223.3514 H   0  0  0  0  0  0  0  0  0  0  0  0
  137.3994   78.6920  221.9238 H   0  0  0  0  0  0  0  0  0  0  0  0
  138.7366   79.9051  222.2686 H   0  0  0  0  0  0  0  0  0  0  0  0
  138.2258   78.3139  219.7870 H   0  0  0  0  0  0  0  0  0  0  0  0
  138.2609   80.1345  220.0740 H   0  0  0  0  0  0  0  0  0  0  0  0
  140.2290   78.7072  218.9367 H   0  0  0  0  0  0  0  0  0  0  0  0
  140.3867   80.2909  219.8509 H   0  0  0  0  0  0  0  0  0  0  0  0
  141.9828   78.3322  220.2895 H   0  0  0  0  0  0  0  0  0  0  0  0
  140.8809   81.2330  220.9360 H   0  0  0  0  0  0  0  0  0  0  0  0
  141.6257   82.7745  222.7240 H   0  0  0  0  0  0  0  0  0  0  0  0
  142.7423   81.8751  224.7928 H   0  0  0  0  0  0  0  0  0  0  0  0
  142.3286   77.9384  223.2420 H   0  0  0  0  0  0  0  0  0  0  0  0
  139.1384   70.2789  221.8042 H   0  0  0  0  0  0  0  0  0  0  0  0
  139.2281   68.6350  223.7050 H   0  0  0  0  0  0  0  0  0  0  0  0
  139.7836   68.1584  225.9833 H   0  0  0  0  0  0  0  0  0  0  0  0
  141.4693   71.2280  228.4800 H   0  0  0  0  0  0  0  0  0  0  0  0
  141.3833   72.8576  226.6067 H   0  0  0  0  0  0  0  0  0  0  0  0
  1  2  2  0
  2  3  1  0
  3  4  1  0
  4  5  1  0
  5  6  2  0
  5  7  1  0
  7  8  1  0
  8  9  1  0
  9 10  1  0
 10 11  1  0
 11 12  1  0
 12 13  1  0
 13 14  2  0
 14 15  1  0
 15 16  2  0
 16 17  1  0
 17 18  2  0
  2 19  1  0
 19 20  2  0
 20 21  1  0
 21 22  2  0
 22 23  1  0
 23 24  2  0
 24 25  1  0
 24 26  1  0
 26 27  2  0
 27 28  1  0
 28 29  2  0
 12  7  1  0
 18 13  1  0
 29 19  1  0
 28 22  1  0
  3 30  1  0
  4 31  1  0
  4 32  1  0
  8 33  1  0
  8 34  1  0
  9 35  1  0
  9 36  1  0
 10 37  1  0
 10 38  1  0
 11 39  1  0
 11 40  1  0
 12 41  1  6
 14 42  1  0
 15 43  1  0
 16 44  1  0
 18 45  1  0
 20 46  1  0
 21 47  1  0
 23 48  1  0
 26 49  1  0
 27 50  1  0
M  END
>  <smiles>  (84) 
O=C(NCC(=O)N1CCCCC1c1cccnc1)c1ccc2cc(Cl)ccc2n1

>  <score_type>  (84) 
oracle

>  <origin>  (84) 
autodockgpu

>  <m_score__min__energy>  (84) 
-8.7100000000000009

>  <m_primary>  (84) 
energy

>  <rmsd>  (84) 
2.7833745945216686

>  <m_score__min__rmsd>  (84) 
2.7833745945216686

>  <meeko>  (84) 
{"free_energy": -8.58, "intermolecular_energy": -10.07, "internal_energy": -1.37, "cluster_size": 38, "cluster_id": 1, "rank_in_cluster": 11}

>  <energy>  (84) 
-8.04

>  <cluster_rmsd>  (84) 
0.93

>  <cluster>  (84) 
1

$$$$

     RDKit          3D

 50 53  0  0  0  0  0  0  0  0999 V2000
  139.7690   72.1380  220.8150 O   0  0  0  0  0  0  0  0  0  0  0  0
  139.7290   72.5370  222.0200 C   0  0  0  0  0  0  0  0  0  0  0  0
  139.5750   73.9210  222.3350 N   0  0  0  0  0  0  0  0  0  0  0  0
  139.4600   74.9360  221.3050 C   0  0  0  0  0  0  0  0  0  0  0  0
  140.7210   75.6900  221.1280 C   0  0  0  0  0  0  0  0  0  0  0  0
  141.8340   75.0930  221.0040 O   0  0  0  0  0  0  0  0  0  0  0  0
  140.6350   77.1090  221.1060 N   0  0  0  0  0  0  0  0  0  0  0  0
  139.3920   77.8280  221.3560 C   0  0  0  0  0  0  0  0  0  0  0  0
  139.2130   78.8660  220.2840 C   0  0  0  0  0  0  0  0  0  0  0  0
  140.1400   78.7350  219.1210 C   0  0  0  0  0  0  0  0  0  0  0  0
  141.5770   78.5040  219.4640 C   0  0  0  0  0  0  0  0  0  0  0  0
  141.8070   77.9460  220.8260 C   0  0  1  0  0  0  0  0  0  0  0  0
  141.8900   78.9170  221.9150 C   0  0  0  0  0  0  0  0  0  0  0  0
  142.0560   80.2520  221.5910 C   0  0  0  0  0  0  0  0  0  0  0  0
  142.1420   81.2240  222.5810 C   0  0  0  0  0  0  0  0  0  0  0  0
  142.0630   80.8760  223.9300 C   0  0  0  0  0  0  0  0  0  0  0  0
  141.9010   79.5670  224.2060 N   0  0  0  0  0  0  0  0  0  0  0  0
  141.8170   78.6150  223.2580 C   0  0  0  0  0  0  0  0  0  0  0  0
  139.8380   71.5660  223.1230 C   0  0  0  0  0  0  0  0  0  0  0  0
  139.4270   70.2650  222.9130 C   0  0  0  0  0  0  0  0  0  0  0  0
  139.5320   69.3490  223.9550 C   0  0  0  0  0  0  0  0  0  0  0  0
  140.0530   69.7900  225.1760 C   0  0  0  0  0  0  0  0  0  0  0  0
  140.1590   68.8740  226.2220 C   0  0  0  0  0  0  0  0  0  0  0  0
  140.6770   69.2950  227.4500 C   0  0  0  0  0  0  0  0  0  0  0  0
  140.8170   68.1420  228.7870 Cl  0  0  0  0  0  0  0  0  0  0  0  0
  141.0710   70.6110  227.5950 C   0  0  0  0  0  0  0  0  0  0  0  0
  140.9720   71.5340  226.5660 C   0  0  0  0  0  0  0  0  0  0  0  0
  140.4560   71.1000  225.3570 C   0  0  0  0  0  0  0  0  0  0  0  0
  140.3340   71.9450  224.3160 N   0  0  0  0  0  0  0  0  0  0  0  0
  139.5500   74.1750  223.3670 H   0  0  0  0  0  0  0  0  0  0  0  0
  139.2007   74.4488  220.3534 H   0  0  0  0  0  0  0  0  0  0  0  0
  138.6790   75.6467  221.6133 H   0  0  0  0  0  0  0  0  0  0  0  0
  138.5466   77.1245  221.3352 H   0  0  0  0  0  0  0  0  0  0  0  0
  139.4301   78.3111  222.3435 H   0  0  0  0  0  0  0  0  0  0  0  0
  138.1815   78.7950  219.9085 H   0  0  0  0  0  0  0  0  0  0  0  0
  139.4403   79.8352  220.7520 H   0  0  0  0  0  0  0  0  0  0  0  0
  139.7976   77.8876  218.5089 H   0  0  0  0  0  0  0  0  0  0  0  0
  140.1067   79.7025  218.5987 H   0  0  0  0  0  0  0  0  0  0  0  0
  141.9963   77.8006  218.7296 H   0  0  0  0  0  0  0  0  0  0  0  0
  142.0648   79.4897  219.4442 H   0  0  0  0  0  0  0  0  0  0  0  0
  142.7817   77.4366  220.8023 H   0  0  0  0  0  0  0  0  0  0  0  0
  142.1209   80.5486  220.5337 H   0  0  0  0  0  0  0  0  0  0  0  0
  142.2737   82.2788  222.2980 H   0  0  0  0  0  0  0  0  0  0  0  0
  142.1295   81.6312  224.7270 H   0  0  0  0  0  0  0  0  0  0  0  0
  141.6864   77.5664  223.5637 H   0  0  0  0  0  0  0  0  0  0  0  0
  139.0229   69.9574  221.9373 H   0  0  0  0  0  0  0  0  0  0  0  0
  139.2134   68.3046  223.8220 H   0  0  0  0  0  0  0  0  0  0  0  0
  139.8383   67.8311  226.0822 H   0  0  0  0  0  0  0  0  0  0  0  0
  141.4783   70.9384  228.5629 H   0  0  0  0  0  0  0  0  0  0  0  0
  141.2928   72.5769  226.7053 H   0  0  0  0  0  0  0  0  0  0  0  0
  1  2  2  0
  2  3  1  0
  3  4  1  0
  4  5  1  0
  5  6  2  0
  5  7  1  0
  7  8  1  0
  8  9  1  0
  9 10  1  0
 10 11  1  0
 11 12  1  0
 12 13  1  0
 13 14  2  0
 14 15  1  0
 15 16  2  0
 16 17  1  0
 17 18  2  0
  2 19  1  0
 19 20  2  0
 20 21  1  0
 21 22  2  0
 22 23  1  0
 23 24  2  0
 24 25  1  0
 24 26  1  0
 26 27  2  0
 27 28  1  0
 28 29  2  0
 12  7  1  0
 18 13  1  0
 29 19  1  0
 28 22  1  0
  3 30  1  0
  4 31  1  0
  4 32  1  0
  8 33  1  0
  8 34  1  0
  9 35  1  0
  9 36  1  0
 10 37  1  0
 10 38  1  0
 11 39  1  0
 11 40  1  0
 12 41  1  6
 14 42  1  0
 15 43  1  0
 16 44  1  0
 18 45  1  0
 20 46  1  0
 21 47  1  0
 23 48  1  0
 26 49  1  0
 27 50  1  0
M  END
>  <smiles>  (85) 
O=C(NCC(=O)N1CCCCC1c1cccnc1)c1ccc2cc(Cl)ccc2n1

>  <score_type>  (85) 
oracle

>  <origin>  (85) 
autodockgpu

>  <m_score__min__energy>  (85) 
-8.7100000000000009

>  <m_primary>  (85) 
energy

>  <rmsd>  (85) 
2.2268729572869956

>  <m_score__min__rmsd>  (85) 
2.2268729572869956

>  <meeko>  (85) 
{"free_energy": -8.6, "intermolecular_energy": -10.09, "internal_energy": -1.45, "cluster_size": 38, "cluster_id": 1, "rank_in_cluster": 7}

>  <energy>  (85) 
-7.87

>  <cluster_rmsd>  (85) 
1.14

>  <cluster>  (85) 
1

$$$$

     RDKit          3D

 50 53  0  0  0  0  0  0  0  0999 V2000
  138.5640   71.8630  220.9170 O   0  0  0  0  0  0  0  0  0  0  0  0
  138.9730   72.3110  222.0340 C   0  0  0  0  0  0  0  0  0  0  0  0
  139.1470   73.7120  222.2480 N   0  0  0  0  0  0  0  0  0  0  0  0
  138.8710   74.6890  221.2120 C   0  0  0  0  0  0  0  0  0  0  0  0
  138.6420   76.0390  221.7730 C   0  0  0  0  0  0  0  0  0  0  0  0
  137.6720   76.2700  222.5580 O   0  0  0  0  0  0  0  0  0  0  0  0
  139.5500   77.0650  221.3950 N   0  0  0  0  0  0  0  0  0  0  0  0
  139.1760   78.1630  220.5110 C   0  0  0  0  0  0  0  0  0  0  0  0
  140.2350   78.3100  219.4540 C   0  0  0  0  0  0  0  0  0  0  0  0
  141.2130   77.1860  219.3830 C   0  0  0  0  0  0  0  0  0  0  0  0
  141.7690   76.7300  220.6940 C   0  0  0  0  0  0  0  0  0  0  0  0
  140.9350   77.0830  221.8770 C   0  0  1  0  0  0  0  0  0  0  0  0
  141.1560   78.4090  222.4490 C   0  0  0  0  0  0  0  0  0  0  0  0
  142.3050   79.0940  222.0910 C   0  0  0  0  0  0  0  0  0  0  0  0
  142.5720   80.3590  222.6010 C   0  0  0  0  0  0  0  0  0  0  0  0
  141.6870   80.9710  223.4900 C   0  0  0  0  0  0  0  0  0  0  0  0
  140.5800   80.2740  223.8150 N   0  0  0  0  0  0  0  0  0  0  0  0
  140.3090   79.0480  223.3290 C   0  0  0  0  0  0  0  0  0  0  0  0
  139.2730   71.3810  223.1360 C   0  0  0  0  0  0  0  0  0  0  0  0
  138.9400   70.0480  222.9980 C   0  0  0  0  0  0  0  0  0  0  0  0
  139.2260   69.1710  224.0400 C   0  0  0  0  0  0  0  0  0  0  0  0
  139.8410   69.6820  225.1870 C   0  0  0  0  0  0  0  0  0  0  0  0
  140.1290   68.8050  226.2320 C   0  0  0  0  0  0  0  0  0  0  0  0
  140.7430   69.2960  227.3880 C   0  0  0  0  0  0  0  0  0  0  0  0
  141.1130   68.1930  228.7230 Cl  0  0  0  0  0  0  0  0  0  0  0  0
  141.0510   70.6400  227.4630 C   0  0  0  0  0  0  0  0  0  0  0  0
  140.7720   71.5250  226.4330 C   0  0  0  0  0  0  0  0  0  0  0  0
  140.1630   71.0220  225.2970 C   0  0  0  0  0  0  0  0  0  0  0  0
  139.8660   71.8270  224.2600 N   0  0  0  0  0  0  0  0  0  0  0  0
  139.4920   74.0070  223.2100 H   0  0  0  0  0  0  0  0  0  0  0  0
  139.7289   74.7304  220.5247 H   0  0  0  0  0  0  0  0  0  0  0  0
  137.9559   74.3788  220.6862 H   0  0  0  0  0  0  0  0  0  0  0  0
  138.2076   77.9440  220.0374 H   0  0  0  0  0  0  0  0  0  0  0  0
  139.0881   79.0959  221.0871 H   0  0  0  0  0  0  0  0  0  0  0  0
  139.7344   78.3893  218.4777 H   0  0  0  0  0  0  0  0  0  0  0  0
  140.8144   79.2061  219.7209 H   0  0  0  0  0  0  0  0  0  0  0  0
  140.7097   76.3286  218.9122 H   0  0  0  0  0  0  0  0  0  0  0  0
  142.0700   77.5684  218.8092 H   0  0  0  0  0  0  0  0  0  0  0  0
  141.8721   75.6353  220.6610 H   0  0  0  0  0  0  0  0  0  0  0  0
  142.7298   77.2497  220.8232 H   0  0  0  0  0  0  0  0  0  0  0  0
  141.1888   76.3668  222.6724 H   0  0  0  0  0  0  0  0  0  0  0  0
  143.0170   78.6300  221.3926 H   0  0  0  0  0  0  0  0  0  0  0  0
  143.4910   80.8837  222.3007 H   0  0  0  0  0  0  0  0  0  0  0  0
  141.8829   81.9710  223.9042 H   0  0  0  0  0  0  0  0  0  0  0  0
  139.3846   78.5414  223.6434 H   0  0  0  0  0  0  0  0  0  0  0  0
  138.4564   69.6851  222.0791 H   0  0  0  0  0  0  0  0  0  0  0  0
  138.9746   68.1029  223.9632 H   0  0  0  0  0  0  0  0  0  0  0  0
  139.8757   67.7379  226.1477 H   0  0  0  0  0  0  0  0  0  0  0  0
  141.5355   71.0225  228.3735 H   0  0  0  0  0  0  0  0  0  0  0  0
  141.0264   72.5919  226.5161 H   0  0  0  0  0  0  0  0  0  0  0  0
  1  2  2  0
  2  3  1  0
  3  4  1  0
  4  5  1  0
  5  6  2  0
  5  7  1  0
  7  8  1  0
  8  9  1  0
  9 10  1  0
 10 11  1  0
 11 12  1  0
 12 13  1  0
 13 14  2  0
 14 15  1  0
 15 16  2  0
 16 17  1  0
 17 18  2  0
  2 19  1  0
 19 20  2  0
 20 21  1  0
 21 22  2  0
 22 23  1  0
 23 24  2  0
 24 25  1  0
 24 26  1  0
 26 27  2  0
 27 28  1  0
 28 29  2  0
 12  7  1  0
 18 13  1  0
 29 19  1  0
 28 22  1  0
  3 30  1  0
  4 31  1  0
  4 32  1  0
  8 33  1  0
  8 34  1  0
  9 35  1  0
  9 36  1  0
 10 37  1  0
 10 38  1  0
 11 39  1  0
 11 40  1  0
 12 41  1  1
 14 42  1  0
 15 43  1  0
 16 44  1  0
 18 45  1  0
 20 46  1  0
 21 47  1  0
 23 48  1  0
 26 49  1  0
 27 50  1  0
M  END
>  <smiles>  (86) 
O=C(NCC(=O)N1CCCCC1c1cccnc1)c1ccc2cc(Cl)ccc2n1

>  <score_type>  (86) 
oracle

>  <origin>  (86) 
autodockgpu

>  <m_score__min__energy>  (86) 
-8.7100000000000009

>  <m_primary>  (86) 
energy

>  <rmsd>  (86) 
2.102345142430298

>  <m_score__min__rmsd>  (86) 
2.102345142430298

>  <meeko>  (86) 
{"free_energy": -8.34, "intermolecular_energy": -9.83, "internal_energy": -1.58, "cluster_size": 38, "cluster_id": 1, "rank_in_cluster": 30}

>  <energy>  (86) 
-7.83

>  <cluster_rmsd>  (86) 
1.94

>  <cluster>  (86) 
1

$$$$

     RDKit          3D

 50 53  0  0  0  0  0  0  0  0999 V2000
  140.6170   72.2410  220.5900 O   0  0  0  0  0  0  0  0  0  0  0  0
  140.2500   72.6660  221.7290 C   0  0  0  0  0  0  0  0  0  0  0  0
  139.8920   74.0340  221.9280 N   0  0  0  0  0  0  0  0  0  0  0  0
  139.9300   75.0030  220.8490 C   0  0  0  0  0  0  0  0  0  0  0  0
  141.1400   75.8520  220.9120 C   0  0  0  0  0  0  0  0  0  0  0  0
  141.2490   76.7820  221.7690 O   0  0  0  0  0  0  0  0  0  0  0  0
  142.1740   75.5860  219.9740 N   0  0  0  0  0  0  0  0  0  0  0  0
  143.1710   76.5800  219.5950 C   0  0  0  0  0  0  0  0  0  0  0  0
  143.2800   76.6060  218.0960 C   0  0  0  0  0  0  0  0  0  0  0  0
  142.2040   75.8640  217.3750 C   0  0  0  0  0  0  0  0  0  0  0  0
  141.8910   74.5020  217.9060 C   0  0  0  0  0  0  0  0  0  0  0  0
  142.3030   74.2790  219.3210 C   0  0  1  0  0  0  0  0  0  0  0  0
  143.6830   73.8470  219.5300 C   0  0  0  0  0  0  0  0  0  0  0  0
  144.1760   73.8340  220.8230 C   0  0  0  0  0  0  0  0  0  0  0  0
  145.4810   73.4330  221.0880 C   0  0  0  0  0  0  0  0  0  0  0  0
  146.3270   73.0340  220.0530 C   0  0  0  0  0  0  0  0  0  0  0  0
  145.8120   73.0600  218.8080 N   0  0  0  0  0  0  0  0  0  0  0  0
  144.5510   73.4460  218.5370 C   0  0  0  0  0  0  0  0  0  0  0  0
  140.1840   71.7410  222.8750 C   0  0  0  0  0  0  0  0  0  0  0  0
  139.6270   70.4910  222.6960 C   0  0  0  0  0  0  0  0  0  0  0  0
  139.5680   69.6190  223.7790 C   0  0  0  0  0  0  0  0  0  0  0  0
  140.0770   70.0510  225.0070 C   0  0  0  0  0  0  0  0  0  0  0  0
  140.0190   69.1790  226.0930 C   0  0  0  0  0  0  0  0  0  0  0  0
  140.5230   69.5920  227.3300 C   0  0  0  0  0  0  0  0  0  0  0  0
  140.4550   68.4940  228.7180 Cl  0  0  0  0  0  0  0  0  0  0  0  0
  141.0680   70.8560  227.4430 C   0  0  0  0  0  0  0  0  0  0  0  0
  141.1340   71.7340  226.3730 C   0  0  0  0  0  0  0  0  0  0  0  0
  140.6300   71.3100  225.1570 C   0  0  0  0  0  0  0  0  0  0  0  0
  140.6640   72.1140  224.0770 N   0  0  0  0  0  0  0  0  0  0  0  0
  139.5950   74.3110  222.9100 H   0  0  0  0  0  0  0  0  0  0  0  0
  139.9217   74.4664  219.8888 H   0  0  0  0  0  0  0  0  0  0  0  0
  139.0501   75.6559  220.9462 H   0  0  0  0  0  0  0  0  0  0  0  0
  142.8637   77.5707  219.9610 H   0  0  0  0  0  0  0  0  0  0  0  0
  144.1446   76.3218  220.0372 H   0  0  0  0  0  0  0  0  0  0  0  0
  143.2491   77.6559  217.7692 H   0  0  0  0  0  0  0  0  0  0  0  0
  144.2243   76.1001  217.8464 H   0  0  0  0  0  0  0  0  0  0  0  0
  141.2850   76.4664  217.4259 H   0  0  0  0  0  0  0  0  0  0  0  0
  142.5785   75.7094  216.3524 H   0  0  0  0  0  0  0  0  0  0  0  0
  140.8041   74.3479  217.8366 H   0  0  0  0  0  0  0  0  0  0  0  0
  142.4670   73.7896  217.2972 H   0  0  0  0  0  0  0  0  0  0  0  0
  141.6717   73.4683  219.7139 H   0  0  0  0  0  0  0  0  0  0  0  0
  143.5258   74.1456  221.6538 H   0  0  0  0  0  0  0  0  0  0  0  0
  145.8499   73.4304  222.1243 H   0  0  0  0  0  0  0  0  0  0  0  0
  147.3621   72.7143  220.2435 H   0  0  0  0  0  0  0  0  0  0  0  0
  144.2034   73.4413  217.4934 H   0  0  0  0  0  0  0  0  0  0  0  0
  139.2360   70.1889  221.7132 H   0  0  0  0  0  0  0  0  0  0  0  0
  139.1317   68.6150  223.6713 H   0  0  0  0  0  0  0  0  0  0  0  0
  139.5813   68.1764  225.9779 H   0  0  0  0  0  0  0  0  0  0  0  0
  141.4640   71.1774  228.4176 H   0  0  0  0  0  0  0  0  0  0  0  0
  141.5732   72.7360  226.4872 H   0  0  0  0  0  0  0  0  0  0  0  0
  1  2  2  0
  2  3  1  0
  3  4  1  0
  4  5  1  0
  5  6  2  0
  5  7  1  0
  7  8  1  0
  8  9  1  0
  9 10  1  0
 10 11  1  0
 11 12  1  0
 12 13  1  0
 13 14  2  0
 14 15  1  0
 15 16  2  0
 16 17  1  0
 17 18  2  0
  2 19  1  0
 19 20  2  0
 20 21  1  0
 21 22  2  0
 22 23  1  0
 23 24  2  0
 24 25  1  0
 24 26  1  0
 26 27  2  0
 27 28  1  0
 28 29  2  0
 12  7  1  0
 18 13  1  0
 29 19  1  0
 28 22  1  0
  3 30  1  0
  4 31  1  0
  4 32  1  0
  8 33  1  0
  8 34  1  0
  9 35  1  0
  9 36  1  0
 10 37  1  0
 10 38  1  0
 11 39  1  0
 11 40  1  0
 12 41  1  1
 14 42  1  0
 15 43  1  0
 16 44  1  0
 18 45  1  0
 20 46  1  0
 21 47  1  0
 23 48  1  0
 26 49  1  0
 27 50  1  0
M  END
>  <smiles>  (87) 
O=C(NCC(=O)N1CCCCC1c1cccnc1)c1ccc2cc(Cl)ccc2n1

>  <score_type>  (87) 
oracle

>  <origin>  (87) 
autodockgpu

>  <m_score__min__energy>  (87) 
-8.7100000000000009

>  <m_primary>  (87) 
energy

>  <rmsd>  (87) 
2.5684900288781316

>  <m_score__min__rmsd>  (87) 
2.5684900288781316

>  <meeko>  (87) 
{"free_energy": -8.58, "intermolecular_energy": -10.07, "internal_energy": -1.79, "cluster_size": 11, "cluster_id": 2, "rank_in_cluster": 5}

>  <energy>  (87) 
-7.73

>  <cluster_rmsd>  (87) 
0.87

>  <cluster>  (87) 
1

$$$$

     RDKit          3D

 50 53  0  0  0  0  0  0  0  0999 V2000
  139.9150   72.3340  220.6680 O   0  0  0  0  0  0  0  0  0  0  0  0
  139.7300   72.7370  221.8590 C   0  0  0  0  0  0  0  0  0  0  0  0
  139.4110   74.1010  222.1360 N   0  0  0  0  0  0  0  0  0  0  0  0
  139.2820   75.0900  221.0820 C   0  0  0  0  0  0  0  0  0  0  0  0
  138.8880   76.4140  221.6120 C   0  0  0  0  0  0  0  0  0  0  0  0
  137.8340   76.5600  222.3040 O   0  0  0  0  0  0  0  0  0  0  0  0
  139.7370   77.5150  221.3140 N   0  0  0  0  0  0  0  0  0  0  0  0
  139.2780   78.6870  220.5770 C   0  0  0  0  0  0  0  0  0  0  0  0
  140.2790   78.9980  219.4990 C   0  0  0  0  0  0  0  0  0  0  0  0
  141.2960   77.9320  219.2590 C   0  0  0  0  0  0  0  0  0  0  0  0
  141.9310   77.3590  220.4850 C   0  0  0  0  0  0  0  0  0  0  0  0
  141.1410   77.5400  221.7350 C   0  0  1  0  0  0  0  0  0  0  0  0
  141.3370   78.8030  222.4440 C   0  0  0  0  0  0  0  0  0  0  0  0
  142.5650   79.4330  222.3320 C   0  0  0  0  0  0  0  0  0  0  0  0
  142.8130   80.6370  222.9820 C   0  0  0  0  0  0  0  0  0  0  0  0
  141.8290   81.2400  223.7650 C   0  0  0  0  0  0  0  0  0  0  0  0
  140.6480   80.5980  223.8500 N   0  0  0  0  0  0  0  0  0  0  0  0
  140.3930   79.4320  223.2260 C   0  0  0  0  0  0  0  0  0  0  0  0
  139.8420   71.7920  222.9830 C   0  0  0  0  0  0  0  0  0  0  0  0
  139.4420   70.4830  222.8010 C   0  0  0  0  0  0  0  0  0  0  0  0
  139.5500   69.5910  223.8630 C   0  0  0  0  0  0  0  0  0  0  0  0
  140.0610   70.0640  225.0760 C   0  0  0  0  0  0  0  0  0  0  0  0
  140.1710   69.1720  226.1430 C   0  0  0  0  0  0  0  0  0  0  0  0
  140.6800   69.6240  227.3630 C   0  0  0  0  0  0  0  0  0  0  0  0
  140.8230   68.5020  228.7260 Cl  0  0  0  0  0  0  0  0  0  0  0  0
  141.0630   70.9460  227.4810 C   0  0  0  0  0  0  0  0  0  0  0  0
  140.9610   71.8450  226.4300 C   0  0  0  0  0  0  0  0  0  0  0  0
  140.4550   71.3800  225.2300 C   0  0  0  0  0  0  0  0  0  0  0  0
  140.3300   72.2010  224.1690 N   0  0  0  0  0  0  0  0  0  0  0  0
  139.2710   74.3600  223.1570 H   0  0  0  0  0  0  0  0  0  0  0  0
  140.2483   75.1871  220.5654 H   0  0  0  0  0  0  0  0  0  0  0  0
  138.4952   74.7515  220.3918 H   0  0  0  0  0  0  0  0  0  0  0  0
  138.2976   78.4791  220.1236 H   0  0  0  0  0  0  0  0  0  0  0  0
  139.1806   79.5451  221.2584 H   0  0  0  0  0  0  0  0  0  0  0  0
  139.7299   79.1639  218.5604 H   0  0  0  0  0  0  0  0  0  0  0  0
  140.8351   79.8835  219.8406 H   0  0  0  0  0  0  0  0  0  0  0  0
  140.8044   77.1108  218.7169 H   0  0  0  0  0  0  0  0  0  0  0  0
  142.1090   78.4125  218.6949 H   0  0  0  0  0  0  0  0  0  0  0  0
  142.0763   76.2806  220.3241 H   0  0  0  0  0  0  0  0  0  0  0  0
  142.8750   77.9045  220.6311 H   0  0  0  0  0  0  0  0  0  0  0  0
  141.4599   76.7511  222.4321 H   0  0  0  0  0  0  0  0  0  0  0  0
  143.3557   78.9744  221.7200 H   0  0  0  0  0  0  0  0  0  0  0  0
  143.7962   81.1191  222.8774 H   0  0  0  0  0  0  0  0  0  0  0  0
  142.0083   82.1917  224.2867 H   0  0  0  0  0  0  0  0  0  0  0  0
  139.4024   78.9685  223.3441 H   0  0  0  0  0  0  0  0  0  0  0  0
  139.0440   70.1506  221.8309 H   0  0  0  0  0  0  0  0  0  0  0  0
  139.2415   68.5410  223.7517 H   0  0  0  0  0  0  0  0  0  0  0  0
  139.8601   68.1235  226.0249 H   0  0  0  0  0  0  0  0  0  0  0  0
  141.4633   71.2983  228.4431 H   0  0  0  0  0  0  0  0  0  0  0  0
  141.2724   72.8935  226.5470 H   0  0  0  0  0  0  0  0  0  0  0  0
  1  2  2  0
  2  3  1  0
  3  4  1  0
  4  5  1  0
  5  6  2  0
  5  7  1  0
  7  8  1  0
  8  9  1  0
  9 10  1  0
 10 11  1  0
 11 12  1  0
 12 13  1  0
 13 14  2  0
 14 15  1  0
 15 16  2  0
 16 17  1  0
 17 18  2  0
  2 19  1  0
 19 20  2  0
 20 21  1  0
 21 22  2  0
 22 23  1  0
 23 24  2  0
 24 25  1  0
 24 26  1  0
 26 27  2  0
 27 28  1  0
 28 29  2  0
 12  7  1  0
 18 13  1  0
 29 19  1  0
 28 22  1  0
  3 30  1  0
  4 31  1  0
  4 32  1  0
  8 33  1  0
  8 34  1  0
  9 35  1  0
  9 36  1  0
 10 37  1  0
 10 38  1  0
 11 39  1  0
 11 40  1  0
 12 41  1  1
 14 42  1  0
 15 43  1  0
 16 44  1  0
 18 45  1  0
 20 46  1  0
 21 47  1  0
 23 48  1  0
 26 49  1  0
 27 50  1  0
M  END
>  <smiles>  (88) 
O=C(NCC(=O)N1CCCCC1c1cccnc1)c1ccc2cc(Cl)ccc2n1

>  <score_type>  (88) 
oracle

>  <origin>  (88) 
autodockgpu

>  <m_score__min__energy>  (88) 
-8.7100000000000009

>  <m_primary>  (88) 
energy

>  <rmsd>  (88) 
2.371706558486818

>  <m_score__min__rmsd>  (88) 
2.371706558486818

>  <meeko>  (88) 
{"free_energy": -8.71, "intermolecular_energy": -10.2, "internal_energy": -1.4, "cluster_size": 38, "cluster_id": 1, "rank_in_cluster": 1}

>  <energy>  (88) 
-7.56

>  <cluster_rmsd>  (88) 
1.43

>  <cluster>  (88) 
1

$$$$

     RDKit          3D

 50 53  0  0  0  0  0  0  0  0999 V2000
  140.7920   72.5890  220.8530 O   0  0  0  0  0  0  0  0  0  0  0  0
  140.2220   72.8900  221.9480 C   0  0  0  0  0  0  0  0  0  0  0  0
  139.6210   74.1710  222.1400 N   0  0  0  0  0  0  0  0  0  0  0  0
  139.6300   75.1870  221.1050 C   0  0  0  0  0  0  0  0  0  0  0  0
  138.9010   76.4060  221.5220 C   0  0  0  0  0  0  0  0  0  0  0  0
  137.7620   76.3360  222.0770 O   0  0  0  0  0  0  0  0  0  0  0  0
  139.5280   77.6580  221.2740 N   0  0  0  0  0  0  0  0  0  0  0  0
  138.8020   78.9220  221.3020 C   0  0  0  0  0  0  0  0  0  0  0  0
  139.1590   79.7080  220.0710 C   0  0  0  0  0  0  0  0  0  0  0  0
  139.9000   78.9400  219.0280 C   0  0  0  0  0  0  0  0  0  0  0  0
  141.0350   78.1040  219.5250 C   0  0  0  0  0  0  0  0  0  0  0  0
  140.9600   77.7550  220.9720 C   0  0  1  0  0  0  0  0  0  0  0  0
  141.5130   78.7370  221.9010 C   0  0  0  0  0  0  0  0  0  0  0  0
  141.4040   78.4890  223.2590 C   0  0  0  0  0  0  0  0  0  0  0  0
  141.9100   79.3840  224.1940 C   0  0  0  0  0  0  0  0  0  0  0  0
  142.5400   80.5600  223.7860 C   0  0  0  0  0  0  0  0  0  0  0  0
  142.6270   80.7680  222.4570 N   0  0  0  0  0  0  0  0  0  0  0  0
  142.1420   79.9090  221.5400 C   0  0  0  0  0  0  0  0  0  0  0  0
  140.1720   71.9100  223.0470 C   0  0  0  0  0  0  0  0  0  0  0  0
  139.6280   70.6630  222.8080 C   0  0  0  0  0  0  0  0  0  0  0  0
  139.5830   69.7380  223.8470 C   0  0  0  0  0  0  0  0  0  0  0  0
  140.0910   70.1150  225.0940 C   0  0  0  0  0  0  0  0  0  0  0  0
  140.0470   69.1900  226.1360 C   0  0  0  0  0  0  0  0  0  0  0  0
  140.5500   69.5480  227.3900 C   0  0  0  0  0  0  0  0  0  0  0  0
  140.4990   68.3830  228.7230 Cl  0  0  0  0  0  0  0  0  0  0  0  0
  141.0800   70.8110  227.5640 C   0  0  0  0  0  0  0  0  0  0  0  0
  141.1330   71.7420  226.5380 C   0  0  0  0  0  0  0  0  0  0  0  0
  140.6290   71.3720  225.3040 C   0  0  0  0  0  0  0  0  0  0  0  0
  140.6500   72.2280  224.2640 N   0  0  0  0  0  0  0  0  0  0  0  0
  139.1640   74.3460  223.0840 H   0  0  0  0  0  0  0  0  0  0  0  0
  140.6726   75.4557  220.8795 H   0  0  0  0  0  0  0  0  0  0  0  0
  139.1261   74.7749  220.2183 H   0  0  0  0  0  0  0  0  0  0  0  0
  137.7195   78.7273  221.3163 H   0  0  0  0  0  0  0  0  0  0  0  0
  139.0737   79.4914  222.2031 H   0  0  0  0  0  0  0  0  0  0  0  0
  138.2270   80.0821  219.6222 H   0  0  0  0  0  0  0  0  0  0  0  0
  139.8352   80.5098  220.4023 H   0  0  0  0  0  0  0  0  0  0  0  0
  139.1834   78.2734  218.5258 H   0  0  0  0  0  0  0  0  0  0  0  0
  140.3494   79.6924  218.3632 H   0  0  0  0  0  0  0  0  0  0  0  0
  141.0513   77.1685  218.9466 H   0  0  0  0  0  0  0  0  0  0  0  0
  141.9463   78.7063  219.3959 H   0  0  0  0  0  0  0  0  0  0  0  0
  141.5555   76.8408  221.1122 H   0  0  0  0  0  0  0  0  0  0  0  0
  140.9090   77.5689  223.6031 H   0  0  0  0  0  0  0  0  0  0  0  0
  141.8128   79.1628  225.2671 H   0  0  0  0  0  0  0  0  0  0  0  0
  142.9450   81.2806  224.5117 H   0  0  0  0  0  0  0  0  0  0  0  0
  142.2510   80.1498  220.4722 H   0  0  0  0  0  0  0  0  0  0  0  0
  139.2368   70.4052  221.8128 H   0  0  0  0  0  0  0  0  0  0  0  0
  139.1583   68.7353  223.6911 H   0  0  0  0  0  0  0  0  0  0  0  0
  139.6210   68.1890  225.9731 H   0  0  0  0  0  0  0  0  0  0  0  0
  141.4745   71.0887  228.5526 H   0  0  0  0  0  0  0  0  0  0  0  0
  141.5617   72.7420  226.6999 H   0  0  0  0  0  0  0  0  0  0  0  0
  1  2  2  0
  2  3  1  0
  3  4  1  0
  4  5  1  0
  5  6  2  0
  5  7  1  0
  7  8  1  0
  8  9  1  0
  9 10  1  0
 10 11  1  0
 11 12  1  0
 12 13  1  0
 13 14  2  0
 14 15  1  0
 15 16  2  0
 16 17  1  0
 17 18  2  0
  2 19  1  0
 19 20  2  0
 20 21  1  0
 21 22  2  0
 22 23  1  0
 23 24  2  0
 24 25  1  0
 24 26  1  0
 26 27  2  0
 27 28  1  0
 28 29  2  0
 12  7  1  0
 18 13  1  0
 29 19  1  0
 28 22  1  0
  3 30  1  0
  4 31  1  0
  4 32  1  0
  8 33  1  0
  8 34  1  0
  9 35  1  0
  9 36  1  0
 10 37  1  0
 10 38  1  0
 11 39  1  0
 11 40  1  0
 12 41  1  6
 14 42  1  0
 15 43  1  0
 16 44  1  0
 18 45  1  0
 20 46  1  0
 21 47  1  0
 23 48  1  0
 26 49  1  0
 27 50  1  0
M  END
>  <smiles>  (89) 
O=C(NCC(=O)N1CCCCC1c1cccnc1)c1ccc2cc(Cl)ccc2n1

>  <score_type>  (89) 
oracle

>  <origin>  (89) 
autodockgpu

>  <m_score__min__energy>  (89) 
-8.7100000000000009

>  <m_primary>  (89) 
energy

>  <rmsd>  (89) 
2.6028953582656498

>  <m_score__min__rmsd>  (89) 
2.6028953582656498

>  <meeko>  (89) 
{"free_energy": -8.42, "intermolecular_energy": -9.91, "internal_energy": -1.48, "cluster_size": 38, "cluster_id": 1, "rank_in_cluster": 24}

>  <energy>  (89) 
-8.62

>  <cluster_rmsd>  (89) 
0.0

>  <cluster>  (89) 
2

$$$$

     RDKit          3D

 50 53  0  0  0  0  0  0  0  0999 V2000
  139.4650   72.1100  220.7720 O   0  0  0  0  0  0  0  0  0  0  0  0
  139.5190   72.5160  221.9750 C   0  0  0  0  0  0  0  0  0  0  0  0
  139.4020   73.9040  222.2920 N   0  0  0  0  0  0  0  0  0  0  0  0
  139.2190   74.9140  221.2670 C   0  0  0  0  0  0  0  0  0  0  0  0
  140.5020   75.5390  220.8730 C   0  0  0  0  0  0  0  0  0  0  0  0
  141.5160   74.8340  220.5820 O   0  0  0  0  0  0  0  0  0  0  0  0
  140.5510   76.9590  220.8340 N   0  0  0  0  0  0  0  0  0  0  0  0
  139.3540   77.7910  220.8820 C   0  0  0  0  0  0  0  0  0  0  0  0
  139.4420   78.8230  219.7930 C   0  0  0  0  0  0  0  0  0  0  0  0
  140.5250   78.5910  218.7930 C   0  0  0  0  0  0  0  0  0  0  0  0
  141.8630   78.2370  219.3600 C   0  0  0  0  0  0  0  0  0  0  0  0
  141.8230   77.6830  220.7430 C   0  0  1  0  0  0  0  0  0  0  0  0
  141.8220   78.6600  221.8290 C   0  0  0  0  0  0  0  0  0  0  0  0
  142.1370   79.9740  221.5290 C   0  0  0  0  0  0  0  0  0  0  0  0
  142.1520   80.9510  222.5180 C   0  0  0  0  0  0  0  0  0  0  0  0
  141.8510   80.6290  223.8420 C   0  0  0  0  0  0  0  0  0  0  0  0
  141.5500   79.3400  224.0960 N   0  0  0  0  0  0  0  0  0  0  0  0
  141.5310   78.3840  223.1480 C   0  0  0  0  0  0  0  0  0  0  0  0
  139.7010   71.5500  223.0720 C   0  0  0  0  0  0  0  0  0  0  0  0
  139.3410   70.2320  222.8710 C   0  0  0  0  0  0  0  0  0  0  0  0
  139.5150   69.3200  223.9070 C   0  0  0  0  0  0  0  0  0  0  0  0
  140.0500   69.7830  225.1140 C   0  0  0  0  0  0  0  0  0  0  0  0
  140.2260   68.8720  226.1550 C   0  0  0  0  0  0  0  0  0  0  0  0
  140.7590   69.3140  227.3690 C   0  0  0  0  0  0  0  0  0  0  0  0
  140.9860   68.1670  228.6990 Cl  0  0  0  0  0  0  0  0  0  0  0  0
  141.0980   70.6450  227.5060 C   0  0  0  0  0  0  0  0  0  0  0  0
  140.9310   71.5640  226.4820 C   0  0  0  0  0  0  0  0  0  0  0  0
  140.4010   71.1090  225.2870 C   0  0  0  0  0  0  0  0  0  0  0  0
  140.2130   71.9490  224.2510 N   0  0  0  0  0  0  0  0  0  0  0  0
  139.4560   74.1630  223.3220 H   0  0  0  0  0  0  0  0  0  0  0  0
  138.7655   74.4443  220.3817 H   0  0  0  0  0  0  0  0  0  0  0  0
  138.5677   75.7006  221.6757 H   0  0  0  0  0  0  0  0  0  0  0  0
  138.4620   77.1658  220.7286 H   0  0  0  0  0  0  0  0  0  0  0  0
  139.2793   78.2850  221.8620 H   0  0  0  0  0  0  0  0  0  0  0  0
  138.4808   78.8382  219.2583 H   0  0  0  0  0  0  0  0  0  0  0  0
  139.6795   79.7755  220.2893 H   0  0  0  0  0  0  0  0  0  0  0  0
  140.2078   77.7684  218.1352 H   0  0  0  0  0  0  0  0  0  0  0  0
  140.6632   79.5495  218.2713 H   0  0  0  0  0  0  0  0  0  0  0  0
  142.3266   77.4865  218.7029 H   0  0  0  0  0  0  0  0  0  0  0  0
  142.4363   79.1742  219.4156 H   0  0  0  0  0  0  0  0  0  0  0  0
  142.7385   77.0879  220.8763 H   0  0  0  0  0  0  0  0  0  0  0  0
  142.3792   80.2495  220.4920 H   0  0  0  0  0  0  0  0  0  0  0  0
  142.4038   81.9887  222.2541 H   0  0  0  0  0  0  0  0  0  0  0  0
  141.8590   81.3884  224.6378 H   0  0  0  0  0  0  0  0  0  0  0  0
  141.2759   77.3530  223.4342 H   0  0  0  0  0  0  0  0  0  0  0  0
  138.9230   69.9082  221.9064 H   0  0  0  0  0  0  0  0  0  0  0  0
  139.2392   68.2627  223.7805 H   0  0  0  0  0  0  0  0  0  0  0  0
  139.9481   67.8160  226.0220 H   0  0  0  0  0  0  0  0  0  0  0  0
  141.5162   70.9891  228.4634 H   0  0  0  0  0  0  0  0  0  0  0  0
  141.2103   72.6197  226.6145 H   0  0  0  0  0  0  0  0  0  0  0  0
  1  2  2  0
  2  3  1  0
  3  4  1  0
  4  5  1  0
  5  6  2  0
  5  7  1  0
  7  8  1  0
  8  9  1  0
  9 10  1  0
 10 11  1  0
 11 12  1  0
 12 13  1  0
 13 14  2  0
 14 15  1  0
 15 16  2  0
 16 17  1  0
 17 18  2  0
  2 19  1  0
 19 20  2  0
 20 21  1  0
 21 22  2  0
 22 23  1  0
 23 24  2  0
 24 25  1  0
 24 26  1  0
 26 27  2  0
 27 28  1  0
 28 29  2  0
 12  7  1  0
 18 13  1  0
 29 19  1  0
 28 22  1  0
  3 30  1  0
  4 31  1  0
  4 32  1  0
  8 33  1  0
  8 34  1  0
  9 35  1  0
  9 36  1  0
 10 37  1  0
 10 38  1  0
 11 39  1  0
 11 40  1  0
 12 41  1  1
 14 42  1  0
 15 43  1  0
 16 44  1  0
 18 45  1  0
 20 46  1  0
 21 47  1  0
 23 48  1  0
 26 49  1  0
 27 50  1  0
M  END
>  <smiles>  (90) 
O=C(NCC(=O)N1CCCCC1c1cccnc1)c1ccc2cc(Cl)ccc2n1

>  <score_type>  (90) 
oracle

>  <origin>  (90) 
autodockgpu

>  <m_score__min__energy>  (90) 
-8.7100000000000009

>  <m_primary>  (90) 
energy

>  <rmsd>  (90) 
2.0596685402658963

>  <m_score__min__rmsd>  (90) 
2.0596685402658963

>  <meeko>  (90) 
{"free_energy": -8.38, "intermolecular_energy": -9.87, "internal_energy": -1.48, "cluster_size": 38, "cluster_id": 1, "rank_in_cluster": 27}

>  <energy>  (90) 
-8.62

>  <cluster_rmsd>  (90) 
0.05

>  <cluster>  (90) 
2

$$$$

     RDKit          3D

 50 53  0  0  0  0  0  0  0  0999 V2000
  140.8550   72.2050  220.6700 O   0  0  0  0  0  0  0  0  0  0  0  0
  140.3170   72.6020  221.7500 C   0  0  0  0  0  0  0  0  0  0  0  0
  139.8020   73.9280  221.8740 N   0  0  0  0  0  0  0  0  0  0  0  0
  139.8680   74.8840  220.7850 C   0  0  0  0  0  0  0  0  0  0  0  0
  141.0420   75.7770  220.9040 C   0  0  0  0  0  0  0  0  0  0  0  0
  141.0850   76.6970  221.7770 O   0  0  0  0  0  0  0  0  0  0  0  0
  142.1180   75.5640  220.0000 N   0  0  0  0  0  0  0  0  0  0  0  0
  143.1120   76.5880  219.7020 C   0  0  0  0  0  0  0  0  0  0  0  0
  143.2820   76.6750  218.2110 C   0  0  0  0  0  0  0  0  0  0  0  0
  142.2490   75.9460  217.4180 C   0  0  0  0  0  0  0  0  0  0  0  0
  141.9390   74.5590  217.8820 C   0  0  0  0  0  0  0  0  0  0  0  0
  142.2950   74.2860  219.3020 C   0  0  1  0  0  0  0  0  0  0  0  0
  143.6730   73.8680  219.5520 C   0  0  0  0  0  0  0  0  0  0  0  0
  144.1200   73.8330  220.8610 C   0  0  0  0  0  0  0  0  0  0  0  0
  145.4200   73.4440  221.1640 C   0  0  0  0  0  0  0  0  0  0  0  0
  146.3080   73.0790  220.1520 C   0  0  0  0  0  0  0  0  0  0  0  0
  145.8370   73.1250  218.8900 N   0  0  0  0  0  0  0  0  0  0  0  0
  144.5810   73.5000  218.5820 C   0  0  0  0  0  0  0  0  0  0  0  0
  140.2120   71.6880  222.9010 C   0  0  0  0  0  0  0  0  0  0  0  0
  139.6080   70.4590  222.7280 C   0  0  0  0  0  0  0  0  0  0  0  0
  139.5120   69.5970  223.8160 C   0  0  0  0  0  0  0  0  0  0  0  0
  140.0330   70.0180  225.0440 C   0  0  0  0  0  0  0  0  0  0  0  0
  139.9380   69.1560  226.1360 C   0  0  0  0  0  0  0  0  0  0  0  0
  140.4530   69.5580  227.3720 C   0  0  0  0  0  0  0  0  0  0  0  0
  140.3380   68.4730  228.7670 Cl  0  0  0  0  0  0  0  0  0  0  0  0
  141.0450   70.8000  227.4780 C   0  0  0  0  0  0  0  0  0  0  0  0
  141.1490   71.6690  226.4030 C   0  0  0  0  0  0  0  0  0  0  0  0
  140.6330   71.2550  225.1870 C   0  0  0  0  0  0  0  0  0  0  0  0
  140.7010   72.0500  224.1020 N   0  0  0  0  0  0  0  0  0  0  0  0
  139.3670   74.1840  222.8100 H   0  0  0  0  0  0  0  0  0  0  0  0
  139.9336   74.3354  219.8338 H   0  0  0  0  0  0  0  0  0  0  0  0
  138.9617   75.5062  220.8227 H   0  0  0  0  0  0  0  0  0  0  0  0
  142.7725   77.5584  220.0931 H   0  0  0  0  0  0  0  0  0  0  0  0
  144.0710   76.3282  220.1741 H   0  0  0  0  0  0  0  0  0  0  0  0
  143.2470   77.7364  217.9243 H   0  0  0  0  0  0  0  0  0  0  0  0
  144.2442   76.1939  217.9812 H   0  0  0  0  0  0  0  0  0  0  0  0
  141.3184   76.5313  217.4551 H   0  0  0  0  0  0  0  0  0  0  0  0
  142.6665   75.8387  216.4060 H   0  0  0  0  0  0  0  0  0  0  0  0
  140.8589   74.3900  217.7605 H   0  0  0  0  0  0  0  0  0  0  0  0
  142.5533   73.8813  217.2709 H   0  0  0  0  0  0  0  0  0  0  0  0
  141.6614   73.4509  219.6352 H   0  0  0  0  0  0  0  0  0  0  0  0
  143.4363   74.1173  221.6745 H   0  0  0  0  0  0  0  0  0  0  0  0
  145.7517   73.4239  222.2126 H   0  0  0  0  0  0  0  0  0  0  0  0
  147.3402   72.7694  220.3727 H   0  0  0  0  0  0  0  0  0  0  0  0
  144.2706   73.5131  217.5268 H   0  0  0  0  0  0  0  0  0  0  0  0
  139.2090   70.1657  221.7458 H   0  0  0  0  0  0  0  0  0  0  0  0
  139.0384   68.6095  223.7131 H   0  0  0  0  0  0  0  0  0  0  0  0
  139.4628   68.1700  226.0261 H   0  0  0  0  0  0  0  0  0  0  0  0
  141.4496   71.1122  228.4521 H   0  0  0  0  0  0  0  0  0  0  0  0
  141.6255   72.6544  226.5125 H   0  0  0  0  0  0  0  0  0  0  0  0
  1  2  2  0
  2  3  1  0
  3  4  1  0
  4  5  1  0
  5  6  2  0
  5  7  1  0
  7  8  1  0
  8  9  1  0
  9 10  1  0
 10 11  1  0
 11 12  1  0
 12 13  1  0
 13 14  2  0
 14 15  1  0
 15 16  2  0
 16 17  1  0
 17 18  2  0
  2 19  1  0
 19 20  2  0
 20 21  1  0
 21 22  2  0
 22 23  1  0
 23 24  2  0
 24 25  1  0
 24 26  1  0
 26 27  2  0
 27 28  1  0
 28 29  2  0
 12  7  1  0
 18 13  1  0
 29 19  1  0
 28 22  1  0
  3 30  1  0
  4 31  1  0
  4 32  1  0
  8 33  1  0
  8 34  1  0
  9 35  1  0
  9 36  1  0
 10 37  1  0
 10 38  1  0
 11 39  1  0
 11 40  1  0
 12 41  1  1
 14 42  1  0
 15 43  1  0
 16 44  1  0
 18 45  1  0
 20 46  1  0
 21 47  1  0
 23 48  1  0
 26 49  1  0
 27 50  1  0
M  END
>  <smiles>  (91) 
O=C(NCC(=O)N1CCCCC1c1cccnc1)c1ccc2cc(Cl)ccc2n1

>  <score_type>  (91) 
oracle

>  <origin>  (91) 
autodockgpu

>  <m_score__min__energy>  (91) 
-8.7100000000000009

>  <m_primary>  (91) 
energy

>  <rmsd>  (91) 
2.5419979147411063

>  <m_score__min__rmsd>  (91) 
2.5419979147411063

>  <meeko>  (91) 
{"free_energy": -8.62, "intermolecular_energy": -10.11, "internal_energy": -1.72, "cluster_size": 11, "cluster_id": 2, "rank_in_cluster": 2}

>  <energy>  (91) 
-8.59

>  <cluster_rmsd>  (91) 
0.12

>  <cluster>  (91) 
2

$$$$

     RDKit          3D

 50 53  0  0  0  0  0  0  0  0999 V2000
  139.6080   72.2030  220.7870 O   0  0  0  0  0  0  0  0  0  0  0  0
  139.5590   72.5960  221.9940 C   0  0  0  0  0  0  0  0  0  0  0  0
  139.3410   73.9690  222.3160 N   0  0  0  0  0  0  0  0  0  0  0  0
  139.1680   74.9810  221.2910 C   0  0  0  0  0  0  0  0  0  0  0  0
  138.8410   76.3030  221.8700 C   0  0  0  0  0  0  0  0  0  0  0  0
  137.8600   76.4510  222.6620 O   0  0  0  0  0  0  0  0  0  0  0  0
  139.6670   77.4000  221.5010 N   0  0  0  0  0  0  0  0  0  0  0  0
  139.1730   78.5350  220.7290 C   0  0  0  0  0  0  0  0  0  0  0  0
  140.1380   78.8110  219.6100 C   0  0  0  0  0  0  0  0  0  0  0  0
  141.1600   77.7470  219.3850 C   0  0  0  0  0  0  0  0  0  0  0  0
  141.8380   77.2320  220.6140 C   0  0  0  0  0  0  0  0  0  0  0  0
  141.0830   77.4580  221.8790 C   0  0  1  0  0  0  0  0  0  0  0  0
  141.2850   78.7510  222.5280 C   0  0  0  0  0  0  0  0  0  0  0  0
  142.4980   79.3930  222.3450 C   0  0  0  0  0  0  0  0  0  0  0  0
  142.7510   80.6260  222.9360 C   0  0  0  0  0  0  0  0  0  0  0  0
  141.7870   81.2470  223.7310 C   0  0  0  0  0  0  0  0  0  0  0  0
  140.6190   80.5910  223.8850 N   0  0  0  0  0  0  0  0  0  0  0  0
  140.3600   79.3970  223.3190 C   0  0  0  0  0  0  0  0  0  0  0  0
  139.7250   71.6270  223.0920 C   0  0  0  0  0  0  0  0  0  0  0  0
  139.3530   70.3130  222.8870 C   0  0  0  0  0  0  0  0  0  0  0  0
  139.5120   69.3980  223.9250 C   0  0  0  0  0  0  0  0  0  0  0  0
  140.0430   69.8550  225.1350 C   0  0  0  0  0  0  0  0  0  0  0  0
  140.2030   68.9410  226.1760 C   0  0  0  0  0  0  0  0  0  0  0  0
  140.7320   69.3780  227.3940 C   0  0  0  0  0  0  0  0  0  0  0  0
  140.9400   68.2280  228.7250 Cl  0  0  0  0  0  0  0  0  0  0  0  0
  141.0840   70.7060  227.5350 C   0  0  0  0  0  0  0  0  0  0  0  0
  140.9320   71.6270  226.5100 C   0  0  0  0  0  0  0  0  0  0  0  0
  140.4060   71.1780  225.3110 C   0  0  0  0  0  0  0  0  0  0  0  0
  140.2330   72.0200  224.2750 N   0  0  0  0  0  0  0  0  0  0  0  0
  139.3120   74.2180  223.3500 H   0  0  0  0  0  0  0  0  0  0  0  0
  140.1009   75.0663  220.7145 H   0  0  0  0  0  0  0  0  0  0  0  0
  138.3304   74.6743  220.6473 H   0  0  0  0  0  0  0  0  0  0  0  0
  138.1824   78.2977  220.3139 H   0  0  0  0  0  0  0  0  0  0  0  0
  139.0856   79.4200  221.3764 H   0  0  0  0  0  0  0  0  0  0  0  0
  139.5598   78.9312  218.6820 H   0  0  0  0  0  0  0  0  0  0  0  0
  140.6931   79.7161  219.8974 H   0  0  0  0  0  0  0  0  0  0  0  0
  140.6625   76.8986  218.8923 H   0  0  0  0  0  0  0  0  0  0  0  0
  141.9505   78.2127  218.7781 H   0  0  0  0  0  0  0  0  0  0  0  0
  141.9902   76.1492  220.4939 H   0  0  0  0  0  0  0  0  0  0  0  0
  142.7801   77.7918  220.7086 H   0  0  0  0  0  0  0  0  0  0  0  0
  141.4316   76.7032  222.5992 H   0  0  0  0  0  0  0  0  0  0  0  0
  143.2728   78.9208  221.7231 H   0  0  0  0  0  0  0  0  0  0  0  0
  143.7219   81.1173  222.7750 H   0  0  0  0  0  0  0  0  0  0  0  0
  141.9704   82.2213  224.2075 H   0  0  0  0  0  0  0  0  0  0  0  0
  139.3823   78.9239  223.4930 H   0  0  0  0  0  0  0  0  0  0  0  0
  138.9378   69.9941  221.9196 H   0  0  0  0  0  0  0  0  0  0  0  0
  139.2272   68.3433  223.7962 H   0  0  0  0  0  0  0  0  0  0  0  0
  139.9161   67.8878  226.0402 H   0  0  0  0  0  0  0  0  0  0  0  0
  141.4999   71.0452  228.4952 H   0  0  0  0  0  0  0  0  0  0  0  0
  141.2200   72.6800  226.6451 H   0  0  0  0  0  0  0  0  0  0  0  0
  1  2  2  0
  2  3  1  0
  3  4  1  0
  4  5  1  0
  5  6  2  0
  5  7  1  0
  7  8  1  0
  8  9  1  0
  9 10  1  0
 10 11  1  0
 11 12  1  0
 12 13  1  0
 13 14  2  0
 14 15  1  0
 15 16  2  0
 16 17  1  0
 17 18  2  0
  2 19  1  0
 19 20  2  0
 20 21  1  0
 21 22  2  0
 22 23  1  0
 23 24  2  0
 24 25  1  0
 24 26  1  0
 26 27  2  0
 27 28  1  0
 28 29  2  0
 12  7  1  0
 18 13  1  0
 29 19  1  0
 28 22  1  0
  3 30  1  0
  4 31  1  0
  4 32  1  0
  8 33  1  0
  8 34  1  0
  9 35  1  0
  9 36  1  0
 10 37  1  0
 10 38  1  0
 11 39  1  0
 11 40  1  0
 12 41  1  1
 14 42  1  0
 15 43  1  0
 16 44  1  0
 18 45  1  0
 20 46  1  0
 21 47  1  0
 23 48  1  0
 26 49  1  0
 27 50  1  0
M  END
>  <smiles>  (92) 
O=C(NCC(=O)N1CCCCC1c1cccnc1)c1ccc2cc(Cl)ccc2n1

>  <score_type>  (92) 
oracle

>  <origin>  (92) 
autodockgpu

>  <m_score__min__energy>  (92) 
-8.7100000000000009

>  <m_primary>  (92) 
energy

>  <rmsd>  (92) 
2.310833445266959

>  <m_score__min__rmsd>  (92) 
2.310833445266959

>  <meeko>  (92) 
{"free_energy": -8.64, "intermolecular_energy": -10.13, "internal_energy": -1.44, "cluster_size": 38, "cluster_id": 1, "rank_in_cluster": 2}

>  <energy>  (92) 
-8.59

>  <cluster_rmsd>  (92) 
0.13

>  <cluster>  (92) 
2

$$$$

     RDKit          3D

 50 53  0  0  0  0  0  0  0  0999 V2000
  140.6700   72.1150  220.6140 O   0  0  0  0  0  0  0  0  0  0  0  0
  140.2490   72.5430  221.7340 C   0  0  0  0  0  0  0  0  0  0  0  0
  139.8480   73.9030  221.9010 N   0  0  0  0  0  0  0  0  0  0  0  0
  139.9010   74.8600  220.8120 C   0  0  0  0  0  0  0  0  0  0  0  0
  141.0890   75.7380  220.9040 C   0  0  0  0  0  0  0  0  0  0  0  0
  141.1590   76.6620  221.7710 O   0  0  0  0  0  0  0  0  0  0  0  0
  142.1460   75.5050  219.9830 N   0  0  0  0  0  0  0  0  0  0  0  0
  143.1410   76.5180  219.6520 C   0  0  0  0  0  0  0  0  0  0  0  0
  143.2830   76.5820  218.1570 C   0  0  0  0  0  0  0  0  0  0  0  0
  142.2300   75.8490  217.3940 C   0  0  0  0  0  0  0  0  0  0  0  0
  141.9200   74.4710  217.8840 C   0  0  0  0  0  0  0  0  0  0  0  0
  142.3020   74.2160  219.3010 C   0  0  1  0  0  0  0  0  0  0  0  0
  143.6810   73.7920  219.5310 C   0  0  0  0  0  0  0  0  0  0  0  0
  144.1500   73.7630  220.8330 C   0  0  0  0  0  0  0  0  0  0  0  0
  145.4520   73.3690  221.1170 C   0  0  0  0  0  0  0  0  0  0  0  0
  146.3220   72.9930  220.0930 C   0  0  0  0  0  0  0  0  0  0  0  0
  145.8310   73.0340  218.8380 N   0  0  0  0  0  0  0  0  0  0  0  0
  144.5720   73.4140  218.5490 C   0  0  0  0  0  0  0  0  0  0  0  0
  140.1650   71.6310  222.8880 C   0  0  0  0  0  0  0  0  0  0  0  0
  139.5700   70.3960  222.7250 C   0  0  0  0  0  0  0  0  0  0  0  0
  139.4930   69.5360  223.8160 C   0  0  0  0  0  0  0  0  0  0  0  0
  140.0250   69.9640  225.0360 C   0  0  0  0  0  0  0  0  0  0  0  0
  139.9490   69.1030  226.1310 C   0  0  0  0  0  0  0  0  0  0  0  0
  140.4740   69.5120  227.3600 C   0  0  0  0  0  0  0  0  0  0  0  0
  140.3840   68.4290  228.7590 Cl  0  0  0  0  0  0  0  0  0  0  0  0
  141.0570   70.7600  227.4580 C   0  0  0  0  0  0  0  0  0  0  0  0
  141.1410   71.6270  226.3790 C   0  0  0  0  0  0  0  0  0  0  0  0
  140.6150   71.2070  225.1700 C   0  0  0  0  0  0  0  0  0  0  0  0
  140.6640   72.0000  224.0830 N   0  0  0  0  0  0  0  0  0  0  0  0
  139.5070   74.1840  222.8680 H   0  0  0  0  0  0  0  0  0  0  0  0
  139.9371   74.3120  219.8589 H   0  0  0  0  0  0  0  0  0  0  0  0
  139.0040   75.4939  220.8722 H   0  0  0  0  0  0  0  0  0  0  0  0
  142.8153   77.4962  220.0353 H   0  0  0  0  0  0  0  0  0  0  0  0
  144.1070   76.2589  220.1100 H   0  0  0  0  0  0  0  0  0  0  0  0
  143.2499   77.6394  217.8555 H   0  0  0  0  0  0  0  0  0  0  0  0
  144.2372   76.0904  217.9163 H   0  0  0  0  0  0  0  0  0  0  0  0
  141.3041   76.4412  217.4403 H   0  0  0  0  0  0  0  0  0  0  0  0
  142.6271   75.7246  216.3758 H   0  0  0  0  0  0  0  0  0  0  0  0
  140.8366   74.3077  217.7860 H   0  0  0  0  0  0  0  0  0  0  0  0
  142.5177   73.7804  217.2710 H   0  0  0  0  0  0  0  0  0  0  0  0
  141.6701   73.3897  219.6586 H   0  0  0  0  0  0  0  0  0  0  0  0
  143.4815   74.0565  221.6558 H   0  0  0  0  0  0  0  0  0  0  0  0
  145.8005   73.3534  222.1602 H   0  0  0  0  0  0  0  0  0  0  0  0
  147.3559   72.6791  220.2992 H   0  0  0  0  0  0  0  0  0  0  0  0
  144.2448   73.4232  217.4988 H   0  0  0  0  0  0  0  0  0  0  0  0
  139.1632   70.0966  221.7479 H   0  0  0  0  0  0  0  0  0  0  0  0
  139.0255   68.5448  223.7211 H   0  0  0  0  0  0  0  0  0  0  0  0
  139.4809   68.1129  226.0282 H   0  0  0  0  0  0  0  0  0  0  0  0
  141.4696   71.0778  228.4269 H   0  0  0  0  0  0  0  0  0  0  0  0
  141.6106   72.6165  226.4809 H   0  0  0  0  0  0  0  0  0  0  0  0
  1  2  2  0
  2  3  1  0
  3  4  1  0
  4  5  1  0
  5  6  2  0
  5  7  1  0
  7  8  1  0
  8  9  1  0
  9 10  1  0
 10 11  1  0
 11 12  1  0
 12 13  1  0
 13 14  2  0
 14 15  1  0
 15 16  2  0
 16 17  1  0
 17 18  2  0
  2 19  1  0
 19 20  2  0
 20 21  1  0
 21 22  2  0
 22 23  1  0
 23 24  2  0
 24 25  1  0
 24 26  1  0
 26 27  2  0
 27 28  1  0
 28 29  2  0
 12  7  1  0
 18 13  1  0
 29 19  1  0
 28 22  1  0
  3 30  1  0
  4 31  1  0
  4 32  1  0
  8 33  1  0
  8 34  1  0
  9 35  1  0
  9 36  1  0
 10 37  1  0
 10 38  1  0
 11 39  1  0
 11 40  1  0
 12 41  1  1
 14 42  1  0
 15 43  1  0
 16 44  1  0
 18 45  1  0
 20 46  1  0
 21 47  1  0
 23 48  1  0
 26 49  1  0
 27 50  1  0
M  END
>  <smiles>  (93) 
O=C(NCC(=O)N1CCCCC1c1cccnc1)c1ccc2cc(Cl)ccc2n1

>  <score_type>  (93) 
oracle

>  <origin>  (93) 
autodockgpu

>  <m_score__min__energy>  (93) 
-8.7100000000000009

>  <m_primary>  (93) 
energy

>  <rmsd>  (93) 
2.538737348623671

>  <m_score__min__rmsd>  (93) 
2.538737348623671

>  <meeko>  (93) 
{"free_energy": -8.59, "intermolecular_energy": -10.09, "internal_energy": -1.77, "cluster_size": 11, "cluster_id": 2, "rank_in_cluster": 3}

>  <energy>  (93) 
-8.58

>  <cluster_rmsd>  (93) 
0.12

>  <cluster>  (93) 
2

$$$$

     RDKit          3D

 50 53  0  0  0  0  0  0  0  0999 V2000
  139.8980   72.4490  220.7410 O   0  0  0  0  0  0  0  0  0  0  0  0
  139.7160   72.8090  221.9460 C   0  0  0  0  0  0  0  0  0  0  0  0
  139.3800   74.1580  222.2700 N   0  0  0  0  0  0  0  0  0  0  0  0
  139.2300   75.1800  221.2520 C   0  0  0  0  0  0  0  0  0  0  0  0
  138.9130   76.5020  221.8370 C   0  0  0  0  0  0  0  0  0  0  0  0
  137.9870   76.6370  222.6950 O   0  0  0  0  0  0  0  0  0  0  0  0
  139.6850   77.6120  221.4000 N   0  0  0  0  0  0  0  0  0  0  0  0
  139.0860   78.8770  220.9900 C   0  0  0  0  0  0  0  0  0  0  0  0
  139.6980   79.2980  219.6830 C   0  0  0  0  0  0  0  0  0  0  0  0
  140.5130   78.2480  219.0040 C   0  0  0  0  0  0  0  0  0  0  0  0
  141.4750   77.5110  219.8790 C   0  0  0  0  0  0  0  0  0  0  0  0
  141.1490   77.5520  221.3320 C   0  0  1  0  0  0  0  0  0  0  0  0
  141.6440   78.7110  222.0710 C   0  0  0  0  0  0  0  0  0  0  0  0
  141.5950   78.6760  223.4540 C   0  0  0  0  0  0  0  0  0  0  0  0
  142.0510   79.7470  224.2140 C   0  0  0  0  0  0  0  0  0  0  0  0
  142.5690   80.8880  223.5990 C   0  0  0  0  0  0  0  0  0  0  0  0
  142.6000   80.8850  222.2520 N   0  0  0  0  0  0  0  0  0  0  0  0
  142.1630   79.8550  221.5030 C   0  0  0  0  0  0  0  0  0  0  0  0
  139.8500   71.8280  223.0370 C   0  0  0  0  0  0  0  0  0  0  0  0
  139.4690   70.5200  222.8120 C   0  0  0  0  0  0  0  0  0  0  0  0
  139.5970   69.5940  223.8430 C   0  0  0  0  0  0  0  0  0  0  0  0
  140.1080   70.0340  225.0690 C   0  0  0  0  0  0  0  0  0  0  0  0
  140.2370   69.1080  226.1030 C   0  0  0  0  0  0  0  0  0  0  0  0
  140.7460   69.5270  227.3360 C   0  0  0  0  0  0  0  0  0  0  0  0
  140.9150   68.3620  228.6590 Cl  0  0  0  0  0  0  0  0  0  0  0  0
  141.1090   70.8500  227.4970 C   0  0  0  0  0  0  0  0  0  0  0  0
  140.9870   71.7820  226.4780 C   0  0  0  0  0  0  0  0  0  0  0  0
  140.4810   71.3510  225.2650 C   0  0  0  0  0  0  0  0  0  0  0  0
  140.3380   72.2050  224.2330 N   0  0  0  0  0  0  0  0  0  0  0  0
  139.2430   74.3800  223.3010 H   0  0  0  0  0  0  0  0  0  0  0  0
  140.1699   75.2582  220.6859 H   0  0  0  0  0  0  0  0  0  0  0  0
  138.3950   74.8885  220.5979 H   0  0  0  0  0  0  0  0  0  0  0  0
  138.0004   78.7499  220.8666 H   0  0  0  0  0  0  0  0  0  0  0  0
  139.2708   79.6451  221.7554 H   0  0  0  0  0  0  0  0  0  0  0  0
  138.8843   79.5917  219.0035 H   0  0  0  0  0  0  0  0  0  0  0  0
  140.3886   80.1217  219.9166 H   0  0  0  0  0  0  0  0  0  0  0  0
  139.8214   77.5127  218.5669 H   0  0  0  0  0  0  0  0  0  0  0  0
  141.1271   78.7775  218.2607 H   0  0  0  0  0  0  0  0  0  0  0  0
  141.4910   76.4582  219.5606 H   0  0  0  0  0  0  0  0  0  0  0  0
  142.4476   78.0117  219.7637 H   0  0  0  0  0  0  0  0  0  0  0  0
  141.6278   76.6750  221.7921 H   0  0  0  0  0  0  0  0  0  0  0  0
  141.1891   77.7872  223.9593 H   0  0  0  0  0  0  0  0  0  0  0  0
  142.0031   79.6947  225.3117 H   0  0  0  0  0  0  0  0  0  0  0  0
  142.9331   81.7455  224.1839 H   0  0  0  0  0  0  0  0  0  0  0  0
  142.2217   79.9284  220.4070 H   0  0  0  0  0  0  0  0  0  0  0  0
  139.0705   70.2147  221.8332 H   0  0  0  0  0  0  0  0  0  0  0  0
  139.3041   68.5437  223.6979 H   0  0  0  0  0  0  0  0  0  0  0  0
  139.9417   68.0594  225.9506 H   0  0  0  0  0  0  0  0  0  0  0  0
  141.5092   71.1757  228.4685 H   0  0  0  0  0  0  0  0  0  0  0  0
  141.2831   72.8305  226.6293 H   0  0  0  0  0  0  0  0  0  0  0  0
  1  2  2  0
  2  3  1  0
  3  4  1  0
  4  5  1  0
  5  6  2  0
  5  7  1  0
  7  8  1  0
  8  9  1  0
  9 10  1  0
 10 11  1  0
 11 12  1  0
 12 13  1  0
 13 14  2  0
 14 15  1  0
 15 16  2  0
 16 17  1  0
 17 18  2  0
  2 19  1  0
 19 20  2  0
 20 21  1  0
 21 22  2  0
 22 23  1  0
 23 24  2  0
 24 25  1  0
 24 26  1  0
 26 27  2  0
 27 28  1  0
 28 29  2  0
 12  7  1  0
 18 13  1  0
 29 19  1  0
 28 22  1  0
  3 30  1  0
  4 31  1  0
  4 32  1  0
  8 33  1  0
  8 34  1  0
  9 35  1  0
  9 36  1  0
 10 37  1  0
 10 38  1  0
 11 39  1  0
 11 40  1  0
 12 41  1  1
 14 42  1  0
 15 43  1  0
 16 44  1  0
 18 45  1  0
 20 46  1  0
 21 47  1  0
 23 48  1  0
 26 49  1  0
 27 50  1  0
M  END
>  <smiles>  (94) 
O=C(NCC(=O)N1CCCCC1c1cccnc1)c1ccc2cc(Cl)ccc2n1

>  <score_type>  (94) 
oracle

>  <origin>  (94) 
autodockgpu

>  <m_score__min__energy>  (94) 
-8.7100000000000009

>  <m_primary>  (94) 
energy

>  <rmsd>  (94) 
2.423054531931081

>  <m_score__min__rmsd>  (94) 
2.423054531931081

>  <meeko>  (94) 
{"free_energy": -8.54, "intermolecular_energy": -10.03, "internal_energy": -1.51, "cluster_size": 38, "cluster_id": 1, "rank_in_cluster": 17}

>  <energy>  (94) 
-8.58

>  <cluster_rmsd>  (94) 
0.12

>  <cluster>  (94) 
2

$$$$

     RDKit          3D

 50 53  0  0  0  0  0  0  0  0999 V2000
  139.8760   72.6210  220.7310 O   0  0  0  0  0  0  0  0  0  0  0  0
  139.7180   72.9500  221.9490 C   0  0  0  0  0  0  0  0  0  0  0  0
  139.4260   74.2980  222.3170 N   0  0  0  0  0  0  0  0  0  0  0  0
  139.2980   75.3550  221.3320 C   0  0  0  0  0  0  0  0  0  0  0  0
  138.8510   76.6270  221.9410 C   0  0  0  0  0  0  0  0  0  0  0  0
  137.6820   76.7540  222.4190 O   0  0  0  0  0  0  0  0  0  0  0  0
  139.7820   77.7010  221.9670 N   0  0  0  0  0  0  0  0  0  0  0  0
  141.1400   77.5550  222.4790 C   0  0  0  0  0  0  0  0  0  0  0  0
  141.4240   78.6950  223.4180 C   0  0  0  0  0  0  0  0  0  0  0  0
  140.2290   79.4990  223.8100 C   0  0  0  0  0  0  0  0  0  0  0  0
  139.3180   79.8900  222.6910 C   0  0  0  0  0  0  0  0  0  0  0  0
  139.4300   79.0370  221.4740 C   0  0  1  0  0  0  0  0  0  0  0  0
  140.4700   79.4120  220.5180 C   0  0  0  0  0  0  0  0  0  0  0  0
  140.7580   78.5350  219.4860 C   0  0  0  0  0  0  0  0  0  0  0  0
  141.7360   78.8340  218.5450 C   0  0  0  0  0  0  0  0  0  0  0  0
  142.4550   80.0270  218.6180 C   0  0  0  0  0  0  0  0  0  0  0  0
  142.1470   80.8550  219.6370 N   0  0  0  0  0  0  0  0  0  0  0  0
  141.2020   80.5790  220.5560 C   0  0  0  0  0  0  0  0  0  0  0  0
  139.8320   71.9330  223.0080 C   0  0  0  0  0  0  0  0  0  0  0  0
  139.4290   70.6390  222.7410 C   0  0  0  0  0  0  0  0  0  0  0  0
  139.5390   69.6790  223.7430 C   0  0  0  0  0  0  0  0  0  0  0  0
  140.0550   70.0710  224.9820 C   0  0  0  0  0  0  0  0  0  0  0  0
  140.1660   69.1100  225.9870 C   0  0  0  0  0  0  0  0  0  0  0  0
  140.6800   69.4810  227.2330 C   0  0  0  0  0  0  0  0  0  0  0  0
  140.8260   68.2720  228.5190 Cl  0  0  0  0  0  0  0  0  0  0  0  0
  141.0650   70.7910  227.4370 C   0  0  0  0  0  0  0  0  0  0  0  0
  140.9620   71.7580  226.4480 C   0  0  0  0  0  0  0  0  0  0  0  0
  140.4510   71.3740  225.2210 C   0  0  0  0  0  0  0  0  0  0  0  0
  140.3240   72.2630  224.2170 N   0  0  0  0  0  0  0  0  0  0  0  0
  139.3080   74.4930  223.3560 H   0  0  0  0  0  0  0  0  0  0  0  0
  140.2752   75.5145  220.8528 H   0  0  0  0  0  0  0  0  0  0  0  0
  138.5409   75.0451  220.5966 H   0  0  0  0  0  0  0  0  0  0  0  0
  141.2325   76.6000  223.0169 H   0  0  0  0  0  0  0  0  0  0  0  0
  141.8587   77.5661  221.6464 H   0  0  0  0  0  0  0  0  0  0  0  0
  141.8721   78.2804  224.3331 H   0  0  0  0  0  0  0  0  0  0  0  0
  142.0932   79.3805  222.8774 H   0  0  0  0  0  0  0  0  0  0  0  0
  139.6451   78.9079  224.5309 H   0  0  0  0  0  0  0  0  0  0  0  0
  140.6217   80.4406  224.2213 H   0  0  0  0  0  0  0  0  0  0  0  0
  138.2819   79.8330  223.0560 H   0  0  0  0  0  0  0  0  0  0  0  0
  139.6131   80.9056  222.3886 H   0  0  0  0  0  0  0  0  0  0  0  0
  138.4770   79.1260  220.9319 H   0  0  0  0  0  0  0  0  0  0  0  0
  140.2044   77.5875  219.4098 H   0  0  0  0  0  0  0  0  0  0  0  0
  141.9455   78.1217  217.7334 H   0  0  0  0  0  0  0  0  0  0  0  0
  143.2330   80.2794  217.8825 H   0  0  0  0  0  0  0  0  0  0  0  0
  141.0091   81.3053  221.3593 H   0  0  0  0  0  0  0  0  0  0  0  0
  139.0276   70.3715  221.7524 H   0  0  0  0  0  0  0  0  0  0  0  0
  139.2281   68.6390  223.5647 H   0  0  0  0  0  0  0  0  0  0  0  0
  139.8527   68.0721  225.8012 H   0  0  0  0  0  0  0  0  0  0  0  0
  141.4680   71.0783  228.4194 H   0  0  0  0  0  0  0  0  0  0  0  0
  141.2762   72.7958  226.6331 H   0  0  0  0  0  0  0  0  0  0  0  0
  1  2  2  0
  2  3  1  0
  3  4  1  0
  4  5  1  0
  5  6  2  0
  5  7  1  0
  7  8  1  0
  8  9  1  0
  9 10  1  0
 10 11  1  0
 11 12  1  0
 12 13  1  0
 13 14  2  0
 14 15  1  0
 15 16  2  0
 16 17  1  0
 17 18  2  0
  2 19  1  0
 19 20  2  0
 20 21  1  0
 21 22  2  0
 22 23  1  0
 23 24  2  0
 24 25  1  0
 24 26  1  0
 26 27  2  0
 27 28  1  0
 28 29  2  0
 12  7  1  0
 18 13  1  0
 29 19  1  0
 28 22  1  0
  3 30  1  0
  4 31  1  0
  4 32  1  0
  8 33  1  0
  8 34  1  0
  9 35  1  0
  9 36  1  0
 10 37  1  0
 10 38  1  0
 11 39  1  0
 11 40  1  0
 12 41  1  6
 14 42  1  0
 15 43  1  0
 16 44  1  0
 18 45  1  0
 20 46  1  0
 21 47  1  0
 23 48  1  0
 26 49  1  0
 27 50  1  0
M  END
>  <smiles>  (95) 
O=C(NCC(=O)N1CCCCC1c1cccnc1)c1ccc2cc(Cl)ccc2n1

>  <score_type>  (95) 
oracle

>  <origin>  (95) 
autodockgpu

>  <m_score__min__energy>  (95) 
-8.7100000000000009

>  <m_primary>  (95) 
energy

>  <rmsd>  (95) 
3.534849788858484

>  <m_score__min__rmsd>  (95) 
3.534849788858484

>  <meeko>  (95) 
{"free_energy": -8.04, "intermolecular_energy": -9.53, "internal_energy": -1.48, "cluster_size": 38, "cluster_id": 1, "rank_in_cluster": 33}

>  <energy>  (95) 
-8.5

>  <cluster_rmsd>  (95) 
0.17

>  <cluster>  (95) 
2

$$$$

     RDKit          3D

 50 53  0  0  0  0  0  0  0  0999 V2000
  140.6480   73.1600  221.5260 O   0  0  0  0  0  0  0  0  0  0  0  0
  139.6890   72.9240  222.3250 C   0  0  0  0  0  0  0  0  0  0  0  0
  138.4580   73.6410  222.2330 N   0  0  0  0  0  0  0  0  0  0  0  0
  138.2390   74.6700  221.2340 C   0  0  0  0  0  0  0  0  0  0  0  0
  138.1400   76.0160  221.8390 C   0  0  0  0  0  0  0  0  0  0  0  0
  137.1720   76.3270  222.5990 O   0  0  0  0  0  0  0  0  0  0  0  0
  139.1690   76.9470  221.5320 N   0  0  0  0  0  0  0  0  0  0  0  0
  139.0140   77.9920  220.5270 C   0  0  0  0  0  0  0  0  0  0  0  0
  140.2240   77.9850  219.6350 C   0  0  0  0  0  0  0  0  0  0  0  0
  141.1130   76.7960  219.7920 C   0  0  0  0  0  0  0  0  0  0  0  0
  141.4350   76.4120  221.2010 C   0  0  0  0  0  0  0  0  0  0  0  0
  140.4660   76.9130  222.2170 C   0  0  1  0  0  0  0  0  0  0  0  0
  140.7020   78.2640  222.7210 C   0  0  0  0  0  0  0  0  0  0  0  0
  141.9370   78.8440  222.4870 C   0  0  0  0  0  0  0  0  0  0  0  0
  142.2230   80.1260  222.9410 C   0  0  0  0  0  0  0  0  0  0  0  0
  141.2700   80.8610  223.6480 C   0  0  0  0  0  0  0  0  0  0  0  0
  140.0810   80.2630  223.8570 N   0  0  0  0  0  0  0  0  0  0  0  0
  139.7900   79.0220  223.4230 C   0  0  0  0  0  0  0  0  0  0  0  0
  139.8340   71.8930  223.3670 C   0  0  0  0  0  0  0  0  0  0  0  0
  139.4380   70.6000  223.0900 C   0  0  0  0  0  0  0  0  0  0  0  0
  139.5780   69.6270  224.0750 C   0  0  0  0  0  0  0  0  0  0  0  0
  140.1150   70.0060  225.3100 C   0  0  0  0  0  0  0  0  0  0  0  0
  140.2560   69.0330  226.2990 C   0  0  0  0  0  0  0  0  0  0  0  0
  140.7900   69.3910  227.5400 C   0  0  0  0  0  0  0  0  0  0  0  0
  140.9740   68.1650  228.8040 Cl  0  0  0  0  0  0  0  0  0  0  0  0
  141.1670   70.7020  227.7540 C   0  0  0  0  0  0  0  0  0  0  0  0
  141.0340   71.6810  226.7810 C   0  0  0  0  0  0  0  0  0  0  0  0
  140.5020   71.3090  225.5590 C   0  0  0  0  0  0  0  0  0  0  0  0
  140.3470   72.2110  224.5710 N   0  0  0  0  0  0  0  0  0  0  0  0
  137.7030   73.3850  222.9370 H   0  0  0  0  0  0  0  0  0  0  0  0
  139.0791   74.6605  220.5240 H   0  0  0  0  0  0  0  0  0  0  0  0
  137.2873   74.4543  220.7264 H   0  0  0  0  0  0  0  0  0  0  0  0
  138.1115   77.7991  219.9284 H   0  0  0  0  0  0  0  0  0  0  0  0
  138.9148   78.9719  221.0169 H   0  0  0  0  0  0  0  0  0  0  0  0
  139.8792   78.0185  218.5910 H   0  0  0  0  0  0  0  0  0  0  0  0
  140.8250   78.8601  219.9230 H   0  0  0  0  0  0  0  0  0  0  0  0
  140.6192   75.9383  219.3118 H   0  0  0  0  0  0  0  0  0  0  0  0
  142.0715   77.0735  219.3290 H   0  0  0  0  0  0  0  0  0  0  0  0
  141.4579   75.3139  221.2608 H   0  0  0  0  0  0  0  0  0  0  0  0
  142.4034   76.8769  221.4376 H   0  0  0  0  0  0  0  0  0  0  0  0
  140.5447   76.2484  223.0900 H   0  0  0  0  0  0  0  0  0  0  0  0
  142.7034   78.2817  221.9334 H   0  0  0  0  0  0  0  0  0  0  0  0
  143.2110   80.5662  222.7410 H   0  0  0  0  0  0  0  0  0  0  0  0
  141.4791   81.8764  224.0157 H   0  0  0  0  0  0  0  0  0  0  0  0
  138.7960   78.6013  223.6349 H   0  0  0  0  0  0  0  0  0  0  0  0
  139.0184   70.3428  222.1062 H   0  0  0  0  0  0  0  0  0  0  0  0
  139.2742   68.5866  223.8874 H   0  0  0  0  0  0  0  0  0  0  0  0
  139.9501   67.9945  226.1044 H   0  0  0  0  0  0  0  0  0  0  0  0
  141.5880   70.9798  228.7315 H   0  0  0  0  0  0  0  0  0  0  0  0
  141.3413   72.7194  226.9743 H   0  0  0  0  0  0  0  0  0  0  0  0
  1  2  2  0
  2  3  1  0
  3  4  1  0
  4  5  1  0
  5  6  2  0
  5  7  1  0
  7  8  1  0
  8  9  1  0
  9 10  1  0
 10 11  1  0
 11 12  1  0
 12 13  1  0
 13 14  2  0
 14 15  1  0
 15 16  2  0
 16 17  1  0
 17 18  2  0
  2 19  1  0
 19 20  2  0
 20 21  1  0
 21 22  2  0
 22 23  1  0
 23 24  2  0
 24 25  1  0
 24 26  1  0
 26 27  2  0
 27 28  1  0
 28 29  2  0
 12  7  1  0
 18 13  1  0
 29 19  1  0
 28 22  1  0
  3 30  1  0
  4 31  1  0
  4 32  1  0
  8 33  1  0
  8 34  1  0
  9 35  1  0
  9 36  1  0
 10 37  1  0
 10 38  1  0
 11 39  1  0
 11 40  1  0
 12 41  1  1
 14 42  1  0
 15 43  1  0
 16 44  1  0
 18 45  1  0
 20 46  1  0
 21 47  1  0
 23 48  1  0
 26 49  1  0
 27 50  1  0
M  END
>  <smiles>  (96) 
O=C(NCC(=O)N1CCCCC1c1cccnc1)c1ccc2cc(Cl)ccc2n1

>  <score_type>  (96) 
oracle

>  <origin>  (96) 
autodockgpu

>  <m_score__min__energy>  (96) 
-8.7100000000000009

>  <m_primary>  (96) 
energy

>  <rmsd>  (96) 
2.2873586452773074

>  <m_score__min__rmsd>  (96) 
2.2873586452773074

>  <meeko>  (96) 
{"free_energy": -8.4, "intermolecular_energy": -9.9, "internal_energy": -1.5, "cluster_size": 38, "cluster_id": 1, "rank_in_cluster": 26}

>  <energy>  (96) 
-8.11

>  <cluster_rmsd>  (96) 
0.56

>  <cluster>  (96) 
2

$$$$

     RDKit          3D

 50 53  0  0  0  0  0  0  0  0999 V2000
  139.7500   72.1850  220.7900 O   0  0  0  0  0  0  0  0  0  0  0  0
  139.7220   72.5810  221.9970 C   0  0  0  0  0  0  0  0  0  0  0  0
  139.5740   73.9650  222.3160 N   0  0  0  0  0  0  0  0  0  0  0  0
  139.4520   74.9820  221.2900 C   0  0  0  0  0  0  0  0  0  0  0  0
  140.7190   75.7180  221.0860 C   0  0  0  0  0  0  0  0  0  0  0  0
  141.8210   75.1040  220.9440 O   0  0  0  0  0  0  0  0  0  0  0  0
  140.6530   77.1370  221.0570 N   0  0  0  0  0  0  0  0  0  0  0  0
  139.4110   77.8730  221.2630 C   0  0  0  0  0  0  0  0  0  0  0  0
  139.2820   78.9100  220.1820 C   0  0  0  0  0  0  0  0  0  0  0  0
  140.2460   78.7630  219.0520 C   0  0  0  0  0  0  0  0  0  0  0  0
  141.6670   78.5150  219.4440 C   0  0  0  0  0  0  0  0  0  0  0  0
  141.8440   77.9580  220.8140 C   0  0  1  0  0  0  0  0  0  0  0  0
  141.9030   78.9320  221.9030 C   0  0  0  0  0  0  0  0  0  0  0  0
  142.0620   80.2680  221.5790 C   0  0  0  0  0  0  0  0  0  0  0  0
  142.1250   81.2420  222.5690 C   0  0  0  0  0  0  0  0  0  0  0  0
  142.0310   80.8950  223.9170 C   0  0  0  0  0  0  0  0  0  0  0  0
  141.8760   79.5850  224.1930 N   0  0  0  0  0  0  0  0  0  0  0  0
  141.8140   78.6310  223.2450 C   0  0  0  0  0  0  0  0  0  0  0  0
  139.8390   71.6070  223.0960 C   0  0  0  0  0  0  0  0  0  0  0  0
  139.4370   70.3040  222.8820 C   0  0  0  0  0  0  0  0  0  0  0  0
  139.5510   69.3850  223.9210 C   0  0  0  0  0  0  0  0  0  0  0  0
  140.0690   69.8260  225.1430 C   0  0  0  0  0  0  0  0  0  0  0  0
  140.1840   68.9070  226.1850 C   0  0  0  0  0  0  0  0  0  0  0  0
  140.7000   69.3270  227.4140 C   0  0  0  0  0  0  0  0  0  0  0  0
  140.8510   68.1710  228.7460 Cl  0  0  0  0  0  0  0  0  0  0  0  0
  141.0850   70.6450  227.5630 C   0  0  0  0  0  0  0  0  0  0  0  0
  140.9780   71.5710  226.5370 C   0  0  0  0  0  0  0  0  0  0  0  0
  140.4640   71.1380  225.3280 C   0  0  0  0  0  0  0  0  0  0  0  0
  140.3340   71.9860  224.2890 N   0  0  0  0  0  0  0  0  0  0  0  0
  139.5590   74.2160  223.3490 H   0  0  0  0  0  0  0  0  0  0  0  0
  139.1653   74.4995  220.3440 H   0  0  0  0  0  0  0  0  0  0  0  0
  138.6885   75.7037  221.6159 H   0  0  0  0  0  0  0  0  0  0  0  0
  138.5578   77.1804  221.2156 H   0  0  0  0  0  0  0  0  0  0  0  0
  139.4217   78.3588  222.2499 H   0  0  0  0  0  0  0  0  0  0  0  0
  138.2631   78.8511  219.7718 H   0  0  0  0  0  0  0  0  0  0  0  0
  139.5058   79.8778  220.6546 H   0  0  0  0  0  0  0  0  0  0  0  0
  139.9136   77.9179  218.4313 H   0  0  0  0  0  0  0  0  0  0  0  0
  140.2430   79.7291  218.5260 H   0  0  0  0  0  0  0  0  0  0  0  0
  142.1020   77.8044  218.7258 H   0  0  0  0  0  0  0  0  0  0  0  0
  142.1674   79.4946  219.4386 H   0  0  0  0  0  0  0  0  0  0  0  0
  142.8121   77.4358  220.8242 H   0  0  0  0  0  0  0  0  0  0  0  0
  142.1397   80.5637  220.5223 H   0  0  0  0  0  0  0  0  0  0  0  0
  142.2503   82.2977  222.2864 H   0  0  0  0  0  0  0  0  0  0  0  0
  142.0808   81.6518  224.7137 H   0  0  0  0  0  0  0  0  0  0  0  0
  141.6887   77.5816  223.5502 H   0  0  0  0  0  0  0  0  0  0  0  0
  139.0330   69.9969  221.9060 H   0  0  0  0  0  0  0  0  0  0  0  0
  139.2415   68.3383  223.7845 H   0  0  0  0  0  0  0  0  0  0  0  0
  139.8718   67.8621  226.0413 H   0  0  0  0  0  0  0  0  0  0  0  0
  141.4915   70.9719  228.5314 H   0  0  0  0  0  0  0  0  0  0  0  0
  141.2915   72.6157  226.6796 H   0  0  0  0  0  0  0  0  0  0  0  0
  1  2  2  0
  2  3  1  0
  3  4  1  0
  4  5  1  0
  5  6  2  0
  5  7  1  0
  7  8  1  0
  8  9  1  0
  9 10  1  0
 10 11  1  0
 11 12  1  0
 12 13  1  0
 13 14  2  0
 14 15  1  0
 15 16  2  0
 16 17  1  0
 17 18  2  0
  2 19  1  0
 19 20  2  0
 20 21  1  0
 21 22  2  0
 22 23  1  0
 23 24  2  0
 24 25  1  0
 24 26  1  0
 26 27  2  0
 27 28  1  0
 28 29  2  0
 12  7  1  0
 18 13  1  0
 29 19  1  0
 28 22  1  0
  3 30  1  0
  4 31  1  0
  4 32  1  0
  8 33  1  0
  8 34  1  0
  9 35  1  0
  9 36  1  0
 10 37  1  0
 10 38  1  0
 11 39  1  0
 11 40  1  0
 12 41  1  6
 14 42  1  0
 15 43  1  0
 16 44  1  0
 18 45  1  0
 20 46  1  0
 21 47  1  0
 23 48  1  0
 26 49  1  0
 27 50  1  0
M  END
>  <smiles>  (97) 
O=C(NCC(=O)N1CCCCC1c1cccnc1)c1ccc2cc(Cl)ccc2n1

>  <score_type>  (97) 
oracle

>  <origin>  (97) 
autodockgpu

>  <m_score__min__energy>  (97) 
-8.7100000000000009

>  <m_primary>  (97) 
energy

>  <rmsd>  (97) 
2.228343520275953

>  <m_score__min__rmsd>  (97) 
2.228343520275953

>  <meeko>  (97) 
{"free_energy": -8.57, "intermolecular_energy": -10.06, "internal_energy": -1.46, "cluster_size": 38, "cluster_id": 1, "rank_in_cluster": 14}

>  <energy>  (97) 
-7.85

>  <cluster_rmsd>  (97) 
0.55

>  <cluster>  (97) 
2

$$$$

     RDKit          3D

 50 53  0  0  0  0  0  0  0  0999 V2000
  140.5470   72.1290  220.6050 O   0  0  0  0  0  0  0  0  0  0  0  0
  140.1940   72.5620  221.7470 C   0  0  0  0  0  0  0  0  0  0  0  0
  139.8540   73.9350  221.9430 N   0  0  0  0  0  0  0  0  0  0  0  0
  139.8940   74.9000  220.8610 C   0  0  0  0  0  0  0  0  0  0  0  0
  141.0760   75.7850  220.9520 C   0  0  0  0  0  0  0  0  0  0  0  0
  141.1440   76.7060  221.8220 O   0  0  0  0  0  0  0  0  0  0  0  0
  142.1310   75.5610  220.0260 N   0  0  0  0  0  0  0  0  0  0  0  0
  143.1230   76.5790  219.7010 C   0  0  0  0  0  0  0  0  0  0  0  0
  143.2610   76.6570  218.2060 C   0  0  0  0  0  0  0  0  0  0  0  0
  142.2080   75.9280  217.4400 C   0  0  0  0  0  0  0  0  0  0  0  0
  141.9010   74.5450  217.9180 C   0  0  0  0  0  0  0  0  0  0  0  0
  142.2880   74.2790  219.3320 C   0  0  1  0  0  0  0  0  0  0  0  0
  143.6690   73.8550  219.5540 C   0  0  0  0  0  0  0  0  0  0  0  0
  144.1440   73.8250  220.8540 C   0  0  0  0  0  0  0  0  0  0  0  0
  145.4480   73.4310  221.1310 C   0  0  0  0  0  0  0  0  0  0  0  0
  146.3130   73.0580  220.1020 C   0  0  0  0  0  0  0  0  0  0  0  0
  145.8150   73.1000  218.8500 N   0  0  0  0  0  0  0  0  0  0  0  0
  144.5540   73.4790  218.5670 C   0  0  0  0  0  0  0  0  0  0  0  0
  140.1290   71.6430  222.8960 C   0  0  0  0  0  0  0  0  0  0  0  0
  139.5430   70.4040  222.7300 C   0  0  0  0  0  0  0  0  0  0  0  0
  139.4830   69.5360  223.8160 C   0  0  0  0  0  0  0  0  0  0  0  0
  140.0210   69.9610  225.0350 C   0  0  0  0  0  0  0  0  0  0  0  0
  139.9630   69.0930  226.1250 C   0  0  0  0  0  0  0  0  0  0  0  0
  140.4950   69.4990  227.3520 C   0  0  0  0  0  0  0  0  0  0  0  0
  140.4270   68.4070  228.7440 Cl  0  0  0  0  0  0  0  0  0  0  0  0
  141.0680   70.7520  227.4520 C   0  0  0  0  0  0  0  0  0  0  0  0
  141.1350   71.6260  226.3780 C   0  0  0  0  0  0  0  0  0  0  0  0
  140.6020   71.2080  225.1710 C   0  0  0  0  0  0  0  0  0  0  0  0
  140.6350   72.0080  224.0890 N   0  0  0  0  0  0  0  0  0  0  0  0
  139.5680   74.2190  222.9270 H   0  0  0  0  0  0  0  0  0  0  0  0
  139.9280   74.3592  219.9037 H   0  0  0  0  0  0  0  0  0  0  0  0
  138.9932   75.5274  220.9314 H   0  0  0  0  0  0  0  0  0  0  0  0
  142.7963   77.5531  220.0940 H   0  0  0  0  0  0  0  0  0  0  0  0
  144.0908   76.3175  220.1538 H   0  0  0  0  0  0  0  0  0  0  0  0
  143.2241   77.7169  217.9141 H   0  0  0  0  0  0  0  0  0  0  0  0
  144.2160   76.1706  217.9580 H   0  0  0  0  0  0  0  0  0  0  0  0
  141.2811   76.5180  217.4937 H   0  0  0  0  0  0  0  0  0  0  0  0
  142.6039   75.8125  216.4202 H   0  0  0  0  0  0  0  0  0  0  0  0
  140.8176   74.3810  217.8218 H   0  0  0  0  0  0  0  0  0  0  0  0
  142.4970   73.8602  217.2968 H   0  0  0  0  0  0  0  0  0  0  0  0
  141.6587   73.4485  219.6845 H   0  0  0  0  0  0  0  0  0  0  0  0
  143.4794   74.1174  221.6804 H   0  0  0  0  0  0  0  0  0  0  0  0
  145.8015   73.4131  222.1725 H   0  0  0  0  0  0  0  0  0  0  0  0
  147.3486   72.7456  220.3020 H   0  0  0  0  0  0  0  0  0  0  0  0
  144.2212   73.4887  217.5186 H   0  0  0  0  0  0  0  0  0  0  0  0
  139.1300   70.1076  221.7545 H   0  0  0  0  0  0  0  0  0  0  0  0
  139.0242   68.5411  223.7182 H   0  0  0  0  0  0  0  0  0  0  0  0
  139.5033   68.0992  226.0201 H   0  0  0  0  0  0  0  0  0  0  0  0
  141.4864   71.0678  228.4191 H   0  0  0  0  0  0  0  0  0  0  0  0
  141.5966   72.6191  226.4817 H   0  0  0  0  0  0  0  0  0  0  0  0
  1  2  2  0
  2  3  1  0
  3  4  1  0
  4  5  1  0
  5  6  2  0
  5  7  1  0
  7  8  1  0
  8  9  1  0
  9 10  1  0
 10 11  1  0
 11 12  1  0
 12 13  1  0
 13 14  2  0
 14 15  1  0
 15 16  2  0
 16 17  1  0
 17 18  2  0
  2 19  1  0
 19 20  2  0
 20 21  1  0
 21 22  2  0
 22 23  1  0
 23 24  2  0
 24 25  1  0
 24 26  1  0
 26 27  2  0
 27 28  1  0
 28 29  2  0
 12  7  1  0
 18 13  1  0
 29 19  1  0
 28 22  1  0
  3 30  1  0
  4 31  1  0
  4 32  1  0
  8 33  1  0
  8 34  1  0
  9 35  1  0
  9 36  1  0
 10 37  1  0
 10 38  1  0
 11 39  1  0
 11 40  1  0
 12 41  1  1
 14 42  1  0
 15 43  1  0
 16 44  1  0
 18 45  1  0
 20 46  1  0
 21 47  1  0
 23 48  1  0
 26 49  1  0
 27 50  1  0
M  END
>  <smiles>  (98) 
O=C(NCC(=O)N1CCCCC1c1cccnc1)c1ccc2cc(Cl)ccc2n1

>  <score_type>  (98) 
oracle

>  <origin>  (98) 
autodockgpu

>  <m_score__min__energy>  (98) 
-8.7100000000000009

>  <m_primary>  (98) 
energy

>  <rmsd>  (98) 
2.52800218836266

>  <m_score__min__rmsd>  (98) 
2.52800218836266

>  <meeko>  (98) 
{"free_energy": -8.59, "intermolecular_energy": -10.08, "internal_energy": -1.78, "cluster_size": 11, "cluster_id": 2, "rank_in_cluster": 4}

>  <energy>  (98) 
-7.71

>  <cluster_rmsd>  (98) 
1.71

>  <cluster>  (98) 
2

$$$$

     RDKit          3D

 50 53  0  0  0  0  0  0  0  0999 V2000
  138.7140   71.9730  220.9330 O   0  0  0  0  0  0  0  0  0  0  0  0
  139.0890   72.4030  222.0680 C   0  0  0  0  0  0  0  0  0  0  0  0
  139.2530   73.8000  222.3110 N   0  0  0  0  0  0  0  0  0  0  0  0
  139.0030   74.7940  221.2850 C   0  0  0  0  0  0  0  0  0  0  0  0
  138.7500   76.1330  221.8620 C   0  0  0  0  0  0  0  0  0  0  0  0
  137.7930   76.3320  222.6710 O   0  0  0  0  0  0  0  0  0  0  0  0
  139.6210   77.1870  221.4720 N   0  0  0  0  0  0  0  0  0  0  0  0
  139.1920   78.2920  220.6230 C   0  0  0  0  0  0  0  0  0  0  0  0
  140.2070   78.4840  219.5320 C   0  0  0  0  0  0  0  0  0  0  0  0
  141.2070   77.3830  219.4030 C   0  0  0  0  0  0  0  0  0  0  0  0
  141.8200   76.9150  220.6840 C   0  0  0  0  0  0  0  0  0  0  0  0
  141.0230   77.2260  221.9030 C   0  0  1  0  0  0  0  0  0  0  0  0
  141.2360   78.5460  222.4930 C   0  0  0  0  0  0  0  0  0  0  0  0
  142.3550   79.2630  222.1070 C   0  0  0  0  0  0  0  0  0  0  0  0
  142.6130   80.5240  222.6310 C   0  0  0  0  0  0  0  0  0  0  0  0
  141.7490   81.0990  223.5640 C   0  0  0  0  0  0  0  0  0  0  0  0
  140.6710   80.3700  223.9160 N   0  0  0  0  0  0  0  0  0  0  0  0
  140.4080   79.1480  223.4160 C   0  0  0  0  0  0  0  0  0  0  0  0
  139.3620   71.4550  223.1620 C   0  0  0  0  0  0  0  0  0  0  0  0
  139.0310   70.1250  222.9940 C   0  0  0  0  0  0  0  0  0  0  0  0
  139.2910   69.2300  224.0280 C   0  0  0  0  0  0  0  0  0  0  0  0
  139.8770   69.7220  225.1990 C   0  0  0  0  0  0  0  0  0  0  0  0
  140.1380   68.8280  226.2360 C   0  0  0  0  0  0  0  0  0  0  0  0
  140.7240   69.3000  227.4140 C   0  0  0  0  0  0  0  0  0  0  0  0
  141.0610   68.1750  228.7400 Cl  0  0  0  0  0  0  0  0  0  0  0  0
  141.0310   70.6420  227.5200 C   0  0  0  0  0  0  0  0  0  0  0  0
  140.7780   71.5440  226.4970 C   0  0  0  0  0  0  0  0  0  0  0  0
  140.1970   71.0600  225.3390 C   0  0  0  0  0  0  0  0  0  0  0  0
  139.9260   71.8830  224.3070 N   0  0  0  0  0  0  0  0  0  0  0  0
  139.5690   74.0800  223.2870 H   0  0  0  0  0  0  0  0  0  0  0  0
  139.8809   74.8517  220.6247 H   0  0  0  0  0  0  0  0  0  0  0  0
  138.1055   74.4888  220.7270 H   0  0  0  0  0  0  0  0  0  0  0  0
  138.2122   78.0597  220.1802 H   0  0  0  0  0  0  0  0  0  0  0  0
  139.1056   79.2116  221.2203 H   0  0  0  0  0  0  0  0  0  0  0  0
  139.6692   78.5708  218.5764 H   0  0  0  0  0  0  0  0  0  0  0  0
  140.7757   79.3880  219.7953 H   0  0  0  0  0  0  0  0  0  0  0  0
  140.7058   76.5236  218.9336 H   0  0  0  0  0  0  0  0  0  0  0  0
  142.0339   77.7953  218.8062 H   0  0  0  0  0  0  0  0  0  0  0  0
  141.9458   75.8238  220.6256 H   0  0  0  0  0  0  0  0  0  0  0  0
  142.7730   77.4543  220.7888 H   0  0  0  0  0  0  0  0  0  0  0  0
  141.3216   76.4999  222.6734 H   0  0  0  0  0  0  0  0  0  0  0  0
  143.0508   78.8282  221.3743 H   0  0  0  0  0  0  0  0  0  0  0  0
  143.5081   81.0750  222.3068 H   0  0  0  0  0  0  0  0  0  0  0  0
  141.9378   82.0954  223.9901 H   0  0  0  0  0  0  0  0  0  0  0  0
  139.5070   78.6149  223.7536 H   0  0  0  0  0  0  0  0  0  0  0  0
  138.5692   69.7782  222.0578 H   0  0  0  0  0  0  0  0  0  0  0  0
  139.0420   68.1633  223.9268 H   0  0  0  0  0  0  0  0  0  0  0  0
  139.8856   67.7628  226.1285 H   0  0  0  0  0  0  0  0  0  0  0  0
  141.4926   71.0089  228.4486 H   0  0  0  0  0  0  0  0  0  0  0  0
  141.0311   72.6092  226.6033 H   0  0  0  0  0  0  0  0  0  0  0  0
  1  2  2  0
  2  3  1  0
  3  4  1  0
  4  5  1  0
  5  6  2  0
  5  7  1  0
  7  8  1  0
  8  9  1  0
  9 10  1  0
 10 11  1  0
 11 12  1  0
 12 13  1  0
 13 14  2  0
 14 15  1  0
 15 16  2  0
 16 17  1  0
 17 18  2  0
  2 19  1  0
 19 20  2  0
 20 21  1  0
 21 22  2  0
 22 23  1  0
 23 24  2  0
 24 25  1  0
 24 26  1  0
 26 27  2  0
 27 28  1  0
 28 29  2  0
 12  7  1  0
 18 13  1  0
 29 19  1  0
 28 22  1  0
  3 30  1  0
  4 31  1  0
  4 32  1  0
  8 33  1  0
  8 34  1  0
  9 35  1  0
  9 36  1  0
 10 37  1  0
 10 38  1  0
 11 39  1  0
 11 40  1  0
 12 41  1  1
 14 42  1  0
 15 43  1  0
 16 44  1  0
 18 45  1  0
 20 46  1  0
 21 47  1  0
 23 48  1  0
 26 49  1  0
 27 50  1  0
M  END
>  <smiles>  (99) 
O=C(NCC(=O)N1CCCCC1c1cccnc1)c1ccc2cc(Cl)ccc2n1

>  <score_type>  (99) 
oracle

>  <origin>  (99) 
autodockgpu

>  <m_score__min__energy>  (99) 
-8.7100000000000009

>  <m_primary>  (99) 
energy

>  <rmsd>  (99) 
2.174749789164614

>  <m_score__min__rmsd>  (99) 
2.174749789164614

>  <meeko>  (99) 
{"free_energy": -8.42, "intermolecular_energy": -9.91, "internal_energy": -1.59, "cluster_size": 38, "cluster_id": 1, "rank_in_cluster": 23}

>  <energy>  (99) 
-7.44

>  <cluster_rmsd>  (99) 
1.32

>  <cluster>  (99) 
2

$$$$

     RDKit          3D

 50 53  0  0  0  0  0  0  0  0999 V2000
  140.4810   73.0410  221.3250 O   0  0  0  0  0  0  0  0  0  0  0  0
  139.5420   72.8560  222.1600 C   0  0  0  0  0  0  0  0  0  0  0  0
  138.3270   73.6020  222.0820 N   0  0  0  0  0  0  0  0  0  0  0  0
  138.1030   74.6020  221.0550 C   0  0  0  0  0  0  0  0  0  0  0  0
  138.0740   75.9720  221.6140 C   0  0  0  0  0  0  0  0  0  0  0  0
  137.0570   76.4100  222.2330 O   0  0  0  0  0  0  0  0  0  0  0  0
  139.2320   76.7760  221.4290 N   0  0  0  0  0  0  0  0  0  0  0  0
  139.3720   77.7120  220.3190 C   0  0  0  0  0  0  0  0  0  0  0  0
  140.7190   77.5070  219.6860 C   0  0  0  0  0  0  0  0  0  0  0  0
  141.4400   76.2760  220.1240 C   0  0  0  0  0  0  0  0  0  0  0  0
  141.4540   76.0260  221.5980 C   0  0  0  0  0  0  0  0  0  0  0  0
  140.3690   76.7140  222.3530 C   0  0  1  0  0  0  0  0  0  0  0  0
  140.6420   78.0880  222.7660 C   0  0  0  0  0  0  0  0  0  0  0  0
  139.5930   78.8440  223.2620 C   0  0  0  0  0  0  0  0  0  0  0  0
  139.7880   80.1580  223.6710 C   0  0  0  0  0  0  0  0  0  0  0  0
  141.0490   80.7500  223.5900 C   0  0  0  0  0  0  0  0  0  0  0  0
  142.0450   79.9840  223.1020 N   0  0  0  0  0  0  0  0  0  0  0  0
  141.8700   78.7100  222.7020 C   0  0  0  0  0  0  0  0  0  0  0  0
  139.6940   71.8570  223.2320 C   0  0  0  0  0  0  0  0  0  0  0  0
  139.2140   70.5780  223.0290 C   0  0  0  0  0  0  0  0  0  0  0  0
  139.3600   69.6350  224.0420 C   0  0  0  0  0  0  0  0  0  0  0  0
  139.9890   70.0280  225.2280 C   0  0  0  0  0  0  0  0  0  0  0  0
  140.1360   69.0850  226.2440 C   0  0  0  0  0  0  0  0  0  0  0  0
  140.7620   69.4570  227.4380 C   0  0  0  0  0  0  0  0  0  0  0  0
  140.9550   68.2690  228.7370 Cl  0  0  0  0  0  0  0  0  0  0  0  0
  141.2200   70.7520  227.5780 C   0  0  0  0  0  0  0  0  0  0  0  0
  141.0820   71.7020  226.5770 C   0  0  0  0  0  0  0  0  0  0  0  0
  140.4590   71.3160  225.4030 C   0  0  0  0  0  0  0  0  0  0  0  0
  140.2940   72.1890  224.3910 N   0  0  0  0  0  0  0  0  0  0  0  0
  137.5890   73.3890  222.8170 H   0  0  0  0  0  0  0  0  0  0  0  0
  138.9131   74.5377  220.3137 H   0  0  0  0  0  0  0  0  0  0  0  0
  137.1250   74.4022  220.5929 H   0  0  0  0  0  0  0  0  0  0  0  0
  138.5817   77.5272  219.5765 H   0  0  0  0  0  0  0  0  0  0  0  0
  139.2823   78.7453  220.6853 H   0  0  0  0  0  0  0  0  0  0  0  0
  140.5792   77.4513  218.5963 H   0  0  0  0  0  0  0  0  0  0  0  0
  141.3407   78.3572  220.0032 H   0  0  0  0  0  0  0  0  0  0  0  0
  140.9613   75.4126  219.6387 H   0  0  0  0  0  0  0  0  0  0  0  0
  142.4907   76.4231  219.8335 H   0  0  0  0  0  0  0  0  0  0  0  0
  141.3541   74.9431  221.7635 H   0  0  0  0  0  0  0  0  0  0  0  0
  142.4036   76.4336  221.9749 H   0  0  0  0  0  0  0  0  0  0  0  0
  140.2169   76.1463  223.2828 H   0  0  0  0  0  0  0  0  0  0  0  0
  138.5901   78.3977  223.3333 H   0  0  0  0  0  0  0  0  0  0  0  0
  138.9391   80.7375  224.0628 H   0  0  0  0  0  0  0  0  0  0  0  0
  141.2214   81.7888  223.9081 H   0  0  0  0  0  0  0  0  0  0  0  0
  142.7327   78.1494  222.3127 H   0  0  0  0  0  0  0  0  0  0  0  0
  138.7241   70.3089  222.0816 H   0  0  0  0  0  0  0  0  0  0  0  0
  138.9903   68.6070  223.9134 H   0  0  0  0  0  0  0  0  0  0  0  0
  139.7635   68.0590  226.1080 H   0  0  0  0  0  0  0  0  0  0  0  0
  141.7125   71.0409  228.5182 H   0  0  0  0  0  0  0  0  0  0  0  0
  141.4552   72.7279  226.7117 H   0  0  0  0  0  0  0  0  0  0  0  0
  1  2  2  0
  2  3  1  0
  3  4  1  0
  4  5  1  0
  5  6  2  0
  5  7  1  0
  7  8  1  0
  8  9  1  0
  9 10  1  0
 10 11  1  0
 11 12  1  0
 12 13  1  0
 13 14  2  0
 14 15  1  0
 15 16  2  0
 16 17  1  0
 17 18  2  0
  2 19  1  0
 19 20  2  0
 20 21  1  0
 21 22  2  0
 22 23  1  0
 23 24  2  0
 24 25  1  0
 24 26  1  0
 26 27  2  0
 27 28  1  0
 28 29  2  0
 12  7  1  0
 18 13  1  0
 29 19  1  0
 28 22  1  0
  3 30  1  0
  4 31  1  0
  4 32  1  0
  8 33  1  0
  8 34  1  0
  9 35  1  0
  9 36  1  0
 10 37  1  0
 10 38  1  0
 11 39  1  0
 11 40  1  0
 12 41  1  1
 14 42  1  0
 15 43  1  0
 16 44  1  0
 18 45  1  0
 20 46  1  0
 21 47  1  0
 23 48  1  0
 26 49  1  0
 27 50  1  0
M  END
>  <smiles>  (100) 
O=C(NCC(=O)N1CCCCC1c1cccnc1)c1ccc2cc(Cl)ccc2n1

>  <score_type>  (100) 
oracle

>  <origin>  (100) 
autodockgpu

>  <m_score__min__energy>  (100) 
-8.7100000000000009

>  <m_primary>  (100) 
energy

>  <rmsd>  (100) 
2.28785573332188

>  <m_score__min__rmsd>  (100) 
2.28785573332188

>  <meeko>  (100) 
{"free_energy": -8.04, "intermolecular_energy": -9.53, "internal_energy": -1.58, "cluster_size": 38, "cluster_id": 1, "rank_in_cluster": 34}

>  <energy>  (100) 
-6.65

>  <cluster_rmsd>  (100) 
0.0

>  <cluster>  (100) 
3

$$$$
