
     RDKit          3D

 47 50  0  0  0  0  0  0  0  0999 V2000
  139.6110   71.0430  221.0730 O   0  0  0  0  0  0  0  0  0  0  0  0
  139.6270   71.5700  222.2110 C   0  0  0  0  0  0  0  0  0  0  0  0
  139.6060   72.9890  222.3690 N   0  0  0  0  0  0  0  0  0  0  0  0
  139.5650   73.8610  221.2130 C   0  0  0  0  0  0  0  0  0  0  0  0
  139.9680   75.2390  221.5450 C   0  0  0  0  0  0  0  0  0  0  0  0
  139.8430   75.7380  222.6960 O   0  0  0  0  0  0  0  0  0  0  0  0
  140.5250   76.0330  220.5040 N   0  0  0  0  0  0  0  0  0  0  0  0
  139.9560   76.4020  219.2200 C   0  0  0  0  0  0  0  0  0  0  0  0
  141.0840   76.0840  218.2820 C   0  0  0  0  0  0  0  0  0  0  0  0
  142.3330   76.2070  219.1440 C   0  0  0  0  0  0  0  0  0  0  0  0
  141.8540   76.6820  220.4950 C   0  0  1  0  0  0  0  0  0  0  0  0
  141.7420   78.1260  220.6520 C   0  0  0  0  0  0  0  0  0  0  0  0
  141.5290   78.6240  221.9390 C   0  0  0  0  0  0  0  0  0  0  0  0
  141.4170   79.9580  222.1590 N   0  0  0  0  0  0  0  0  0  0  0  0
  141.4990   80.8770  221.1890 C   0  0  0  0  0  0  0  0  0  0  0  0
  141.3490   82.6000  221.5100 Cl  0  0  0  0  0  0  0  0  0  0  0  0
  141.7120   80.4230  219.8910 C   0  0  0  0  0  0  0  0  0  0  0  0
  141.8290   81.5920  218.5690 Cl  0  0  0  0  0  0  0  0  0  0  0  0
  141.8280   79.0650  219.6530 C   0  0  0  0  0  0  0  0  0  0  0  0
  139.6680   70.7530  223.4280 C   0  0  0  0  0  0  0  0  0  0  0  0
  139.1800   69.4660  223.4060 C   0  0  0  0  0  0  0  0  0  0  0  0
  139.2130   68.6740  224.5590 C   0  0  0  0  0  0  0  0  0  0  0  0
  139.7350   69.1770  225.7320 C   0  0  0  0  0  0  0  0  0  0  0  0
  139.7840   68.4310  226.8880 C   0  0  0  0  0  0  0  0  0  0  0  0
  140.3260   68.9940  228.0470 C   0  0  0  0  0  0  0  0  0  0  0  0
  140.3770   68.2530  229.2000 F   0  0  0  0  0  0  0  0  0  0  0  0
  140.8100   70.2950  228.0430 C   0  0  0  0  0  0  0  0  0  0  0  0
  140.7490   71.0250  226.8700 C   0  0  0  0  0  0  0  0  0  0  0  0
  140.2190   70.4850  225.7120 C   0  0  0  0  0  0  0  0  0  0  0  0
  140.1770   71.2290  224.5900 N   0  0  0  0  0  0  0  0  0  0  0  0
  139.6200   73.3880  223.3470 H   0  0  0  0  0  0  0  0  0  0  0  0
  140.2481   73.4664  220.4464 H   0  0  0  0  0  0  0  0  0  0  0  0
  138.5283   73.8897  220.8463 H   0  0  0  0  0  0  0  0  0  0  0  0
  139.0629   75.8023  218.9904 H   0  0  0  0  0  0  0  0  0  0  0  0
  139.6138   77.4461  219.1677 H   0  0  0  0  0  0  0  0  0  0  0  0
  140.9840   75.0636  217.8835 H   0  0  0  0  0  0  0  0  0  0  0  0
  141.1072   76.7529  217.4090 H   0  0  0  0  0  0  0  0  0  0  0  0
  142.8328   75.2314  219.2359 H   0  0  0  0  0  0  0  0  0  0  0  0
  143.0618   76.9038  218.7044 H   0  0  0  0  0  0  0  0  0  0  0  0
  142.5445   76.4325  221.3141 H   0  0  0  0  0  0  0  0  0  0  0  0
  141.4510   77.9257  222.7854 H   0  0  0  0  0  0  0  0  0  0  0  0
  141.9961   78.7231  218.6211 H   0  0  0  0  0  0  0  0  0  0  0  0
  138.7609   69.0571  222.4748 H   0  0  0  0  0  0  0  0  0  0  0  0
  138.8212   67.6466  224.5296 H   0  0  0  0  0  0  0  0  0  0  0  0
  139.3998   67.4003  226.8995 H   0  0  0  0  0  0  0  0  0  0  0  0
  141.2344   70.7373  228.9564 H   0  0  0  0  0  0  0  0  0  0  0  0
  141.1300   72.0568  226.8576 H   0  0  0  0  0  0  0  0  0  0  0  0
  1  2  2  0
  2  3  1  0
  3  4  1  0
  4  5  1  0
  5  6  2  0
  5  7  1  0
  7  8  1  0
  8  9  1  0
  9 10  1  0
 10 11  1  0
 11 12  1  0
 12 13  2  0
 13 14  1  0
 14 15  2  0
 15 16  1  0
 15 17  1  0
 17 18  1  0
 17 19  2  0
  2 20  1  0
 20 21  2  0
 21 22  1  0
 22 23  2  0
 23 24  1  0
 24 25  2  0
 25 26  1  0
 25 27  1  0
 27 28  2  0
 28 29  1  0
 29 30  2  0
 11  7  1  0
 19 12  1  0
 30 20  1  0
 29 23  1  0
  3 31  1  0
  4 32  1  0
  4 33  1  0
  8 34  1  0
  8 35  1  0
  9 36  1  0
  9 37  1  0
 10 38  1  0
 10 39  1  0
 11 40  1  1
 13 41  1  0
 19 42  1  0
 21 43  1  0
 22 44  1  0
 24 45  1  0
 27 46  1  0
 28 47  1  0
M  END
>  <smiles>  (1) 
O=C(NCC(=O)N1CCC[C@H]1c1cnc(Cl)c(Cl)c1)c1ccc2cc(F)ccc2n1

>  <score_type>  (1) 
oracle

>  <origin>  (1) 
autodockgpu

>  <m_score__min__energy>  (1) 
-8.9700000000000006

>  <m_primary>  (1) 
energy

>  <rmsd>  (1) 
1.29338608728554

>  <m_score__min__rmsd>  (1) 
1.29338608728554

>  <meeko>  (1) 
{"free_energy": -7.96, "intermolecular_energy": -9.45, "internal_energy": -1.63, "cluster_size": 17, "cluster_id": 1, "rank_in_cluster": 15}

>  <energy>  (1) 
-8.97

>  <cluster_rmsd>  (1) 
0.0

>  <cluster>  (1) 
1

$$$$

     RDKit          3D

 47 50  0  0  0  0  0  0  0  0999 V2000
  140.5300   72.9220  222.5030 O   0  0  0  0  0  0  0  0  0  0  0  0
  139.5320   72.2920  222.9270 C   0  0  0  0  0  0  0  0  0  0  0  0
  138.2240   72.5470  222.4180 N   0  0  0  0  0  0  0  0  0  0  0  0
  138.0120   73.5450  221.3890 C   0  0  0  0  0  0  0  0  0  0  0  0
  137.8130   74.8900  221.9570 C   0  0  0  0  0  0  0  0  0  0  0  0
  138.7310   75.7530  222.0290 O   0  0  0  0  0  0  0  0  0  0  0  0
  136.5170   75.2160  222.4440 N   0  0  0  0  0  0  0  0  0  0  0  0
  135.2410   75.2050  221.7520 C   0  0  0  0  0  0  0  0  0  0  0  0
  134.6760   76.5440  222.1300 C   0  0  0  0  0  0  0  0  0  0  0  0
  135.3390   76.8680  223.4620 C   0  0  0  0  0  0  0  0  0  0  0  0
  136.1670   75.6540  223.8140 C   0  0  1  0  0  0  0  0  0  0  0  0
  135.4690   74.6060  224.5460 C   0  0  0  0  0  0  0  0  0  0  0  0
  134.6680   74.9910  225.6230 C   0  0  0  0  0  0  0  0  0  0  0  0
  133.9870   74.0680  226.3480 N   0  0  0  0  0  0  0  0  0  0  0  0
  134.0280   72.7540  226.0980 C   0  0  0  0  0  0  0  0  0  0  0  0
  133.1320   71.5840  227.0590 Cl  0  0  0  0  0  0  0  0  0  0  0  0
  134.8150   72.3270  225.0330 C   0  0  0  0  0  0  0  0  0  0  0  0
  134.9070   70.6020  224.6540 Cl  0  0  0  0  0  0  0  0  0  0  0  0
  135.5140   73.2580  224.2840 C   0  0  0  0  0  0  0  0  0  0  0  0
  139.6660   71.2660  223.9670 C   0  0  0  0  0  0  0  0  0  0  0  0
  139.2040   69.9890  223.7340 C   0  0  0  0  0  0  0  0  0  0  0  0
  139.3260   69.0000  224.7150 C   0  0  0  0  0  0  0  0  0  0  0  0
  139.9100   69.2950  225.9290 C   0  0  0  0  0  0  0  0  0  0  0  0
  140.0470   68.3500  226.9220 C   0  0  0  0  0  0  0  0  0  0  0  0
  140.6490   68.7060  228.1320 C   0  0  0  0  0  0  0  0  0  0  0  0
  140.7880   67.7680  229.1220 F   0  0  0  0  0  0  0  0  0  0  0  0
  141.1060   70.0000  228.3410 C   0  0  0  0  0  0  0  0  0  0  0  0
  140.9560   70.9320  227.3300 C   0  0  0  0  0  0  0  0  0  0  0  0
  140.3650   70.5980  226.1250 C   0  0  0  0  0  0  0  0  0  0  0  0
  140.2380   71.5340  225.1660 N   0  0  0  0  0  0  0  0  0  0  0  0
  137.4130   71.9910  222.8060 H   0  0  0  0  0  0  0  0  0  0  0  0
  138.8907   73.5653  220.7276 H   0  0  0  0  0  0  0  0  0  0  0  0
  137.1022   73.2726  220.8339 H   0  0  0  0  0  0  0  0  0  0  0  0
  135.3762   75.1199  220.6637 H   0  0  0  0  0  0  0  0  0  0  0  0
  134.5950   74.3564  222.0214 H   0  0  0  0  0  0  0  0  0  0  0  0
  134.9293   77.3017  221.3738 H   0  0  0  0  0  0  0  0  0  0  0  0
  133.5781   76.5336  222.1979 H   0  0  0  0  0  0  0  0  0  0  0  0
  135.9818   77.7553  223.3644 H   0  0  0  0  0  0  0  0  0  0  0  0
  134.5955   77.0916  224.2413 H   0  0  0  0  0  0  0  0  0  0  0  0
  136.9962   75.8763  224.5017 H   0  0  0  0  0  0  0  0  0  0  0  0
  134.5880   76.0558  225.8870 H   0  0  0  0  0  0  0  0  0  0  0  0
  136.1307   72.9041  223.4447 H   0  0  0  0  0  0  0  0  0  0  0  0
  138.7356   69.7456  222.7689 H   0  0  0  0  0  0  0  0  0  0  0  0
  138.9550   67.9834  224.5177 H   0  0  0  0  0  0  0  0  0  0  0  0
  139.6854   67.3233  226.7638 H   0  0  0  0  0  0  0  0  0  0  0  0
  141.5792   70.2793  229.2939 H   0  0  0  0  0  0  0  0  0  0  0  0
  141.3141   71.9601  227.4876 H   0  0  0  0  0  0  0  0  0  0  0  0
  1  2  2  0
  2  3  1  0
  3  4  1  0
  4  5  1  0
  5  6  2  0
  5  7  1  0
  7  8  1  0
  8  9  1  0
  9 10  1  0
 10 11  1  0
 11 12  1  0
 12 13  2  0
 13 14  1  0
 14 15  2  0
 15 16  1  0
 15 17  1  0
 17 18  1  0
 17 19  2  0
  2 20  1  0
 20 21  2  0
 21 22  1  0
 22 23  2  0
 23 24  1  0
 24 25  2  0
 25 26  1  0
 25 27  1  0
 27 28  2  0
 28 29  1  0
 29 30  2  0
 11  7  1  0
 19 12  1  0
 30 20  1  0
 29 23  1  0
  3 31  1  0
  4 32  1  0
  4 33  1  0
  8 34  1  0
  8 35  1  0
  9 36  1  0
  9 37  1  0
 10 38  1  0
 10 39  1  0
 11 40  1  1
 13 41  1  0
 19 42  1  0
 21 43  1  0
 22 44  1  0
 24 45  1  0
 27 46  1  0
 28 47  1  0
M  END
>  <smiles>  (2) 
O=C(NCC(=O)N1CCC[C@H]1c1cnc(Cl)c(Cl)c1)c1ccc2cc(F)ccc2n1

>  <score_type>  (2) 
oracle

>  <origin>  (2) 
autodockgpu

>  <m_score__min__energy>  (2) 
-8.9700000000000006

>  <m_primary>  (2) 
energy

>  <rmsd>  (2) 
3.8320549619411897

>  <m_score__min__rmsd>  (2) 
3.8320549619411897

>  <meeko>  (2) 
{"free_energy": -8.02, "intermolecular_energy": -9.51, "internal_energy": -1.67, "cluster_size": 12, "cluster_id": 7, "rank_in_cluster": 1}

>  <energy>  (2) 
-8.51

>  <cluster_rmsd>  (2) 
0.77

>  <cluster>  (2) 
1

$$$$

     RDKit          3D

 47 50  0  0  0  0  0  0  0  0999 V2000
  133.5880   69.3000  226.4920 O   0  0  0  0  0  0  0  0  0  0  0  0
  133.8580   70.3600  225.8780 C   0  0  0  0  0  0  0  0  0  0  0  0
  134.6610   70.3470  224.6980 N   0  0  0  0  0  0  0  0  0  0  0  0
  135.1870   69.1030  224.1750 C   0  0  0  0  0  0  0  0  0  0  0  0
  136.1120   69.3240  223.0490 C   0  0  0  0  0  0  0  0  0  0  0  0
  135.8890   68.9070  221.8790 O   0  0  0  0  0  0  0  0  0  0  0  0
  137.3110   70.0430  223.3110 N   0  0  0  0  0  0  0  0  0  0  0  0
  137.4890   71.4310  223.6980 C   0  0  0  0  0  0  0  0  0  0  0  0
  138.5550   71.8820  222.7420 C   0  0  0  0  0  0  0  0  0  0  0  0
  139.3090   70.6060  222.3950 C   0  0  0  0  0  0  0  0  0  0  0  0
  138.6930   69.5200  223.2460 C   0  0  1  0  0  0  0  0  0  0  0  0
  139.2660   69.3610  224.5760 C   0  0  0  0  0  0  0  0  0  0  0  0
  139.2730   68.0790  225.1290 C   0  0  0  0  0  0  0  0  0  0  0  0
  139.7920   67.8580  226.3630 N   0  0  0  0  0  0  0  0  0  0  0  0
  140.3230   68.8210  227.1260 C   0  0  0  0  0  0  0  0  0  0  0  0
  140.9880   68.4980  228.7220 Cl  0  0  0  0  0  0  0  0  0  0  0  0
  140.3360   70.1130  226.6120 C   0  0  0  0  0  0  0  0  0  0  0  0
  141.0250   71.4270  227.5750 Cl  0  0  0  0  0  0  0  0  0  0  0  0
  139.8090   70.3540  225.3540 C   0  0  0  0  0  0  0  0  0  0  0  0
  133.3610   71.6580  226.3460 C   0  0  0  0  0  0  0  0  0  0  0  0
  132.2330   71.7160  227.1340 C   0  0  0  0  0  0  0  0  0  0  0  0
  131.7480   72.9470  227.5890 C   0  0  0  0  0  0  0  0  0  0  0  0
  132.3950   74.1160  227.2510 C   0  0  0  0  0  0  0  0  0  0  0  0
  131.9490   75.3470  227.6770 C   0  0  0  0  0  0  0  0  0  0  0  0
  132.6470   76.4990  227.3040 C   0  0  0  0  0  0  0  0  0  0  0  0
  132.2060   77.7260  227.7260 F   0  0  0  0  0  0  0  0  0  0  0  0
  133.7810   76.4120  226.5070 C   0  0  0  0  0  0  0  0  0  0  0  0
  134.2100   75.1650  226.0910 C   0  0  0  0  0  0  0  0  0  0  0  0
  133.5340   74.0130  226.4520 C   0  0  0  0  0  0  0  0  0  0  0  0
  133.9830   72.8180  226.0260 N   0  0  0  0  0  0  0  0  0  0  0  0
  134.8620   71.2650  224.2150 H   0  0  0  0  0  0  0  0  0  0  0  0
  135.7250   68.5792  224.9789 H   0  0  0  0  0  0  0  0  0  0  0  0
  134.3406   68.5047  223.8067 H   0  0  0  0  0  0  0  0  0  0  0  0
  136.5611   72.0064  223.5638 H   0  0  0  0  0  0  0  0  0  0  0  0
  137.7534   71.5678  224.7569 H   0  0  0  0  0  0  0  0  0  0  0  0
  138.1080   72.3283  221.8414 H   0  0  0  0  0  0  0  0  0  0  0  0
  139.2091   72.6539  223.1736 H   0  0  0  0  0  0  0  0  0  0  0  0
  139.1908   70.3694  221.3273 H   0  0  0  0  0  0  0  0  0  0  0  0
  140.3874   70.7080  222.5866 H   0  0  0  0  0  0  0  0  0  0  0  0
  138.8328   68.5100  222.8332 H   0  0  0  0  0  0  0  0  0  0  0  0
  138.8528   67.2383  224.5575 H   0  0  0  0  0  0  0  0  0  0  0  0
  139.8261   71.3818  224.9624 H   0  0  0  0  0  0  0  0  0  0  0  0
  131.7097   70.7880  227.4076 H   0  0  0  0  0  0  0  0  0  0  0  0
  130.8469   72.9819  228.2189 H   0  0  0  0  0  0  0  0  0  0  0  0
  131.0500   75.4232  228.3062 H   0  0  0  0  0  0  0  0  0  0  0  0
  134.3284   77.3193  226.2118 H   0  0  0  0  0  0  0  0  0  0  0  0
  135.1075   75.0872  225.4598 H   0  0  0  0  0  0  0  0  0  0  0  0
  1  2  2  0
  2  3  1  0
  3  4  1  0
  4  5  1  0
  5  6  2  0
  5  7  1  0
  7  8  1  0
  8  9  1  0
  9 10  1  0
 10 11  1  0
 11 12  1  0
 12 13  2  0
 13 14  1  0
 14 15  2  0
 15 16  1  0
 15 17  1  0
 17 18  1  0
 17 19  2  0
  2 20  1  0
 20 21  2  0
 21 22  1  0
 22 23  2  0
 23 24  1  0
 24 25  2  0
 25 26  1  0
 25 27  1  0
 27 28  2  0
 28 29  1  0
 29 30  2  0
 11  7  1  0
 19 12  1  0
 30 20  1  0
 29 23  1  0
  3 31  1  0
  4 32  1  0
  4 33  1  0
  8 34  1  0
  8 35  1  0
  9 36  1  0
  9 37  1  0
 10 38  1  0
 10 39  1  0
 11 40  1  6
 13 41  1  0
 19 42  1  0
 21 43  1  0
 22 44  1  0
 24 45  1  0
 27 46  1  0
 28 47  1  0
M  END
>  <smiles>  (3) 
O=C(NCC(=O)N1CCC[C@H]1c1cnc(Cl)c(Cl)c1)c1ccc2cc(F)ccc2n1

>  <score_type>  (3) 
oracle

>  <origin>  (3) 
autodockgpu

>  <m_score__min__energy>  (3) 
-8.9700000000000006

>  <m_primary>  (3) 
energy

>  <rmsd>  (3) 
8.13637956729712

>  <m_score__min__rmsd>  (3) 
8.13637956729712

>  <meeko>  (3) 
{"free_energy": -8.38, "intermolecular_energy": -9.87, "internal_energy": -1.44, "cluster_size": 5, "cluster_id": 5, "rank_in_cluster": 2}

>  <energy>  (3) 
-8.4

>  <cluster_rmsd>  (3) 
1.62

>  <cluster>  (3) 
1

$$$$

     RDKit          3D

 47 50  0  0  0  0  0  0  0  0999 V2000
  139.3060   71.0680  221.3870 O   0  0  0  0  0  0  0  0  0  0  0  0
  138.8370   71.4760  222.4770 C   0  0  0  0  0  0  0  0  0  0  0  0
  137.7270   72.3710  222.5160 N   0  0  0  0  0  0  0  0  0  0  0  0
  137.1060   72.8330  221.2920 C   0  0  0  0  0  0  0  0  0  0  0  0
  137.2580   74.2880  221.1100 C   0  0  0  0  0  0  0  0  0  0  0  0
  136.2800   75.0800  221.0220 O   0  0  0  0  0  0  0  0  0  0  0  0
  138.5800   74.8080  221.0310 N   0  0  0  0  0  0  0  0  0  0  0  0
  139.3290   75.2510  219.8690 C   0  0  0  0  0  0  0  0  0  0  0  0
  140.6410   74.5470  220.0640 C   0  0  0  0  0  0  0  0  0  0  0  0
  140.7340   74.3400  221.5690 C   0  0  0  0  0  0  0  0  0  0  0  0
  139.5190   75.0230  222.1530 C   0  0  1  0  0  0  0  0  0  0  0  0
  139.6760   76.4390  222.4540 C   0  0  0  0  0  0  0  0  0  0  0  0
  138.5220   77.1740  222.7330 C   0  0  0  0  0  0  0  0  0  0  0  0
  138.5950   78.4980  223.0230 N   0  0  0  0  0  0  0  0  0  0  0  0
  139.7420   79.1850  223.0630 C   0  0  0  0  0  0  0  0  0  0  0  0
  139.7990   80.9020  223.4430 Cl  0  0  0  0  0  0  0  0  0  0  0  0
  140.9160   78.4900  222.7910 C   0  0  0  0  0  0  0  0  0  0  0  0
  142.4630   79.3450  222.8290 Cl  0  0  0  0  0  0  0  0  0  0  0  0
  140.8570   77.1390  222.4940 C   0  0  0  0  0  0  0  0  0  0  0  0
  139.4110   71.0510  223.7590 C   0  0  0  0  0  0  0  0  0  0  0  0
  140.3040   71.8690  224.4140 C   0  0  0  0  0  0  0  0  0  0  0  0
  140.8600   71.4790  225.6370 C   0  0  0  0  0  0  0  0  0  0  0  0
  140.5190   70.2670  226.1980 C   0  0  0  0  0  0  0  0  0  0  0  0
  141.0440   69.8450  227.4000 C   0  0  0  0  0  0  0  0  0  0  0  0
  140.6610   68.6060  227.9210 C   0  0  0  0  0  0  0  0  0  0  0  0
  141.1810   68.1830  229.1170 F   0  0  0  0  0  0  0  0  0  0  0  0
  139.7590   67.8000  227.2390 C   0  0  0  0  0  0  0  0  0  0  0  0
  139.2450   68.2440  226.0350 C   0  0  0  0  0  0  0  0  0  0  0  0
  139.6110   69.4680  225.5030 C   0  0  0  0  0  0  0  0  0  0  0  0
  139.0890   69.8650  224.3280 N   0  0  0  0  0  0  0  0  0  0  0  0
  137.3660   72.6870  223.4580 H   0  0  0  0  0  0  0  0  0  0  0  0
  137.5739   72.3179  220.4401 H   0  0  0  0  0  0  0  0  0  0  0  0
  136.0307   72.6087  221.3512 H   0  0  0  0  0  0  0  0  0  0  0  0
  138.8410   74.9375  218.9343 H   0  0  0  0  0  0  0  0  0  0  0  0
  139.4176   76.3443  219.7858 H   0  0  0  0  0  0  0  0  0  0  0  0
  140.6480   73.5818  219.5363 H   0  0  0  0  0  0  0  0  0  0  0  0
  141.4903   75.1207  219.6645 H   0  0  0  0  0  0  0  0  0  0  0  0
  140.7231   73.2667  221.8097 H   0  0  0  0  0  0  0  0  0  0  0  0
  141.6675   74.7537  221.9782 H   0  0  0  0  0  0  0  0  0  0  0  0
  139.2284   74.6293  223.1381 H   0  0  0  0  0  0  0  0  0  0  0  0
  137.5422   76.6742  222.7176 H   0  0  0  0  0  0  0  0  0  0  0  0
  141.7945   76.6043  222.2813 H   0  0  0  0  0  0  0  0  0  0  0  0
  140.5825   72.8371  223.9721 H   0  0  0  0  0  0  0  0  0  0  0  0
  141.5712   72.1413  226.1523 H   0  0  0  0  0  0  0  0  0  0  0  0
  141.7591   70.4784  227.9453 H   0  0  0  0  0  0  0  0  0  0  0  0
  139.4586   66.8248  227.6498 H   0  0  0  0  0  0  0  0  0  0  0  0
  138.5302   67.6113  225.4885 H   0  0  0  0  0  0  0  0  0  0  0  0
  1  2  2  0
  2  3  1  0
  3  4  1  0
  4  5  1  0
  5  6  2  0
  5  7  1  0
  7  8  1  0
  8  9  1  0
  9 10  1  0
 10 11  1  0
 11 12  1  0
 12 13  2  0
 13 14  1  0
 14 15  2  0
 15 16  1  0
 15 17  1  0
 17 18  1  0
 17 19  2  0
  2 20  1  0
 20 21  2  0
 21 22  1  0
 22 23  2  0
 23 24  1  0
 24 25  2  0
 25 26  1  0
 25 27  1  0
 27 28  2  0
 28 29  1  0
 29 30  2  0
 11  7  1  0
 19 12  1  0
 30 20  1  0
 29 23  1  0
  3 31  1  0
  4 32  1  0
  4 33  1  0
  8 34  1  0
  8 35  1  0
  9 36  1  0
  9 37  1  0
 10 38  1  0
 10 39  1  0
 11 40  1  1
 13 41  1  0
 19 42  1  0
 21 43  1  0
 22 44  1  0
 24 45  1  0
 27 46  1  0
 28 47  1  0
M  END
>  <smiles>  (4) 
O=C(NCC(=O)N1CCC[C@H]1c1cnc(Cl)c(Cl)c1)c1ccc2cc(F)ccc2n1

>  <score_type>  (4) 
oracle

>  <origin>  (4) 
autodockgpu

>  <m_score__min__energy>  (4) 
-8.9700000000000006

>  <m_primary>  (4) 
energy

>  <rmsd>  (4) 
3.06396017230034

>  <m_score__min__rmsd>  (4) 
3.06396017230034

>  <meeko>  (4) 
{"free_energy": -7.96, "intermolecular_energy": -9.45, "internal_energy": -1.65, "cluster_size": 17, "cluster_id": 1, "rank_in_cluster": 16}

>  <energy>  (4) 
-8.37

>  <cluster_rmsd>  (4) 
1.61

>  <cluster>  (4) 
1

$$$$

     RDKit          3D

 47 50  0  0  0  0  0  0  0  0999 V2000
  140.2300   74.1690  220.0790 O   0  0  0  0  0  0  0  0  0  0  0  0
  139.9680   74.8330  221.1110 C   0  0  0  0  0  0  0  0  0  0  0  0
  139.1110   74.3140  222.1270 N   0  0  0  0  0  0  0  0  0  0  0  0
  138.5200   72.9980  221.9950 C   0  0  0  0  0  0  0  0  0  0  0  0
  139.5320   71.9290  222.0530 C   0  0  0  0  0  0  0  0  0  0  0  0
  140.7230   72.0830  221.6680 O   0  0  0  0  0  0  0  0  0  0  0  0
  139.1300   70.6660  222.5700 N   0  0  0  0  0  0  0  0  0  0  0  0
  139.5360   69.3310  222.1680 C   0  0  0  0  0  0  0  0  0  0  0  0
  138.2130   68.6320  222.0460 C   0  0  0  0  0  0  0  0  0  0  0  0
  137.2980   69.3950  222.9940 C   0  0  0  0  0  0  0  0  0  0  0  0
  138.1740   70.4210  223.6730 C   0  0  1  0  0  0  0  0  0  0  0  0
  138.8560   69.9680  224.8780 C   0  0  0  0  0  0  0  0  0  0  0  0
  138.7830   68.6100  225.1930 C   0  0  0  0  0  0  0  0  0  0  0  0
  139.3960   68.1190  226.2990 N   0  0  0  0  0  0  0  0  0  0  0  0
  140.0980   68.8740  227.1520 C   0  0  0  0  0  0  0  0  0  0  0  0
  140.8810   68.2030  228.5780 Cl  0  0  0  0  0  0  0  0  0  0  0  0
  140.1960   70.2330  226.8760 C   0  0  0  0  0  0  0  0  0  0  0  0
  141.1120   71.2800  227.9680 Cl  0  0  0  0  0  0  0  0  0  0  0  0
  139.5760   70.7480  225.7510 C   0  0  0  0  0  0  0  0  0  0  0  0
  140.5290   76.1730  221.3160 C   0  0  0  0  0  0  0  0  0  0  0  0
  141.5100   76.6410  220.4710 C   0  0  0  0  0  0  0  0  0  0  0  0
  142.0550   77.9160  220.6530 C   0  0  0  0  0  0  0  0  0  0  0  0
  141.6140   78.7180  221.6850 C   0  0  0  0  0  0  0  0  0  0  0  0
  142.1250   79.9790  221.8990 C   0  0  0  0  0  0  0  0  0  0  0  0
  141.6380   80.7480  222.9600 C   0  0  0  0  0  0  0  0  0  0  0  0
  142.1440   82.0030  223.1760 F   0  0  0  0  0  0  0  0  0  0  0  0
  140.6480   80.2510  223.7970 C   0  0  0  0  0  0  0  0  0  0  0  0
  140.1510   78.9820  223.5630 C   0  0  0  0  0  0  0  0  0  0  0  0
  140.6180   78.2070  222.5170 C   0  0  0  0  0  0  0  0  0  0  0  0
  140.1090   76.9770  222.3220 N   0  0  0  0  0  0  0  0  0  0  0  0
  138.9190   74.9100  222.9780 H   0  0  0  0  0  0  0  0  0  0  0  0
  137.7991   72.8490  222.8124 H   0  0  0  0  0  0  0  0  0  0  0  0
  138.0262   72.9448  221.0135 H   0  0  0  0  0  0  0  0  0  0  0  0
  140.0706   69.3473  221.2068 H   0  0  0  0  0  0  0  0  0  0  0  0
  140.2328   68.8472  222.8683 H   0  0  0  0  0  0  0  0  0  0  0  0
  137.8372   68.6858  221.0136 H   0  0  0  0  0  0  0  0  0  0  0  0
  138.2776   67.5621  222.2932 H   0  0  0  0  0  0  0  0  0  0  0  0
  136.4920   69.8904  222.4328 H   0  0  0  0  0  0  0  0  0  0  0  0
  136.8197   68.7243  223.7230 H   0  0  0  0  0  0  0  0  0  0  0  0
  137.6140   71.2858  224.0585 H   0  0  0  0  0  0  0  0  0  0  0  0
  138.2214   67.9295  224.5361 H   0  0  0  0  0  0  0  0  0  0  0  0
  139.6630   71.8255  225.5472 H   0  0  0  0  0  0  0  0  0  0  0  0
  141.8679   76.0071  219.6463 H   0  0  0  0  0  0  0  0  0  0  0  0
  142.8376   78.2803  219.9712 H   0  0  0  0  0  0  0  0  0  0  0  0
  142.9103   80.3779  221.2401 H   0  0  0  0  0  0  0  0  0  0  0  0
  140.2655   80.8564  224.6320 H   0  0  0  0  0  0  0  0  0  0  0  0
  139.3677   78.5804  224.2227 H   0  0  0  0  0  0  0  0  0  0  0  0
  1  2  2  0
  2  3  1  0
  3  4  1  0
  4  5  1  0
  5  6  2  0
  5  7  1  0
  7  8  1  0
  8  9  1  0
  9 10  1  0
 10 11  1  0
 11 12  1  0
 12 13  2  0
 13 14  1  0
 14 15  2  0
 15 16  1  0
 15 17  1  0
 17 18  1  0
 17 19  2  0
  2 20  1  0
 20 21  2  0
 21 22  1  0
 22 23  2  0
 23 24  1  0
 24 25  2  0
 25 26  1  0
 25 27  1  0
 27 28  2  0
 28 29  1  0
 29 30  2  0
 11  7  1  0
 19 12  1  0
 30 20  1  0
 29 23  1  0
  3 31  1  0
  4 32  1  0
  4 33  1  0
  8 34  1  0
  8 35  1  0
  9 36  1  0
  9 37  1  0
 10 38  1  0
 10 39  1  0
 11 40  1  1
 13 41  1  0
 19 42  1  0
 21 43  1  0
 22 44  1  0
 24 45  1  0
 27 46  1  0
 28 47  1  0
M  END
>  <smiles>  (5) 
O=C(NCC(=O)N1CCC[C@H]1c1cnc(Cl)c(Cl)c1)c1ccc2cc(F)ccc2n1

>  <score_type>  (5) 
oracle

>  <origin>  (5) 
autodockgpu

>  <m_score__min__energy>  (5) 
-8.9700000000000006

>  <m_primary>  (5) 
energy

>  <rmsd>  (5) 
8.427861023254254

>  <m_score__min__rmsd>  (5) 
8.427861023254254

>  <meeko>  (5) 
{"free_energy": -8.41, "intermolecular_energy": -9.9, "internal_energy": -1.34, "cluster_size": 6, "cluster_id": 2, "rank_in_cluster": 4}

>  <energy>  (5) 
-8.36

>  <cluster_rmsd>  (5) 
1.34

>  <cluster>  (5) 
1

$$$$

     RDKit          3D

 47 50  0  0  0  0  0  0  0  0999 V2000
  140.3890   75.2870  220.5200 O   0  0  0  0  0  0  0  0  0  0  0  0
  139.8540   75.6480  221.5960 C   0  0  0  0  0  0  0  0  0  0  0  0
  138.9500   74.7930  222.2950 N   0  0  0  0  0  0  0  0  0  0  0  0
  138.6260   73.4790  221.7790 C   0  0  0  0  0  0  0  0  0  0  0  0
  139.6960   72.5010  222.0460 C   0  0  0  0  0  0  0  0  0  0  0  0
  140.9230   72.7750  221.9490 O   0  0  0  0  0  0  0  0  0  0  0  0
  139.3080   71.1870  222.4290 N   0  0  0  0  0  0  0  0  0  0  0  0
  139.7960   69.9050  221.9540 C   0  0  0  0  0  0  0  0  0  0  0  0
  138.5150   69.1730  221.6770 C   0  0  0  0  0  0  0  0  0  0  0  0
  137.5040   69.8230  222.6110 C   0  0  0  0  0  0  0  0  0  0  0  0
  138.2860   70.8190  223.4340 C   0  0  1  0  0  0  0  0  0  0  0  0
  138.8960   70.2930  224.6470 C   0  0  0  0  0  0  0  0  0  0  0  0
  138.7510   68.9290  224.9060 C   0  0  0  0  0  0  0  0  0  0  0  0
  139.2960   68.3700  226.0170 N   0  0  0  0  0  0  0  0  0  0  0  0
  139.9930   69.0610  226.9260 C   0  0  0  0  0  0  0  0  0  0  0  0
  140.6850   68.3050  228.3560 Cl  0  0  0  0  0  0  0  0  0  0  0  0
  140.1610   70.4250  226.7060 C   0  0  0  0  0  0  0  0  0  0  0  0
  141.0730   71.3890  227.8740 Cl  0  0  0  0  0  0  0  0  0  0  0  0
  139.6110   71.0070  225.5770 C   0  0  0  0  0  0  0  0  0  0  0  0
  140.1330   76.9640  222.1810 C   0  0  0  0  0  0  0  0  0  0  0  0
  139.1020   77.7150  222.7000 C   0  0  0  0  0  0  0  0  0  0  0  0
  139.3520   78.9720  223.2610 C   0  0  0  0  0  0  0  0  0  0  0  0
  140.6360   79.4710  223.3000 C   0  0  0  0  0  0  0  0  0  0  0  0
  140.9240   80.7040  223.8430 C   0  0  0  0  0  0  0  0  0  0  0  0
  142.2460   81.1580  223.8550 C   0  0  0  0  0  0  0  0  0  0  0  0
  142.5370   82.3840  224.3950 F   0  0  0  0  0  0  0  0  0  0  0  0
  143.2670   80.3800  223.3250 C   0  0  0  0  0  0  0  0  0  0  0  0
  142.9530   79.1470  222.7840 C   0  0  0  0  0  0  0  0  0  0  0  0
  141.6520   78.6790  222.7640 C   0  0  0  0  0  0  0  0  0  0  0  0
  141.3870   77.4720  222.2290 N   0  0  0  0  0  0  0  0  0  0  0  0
  138.5230   75.1400  223.1970 H   0  0  0  0  0  0  0  0  0  0  0  0
  137.6984   73.1293  222.2556 H   0  0  0  0  0  0  0  0  0  0  0  0
  138.5066   73.5624  220.6887 H   0  0  0  0  0  0  0  0  0  0  0  0
  140.3979   70.0190  221.0404 H   0  0  0  0  0  0  0  0  0  0  0  0
  140.4592   69.3896  222.6643 H   0  0  0  0  0  0  0  0  0  0  0  0
  138.2130   69.2988  220.6268 H   0  0  0  0  0  0  0  0  0  0  0  0
  138.6049   68.0892  221.8420 H   0  0  0  0  0  0  0  0  0  0  0  0
  136.7214   70.3350  222.0319 H   0  0  0  0  0  0  0  0  0  0  0  0
  137.0019   69.0782  223.2460 H   0  0  0  0  0  0  0  0  0  0  0  0
  137.6651   71.6291  223.8443 H   0  0  0  0  0  0  0  0  0  0  0  0
  138.1882   68.2992  224.2013 H   0  0  0  0  0  0  0  0  0  0  0  0
  139.7525   72.0862  225.4181 H   0  0  0  0  0  0  0  0  0  0  0  0
  138.0743   77.3237  222.6733 H   0  0  0  0  0  0  0  0  0  0  0  0
  138.5210   79.5639  223.6723 H   0  0  0  0  0  0  0  0  0  0  0  0
  140.1202   81.3261  224.2637 H   0  0  0  0  0  0  0  0  0  0  0  0
  144.3069   80.7383  223.3354 H   0  0  0  0  0  0  0  0  0  0  0  0
  143.7553   78.5250  222.3604 H   0  0  0  0  0  0  0  0  0  0  0  0
  1  2  2  0
  2  3  1  0
  3  4  1  0
  4  5  1  0
  5  6  2  0
  5  7  1  0
  7  8  1  0
  8  9  1  0
  9 10  1  0
 10 11  1  0
 11 12  1  0
 12 13  2  0
 13 14  1  0
 14 15  2  0
 15 16  1  0
 15 17  1  0
 17 18  1  0
 17 19  2  0
  2 20  1  0
 20 21  2  0
 21 22  1  0
 22 23  2  0
 23 24  1  0
 24 25  2  0
 25 26  1  0
 25 27  1  0
 27 28  2  0
 28 29  1  0
 29 30  2  0
 11  7  1  0
 19 12  1  0
 30 20  1  0
 29 23  1  0
  3 31  1  0
  4 32  1  0
  4 33  1  0
  8 34  1  0
  8 35  1  0
  9 36  1  0
  9 37  1  0
 10 38  1  0
 10 39  1  0
 11 40  1  1
 13 41  1  0
 19 42  1  0
 21 43  1  0
 22 44  1  0
 24 45  1  0
 27 46  1  0
 28 47  1  0
M  END
>  <smiles>  (6) 
O=C(NCC(=O)N1CCC[C@H]1c1cnc(Cl)c(Cl)c1)c1ccc2cc(F)ccc2n1

>  <score_type>  (6) 
oracle

>  <origin>  (6) 
autodockgpu

>  <m_score__min__energy>  (6) 
-8.9700000000000006

>  <m_primary>  (6) 
energy

>  <rmsd>  (6) 
8.391374501966409

>  <m_score__min__rmsd>  (6) 
8.391374501966409

>  <meeko>  (6) 
{"free_energy": -8.9, "intermolecular_energy": -10.39, "internal_energy": -1.08, "cluster_size": 6, "cluster_id": 2, "rank_in_cluster": 1}

>  <energy>  (6) 
-8.34

>  <cluster_rmsd>  (6) 
1.62

>  <cluster>  (6) 
1

$$$$

     RDKit          3D

 47 50  0  0  0  0  0  0  0  0999 V2000
  136.2760   76.1620  222.5870 O   0  0  0  0  0  0  0  0  0  0  0  0
  136.1920   75.0290  223.1200 C   0  0  0  0  0  0  0  0  0  0  0  0
  137.0350   73.9540  222.7090 N   0  0  0  0  0  0  0  0  0  0  0  0
  138.0170   74.1420  221.6600 C   0  0  0  0  0  0  0  0  0  0  0  0
  139.3610   73.7010  222.0750 C   0  0  0  0  0  0  0  0  0  0  0  0
  140.2990   74.5000  222.3450 O   0  0  0  0  0  0  0  0  0  0  0  0
  139.5950   72.3010  222.1710 N   0  0  0  0  0  0  0  0  0  0  0  0
  140.7630   71.5310  221.7810 C   0  0  0  0  0  0  0  0  0  0  0  0
  140.1440   70.4090  220.9990 C   0  0  0  0  0  0  0  0  0  0  0  0
  138.7380   70.2870  221.5690 C   0  0  0  0  0  0  0  0  0  0  0  0
  138.6680   71.2790  222.7070 C   0  0  1  0  0  0  0  0  0  0  0  0
  139.1130   70.7840  224.0020 C   0  0  0  0  0  0  0  0  0  0  0  0
  138.8200   69.4580  224.3250 C   0  0  0  0  0  0  0  0  0  0  0  0
  139.2060   68.9300  225.5140 N   0  0  0  0  0  0  0  0  0  0  0  0
  139.8780   69.6170  226.4450 C   0  0  0  0  0  0  0  0  0  0  0  0
  140.3630   68.9010  227.9770 Cl  0  0  0  0  0  0  0  0  0  0  0  0
  140.1900   70.9430  226.1640 C   0  0  0  0  0  0  0  0  0  0  0  0
  141.0770   71.9010  227.3570 Cl  0  0  0  0  0  0  0  0  0  0  0  0
  139.8030   71.4950  224.9550 C   0  0  0  0  0  0  0  0  0  0  0  0
  135.2230   74.7610  224.1880 C   0  0  0  0  0  0  0  0  0  0  0  0
  134.6630   75.8090  224.8840 C   0  0  0  0  0  0  0  0  0  0  0  0
  133.7370   75.5700  225.9040 C   0  0  0  0  0  0  0  0  0  0  0  0
  133.3760   74.2790  226.2250 C   0  0  0  0  0  0  0  0  0  0  0  0
  132.4690   74.0000  227.2230 C   0  0  0  0  0  0  0  0  0  0  0  0
  132.1410   72.6710  227.5030 C   0  0  0  0  0  0  0  0  0  0  0  0
  131.2380   72.3910  228.4960 F   0  0  0  0  0  0  0  0  0  0  0  0
  132.7210   71.6330  226.7870 C   0  0  0  0  0  0  0  0  0  0  0  0
  133.6290   71.9360  225.7900 C   0  0  0  0  0  0  0  0  0  0  0  0
  133.9660   73.2460  225.4960 C   0  0  0  0  0  0  0  0  0  0  0  0
  134.8540   73.5000  224.5180 N   0  0  0  0  0  0  0  0  0  0  0  0
  136.9280   73.0170  223.1870 H   0  0  0  0  0  0  0  0  0  0  0  0
  137.7096   73.5614  220.7778 H   0  0  0  0  0  0  0  0  0  0  0  0
  138.0680   75.2168  221.4316 H   0  0  0  0  0  0  0  0  0  0  0  0
  141.4448   72.1264  221.1560 H   0  0  0  0  0  0  0  0  0  0  0  0
  141.3793   71.1964  222.6285 H   0  0  0  0  0  0  0  0  0  0  0  0
  140.1104   70.6529  219.9269 H   0  0  0  0  0  0  0  0  0  0  0  0
  140.7149   69.4725  221.0824 H   0  0  0  0  0  0  0  0  0  0  0  0
  137.9904   70.5324  220.8003 H   0  0  0  0  0  0  0  0  0  0  0  0
  138.5270   69.2630  221.9108 H   0  0  0  0  0  0  0  0  0  0  0  0
  137.6427   71.5996  222.9436 H   0  0  0  0  0  0  0  0  0  0  0  0
  138.2692   68.8331  223.6066 H   0  0  0  0  0  0  0  0  0  0  0  0
  140.0579   72.5450  224.7485 H   0  0  0  0  0  0  0  0  0  0  0  0
  134.9464   76.8424  224.6355 H   0  0  0  0  0  0  0  0  0  0  0  0
  133.2951   76.4151  226.4522 H   0  0  0  0  0  0  0  0  0  0  0  0
  132.0062   74.8174  227.7955 H   0  0  0  0  0  0  0  0  0  0  0  0
  132.4624   70.5872  227.0092 H   0  0  0  0  0  0  0  0  0  0  0  0
  134.0935   71.1191  225.2182 H   0  0  0  0  0  0  0  0  0  0  0  0
  1  2  2  0
  2  3  1  0
  3  4  1  0
  4  5  1  0
  5  6  2  0
  5  7  1  0
  7  8  1  0
  8  9  1  0
  9 10  1  0
 10 11  1  0
 11 12  1  0
 12 13  2  0
 13 14  1  0
 14 15  2  0
 15 16  1  0
 15 17  1  0
 17 18  1  0
 17 19  2  0
  2 20  1  0
 20 21  2  0
 21 22  1  0
 22 23  2  0
 23 24  1  0
 24 25  2  0
 25 26  1  0
 25 27  1  0
 27 28  2  0
 28 29  1  0
 29 30  2  0
 11  7  1  0
 19 12  1  0
 30 20  1  0
 29 23  1  0
  3 31  1  0
  4 32  1  0
  4 33  1  0
  8 34  1  0
  8 35  1  0
  9 36  1  0
  9 37  1  0
 10 38  1  0
 10 39  1  0
 11 40  1  1
 13 41  1  0
 19 42  1  0
 21 43  1  0
 22 44  1  0
 24 45  1  0
 27 46  1  0
 28 47  1  0
M  END
>  <smiles>  (7) 
O=C(NCC(=O)N1CCC[C@H]1c1cnc(Cl)c(Cl)c1)c1ccc2cc(F)ccc2n1

>  <score_type>  (7) 
oracle

>  <origin>  (7) 
autodockgpu

>  <m_score__min__energy>  (7) 
-8.9700000000000006

>  <m_primary>  (7) 
energy

>  <rmsd>  (7) 
6.91396085135953

>  <m_score__min__rmsd>  (7) 
6.91396085135953

>  <meeko>  (7) 
{"free_energy": -7.86, "intermolecular_energy": -9.35, "internal_energy": -1.67, "cluster_size": 2, "cluster_id": 8, "rank_in_cluster": 1}

>  <energy>  (7) 
-8.32

>  <cluster_rmsd>  (7) 
1.63

>  <cluster>  (7) 
1

$$$$

     RDKit          3D

 47 50  0  0  0  0  0  0  0  0999 V2000
  139.9720   71.4250  221.0270 O   0  0  0  0  0  0  0  0  0  0  0  0
  139.8310   71.9320  222.1650 C   0  0  0  0  0  0  0  0  0  0  0  0
  139.6820   73.3420  222.3340 N   0  0  0  0  0  0  0  0  0  0  0  0
  139.6890   74.2290  221.1880 C   0  0  0  0  0  0  0  0  0  0  0  0
  140.2050   75.5670  221.5280 C   0  0  0  0  0  0  0  0  0  0  0  0
  140.2030   76.0310  222.7010 O   0  0  0  0  0  0  0  0  0  0  0  0
  140.7260   76.3620  220.4690 N   0  0  0  0  0  0  0  0  0  0  0  0
  140.1580   76.6490  219.1640 C   0  0  0  0  0  0  0  0  0  0  0  0
  141.3220   76.3770  218.2570 C   0  0  0  0  0  0  0  0  0  0  0  0
  142.5440   76.6130  219.1340 C   0  0  0  0  0  0  0  0  0  0  0  0
  142.0080   77.0990  220.4600 C   0  0  1  0  0  0  0  0  0  0  0  0
  141.7970   78.5370  220.5660 C   0  0  0  0  0  0  0  0  0  0  0  0
  141.4710   79.0540  221.8210 C   0  0  0  0  0  0  0  0  0  0  0  0
  141.2620   80.3840  221.9920 N   0  0  0  0  0  0  0  0  0  0  0  0
  141.3480   81.2790  221.0020 C   0  0  0  0  0  0  0  0  0  0  0  0
  141.0710   82.9980  221.2590 Cl  0  0  0  0  0  0  0  0  0  0  0  0
  141.6700   80.8060  219.7340 C   0  0  0  0  0  0  0  0  0  0  0  0
  141.7980   81.9440  218.3860 Cl  0  0  0  0  0  0  0  0  0  0  0  0
  141.8860   79.4520  219.5450 C   0  0  0  0  0  0  0  0  0  0  0  0
  139.8130   71.0990  223.3730 C   0  0  0  0  0  0  0  0  0  0  0  0
  139.2780   69.8320  223.3230 C   0  0  0  0  0  0  0  0  0  0  0  0
  139.2540   69.0250  224.4650 C   0  0  0  0  0  0  0  0  0  0  0  0
  139.7670   69.4940  225.6560 C   0  0  0  0  0  0  0  0  0  0  0  0
  139.7620   68.7320  226.8030 C   0  0  0  0  0  0  0  0  0  0  0  0
  140.2980   69.2590  227.9820 C   0  0  0  0  0  0  0  0  0  0  0  0
  140.2940   68.5040  229.1250 F   0  0  0  0  0  0  0  0  0  0  0  0
  140.8310   70.5410  228.0050 C   0  0  0  0  0  0  0  0  0  0  0  0
  140.8250   71.2870  226.8410 C   0  0  0  0  0  0  0  0  0  0  0  0
  140.3010   70.7820  225.6640 C   0  0  0  0  0  0  0  0  0  0  0  0
  140.3130   71.5410  224.5520 N   0  0  0  0  0  0  0  0  0  0  0  0
  139.5660   73.7240  223.3120 H   0  0  0  0  0  0  0  0  0  0  0  0
  140.3252   73.7917  220.4044 H   0  0  0  0  0  0  0  0  0  0  0  0
  138.6515   74.3433  220.8408 H   0  0  0  0  0  0  0  0  0  0  0  0
  139.3115   75.9831  218.9402 H   0  0  0  0  0  0  0  0  0  0  0  0
  139.7477   77.6653  219.0701 H   0  0  0  0  0  0  0  0  0  0  0  0
  141.2982   75.3394  217.8926 H   0  0  0  0  0  0  0  0  0  0  0  0
  141.3165   77.0167  217.3621 H   0  0  0  0  0  0  0  0  0  0  0  0
  143.1067   75.6773  219.2675 H   0  0  0  0  0  0  0  0  0  0  0  0
  143.2328   77.3423  218.6827 H   0  0  0  0  0  0  0  0  0  0  0  0
  142.6977   76.9240  221.2989 H   0  0  0  0  0  0  0  0  0  0  0  0
  141.3824   78.3751  222.6819 H   0  0  0  0  0  0  0  0  0  0  0  0
  142.1393   79.0939  218.5362 H   0  0  0  0  0  0  0  0  0  0  0  0
  138.8659   69.4509  222.3770 H   0  0  0  0  0  0  0  0  0  0  0  0
  138.8248   68.0135  224.4130 H   0  0  0  0  0  0  0  0  0  0  0  0
  139.3395   67.7164  226.7918 H   0  0  0  0  0  0  0  0  0  0  0  0
  141.2507   70.9559  228.9333 H   0  0  0  0  0  0  0  0  0  0  0  0
  141.2456   72.3034  226.8507 H   0  0  0  0  0  0  0  0  0  0  0  0
  1  2  2  0
  2  3  1  0
  3  4  1  0
  4  5  1  0
  5  6  2  0
  5  7  1  0
  7  8  1  0
  8  9  1  0
  9 10  1  0
 10 11  1  0
 11 12  1  0
 12 13  2  0
 13 14  1  0
 14 15  2  0
 15 16  1  0
 15 17  1  0
 17 18  1  0
 17 19  2  0
  2 20  1  0
 20 21  2  0
 21 22  1  0
 22 23  2  0
 23 24  1  0
 24 25  2  0
 25 26  1  0
 25 27  1  0
 27 28  2  0
 28 29  1  0
 29 30  2  0
 11  7  1  0
 19 12  1  0
 30 20  1  0
 29 23  1  0
  3 31  1  0
  4 32  1  0
  4 33  1  0
  8 34  1  0
  8 35  1  0
  9 36  1  0
  9 37  1  0
 10 38  1  0
 10 39  1  0
 11 40  1  1
 13 41  1  0
 19 42  1  0
 21 43  1  0
 22 44  1  0
 24 45  1  0
 27 46  1  0
 28 47  1  0
M  END
>  <smiles>  (8) 
O=C(NCC(=O)N1CCC[C@H]1c1cnc(Cl)c(Cl)c1)c1ccc2cc(F)ccc2n1

>  <score_type>  (8) 
oracle

>  <origin>  (8) 
autodockgpu

>  <m_score__min__energy>  (8) 
-8.9700000000000006

>  <m_primary>  (8) 
energy

>  <rmsd>  (8) 
1.4221951961722465

>  <m_score__min__rmsd>  (8) 
1.4221951961722465

>  <meeko>  (8) 
{"free_energy": -7.99, "intermolecular_energy": -9.49, "internal_energy": -1.57, "cluster_size": 17, "cluster_id": 1, "rank_in_cluster": 13}

>  <energy>  (8) 
-8.21

>  <cluster_rmsd>  (8) 
1.81

>  <cluster>  (8) 
1

$$$$

     RDKit          3D

 47 50  0  0  0  0  0  0  0  0999 V2000
  138.6890   71.1790  221.1710 O   0  0  0  0  0  0  0  0  0  0  0  0
  138.9870   71.7430  222.2510 C   0  0  0  0  0  0  0  0  0  0  0  0
  139.0260   73.1660  222.3560 N   0  0  0  0  0  0  0  0  0  0  0  0
  138.7200   74.0010  221.2120 C   0  0  0  0  0  0  0  0  0  0  0  0
  139.8500   74.0830  220.2690 C   0  0  0  0  0  0  0  0  0  0  0  0
  140.2610   73.0990  219.5960 O   0  0  0  0  0  0  0  0  0  0  0  0
  140.4970   75.3410  220.1230 N   0  0  0  0  0  0  0  0  0  0  0  0
  140.3900   76.3160  219.0530 C   0  0  0  0  0  0  0  0  0  0  0  0
  141.8330   76.6140  218.7640 C   0  0  0  0  0  0  0  0  0  0  0  0
  142.5460   76.3160  220.0750 C   0  0  0  0  0  0  0  0  0  0  0  0
  141.4590   75.9590  221.0620 C   0  0  1  0  0  0  0  0  0  0  0  0
  140.8620   77.0810  221.7740 C   0  0  0  0  0  0  0  0  0  0  0  0
  139.5220   76.9710  222.1490 C   0  0  0  0  0  0  0  0  0  0  0  0
  138.9020   77.9780  222.8160 N   0  0  0  0  0  0  0  0  0  0  0  0
  139.5070   79.1210  223.1580 C   0  0  0  0  0  0  0  0  0  0  0  0
  138.6730   80.4060  224.0240 Cl  0  0  0  0  0  0  0  0  0  0  0  0
  140.8440   79.2720  222.8030 C   0  0  0  0  0  0  0  0  0  0  0  0
  141.6950   80.7620  223.2290 Cl  0  0  0  0  0  0  0  0  0  0  0  0
  141.4880   78.2530  222.1220 C   0  0  0  0  0  0  0  0  0  0  0  0
  139.3090   70.9660  223.4520 C   0  0  0  0  0  0  0  0  0  0  0  0
  139.0290   69.6180  223.4920 C   0  0  0  0  0  0  0  0  0  0  0  0
  139.3300   68.8620  224.6300 C   0  0  0  0  0  0  0  0  0  0  0  0
  139.9110   69.4630  225.7270 C   0  0  0  0  0  0  0  0  0  0  0  0
  140.2220   68.7550  226.8670 C   0  0  0  0  0  0  0  0  0  0  0  0
  140.8110   69.4170  227.9480 C   0  0  0  0  0  0  0  0  0  0  0  0
  141.1220   68.7160  229.0840 F   0  0  0  0  0  0  0  0  0  0  0  0
  141.0820   70.7770  227.8830 C   0  0  0  0  0  0  0  0  0  0  0  0
  140.7600   71.4670  226.7280 C   0  0  0  0  0  0  0  0  0  0  0  0
  140.1780   70.8290  225.6470 C   0  0  0  0  0  0  0  0  0  0  0  0
  139.8800   71.5360  224.5410 N   0  0  0  0  0  0  0  0  0  0  0  0
  139.2820   73.5970  223.2860 H   0  0  0  0  0  0  0  0  0  0  0  0
  137.8498   73.5795  220.6875 H   0  0  0  0  0  0  0  0  0  0  0  0
  138.5103   75.0164  221.5794 H   0  0  0  0  0  0  0  0  0  0  0  0
  139.8847   75.8913  218.1731 H   0  0  0  0  0  0  0  0  0  0  0  0
  139.7959   77.2034  219.3166 H   0  0  0  0  0  0  0  0  0  0  0  0
  142.2111   75.9672  217.9586 H   0  0  0  0  0  0  0  0  0  0  0  0
  141.9897   77.6487  218.4251 H   0  0  0  0  0  0  0  0  0  0  0  0
  143.2418   75.4733  219.9498 H   0  0  0  0  0  0  0  0  0  0  0  0
  143.1386   77.1766  220.4187 H   0  0  0  0  0  0  0  0  0  0  0  0
  141.8160   75.3418  221.8996 H   0  0  0  0  0  0  0  0  0  0  0  0
  138.9616   76.0575  221.9012 H   0  0  0  0  0  0  0  0  0  0  0  0
  142.5449   78.3876  221.8483 H   0  0  0  0  0  0  0  0  0  0  0  0
  138.5646   69.1316  222.6215 H   0  0  0  0  0  0  0  0  0  0  0  0
  139.1028   67.7859  224.6499 H   0  0  0  0  0  0  0  0  0  0  0  0
  140.0086   67.6775  226.9261 H   0  0  0  0  0  0  0  0  0  0  0  0
  141.5446   71.2968  228.7349 H   0  0  0  0  0  0  0  0  0  0  0  0
  140.9710   72.5449  226.6678 H   0  0  0  0  0  0  0  0  0  0  0  0
  1  2  2  0
  2  3  1  0
  3  4  1  0
  4  5  1  0
  5  6  2  0
  5  7  1  0
  7  8  1  0
  8  9  1  0
  9 10  1  0
 10 11  1  0
 11 12  1  0
 12 13  2  0
 13 14  1  0
 14 15  2  0
 15 16  1  0
 15 17  1  0
 17 18  1  0
 17 19  2  0
  2 20  1  0
 20 21  2  0
 21 22  1  0
 22 23  2  0
 23 24  1  0
 24 25  2  0
 25 26  1  0
 25 27  1  0
 27 28  2  0
 28 29  1  0
 29 30  2  0
 11  7  1  0
 19 12  1  0
 30 20  1  0
 29 23  1  0
  3 31  1  0
  4 32  1  0
  4 33  1  0
  8 34  1  0
  8 35  1  0
  9 36  1  0
  9 37  1  0
 10 38  1  0
 10 39  1  0
 11 40  1  1
 13 41  1  0
 19 42  1  0
 21 43  1  0
 22 44  1  0
 24 45  1  0
 27 46  1  0
 28 47  1  0
M  END
>  <smiles>  (9) 
O=C(NCC(=O)N1CCC[C@H]1c1cnc(Cl)c(Cl)c1)c1ccc2cc(F)ccc2n1

>  <score_type>  (9) 
oracle

>  <origin>  (9) 
autodockgpu

>  <m_score__min__energy>  (9) 
-8.9700000000000006

>  <m_primary>  (9) 
energy

>  <rmsd>  (9) 
1.510418688361032

>  <m_score__min__rmsd>  (9) 
1.510418688361032

>  <meeko>  (9) 
{"free_energy": -8.1, "intermolecular_energy": -9.59, "internal_energy": -1.46, "cluster_size": 17, "cluster_id": 1, "rank_in_cluster": 11}

>  <energy>  (9) 
-8.14

>  <cluster_rmsd>  (9) 
1.8

>  <cluster>  (9) 
1

$$$$

     RDKit          3D

 47 50  0  0  0  0  0  0  0  0999 V2000
  139.9860   71.0410  221.0880 O   0  0  0  0  0  0  0  0  0  0  0  0
  139.8890   71.5740  222.2190 C   0  0  0  0  0  0  0  0  0  0  0  0
  139.8060   72.9910  222.3640 N   0  0  0  0  0  0  0  0  0  0  0  0
  139.8300   73.8570  221.2030 C   0  0  0  0  0  0  0  0  0  0  0  0
  140.0320   75.2700  221.5700 C   0  0  0  0  0  0  0  0  0  0  0  0
  139.8070   75.7230  222.7250 O   0  0  0  0  0  0  0  0  0  0  0  0
  140.5030   76.1530  220.5590 N   0  0  0  0  0  0  0  0  0  0  0  0
  139.8280   76.6370  219.3680 C   0  0  0  0  0  0  0  0  0  0  0  0
  140.8690   76.4030  218.3110 C   0  0  0  0  0  0  0  0  0  0  0  0
  142.1880   76.4480  219.0690 C   0  0  0  0  0  0  0  0  0  0  0  0
  141.8310   76.8010  220.4940 C   0  0  1  0  0  0  0  0  0  0  0  0
  141.7460   78.2250  220.7880 C   0  0  0  0  0  0  0  0  0  0  0  0
  141.5730   79.0990  219.7130 C   0  0  0  0  0  0  0  0  0  0  0  0
  141.4830   80.4380  219.9140 N   0  0  0  0  0  0  0  0  0  0  0  0
  141.5510   81.0110  221.1220 C   0  0  0  0  0  0  0  0  0  0  0  0
  141.4310   82.7520  221.3460 Cl  0  0  0  0  0  0  0  0  0  0  0  0
  141.7230   80.1750  222.2200 C   0  0  0  0  0  0  0  0  0  0  0  0
  141.8200   80.8760  223.8410 Cl  0  0  0  0  0  0  0  0  0  0  0  0
  141.8160   78.8070  222.0300 C   0  0  0  0  0  0  0  0  0  0  0  0
  139.8580   70.7640  223.4420 C   0  0  0  0  0  0  0  0  0  0  0  0
  139.2660   69.5210  223.4250 C   0  0  0  0  0  0  0  0  0  0  0  0
  139.2290   68.7360  224.5830 C   0  0  0  0  0  0  0  0  0  0  0  0
  139.7850   69.2020  225.7550 C   0  0  0  0  0  0  0  0  0  0  0  0
  139.7690   68.4620  226.9160 C   0  0  0  0  0  0  0  0  0  0  0  0
  140.3500   68.9860  228.0740 C   0  0  0  0  0  0  0  0  0  0  0  0
  140.3350   68.2510  229.2320 F   0  0  0  0  0  0  0  0  0  0  0  0
  140.9390   70.2430  228.0640 C   0  0  0  0  0  0  0  0  0  0  0  0
  140.9440   70.9680  226.8870 C   0  0  0  0  0  0  0  0  0  0  0  0
  140.3750   70.4660  225.7290 C   0  0  0  0  0  0  0  0  0  0  0  0
  140.4000   71.2030  224.6030 N   0  0  0  0  0  0  0  0  0  0  0  0
  139.7260   73.3950  223.3380 H   0  0  0  0  0  0  0  0  0  0  0  0
  140.6505   73.5414  220.5419 H   0  0  0  0  0  0  0  0  0  0  0  0
  138.8564   73.7738  220.6979 H   0  0  0  0  0  0  0  0  0  0  0  0
  138.9131   76.0615  219.1639 H   0  0  0  0  0  0  0  0  0  0  0  0
  139.4913   77.6818  219.4393 H   0  0  0  0  0  0  0  0  0  0  0  0
  140.7267   75.4222  217.8337 H   0  0  0  0  0  0  0  0  0  0  0  0
  140.8225   77.1470  217.5021 H   0  0  0  0  0  0  0  0  0  0  0  0
  142.6859   75.4679  219.0302 H   0  0  0  0  0  0  0  0  0  0  0  0
  142.8819   77.1810  218.6316 H   0  0  0  0  0  0  0  0  0  0  0  0
  142.5867   76.4799  221.2260 H   0  0  0  0  0  0  0  0  0  0  0  0
  141.5089   78.6974  218.6909 H   0  0  0  0  0  0  0  0  0  0  0  0
  141.9514   78.1600  222.9092 H   0  0  0  0  0  0  0  0  0  0  0  0
  138.8188   69.1421  222.4942 H   0  0  0  0  0  0  0  0  0  0  0  0
  138.7547   67.7439  224.5578 H   0  0  0  0  0  0  0  0  0  0  0  0
  139.3025   67.4660  226.9320 H   0  0  0  0  0  0  0  0  0  0  0  0
  141.3939   70.6550  228.9769 H   0  0  0  0  0  0  0  0  0  0  0  0
  141.4097   71.9644  226.8701 H   0  0  0  0  0  0  0  0  0  0  0  0
  1  2  2  0
  2  3  1  0
  3  4  1  0
  4  5  1  0
  5  6  2  0
  5  7  1  0
  7  8  1  0
  8  9  1  0
  9 10  1  0
 10 11  1  0
 11 12  1  0
 12 13  2  0
 13 14  1  0
 14 15  2  0
 15 16  1  0
 15 17  1  0
 17 18  1  0
 17 19  2  0
  2 20  1  0
 20 21  2  0
 21 22  1  0
 22 23  2  0
 23 24  1  0
 24 25  2  0
 25 26  1  0
 25 27  1  0
 27 28  2  0
 28 29  1  0
 29 30  2  0
 11  7  1  0
 19 12  1  0
 30 20  1  0
 29 23  1  0
  3 31  1  0
  4 32  1  0
  4 33  1  0
  8 34  1  0
  8 35  1  0
  9 36  1  0
  9 37  1  0
 10 38  1  0
 10 39  1  0
 11 40  1  1
 13 41  1  0
 19 42  1  0
 21 43  1  0
 22 44  1  0
 24 45  1  0
 27 46  1  0
 28 47  1  0
M  END
>  <smiles>  (10) 
O=C(NCC(=O)N1CCC[C@H]1c1cnc(Cl)c(Cl)c1)c1ccc2cc(F)ccc2n1

>  <score_type>  (10) 
oracle

>  <origin>  (10) 
autodockgpu

>  <m_score__min__energy>  (10) 
-8.9700000000000006

>  <m_primary>  (10) 
energy

>  <rmsd>  (10) 
1.3466803240299805

>  <m_score__min__rmsd>  (10) 
1.3466803240299805

>  <meeko>  (10) 
{"free_energy": -8.37, "intermolecular_energy": -9.86, "internal_energy": -1.45, "cluster_size": 17, "cluster_id": 1, "rank_in_cluster": 4}

>  <energy>  (10) 
-8.11

>  <cluster_rmsd>  (10) 
1.78

>  <cluster>  (10) 
1

$$$$

     RDKit          3D

 47 50  0  0  0  0  0  0  0  0999 V2000
  133.7730   69.6560  226.6940 O   0  0  0  0  0  0  0  0  0  0  0  0
  133.9310   70.6910  226.0040 C   0  0  0  0  0  0  0  0  0  0  0  0
  134.6580   70.6580  224.7770 N   0  0  0  0  0  0  0  0  0  0  0  0
  135.2360   69.4210  224.2920 C   0  0  0  0  0  0  0  0  0  0  0  0
  136.0600   69.6300  223.0880 C   0  0  0  0  0  0  0  0  0  0  0  0
  135.6670   69.3480  221.9240 O   0  0  0  0  0  0  0  0  0  0  0  0
  137.3610   70.1770  223.2660 N   0  0  0  0  0  0  0  0  0  0  0  0
  137.7580   71.5490  223.5300 C   0  0  0  0  0  0  0  0  0  0  0  0
  138.8500   71.7520  222.5200 C   0  0  0  0  0  0  0  0  0  0  0  0
  139.3920   70.3520  222.2680 C   0  0  0  0  0  0  0  0  0  0  0  0
  138.6470   69.4460  223.2200 C   0  0  1  0  0  0  0  0  0  0  0  0
  139.2300   69.3100  224.5480 C   0  0  0  0  0  0  0  0  0  0  0  0
  139.2560   68.0350  225.1160 C   0  0  0  0  0  0  0  0  0  0  0  0
  139.7870   67.8350  226.3500 N   0  0  0  0  0  0  0  0  0  0  0  0
  140.3110   68.8130  227.0970 C   0  0  0  0  0  0  0  0  0  0  0  0
  140.9910   68.5180  228.6930 Cl  0  0  0  0  0  0  0  0  0  0  0  0
  140.3050   70.0990  226.5670 C   0  0  0  0  0  0  0  0  0  0  0  0
  140.9850   71.4320  227.5100 Cl  0  0  0  0  0  0  0  0  0  0  0  0
  139.7670   70.3180  225.3110 C   0  0  0  0  0  0  0  0  0  0  0  0
  133.3750   71.9810  226.4280 C   0  0  0  0  0  0  0  0  0  0  0  0
  132.2210   72.0150  227.1790 C   0  0  0  0  0  0  0  0  0  0  0  0
  131.6780   73.2370  227.5920 C   0  0  0  0  0  0  0  0  0  0  0  0
  132.2960   74.4210  227.2490 C   0  0  0  0  0  0  0  0  0  0  0  0
  131.7940   75.6440  227.6350 C   0  0  0  0  0  0  0  0  0  0  0  0
  132.4630   76.8120  227.2580 C   0  0  0  0  0  0  0  0  0  0  0  0
  131.9660   78.0310  227.6400 F   0  0  0  0  0  0  0  0  0  0  0  0
  133.6250   76.7490  226.5000 C   0  0  0  0  0  0  0  0  0  0  0  0
  134.1090   75.5100  226.1240 C   0  0  0  0  0  0  0  0  0  0  0  0
  133.4620   74.3420  226.4880 C   0  0  0  0  0  0  0  0  0  0  0  0
  133.9660   73.1550  226.1030 N   0  0  0  0  0  0  0  0  0  0  0  0
  134.7650   71.5560  224.2290 H   0  0  0  0  0  0  0  0  0  0  0  0
  135.8668   68.9898  225.0833 H   0  0  0  0  0  0  0  0  0  0  0  0
  134.4118   68.7430  224.0255 H   0  0  0  0  0  0  0  0  0  0  0  0
  136.9238   72.2465  223.3637 H   0  0  0  0  0  0  0  0  0  0  0  0
  138.0722   71.7300  224.5685 H   0  0  0  0  0  0  0  0  0  0  0  0
  138.4480   72.1872  221.5932 H   0  0  0  0  0  0  0  0  0  0  0  0
  139.6263   72.4466  222.8733 H   0  0  0  0  0  0  0  0  0  0  0  0
  139.2053   70.0504  221.2268 H   0  0  0  0  0  0  0  0  0  0  0  0
  140.4791   70.3031  222.4290 H   0  0  0  0  0  0  0  0  0  0  0  0
  138.6214   68.3963  222.8920 H   0  0  0  0  0  0  0  0  0  0  0  0
  138.8417   67.1826  224.5577 H   0  0  0  0  0  0  0  0  0  0  0  0
  139.7695   71.3412  224.9071 H   0  0  0  0  0  0  0  0  0  0  0  0
  131.7223   71.0746  227.4563 H   0  0  0  0  0  0  0  0  0  0  0  0
  130.7560   73.2530  228.1917 H   0  0  0  0  0  0  0  0  0  0  0  0
  130.8739   75.7012  228.2352 H   0  0  0  0  0  0  0  0  0  0  0  0
  134.1509   77.6687  226.2041 H   0  0  0  0  0  0  0  0  0  0  0  0
  135.0281   75.4511  225.5225 H   0  0  0  0  0  0  0  0  0  0  0  0
  1  2  2  0
  2  3  1  0
  3  4  1  0
  4  5  1  0
  5  6  2  0
  5  7  1  0
  7  8  1  0
  8  9  1  0
  9 10  1  0
 10 11  1  0
 11 12  1  0
 12 13  2  0
 13 14  1  0
 14 15  2  0
 15 16  1  0
 15 17  1  0
 17 18  1  0
 17 19  2  0
  2 20  1  0
 20 21  2  0
 21 22  1  0
 22 23  2  0
 23 24  1  0
 24 25  2  0
 25 26  1  0
 25 27  1  0
 27 28  2  0
 28 29  1  0
 29 30  2  0
 11  7  1  0
 19 12  1  0
 30 20  1  0
 29 23  1  0
  3 31  1  0
  4 32  1  0
  4 33  1  0
  8 34  1  0
  8 35  1  0
  9 36  1  0
  9 37  1  0
 10 38  1  0
 10 39  1  0
 11 40  1  6
 13 41  1  0
 19 42  1  0
 21 43  1  0
 22 44  1  0
 24 45  1  0
 27 46  1  0
 28 47  1  0
M  END
>  <smiles>  (11) 
O=C(NCC(=O)N1CCC[C@H]1c1cnc(Cl)c(Cl)c1)c1ccc2cc(F)ccc2n1

>  <score_type>  (11) 
oracle

>  <origin>  (11) 
autodockgpu

>  <m_score__min__energy>  (11) 
-8.9700000000000006

>  <m_primary>  (11) 
energy

>  <rmsd>  (11) 
8.229242688762954

>  <m_score__min__rmsd>  (11) 
8.229242688762954

>  <meeko>  (11) 
{"free_energy": -8.42, "intermolecular_energy": -9.92, "internal_energy": -1.28, "cluster_size": 5, "cluster_id": 5, "rank_in_cluster": 1}

>  <energy>  (11) 
-8.1

>  <cluster_rmsd>  (11) 
1.78

>  <cluster>  (11) 
1

$$$$

     RDKit          3D

 47 50  0  0  0  0  0  0  0  0999 V2000
  138.8330   71.1430  221.1410 O   0  0  0  0  0  0  0  0  0  0  0  0
  139.0930   71.7070  222.2310 C   0  0  0  0  0  0  0  0  0  0  0  0
  139.0780   73.1290  222.3500 N   0  0  0  0  0  0  0  0  0  0  0  0
  138.7570   73.9640  221.2100 C   0  0  0  0  0  0  0  0  0  0  0  0
  138.8070   75.3980  221.5440 C   0  0  0  0  0  0  0  0  0  0  0  0
  137.8040   76.0510  221.9420 O   0  0  0  0  0  0  0  0  0  0  0  0
  140.0560   76.0650  221.4030 N   0  0  0  0  0  0  0  0  0  0  0  0
  140.8370   76.7810  222.3950 C   0  0  0  0  0  0  0  0  0  0  0  0
  141.1570   78.0570  221.6710 C   0  0  0  0  0  0  0  0  0  0  0  0
  141.1130   77.6720  220.1990 C   0  0  0  0  0  0  0  0  0  0  0  0
  140.8670   76.1820  220.1710 C   0  0  1  0  0  0  0  0  0  0  0  0
  142.0580   75.3460  220.2360 C   0  0  0  0  0  0  0  0  0  0  0  0
  143.2950   75.9640  220.0420 C   0  0  0  0  0  0  0  0  0  0  0  0
  144.4460   75.2460  220.0900 N   0  0  0  0  0  0  0  0  0  0  0  0
  144.4860   73.9290  220.3200 C   0  0  0  0  0  0  0  0  0  0  0  0
  145.9970   73.0290  220.3770 Cl  0  0  0  0  0  0  0  0  0  0  0  0
  143.2750   73.2740  220.5190 C   0  0  0  0  0  0  0  0  0  0  0  0
  143.2670   71.5320  220.8270 Cl  0  0  0  0  0  0  0  0  0  0  0  0
  142.0940   73.9930  220.4720 C   0  0  0  0  0  0  0  0  0  0  0  0
  139.4270   70.9300  223.4300 C   0  0  0  0  0  0  0  0  0  0  0  0
  139.2260   69.5670  223.4400 C   0  0  0  0  0  0  0  0  0  0  0  0
  139.5390   68.8120  224.5750 C   0  0  0  0  0  0  0  0  0  0  0  0
  140.0520   69.4270  225.6980 C   0  0  0  0  0  0  0  0  0  0  0  0
  140.3720   68.7200  226.8350 C   0  0  0  0  0  0  0  0  0  0  0  0
  140.8900   69.3970  227.9430 C   0  0  0  0  0  0  0  0  0  0  0  0
  141.2100   68.6960  229.0770 F   0  0  0  0  0  0  0  0  0  0  0  0
  141.0820   70.7710  227.9060 C   0  0  0  0  0  0  0  0  0  0  0  0
  140.7530   71.4600  226.7530 C   0  0  0  0  0  0  0  0  0  0  0  0
  140.2400   70.8080  225.6460 C   0  0  0  0  0  0  0  0  0  0  0  0
  139.9320   71.5140  224.5420 N   0  0  0  0  0  0  0  0  0  0  0  0
  139.3030   73.5590  223.2890 H   0  0  0  0  0  0  0  0  0  0  0  0
  139.4804   73.7612  220.4065 H   0  0  0  0  0  0  0  0  0  0  0  0
  137.7314   73.7250  220.8922 H   0  0  0  0  0  0  0  0  0  0  0  0
  140.2495   76.9732  223.3049 H   0  0  0  0  0  0  0  0  0  0  0  0
  141.7241   76.2325  222.7445 H   0  0  0  0  0  0  0  0  0  0  0  0
  140.4078   78.8308  221.8945 H   0  0  0  0  0  0  0  0  0  0  0  0
  142.1292   78.4775  221.9677 H   0  0  0  0  0  0  0  0  0  0  0  0
  140.2975   78.2046  219.6879 H   0  0  0  0  0  0  0  0  0  0  0  0
  142.0471   77.9381  219.6827 H   0  0  0  0  0  0  0  0  0  0  0  0
  140.4136   75.8324  219.2318 H   0  0  0  0  0  0  0  0  0  0  0  0
  143.3373   77.0459  219.8479 H   0  0  0  0  0  0  0  0  0  0  0  0
  141.1450   73.4596  220.6300 H   0  0  0  0  0  0  0  0  0  0  0  0
  138.8164   69.0690  222.5489 H   0  0  0  0  0  0  0  0  0  0  0  0
  139.3755   67.7242  224.5720 H   0  0  0  0  0  0  0  0  0  0  0  0
  140.2213   67.6310  226.8714 H   0  0  0  0  0  0  0  0  0  0  0  0
  141.4888   71.3028  228.7788 H   0  0  0  0  0  0  0  0  0  0  0  0
  140.9023   72.5492  226.7153 H   0  0  0  0  0  0  0  0  0  0  0  0
  1  2  2  0
  2  3  1  0
  3  4  1  0
  4  5  1  0
  5  6  2  0
  5  7  1  0
  7  8  1  0
  8  9  1  0
  9 10  1  0
 10 11  1  0
 11 12  1  0
 12 13  2  0
 13 14  1  0
 14 15  2  0
 15 16  1  0
 15 17  1  0
 17 18  1  0
 17 19  2  0
  2 20  1  0
 20 21  2  0
 21 22  1  0
 22 23  2  0
 23 24  1  0
 24 25  2  0
 25 26  1  0
 25 27  1  0
 27 28  2  0
 28 29  1  0
 29 30  2  0
 11  7  1  0
 19 12  1  0
 30 20  1  0
 29 23  1  0
  3 31  1  0
  4 32  1  0
  4 33  1  0
  8 34  1  0
  8 35  1  0
  9 36  1  0
  9 37  1  0
 10 38  1  0
 10 39  1  0
 11 40  1  6
 13 41  1  0
 19 42  1  0
 21 43  1  0
 22 44  1  0
 24 45  1  0
 27 46  1  0
 28 47  1  0
M  END
>  <smiles>  (12) 
O=C(NCC(=O)N1CCC[C@H]1c1cnc(Cl)c(Cl)c1)c1ccc2cc(F)ccc2n1

>  <score_type>  (12) 
oracle

>  <origin>  (12) 
autodockgpu

>  <m_score__min__energy>  (12) 
-8.9700000000000006

>  <m_primary>  (12) 
energy

>  <rmsd>  (12) 
2.2035134774350804

>  <m_score__min__rmsd>  (12) 
2.2035134774350804

>  <meeko>  (12) 
{"free_energy": -8.28, "intermolecular_energy": -9.77, "internal_energy": -1.85, "cluster_size": 6, "cluster_id": 4, "rank_in_cluster": 3}

>  <energy>  (12) 
-8.03

>  <cluster_rmsd>  (12) 
1.89

>  <cluster>  (12) 
1

$$$$

     RDKit          3D

 47 50  0  0  0  0  0  0  0  0999 V2000
  140.4630   73.1060  222.3680 O   0  0  0  0  0  0  0  0  0  0  0  0
  139.4640   72.4400  222.7280 C   0  0  0  0  0  0  0  0  0  0  0  0
  138.1900   72.6260  222.1120 N   0  0  0  0  0  0  0  0  0  0  0  0
  138.0170   73.5930  221.0470 C   0  0  0  0  0  0  0  0  0  0  0  0
  137.7520   74.9460  221.5670 C   0  0  0  0  0  0  0  0  0  0  0  0
  138.6130   75.8670  221.5690 O   0  0  0  0  0  0  0  0  0  0  0  0
  136.4550   75.2100  222.0890 N   0  0  0  0  0  0  0  0  0  0  0  0
  135.1590   75.0950  221.4450 C   0  0  0  0  0  0  0  0  0  0  0  0
  134.5250   76.4100  221.7950 C   0  0  0  0  0  0  0  0  0  0  0  0
  135.2120   76.8240  223.0900 C   0  0  0  0  0  0  0  0  0  0  0  0
  136.1250   75.6770  223.4540 C   0  0  1  0  0  0  0  0  0  0  0  0
  135.5200   74.6170  224.2480 C   0  0  0  0  0  0  0  0  0  0  0  0
  134.7030   74.9930  225.3160 C   0  0  0  0  0  0  0  0  0  0  0  0
  134.1040   74.0580  226.0970 N   0  0  0  0  0  0  0  0  0  0  0  0
  134.2460   72.7400  225.9120 C   0  0  0  0  0  0  0  0  0  0  0  0
  133.4550   71.5550  226.9440 Cl  0  0  0  0  0  0  0  0  0  0  0  0
  135.0520   72.3220  224.8590 C   0  0  0  0  0  0  0  0  0  0  0  0
  135.2760   70.5920  224.5660 Cl  0  0  0  0  0  0  0  0  0  0  0  0
  135.6680   73.2650  224.0540 C   0  0  0  0  0  0  0  0  0  0  0  0
  139.5600   71.4420  223.7990 C   0  0  0  0  0  0  0  0  0  0  0  0
  138.9890   70.2000  223.6310 C   0  0  0  0  0  0  0  0  0  0  0  0
  139.0730   69.2370  224.6430 C   0  0  0  0  0  0  0  0  0  0  0  0
  139.7280   69.5250  225.8210 C   0  0  0  0  0  0  0  0  0  0  0  0
  139.8320   68.6050  226.8420 C   0  0  0  0  0  0  0  0  0  0  0  0
  140.5100   68.9530  228.0140 C   0  0  0  0  0  0  0  0  0  0  0  0
  140.6150   68.0400  229.0310 F   0  0  0  0  0  0  0  0  0  0  0  0
  141.0760   70.2130  228.1570 C   0  0  0  0  0  0  0  0  0  0  0  0
  140.9580   71.1180  227.1190 C   0  0  0  0  0  0  0  0  0  0  0  0
  140.2930   70.7930  225.9510 C   0  0  0  0  0  0  0  0  0  0  0  0
  140.2000   71.7040  224.9640 N   0  0  0  0  0  0  0  0  0  0  0  0
  137.3760   72.0420  222.4490 H   0  0  0  0  0  0  0  0  0  0  0  0
  138.9334   73.6194  220.4391 H   0  0  0  0  0  0  0  0  0  0  0  0
  137.1492   73.2843  220.4457 H   0  0  0  0  0  0  0  0  0  0  0  0
  135.2618   74.9770  220.3562 H   0  0  0  0  0  0  0  0  0  0  0  0
  134.5768   74.2195  221.7683 H   0  0  0  0  0  0  0  0  0  0  0  0
  134.7047   77.1525  221.0035 H   0  0  0  0  0  0  0  0  0  0  0  0
  133.4329   76.3354  221.9030 H   0  0  0  0  0  0  0  0  0  0  0  0
  135.7948   77.7444  222.9376 H   0  0  0  0  0  0  0  0  0  0  0  0
  134.4833   77.0313  223.8875 H   0  0  0  0  0  0  0  0  0  0  0  0
  136.9617   75.9754  224.1028 H   0  0  0  0  0  0  0  0  0  0  0  0
  134.5426   76.0605  225.5273 H   0  0  0  0  0  0  0  0  0  0  0  0
  136.3020   72.9174  223.2250 H   0  0  0  0  0  0  0  0  0  0  0  0
  138.4630   69.9632  222.6944 H   0  0  0  0  0  0  0  0  0  0  0  0
  138.6150   68.2475  224.4979 H   0  0  0  0  0  0  0  0  0  0  0  0
  139.3853   67.6054  226.7356 H   0  0  0  0  0  0  0  0  0  0  0  0
  141.6088   70.4859  229.0799 H   0  0  0  0  0  0  0  0  0  0  0  0
  141.4028   72.1185  227.2244 H   0  0  0  0  0  0  0  0  0  0  0  0
  1  2  2  0
  2  3  1  0
  3  4  1  0
  4  5  1  0
  5  6  2  0
  5  7  1  0
  7  8  1  0
  8  9  1  0
  9 10  1  0
 10 11  1  0
 11 12  1  0
 12 13  2  0
 13 14  1  0
 14 15  2  0
 15 16  1  0
 15 17  1  0
 17 18  1  0
 17 19  2  0
  2 20  1  0
 20 21  2  0
 21 22  1  0
 22 23  2  0
 23 24  1  0
 24 25  2  0
 25 26  1  0
 25 27  1  0
 27 28  2  0
 28 29  1  0
 29 30  2  0
 11  7  1  0
 19 12  1  0
 30 20  1  0
 29 23  1  0
  3 31  1  0
  4 32  1  0
  4 33  1  0
  8 34  1  0
  8 35  1  0
  9 36  1  0
  9 37  1  0
 10 38  1  0
 10 39  1  0
 11 40  1  1
 13 41  1  0
 19 42  1  0
 21 43  1  0
 22 44  1  0
 24 45  1  0
 27 46  1  0
 28 47  1  0
M  END
>  <smiles>  (13) 
O=C(NCC(=O)N1CCC[C@H]1c1cnc(Cl)c(Cl)c1)c1ccc2cc(F)ccc2n1

>  <score_type>  (13) 
oracle

>  <origin>  (13) 
autodockgpu

>  <m_score__min__energy>  (13) 
-8.9700000000000006

>  <m_primary>  (13) 
energy

>  <rmsd>  (13) 
3.7490543670013277

>  <m_score__min__rmsd>  (13) 
3.7490543670013277

>  <meeko>  (13) 
{"free_energy": -7.71, "intermolecular_energy": -9.2, "internal_energy": -1.85, "cluster_size": 12, "cluster_id": 7, "rank_in_cluster": 3}

>  <energy>  (13) 
-7.99

>  <cluster_rmsd>  (13) 
1.79

>  <cluster>  (13) 
1

$$$$

     RDKit          3D

 47 50  0  0  0  0  0  0  0  0999 V2000
  137.3210   70.7780  221.9420 O   0  0  0  0  0  0  0  0  0  0  0  0
  138.1250   71.2870  222.7600 C   0  0  0  0  0  0  0  0  0  0  0  0
  138.5450   72.6450  222.6360 N   0  0  0  0  0  0  0  0  0  0  0  0
  138.0510   73.4770  221.5580 C   0  0  0  0  0  0  0  0  0  0  0  0
  137.7990   74.8610  221.9990 C   0  0  0  0  0  0  0  0  0  0  0  0
  138.6780   75.7650  221.9740 O   0  0  0  0  0  0  0  0  0  0  0  0
  136.4960   75.1750  222.4740 N   0  0  0  0  0  0  0  0  0  0  0  0
  135.2220   75.1250  221.7790 C   0  0  0  0  0  0  0  0  0  0  0  0
  134.6330   76.4630  222.1220 C   0  0  0  0  0  0  0  0  0  0  0  0
  135.2850   76.8300  223.4470 C   0  0  0  0  0  0  0  0  0  0  0  0
  136.1330   75.6400  223.8310 C   0  0  1  0  0  0  0  0  0  0  0  0
  135.4500   74.5980  224.5870 C   0  0  0  0  0  0  0  0  0  0  0  0
  134.6510   74.9940  225.6600 C   0  0  0  0  0  0  0  0  0  0  0  0
  133.9850   74.0760  226.4060 N   0  0  0  0  0  0  0  0  0  0  0  0
  134.0390   72.7590  226.1800 C   0  0  0  0  0  0  0  0  0  0  0  0
  133.1620   71.5970  227.1680 Cl  0  0  0  0  0  0  0  0  0  0  0  0
  134.8250   72.3210  225.1190 C   0  0  0  0  0  0  0  0  0  0  0  0
  134.9350   70.5910  224.7720 Cl  0  0  0  0  0  0  0  0  0  0  0  0
  135.5100   73.2460  224.3500 C   0  0  0  0  0  0  0  0  0  0  0  0
  138.6690   70.5080  223.8770 C   0  0  0  0  0  0  0  0  0  0  0  0
  138.4880   69.1430  223.9140 C   0  0  0  0  0  0  0  0  0  0  0  0
  139.0010   68.3870  224.9730 C   0  0  0  0  0  0  0  0  0  0  0  0
  139.6940   69.0020  225.9930 C   0  0  0  0  0  0  0  0  0  0  0  0
  140.2140   68.2940  227.0540 C   0  0  0  0  0  0  0  0  0  0  0  0
  140.9090   68.9720  228.0590 C   0  0  0  0  0  0  0  0  0  0  0  0
  141.4280   68.2700  229.1160 F   0  0  0  0  0  0  0  0  0  0  0  0
  141.0770   70.3490  227.9980 C   0  0  0  0  0  0  0  0  0  0  0  0
  140.5460   71.0390  226.9240 C   0  0  0  0  0  0  0  0  0  0  0  0
  139.8560   70.3860  225.9180 C   0  0  0  0  0  0  0  0  0  0  0  0
  139.3540   71.0930  224.8890 N   0  0  0  0  0  0  0  0  0  0  0  0
  139.2240   73.0300  223.3480 H   0  0  0  0  0  0  0  0  0  0  0  0
  138.7977   73.4921  220.7504 H   0  0  0  0  0  0  0  0  0  0  0  0
  137.0975   73.0523  221.2108 H   0  0  0  0  0  0  0  0  0  0  0  0
  135.3619   75.0152  220.6935 H   0  0  0  0  0  0  0  0  0  0  0  0
  134.5898   74.2724  222.0679 H   0  0  0  0  0  0  0  0  0  0  0  0
  134.8765   77.2062  221.3484 H   0  0  0  0  0  0  0  0  0  0  0  0
  133.5352   76.4359  222.1861 H   0  0  0  0  0  0  0  0  0  0  0  0
  135.9124   77.7259  223.3302 H   0  0  0  0  0  0  0  0  0  0  0  0
  134.5347   77.0587  224.2182 H   0  0  0  0  0  0  0  0  0  0  0  0
  136.9560   75.8934  224.5154 H   0  0  0  0  0  0  0  0  0  0  0  0
  134.5596   76.0626  225.9044 H   0  0  0  0  0  0  0  0  0  0  0  0
  136.1277   72.8838  223.5150 H   0  0  0  0  0  0  0  0  0  0  0  0
  137.9357   68.6436  223.1043 H   0  0  0  0  0  0  0  0  0  0  0  0
  138.8507   67.2975  224.9917 H   0  0  0  0  0  0  0  0  0  0  0  0
  140.0832   67.2032  227.1097 H   0  0  0  0  0  0  0  0  0  0  0  0
  141.6231   70.8817  228.7905 H   0  0  0  0  0  0  0  0  0  0  0  0
  140.6748   72.1300  226.8681 H   0  0  0  0  0  0  0  0  0  0  0  0
  1  2  2  0
  2  3  1  0
  3  4  1  0
  4  5  1  0
  5  6  2  0
  5  7  1  0
  7  8  1  0
  8  9  1  0
  9 10  1  0
 10 11  1  0
 11 12  1  0
 12 13  2  0
 13 14  1  0
 14 15  2  0
 15 16  1  0
 15 17  1  0
 17 18  1  0
 17 19  2  0
  2 20  1  0
 20 21  2  0
 21 22  1  0
 22 23  2  0
 23 24  1  0
 24 25  2  0
 25 26  1  0
 25 27  1  0
 27 28  2  0
 28 29  1  0
 29 30  2  0
 11  7  1  0
 19 12  1  0
 30 20  1  0
 29 23  1  0
  3 31  1  0
  4 32  1  0
  4 33  1  0
  8 34  1  0
  8 35  1  0
  9 36  1  0
  9 37  1  0
 10 38  1  0
 10 39  1  0
 11 40  1  1
 13 41  1  0
 19 42  1  0
 21 43  1  0
 22 44  1  0
 24 45  1  0
 27 46  1  0
 28 47  1  0
M  END
>  <smiles>  (14) 
O=C(NCC(=O)N1CCC[C@H]1c1cnc(Cl)c(Cl)c1)c1ccc2cc(F)ccc2n1

>  <score_type>  (14) 
oracle

>  <origin>  (14) 
autodockgpu

>  <m_score__min__energy>  (14) 
-8.9700000000000006

>  <m_primary>  (14) 
energy

>  <rmsd>  (14) 
3.80798616800081

>  <m_score__min__rmsd>  (14) 
3.80798616800081

>  <meeko>  (14) 
{"free_energy": -7.63, "intermolecular_energy": -9.13, "internal_energy": -2.21, "cluster_size": 12, "cluster_id": 7, "rank_in_cluster": 5}

>  <energy>  (14) 
-7.96

>  <cluster_rmsd>  (14) 
1.64

>  <cluster>  (14) 
1

$$$$

     RDKit          3D

 47 50  0  0  0  0  0  0  0  0999 V2000
  139.6070   73.6750  220.1940 O   0  0  0  0  0  0  0  0  0  0  0  0
  139.2710   74.4530  221.1200 C   0  0  0  0  0  0  0  0  0  0  0  0
  138.1710   74.1500  221.9770 N   0  0  0  0  0  0  0  0  0  0  0  0
  137.4120   72.9290  221.8030 C   0  0  0  0  0  0  0  0  0  0  0  0
  137.4660   72.0680  222.9980 C   0  0  0  0  0  0  0  0  0  0  0  0
  136.6960   72.2070  223.9860 O   0  0  0  0  0  0  0  0  0  0  0  0
  138.4430   71.0340  223.0220 N   0  0  0  0  0  0  0  0  0  0  0  0
  139.8260   71.0590  222.5800 C   0  0  0  0  0  0  0  0  0  0  0  0
  139.9060   69.8080  221.7530 C   0  0  0  0  0  0  0  0  0  0  0  0
  138.8280   68.9050  222.3350 C   0  0  0  0  0  0  0  0  0  0  0  0
  138.2620   69.6520  223.5200 C   0  0  1  0  0  0  0  0  0  0  0  0
  138.9560   69.4460  224.7840 C   0  0  0  0  0  0  0  0  0  0  0  0
  139.1290   68.1320  225.2220 C   0  0  0  0  0  0  0  0  0  0  0  0
  139.7680   67.8670  226.3890 N   0  0  0  0  0  0  0  0  0  0  0  0
  140.2690   68.8150  227.1900 C   0  0  0  0  0  0  0  0  0  0  0  0
  141.0920   68.4350  228.6980 Cl  0  0  0  0  0  0  0  0  0  0  0  0
  140.1180   70.1390  226.7910 C   0  0  0  0  0  0  0  0  0  0  0  0
  140.7590   71.4340  227.8100 Cl  0  0  0  0  0  0  0  0  0  0  0  0
  139.4680   70.4240  225.6020 C   0  0  0  0  0  0  0  0  0  0  0  0
  139.9920   75.7080  221.3590 C   0  0  0  0  0  0  0  0  0  0  0  0
  141.1200   76.0010  220.6250 C   0  0  0  0  0  0  0  0  0  0  0  0
  141.8180   77.1930  220.8410 C   0  0  0  0  0  0  0  0  0  0  0  0
  141.3830   78.0880  221.7950 C   0  0  0  0  0  0  0  0  0  0  0  0
  142.0430   79.2730  222.0390 C   0  0  0  0  0  0  0  0  0  0  0  0
  141.5540   80.1420  223.0190 C   0  0  0  0  0  0  0  0  0  0  0  0
  142.2080   81.3220  223.2640 F   0  0  0  0  0  0  0  0  0  0  0  0
  140.4150   79.8220  223.7450 C   0  0  0  0  0  0  0  0  0  0  0  0
  139.7710   78.6280  223.4830 C   0  0  0  0  0  0  0  0  0  0  0  0
  140.2370   77.7540  222.5160 C   0  0  0  0  0  0  0  0  0  0  0  0
  139.5810   76.6010  222.2910 N   0  0  0  0  0  0  0  0  0  0  0  0
  137.9250   74.8350  222.7430 H   0  0  0  0  0  0  0  0  0  0  0  0
  136.3626   73.1894  221.6005 H   0  0  0  0  0  0  0  0  0  0  0  0
  137.8539   72.3720  220.9637 H   0  0  0  0  0  0  0  0  0  0  0  0
  140.0373   71.9532  221.9753 H   0  0  0  0  0  0  0  0  0  0  0  0
  140.5561   71.0975  223.4019 H   0  0  0  0  0  0  0  0  0  0  0  0
  139.7019   70.0266  220.6944 H   0  0  0  0  0  0  0  0  0  0  0  0
  140.9039   69.3461  221.7838 H   0  0  0  0  0  0  0  0  0  0  0  0
  138.0416   68.7173  221.5891 H   0  0  0  0  0  0  0  0  0  0  0  0
  139.2348   67.9264  222.6296 H   0  0  0  0  0  0  0  0  0  0  0  0
  137.2412   69.3396  223.7854 H   0  0  0  0  0  0  0  0  0  0  0  0
  138.7425   67.3012  224.6135 H   0  0  0  0  0  0  0  0  0  0  0  0
  139.3571   71.4760  225.3002 H   0  0  0  0  0  0  0  0  0  0  0  0
  141.4745   75.2915  219.8628 H   0  0  0  0  0  0  0  0  0  0  0  0
  142.7169   77.4173  220.2480 H   0  0  0  0  0  0  0  0  0  0  0  0
  142.9465   79.5328  221.4678 H   0  0  0  0  0  0  0  0  0  0  0  0
  140.0317   80.5071  224.5155 H   0  0  0  0  0  0  0  0  0  0  0  0
  138.8686   78.3663  224.0551 H   0  0  0  0  0  0  0  0  0  0  0  0
  1  2  2  0
  2  3  1  0
  3  4  1  0
  4  5  1  0
  5  6  2  0
  5  7  1  0
  7  8  1  0
  8  9  1  0
  9 10  1  0
 10 11  1  0
 11 12  1  0
 12 13  2  0
 13 14  1  0
 14 15  2  0
 15 16  1  0
 15 17  1  0
 17 18  1  0
 17 19  2  0
  2 20  1  0
 20 21  2  0
 21 22  1  0
 22 23  2  0
 23 24  1  0
 24 25  2  0
 25 26  1  0
 25 27  1  0
 27 28  2  0
 28 29  1  0
 29 30  2  0
 11  7  1  0
 19 12  1  0
 30 20  1  0
 29 23  1  0
  3 31  1  0
  4 32  1  0
  4 33  1  0
  8 34  1  0
  8 35  1  0
  9 36  1  0
  9 37  1  0
 10 38  1  0
 10 39  1  0
 11 40  1  1
 13 41  1  0
 19 42  1  0
 21 43  1  0
 22 44  1  0
 24 45  1  0
 27 46  1  0
 28 47  1  0
M  END
>  <smiles>  (15) 
O=C(NCC(=O)N1CCC[C@H]1c1cnc(Cl)c(Cl)c1)c1ccc2cc(F)ccc2n1

>  <score_type>  (15) 
oracle

>  <origin>  (15) 
autodockgpu

>  <m_score__min__energy>  (15) 
-8.9700000000000006

>  <m_primary>  (15) 
energy

>  <rmsd>  (15) 
8.043549412315576

>  <m_score__min__rmsd>  (15) 
8.043549412315576

>  <meeko>  (15) 
{"free_energy": -7.92, "intermolecular_energy": -9.42, "internal_energy": -1.61, "cluster_size": 6, "cluster_id": 2, "rank_in_cluster": 6}

>  <energy>  (15) 
-7.96

>  <cluster_rmsd>  (15) 
1.67

>  <cluster>  (15) 
1

$$$$

     RDKit          3D

 47 50  0  0  0  0  0  0  0  0999 V2000
  137.2240   70.7890  222.0730 O   0  0  0  0  0  0  0  0  0  0  0  0
  138.1030   71.2700  222.8280 C   0  0  0  0  0  0  0  0  0  0  0  0
  138.5780   72.6040  222.6520 N   0  0  0  0  0  0  0  0  0  0  0  0
  138.0550   73.4430  221.5940 C   0  0  0  0  0  0  0  0  0  0  0  0
  137.8110   74.8230  222.0510 C   0  0  0  0  0  0  0  0  0  0  0  0
  138.7030   75.7150  222.0620 O   0  0  0  0  0  0  0  0  0  0  0  0
  136.5010   75.1480  222.4990 N   0  0  0  0  0  0  0  0  0  0  0  0
  135.2390   75.0890  221.7830 C   0  0  0  0  0  0  0  0  0  0  0  0
  134.6470   76.4340  222.0940 C   0  0  0  0  0  0  0  0  0  0  0  0
  135.2780   76.8220  223.4230 C   0  0  0  0  0  0  0  0  0  0  0  0
  136.1160   75.6370  223.8420 C   0  0  1  0  0  0  0  0  0  0  0  0
  135.4190   74.6090  224.6030 C   0  0  0  0  0  0  0  0  0  0  0  0
  134.6350   75.0220  225.6820 C   0  0  0  0  0  0  0  0  0  0  0  0
  133.9560   74.1180  226.4330 N   0  0  0  0  0  0  0  0  0  0  0  0
  133.9830   72.8000  226.2080 C   0  0  0  0  0  0  0  0  0  0  0  0
  133.0900   71.6560  227.2030 Cl  0  0  0  0  0  0  0  0  0  0  0  0
  134.7530   72.3460  225.1420 C   0  0  0  0  0  0  0  0  0  0  0  0
  134.8260   70.6130  224.7960 Cl  0  0  0  0  0  0  0  0  0  0  0  0
  135.4500   73.2560  224.3670 C   0  0  0  0  0  0  0  0  0  0  0  0
  138.6810   70.4830  223.9220 C   0  0  0  0  0  0  0  0  0  0  0  0
  138.5640   69.1110  223.9150 C   0  0  0  0  0  0  0  0  0  0  0  0
  139.1100   68.3460  224.9520 C   0  0  0  0  0  0  0  0  0  0  0  0
  139.7710   68.9610  225.9930 C   0  0  0  0  0  0  0  0  0  0  0  0
  140.3220   68.2450  227.0320 C   0  0  0  0  0  0  0  0  0  0  0  0
  140.9840   68.9220  228.0610 C   0  0  0  0  0  0  0  0  0  0  0  0
  141.5330   68.2120  229.0970 F   0  0  0  0  0  0  0  0  0  0  0  0
  141.0870   70.3070  228.0440 C   0  0  0  0  0  0  0  0  0  0  0  0
  140.5260   71.0050  226.9900 C   0  0  0  0  0  0  0  0  0  0  0  0
  139.8690   70.3520  225.9620 C   0  0  0  0  0  0  0  0  0  0  0  0
  139.3360   71.0680  224.9540 N   0  0  0  0  0  0  0  0  0  0  0  0
  139.3200   72.9670  223.3120 H   0  0  0  0  0  0  0  0  0  0  0  0
  138.7808   73.4659  220.7678 H   0  0  0  0  0  0  0  0  0  0  0  0
  137.0937   73.0186  221.2686 H   0  0  0  0  0  0  0  0  0  0  0  0
  135.3973   74.9612  220.7020 H   0  0  0  0  0  0  0  0  0  0  0  0
  134.6001   74.2425  222.0749 H   0  0  0  0  0  0  0  0  0  0  0  0
  134.9046   77.1637  221.3122 H   0  0  0  0  0  0  0  0  0  0  0  0
  133.5483   76.4098  222.1407 H   0  0  0  0  0  0  0  0  0  0  0  0
  135.9099   77.7141  223.3011 H   0  0  0  0  0  0  0  0  0  0  0  0
  134.5155   77.0658  224.1775 H   0  0  0  0  0  0  0  0  0  0  0  0
  136.9270   75.9010  224.5367 H   0  0  0  0  0  0  0  0  0  0  0  0
  134.5668   76.0924  225.9263 H   0  0  0  0  0  0  0  0  0  0  0  0
  136.0537   72.8807  223.5275 H   0  0  0  0  0  0  0  0  0  0  0  0
  138.0373   68.6124  223.0879 H   0  0  0  0  0  0  0  0  0  0  0  0
  139.0112   67.2506  224.9360 H   0  0  0  0  0  0  0  0  0  0  0  0
  140.2420   67.1481  227.0525 H   0  0  0  0  0  0  0  0  0  0  0  0
  141.6058   70.8395  228.8548 H   0  0  0  0  0  0  0  0  0  0  0  0
  140.6037   72.1020  226.9685 H   0  0  0  0  0  0  0  0  0  0  0  0
  1  2  2  0
  2  3  1  0
  3  4  1  0
  4  5  1  0
  5  6  2  0
  5  7  1  0
  7  8  1  0
  8  9  1  0
  9 10  1  0
 10 11  1  0
 11 12  1  0
 12 13  2  0
 13 14  1  0
 14 15  2  0
 15 16  1  0
 15 17  1  0
 17 18  1  0
 17 19  2  0
  2 20  1  0
 20 21  2  0
 21 22  1  0
 22 23  2  0
 23 24  1  0
 24 25  2  0
 25 26  1  0
 25 27  1  0
 27 28  2  0
 28 29  1  0
 29 30  2  0
 11  7  1  0
 19 12  1  0
 30 20  1  0
 29 23  1  0
  3 31  1  0
  4 32  1  0
  4 33  1  0
  8 34  1  0
  8 35  1  0
  9 36  1  0
  9 37  1  0
 10 38  1  0
 10 39  1  0
 11 40  1  1
 13 41  1  0
 19 42  1  0
 21 43  1  0
 22 44  1  0
 24 45  1  0
 27 46  1  0
 28 47  1  0
M  END
>  <smiles>  (16) 
O=C(NCC(=O)N1CCC[C@H]1c1cnc(Cl)c(Cl)c1)c1ccc2cc(F)ccc2n1

>  <score_type>  (16) 
oracle

>  <origin>  (16) 
autodockgpu

>  <m_score__min__energy>  (16) 
-8.9700000000000006

>  <m_primary>  (16) 
energy

>  <rmsd>  (16) 
3.8101402734125065

>  <m_score__min__rmsd>  (16) 
3.8101402734125065

>  <meeko>  (16) 
{"free_energy": -7.69, "intermolecular_energy": -9.18, "internal_energy": -2.15, "cluster_size": 12, "cluster_id": 7, "rank_in_cluster": 4}

>  <energy>  (16) 
-7.96

>  <cluster_rmsd>  (16) 
1.69

>  <cluster>  (16) 
1

$$$$

     RDKit          3D

 47 50  0  0  0  0  0  0  0  0999 V2000
  140.3450   71.8130  221.1180 O   0  0  0  0  0  0  0  0  0  0  0  0
  139.6890   72.1120  222.1450 C   0  0  0  0  0  0  0  0  0  0  0  0
  138.8560   73.2700  222.1790 N   0  0  0  0  0  0  0  0  0  0  0  0
  138.7420   74.1340  221.0210 C   0  0  0  0  0  0  0  0  0  0  0  0
  138.7380   75.5600  221.3940 C   0  0  0  0  0  0  0  0  0  0  0  0
  137.6880   76.1960  221.6850 O   0  0  0  0  0  0  0  0  0  0  0  0
  139.9880   76.2380  221.4210 N   0  0  0  0  0  0  0  0  0  0  0  0
  140.7010   76.8160  222.5470 C   0  0  0  0  0  0  0  0  0  0  0  0
  141.0550   78.1760  222.0200 C   0  0  0  0  0  0  0  0  0  0  0  0
  141.1050   77.9910  220.5100 C   0  0  0  0  0  0  0  0  0  0  0  0
  140.8730   76.5180  220.2690 C   0  0  1  0  0  0  0  0  0  0  0  0
  142.0640   75.6790  220.2960 C   0  0  0  0  0  0  0  0  0  0  0  0
  143.2960   76.2960  220.0710 C   0  0  0  0  0  0  0  0  0  0  0  0
  144.4460   75.5760  220.0840 N   0  0  0  0  0  0  0  0  0  0  0  0
  144.4910   74.2580  220.3060 C   0  0  0  0  0  0  0  0  0  0  0  0
  146.0020   73.3550  220.3160 Cl  0  0  0  0  0  0  0  0  0  0  0  0
  143.2850   73.6040  220.5350 C   0  0  0  0  0  0  0  0  0  0  0  0
  143.2830   71.8610  220.8350 Cl  0  0  0  0  0  0  0  0  0  0  0  0
  142.1040   74.3260  220.5250 C   0  0  0  0  0  0  0  0  0  0  0  0
  139.7520   71.2860  223.3550 C   0  0  0  0  0  0  0  0  0  0  0  0
  139.2240   70.0140  223.3450 C   0  0  0  0  0  0  0  0  0  0  0  0
  139.2770   69.2140  224.4910 C   0  0  0  0  0  0  0  0  0  0  0  0
  139.8590   69.6930  225.6450 C   0  0  0  0  0  0  0  0  0  0  0  0
  139.9300   68.9380  226.7950 C   0  0  0  0  0  0  0  0  0  0  0  0
  140.5340   69.4760  227.9350 C   0  0  0  0  0  0  0  0  0  0  0  0
  140.6070   68.7270  229.0810 F   0  0  0  0  0  0  0  0  0  0  0  0
  141.0580   70.7620  227.9190 C   0  0  0  0  0  0  0  0  0  0  0  0
  140.9750   71.5010  226.7530 C   0  0  0  0  0  0  0  0  0  0  0  0
  140.3830   70.9860  225.6140 C   0  0  0  0  0  0  0  0  0  0  0  0
  140.3210   71.7380  224.4990 N   0  0  0  0  0  0  0  0  0  0  0  0
  138.3220   73.4820  223.0660 H   0  0  0  0  0  0  0  0  0  0  0  0
  139.5939   73.9445  220.3513 H   0  0  0  0  0  0  0  0  0  0  0  0
  137.7869   73.9105  220.5231 H   0  0  0  0  0  0  0  0  0  0  0  0
  140.0568   76.8860  223.4359 H   0  0  0  0  0  0  0  0  0  0  0  0
  141.5690   76.2255  222.8755 H   0  0  0  0  0  0  0  0  0  0  0  0
  140.2875   78.9136  222.2973 H   0  0  0  0  0  0  0  0  0  0  0  0
  142.0040   78.5523  222.4297 H   0  0  0  0  0  0  0  0  0  0  0  0
  140.3184   78.5873  220.0246 H   0  0  0  0  0  0  0  0  0  0  0  0
  142.0669   78.3234  220.0926 H   0  0  0  0  0  0  0  0  0  0  0  0
  140.4818   76.2975  219.2648 H   0  0  0  0  0  0  0  0  0  0  0  0
  143.3349   77.3788  219.8809 H   0  0  0  0  0  0  0  0  0  0  0  0
  141.1589   73.7938  220.7080 H   0  0  0  0  0  0  0  0  0  0  0  0
  138.7570   69.6242  222.4285 H   0  0  0  0  0  0  0  0  0  0  0  0
  138.8528   68.1993  224.4713 H   0  0  0  0  0  0  0  0  0  0  0  0
  139.5146   67.9197  226.8160 H   0  0  0  0  0  0  0  0  0  0  0  0
  141.5306   71.1852  228.8176 H   0  0  0  0  0  0  0  0  0  0  0  0
  141.3886   72.5200  226.7310 H   0  0  0  0  0  0  0  0  0  0  0  0
  1  2  2  0
  2  3  1  0
  3  4  1  0
  4  5  1  0
  5  6  2  0
  5  7  1  0
  7  8  1  0
  8  9  1  0
  9 10  1  0
 10 11  1  0
 11 12  1  0
 12 13  2  0
 13 14  1  0
 14 15  2  0
 15 16  1  0
 15 17  1  0
 17 18  1  0
 17 19  2  0
  2 20  1  0
 20 21  2  0
 21 22  1  0
 22 23  2  0
 23 24  1  0
 24 25  2  0
 25 26  1  0
 25 27  1  0
 27 28  2  0
 28 29  1  0
 29 30  2  0
 11  7  1  0
 19 12  1  0
 30 20  1  0
 29 23  1  0
  3 31  1  0
  4 32  1  0
  4 33  1  0
  8 34  1  0
  8 35  1  0
  9 36  1  0
  9 37  1  0
 10 38  1  0
 10 39  1  0
 11 40  1  6
 13 41  1  0
 19 42  1  0
 21 43  1  0
 22 44  1  0
 24 45  1  0
 27 46  1  0
 28 47  1  0
M  END
>  <smiles>  (17) 
O=C(NCC(=O)N1CCC[C@H]1c1cnc(Cl)c(Cl)c1)c1ccc2cc(F)ccc2n1

>  <score_type>  (17) 
oracle

>  <origin>  (17) 
autodockgpu

>  <m_score__min__energy>  (17) 
-8.9700000000000006

>  <m_primary>  (17) 
energy

>  <rmsd>  (17) 
2.327669921622566

>  <m_score__min__rmsd>  (17) 
2.327669921622566

>  <meeko>  (17) 
{"free_energy": -8.44, "intermolecular_energy": -9.93, "internal_energy": -1.69, "cluster_size": 6, "cluster_id": 4, "rank_in_cluster": 1}

>  <energy>  (17) 
-7.75

>  <cluster_rmsd>  (17) 
1.88

>  <cluster>  (17) 
1

$$$$

     RDKit          3D

 47 50  0  0  0  0  0  0  0  0999 V2000
  138.8320   71.4100  221.0730 O   0  0  0  0  0  0  0  0  0  0  0  0
  139.0930   71.9390  222.1800 C   0  0  0  0  0  0  0  0  0  0  0  0
  139.0730   73.3560  222.3450 N   0  0  0  0  0  0  0  0  0  0  0  0
  138.7460   74.2260  221.2330 C   0  0  0  0  0  0  0  0  0  0  0  0
  138.8650   75.6500  221.5920 C   0  0  0  0  0  0  0  0  0  0  0  0
  137.9030   76.3350  222.0330 O   0  0  0  0  0  0  0  0  0  0  0  0
  140.1360   76.2680  221.4250 N   0  0  0  0  0  0  0  0  0  0  0  0
  140.9560   76.9700  222.3970 C   0  0  0  0  0  0  0  0  0  0  0  0
  141.3130   78.2220  221.6490 C   0  0  0  0  0  0  0  0  0  0  0  0
  141.2350   77.8170  220.1830 C   0  0  0  0  0  0  0  0  0  0  0  0
  140.9350   76.3370  220.1820 C   0  0  1  0  0  0  0  0  0  0  0  0
  142.0950   75.4580  220.2440 C   0  0  0  0  0  0  0  0  0  0  0  0
  143.3530   76.0320  220.0490 C   0  0  0  0  0  0  0  0  0  0  0  0
  144.4770   75.2730  220.0960 N   0  0  0  0  0  0  0  0  0  0  0  0
  144.4710   73.9550  220.3260 C   0  0  0  0  0  0  0  0  0  0  0  0
  145.9490   73.0010  220.3800 Cl  0  0  0  0  0  0  0  0  0  0  0  0
  143.2370   73.3430  220.5250 C   0  0  0  0  0  0  0  0  0  0  0  0
  143.1670   71.6030  220.8330 Cl  0  0  0  0  0  0  0  0  0  0  0  0
  142.0820   74.1050  220.4800 C   0  0  0  0  0  0  0  0  0  0  0  0
  139.4320   71.1240  223.3520 C   0  0  0  0  0  0  0  0  0  0  0  0
  139.2320   69.7620  223.3210 C   0  0  0  0  0  0  0  0  0  0  0  0
  139.5500   68.9720  224.4300 C   0  0  0  0  0  0  0  0  0  0  0  0
  140.0690   69.5510  225.5680 C   0  0  0  0  0  0  0  0  0  0  0  0
  140.3950   68.8090  226.6820 C   0  0  0  0  0  0  0  0  0  0  0  0
  140.9180   69.4510  227.8080 C   0  0  0  0  0  0  0  0  0  0  0  0
  141.2440   68.7150  228.9170 F   0  0  0  0  0  0  0  0  0  0  0  0
  141.1100   70.8260  227.8130 C   0  0  0  0  0  0  0  0  0  0  0  0
  140.7750   71.5510  226.6840 C   0  0  0  0  0  0  0  0  0  0  0  0
  140.2570   70.9330  225.5590 C   0  0  0  0  0  0  0  0  0  0  0  0
  139.9430   71.6740  224.4800 N   0  0  0  0  0  0  0  0  0  0  0  0
  139.2990   73.7570  223.2960 H   0  0  0  0  0  0  0  0  0  0  0  0
  139.4321   74.0112  220.4005 H   0  0  0  0  0  0  0  0  0  0  0  0
  137.7012   74.0340  220.9476 H   0  0  0  0  0  0  0  0  0  0  0  0
  140.3877   77.1975  223.3109 H   0  0  0  0  0  0  0  0  0  0  0  0
  141.8267   76.3945  222.7444 H   0  0  0  0  0  0  0  0  0  0  0  0
  140.5960   79.0263  221.8701 H   0  0  0  0  0  0  0  0  0  0  0  0
  142.3041   78.6102  221.9265 H   0  0  0  0  0  0  0  0  0  0  0  0
  140.4323   78.3712  219.6744 H   0  0  0  0  0  0  0  0  0  0  0  0
  142.1707   78.0414  219.6500 H   0  0  0  0  0  0  0  0  0  0  0  0
  140.4572   75.9903  219.2538 H   0  0  0  0  0  0  0  0  0  0  0  0
  143.4338   77.1117  219.8551 H   0  0  0  0  0  0  0  0  0  0  0  0
  141.1145   73.6066  220.6397 H   0  0  0  0  0  0  0  0  0  0  0  0
  138.8187   69.2917  222.4166 H   0  0  0  0  0  0  0  0  0  0  0  0
  139.3854   67.8850  224.3941 H   0  0  0  0  0  0  0  0  0  0  0  0
  140.2448   67.7193  226.6853 H   0  0  0  0  0  0  0  0  0  0  0  0
  141.5216   71.3301  228.6998 H   0  0  0  0  0  0  0  0  0  0  0  0
  140.9232   72.6410  226.6800 H   0  0  0  0  0  0  0  0  0  0  0  0
  1  2  2  0
  2  3  1  0
  3  4  1  0
  4  5  1  0
  5  6  2  0
  5  7  1  0
  7  8  1  0
  8  9  1  0
  9 10  1  0
 10 11  1  0
 11 12  1  0
 12 13  2  0
 13 14  1  0
 14 15  2  0
 15 16  1  0
 15 17  1  0
 17 18  1  0
 17 19  2  0
  2 20  1  0
 20 21  2  0
 21 22  1  0
 22 23  2  0
 23 24  1  0
 24 25  2  0
 25 26  1  0
 25 27  1  0
 27 28  2  0
 28 29  1  0
 29 30  2  0
 11  7  1  0
 19 12  1  0
 30 20  1  0
 29 23  1  0
  3 31  1  0
  4 32  1  0
  4 33  1  0
  8 34  1  0
  8 35  1  0
  9 36  1  0
  9 37  1  0
 10 38  1  0
 10 39  1  0
 11 40  1  6
 13 41  1  0
 19 42  1  0
 21 43  1  0
 22 44  1  0
 24 45  1  0
 27 46  1  0
 28 47  1  0
M  END
>  <smiles>  (18) 
O=C(NCC(=O)N1CCC[C@H]1c1cnc(Cl)c(Cl)c1)c1ccc2cc(F)ccc2n1

>  <score_type>  (18) 
oracle

>  <origin>  (18) 
autodockgpu

>  <m_score__min__energy>  (18) 
-8.9700000000000006

>  <m_primary>  (18) 
energy

>  <rmsd>  (18) 
2.257609278818986

>  <m_score__min__rmsd>  (18) 
2.257609278818986

>  <meeko>  (18) 
{"free_energy": -8.17, "intermolecular_energy": -9.67, "internal_energy": -1.89, "cluster_size": 6, "cluster_id": 4, "rank_in_cluster": 4}

>  <energy>  (18) 
-8.9

>  <cluster_rmsd>  (18) 
0.0

>  <cluster>  (18) 
2

$$$$

     RDKit          3D

 47 50  0  0  0  0  0  0  0  0999 V2000
  135.7150   71.6460  222.4760 O   0  0  0  0  0  0  0  0  0  0  0  0
  135.8580   72.7550  223.0460 C   0  0  0  0  0  0  0  0  0  0  0  0
  136.8920   73.6580  222.6570 N   0  0  0  0  0  0  0  0  0  0  0  0
  137.8080   73.3180  221.5870 C   0  0  0  0  0  0  0  0  0  0  0  0
  139.1070   72.8490  222.0990 C   0  0  0  0  0  0  0  0  0  0  0  0
  140.0700   73.6230  222.3560 O   0  0  0  0  0  0  0  0  0  0  0  0
  139.2690   71.4510  222.3080 N   0  0  0  0  0  0  0  0  0  0  0  0
  140.3230   70.5640  221.8480 C   0  0  0  0  0  0  0  0  0  0  0  0
  139.5340   69.4210  221.2770 C   0  0  0  0  0  0  0  0  0  0  0  0
  138.2170   69.4580  222.0400 C   0  0  0  0  0  0  0  0  0  0  0  0
  138.3670   70.5560  223.0660 C   0  0  1  0  0  0  0  0  0  0  0  0
  138.9590   70.1550  224.3360 C   0  0  0  0  0  0  0  0  0  0  0  0
  138.8200   68.8210  224.7230 C   0  0  0  0  0  0  0  0  0  0  0  0
  139.3490   68.3780  225.8920 N   0  0  0  0  0  0  0  0  0  0  0  0
  140.0240   69.1600  226.7420 C   0  0  0  0  0  0  0  0  0  0  0  0
  140.6950   68.5520  228.2500 Cl  0  0  0  0  0  0  0  0  0  0  0  0
  140.1850   70.4970  226.3940 C   0  0  0  0  0  0  0  0  0  0  0  0
  141.0690   71.5780  227.4790 Cl  0  0  0  0  0  0  0  0  0  0  0  0
  139.6520   70.9630  225.2050 C   0  0  0  0  0  0  0  0  0  0  0  0
  134.9700   73.1700  224.1370 C   0  0  0  0  0  0  0  0  0  0  0  0
  134.1810   72.2360  224.7710 C   0  0  0  0  0  0  0  0  0  0  0  0
  133.3290   72.6160  225.8130 C   0  0  0  0  0  0  0  0  0  0  0  0
  133.2710   73.9330  226.2160 C   0  0  0  0  0  0  0  0  0  0  0  0
  132.4450   74.3480  227.2370 C   0  0  0  0  0  0  0  0  0  0  0  0
  132.4290   75.6970  227.6030 C   0  0  0  0  0  0  0  0  0  0  0  0
  131.6080   76.1140  228.6190 F   0  0  0  0  0  0  0  0  0  0  0  0
  133.2340   76.6180  226.9470 C   0  0  0  0  0  0  0  0  0  0  0  0
  134.0540   76.1780  225.9250 C   0  0  0  0  0  0  0  0  0  0  0  0
  134.0860   74.8470  225.5490 C   0  0  0  0  0  0  0  0  0  0  0  0
  134.8980   74.4580  224.5480 N   0  0  0  0  0  0  0  0  0  0  0  0
  136.9740   74.5810  223.1650 H   0  0  0  0  0  0  0  0  0  0  0  0
  137.3592   72.5215  220.9753 H   0  0  0  0  0  0  0  0  0  0  0  0
  137.9858   74.2257  220.9916 H   0  0  0  0  0  0  0  0  0  0  0  0
  140.9446   71.0456  221.0788 H   0  0  0  0  0  0  0  0  0  0  0  0
  141.0313   70.2673  222.6356 H   0  0  0  0  0  0  0  0  0  0  0  0
  139.3647   69.5636  220.1995 H   0  0  0  0  0  0  0  0  0  0  0  0
  140.0538   68.4571  221.3804 H   0  0  0  0  0  0  0  0  0  0  0  0
  137.3847   69.6831  221.3569 H   0  0  0  0  0  0  0  0  0  0  0  0
  137.9953   68.4897  222.5125 H   0  0  0  0  0  0  0  0  0  0  0  0
  137.4059   70.9726  223.4019 H   0  0  0  0  0  0  0  0  0  0  0  0
  138.2753   68.1205  224.0729 H   0  0  0  0  0  0  0  0  0  0  0  0
  139.7886   72.0231  224.9450 H   0  0  0  0  0  0  0  0  0  0  0  0
  134.2212   71.1830  224.4554 H   0  0  0  0  0  0  0  0  0  0  0  0
  132.7033   71.8617  226.3125 H   0  0  0  0  0  0  0  0  0  0  0  0
  131.8032   73.6238  227.7601 H   0  0  0  0  0  0  0  0  0  0  0  0
  133.2196   77.6794  227.2354 H   0  0  0  0  0  0  0  0  0  0  0  0
  134.6947   76.9014  225.3995 H   0  0  0  0  0  0  0  0  0  0  0  0
  1  2  2  0
  2  3  1  0
  3  4  1  0
  4  5  1  0
  5  6  2  0
  5  7  1  0
  7  8  1  0
  8  9  1  0
  9 10  1  0
 10 11  1  0
 11 12  1  0
 12 13  2  0
 13 14  1  0
 14 15  2  0
 15 16  1  0
 15 17  1  0
 17 18  1  0
 17 19  2  0
  2 20  1  0
 20 21  2  0
 21 22  1  0
 22 23  2  0
 23 24  1  0
 24 25  2  0
 25 26  1  0
 25 27  1  0
 27 28  2  0
 28 29  1  0
 29 30  2  0
 11  7  1  0
 19 12  1  0
 30 20  1  0
 29 23  1  0
  3 31  1  0
  4 32  1  0
  4 33  1  0
  8 34  1  0
  8 35  1  0
  9 36  1  0
  9 37  1  0
 10 38  1  0
 10 39  1  0
 11 40  1  1
 13 41  1  0
 19 42  1  0
 21 43  1  0
 22 44  1  0
 24 45  1  0
 27 46  1  0
 28 47  1  0
M  END
>  <smiles>  (19) 
O=C(NCC(=O)N1CCC[C@H]1c1cnc(Cl)c(Cl)c1)c1ccc2cc(F)ccc2n1

>  <score_type>  (19) 
oracle

>  <origin>  (19) 
autodockgpu

>  <m_score__min__energy>  (19) 
-8.9700000000000006

>  <m_primary>  (19) 
energy

>  <rmsd>  (19) 
7.099636086798783

>  <m_score__min__rmsd>  (19) 
7.099636086798783

>  <meeko>  (19) 
{"free_energy": -7.82, "intermolecular_energy": -9.31, "internal_energy": -1.88, "cluster_size": 5, "cluster_id": 5, "rank_in_cluster": 5}

>  <energy>  (19) 
-8.61

>  <cluster_rmsd>  (19) 
0.67

>  <cluster>  (19) 
2

$$$$

     RDKit          3D

 47 50  0  0  0  0  0  0  0  0999 V2000
  137.2460   70.9020  222.0050 O   0  0  0  0  0  0  0  0  0  0  0  0
  138.1080   71.3690  222.7880 C   0  0  0  0  0  0  0  0  0  0  0  0
  138.6100   72.6960  222.6290 N   0  0  0  0  0  0  0  0  0  0  0  0
  138.1330   73.5430  221.5540 C   0  0  0  0  0  0  0  0  0  0  0  0
  137.8300   74.9080  222.0200 C   0  0  0  0  0  0  0  0  0  0  0  0
  138.6900   75.8300  222.0640 O   0  0  0  0  0  0  0  0  0  0  0  0
  136.4980   75.1820  222.4370 N   0  0  0  0  0  0  0  0  0  0  0  0
  135.2550   75.0590  221.6980 C   0  0  0  0  0  0  0  0  0  0  0  0
  134.6000   76.3810  221.9770 C   0  0  0  0  0  0  0  0  0  0  0  0
  135.1860   76.8140  223.3130 C   0  0  0  0  0  0  0  0  0  0  0  0
  136.0660   75.6720  223.7650 C   0  0  1  0  0  0  0  0  0  0  0  0
  135.3980   74.6260  224.5270 C   0  0  0  0  0  0  0  0  0  0  0  0
  134.6110   75.0170  225.6120 C   0  0  0  0  0  0  0  0  0  0  0  0
  133.9580   74.0950  226.3650 N   0  0  0  0  0  0  0  0  0  0  0  0
  134.0160   72.7780  226.1350 C   0  0  0  0  0  0  0  0  0  0  0  0
  133.1560   71.6100  227.1320 Cl  0  0  0  0  0  0  0  0  0  0  0  0
  134.7900   72.3460  225.0630 C   0  0  0  0  0  0  0  0  0  0  0  0
  134.9030   70.6160  224.7120 Cl  0  0  0  0  0  0  0  0  0  0  0  0
  135.4610   73.2750  224.2870 C   0  0  0  0  0  0  0  0  0  0  0  0
  138.6390   70.5720  223.9000 C   0  0  0  0  0  0  0  0  0  0  0  0
  138.4160   69.2140  223.9370 C   0  0  0  0  0  0  0  0  0  0  0  0
  138.9150   68.4410  224.9900 C   0  0  0  0  0  0  0  0  0  0  0  0
  139.6370   69.0330  226.0040 C   0  0  0  0  0  0  0  0  0  0  0  0
  140.1450   68.3080  227.0590 C   0  0  0  0  0  0  0  0  0  0  0  0
  140.8700   68.9630  228.0580 C   0  0  0  0  0  0  0  0  0  0  0  0
  141.3780   68.2440  229.1090 F   0  0  0  0  0  0  0  0  0  0  0  0
  141.0800   70.3340  227.9970 C   0  0  0  0  0  0  0  0  0  0  0  0
  140.5600   71.0410  226.9290 C   0  0  0  0  0  0  0  0  0  0  0  0
  139.8410   70.4110  225.9290 C   0  0  0  0  0  0  0  0  0  0  0  0
  139.3510   71.1350  224.9050 N   0  0  0  0  0  0  0  0  0  0  0  0
  139.3350   73.0460  223.3120 H   0  0  0  0  0  0  0  0  0  0  0  0
  138.9072   73.5975  220.7745 H   0  0  0  0  0  0  0  0  0  0  0  0
  137.2039   73.1037  221.1618 H   0  0  0  0  0  0  0  0  0  0  0  0
  135.4403   74.9229  220.6223 H   0  0  0  0  0  0  0  0  0  0  0  0
  134.6471   74.1901  221.9901 H   0  0  0  0  0  0  0  0  0  0  0  0
  134.8425   77.1103  221.1900 H   0  0  0  0  0  0  0  0  0  0  0  0
  133.5026   76.3104  222.0016 H   0  0  0  0  0  0  0  0  0  0  0  0
  135.7809   77.7312  223.1913 H   0  0  0  0  0  0  0  0  0  0  0  0
  134.3984   77.0344  224.0486 H   0  0  0  0  0  0  0  0  0  0  0  0
  136.8515   75.9797  224.4709 H   0  0  0  0  0  0  0  0  0  0  0  0
  134.5189   76.0848  225.8597 H   0  0  0  0  0  0  0  0  0  0  0  0
  136.0696   72.9168  223.4436 H   0  0  0  0  0  0  0  0  0  0  0  0
  137.8408   68.7333  223.1320 H   0  0  0  0  0  0  0  0  0  0  0  0
  138.7307   67.3567  225.0092 H   0  0  0  0  0  0  0  0  0  0  0  0
  139.9813   67.2217  227.1148 H   0  0  0  0  0  0  0  0  0  0  0  0
  141.6501   70.8485  228.7846 H   0  0  0  0  0  0  0  0  0  0  0  0
  140.7213   72.1277  226.8731 H   0  0  0  0  0  0  0  0  0  0  0  0
  1  2  2  0
  2  3  1  0
  3  4  1  0
  4  5  1  0
  5  6  2  0
  5  7  1  0
  7  8  1  0
  8  9  1  0
  9 10  1  0
 10 11  1  0
 11 12  1  0
 12 13  2  0
 13 14  1  0
 14 15  2  0
 15 16  1  0
 15 17  1  0
 17 18  1  0
 17 19  2  0
  2 20  1  0
 20 21  2  0
 21 22  1  0
 22 23  2  0
 23 24  1  0
 24 25  2  0
 25 26  1  0
 25 27  1  0
 27 28  2  0
 28 29  1  0
 29 30  2  0
 11  7  1  0
 19 12  1  0
 30 20  1  0
 29 23  1  0
  3 31  1  0
  4 32  1  0
  4 33  1  0
  8 34  1  0
  8 35  1  0
  9 36  1  0
  9 37  1  0
 10 38  1  0
 10 39  1  0
 11 40  1  1
 13 41  1  0
 19 42  1  0
 21 43  1  0
 22 44  1  0
 24 45  1  0
 27 46  1  0
 28 47  1  0
M  END
>  <smiles>  (20) 
O=C(NCC(=O)N1CCC[C@H]1c1cnc(Cl)c(Cl)c1)c1ccc2cc(F)ccc2n1

>  <score_type>  (20) 
oracle

>  <origin>  (20) 
autodockgpu

>  <m_score__min__energy>  (20) 
-8.9700000000000006

>  <m_primary>  (20) 
energy

>  <rmsd>  (20) 
3.791839252047162

>  <m_score__min__rmsd>  (20) 
3.791839252047162

>  <meeko>  (20) 
{"free_energy": -7.63, "intermolecular_energy": -9.12, "internal_energy": -2.21, "cluster_size": 12, "cluster_id": 7, "rank_in_cluster": 6}

>  <energy>  (20) 
-8.41

>  <cluster_rmsd>  (20) 
1.48

>  <cluster>  (20) 
2

$$$$

     RDKit          3D

 47 50  0  0  0  0  0  0  0  0999 V2000
  140.2540   71.0130  221.2030 O   0  0  0  0  0  0  0  0  0  0  0  0
  140.0700   71.5800  222.3070 C   0  0  0  0  0  0  0  0  0  0  0  0
  139.9690   73.0010  222.4000 N   0  0  0  0  0  0  0  0  0  0  0  0
  140.0750   73.8290  221.2160 C   0  0  0  0  0  0  0  0  0  0  0  0
  140.0960   75.2650  221.5470 C   0  0  0  0  0  0  0  0  0  0  0  0
  139.7560   75.7210  222.6730 O   0  0  0  0  0  0  0  0  0  0  0  0
  140.5210   76.1690  220.5340 N   0  0  0  0  0  0  0  0  0  0  0  0
  139.7990   76.6660  219.3760 C   0  0  0  0  0  0  0  0  0  0  0  0
  140.8010   76.4590  218.2780 C   0  0  0  0  0  0  0  0  0  0  0  0
  142.1480   76.5030  218.9870 C   0  0  0  0  0  0  0  0  0  0  0  0
  141.8410   76.8300  220.4300 C   0  0  1  0  0  0  0  0  0  0  0  0
  141.7540   78.2480  220.7500 C   0  0  0  0  0  0  0  0  0  0  0  0
  141.5430   79.1390  219.6960 C   0  0  0  0  0  0  0  0  0  0  0  0
  141.4490   80.4740  219.9220 N   0  0  0  0  0  0  0  0  0  0  0  0
  141.5510   81.0270  221.1360 C   0  0  0  0  0  0  0  0  0  0  0  0
  141.4250   82.7630  221.3940 Cl  0  0  0  0  0  0  0  0  0  0  0  0
  141.7620   80.1740  222.2150 C   0  0  0  0  0  0  0  0  0  0  0  0
  141.9040   80.8490  223.8440 Cl  0  0  0  0  0  0  0  0  0  0  0  0
  141.8590   78.8100  221.9990 C   0  0  0  0  0  0  0  0  0  0  0  0
  139.9520   70.8090  223.5490 C   0  0  0  0  0  0  0  0  0  0  0  0
  139.3820   69.5550  223.5250 C   0  0  0  0  0  0  0  0  0  0  0  0
  139.2630   68.8070  224.7010 C   0  0  0  0  0  0  0  0  0  0  0  0
  139.7150   69.3200  225.8980 C   0  0  0  0  0  0  0  0  0  0  0  0
  139.6150   68.6170  227.0780 C   0  0  0  0  0  0  0  0  0  0  0  0
  140.0920   69.1870  228.2620 C   0  0  0  0  0  0  0  0  0  0  0  0
  139.9940   68.4890  229.4380 F   0  0  0  0  0  0  0  0  0  0  0  0
  140.6610   70.4530  228.2580 C   0  0  0  0  0  0  0  0  0  0  0  0
  140.7500   71.1410  227.0610 C   0  0  0  0  0  0  0  0  0  0  0  0
  140.2860   70.5930  225.8790 C   0  0  0  0  0  0  0  0  0  0  0  0
  140.3910   71.2940  224.7350 N   0  0  0  0  0  0  0  0  0  0  0  0
  139.8140   73.4340  223.3510 H   0  0  0  0  0  0  0  0  0  0  0  0
  141.0041   73.5731  220.6856 H   0  0  0  0  0  0  0  0  0  0  0  0
  139.1927   73.6379  220.5875 H   0  0  0  0  0  0  0  0  0  0  0  0
  138.8820   76.0856  219.1962 H   0  0  0  0  0  0  0  0  0  0  0  0
  139.4570   77.7066  219.4769 H   0  0  0  0  0  0  0  0  0  0  0  0
  140.6489   75.4851  217.7898 H   0  0  0  0  0  0  0  0  0  0  0  0
  140.7181   77.2161  217.4843 H   0  0  0  0  0  0  0  0  0  0  0  0
  142.6519   75.5279  218.9137 H   0  0  0  0  0  0  0  0  0  0  0  0
  142.8196   77.2485  218.5361 H   0  0  0  0  0  0  0  0  0  0  0  0
  142.6265   76.5040  221.1277 H   0  0  0  0  0  0  0  0  0  0  0  0
  141.4518   78.7542  218.6695 H   0  0  0  0  0  0  0  0  0  0  0  0
  142.0269   78.1495  222.8625 H   0  0  0  0  0  0  0  0  0  0  0  0
  139.0178   69.1389  222.5741 H   0  0  0  0  0  0  0  0  0  0  0  0
  138.8073   67.8063  224.6705 H   0  0  0  0  0  0  0  0  0  0  0  0
  139.1631   67.6142  227.0888 H   0  0  0  0  0  0  0  0  0  0  0  0
  141.0347   70.9015  229.1903 H   0  0  0  0  0  0  0  0  0  0  0  0
  141.1993   72.1450  227.0492 H   0  0  0  0  0  0  0  0  0  0  0  0
  1  2  2  0
  2  3  1  0
  3  4  1  0
  4  5  1  0
  5  6  2  0
  5  7  1  0
  7  8  1  0
  8  9  1  0
  9 10  1  0
 10 11  1  0
 11 12  1  0
 12 13  2  0
 13 14  1  0
 14 15  2  0
 15 16  1  0
 15 17  1  0
 17 18  1  0
 17 19  2  0
  2 20  1  0
 20 21  2  0
 21 22  1  0
 22 23  2  0
 23 24  1  0
 24 25  2  0
 25 26  1  0
 25 27  1  0
 27 28  2  0
 28 29  1  0
 29 30  2  0
 11  7  1  0
 19 12  1  0
 30 20  1  0
 29 23  1  0
  3 31  1  0
  4 32  1  0
  4 33  1  0
  8 34  1  0
  8 35  1  0
  9 36  1  0
  9 37  1  0
 10 38  1  0
 10 39  1  0
 11 40  1  1
 13 41  1  0
 19 42  1  0
 21 43  1  0
 22 44  1  0
 24 45  1  0
 27 46  1  0
 28 47  1  0
M  END
>  <smiles>  (21) 
O=C(NCC(=O)N1CCC[C@H]1c1cnc(Cl)c(Cl)c1)c1ccc2cc(F)ccc2n1

>  <score_type>  (21) 
oracle

>  <origin>  (21) 
autodockgpu

>  <m_score__min__energy>  (21) 
-8.9700000000000006

>  <m_primary>  (21) 
energy

>  <rmsd>  (21) 
1.41585785258971

>  <m_score__min__rmsd>  (21) 
1.41585785258971

>  <meeko>  (21) 
{"free_energy": -8.32, "intermolecular_energy": -9.81, "internal_energy": -1.48, "cluster_size": 17, "cluster_id": 1, "rank_in_cluster": 7}

>  <energy>  (21) 
-8.41

>  <cluster_rmsd>  (21) 
0.97

>  <cluster>  (21) 
2

$$$$

     RDKit          3D

 47 50  0  0  0  0  0  0  0  0999 V2000
  138.8480   74.0390  220.0750 O   0  0  0  0  0  0  0  0  0  0  0  0
  138.7890   74.7010  221.1390 C   0  0  0  0  0  0  0  0  0  0  0  0
  137.8610   74.3640  222.1690 N   0  0  0  0  0  0  0  0  0  0  0  0
  136.9580   73.2410  222.0140 C   0  0  0  0  0  0  0  0  0  0  0  0
  137.1460   72.2300  223.0700 C   0  0  0  0  0  0  0  0  0  0  0  0
  136.3130   72.0370  223.9970 O   0  0  0  0  0  0  0  0  0  0  0  0
  138.3290   71.4420  223.0260 N   0  0  0  0  0  0  0  0  0  0  0  0
  139.6950   71.8430  222.7400 C   0  0  0  0  0  0  0  0  0  0  0  0
  140.1130   70.8100  221.7340 C   0  0  0  0  0  0  0  0  0  0  0  0
  139.2350   69.6070  222.0460 C   0  0  0  0  0  0  0  0  0  0  0  0
  138.4380   69.9870  223.2720 C   0  0  1  0  0  0  0  0  0  0  0  0
  139.0770   69.7090  224.5510 C   0  0  0  0  0  0  0  0  0  0  0  0
  139.1930   68.3730  224.9400 C   0  0  0  0  0  0  0  0  0  0  0  0
  139.7790   68.0410  226.1190 N   0  0  0  0  0  0  0  0  0  0  0  0
  140.2780   68.9400  226.9760 C   0  0  0  0  0  0  0  0  0  0  0  0
  141.0320   68.4740  228.4960 Cl  0  0  0  0  0  0  0  0  0  0  0  0
  140.1830   70.2830  226.6260 C   0  0  0  0  0  0  0  0  0  0  0  0
  140.8250   71.5150  227.7200 Cl  0  0  0  0  0  0  0  0  0  0  0  0
  139.5870   70.6360  225.4270 C   0  0  0  0  0  0  0  0  0  0  0  0
  139.6710   75.8500  221.3710 C   0  0  0  0  0  0  0  0  0  0  0  0
  140.8280   75.9850  220.6360 C   0  0  0  0  0  0  0  0  0  0  0  0
  141.6790   77.0750  220.8450 C   0  0  0  0  0  0  0  0  0  0  0  0
  141.3660   78.0280  221.7910 C   0  0  0  0  0  0  0  0  0  0  0  0
  142.1770   79.1160  222.0280 C   0  0  0  0  0  0  0  0  0  0  0  0
  141.8080   80.0510  222.9990 C   0  0  0  0  0  0  0  0  0  0  0  0
  142.6120   81.1350  223.2370 F   0  0  0  0  0  0  0  0  0  0  0  0
  140.6360   79.8910  223.7260 C   0  0  0  0  0  0  0  0  0  0  0  0
  139.8380   78.7910  223.4710 C   0  0  0  0  0  0  0  0  0  0  0  0
  140.1850   77.8550  222.5130 C   0  0  0  0  0  0  0  0  0  0  0  0
  139.3810   76.7980  222.2950 N   0  0  0  0  0  0  0  0  0  0  0  0
  137.8470   74.9500  223.0480 H   0  0  0  0  0  0  0  0  0  0  0  0
  135.9225   73.6098  222.0560 H   0  0  0  0  0  0  0  0  0  0  0  0
  137.1723   72.7644  221.0460 H   0  0  0  0  0  0  0  0  0  0  0  0
  139.7342   72.8563  222.3138 H   0  0  0  0  0  0  0  0  0  0  0  0
  140.3419   71.8874  223.6285 H   0  0  0  0  0  0  0  0  0  0  0  0
  139.9338   71.1684  220.7096 H   0  0  0  0  0  0  0  0  0  0  0  0
  141.1859   70.5747  221.7931 H   0  0  0  0  0  0  0  0  0  0  0  0
  138.5621   69.3946  221.2022 H   0  0  0  0  0  0  0  0  0  0  0  0
  139.8349   68.7011  222.2175 H   0  0  0  0  0  0  0  0  0  0  0  0
  137.5015   69.4194  223.3765 H   0  0  0  0  0  0  0  0  0  0  0  0
  138.8051   67.5801  224.2836 H   0  0  0  0  0  0  0  0  0  0  0  0
  139.5192   71.7023  225.1654 H   0  0  0  0  0  0  0  0  0  0  0  0
  141.0847   75.2296  219.8787 H   0  0  0  0  0  0  0  0  0  0  0  0
  142.6009   77.1723  220.2528 H   0  0  0  0  0  0  0  0  0  0  0  0
  143.1081   79.2479  221.4573 H   0  0  0  0  0  0  0  0  0  0  0  0
  140.3474   80.6264  224.4914 H   0  0  0  0  0  0  0  0  0  0  0  0
  138.9074   78.6572  224.0420 H   0  0  0  0  0  0  0  0  0  0  0  0
  1  2  2  0
  2  3  1  0
  3  4  1  0
  4  5  1  0
  5  6  2  0
  5  7  1  0
  7  8  1  0
  8  9  1  0
  9 10  1  0
 10 11  1  0
 11 12  1  0
 12 13  2  0
 13 14  1  0
 14 15  2  0
 15 16  1  0
 15 17  1  0
 17 18  1  0
 17 19  2  0
  2 20  1  0
 20 21  2  0
 21 22  1  0
 22 23  2  0
 23 24  1  0
 24 25  2  0
 25 26  1  0
 25 27  1  0
 27 28  2  0
 28 29  1  0
 29 30  2  0
 11  7  1  0
 19 12  1  0
 30 20  1  0
 29 23  1  0
  3 31  1  0
  4 32  1  0
  4 33  1  0
  8 34  1  0
  8 35  1  0
  9 36  1  0
  9 37  1  0
 10 38  1  0
 10 39  1  0
 11 40  1  1
 13 41  1  0
 19 42  1  0
 21 43  1  0
 22 44  1  0
 24 45  1  0
 27 46  1  0
 28 47  1  0
M  END
>  <smiles>  (22) 
O=C(NCC(=O)N1CCC[C@H]1c1cnc(Cl)c(Cl)c1)c1ccc2cc(F)ccc2n1

>  <score_type>  (22) 
oracle

>  <origin>  (22) 
autodockgpu

>  <m_score__min__energy>  (22) 
-8.9700000000000006

>  <m_primary>  (22) 
energy

>  <rmsd>  (22) 
7.863109593179939

>  <m_score__min__rmsd>  (22) 
7.863109593179939

>  <meeko>  (22) 
{"free_energy": -8.14, "intermolecular_energy": -9.63, "internal_energy": -1.51, "cluster_size": 6, "cluster_id": 2, "rank_in_cluster": 5}

>  <energy>  (22) 
-8.14

>  <cluster_rmsd>  (22) 
1.5

>  <cluster>  (22) 
2

$$$$

     RDKit          3D

 47 50  0  0  0  0  0  0  0  0999 V2000
  135.6550   71.3280  222.6770 O   0  0  0  0  0  0  0  0  0  0  0  0
  135.8150   72.4630  223.1860 C   0  0  0  0  0  0  0  0  0  0  0  0
  136.8830   73.3140  222.7730 N   0  0  0  0  0  0  0  0  0  0  0  0
  137.8140   72.8890  221.7480 C   0  0  0  0  0  0  0  0  0  0  0  0
  139.0550   72.3390  222.3210 C   0  0  0  0  0  0  0  0  0  0  0  0
  140.0830   73.0350  222.5420 O   0  0  0  0  0  0  0  0  0  0  0  0
  139.0780   70.9510  222.6350 N   0  0  0  0  0  0  0  0  0  0  0  0
  139.9390   69.9020  222.1180 C   0  0  0  0  0  0  0  0  0  0  0  0
  138.9440   68.8330  221.7710 C   0  0  0  0  0  0  0  0  0  0  0  0
  137.7680   69.0990  222.7000 C   0  0  0  0  0  0  0  0  0  0  0  0
  138.1990   70.2410  223.5900 C   0  0  1  0  0  0  0  0  0  0  0  0
  138.9200   69.8620  224.7970 C   0  0  0  0  0  0  0  0  0  0  0  0
  138.9610   68.5070  225.1300 C   0  0  0  0  0  0  0  0  0  0  0  0
  139.6170   68.0820  226.2390 N   0  0  0  0  0  0  0  0  0  0  0  0
  140.2580   68.9040  227.0790 C   0  0  0  0  0  0  0  0  0  0  0  0
  141.0990   68.3190  228.5100 Cl  0  0  0  0  0  0  0  0  0  0  0  0
  140.2420   70.2630  226.7850 C   0  0  0  0  0  0  0  0  0  0  0  0
  141.0730   71.3960  227.8580 Cl  0  0  0  0  0  0  0  0  0  0  0  0
  139.5770   70.7100  225.6560 C   0  0  0  0  0  0  0  0  0  0  0  0
  134.9130   72.9630  224.2290 C   0  0  0  0  0  0  0  0  0  0  0  0
  133.9770   72.1220  224.7870 C   0  0  0  0  0  0  0  0  0  0  0  0
  133.1100   72.5840  225.7830 C   0  0  0  0  0  0  0  0  0  0  0  0
  133.1840   73.8910  226.2150 C   0  0  0  0  0  0  0  0  0  0  0  0
  132.3490   74.3850  227.1920 C   0  0  0  0  0  0  0  0  0  0  0  0
  132.4710   75.7190  227.5910 C   0  0  0  0  0  0  0  0  0  0  0  0
  131.6410   76.2150  228.5640 F   0  0  0  0  0  0  0  0  0  0  0  0
  133.4230   76.5470  227.0110 C   0  0  0  0  0  0  0  0  0  0  0  0
  134.2500   76.0290  226.0320 C   0  0  0  0  0  0  0  0  0  0  0  0
  134.1460   74.7110  225.6250 C   0  0  0  0  0  0  0  0  0  0  0  0
  134.9700   74.2440  224.6680 N   0  0  0  0  0  0  0  0  0  0  0  0
  136.9780   74.2620  223.2300 H   0  0  0  0  0  0  0  0  0  0  0  0
  137.3340   72.1145  221.1318 H   0  0  0  0  0  0  0  0  0  0  0  0
  138.0801   73.7699  221.1454 H   0  0  0  0  0  0  0  0  0  0  0  0
  140.4915   70.2391  221.2286 H   0  0  0  0  0  0  0  0  0  0  0  0
  140.7168   69.5751  222.8238 H   0  0  0  0  0  0  0  0  0  0  0  0
  138.6354   68.9146  220.7183 H   0  0  0  0  0  0  0  0  0  0  0  0
  139.3553   67.8201  221.8927 H   0  0  0  0  0  0  0  0  0  0  0  0
  136.8770   69.3805  222.1196 H   0  0  0  0  0  0  0  0  0  0  0  0
  137.5036   68.2061  223.2854 H   0  0  0  0  0  0  0  0  0  0  0  0
  137.3553   70.8039  224.0158 H   0  0  0  0  0  0  0  0  0  0  0  0
  138.4547   67.7740  224.4847 H   0  0  0  0  0  0  0  0  0  0  0  0
  139.5744   71.7881  225.4376 H   0  0  0  0  0  0  0  0  0  0  0  0
  133.9102   71.0780  224.4470 H   0  0  0  0  0  0  0  0  0  0  0  0
  132.3671   71.9023  226.2227 H   0  0  0  0  0  0  0  0  0  0  0  0
  131.5919   73.7350  227.6549 H   0  0  0  0  0  0  0  0  0  0  0  0
  133.5174   77.5969  227.3252 H   0  0  0  0  0  0  0  0  0  0  0  0
  135.0064   76.6782  225.5669 H   0  0  0  0  0  0  0  0  0  0  0  0
  1  2  2  0
  2  3  1  0
  3  4  1  0
  4  5  1  0
  5  6  2  0
  5  7  1  0
  7  8  1  0
  8  9  1  0
  9 10  1  0
 10 11  1  0
 11 12  1  0
 12 13  2  0
 13 14  1  0
 14 15  2  0
 15 16  1  0
 15 17  1  0
 17 18  1  0
 17 19  2  0
  2 20  1  0
 20 21  2  0
 21 22  1  0
 22 23  2  0
 23 24  1  0
 24 25  2  0
 25 26  1  0
 25 27  1  0
 27 28  2  0
 28 29  1  0
 29 30  2  0
 11  7  1  0
 19 12  1  0
 30 20  1  0
 29 23  1  0
  3 31  1  0
  4 32  1  0
  4 33  1  0
  8 34  1  0
  8 35  1  0
  9 36  1  0
  9 37  1  0
 10 38  1  0
 10 39  1  0
 11 40  1  1
 13 41  1  0
 19 42  1  0
 21 43  1  0
 22 44  1  0
 24 45  1  0
 27 46  1  0
 28 47  1  0
M  END
>  <smiles>  (23) 
O=C(NCC(=O)N1CCC[C@H]1c1cnc(Cl)c(Cl)c1)c1ccc2cc(F)ccc2n1

>  <score_type>  (23) 
oracle

>  <origin>  (23) 
autodockgpu

>  <m_score__min__energy>  (23) 
-8.9700000000000006

>  <m_primary>  (23) 
energy

>  <rmsd>  (23) 
7.321725206496187

>  <m_score__min__rmsd>  (23) 
7.321725206496187

>  <meeko>  (23) 
{"free_energy": -7.86, "intermolecular_energy": -9.35, "internal_energy": -1.87, "cluster_size": 5, "cluster_id": 5, "rank_in_cluster": 3}

>  <energy>  (23) 
-7.92

>  <cluster_rmsd>  (23) 
1.44

>  <cluster>  (23) 
2

$$$$

     RDKit          3D

 47 50  0  0  0  0  0  0  0  0999 V2000
  138.3810   70.7310  221.7550 O   0  0  0  0  0  0  0  0  0  0  0  0
  138.9340   71.2000  222.7790 C   0  0  0  0  0  0  0  0  0  0  0  0
  139.2810   72.5820  222.8650 N   0  0  0  0  0  0  0  0  0  0  0  0
  139.0010   73.4850  221.7670 C   0  0  0  0  0  0  0  0  0  0  0  0
  139.9690   74.5940  221.7040 C   0  0  0  0  0  0  0  0  0  0  0  0
  141.2130   74.4360  221.8340 O   0  0  0  0  0  0  0  0  0  0  0  0
  139.4570   75.9040  221.4850 N   0  0  0  0  0  0  0  0  0  0  0  0
  138.2650   76.5320  222.0250 C   0  0  0  0  0  0  0  0  0  0  0  0
  137.6390   77.1130  220.7900 C   0  0  0  0  0  0  0  0  0  0  0  0
  138.8110   77.3330  219.8450 C   0  0  0  0  0  0  0  0  0  0  0  0
  140.0470   76.9560  220.6280 C   0  0  1  0  0  0  0  0  0  0  0  0
  140.6370   78.0230  221.4250 C   0  0  0  0  0  0  0  0  0  0  0  0
  141.1540   77.6870  222.6770 C   0  0  0  0  0  0  0  0  0  0  0  0
  141.7210   78.6300  223.4720 N   0  0  0  0  0  0  0  0  0  0  0  0
  141.8250   79.9190  223.1300 C   0  0  0  0  0  0  0  0  0  0  0  0
  142.5660   81.1160  224.1860 Cl  0  0  0  0  0  0  0  0  0  0  0  0
  141.3220   80.2980  221.8900 C   0  0  0  0  0  0  0  0  0  0  0  0
  141.4320   81.9880  221.3840 Cl  0  0  0  0  0  0  0  0  0  0  0  0
  140.7420   79.3460  221.0690 C   0  0  0  0  0  0  0  0  0  0  0  0
  139.2480   70.3490  223.9310 C   0  0  0  0  0  0  0  0  0  0  0  0
  138.9400   69.0070  223.8960 C   0  0  0  0  0  0  0  0  0  0  0  0
  139.2330   68.1820  224.9870 C   0  0  0  0  0  0  0  0  0  0  0  0
  139.8360   68.7060  226.1110 C   0  0  0  0  0  0  0  0  0  0  0  0
  140.1410   67.9290  227.2060 C   0  0  0  0  0  0  0  0  0  0  0  0
  140.7530   68.5150  228.3170 C   0  0  0  0  0  0  0  0  0  0  0  0
  141.0580   67.7440  229.4090 F   0  0  0  0  0  0  0  0  0  0  0  0
  141.0520   69.8710  228.3270 C   0  0  0  0  0  0  0  0  0  0  0  0
  140.7370   70.6320  227.2160 C   0  0  0  0  0  0  0  0  0  0  0  0
  140.1320   70.0690  226.1060 C   0  0  0  0  0  0  0  0  0  0  0  0
  139.8410   70.8440  225.0440 N   0  0  0  0  0  0  0  0  0  0  0  0
  139.7450   72.9310  223.7470 H   0  0  0  0  0  0  0  0  0  0  0  0
  139.0449   72.9212  220.8235 H   0  0  0  0  0  0  0  0  0  0  0  0
  138.0014   73.9152  221.9273 H   0  0  0  0  0  0  0  0  0  0  0  0
  137.6030   75.7931  222.5001 H   0  0  0  0  0  0  0  0  0  0  0  0
  138.4689   77.2727  222.8123 H   0  0  0  0  0  0  0  0  0  0  0  0
  136.9127   76.4114  220.3539 H   0  0  0  0  0  0  0  0  0  0  0  0
  137.0840   78.0402  220.9955 H   0  0  0  0  0  0  0  0  0  0  0  0
  138.7112   76.6936  218.9555 H   0  0  0  0  0  0  0  0  0  0  0  0
  138.8569   78.3739  219.4921 H   0  0  0  0  0  0  0  0  0  0  0  0
  140.8975   76.6720  219.9908 H   0  0  0  0  0  0  0  0  0  0  0  0
  141.1014   76.6445  223.0241 H   0  0  0  0  0  0  0  0  0  0  0  0
  140.3490   79.6618  220.0913 H   0  0  0  0  0  0  0  0  0  0  0  0
  138.4598   68.5806  223.0030 H   0  0  0  0  0  0  0  0  0  0  0  0
  138.9816   67.1118  224.9482 H   0  0  0  0  0  0  0  0  0  0  0  0
  139.9046   66.8547  227.2061 H   0  0  0  0  0  0  0  0  0  0  0  0
  141.5311   70.3319  229.2034 H   0  0  0  0  0  0  0  0  0  0  0  0
  140.9721   71.7066  227.2146 H   0  0  0  0  0  0  0  0  0  0  0  0
  1  2  2  0
  2  3  1  0
  3  4  1  0
  4  5  1  0
  5  6  2  0
  5  7  1  0
  7  8  1  0
  8  9  1  0
  9 10  1  0
 10 11  1  0
 11 12  1  0
 12 13  2  0
 13 14  1  0
 14 15  2  0
 15 16  1  0
 15 17  1  0
 17 18  1  0
 17 19  2  0
  2 20  1  0
 20 21  2  0
 21 22  1  0
 22 23  2  0
 23 24  1  0
 24 25  2  0
 25 26  1  0
 25 27  1  0
 27 28  2  0
 28 29  1  0
 29 30  2  0
 11  7  1  0
 19 12  1  0
 30 20  1  0
 29 23  1  0
  3 31  1  0
  4 32  1  0
  4 33  1  0
  8 34  1  0
  8 35  1  0
  9 36  1  0
  9 37  1  0
 10 38  1  0
 10 39  1  0
 11 40  1  6
 13 41  1  0
 19 42  1  0
 21 43  1  0
 22 44  1  0
 24 45  1  0
 27 46  1  0
 28 47  1  0
M  END
>  <smiles>  (24) 
O=C(NCC(=O)N1CCC[C@H]1c1cnc(Cl)c(Cl)c1)c1ccc2cc(F)ccc2n1

>  <score_type>  (24) 
oracle

>  <origin>  (24) 
autodockgpu

>  <m_score__min__energy>  (24) 
-8.9700000000000006

>  <m_primary>  (24) 
energy

>  <rmsd>  (24) 
2.008636115236732

>  <m_score__min__rmsd>  (24) 
2.008636115236732

>  <meeko>  (24) 
{"free_energy": -8.51, "intermolecular_energy": -10.0, "internal_energy": -1.44, "cluster_size": 17, "cluster_id": 1, "rank_in_cluster": 2}

>  <energy>  (24) 
-8.57

>  <cluster_rmsd>  (24) 
0.0

>  <cluster>  (24) 
3

$$$$

     RDKit          3D

 47 50  0  0  0  0  0  0  0  0999 V2000
  140.7380   71.7160  221.9340 O   0  0  0  0  0  0  0  0  0  0  0  0
  139.8230   71.7210  222.7920 C   0  0  0  0  0  0  0  0  0  0  0  0
  138.7250   72.6280  222.6970 N   0  0  0  0  0  0  0  0  0  0  0  0
  138.6360   73.5690  221.5990 C   0  0  0  0  0  0  0  0  0  0  0  0
  139.5980   74.6760  221.7410 C   0  0  0  0  0  0  0  0  0  0  0  0
  140.8470   74.5050  221.7920 O   0  0  0  0  0  0  0  0  0  0  0  0
  139.0770   75.9970  221.8230 N   0  0  0  0  0  0  0  0  0  0  0  0
  138.0850   76.5440  222.7310 C   0  0  0  0  0  0  0  0  0  0  0  0
  137.1680   77.2640  221.7860 C   0  0  0  0  0  0  0  0  0  0  0  0
  138.0520   77.6070  220.5960 C   0  0  0  0  0  0  0  0  0  0  0  0
  139.4420   77.1510  220.9710 C   0  0  1  0  0  0  0  0  0  0  0  0
  140.2470   78.1200  221.7030 C   0  0  0  0  0  0  0  0  0  0  0  0
  141.0400   77.6450  222.7490 C   0  0  0  0  0  0  0  0  0  0  0  0
  141.8160   78.4920  223.4720 N   0  0  0  0  0  0  0  0  0  0  0  0
  141.8820   79.8090  223.2480 C   0  0  0  0  0  0  0  0  0  0  0  0
  142.9000   80.8780  224.2060 Cl  0  0  0  0  0  0  0  0  0  0  0  0
  141.1070   80.3240  222.2140 C   0  0  0  0  0  0  0  0  0  0  0  0
  141.1530   82.0580  221.8710 Cl  0  0  0  0  0  0  0  0  0  0  0  0
  140.3100   79.4720  221.4680 C   0  0  0  0  0  0  0  0  0  0  0  0
  139.8440   70.7980  223.9310 C   0  0  0  0  0  0  0  0  0  0  0  0
  139.2470   69.5610  223.8220 C   0  0  0  0  0  0  0  0  0  0  0  0
  139.2580   68.6690  224.8990 C   0  0  0  0  0  0  0  0  0  0  0  0
  139.8680   69.0210  226.0850 C   0  0  0  0  0  0  0  0  0  0  0  0
  139.9000   68.1720  227.1690 C   0  0  0  0  0  0  0  0  0  0  0  0
  140.5340   68.5830  228.3450 C   0  0  0  0  0  0  0  0  0  0  0  0
  140.5680   67.7410  229.4260 F   0  0  0  0  0  0  0  0  0  0  0  0
  141.1270   69.8360  228.4300 C   0  0  0  0  0  0  0  0  0  0  0  0
  141.0810   70.6700  227.3280 C   0  0  0  0  0  0  0  0  0  0  0  0
  140.4600   70.2820  226.1540 C   0  0  0  0  0  0  0  0  0  0  0  0
  140.4380   71.1240  225.1050 N   0  0  0  0  0  0  0  0  0  0  0  0
  137.9780   72.5950  223.4430 H   0  0  0  0  0  0  0  0  0  0  0  0
  138.8425   73.0376  220.6583 H   0  0  0  0  0  0  0  0  0  0  0  0
  137.6228   73.9973  221.6001 H   0  0  0  0  0  0  0  0  0  0  0  0
  137.5556   75.7468  223.2734 H   0  0  0  0  0  0  0  0  0  0  0  0
  138.5074   77.1861  223.5180 H   0  0  0  0  0  0  0  0  0  0  0  0
  136.3356   76.6138  221.4789 H   0  0  0  0  0  0  0  0  0  0  0  0
  136.7095   78.1546  222.2406 H   0  0  0  0  0  0  0  0  0  0  0  0
  137.7051   77.0781  219.6961 H   0  0  0  0  0  0  0  0  0  0  0  0
  138.0263   78.6831  220.3694 H   0  0  0  0  0  0  0  0  0  0  0  0
  140.0862   76.9546  220.1012 H   0  0  0  0  0  0  0  0  0  0  0  0
  141.0360   76.5718  222.9901 H   0  0  0  0  0  0  0  0  0  0  0  0
  139.7027   79.8950  220.6542 H   0  0  0  0  0  0  0  0  0  0  0  0
  138.7576   69.2727  222.8800 H   0  0  0  0  0  0  0  0  0  0  0  0
  138.7788   67.6838  224.8000 H   0  0  0  0  0  0  0  0  0  0  0  0
  139.4306   67.1789  227.1098 H   0  0  0  0  0  0  0  0  0  0  0  0
  141.6240   70.1589  229.3567 H   0  0  0  0  0  0  0  0  0  0  0  0
  141.5485   71.6640  227.3860 H   0  0  0  0  0  0  0  0  0  0  0  0
  1  2  2  0
  2  3  1  0
  3  4  1  0
  4  5  1  0
  5  6  2  0
  5  7  1  0
  7  8  1  0
  8  9  1  0
  9 10  1  0
 10 11  1  0
 11 12  1  0
 12 13  2  0
 13 14  1  0
 14 15  2  0
 15 16  1  0
 15 17  1  0
 17 18  1  0
 17 19  2  0
  2 20  1  0
 20 21  2  0
 21 22  1  0
 22 23  2  0
 23 24  1  0
 24 25  2  0
 25 26  1  0
 25 27  1  0
 27 28  2  0
 28 29  1  0
 29 30  2  0
 11  7  1  0
 19 12  1  0
 30 20  1  0
 29 23  1  0
  3 31  1  0
  4 32  1  0
  4 33  1  0
  8 34  1  0
  8 35  1  0
  9 36  1  0
  9 37  1  0
 10 38  1  0
 10 39  1  0
 11 40  1  6
 13 41  1  0
 19 42  1  0
 21 43  1  0
 22 44  1  0
 24 45  1  0
 27 46  1  0
 28 47  1  0
M  END
>  <smiles>  (25) 
O=C(NCC(=O)N1CCC[C@H]1c1cnc(Cl)c(Cl)c1)c1ccc2cc(F)ccc2n1

>  <score_type>  (25) 
oracle

>  <origin>  (25) 
autodockgpu

>  <m_score__min__energy>  (25) 
-8.9700000000000006

>  <m_primary>  (25) 
energy

>  <rmsd>  (25) 
2.441264594084086

>  <m_score__min__rmsd>  (25) 
2.441264594084086

>  <meeko>  (25) 
{"free_energy": -8.97, "intermolecular_energy": -10.46, "internal_energy": -1.07, "cluster_size": 17, "cluster_id": 1, "rank_in_cluster": 1}

>  <energy>  (25) 
-8.44

>  <cluster_rmsd>  (25) 
0.0

>  <cluster>  (25) 
4

$$$$

     RDKit          3D

 47 50  0  0  0  0  0  0  0  0999 V2000
  140.8950   73.0010  222.2720 O   0  0  0  0  0  0  0  0  0  0  0  0
  139.8520   72.5490  222.8020 C   0  0  0  0  0  0  0  0  0  0  0  0
  138.5610   73.0170  222.4130 N   0  0  0  0  0  0  0  0  0  0  0  0
  138.4200   74.0300  221.3870 C   0  0  0  0  0  0  0  0  0  0  0  0
  137.9990   75.3270  221.9440 C   0  0  0  0  0  0  0  0  0  0  0  0
  138.7870   76.2990  222.1050 O   0  0  0  0  0  0  0  0  0  0  0  0
  136.6340   75.4740  222.3160 N   0  0  0  0  0  0  0  0  0  0  0  0
  135.4340   75.2480  221.5310 C   0  0  0  0  0  0  0  0  0  0  0  0
  134.6510   76.5010  221.8010 C   0  0  0  0  0  0  0  0  0  0  0  0
  135.1490   76.9670  223.1620 C   0  0  0  0  0  0  0  0  0  0  0  0
  136.1130   75.9040  223.6330 C   0  0  1  0  0  0  0  0  0  0  0  0
  135.5170   74.7910  224.3590 C   0  0  0  0  0  0  0  0  0  0  0  0
  134.6860   75.0930  225.4400 C   0  0  0  0  0  0  0  0  0  0  0  0
  134.0960   74.1050  226.1600 N   0  0  0  0  0  0  0  0  0  0  0  0
  134.2590   72.8030  225.9020 C   0  0  0  0  0  0  0  0  0  0  0  0
  133.4780   71.5480  226.8570 Cl  0  0  0  0  0  0  0  0  0  0  0  0
  135.0800   72.4580  224.8330 C   0  0  0  0  0  0  0  0  0  0  0  0
  135.3320   70.7520  224.4440 Cl  0  0  0  0  0  0  0  0  0  0  0  0
  135.6880   73.4550  224.0890 C   0  0  0  0  0  0  0  0  0  0  0  0
  139.9140   71.5220  223.8480 C   0  0  0  0  0  0  0  0  0  0  0  0
  139.4540   70.2500  223.5870 C   0  0  0  0  0  0  0  0  0  0  0  0
  139.5060   69.2590  224.5730 C   0  0  0  0  0  0  0  0  0  0  0  0
  140.0190   69.5480  225.8190 C   0  0  0  0  0  0  0  0  0  0  0  0
  140.0880   68.6020  226.8180 C   0  0  0  0  0  0  0  0  0  0  0  0
  140.6200   68.9520  228.0620 C   0  0  0  0  0  0  0  0  0  0  0  0
  140.6890   68.0120  229.0580 F   0  0  0  0  0  0  0  0  0  0  0  0
  141.0750   70.2420  228.2990 C   0  0  0  0  0  0  0  0  0  0  0  0
  140.9960   71.1750  227.2820 C   0  0  0  0  0  0  0  0  0  0  0  0
  140.4750   70.8470  226.0430 C   0  0  0  0  0  0  0  0  0  0  0  0
  140.4150   71.7840  225.0790 N   0  0  0  0  0  0  0  0  0  0  0  0
  137.7110   72.6070  222.8880 H   0  0  0  0  0  0  0  0  0  0  0  0
  139.3877   74.1588  220.8802 H   0  0  0  0  0  0  0  0  0  0  0  0
  137.6432   73.6947  220.6840 H   0  0  0  0  0  0  0  0  0  0  0  0
  135.6685   75.1447  220.4613 H   0  0  0  0  0  0  0  0  0  0  0  0
  134.8987   74.3229  221.7912 H   0  0  0  0  0  0  0  0  0  0  0  0
  134.8524   77.2603  221.0310 H   0  0  0  0  0  0  0  0  0  0  0  0
  133.5645   76.3302  221.7859 H   0  0  0  0  0  0  0  0  0  0  0  0
  135.6616   77.9360  223.0712 H   0  0  0  0  0  0  0  0  0  0  0  0
  134.3196   77.1047  223.8714 H   0  0  0  0  0  0  0  0  0  0  0  0
  136.8420   76.2718  224.3700 H   0  0  0  0  0  0  0  0  0  0  0  0
  134.5075   76.1440  225.7112 H   0  0  0  0  0  0  0  0  0  0  0  0
  136.3344   73.1654  223.2474 H   0  0  0  0  0  0  0  0  0  0  0  0
  139.0424   70.0116  222.5952 H   0  0  0  0  0  0  0  0  0  0  0  0
  139.1365   68.2465  224.3532 H   0  0  0  0  0  0  0  0  0  0  0  0
  139.7270   67.5786  226.6379 H   0  0  0  0  0  0  0  0  0  0  0  0
  141.4913   70.5170  229.2793 H   0  0  0  0  0  0  0  0  0  0  0  0
  141.3547   72.1992  227.4615 H   0  0  0  0  0  0  0  0  0  0  0  0
  1  2  2  0
  2  3  1  0
  3  4  1  0
  4  5  1  0
  5  6  2  0
  5  7  1  0
  7  8  1  0
  8  9  1  0
  9 10  1  0
 10 11  1  0
 11 12  1  0
 12 13  2  0
 13 14  1  0
 14 15  2  0
 15 16  1  0
 15 17  1  0
 17 18  1  0
 17 19  2  0
  2 20  1  0
 20 21  2  0
 21 22  1  0
 22 23  2  0
 23 24  1  0
 24 25  2  0
 25 26  1  0
 25 27  1  0
 27 28  2  0
 28 29  1  0
 29 30  2  0
 11  7  1  0
 19 12  1  0
 30 20  1  0
 29 23  1  0
  3 31  1  0
  4 32  1  0
  4 33  1  0
  8 34  1  0
  8 35  1  0
  9 36  1  0
  9 37  1  0
 10 38  1  0
 10 39  1  0
 11 40  1  1
 13 41  1  0
 19 42  1  0
 21 43  1  0
 22 44  1  0
 24 45  1  0
 27 46  1  0
 28 47  1  0
M  END
>  <smiles>  (26) 
O=C(NCC(=O)N1CCC[C@H]1c1cnc(Cl)c(Cl)c1)c1ccc2cc(F)ccc2n1

>  <score_type>  (26) 
oracle

>  <origin>  (26) 
autodockgpu

>  <m_score__min__energy>  (26) 
-8.9700000000000006

>  <m_primary>  (26) 
energy

>  <rmsd>  (26) 
3.7675940315871883

>  <m_score__min__rmsd>  (26) 
3.7675940315871883

>  <meeko>  (26) 
{"free_energy": -8.01, "intermolecular_energy": -9.51, "internal_energy": -1.66, "cluster_size": 12, "cluster_id": 7, "rank_in_cluster": 2}

>  <energy>  (26) 
-8.35

>  <cluster_rmsd>  (26) 
0.86

>  <cluster>  (26) 
4

$$$$

     RDKit          3D

 47 50  0  0  0  0  0  0  0  0999 V2000
  138.5850   70.8320  221.3340 O   0  0  0  0  0  0  0  0  0  0  0  0
  138.7610   71.6040  222.3070 C   0  0  0  0  0  0  0  0  0  0  0  0
  138.3830   72.9780  222.2380 N   0  0  0  0  0  0  0  0  0  0  0  0
  137.7810   73.5210  221.0370 C   0  0  0  0  0  0  0  0  0  0  0  0
  138.7750   73.7440  219.9720 C   0  0  0  0  0  0  0  0  0  0  0  0
  138.6920   73.2190  218.8290 O   0  0  0  0  0  0  0  0  0  0  0  0
  139.8760   74.5960  220.2650 N   0  0  0  0  0  0  0  0  0  0  0  0
  140.6540   75.4390  219.3750 C   0  0  0  0  0  0  0  0  0  0  0  0
  142.0590   75.0760  219.7610 C   0  0  0  0  0  0  0  0  0  0  0  0
  141.9420   74.6080  221.2040 C   0  0  0  0  0  0  0  0  0  0  0  0
  140.4970   74.8220  221.5890 C   0  0  1  0  0  0  0  0  0  0  0  0
  140.1720   76.1430  222.1110 C   0  0  0  0  0  0  0  0  0  0  0  0
  138.8240   76.4540  222.2930 C   0  0  0  0  0  0  0  0  0  0  0  0
  138.4490   77.6660  222.7780 N   0  0  0  0  0  0  0  0  0  0  0  0
  139.3160   78.6290  223.1090 C   0  0  0  0  0  0  0  0  0  0  0  0
  138.7960   80.1890  223.7350 Cl  0  0  0  0  0  0  0  0  0  0  0  0
  140.6710   78.3600  222.9430 C   0  0  0  0  0  0  0  0  0  0  0  0
  141.8630   79.5960  223.3650 Cl  0  0  0  0  0  0  0  0  0  0  0  0
  141.0670   77.1290  222.4500 C   0  0  0  0  0  0  0  0  0  0  0  0
  139.3640   71.1280  223.5560 C   0  0  0  0  0  0  0  0  0  0  0  0
  140.3100   71.8970  224.1970 C   0  0  0  0  0  0  0  0  0  0  0  0
  140.8940   71.4580  225.3890 C   0  0  0  0  0  0  0  0  0  0  0  0
  140.5290   70.2450  225.9350 C   0  0  0  0  0  0  0  0  0  0  0  0
  141.0810   69.7760  227.1070 C   0  0  0  0  0  0  0  0  0  0  0  0
  140.6700   68.5400  227.6130 C   0  0  0  0  0  0  0  0  0  0  0  0
  141.2170   68.0700  228.7790 F   0  0  0  0  0  0  0  0  0  0  0  0
  139.7150   67.7830  226.9470 C   0  0  0  0  0  0  0  0  0  0  0  0
  139.1760   68.2750  225.7730 C   0  0  0  0  0  0  0  0  0  0  0  0
  139.5680   69.4970  225.2560 C   0  0  0  0  0  0  0  0  0  0  0  0
  139.0190   69.9410  224.1090 N   0  0  0  0  0  0  0  0  0  0  0  0
  138.5510   73.5910  223.0830 H   0  0  0  0  0  0  0  0  0  0  0  0
  137.0208   72.8153  220.6708 H   0  0  0  0  0  0  0  0  0  0  0  0
  137.3330   74.4928  221.2917 H   0  0  0  0  0  0  0  0  0  0  0  0
  140.4538   75.2003  218.3200 H   0  0  0  0  0  0  0  0  0  0  0  0
  140.4292   76.5119  219.4669 H   0  0  0  0  0  0  0  0  0  0  0  0
  142.4436   74.2694  219.1195 H   0  0  0  0  0  0  0  0  0  0  0  0
  142.7576   75.9180  219.6470 H   0  0  0  0  0  0  0  0  0  0  0  0
  142.2063   73.5433  221.2842 H   0  0  0  0  0  0  0  0  0  0  0  0
  142.6241   75.1614  221.8662 H   0  0  0  0  0  0  0  0  0  0  0  0
  140.1678   74.1798  222.4192 H   0  0  0  0  0  0  0  0  0  0  0  0
  138.0556   75.7085  222.0406 H   0  0  0  0  0  0  0  0  0  0  0  0
  142.1419   76.9319  222.3244 H   0  0  0  0  0  0  0  0  0  0  0  0
  140.6085   72.8647  223.7675 H   0  0  0  0  0  0  0  0  0  0  0  0
  141.6469   72.0818  225.8930 H   0  0  0  0  0  0  0  0  0  0  0  0
  141.8387   70.3694  227.6398 H   0  0  0  0  0  0  0  0  0  0  0  0
  139.3934   66.8098  227.3463 H   0  0  0  0  0  0  0  0  0  0  0  0
  138.4192   67.6822  225.2383 H   0  0  0  0  0  0  0  0  0  0  0  0
  1  2  2  0
  2  3  1  0
  3  4  1  0
  4  5  1  0
  5  6  2  0
  5  7  1  0
  7  8  1  0
  8  9  1  0
  9 10  1  0
 10 11  1  0
 11 12  1  0
 12 13  2  0
 13 14  1  0
 14 15  2  0
 15 16  1  0
 15 17  1  0
 17 18  1  0
 17 19  2  0
  2 20  1  0
 20 21  2  0
 21 22  1  0
 22 23  2  0
 23 24  1  0
 24 25  2  0
 25 26  1  0
 25 27  1  0
 27 28  2  0
 28 29  1  0
 29 30  2  0
 11  7  1  0
 19 12  1  0
 30 20  1  0
 29 23  1  0
  3 31  1  0
  4 32  1  0
  4 33  1  0
  8 34  1  0
  8 35  1  0
  9 36  1  0
  9 37  1  0
 10 38  1  0
 10 39  1  0
 11 40  1  1
 13 41  1  0
 19 42  1  0
 21 43  1  0
 22 44  1  0
 24 45  1  0
 27 46  1  0
 28 47  1  0
M  END
>  <smiles>  (27) 
O=C(NCC(=O)N1CCC[C@H]1c1cnc(Cl)c(Cl)c1)c1ccc2cc(F)ccc2n1

>  <score_type>  (27) 
oracle

>  <origin>  (27) 
autodockgpu

>  <m_score__min__energy>  (27) 
-8.9700000000000006

>  <m_primary>  (27) 
energy

>  <rmsd>  (27) 
2.9461104984557163

>  <m_score__min__rmsd>  (27) 
2.9461104984557163

>  <meeko>  (27) 
{"free_energy": -8.03, "intermolecular_energy": -9.53, "internal_energy": -1.49, "cluster_size": 17, "cluster_id": 1, "rank_in_cluster": 12}

>  <energy>  (27) 
-8.28

>  <cluster_rmsd>  (27) 
0.5

>  <cluster>  (27) 
4

$$$$

     RDKit          3D

 47 50  0  0  0  0  0  0  0  0999 V2000
  137.7470   70.9270  221.7040 O   0  0  0  0  0  0  0  0  0  0  0  0
  138.4620   71.3960  222.6220 C   0  0  0  0  0  0  0  0  0  0  0  0
  138.9060   72.7520  222.5940 N   0  0  0  0  0  0  0  0  0  0  0  0
  138.5410   73.6280  221.4990 C   0  0  0  0  0  0  0  0  0  0  0  0
  138.1120   74.9560  221.9730 C   0  0  0  0  0  0  0  0  0  0  0  0
  138.9030   75.9270  222.1180 O   0  0  0  0  0  0  0  0  0  0  0  0
  136.7340   75.1340  222.2790 N   0  0  0  0  0  0  0  0  0  0  0  0
  135.5640   74.8640  221.4630 C   0  0  0  0  0  0  0  0  0  0  0  0
  134.7820   76.1360  221.6180 C   0  0  0  0  0  0  0  0  0  0  0  0
  135.2280   76.6870  222.9640 C   0  0  0  0  0  0  0  0  0  0  0  0
  136.1640   75.6520  223.5430 C   0  0  1  0  0  0  0  0  0  0  0  0
  135.5310   74.5920  224.3160 C   0  0  0  0  0  0  0  0  0  0  0  0
  134.6930   74.9690  225.3670 C   0  0  0  0  0  0  0  0  0  0  0  0
  134.0690   74.0350  226.1280 N   0  0  0  0  0  0  0  0  0  0  0  0
  134.2030   72.7170  225.9380 C   0  0  0  0  0  0  0  0  0  0  0  0
  133.3780   71.5320  226.9440 Cl  0  0  0  0  0  0  0  0  0  0  0  0
  135.0290   72.2980  224.9000 C   0  0  0  0  0  0  0  0  0  0  0  0
  135.2430   70.5690  224.6020 Cl  0  0  0  0  0  0  0  0  0  0  0  0
  135.6720   73.2410  224.1160 C   0  0  0  0  0  0  0  0  0  0  0  0
  138.8720   70.5720  223.7630 C   0  0  0  0  0  0  0  0  0  0  0  0
  138.5490   69.2330  223.7930 C   0  0  0  0  0  0  0  0  0  0  0  0
  138.9340   68.4340  224.8750 C   0  0  0  0  0  0  0  0  0  0  0  0
  139.6420   68.9800  225.9240 C   0  0  0  0  0  0  0  0  0  0  0  0
  140.0380   68.2270  227.0070 C   0  0  0  0  0  0  0  0  0  0  0  0
  140.7550   68.8360  228.0420 C   0  0  0  0  0  0  0  0  0  0  0  0
  141.1520   68.0890  229.1210 F   0  0  0  0  0  0  0  0  0  0  0  0
  141.0680   70.1870  227.9870 C   0  0  0  0  0  0  0  0  0  0  0  0
  140.6590   70.9220  226.8900 C   0  0  0  0  0  0  0  0  0  0  0  0
  139.9500   70.3390  225.8550 C   0  0  0  0  0  0  0  0  0  0  0  0
  139.5690   71.0890  224.8040 N   0  0  0  0  0  0  0  0  0  0  0  0
  139.5070   73.1030  223.3890 H   0  0  0  0  0  0  0  0  0  0  0  0
  139.4113   73.7512  220.8376 H   0  0  0  0  0  0  0  0  0  0  0  0
  137.6963   73.1692  220.9642 H   0  0  0  0  0  0  0  0  0  0  0  0
  135.8399   74.6888  220.4127 H   0  0  0  0  0  0  0  0  0  0  0  0
  135.0108   73.9615  221.7619 H   0  0  0  0  0  0  0  0  0  0  0  0
  135.0211   76.8419  220.8090 H   0  0  0  0  0  0  0  0  0  0  0  0
  133.6955   75.9711  221.5695 H   0  0  0  0  0  0  0  0  0  0  0  0
  135.7516   77.6452  222.8311 H   0  0  0  0  0  0  0  0  0  0  0  0
  134.3716   76.8750  223.6283 H   0  0  0  0  0  0  0  0  0  0  0  0
  136.8654   76.0636  224.2837 H   0  0  0  0  0  0  0  0  0  0  0  0
  134.5366   76.0366  225.5808 H   0  0  0  0  0  0  0  0  0  0  0  0
  136.3223   72.8936  223.2997 H   0  0  0  0  0  0  0  0  0  0  0  0
  137.9842   68.7889  222.9601 H   0  0  0  0  0  0  0  0  0  0  0  0
  138.6707   67.3661  224.8886 H   0  0  0  0  0  0  0  0  0  0  0  0
  139.7925   67.1559  227.0576 H   0  0  0  0  0  0  0  0  0  0  0  0
  141.6316   70.6645  228.8020 H   0  0  0  0  0  0  0  0  0  0  0  0
  140.9025   71.9935  226.8389 H   0  0  0  0  0  0  0  0  0  0  0  0
  1  2  2  0
  2  3  1  0
  3  4  1  0
  4  5  1  0
  5  6  2  0
  5  7  1  0
  7  8  1  0
  8  9  1  0
  9 10  1  0
 10 11  1  0
 11 12  1  0
 12 13  2  0
 13 14  1  0
 14 15  2  0
 15 16  1  0
 15 17  1  0
 17 18  1  0
 17 19  2  0
  2 20  1  0
 20 21  2  0
 21 22  1  0
 22 23  2  0
 23 24  1  0
 24 25  2  0
 25 26  1  0
 25 27  1  0
 27 28  2  0
 28 29  1  0
 29 30  2  0
 11  7  1  0
 19 12  1  0
 30 20  1  0
 29 23  1  0
  3 31  1  0
  4 32  1  0
  4 33  1  0
  8 34  1  0
  8 35  1  0
  9 36  1  0
  9 37  1  0
 10 38  1  0
 10 39  1  0
 11 40  1  1
 13 41  1  0
 19 42  1  0
 21 43  1  0
 22 44  1  0
 24 45  1  0
 27 46  1  0
 28 47  1  0
M  END
>  <smiles>  (28) 
O=C(NCC(=O)N1CCC[C@H]1c1cnc(Cl)c(Cl)c1)c1ccc2cc(F)ccc2n1

>  <score_type>  (28) 
oracle

>  <origin>  (28) 
autodockgpu

>  <m_score__min__energy>  (28) 
-8.9700000000000006

>  <m_primary>  (28) 
energy

>  <rmsd>  (28) 
3.616927448657469

>  <m_score__min__rmsd>  (28) 
3.616927448657469

>  <meeko>  (28) 
{"free_energy": -7.56, "intermolecular_energy": -9.05, "internal_energy": -2.25, "cluster_size": 12, "cluster_id": 7, "rank_in_cluster": 11}

>  <energy>  (28) 
-8.17

>  <cluster_rmsd>  (28) 
0.47

>  <cluster>  (28) 
4

$$$$

     RDKit          3D

 47 50  0  0  0  0  0  0  0  0999 V2000
  137.6750   70.8430  221.7280 O   0  0  0  0  0  0  0  0  0  0  0  0
  138.3910   71.3300  222.6360 C   0  0  0  0  0  0  0  0  0  0  0  0
  138.8110   72.6930  222.5950 N   0  0  0  0  0  0  0  0  0  0  0  0
  138.4170   73.5560  221.5010 C   0  0  0  0  0  0  0  0  0  0  0  0
  138.0340   74.9010  221.9670 C   0  0  0  0  0  0  0  0  0  0  0  0
  138.8520   75.8550  222.0730 O   0  0  0  0  0  0  0  0  0  0  0  0
  136.6700   75.1160  222.3110 N   0  0  0  0  0  0  0  0  0  0  0  0
  135.4730   74.9030  221.5170 C   0  0  0  0  0  0  0  0  0  0  0  0
  134.7370   76.1950  221.7200 C   0  0  0  0  0  0  0  0  0  0  0  0
  135.2330   76.7010  223.0670 C   0  0  0  0  0  0  0  0  0  0  0  0
  136.1480   75.6230  223.5990 C   0  0  1  0  0  0  0  0  0  0  0  0
  135.4990   74.5670  224.3640 C   0  0  0  0  0  0  0  0  0  0  0  0
  134.6770   74.9470  225.4260 C   0  0  0  0  0  0  0  0  0  0  0  0
  134.0400   74.0160  226.1800 N   0  0  0  0  0  0  0  0  0  0  0  0
  134.1450   72.6980  225.9720 C   0  0  0  0  0  0  0  0  0  0  0  0
  133.3040   71.5180  226.9700 Cl  0  0  0  0  0  0  0  0  0  0  0  0
  134.9550   72.2760  224.9230 C   0  0  0  0  0  0  0  0  0  0  0  0
  135.1320   70.5460  224.6010 Cl  0  0  0  0  0  0  0  0  0  0  0  0
  135.6110   73.2150  224.1460 C   0  0  0  0  0  0  0  0  0  0  0  0
  138.8290   70.5190  223.7770 C   0  0  0  0  0  0  0  0  0  0  0  0
  138.5330   69.1740  223.8160 C   0  0  0  0  0  0  0  0  0  0  0  0
  138.9440   68.3870  224.8970 C   0  0  0  0  0  0  0  0  0  0  0  0
  139.6510   68.9530  225.9370 C   0  0  0  0  0  0  0  0  0  0  0  0
  140.0730   68.2130  227.0190 C   0  0  0  0  0  0  0  0  0  0  0  0
  140.7880   68.8400  228.0440 C   0  0  0  0  0  0  0  0  0  0  0  0
  141.2090   68.1070  229.1230 F   0  0  0  0  0  0  0  0  0  0  0  0
  141.0720   70.1980  227.9800 C   0  0  0  0  0  0  0  0  0  0  0  0
  140.6380   70.9190  226.8840 C   0  0  0  0  0  0  0  0  0  0  0  0
  139.9310   70.3170  225.8590 C   0  0  0  0  0  0  0  0  0  0  0  0
  139.5250   71.0540  224.8080 N   0  0  0  0  0  0  0  0  0  0  0  0
  139.4140   73.0590  223.3820 H   0  0  0  0  0  0  0  0  0  0  0  0
  139.2607   73.6497  220.8014 H   0  0  0  0  0  0  0  0  0  0  0  0
  137.5414   73.1046  221.0115 H   0  0  0  0  0  0  0  0  0  0  0  0
  135.7186   74.7442  220.4566 H   0  0  0  0  0  0  0  0  0  0  0  0
  134.8977   74.0118  221.8081 H   0  0  0  0  0  0  0  0  0  0  0  0
  134.9792   76.9114  220.9212 H   0  0  0  0  0  0  0  0  0  0  0  0
  133.6449   76.0656  221.6952 H   0  0  0  0  0  0  0  0  0  0  0  0
  135.7844   77.6446  222.9425 H   0  0  0  0  0  0  0  0  0  0  0  0
  134.3996   76.9018  223.7563 H   0  0  0  0  0  0  0  0  0  0  0  0
  136.8805   75.9945  224.3307 H   0  0  0  0  0  0  0  0  0  0  0  0
  134.5439   76.0147  225.6546 H   0  0  0  0  0  0  0  0  0  0  0  0
  136.2479   72.8646  223.3204 H   0  0  0  0  0  0  0  0  0  0  0  0
  137.9690   68.7153  222.9905 H   0  0  0  0  0  0  0  0  0  0  0  0
  138.7026   67.3140  224.9175 H   0  0  0  0  0  0  0  0  0  0  0  0
  139.8494   67.1375  227.0764 H   0  0  0  0  0  0  0  0  0  0  0  0
  141.6327   70.6911  228.7878 H   0  0  0  0  0  0  0  0  0  0  0  0
  140.8596   71.9949  226.8255 H   0  0  0  0  0  0  0  0  0  0  0  0
  1  2  2  0
  2  3  1  0
  3  4  1  0
  4  5  1  0
  5  6  2  0
  5  7  1  0
  7  8  1  0
  8  9  1  0
  9 10  1  0
 10 11  1  0
 11 12  1  0
 12 13  2  0
 13 14  1  0
 14 15  2  0
 15 16  1  0
 15 17  1  0
 17 18  1  0
 17 19  2  0
  2 20  1  0
 20 21  2  0
 21 22  1  0
 22 23  2  0
 23 24  1  0
 24 25  2  0
 25 26  1  0
 25 27  1  0
 27 28  2  0
 28 29  1  0
 29 30  2  0
 11  7  1  0
 19 12  1  0
 30 20  1  0
 29 23  1  0
  3 31  1  0
  4 32  1  0
  4 33  1  0
  8 34  1  0
  8 35  1  0
  9 36  1  0
  9 37  1  0
 10 38  1  0
 10 39  1  0
 11 40  1  1
 13 41  1  0
 19 42  1  0
 21 43  1  0
 22 44  1  0
 24 45  1  0
 27 46  1  0
 28 47  1  0
M  END
>  <smiles>  (29) 
O=C(NCC(=O)N1CCC[C@H]1c1cnc(Cl)c(Cl)c1)c1ccc2cc(F)ccc2n1

>  <score_type>  (29) 
oracle

>  <origin>  (29) 
autodockgpu

>  <m_score__min__energy>  (29) 
-8.9700000000000006

>  <m_primary>  (29) 
energy

>  <rmsd>  (29) 
3.658195406430107

>  <m_score__min__rmsd>  (29) 
3.658195406430107

>  <meeko>  (29) 
{"free_energy": -7.59, "intermolecular_energy": -9.08, "internal_energy": -2.23, "cluster_size": 12, "cluster_id": 7, "rank_in_cluster": 8}

>  <energy>  (29) 
-8.16

>  <cluster_rmsd>  (29) 
0.48

>  <cluster>  (29) 
4

$$$$

     RDKit          3D

 47 50  0  0  0  0  0  0  0  0999 V2000
  138.7020   71.1860  221.1590 O   0  0  0  0  0  0  0  0  0  0  0  0
  139.0070   71.7510  222.2360 C   0  0  0  0  0  0  0  0  0  0  0  0
  139.0470   73.1740  222.3400 N   0  0  0  0  0  0  0  0  0  0  0  0
  138.7320   74.0080  221.1980 C   0  0  0  0  0  0  0  0  0  0  0  0
  139.8640   74.1110  220.2600 C   0  0  0  0  0  0  0  0  0  0  0  0
  140.2930   73.1360  219.5840 O   0  0  0  0  0  0  0  0  0  0  0  0
  140.4940   75.3790  220.1220 N   0  0  0  0  0  0  0  0  0  0  0  0
  140.3630   76.3650  219.0640 C   0  0  0  0  0  0  0  0  0  0  0  0
  141.7990   76.6850  218.7650 C   0  0  0  0  0  0  0  0  0  0  0  0
  142.5290   76.3820  220.0660 C   0  0  0  0  0  0  0  0  0  0  0  0
  141.4560   76.0000  221.0590 C   0  0  1  0  0  0  0  0  0  0  0  0
  140.8510   77.1060  221.7890 C   0  0  0  0  0  0  0  0  0  0  0  0
  139.5030   76.9950  222.1330 C   0  0  0  0  0  0  0  0  0  0  0  0
  138.8750   77.9860  222.8150 N   0  0  0  0  0  0  0  0  0  0  0  0
  139.4790   79.1160  223.2000 C   0  0  0  0  0  0  0  0  0  0  0  0
  138.6340   80.3810  224.0840 Cl  0  0  0  0  0  0  0  0  0  0  0  0
  140.8240   79.2670  222.8780 C   0  0  0  0  0  0  0  0  0  0  0  0
  141.6750   80.7400  223.3620 Cl  0  0  0  0  0  0  0  0  0  0  0  0
  141.4770   78.2640  222.1820 C   0  0  0  0  0  0  0  0  0  0  0  0
  139.3370   70.9740  223.4360 C   0  0  0  0  0  0  0  0  0  0  0  0
  139.1030   69.6170  223.4600 C   0  0  0  0  0  0  0  0  0  0  0  0
  139.4130   68.8620  224.5960 C   0  0  0  0  0  0  0  0  0  0  0  0
  139.9570   69.4720  225.7060 C   0  0  0  0  0  0  0  0  0  0  0  0
  140.2750   68.7650  226.8450 C   0  0  0  0  0  0  0  0  0  0  0  0
  140.8260   69.4370  227.9400 C   0  0  0  0  0  0  0  0  0  0  0  0
  141.1440   68.7360  229.0740 F   0  0  0  0  0  0  0  0  0  0  0  0
  141.0520   70.8060  227.8900 C   0  0  0  0  0  0  0  0  0  0  0  0
  140.7240   71.4940  226.7370 C   0  0  0  0  0  0  0  0  0  0  0  0
  140.1790   70.8480  225.6410 C   0  0  0  0  0  0  0  0  0  0  0  0
  139.8730   71.5540  224.5370 N   0  0  0  0  0  0  0  0  0  0  0  0
  139.3100   73.6050  223.2680 H   0  0  0  0  0  0  0  0  0  0  0  0
  137.8706   73.5746  220.6687 H   0  0  0  0  0  0  0  0  0  0  0  0
  138.5046   75.0186  221.5680 H   0  0  0  0  0  0  0  0  0  0  0  0
  139.8547   75.9436  218.1842 H   0  0  0  0  0  0  0  0  0  0  0  0
  139.7595   77.2413  219.3431 H   0  0  0  0  0  0  0  0  0  0  0  0
  142.1777   76.0522  217.9489 H   0  0  0  0  0  0  0  0  0  0  0  0
  141.9387   77.7254  218.4364 H   0  0  0  0  0  0  0  0  0  0  0  0
  143.2345   75.5499  219.9249 H   0  0  0  0  0  0  0  0  0  0  0  0
  143.1139   77.2463  220.4135 H   0  0  0  0  0  0  0  0  0  0  0  0
  141.8287   75.3789  221.8868 H   0  0  0  0  0  0  0  0  0  0  0  0
  138.9424   76.0926  221.8476 H   0  0  0  0  0  0  0  0  0  0  0  0
  142.5400   78.3998  221.9337 H   0  0  0  0  0  0  0  0  0  0  0  0
  138.6687   69.1228  222.5785 H   0  0  0  0  0  0  0  0  0  0  0  0
  139.2222   67.7787  224.6036 H   0  0  0  0  0  0  0  0  0  0  0  0
  140.0967   67.6806  226.8923 H   0  0  0  0  0  0  0  0  0  0  0  0
  141.4845   71.3338  228.7528 H   0  0  0  0  0  0  0  0  0  0  0  0
  140.9000   72.5788  226.6894 H   0  0  0  0  0  0  0  0  0  0  0  0
  1  2  2  0
  2  3  1  0
  3  4  1  0
  4  5  1  0
  5  6  2  0
  5  7  1  0
  7  8  1  0
  8  9  1  0
  9 10  1  0
 10 11  1  0
 11 12  1  0
 12 13  2  0
 13 14  1  0
 14 15  2  0
 15 16  1  0
 15 17  1  0
 17 18  1  0
 17 19  2  0
  2 20  1  0
 20 21  2  0
 21 22  1  0
 22 23  2  0
 23 24  1  0
 24 25  2  0
 25 26  1  0
 25 27  1  0
 27 28  2  0
 28 29  1  0
 29 30  2  0
 11  7  1  0
 19 12  1  0
 30 20  1  0
 29 23  1  0
  3 31  1  0
  4 32  1  0
  4 33  1  0
  8 34  1  0
  8 35  1  0
  9 36  1  0
  9 37  1  0
 10 38  1  0
 10 39  1  0
 11 40  1  1
 13 41  1  0
 19 42  1  0
 21 43  1  0
 22 44  1  0
 24 45  1  0
 27 46  1  0
 28 47  1  0
M  END
>  <smiles>  (30) 
O=C(NCC(=O)N1CCC[C@H]1c1cnc(Cl)c(Cl)c1)c1ccc2cc(F)ccc2n1

>  <score_type>  (30) 
oracle

>  <origin>  (30) 
autodockgpu

>  <m_score__min__energy>  (30) 
-8.9700000000000006

>  <m_primary>  (30) 
energy

>  <rmsd>  (30) 
1.5051056670451621

>  <m_score__min__rmsd>  (30) 
1.5051056670451621

>  <meeko>  (30) 
{"free_energy": -8.11, "intermolecular_energy": -9.6, "internal_energy": -1.46, "cluster_size": 17, "cluster_id": 1, "rank_in_cluster": 10}

>  <energy>  (30) 
-7.88

>  <cluster_rmsd>  (30) 
0.48

>  <cluster>  (30) 
4

$$$$

     RDKit          3D

 47 50  0  0  0  0  0  0  0  0999 V2000
  139.9430   73.7260  222.5030 O   0  0  0  0  0  0  0  0  0  0  0  0
  140.3080   72.5300  222.3980 C   0  0  0  0  0  0  0  0  0  0  0  0
  140.8480   72.0250  221.1770 N   0  0  0  0  0  0  0  0  0  0  0  0
  140.9900   72.8850  220.0200 C   0  0  0  0  0  0  0  0  0  0  0  0
  142.0530   73.8890  220.2050 C   0  0  0  0  0  0  0  0  0  0  0  0
  143.1540   73.6350  220.7650 O   0  0  0  0  0  0  0  0  0  0  0  0
  141.8090   75.2050  219.7220 N   0  0  0  0  0  0  0  0  0  0  0  0
  140.7820   75.6790  218.8120 C   0  0  0  0  0  0  0  0  0  0  0  0
  141.5850   76.5010  217.8460 C   0  0  0  0  0  0  0  0  0  0  0  0
  142.8010   76.9410  218.6490 C   0  0  0  0  0  0  0  0  0  0  0  0
  142.5740   76.4280  220.0510 C   0  0  1  0  0  0  0  0  0  0  0  0
  141.8170   77.3100  220.9300 C   0  0  0  0  0  0  0  0  0  0  0  0
  140.9680   76.7180  221.8670 C   0  0  0  0  0  0  0  0  0  0  0  0
  140.2350   77.4790  222.7180 N   0  0  0  0  0  0  0  0  0  0  0  0
  140.2650   78.8160  222.7280 C   0  0  0  0  0  0  0  0  0  0  0  0
  139.2990   79.7720  223.8460 Cl  0  0  0  0  0  0  0  0  0  0  0  0
  141.0980   79.4470  221.8090 C   0  0  0  0  0  0  0  0  0  0  0  0
  141.1790   81.2130  221.7760 Cl  0  0  0  0  0  0  0  0  0  0  0  0
  141.8520   78.6830  220.9350 C   0  0  0  0  0  0  0  0  0  0  0  0
  140.1960   71.5990  223.5260 C   0  0  0  0  0  0  0  0  0  0  0  0
  139.5880   70.3760  223.3470 C   0  0  0  0  0  0  0  0  0  0  0  0
  139.4730   69.4770  224.4130 C   0  0  0  0  0  0  0  0  0  0  0  0
  139.9680   69.8090  225.6560 C   0  0  0  0  0  0  0  0  0  0  0  0
  139.8750   68.9520  226.7310 C   0  0  0  0  0  0  0  0  0  0  0  0
  140.3970   69.3420  227.9680 C   0  0  0  0  0  0  0  0  0  0  0  0
  140.3050   68.4920  229.0400 F   0  0  0  0  0  0  0  0  0  0  0  0
  141.0040   70.5810  228.1220 C   0  0  0  0  0  0  0  0  0  0  0  0
  141.0860   71.4240  227.0280 C   0  0  0  0  0  0  0  0  0  0  0  0
  140.5770   71.0560  225.7950 C   0  0  0  0  0  0  0  0  0  0  0  0
  140.6770   71.9050  224.7560 N   0  0  0  0  0  0  0  0  0  0  0  0
  141.1420   71.0110  221.1370 H   0  0  0  0  0  0  0  0  0  0  0  0
  141.2353   72.2653  219.1449 H   0  0  0  0  0  0  0  0  0  0  0  0
  140.0395   73.4195  219.8754 H   0  0  0  0  0  0  0  0  0  0  0  0
  140.2789   74.8425  218.3048 H   0  0  0  0  0  0  0  0  0  0  0  0
  139.9716   76.2358  219.3052 H   0  0  0  0  0  0  0  0  0  0  0  0
  141.8885   75.8969  216.9783 H   0  0  0  0  0  0  0  0  0  0  0  0
  141.0162   77.3520  217.4433 H   0  0  0  0  0  0  0  0  0  0  0  0
  143.7181   76.5057  218.2254 H   0  0  0  0  0  0  0  0  0  0  0  0
  142.9242   78.0340  218.6322 H   0  0  0  0  0  0  0  0  0  0  0  0
  143.5038   76.3038  220.6255 H   0  0  0  0  0  0  0  0  0  0  0  0
  140.8925   75.6217  221.9158 H   0  0  0  0  0  0  0  0  0  0  0  0
  142.5060   79.1966  220.2149 H   0  0  0  0  0  0  0  0  0  0  0  0
  139.1898   70.1040  222.3583 H   0  0  0  0  0  0  0  0  0  0  0  0
  138.9863   68.5027  224.2587 H   0  0  0  0  0  0  0  0  0  0  0  0
  139.3941   67.9693  226.6169 H   0  0  0  0  0  0  0  0  0  0  0  0
  141.4125   70.8870  229.0964 H   0  0  0  0  0  0  0  0  0  0  0  0
  141.5659   72.4074  227.1407 H   0  0  0  0  0  0  0  0  0  0  0  0
  1  2  2  0
  2  3  1  0
  3  4  1  0
  4  5  1  0
  5  6  2  0
  5  7  1  0
  7  8  1  0
  8  9  1  0
  9 10  1  0
 10 11  1  0
 11 12  1  0
 12 13  2  0
 13 14  1  0
 14 15  2  0
 15 16  1  0
 15 17  1  0
 17 18  1  0
 17 19  2  0
  2 20  1  0
 20 21  2  0
 21 22  1  0
 22 23  2  0
 23 24  1  0
 24 25  2  0
 25 26  1  0
 25 27  1  0
 27 28  2  0
 28 29  1  0
 29 30  2  0
 11  7  1  0
 19 12  1  0
 30 20  1  0
 29 23  1  0
  3 31  1  0
  4 32  1  0
  4 33  1  0
  8 34  1  0
  8 35  1  0
  9 36  1  0
  9 37  1  0
 10 38  1  0
 10 39  1  0
 11 40  1  1
 13 41  1  0
 19 42  1  0
 21 43  1  0
 22 44  1  0
 24 45  1  0
 27 46  1  0
 28 47  1  0
M  END
>  <smiles>  (31) 
O=C(NCC(=O)N1CCC[C@H]1c1cnc(Cl)c(Cl)c1)c1ccc2cc(F)ccc2n1

>  <score_type>  (31) 
oracle

>  <origin>  (31) 
autodockgpu

>  <m_score__min__energy>  (31) 
-8.9700000000000006

>  <m_primary>  (31) 
energy

>  <rmsd>  (31) 
1.975463346926764

>  <m_score__min__rmsd>  (31) 
1.975463346926764

>  <meeko>  (31) 
{"free_energy": -8.34, "intermolecular_energy": -9.84, "internal_energy": -1.35, "cluster_size": 1, "cluster_id": 6, "rank_in_cluster": 1}

>  <energy>  (31) 
-8.42

>  <cluster_rmsd>  (31) 
0.0

>  <cluster>  (31) 
5

$$$$

     RDKit          3D

 47 50  0  0  0  0  0  0  0  0999 V2000
  140.6740   72.9710  222.3820 O   0  0  0  0  0  0  0  0  0  0  0  0
  139.6690   72.3830  222.8480 C   0  0  0  0  0  0  0  0  0  0  0  0
  138.3550   72.6810  222.3800 N   0  0  0  0  0  0  0  0  0  0  0  0
  138.1450   73.6750  221.3470 C   0  0  0  0  0  0  0  0  0  0  0  0
  138.5890   75.0150  221.7700 C   0  0  0  0  0  0  0  0  0  0  0  0
  138.0180   75.6780  222.6780 O   0  0  0  0  0  0  0  0  0  0  0  0
  139.7180   75.5750  221.1100 N   0  0  0  0  0  0  0  0  0  0  0  0
  139.9070   75.8860  219.7040 C   0  0  0  0  0  0  0  0  0  0  0  0
  141.2490   75.2710  219.4320 C   0  0  0  0  0  0  0  0  0  0  0  0
  141.9450   75.2760  220.7860 C   0  0  0  0  0  0  0  0  0  0  0  0
  140.9990   75.9800  221.7310 C   0  0  1  0  0  0  0  0  0  0  0  0
  141.1290   77.4300  221.7870 C   0  0  0  0  0  0  0  0  0  0  0  0
  140.9830   78.0450  223.0310 C   0  0  0  0  0  0  0  0  0  0  0  0
  141.0930   79.3920  223.1580 N   0  0  0  0  0  0  0  0  0  0  0  0
  141.3420   80.2130  222.1310 C   0  0  0  0  0  0  0  0  0  0  0  0
  141.4780   81.9560  222.3310 Cl  0  0  0  0  0  0  0  0  0  0  0  0
  141.4940   79.6400  220.8730 C   0  0  0  0  0  0  0  0  0  0  0  0
  141.8240   80.6770  219.4780 Cl  0  0  0  0  0  0  0  0  0  0  0  0
  141.3840   78.2680  220.7290 C   0  0  0  0  0  0  0  0  0  0  0  0
  139.8010   71.3640  223.8960 C   0  0  0  0  0  0  0  0  0  0  0  0
  139.4050   70.0690  223.6460 C   0  0  0  0  0  0  0  0  0  0  0  0
  139.5250   69.0870  224.6340 C   0  0  0  0  0  0  0  0  0  0  0  0
  140.0410   69.4070  225.8720 C   0  0  0  0  0  0  0  0  0  0  0  0
  140.1740   68.4700  226.8730 C   0  0  0  0  0  0  0  0  0  0  0  0
  140.7060   68.8530  228.1070 C   0  0  0  0  0  0  0  0  0  0  0  0
  140.8400   67.9220  229.1050 F   0  0  0  0  0  0  0  0  0  0  0  0
  141.0960   70.1660  228.3330 C   0  0  0  0  0  0  0  0  0  0  0  0
  140.9530   71.0890  227.3140 C   0  0  0  0  0  0  0  0  0  0  0  0
  140.4300   70.7300  226.0840 C   0  0  0  0  0  0  0  0  0  0  0  0
  140.3060   71.6580  225.1180 N   0  0  0  0  0  0  0  0  0  0  0  0
  137.5380   72.1600  222.8020 H   0  0  0  0  0  0  0  0  0  0  0  0
  138.7105   73.3803  220.4507 H   0  0  0  0  0  0  0  0  0  0  0  0
  137.0660   73.7252  221.1389 H   0  0  0  0  0  0  0  0  0  0  0  0
  139.1230   75.4276  219.0834 H   0  0  0  0  0  0  0  0  0  0  0  0
  139.8542   76.9604  219.4741 H   0  0  0  0  0  0  0  0  0  0  0  0
  141.1378   74.2438  219.0546 H   0  0  0  0  0  0  0  0  0  0  0  0
  141.8158   75.8198  218.6655 H   0  0  0  0  0  0  0  0  0  0  0  0
  142.1302   74.2462  221.1256 H   0  0  0  0  0  0  0  0  0  0  0  0
  142.9210   75.7812  220.7383 H   0  0  0  0  0  0  0  0  0  0  0  0
  141.1565   75.7119  222.7861 H   0  0  0  0  0  0  0  0  0  0  0  0
  140.7762   77.4307  223.9197 H   0  0  0  0  0  0  0  0  0  0  0  0
  141.5057   77.8310  219.7269 H   0  0  0  0  0  0  0  0  0  0  0  0
  138.9911   69.8052  222.6616 H   0  0  0  0  0  0  0  0  0  0  0  0
  139.2066   68.0555  224.4229 H   0  0  0  0  0  0  0  0  0  0  0  0
  139.8638   67.4285  226.7022 H   0  0  0  0  0  0  0  0  0  0  0  0
  141.5116   70.4667  229.3061 H   0  0  0  0  0  0  0  0  0  0  0  0
  141.2615   72.1310  227.4844 H   0  0  0  0  0  0  0  0  0  0  0  0
  1  2  2  0
  2  3  1  0
  3  4  1  0
  4  5  1  0
  5  6  2  0
  5  7  1  0
  7  8  1  0
  8  9  1  0
  9 10  1  0
 10 11  1  0
 11 12  1  0
 12 13  2  0
 13 14  1  0
 14 15  2  0
 15 16  1  0
 15 17  1  0
 17 18  1  0
 17 19  2  0
  2 20  1  0
 20 21  2  0
 21 22  1  0
 22 23  2  0
 23 24  1  0
 24 25  2  0
 25 26  1  0
 25 27  1  0
 27 28  2  0
 28 29  1  0
 29 30  2  0
 11  7  1  0
 19 12  1  0
 30 20  1  0
 29 23  1  0
  3 31  1  0
  4 32  1  0
  4 33  1  0
  8 34  1  0
  8 35  1  0
  9 36  1  0
  9 37  1  0
 10 38  1  0
 10 39  1  0
 11 40  1  1
 13 41  1  0
 19 42  1  0
 21 43  1  0
 22 44  1  0
 24 45  1  0
 27 46  1  0
 28 47  1  0
M  END
>  <smiles>  (32) 
O=C(NCC(=O)N1CCC[C@H]1c1cnc(Cl)c(Cl)c1)c1ccc2cc(F)ccc2n1

>  <score_type>  (32) 
oracle

>  <origin>  (32) 
autodockgpu

>  <m_score__min__energy>  (32) 
-8.9700000000000006

>  <m_primary>  (32) 
energy

>  <rmsd>  (32) 
1.8087307318602093

>  <m_score__min__rmsd>  (32) 
1.8087307318602093

>  <meeko>  (32) 
{"free_energy": -8.36, "intermolecular_energy": -9.85, "internal_energy": -1.24, "cluster_size": 17, "cluster_id": 1, "rank_in_cluster": 5}

>  <energy>  (32) 
-8.38

>  <cluster_rmsd>  (32) 
0.3

>  <cluster>  (32) 
5

$$$$

     RDKit          3D

 47 50  0  0  0  0  0  0  0  0999 V2000
  135.6560   71.6790  222.3740 O   0  0  0  0  0  0  0  0  0  0  0  0
  135.8540   72.7390  223.0150 C   0  0  0  0  0  0  0  0  0  0  0  0
  136.9560   73.5930  222.7100 N   0  0  0  0  0  0  0  0  0  0  0  0
  137.8790   73.2580  221.6460 C   0  0  0  0  0  0  0  0  0  0  0  0
  139.1250   72.6630  222.1610 C   0  0  0  0  0  0  0  0  0  0  0  0
  140.1770   73.3290  222.3640 O   0  0  0  0  0  0  0  0  0  0  0  0
  139.1250   71.2680  222.4380 N   0  0  0  0  0  0  0  0  0  0  0  0
  139.9920   70.2240  221.9210 C   0  0  0  0  0  0  0  0  0  0  0  0
  138.9980   69.1740  221.5140 C   0  0  0  0  0  0  0  0  0  0  0  0
  137.7970   69.4280  222.4140 C   0  0  0  0  0  0  0  0  0  0  0  0
  138.2110   70.5420  223.3470 C   0  0  1  0  0  0  0  0  0  0  0  0
  138.8910   70.1240  224.5650 C   0  0  0  0  0  0  0  0  0  0  0  0
  138.8450   68.7690  224.9000 C   0  0  0  0  0  0  0  0  0  0  0  0
  139.4580   68.3100  226.0210 N   0  0  0  0  0  0  0  0  0  0  0  0
  140.1350   69.0940  226.8680 C   0  0  0  0  0  0  0  0  0  0  0  0
  140.9190   68.4630  228.3120 Cl  0  0  0  0  0  0  0  0  0  0  0  0
  140.2050   70.4510  226.5710 C   0  0  0  0  0  0  0  0  0  0  0  0
  141.0860   71.5350  227.6540 Cl  0  0  0  0  0  0  0  0  0  0  0  0
  139.5840   70.9330  225.4310 C   0  0  0  0  0  0  0  0  0  0  0  0
  134.9620   73.1460  224.1060 C   0  0  0  0  0  0  0  0  0  0  0  0
  134.1420   72.2150  224.7040 C   0  0  0  0  0  0  0  0  0  0  0  0
  133.2860   72.5870  225.7460 C   0  0  0  0  0  0  0  0  0  0  0  0
  133.2550   73.8940  226.1840 C   0  0  0  0  0  0  0  0  0  0  0  0
  132.4260   74.3020  227.2060 C   0  0  0  0  0  0  0  0  0  0  0  0
  132.4390   75.6400  227.6100 C   0  0  0  0  0  0  0  0  0  0  0  0
  131.6160   76.0490  228.6270 F   0  0  0  0  0  0  0  0  0  0  0  0
  133.2750   76.5580  226.9900 C   0  0  0  0  0  0  0  0  0  0  0  0
  134.0980   76.1260  225.9660 C   0  0  0  0  0  0  0  0  0  0  0  0
  134.1010   74.8050  225.5530 C   0  0  0  0  0  0  0  0  0  0  0  0
  134.9170   74.4240  224.5520 N   0  0  0  0  0  0  0  0  0  0  0  0
  137.0820   74.4760  223.2770 H   0  0  0  0  0  0  0  0  0  0  0  0
  137.3949   72.5379  220.9699 H   0  0  0  0  0  0  0  0  0  0  0  0
  138.1398   74.1872  221.1182 H   0  0  0  0  0  0  0  0  0  0  0  0
  140.5760   70.5785  221.0589 H   0  0  0  0  0  0  0  0  0  0  0  0
  140.7435   69.8707  222.6424 H   0  0  0  0  0  0  0  0  0  0  0  0
  138.7228   69.2870  220.4550 H   0  0  0  0  0  0  0  0  0  0  0  0
  139.3956   68.1538  221.6199 H   0  0  0  0  0  0  0  0  0  0  0  0
  136.9268   69.7337  221.8146 H   0  0  0  0  0  0  0  0  0  0  0  0
  137.5068   68.5228  222.9675 H   0  0  0  0  0  0  0  0  0  0  0  0
  137.3601   71.1020  223.7621 H   0  0  0  0  0  0  0  0  0  0  0  0
  138.3060   68.0657  224.2482 H   0  0  0  0  0  0  0  0  0  0  0  0
  139.6486   72.0087  225.2102 H   0  0  0  0  0  0  0  0  0  0  0  0
  134.1603   71.1705  224.3595 H   0  0  0  0  0  0  0  0  0  0  0  0
  132.6360   71.8349  226.2171 H   0  0  0  0  0  0  0  0  0  0  0  0
  131.7590   73.5803  227.7002 H   0  0  0  0  0  0  0  0  0  0  0  0
  133.2829   77.6111  227.3076 H   0  0  0  0  0  0  0  0  0  0  0  0
  134.7640   76.8471  225.4695 H   0  0  0  0  0  0  0  0  0  0  0  0
  1  2  2  0
  2  3  1  0
  3  4  1  0
  4  5  1  0
  5  6  2  0
  5  7  1  0
  7  8  1  0
  8  9  1  0
  9 10  1  0
 10 11  1  0
 11 12  1  0
 12 13  2  0
 13 14  1  0
 14 15  2  0
 15 16  1  0
 15 17  1  0
 17 18  1  0
 17 19  2  0
  2 20  1  0
 20 21  2  0
 21 22  1  0
 22 23  2  0
 23 24  1  0
 24 25  2  0
 25 26  1  0
 25 27  1  0
 27 28  2  0
 28 29  1  0
 29 30  2  0
 11  7  1  0
 19 12  1  0
 30 20  1  0
 29 23  1  0
  3 31  1  0
  4 32  1  0
  4 33  1  0
  8 34  1  0
  8 35  1  0
  9 36  1  0
  9 37  1  0
 10 38  1  0
 10 39  1  0
 11 40  1  1
 13 41  1  0
 19 42  1  0
 21 43  1  0
 22 44  1  0
 24 45  1  0
 27 46  1  0
 28 47  1  0
M  END
>  <smiles>  (33) 
O=C(NCC(=O)N1CCC[C@H]1c1cnc(Cl)c(Cl)c1)c1ccc2cc(F)ccc2n1

>  <score_type>  (33) 
oracle

>  <origin>  (33) 
autodockgpu

>  <m_score__min__energy>  (33) 
-8.9700000000000006

>  <m_primary>  (33) 
energy

>  <rmsd>  (33) 
7.1731265656048695

>  <m_score__min__rmsd>  (33) 
7.1731265656048695

>  <meeko>  (33) 
{"free_energy": -7.85, "intermolecular_energy": -9.34, "internal_energy": -1.87, "cluster_size": 5, "cluster_id": 5, "rank_in_cluster": 4}

>  <energy>  (33) 
-7.86

>  <cluster_rmsd>  (33) 
1.82

>  <cluster>  (33) 
5

$$$$

     RDKit          3D

 47 50  0  0  0  0  0  0  0  0999 V2000
  139.3840   71.3680  220.9090 O   0  0  0  0  0  0  0  0  0  0  0  0
  139.3840   71.9420  222.0240 C   0  0  0  0  0  0  0  0  0  0  0  0
  139.1840   73.3510  222.1310 N   0  0  0  0  0  0  0  0  0  0  0  0
  138.9710   74.1600  220.9480 C   0  0  0  0  0  0  0  0  0  0  0  0
  140.1990   74.2980  220.1450 C   0  0  0  0  0  0  0  0  0  0  0  0
  140.7900   73.3200  219.6120 O   0  0  0  0  0  0  0  0  0  0  0  0
  140.7310   75.6060  219.9730 N   0  0  0  0  0  0  0  0  0  0  0  0
  140.4570   76.5860  218.9380 C   0  0  0  0  0  0  0  0  0  0  0  0
  141.8420   77.0030  218.5360 C   0  0  0  0  0  0  0  0  0  0  0  0
  142.6860   76.7420  219.7750 C   0  0  0  0  0  0  0  0  0  0  0  0
  141.7190   76.2850  220.8420 C   0  0  1  0  0  0  0  0  0  0  0  0
  141.0990   77.3440  221.6260 C   0  0  0  0  0  0  0  0  0  0  0  0
  139.7810   77.1530  222.0460 C   0  0  0  0  0  0  0  0  0  0  0  0
  139.1420   78.0980  222.7820 N   0  0  0  0  0  0  0  0  0  0  0  0
  139.7060   79.2530  223.1530 C   0  0  0  0  0  0  0  0  0  0  0  0
  138.8480   80.4560  224.1070 Cl  0  0  0  0  0  0  0  0  0  0  0  0
  141.0190   79.4830  222.7550 C   0  0  0  0  0  0  0  0  0  0  0  0
  141.8170   80.9920  223.2170 Cl  0  0  0  0  0  0  0  0  0  0  0  0
  141.6830   78.5280  222.0050 C   0  0  0  0  0  0  0  0  0  0  0  0
  139.5920   71.1900  223.2670 C   0  0  0  0  0  0  0  0  0  0  0  0
  139.2450   69.8590  223.3290 C   0  0  0  0  0  0  0  0  0  0  0  0
  139.4370   69.1290  224.5060 C   0  0  0  0  0  0  0  0  0  0  0  0
  139.9770   69.7370  225.6190 C   0  0  0  0  0  0  0  0  0  0  0  0
  140.1820   69.0540  226.7980 C   0  0  0  0  0  0  0  0  0  0  0  0
  140.7350   69.7230  227.8930 C   0  0  0  0  0  0  0  0  0  0  0  0
  140.9400   69.0460  229.0680 F   0  0  0  0  0  0  0  0  0  0  0  0
  141.0760   71.0660  227.8040 C   0  0  0  0  0  0  0  0  0  0  0  0
  140.8610   71.7310  226.6110 C   0  0  0  0  0  0  0  0  0  0  0  0
  140.3160   71.0860  225.5150 C   0  0  0  0  0  0  0  0  0  0  0  0
  140.1220   71.7690  224.3710 N   0  0  0  0  0  0  0  0  0  0  0  0
  139.1920   73.7900  223.0920 H   0  0  0  0  0  0  0  0  0  0  0  0
  138.1937   73.6873  220.3297 H   0  0  0  0  0  0  0  0  0  0  0  0
  138.6637   75.1646  221.2742 H   0  0  0  0  0  0  0  0  0  0  0  0
  139.9133   76.1361  218.0942 H   0  0  0  0  0  0  0  0  0  0  0  0
  139.8197   77.4187  219.2703 H   0  0  0  0  0  0  0  0  0  0  0  0
  142.1993   76.4017  217.6870 H   0  0  0  0  0  0  0  0  0  0  0  0
  141.8874   78.0523  218.2092 H   0  0  0  0  0  0  0  0  0  0  0  0
  143.4316   75.9589  219.5728 H   0  0  0  0  0  0  0  0  0  0  0  0
  143.2376   77.6413  220.0864 H   0  0  0  0  0  0  0  0  0  0  0  0
  142.1938   75.6863  221.6332 H   0  0  0  0  0  0  0  0  0  0  0  0
  139.2541   76.2256  221.7772 H   0  0  0  0  0  0  0  0  0  0  0  0
  142.7212   78.7253  221.6999 H   0  0  0  0  0  0  0  0  0  0  0  0
  138.8133   69.3660  222.4455 H   0  0  0  0  0  0  0  0  0  0  0  0
  139.1562   68.0661  224.5439 H   0  0  0  0  0  0  0  0  0  0  0  0
  139.9124   67.9904  226.8766 H   0  0  0  0  0  0  0  0  0  0  0  0
  141.5096   71.5917  228.6675 H   0  0  0  0  0  0  0  0  0  0  0  0
  141.1288   72.7949  226.5316 H   0  0  0  0  0  0  0  0  0  0  0  0
  1  2  2  0
  2  3  1  0
  3  4  1  0
  4  5  1  0
  5  6  2  0
  5  7  1  0
  7  8  1  0
  8  9  1  0
  9 10  1  0
 10 11  1  0
 11 12  1  0
 12 13  2  0
 13 14  1  0
 14 15  2  0
 15 16  1  0
 15 17  1  0
 17 18  1  0
 17 19  2  0
  2 20  1  0
 20 21  2  0
 21 22  1  0
 22 23  2  0
 23 24  1  0
 24 25  2  0
 25 26  1  0
 25 27  1  0
 27 28  2  0
 28 29  1  0
 29 30  2  0
 11  7  1  0
 19 12  1  0
 30 20  1  0
 29 23  1  0
  3 31  1  0
  4 32  1  0
  4 33  1  0
  8 34  1  0
  8 35  1  0
  9 36  1  0
  9 37  1  0
 10 38  1  0
 10 39  1  0
 11 40  1  1
 13 41  1  0
 19 42  1  0
 21 43  1  0
 22 44  1  0
 24 45  1  0
 27 46  1  0
 28 47  1  0
M  END
>  <smiles>  (34) 
O=C(NCC(=O)N1CCC[C@H]1c1cnc(Cl)c(Cl)c1)c1ccc2cc(F)ccc2n1

>  <score_type>  (34) 
oracle

>  <origin>  (34) 
autodockgpu

>  <m_score__min__energy>  (34) 
-8.9700000000000006

>  <m_primary>  (34) 
energy

>  <rmsd>  (34) 
1.5259187563471204

>  <m_score__min__rmsd>  (34) 
1.5259187563471204

>  <meeko>  (34) 
{"free_energy": -8.14, "intermolecular_energy": -9.63, "internal_energy": -1.37, "cluster_size": 17, "cluster_id": 1, "rank_in_cluster": 9}

>  <energy>  (34) 
-7.85

>  <cluster_rmsd>  (34) 
1.95

>  <cluster>  (34) 
5

$$$$

     RDKit          3D

 47 50  0  0  0  0  0  0  0  0999 V2000
  140.6910   73.0020  222.6790 O   0  0  0  0  0  0  0  0  0  0  0  0
  139.8960   72.0320  222.7080 C   0  0  0  0  0  0  0  0  0  0  0  0
  138.9520   71.8180  221.6590 N   0  0  0  0  0  0  0  0  0  0  0  0
  138.8870   72.7190  220.5270 C   0  0  0  0  0  0  0  0  0  0  0  0
  138.5330   74.0910  220.9310 C   0  0  0  0  0  0  0  0  0  0  0  0
  137.4170   74.3990  221.4310 O   0  0  0  0  0  0  0  0  0  0  0  0
  139.5100   75.1070  220.7420 N   0  0  0  0  0  0  0  0  0  0  0  0
  139.7570   75.9470  219.5830 C   0  0  0  0  0  0  0  0  0  0  0  0
  141.2440   75.8170  219.4210 C   0  0  0  0  0  0  0  0  0  0  0  0
  141.7450   75.4930  220.8210 C   0  0  0  0  0  0  0  0  0  0  0  0
  140.5300   75.5530  221.7170 C   0  0  1  0  0  0  0  0  0  0  0  0
  140.2110   76.8660  222.2590 C   0  0  0  0  0  0  0  0  0  0  0  0
  138.8670   77.1630  222.4900 C   0  0  0  0  0  0  0  0  0  0  0  0
  138.4970   78.3670  222.9950 N   0  0  0  0  0  0  0  0  0  0  0  0
  139.3660   79.3380  223.3040 C   0  0  0  0  0  0  0  0  0  0  0  0
  138.8520   80.8880  223.9580 Cl  0  0  0  0  0  0  0  0  0  0  0  0
  140.7160   79.0830  223.0890 C   0  0  0  0  0  0  0  0  0  0  0  0
  141.9100   80.3280  223.4790 Cl  0  0  0  0  0  0  0  0  0  0  0  0
  141.1070   77.8590  222.5740 C   0  0  0  0  0  0  0  0  0  0  0  0
  139.9020   71.0770  223.8210 C   0  0  0  0  0  0  0  0  0  0  0  0
  139.3440   69.8280  223.6550 C   0  0  0  0  0  0  0  0  0  0  0  0
  139.3420   68.9060  224.7070 C   0  0  0  0  0  0  0  0  0  0  0  0
  139.9000   69.2400  225.9230 C   0  0  0  0  0  0  0  0  0  0  0  0
  139.9180   68.3610  226.9830 C   0  0  0  0  0  0  0  0  0  0  0  0
  140.4990   68.7540  228.1920 C   0  0  0  0  0  0  0  0  0  0  0  0
  140.5180   67.8820  229.2500 F   0  0  0  0  0  0  0  0  0  0  0  0
  141.0540   70.0190  228.3330 C   0  0  0  0  0  0  0  0  0  0  0  0
  141.0240   70.8840  227.2540 C   0  0  0  0  0  0  0  0  0  0  0  0
  140.4550   70.5130  226.0490 C   0  0  0  0  0  0  0  0  0  0  0  0
  140.4460   71.3840  225.0230 N   0  0  0  0  0  0  0  0  0  0  0  0
  138.3030   70.9870  221.7270 H   0  0  0  0  0  0  0  0  0  0  0  0
  139.8688   72.7373  220.0312 H   0  0  0  0  0  0  0  0  0  0  0  0
  138.1036   72.3531  219.8470 H   0  0  0  0  0  0  0  0  0  0  0  0
  139.2234   75.5735  218.6966 H   0  0  0  0  0  0  0  0  0  0  0  0
  139.4108   76.9842  219.7026 H   0  0  0  0  0  0  0  0  0  0  0  0
  141.4907   75.0053  218.7208 H   0  0  0  0  0  0  0  0  0  0  0  0
  141.7042   76.7272  219.0089 H   0  0  0  0  0  0  0  0  0  0  0  0
  142.1897   74.4872  220.8455 H   0  0  0  0  0  0  0  0  0  0  0  0
  142.5231   76.1992  221.1461 H   0  0  0  0  0  0  0  0  0  0  0  0
  140.6393   74.9646  222.6399 H   0  0  0  0  0  0  0  0  0  0  0  0
  138.0976   76.4113  222.2597 H   0  0  0  0  0  0  0  0  0  0  0  0
  142.1788   77.6737  222.4102 H   0  0  0  0  0  0  0  0  0  0  0  0
  138.8968   69.5540  222.6881 H   0  0  0  0  0  0  0  0  0  0  0  0
  138.8940   67.9116  224.5638 H   0  0  0  0  0  0  0  0  0  0  0  0
  139.4788   67.3579  226.8791 H   0  0  0  0  0  0  0  0  0  0  0  0
  141.5093   70.3277  229.2856 H   0  0  0  0  0  0  0  0  0  0  0  0
  141.4618   71.8879  227.3563 H   0  0  0  0  0  0  0  0  0  0  0  0
  1  2  2  0
  2  3  1  0
  3  4  1  0
  4  5  1  0
  5  6  2  0
  5  7  1  0
  7  8  1  0
  8  9  1  0
  9 10  1  0
 10 11  1  0
 11 12  1  0
 12 13  2  0
 13 14  1  0
 14 15  2  0
 15 16  1  0
 15 17  1  0
 17 18  1  0
 17 19  2  0
  2 20  1  0
 20 21  2  0
 21 22  1  0
 22 23  2  0
 23 24  1  0
 24 25  2  0
 25 26  1  0
 25 27  1  0
 27 28  2  0
 28 29  1  0
 29 30  2  0
 11  7  1  0
 19 12  1  0
 30 20  1  0
 29 23  1  0
  3 31  1  0
  4 32  1  0
  4 33  1  0
  8 34  1  0
  8 35  1  0
  9 36  1  0
  9 37  1  0
 10 38  1  0
 10 39  1  0
 11 40  1  1
 13 41  1  0
 19 42  1  0
 21 43  1  0
 22 44  1  0
 24 45  1  0
 27 46  1  0
 28 47  1  0
M  END
>  <smiles>  (35) 
O=C(NCC(=O)N1CCC[C@H]1c1cnc(Cl)c(Cl)c1)c1ccc2cc(F)ccc2n1

>  <score_type>  (35) 
oracle

>  <origin>  (35) 
autodockgpu

>  <m_score__min__energy>  (35) 
-8.9700000000000006

>  <m_primary>  (35) 
energy

>  <rmsd>  (35) 
1.8906440119945906

>  <m_score__min__rmsd>  (35) 
1.8906440119945906

>  <meeko>  (35) 
{"free_energy": -8.4, "intermolecular_energy": -9.89, "internal_energy": -1.28, "cluster_size": 17, "cluster_id": 1, "rank_in_cluster": 3}

>  <energy>  (35) 
-7.82

>  <cluster_rmsd>  (35) 
1.99

>  <cluster>  (35) 
5

$$$$

     RDKit          3D

 47 50  0  0  0  0  0  0  0  0999 V2000
  140.2850   71.0080  221.2250 O   0  0  0  0  0  0  0  0  0  0  0  0
  140.0760   71.5750  222.3240 C   0  0  0  0  0  0  0  0  0  0  0  0
  139.9530   72.9940  222.4130 N   0  0  0  0  0  0  0  0  0  0  0  0
  140.0630   73.8220  221.2290 C   0  0  0  0  0  0  0  0  0  0  0  0
  140.0890   75.2580  221.5590 C   0  0  0  0  0  0  0  0  0  0  0  0
  139.7530   75.7150  222.6850 O   0  0  0  0  0  0  0  0  0  0  0  0
  140.5170   76.1600  220.5450 N   0  0  0  0  0  0  0  0  0  0  0  0
  139.7990   76.6480  219.3810 C   0  0  0  0  0  0  0  0  0  0  0  0
  140.8100   76.4420  218.2900 C   0  0  0  0  0  0  0  0  0  0  0  0
  142.1510   76.4970  219.0080 C   0  0  0  0  0  0  0  0  0  0  0  0
  141.8340   76.8270  220.4470 C   0  0  1  0  0  0  0  0  0  0  0  0
  141.7370   78.2460  220.7610 C   0  0  0  0  0  0  0  0  0  0  0  0
  141.5220   79.1310  219.7030 C   0  0  0  0  0  0  0  0  0  0  0  0
  141.4190   80.4660  219.9230 N   0  0  0  0  0  0  0  0  0  0  0  0
  141.5140   81.0250  221.1350 C   0  0  0  0  0  0  0  0  0  0  0  0
  141.3760   82.7620  221.3840 Cl  0  0  0  0  0  0  0  0  0  0  0  0
  141.7290   80.1790  222.2170 C   0  0  0  0  0  0  0  0  0  0  0  0
  141.8620   80.8620  223.8430 Cl  0  0  0  0  0  0  0  0  0  0  0  0
  141.8350   78.8150  222.0080 C   0  0  0  0  0  0  0  0  0  0  0  0
  139.9520   70.8040  223.5660 C   0  0  0  0  0  0  0  0  0  0  0  0
  139.3930   69.5460  223.5380 C   0  0  0  0  0  0  0  0  0  0  0  0
  139.2680   68.7980  224.7140 C   0  0  0  0  0  0  0  0  0  0  0  0
  139.7020   69.3170  225.9150 C   0  0  0  0  0  0  0  0  0  0  0  0
  139.5960   68.6140  227.0950 C   0  0  0  0  0  0  0  0  0  0  0  0
  140.0560   69.1910  228.2830 C   0  0  0  0  0  0  0  0  0  0  0  0
  139.9510   68.4940  229.4590 F   0  0  0  0  0  0  0  0  0  0  0  0
  140.6140   70.4620  228.2830 C   0  0  0  0  0  0  0  0  0  0  0  0
  140.7100   71.1480  227.0860 C   0  0  0  0  0  0  0  0  0  0  0  0
  140.2620   70.5950  225.9000 C   0  0  0  0  0  0  0  0  0  0  0  0
  140.3730   71.2950  224.7560 N   0  0  0  0  0  0  0  0  0  0  0  0
  139.7770   73.4270  223.3600 H   0  0  0  0  0  0  0  0  0  0  0  0
  140.9916   73.5626  220.6995 H   0  0  0  0  0  0  0  0  0  0  0  0
  139.1801   73.6342  220.6003 H   0  0  0  0  0  0  0  0  0  0  0  0
  138.8866   76.0615  219.1979 H   0  0  0  0  0  0  0  0  0  0  0  0
  139.4498   77.6868  219.4753 H   0  0  0  0  0  0  0  0  0  0  0  0
  140.6670   75.4651  217.8050 H   0  0  0  0  0  0  0  0  0  0  0  0
  140.7281   77.1949  217.4922 H   0  0  0  0  0  0  0  0  0  0  0  0
  142.6613   75.5248  218.9414 H   0  0  0  0  0  0  0  0  0  0  0  0
  142.8203   77.2456  218.5589 H   0  0  0  0  0  0  0  0  0  0  0  0
  142.6169   76.5074  221.1506 H   0  0  0  0  0  0  0  0  0  0  0  0
  141.4350   78.7412  218.6781 H   0  0  0  0  0  0  0  0  0  0  0  0
  142.0046   78.1598  222.8752 H   0  0  0  0  0  0  0  0  0  0  0  0
  139.0420   69.1258  222.5839 H   0  0  0  0  0  0  0  0  0  0  0  0
  138.8222   67.7930  224.6800 H   0  0  0  0  0  0  0  0  0  0  0  0
  139.1532   67.6071  227.1027 H   0  0  0  0  0  0  0  0  0  0  0  0
  140.9734   70.9155  229.2185 H   0  0  0  0  0  0  0  0  0  0  0  0
  141.1522   72.1552  227.0769 H   0  0  0  0  0  0  0  0  0  0  0  0
  1  2  2  0
  2  3  1  0
  3  4  1  0
  4  5  1  0
  5  6  2  0
  5  7  1  0
  7  8  1  0
  8  9  1  0
  9 10  1  0
 10 11  1  0
 11 12  1  0
 12 13  2  0
 13 14  1  0
 14 15  2  0
 15 16  1  0
 15 17  1  0
 17 18  1  0
 17 19  2  0
  2 20  1  0
 20 21  2  0
 21 22  1  0
 22 23  2  0
 23 24  1  0
 24 25  2  0
 25 26  1  0
 25 27  1  0
 27 28  2  0
 28 29  1  0
 29 30  2  0
 11  7  1  0
 19 12  1  0
 30 20  1  0
 29 23  1  0
  3 31  1  0
  4 32  1  0
  4 33  1  0
  8 34  1  0
  8 35  1  0
  9 36  1  0
  9 37  1  0
 10 38  1  0
 10 39  1  0
 11 40  1  1
 13 41  1  0
 19 42  1  0
 21 43  1  0
 22 44  1  0
 24 45  1  0
 27 46  1  0
 28 47  1  0
M  END
>  <smiles>  (36) 
O=C(NCC(=O)N1CCC[C@H]1c1cnc(Cl)c(Cl)c1)c1ccc2cc(F)ccc2n1

>  <score_type>  (36) 
oracle

>  <origin>  (36) 
autodockgpu

>  <m_score__min__energy>  (36) 
-8.9700000000000006

>  <m_primary>  (36) 
energy

>  <rmsd>  (36) 
1.4178020690007722

>  <m_score__min__rmsd>  (36) 
1.4178020690007722

>  <meeko>  (36) 
{"free_energy": -8.34, "intermolecular_energy": -9.84, "internal_energy": -1.47, "cluster_size": 17, "cluster_id": 1, "rank_in_cluster": 6}

>  <energy>  (36) 
-8.34

>  <cluster_rmsd>  (36) 
0.0

>  <cluster>  (36) 
6

$$$$

     RDKit          3D

 47 50  0  0  0  0  0  0  0  0999 V2000
  139.0350   71.5030  220.8060 O   0  0  0  0  0  0  0  0  0  0  0  0
  139.1340   72.0690  221.9210 C   0  0  0  0  0  0  0  0  0  0  0  0
  138.9250   73.4740  222.0580 N   0  0  0  0  0  0  0  0  0  0  0  0
  138.5890   74.2880  220.9080 C   0  0  0  0  0  0  0  0  0  0  0  0
  138.6940   75.7280  221.2000 C   0  0  0  0  0  0  0  0  0  0  0  0
  137.6930   76.4900  221.2920 O   0  0  0  0  0  0  0  0  0  0  0  0
  139.9960   76.2710  221.3830 N   0  0  0  0  0  0  0  0  0  0  0  0
  140.6750   76.6480  222.6100 C   0  0  0  0  0  0  0  0  0  0  0  0
  141.1910   78.0150  222.2680 C   0  0  0  0  0  0  0  0  0  0  0  0
  141.3340   77.9930  220.7530 C   0  0  0  0  0  0  0  0  0  0  0  0
  140.9850   76.5860  220.3280 C   0  0  1  0  0  0  0  0  0  0  0  0
  142.0880   75.6350  220.3310 C   0  0  0  0  0  0  0  0  0  0  0  0
  143.3710   76.1300  220.0920 C   0  0  0  0  0  0  0  0  0  0  0  0
  144.4460   75.3010  220.0820 N   0  0  0  0  0  0  0  0  0  0  0  0
  144.3640   73.9830  220.2940 C   0  0  0  0  0  0  0  0  0  0  0  0
  145.7790   72.9370  220.2740 Cl  0  0  0  0  0  0  0  0  0  0  0  0
  143.1030   73.4480  220.5370 C   0  0  0  0  0  0  0  0  0  0  0  0
  142.9350   71.7110  220.8240 Cl  0  0  0  0  0  0  0  0  0  0  0  0
  141.9980   74.2820  220.5500 C   0  0  0  0  0  0  0  0  0  0  0  0
  139.4710   71.3120  223.1310 C   0  0  0  0  0  0  0  0  0  0  0  0
  139.2730   69.9490  223.1650 C   0  0  0  0  0  0  0  0  0  0  0  0
  139.5900   69.2140  224.3110 C   0  0  0  0  0  0  0  0  0  0  0  0
  140.1030   69.8480  225.4230 C   0  0  0  0  0  0  0  0  0  0  0  0
  140.4260   69.1600  226.5720 C   0  0  0  0  0  0  0  0  0  0  0  0
  140.9440   69.8560  227.6670 C   0  0  0  0  0  0  0  0  0  0  0  0
  141.2670   69.1750  228.8120 F   0  0  0  0  0  0  0  0  0  0  0  0
  141.1330   71.2310  227.6080 C   0  0  0  0  0  0  0  0  0  0  0  0
  140.8010   71.8990  226.4440 C   0  0  0  0  0  0  0  0  0  0  0  0
  140.2880   71.2280  225.3480 C   0  0  0  0  0  0  0  0  0  0  0  0
  139.9770   71.9160  224.2340 N   0  0  0  0  0  0  0  0  0  0  0  0
  139.0200   73.9070  223.0170 H   0  0  0  0  0  0  0  0  0  0  0  0
  139.2767   74.0416  220.0856 H   0  0  0  0  0  0  0  0  0  0  0  0
  137.5458   74.0728  220.6332 H   0  0  0  0  0  0  0  0  0  0  0  0
  139.9767   76.6844  223.4592 H   0  0  0  0  0  0  0  0  0  0  0  0
  141.4584   75.9411  222.9208 H   0  0  0  0  0  0  0  0  0  0  0  0
  140.4769   78.7909  222.5810 H   0  0  0  0  0  0  0  0  0  0  0  0
  142.1383   78.2468  222.7769 H   0  0  0  0  0  0  0  0  0  0  0  0
  140.6435   78.7148  220.2924 H   0  0  0  0  0  0  0  0  0  0  0  0
  142.3505   78.2712  220.4378 H   0  0  0  0  0  0  0  0  0  0  0  0
  140.6491   76.5172  219.2828 H   0  0  0  0  0  0  0  0  0  0  0  0
  143.5129   77.2054  219.9094 H   0  0  0  0  0  0  0  0  0  0  0  0
  141.0080   73.8434  220.7435 H   0  0  0  0  0  0  0  0  0  0  0  0
  138.8622   69.4351  222.2834 H   0  0  0  0  0  0  0  0  0  0  0  0
  139.4296   68.1258  224.3259 H   0  0  0  0  0  0  0  0  0  0  0  0
  140.2772   68.0715  226.6268 H   0  0  0  0  0  0  0  0  0  0  0  0
  141.5393   71.7782  228.4715 H   0  0  0  0  0  0  0  0  0  0  0  0
  140.9479   72.9877  226.3879 H   0  0  0  0  0  0  0  0  0  0  0  0
  1  2  2  0
  2  3  1  0
  3  4  1  0
  4  5  1  0
  5  6  2  0
  5  7  1  0
  7  8  1  0
  8  9  1  0
  9 10  1  0
 10 11  1  0
 11 12  1  0
 12 13  2  0
 13 14  1  0
 14 15  2  0
 15 16  1  0
 15 17  1  0
 17 18  1  0
 17 19  2  0
  2 20  1  0
 20 21  2  0
 21 22  1  0
 22 23  2  0
 23 24  1  0
 24 25  2  0
 25 26  1  0
 25 27  1  0
 27 28  2  0
 28 29  1  0
 29 30  2  0
 11  7  1  0
 19 12  1  0
 30 20  1  0
 29 23  1  0
  3 31  1  0
  4 32  1  0
  4 33  1  0
  8 34  1  0
  8 35  1  0
  9 36  1  0
  9 37  1  0
 10 38  1  0
 10 39  1  0
 11 40  1  6
 13 41  1  0
 19 42  1  0
 21 43  1  0
 22 44  1  0
 24 45  1  0
 27 46  1  0
 28 47  1  0
M  END
>  <smiles>  (37) 
O=C(NCC(=O)N1CCC[C@H]1c1cnc(Cl)c(Cl)c1)c1ccc2cc(F)ccc2n1

>  <score_type>  (37) 
oracle

>  <origin>  (37) 
autodockgpu

>  <m_score__min__energy>  (37) 
-8.9700000000000006

>  <m_primary>  (37) 
energy

>  <rmsd>  (37) 
2.3847797109557876

>  <m_score__min__rmsd>  (37) 
2.3847797109557876

>  <meeko>  (37) 
{"free_energy": -7.88, "intermolecular_energy": -9.37, "internal_energy": -2.02, "cluster_size": 6, "cluster_id": 4, "rank_in_cluster": 6}

>  <energy>  (37) 
-8.02

>  <cluster_rmsd>  (37) 
0.0

>  <cluster>  (37) 
7

$$$$

     RDKit          3D

 47 50  0  0  0  0  0  0  0  0999 V2000
  137.2620   70.6110  221.8260 O   0  0  0  0  0  0  0  0  0  0  0  0
  137.9790   71.1970  222.6720 C   0  0  0  0  0  0  0  0  0  0  0  0
  138.2690   72.5890  222.5580 N   0  0  0  0  0  0  0  0  0  0  0  0
  137.7390   73.3680  221.4580 C   0  0  0  0  0  0  0  0  0  0  0  0
  137.5610   74.7860  221.8190 C   0  0  0  0  0  0  0  0  0  0  0  0
  138.4460   75.6640  221.6290 O   0  0  0  0  0  0  0  0  0  0  0  0
  136.3250   75.1660  222.4120 N   0  0  0  0  0  0  0  0  0  0  0  0
  135.0020   75.2460  221.8180 C   0  0  0  0  0  0  0  0  0  0  0  0
  134.5430   76.6010  222.2730 C   0  0  0  0  0  0  0  0  0  0  0  0
  135.3200   76.8470  223.5590 C   0  0  0  0  0  0  0  0  0  0  0  0
  136.1020   75.5800  223.8150 C   0  0  1  0  0  0  0  0  0  0  0  0
  135.4020   74.5490  224.5690 C   0  0  0  0  0  0  0  0  0  0  0  0
  134.6070   74.9580  225.6420 C   0  0  0  0  0  0  0  0  0  0  0  0
  133.9250   74.0520  226.3870 N   0  0  0  0  0  0  0  0  0  0  0  0
  133.9590   72.7330  226.1610 C   0  0  0  0  0  0  0  0  0  0  0  0
  133.0620   71.5850  227.1480 Cl  0  0  0  0  0  0  0  0  0  0  0  0
  134.7400   72.2830  225.1020 C   0  0  0  0  0  0  0  0  0  0  0  0
  134.8230   70.5510  224.7560 Cl  0  0  0  0  0  0  0  0  0  0  0  0
  135.4410   73.1960  224.3330 C   0  0  0  0  0  0  0  0  0  0  0  0
  138.5520   70.4760  223.8140 C   0  0  0  0  0  0  0  0  0  0  0  0
  138.3660   69.1160  223.9290 C   0  0  0  0  0  0  0  0  0  0  0  0
  138.9060   68.4140  225.0110 C   0  0  0  0  0  0  0  0  0  0  0  0
  139.6310   69.0800  225.9770 C   0  0  0  0  0  0  0  0  0  0  0  0
  140.1780   68.4260  227.0590 C   0  0  0  0  0  0  0  0  0  0  0  0
  140.9050   69.1530  228.0060 C   0  0  0  0  0  0  0  0  0  0  0  0
  141.4520   68.5050  229.0840 F   0  0  0  0  0  0  0  0  0  0  0  0
  141.0770   70.5240  227.8670 C   0  0  0  0  0  0  0  0  0  0  0  0
  140.5180   71.1580  226.7730 C   0  0  0  0  0  0  0  0  0  0  0  0
  139.7970   70.4560  225.8240 C   0  0  0  0  0  0  0  0  0  0  0  0
  139.2680   71.1110  224.7730 N   0  0  0  0  0  0  0  0  0  0  0  0
  138.8780   73.0400  223.2950 H   0  0  0  0  0  0  0  0  0  0  0  0
  138.4354   73.3027  220.6090 H   0  0  0  0  0  0  0  0  0  0  0  0
  136.7522   72.9581  221.1967 H   0  0  0  0  0  0  0  0  0  0  0  0
  135.0514   75.1874  220.7207 H   0  0  0  0  0  0  0  0  0  0  0  0
  134.3308   74.4259  222.1128 H   0  0  0  0  0  0  0  0  0  0  0  0
  134.7820   77.3668  221.5204 H   0  0  0  0  0  0  0  0  0  0  0  0
  133.4543   76.6482  222.4233 H   0  0  0  0  0  0  0  0  0  0  0  0
  136.0028   77.7007  223.4368 H   0  0  0  0  0  0  0  0  0  0  0  0
  134.6499   77.0861  224.3979 H   0  0  0  0  0  0  0  0  0  0  0  0
  136.9907   75.7362  224.4441 H   0  0  0  0  0  0  0  0  0  0  0  0
  134.5328   76.0280  225.8862 H   0  0  0  0  0  0  0  0  0  0  0  0
  136.0541   72.8232  223.4992 H   0  0  0  0  0  0  0  0  0  0  0  0
  137.7879   68.5778  223.1634 H   0  0  0  0  0  0  0  0  0  0  0  0
  138.7522   67.3278  225.0920 H   0  0  0  0  0  0  0  0  0  0  0  0
  140.0438   67.3406  227.1768 H   0  0  0  0  0  0  0  0  0  0  0  0
  141.6477   71.0952  228.6139 H   0  0  0  0  0  0  0  0  0  0  0  0
  140.6494   72.2437  226.6547 H   0  0  0  0  0  0  0  0  0  0  0  0
  1  2  2  0
  2  3  1  0
  3  4  1  0
  4  5  1  0
  5  6  2  0
  5  7  1  0
  7  8  1  0
  8  9  1  0
  9 10  1  0
 10 11  1  0
 11 12  1  0
 12 13  2  0
 13 14  1  0
 14 15  2  0
 15 16  1  0
 15 17  1  0
 17 18  1  0
 17 19  2  0
  2 20  1  0
 20 21  2  0
 21 22  1  0
 22 23  2  0
 23 24  1  0
 24 25  2  0
 25 26  1  0
 25 27  1  0
 27 28  2  0
 28 29  1  0
 29 30  2  0
 11  7  1  0
 19 12  1  0
 30 20  1  0
 29 23  1  0
  3 31  1  0
  4 32  1  0
  4 33  1  0
  8 34  1  0
  8 35  1  0
  9 36  1  0
  9 37  1  0
 10 38  1  0
 10 39  1  0
 11 40  1  1
 13 41  1  0
 19 42  1  0
 21 43  1  0
 22 44  1  0
 24 45  1  0
 27 46  1  0
 28 47  1  0
M  END
>  <smiles>  (38) 
O=C(NCC(=O)N1CCC[C@H]1c1cnc(Cl)c(Cl)c1)c1ccc2cc(F)ccc2n1

>  <score_type>  (38) 
oracle

>  <origin>  (38) 
autodockgpu

>  <m_score__min__energy>  (38) 
-8.9700000000000006

>  <m_primary>  (38) 
energy

>  <rmsd>  (38) 
3.8696566341992895

>  <m_score__min__rmsd>  (38) 
3.8696566341992895

>  <meeko>  (38) 
{"free_energy": -7.58, "intermolecular_energy": -9.07, "internal_energy": -2.24, "cluster_size": 12, "cluster_id": 7, "rank_in_cluster": 9}

>  <energy>  (38) 
-8.01

>  <cluster_rmsd>  (38) 
0.38

>  <cluster>  (38) 
7

$$$$

     RDKit          3D

 47 50  0  0  0  0  0  0  0  0999 V2000
  140.2730   73.6110  222.3400 O   0  0  0  0  0  0  0  0  0  0  0  0
  140.5280   72.3830  222.3160 C   0  0  0  0  0  0  0  0  0  0  0  0
  141.0660   71.7620  221.1500 N   0  0  0  0  0  0  0  0  0  0  0  0
  141.3360   72.5380  219.9570 C   0  0  0  0  0  0  0  0  0  0  0  0
  142.4200   73.5150  220.1660 C   0  0  0  0  0  0  0  0  0  0  0  0
  142.2140   74.7430  220.3640 O   0  0  0  0  0  0  0  0  0  0  0  0
  143.7580   73.0320  220.1390 N   0  0  0  0  0  0  0  0  0  0  0  0
  144.7250   72.9320  221.2170 C   0  0  0  0  0  0  0  0  0  0  0  0
  145.9440   73.5460  220.5930 C   0  0  0  0  0  0  0  0  0  0  0  0
  145.7550   73.3200  219.0990 C   0  0  0  0  0  0  0  0  0  0  0  0
  144.4890   72.5060  218.9650 C   0  0  1  0  0  0  0  0  0  0  0  0
  144.6580   71.0610  219.0460 C   0  0  0  0  0  0  0  0  0  0  0  0
  145.9570   70.5670  219.1790 C   0  0  0  0  0  0  0  0  0  0  0  0
  146.1880   69.2320  219.2620 N   0  0  0  0  0  0  0  0  0  0  0  0
  145.2190   68.3110  219.2240 C   0  0  0  0  0  0  0  0  0  0  0  0
  145.5540   66.5870  219.3340 Cl  0  0  0  0  0  0  0  0  0  0  0  0
  143.9090   68.7610  219.0920 C   0  0  0  0  0  0  0  0  0  0  0  0
  142.5870   67.5880  219.0360 Cl  0  0  0  0  0  0  0  0  0  0  0  0
  143.6590   70.1190  219.0060 C   0  0  0  0  0  0  0  0  0  0  0  0
  140.2820   71.5320  223.4860 C   0  0  0  0  0  0  0  0  0  0  0  0
  139.5900   70.3500  223.3400 C   0  0  0  0  0  0  0  0  0  0  0  0
  139.3480   69.5280  224.4450 C   0  0  0  0  0  0  0  0  0  0  0  0
  139.8000   69.8950  225.6950 C   0  0  0  0  0  0  0  0  0  0  0  0
  139.5820   69.1140  226.8090 C   0  0  0  0  0  0  0  0  0  0  0  0
  140.0650   69.5370  228.0500 C   0  0  0  0  0  0  0  0  0  0  0  0
  139.8500   68.7620  229.1600 F   0  0  0  0  0  0  0  0  0  0  0  0
  140.7590   70.7330  228.1700 C   0  0  0  0  0  0  0  0  0  0  0  0
  140.9660   71.5000  227.0380 C   0  0  0  0  0  0  0  0  0  0  0  0
  140.4970   71.0990  225.8000 C   0  0  0  0  0  0  0  0  0  0  0  0
  140.7180   71.8740  224.7220 N   0  0  0  0  0  0  0  0  0  0  0  0
  141.2650   70.7240  221.1770 H   0  0  0  0  0  0  0  0  0  0  0  0
  141.6266   71.8534  219.1465 H   0  0  0  0  0  0  0  0  0  0  0  0
  140.4225   73.0945  219.7003 H   0  0  0  0  0  0  0  0  0  0  0  0
  144.3990   73.4989  222.1015 H   0  0  0  0  0  0  0  0  0  0  0  0
  144.8802   71.9063  221.5828 H   0  0  0  0  0  0  0  0  0  0  0  0
  145.9992   74.6207  220.8208 H   0  0  0  0  0  0  0  0  0  0  0  0
  146.8778   73.1039  220.9705 H   0  0  0  0  0  0  0  0  0  0  0  0
  145.6495   74.2819  218.5760 H   0  0  0  0  0  0  0  0  0  0  0  0
  146.6185   72.8036  218.6543 H   0  0  0  0  0  0  0  0  0  0  0  0
  144.0068   72.6083  217.9816 H   0  0  0  0  0  0  0  0  0  0  0  0
  146.8037   71.2682  219.2170 H   0  0  0  0  0  0  0  0  0  0  0  0
  142.6179   70.4582  218.9013 H   0  0  0  0  0  0  0  0  0  0  0  0
  139.2249   70.0504  222.3465 H   0  0  0  0  0  0  0  0  0  0  0  0
  138.7953   68.5856  224.3167 H   0  0  0  0  0  0  0  0  0  0  0  0
  139.0322   68.1652  226.7221 H   0  0  0  0  0  0  0  0  0  0  0  0
  141.1376   71.0649  229.1480 H   0  0  0  0  0  0  0  0  0  0  0  0
  141.5153   72.4491  227.1239 H   0  0  0  0  0  0  0  0  0  0  0  0
  1  2  2  0
  2  3  1  0
  3  4  1  0
  4  5  1  0
  5  6  2  0
  5  7  1  0
  7  8  1  0
  8  9  1  0
  9 10  1  0
 10 11  1  0
 11 12  1  0
 12 13  2  0
 13 14  1  0
 14 15  2  0
 15 16  1  0
 15 17  1  0
 17 18  1  0
 17 19  2  0
  2 20  1  0
 20 21  2  0
 21 22  1  0
 22 23  2  0
 23 24  1  0
 24 25  2  0
 25 26  1  0
 25 27  1  0
 27 28  2  0
 28 29  1  0
 29 30  2  0
 11  7  1  0
 19 12  1  0
 30 20  1  0
 29 23  1  0
  3 31  1  0
  4 32  1  0
  4 33  1  0
  8 34  1  0
  8 35  1  0
  9 36  1  0
  9 37  1  0
 10 38  1  0
 10 39  1  0
 11 40  1  6
 13 41  1  0
 19 42  1  0
 21 43  1  0
 22 44  1  0
 24 45  1  0
 27 46  1  0
 28 47  1  0
M  END
>  <smiles>  (39) 
O=C(NCC(=O)N1CCC[C@H]1c1cnc(Cl)c(Cl)c1)c1ccc2cc(F)ccc2n1

>  <score_type>  (39) 
oracle

>  <origin>  (39) 
autodockgpu

>  <m_score__min__energy>  (39) 
-8.9700000000000006

>  <m_primary>  (39) 
energy

>  <rmsd>  (39) 
4.084618753709149

>  <m_score__min__rmsd>  (39) 
4.084618753709149

>  <meeko>  (39) 
{"free_energy": -8.57, "intermolecular_energy": -10.06, "internal_energy": -1.36, "cluster_size": 1, "cluster_id": 3, "rank_in_cluster": 1}

>  <energy>  (39) 
-7.71

>  <cluster_rmsd>  (39) 
0.33

>  <cluster>  (39) 
7

$$$$

     RDKit          3D

 47 50  0  0  0  0  0  0  0  0999 V2000
  138.0960   76.0810  220.5010 O   0  0  0  0  0  0  0  0  0  0  0  0
  138.7370   76.0980  221.5800 C   0  0  0  0  0  0  0  0  0  0  0  0
  139.0100   74.8940  222.2960 N   0  0  0  0  0  0  0  0  0  0  0  0
  138.5540   73.6140  221.7930 C   0  0  0  0  0  0  0  0  0  0  0  0
  139.6220   72.5990  221.8140 C   0  0  0  0  0  0  0  0  0  0  0  0
  140.8260   72.8560  221.5380 O   0  0  0  0  0  0  0  0  0  0  0  0
  139.2610   71.2680  222.1640 N   0  0  0  0  0  0  0  0  0  0  0  0
  139.7780   70.0080  221.6600 C   0  0  0  0  0  0  0  0  0  0  0  0
  138.5130   69.2570  221.3590 C   0  0  0  0  0  0  0  0  0  0  0  0
  137.4850   69.8630  222.3030 C   0  0  0  0  0  0  0  0  0  0  0  0
  138.2420   70.8550  223.1540 C   0  0  1  0  0  0  0  0  0  0  0  0
  138.8580   70.3120  224.3570 C   0  0  0  0  0  0  0  0  0  0  0  0
  138.7090   68.9460  224.6010 C   0  0  0  0  0  0  0  0  0  0  0  0
  139.2590   68.3720  225.7020 N   0  0  0  0  0  0  0  0  0  0  0  0
  139.9650   69.0500  226.6150 C   0  0  0  0  0  0  0  0  0  0  0  0
  140.6630   68.2740  228.0310 Cl  0  0  0  0  0  0  0  0  0  0  0  0
  140.1370   70.4150  226.4090 C   0  0  0  0  0  0  0  0  0  0  0  0
  141.0620   71.3620  227.5820 Cl  0  0  0  0  0  0  0  0  0  0  0  0
  139.5830   71.0130  225.2910 C   0  0  0  0  0  0  0  0  0  0  0  0
  139.2330   77.3540  222.1520 C   0  0  0  0  0  0  0  0  0  0  0  0
  138.3410   78.2800  222.6480 C   0  0  0  0  0  0  0  0  0  0  0  0
  138.7980   79.4820  223.1970 C   0  0  0  0  0  0  0  0  0  0  0  0
  140.1490   79.7540  223.2460 C   0  0  0  0  0  0  0  0  0  0  0  0
  140.6390   80.9260  223.7770 C   0  0  0  0  0  0  0  0  0  0  0  0
  142.0190   81.1460  223.8010 C   0  0  0  0  0  0  0  0  0  0  0  0
  142.5100   82.3120  224.3290 F   0  0  0  0  0  0  0  0  0  0  0  0
  142.8960   80.1970  223.2930 C   0  0  0  0  0  0  0  0  0  0  0  0
  142.3810   79.0280  222.7640 C   0  0  0  0  0  0  0  0  0  0  0  0
  141.0180   78.7910  222.7330 C   0  0  0  0  0  0  0  0  0  0  0  0
  140.5560   77.6400  222.2100 N   0  0  0  0  0  0  0  0  0  0  0  0
  139.5540   74.9570  223.2000 H   0  0  0  0  0  0  0  0  0  0  0  0
  137.7194   73.2639  222.4182 H   0  0  0  0  0  0  0  0  0  0  0  0
  138.2386   73.7529  220.7484 H   0  0  0  0  0  0  0  0  0  0  0  0
  140.3814   70.1567  220.7524 H   0  0  0  0  0  0  0  0  0  0  0  0
  140.4489   69.4890  222.3604 H   0  0  0  0  0  0  0  0  0  0  0  0
  138.2132   69.4022  220.3106 H   0  0  0  0  0  0  0  0  0  0  0  0
  138.6244   68.1715  221.4982 H   0  0  0  0  0  0  0  0  0  0  0  0
  136.6945   70.3725  221.7325 H   0  0  0  0  0  0  0  0  0  0  0  0
  136.9960   69.0927  222.9174 H   0  0  0  0  0  0  0  0  0  0  0  0
  137.6021   71.6417  223.5803 H   0  0  0  0  0  0  0  0  0  0  0  0
  138.1390   68.3267  223.8928 H   0  0  0  0  0  0  0  0  0  0  0  0
  139.7287   72.0933  225.1436 H   0  0  0  0  0  0  0  0  0  0  0  0
  137.2615   78.0720  222.6117 H   0  0  0  0  0  0  0  0  0  0  0  0
  138.0772   80.2134  223.5913 H   0  0  0  0  0  0  0  0  0  0  0  0
  139.9498   81.6832  224.1791 H   0  0  0  0  0  0  0  0  0  0  0  0
  143.9818   80.3722  223.3111 H   0  0  0  0  0  0  0  0  0  0  0  0
  143.0688   78.2708  222.3595 H   0  0  0  0  0  0  0  0  0  0  0  0
  1  2  2  0
  2  3  1  0
  3  4  1  0
  4  5  1  0
  5  6  2  0
  5  7  1  0
  7  8  1  0
  8  9  1  0
  9 10  1  0
 10 11  1  0
 11 12  1  0
 12 13  2  0
 13 14  1  0
 14 15  2  0
 15 16  1  0
 15 17  1  0
 17 18  1  0
 17 19  2  0
  2 20  1  0
 20 21  2  0
 21 22  1  0
 22 23  2  0
 23 24  1  0
 24 25  2  0
 25 26  1  0
 25 27  1  0
 27 28  2  0
 28 29  1  0
 29 30  2  0
 11  7  1  0
 19 12  1  0
 30 20  1  0
 29 23  1  0
  3 31  1  0
  4 32  1  0
  4 33  1  0
  8 34  1  0
  8 35  1  0
  9 36  1  0
  9 37  1  0
 10 38  1  0
 10 39  1  0
 11 40  1  1
 13 41  1  0
 19 42  1  0
 21 43  1  0
 22 44  1  0
 24 45  1  0
 27 46  1  0
 28 47  1  0
M  END
>  <smiles>  (40) 
O=C(NCC(=O)N1CCC[C@H]1c1cnc(Cl)c(Cl)c1)c1ccc2cc(F)ccc2n1

>  <score_type>  (40) 
oracle

>  <origin>  (40) 
autodockgpu

>  <m_score__min__energy>  (40) 
-8.9700000000000006

>  <m_primary>  (40) 
energy

>  <rmsd>  (40) 
8.439007372961687

>  <m_score__min__rmsd>  (40) 
8.439007372961687

>  <meeko>  (40) 
{"free_energy": -8.61, "intermolecular_energy": -10.1, "internal_energy": -1.16, "cluster_size": 6, "cluster_id": 2, "rank_in_cluster": 2}

>  <energy>  (40) 
-7.69

>  <cluster_rmsd>  (40) 
0.97

>  <cluster>  (40) 
7

$$$$

     RDKit          3D

 47 50  0  0  0  0  0  0  0  0999 V2000
  139.7700   70.8450  221.4530 O   0  0  0  0  0  0  0  0  0  0  0  0
  139.7020   71.5760  222.4700 C   0  0  0  0  0  0  0  0  0  0  0  0
  139.2750   72.9350  222.3760 N   0  0  0  0  0  0  0  0  0  0  0  0
  138.9050   73.5080  221.0980 C   0  0  0  0  0  0  0  0  0  0  0  0
  138.7420   74.9700  221.1750 C   0  0  0  0  0  0  0  0  0  0  0  0
  137.6190   75.5360  221.2760 O   0  0  0  0  0  0  0  0  0  0  0  0
  139.9180   75.7690  221.1300 N   0  0  0  0  0  0  0  0  0  0  0  0
  140.5490   76.5440  222.1830 C   0  0  0  0  0  0  0  0  0  0  0  0
  140.7780   77.8610  221.4990 C   0  0  0  0  0  0  0  0  0  0  0  0
  140.8750   77.5040  220.0230 C   0  0  0  0  0  0  0  0  0  0  0  0
  140.7940   75.9970  219.9590 C   0  0  1  0  0  0  0  0  0  0  0  0
  142.0610   75.2910  220.0950 C   0  0  0  0  0  0  0  0  0  0  0  0
  143.2340   76.0360  219.9640 C   0  0  0  0  0  0  0  0  0  0  0  0
  144.4500   75.4430  220.0820 N   0  0  0  0  0  0  0  0  0  0  0  0
  144.6160   74.1380  220.3250 C   0  0  0  0  0  0  0  0  0  0  0  0
  146.2080   73.4030  220.4710 Cl  0  0  0  0  0  0  0  0  0  0  0  0
  143.4720   73.3590  220.4620 C   0  0  0  0  0  0  0  0  0  0  0  0
  143.6300   71.6280  220.7840 Cl  0  0  0  0  0  0  0  0  0  0  0  0
  142.2250   73.9500  220.3450 C   0  0  0  0  0  0  0  0  0  0  0  0
  140.0580   71.0670  223.7990 C   0  0  0  0  0  0  0  0  0  0  0  0
  140.6870   71.8940  224.7030 C   0  0  0  0  0  0  0  0  0  0  0  0
  141.0330   71.4240  225.9740 C   0  0  0  0  0  0  0  0  0  0  0  0
  140.7490   70.1240  226.3340 C   0  0  0  0  0  0  0  0  0  0  0  0
  141.0740   69.6220  227.5740 C   0  0  0  0  0  0  0  0  0  0  0  0
  140.7590   68.2950  227.8840 C   0  0  0  0  0  0  0  0  0  0  0  0
  141.0810   67.7930  229.1180 F   0  0  0  0  0  0  0  0  0  0  0  0
  140.1260   67.4820  226.9530 C   0  0  0  0  0  0  0  0  0  0  0  0
  139.8100   68.0080  225.7140 C   0  0  0  0  0  0  0  0  0  0  0  0
  140.1110   69.3190  225.3890 C   0  0  0  0  0  0  0  0  0  0  0  0
  139.7870   69.7930  224.1720 N   0  0  0  0  0  0  0  0  0  0  0  0
  139.2330   73.5120  223.2600 H   0  0  0  0  0  0  0  0  0  0  0  0
  139.6910   73.2765  220.3641 H   0  0  0  0  0  0  0  0  0  0  0  0
  137.9399   73.0740  220.7978 H   0  0  0  0  0  0  0  0  0  0  0  0
  139.8843   76.6544  223.0525 H   0  0  0  0  0  0  0  0  0  0  0  0
  141.4643   76.0860  222.5861 H   0  0  0  0  0  0  0  0  0  0  0  0
  139.9366   78.5460  221.6801 H   0  0  0  0  0  0  0  0  0  0  0  0
  141.6773   78.3761  221.8676 H   0  0  0  0  0  0  0  0  0  0  0  0
  140.0429   77.9566  219.4638 H   0  0  0  0  0  0  0  0  0  0  0  0
  141.8073   77.8791  219.5757 H   0  0  0  0  0  0  0  0  0  0  0  0
  140.4460   75.6201  218.9859 H   0  0  0  0  0  0  0  0  0  0  0  0
  143.1728   77.1157  219.7629 H   0  0  0  0  0  0  0  0  0  0  0  0
  141.3299   73.3205  220.4567 H   0  0  0  0  0  0  0  0  0  0  0  0
  140.9190   72.9322  224.4232 H   0  0  0  0  0  0  0  0  0  0  0  0
  141.5334   72.0939  226.6887 H   0  0  0  0  0  0  0  0  0  0  0  0
  141.5776   70.2597  228.3154 H   0  0  0  0  0  0  0  0  0  0  0  0
  139.8803   66.4379  227.1970 H   0  0  0  0  0  0  0  0  0  0  0  0
  139.3086   67.3707  224.9707 H   0  0  0  0  0  0  0  0  0  0  0  0
  1  2  2  0
  2  3  1  0
  3  4  1  0
  4  5  1  0
  5  6  2  0
  5  7  1  0
  7  8  1  0
  8  9  1  0
  9 10  1  0
 10 11  1  0
 11 12  1  0
 12 13  2  0
 13 14  1  0
 14 15  2  0
 15 16  1  0
 15 17  1  0
 17 18  1  0
 17 19  2  0
  2 20  1  0
 20 21  2  0
 21 22  1  0
 22 23  2  0
 23 24  1  0
 24 25  2  0
 25 26  1  0
 25 27  1  0
 27 28  2  0
 28 29  1  0
 29 30  2  0
 11  7  1  0
 19 12  1  0
 30 20  1  0
 29 23  1  0
  3 31  1  0
  4 32  1  0
  4 33  1  0
  8 34  1  0
  8 35  1  0
  9 36  1  0
  9 37  1  0
 10 38  1  0
 10 39  1  0
 11 40  1  6
 13 41  1  0
 19 42  1  0
 21 43  1  0
 22 44  1  0
 24 45  1  0
 27 46  1  0
 28 47  1  0
M  END
>  <smiles>  (41) 
O=C(NCC(=O)N1CCC[C@H]1c1cnc(Cl)c(Cl)c1)c1ccc2cc(F)ccc2n1

>  <score_type>  (41) 
oracle

>  <origin>  (41) 
autodockgpu

>  <m_score__min__energy>  (41) 
-8.9700000000000006

>  <m_primary>  (41) 
energy

>  <rmsd>  (41) 
3.063850139123828

>  <m_score__min__rmsd>  (41) 
3.063850139123828

>  <meeko>  (41) 
{"free_energy": -8.35, "intermolecular_energy": -9.84, "internal_energy": -1.58, "cluster_size": 6, "cluster_id": 4, "rank_in_cluster": 2}

>  <energy>  (41) 
-7.63

>  <cluster_rmsd>  (41) 
0.96

>  <cluster>  (41) 
7

$$$$

     RDKit          3D

 47 50  0  0  0  0  0  0  0  0999 V2000
  140.4850   71.5020  220.9820 O   0  0  0  0  0  0  0  0  0  0  0  0
  140.1390   72.0160  222.0720 C   0  0  0  0  0  0  0  0  0  0  0  0
  139.8640   73.4130  222.1770 N   0  0  0  0  0  0  0  0  0  0  0  0
  139.9770   74.2780  221.0200 C   0  0  0  0  0  0  0  0  0  0  0  0
  140.6470   75.5500  221.3450 C   0  0  0  0  0  0  0  0  0  0  0  0
  141.0840   75.8280  222.4940 O   0  0  0  0  0  0  0  0  0  0  0  0
  140.7980   76.5010  220.2980 N   0  0  0  0  0  0  0  0  0  0  0  0
  139.8510   76.9080  219.2750 C   0  0  0  0  0  0  0  0  0  0  0  0
  140.6900   76.8270  218.0320 C   0  0  0  0  0  0  0  0  0  0  0  0
  142.1140   77.0360  218.5280 C   0  0  0  0  0  0  0  0  0  0  0  0
  141.9970   77.3190  220.0070 C   0  0  1  0  0  0  0  0  0  0  0  0
  141.7890   78.7150  220.3660 C   0  0  0  0  0  0  0  0  0  0  0  0
  141.4650   79.6070  219.3420 C   0  0  0  0  0  0  0  0  0  0  0  0
  141.2560   80.9220  219.6050 N   0  0  0  0  0  0  0  0  0  0  0  0
  141.3420   81.4530  220.8300 C   0  0  0  0  0  0  0  0  0  0  0  0
  141.0650   83.1640  221.1360 Cl  0  0  0  0  0  0  0  0  0  0  0  0
  141.6630   80.5990  221.8800 C   0  0  0  0  0  0  0  0  0  0  0  0
  141.7910   81.2460  223.5210 Cl  0  0  0  0  0  0  0  0  0  0  0  0
  141.8790   79.2560  221.6260 C   0  0  0  0  0  0  0  0  0  0  0  0
  140.0020   71.2050  223.2870 C   0  0  0  0  0  0  0  0  0  0  0  0
  139.4310   69.9540  223.2140 C   0  0  0  0  0  0  0  0  0  0  0  0
  139.2940   69.1680  224.3630 C   0  0  0  0  0  0  0  0  0  0  0  0
  139.7300   69.6410  225.5830 C   0  0  0  0  0  0  0  0  0  0  0  0
  139.6120   68.9000  226.7380 C   0  0  0  0  0  0  0  0  0  0  0  0
  140.0730   69.4310  227.9460 C   0  0  0  0  0  0  0  0  0  0  0  0
  139.9580   68.6950  229.0970 F   0  0  0  0  0  0  0  0  0  0  0  0
  140.6440   70.6950  227.9910 C   0  0  0  0  0  0  0  0  0  0  0  0
  140.7510   71.4210  226.8190 C   0  0  0  0  0  0  0  0  0  0  0  0
  140.3020   70.9130  225.6130 C   0  0  0  0  0  0  0  0  0  0  0  0
  140.4240   71.6510  224.4940 N   0  0  0  0  0  0  0  0  0  0  0  0
  139.5750   73.8010  223.1160 H   0  0  0  0  0  0  0  0  0  0  0  0
  140.5582   73.7587  220.2437 H   0  0  0  0  0  0  0  0  0  0  0  0
  138.9608   74.5094  220.6682 H   0  0  0  0  0  0  0  0  0  0  0  0
  138.9941   76.2200  219.2256 H   0  0  0  0  0  0  0  0  0  0  0  0
  139.4053   77.8986  219.4485 H   0  0  0  0  0  0  0  0  0  0  0  0
  140.5842   75.8422  217.5535 H   0  0  0  0  0  0  0  0  0  0  0  0
  140.3944   77.5686  217.2752 H   0  0  0  0  0  0  0  0  0  0  0  0
  142.7157   76.1311  218.3575 H   0  0  0  0  0  0  0  0  0  0  0  0
  142.6112   77.8605  217.9960 H   0  0  0  0  0  0  0  0  0  0  0  0
  142.9144   77.0899  220.5690 H   0  0  0  0  0  0  0  0  0  0  0  0
  141.3780   79.2393  218.3089 H   0  0  0  0  0  0  0  0  0  0  0  0
  142.1332   78.5943  222.4672 H   0  0  0  0  0  0  0  0  0  0  0  0
  139.0800   69.5699  222.2449 H   0  0  0  0  0  0  0  0  0  0  0  0
  138.8372   68.1698  224.2933 H   0  0  0  0  0  0  0  0  0  0  0  0
  139.1585   67.8982  226.7100 H   0  0  0  0  0  0  0  0  0  0  0  0
  141.0052   71.1122  228.9425 H   0  0  0  0  0  0  0  0  0  0  0  0
  141.2027   72.4236  226.8461 H   0  0  0  0  0  0  0  0  0  0  0  0
  1  2  2  0
  2  3  1  0
  3  4  1  0
  4  5  1  0
  5  6  2  0
  5  7  1  0
  7  8  1  0
  8  9  1  0
  9 10  1  0
 10 11  1  0
 11 12  1  0
 12 13  2  0
 13 14  1  0
 14 15  2  0
 15 16  1  0
 15 17  1  0
 17 18  1  0
 17 19  2  0
  2 20  1  0
 20 21  2  0
 21 22  1  0
 22 23  2  0
 23 24  1  0
 24 25  2  0
 25 26  1  0
 25 27  1  0
 27 28  2  0
 28 29  1  0
 29 30  2  0
 11  7  1  0
 19 12  1  0
 30 20  1  0
 29 23  1  0
  3 31  1  0
  4 32  1  0
  4 33  1  0
  8 34  1  0
  8 35  1  0
  9 36  1  0
  9 37  1  0
 10 38  1  0
 10 39  1  0
 11 40  1  1
 13 41  1  0
 19 42  1  0
 21 43  1  0
 22 44  1  0
 24 45  1  0
 27 46  1  0
 28 47  1  0
M  END
>  <smiles>  (42) 
O=C(NCC(=O)N1CCC[C@H]1c1cnc(Cl)c(Cl)c1)c1ccc2cc(F)ccc2n1

>  <score_type>  (42) 
oracle

>  <origin>  (42) 
autodockgpu

>  <m_score__min__energy>  (42) 
-8.9700000000000006

>  <m_primary>  (42) 
energy

>  <rmsd>  (42) 
1.4272485581387835

>  <m_score__min__rmsd>  (42) 
1.4272485581387835

>  <meeko>  (42) 
{"free_energy": -8.21, "intermolecular_energy": -9.71, "internal_energy": -1.34, "cluster_size": 17, "cluster_id": 1, "rank_in_cluster": 8}

>  <energy>  (42) 
-7.63

>  <cluster_rmsd>  (42) 
0.96

>  <cluster>  (42) 
7

$$$$

     RDKit          3D

 47 50  0  0  0  0  0  0  0  0999 V2000
  137.7390   71.0210  221.7200 O   0  0  0  0  0  0  0  0  0  0  0  0
  138.4900   71.4620  222.6220 C   0  0  0  0  0  0  0  0  0  0  0  0
  138.9900   72.7970  222.5800 N   0  0  0  0  0  0  0  0  0  0  0  0
  138.6410   73.6850  221.4900 C   0  0  0  0  0  0  0  0  0  0  0  0
  138.1480   74.9870  221.9720 C   0  0  0  0  0  0  0  0  0  0  0  0
  138.8980   75.9830  222.1620 O   0  0  0  0  0  0  0  0  0  0  0  0
  136.7550   75.1100  222.2330 N   0  0  0  0  0  0  0  0  0  0  0  0
  135.6240   74.7530  221.3960 C   0  0  0  0  0  0  0  0  0  0  0  0
  134.7780   75.9900  221.4790 C   0  0  0  0  0  0  0  0  0  0  0  0
  135.1580   76.6140  222.8150 C   0  0  0  0  0  0  0  0  0  0  0  0
  136.1250   75.6480  223.4590 C   0  0  1  0  0  0  0  0  0  0  0  0
  135.5200   74.5890  224.2560 C   0  0  0  0  0  0  0  0  0  0  0  0
  134.7110   74.9680  225.3290 C   0  0  0  0  0  0  0  0  0  0  0  0
  134.1140   74.0340  226.1130 N   0  0  0  0  0  0  0  0  0  0  0  0
  134.2490   72.7160  225.9260 C   0  0  0  0  0  0  0  0  0  0  0  0
  133.4590   71.5330  226.9610 Cl  0  0  0  0  0  0  0  0  0  0  0  0
  135.0470   72.2960  224.8670 C   0  0  0  0  0  0  0  0  0  0  0  0
  135.2610   70.5660  224.5710 Cl  0  0  0  0  0  0  0  0  0  0  0  0
  135.6620   73.2370  224.0590 C   0  0  0  0  0  0  0  0  0  0  0  0
  138.8870   70.6240  223.7590 C   0  0  0  0  0  0  0  0  0  0  0  0
  138.5420   69.2910  223.7810 C   0  0  0  0  0  0  0  0  0  0  0  0
  138.9140   68.4790  224.8580 C   0  0  0  0  0  0  0  0  0  0  0  0
  139.6300   69.0070  225.9100 C   0  0  0  0  0  0  0  0  0  0  0  0
  140.0150   68.2420  226.9890 C   0  0  0  0  0  0  0  0  0  0  0  0
  140.7420   68.8330  228.0270 C   0  0  0  0  0  0  0  0  0  0  0  0
  141.1260   68.0740  229.1020 F   0  0  0  0  0  0  0  0  0  0  0  0
  141.0760   70.1800  227.9800 C   0  0  0  0  0  0  0  0  0  0  0  0
  140.6790   70.9270  226.8870 C   0  0  0  0  0  0  0  0  0  0  0  0
  139.9610   70.3610  225.8490 C   0  0  0  0  0  0  0  0  0  0  0  0
  139.5920   71.1230  224.8020 N   0  0  0  0  0  0  0  0  0  0  0  0
  139.6200   73.1250  223.3630 H   0  0  0  0  0  0  0  0  0  0  0  0
  139.5333   73.8515  220.8686 H   0  0  0  0  0  0  0  0  0  0  0  0
  137.8346   73.2105  220.9115 H   0  0  0  0  0  0  0  0  0  0  0  0
  135.9390   74.5519  220.3614 H   0  0  0  0  0  0  0  0  0  0  0  0
  135.1057   73.8366  221.7147 H   0  0  0  0  0  0  0  0  0  0  0  0
  135.0065   76.6752  220.6494 H   0  0  0  0  0  0  0  0  0  0  0  0
  133.7025   75.7703  221.4075 H   0  0  0  0  0  0  0  0  0  0  0  0
  135.6390   77.5908  222.6587 H   0  0  0  0  0  0  0  0  0  0  0  0
  134.2749   76.7859  223.4479 H   0  0  0  0  0  0  0  0  0  0  0  0
  136.7850   76.1210  224.2011 H   0  0  0  0  0  0  0  0  0  0  0  0
  134.5555   76.0360  225.5417 H   0  0  0  0  0  0  0  0  0  0  0  0
  136.2896   72.8880  223.2258 H   0  0  0  0  0  0  0  0  0  0  0  0
  137.9697   68.8614  222.9456 H   0  0  0  0  0  0  0  0  0  0  0  0
  138.6338   67.4153  224.8648 H   0  0  0  0  0  0  0  0  0  0  0  0
  139.7526   67.1747  227.0337 H   0  0  0  0  0  0  0  0  0  0  0  0
  141.6464   70.6442  228.7980 H   0  0  0  0  0  0  0  0  0  0  0  0
  140.9397   71.9947  226.8416 H   0  0  0  0  0  0  0  0  0  0  0  0
  1  2  2  0
  2  3  1  0
  3  4  1  0
  4  5  1  0
  5  6  2  0
  5  7  1  0
  7  8  1  0
  8  9  1  0
  9 10  1  0
 10 11  1  0
 11 12  1  0
 12 13  2  0
 13 14  1  0
 14 15  2  0
 15 16  1  0
 15 17  1  0
 17 18  1  0
 17 19  2  0
  2 20  1  0
 20 21  2  0
 21 22  1  0
 22 23  2  0
 23 24  1  0
 24 25  2  0
 25 26  1  0
 25 27  1  0
 27 28  2  0
 28 29  1  0
 29 30  2  0
 11  7  1  0
 19 12  1  0
 30 20  1  0
 29 23  1  0
  3 31  1  0
  4 32  1  0
  4 33  1  0
  8 34  1  0
  8 35  1  0
  9 36  1  0
  9 37  1  0
 10 38  1  0
 10 39  1  0
 11 40  1  1
 13 41  1  0
 19 42  1  0
 21 43  1  0
 22 44  1  0
 24 45  1  0
 27 46  1  0
 28 47  1  0
M  END
>  <smiles>  (43) 
O=C(NCC(=O)N1CCC[C@H]1c1cnc(Cl)c(Cl)c1)c1ccc2cc(F)ccc2n1

>  <score_type>  (43) 
oracle

>  <origin>  (43) 
autodockgpu

>  <m_score__min__energy>  (43) 
-8.9700000000000006

>  <m_primary>  (43) 
energy

>  <rmsd>  (43) 
3.592404061551638

>  <m_score__min__rmsd>  (43) 
3.592404061551638

>  <meeko>  (43) 
{"free_energy": -7.54, "intermolecular_energy": -9.04, "internal_energy": -2.24, "cluster_size": 12, "cluster_id": 7, "rank_in_cluster": 12}

>  <energy>  (43) 
-7.6

>  <cluster_rmsd>  (43) 
0.93

>  <cluster>  (43) 
7

$$$$

     RDKit          3D

 47 50  0  0  0  0  0  0  0  0999 V2000
  139.4590   70.8420  221.1700 O   0  0  0  0  0  0  0  0  0  0  0  0
  139.5320   71.3850  222.2980 C   0  0  0  0  0  0  0  0  0  0  0  0
  139.5560   72.8060  222.4360 N   0  0  0  0  0  0  0  0  0  0  0  0
  139.4940   73.6630  221.2690 C   0  0  0  0  0  0  0  0  0  0  0  0
  139.8680   75.0530  221.5840 C   0  0  0  0  0  0  0  0  0  0  0  0
  139.6920   75.5760  222.7180 O   0  0  0  0  0  0  0  0  0  0  0  0
  140.4530   75.8300  220.5470 N   0  0  0  0  0  0  0  0  0  0  0  0
  139.9130   76.1960  219.2490 C   0  0  0  0  0  0  0  0  0  0  0  0
  141.0540   75.8550  218.3350 C   0  0  0  0  0  0  0  0  0  0  0  0
  142.2880   75.9690  219.2180 C   0  0  0  0  0  0  0  0  0  0  0  0
  141.7910   76.4620  220.5570 C   0  0  1  0  0  0  0  0  0  0  0  0
  141.6960   77.9090  220.6990 C   0  0  0  0  0  0  0  0  0  0  0  0
  141.4560   78.4200  221.9760 C   0  0  0  0  0  0  0  0  0  0  0  0
  141.3580   79.7580  222.1820 N   0  0  0  0  0  0  0  0  0  0  0  0
  141.4790   80.6670  221.2080 C   0  0  0  0  0  0  0  0  0  0  0  0
  141.3460   82.3950  221.5110 Cl  0  0  0  0  0  0  0  0  0  0  0  0
  141.7190   80.2000  219.9200 C   0  0  0  0  0  0  0  0  0  0  0  0
  141.8880   81.3550  218.5920 Cl  0  0  0  0  0  0  0  0  0  0  0  0
  141.8220   78.8380  219.6950 C   0  0  0  0  0  0  0  0  0  0  0  0
  139.5980   70.5840  223.5250 C   0  0  0  0  0  0  0  0  0  0  0  0
  139.1410   69.2850  223.5210 C   0  0  0  0  0  0  0  0  0  0  0  0
  139.1970   68.5080  224.6830 C   0  0  0  0  0  0  0  0  0  0  0  0
  139.7110   69.0380  225.8470 C   0  0  0  0  0  0  0  0  0  0  0  0
  139.7830   68.3070  227.0120 C   0  0  0  0  0  0  0  0  0  0  0  0
  140.3160   68.8970  228.1630 C   0  0  0  0  0  0  0  0  0  0  0  0
  140.3890   68.1730  229.3240 F   0  0  0  0  0  0  0  0  0  0  0  0
  140.7680   70.2100  228.1400 C   0  0  0  0  0  0  0  0  0  0  0  0
  140.6860   70.9240  226.9590 C   0  0  0  0  0  0  0  0  0  0  0  0
  140.1640   70.3570  225.8100 C   0  0  0  0  0  0  0  0  0  0  0  0
  140.1000   71.0860  224.6800 N   0  0  0  0  0  0  0  0  0  0  0  0
  139.6190   73.2180  223.4060 H   0  0  0  0  0  0  0  0  0  0  0  0
  140.1839   73.2739  220.5057 H   0  0  0  0  0  0  0  0  0  0  0  0
  138.4564   73.6649  220.9038 H   0  0  0  0  0  0  0  0  0  0  0  0
  139.0163   75.6064  219.0075 H   0  0  0  0  0  0  0  0  0  0  0  0
  139.5861   77.2441  219.1818 H   0  0  0  0  0  0  0  0  0  0  0  0
  140.9478   74.8325  217.9435 H   0  0  0  0  0  0  0  0  0  0  0  0
  141.1021   76.5161  217.4571 H   0  0  0  0  0  0  0  0  0  0  0  0
  142.7732   74.9878  219.3270 H   0  0  0  0  0  0  0  0  0  0  0  0
  143.0337   76.6526  218.7859 H   0  0  0  0  0  0  0  0  0  0  0  0
  142.4626   76.2106  221.3912 H   0  0  0  0  0  0  0  0  0  0  0  0
  141.3450   77.7299  222.8254 H   0  0  0  0  0  0  0  0  0  0  0  0
  142.0125   78.4853  218.6706 H   0  0  0  0  0  0  0  0  0  0  0  0
  138.7285   68.8547  222.5965 H   0  0  0  0  0  0  0  0  0  0  0  0
  138.8298   67.4712  224.6677 H   0  0  0  0  0  0  0  0  0  0  0  0
  139.4243   67.2674  227.0372 H   0  0  0  0  0  0  0  0  0  0  0  0
  141.1843   70.6741  229.0463 H   0  0  0  0  0  0  0  0  0  0  0  0
  141.0431   71.9641  226.9323 H   0  0  0  0  0  0  0  0  0  0  0  0
  1  2  2  0
  2  3  1  0
  3  4  1  0
  4  5  1  0
  5  6  2  0
  5  7  1  0
  7  8  1  0
  8  9  1  0
  9 10  1  0
 10 11  1  0
 11 12  1  0
 12 13  2  0
 13 14  1  0
 14 15  2  0
 15 16  1  0
 15 17  1  0
 17 18  1  0
 17 19  2  0
  2 20  1  0
 20 21  2  0
 21 22  1  0
 22 23  2  0
 23 24  1  0
 24 25  2  0
 25 26  1  0
 25 27  1  0
 27 28  2  0
 28 29  1  0
 29 30  2  0
 11  7  1  0
 19 12  1  0
 30 20  1  0
 29 23  1  0
  3 31  1  0
  4 32  1  0
  4 33  1  0
  8 34  1  0
  8 35  1  0
  9 36  1  0
  9 37  1  0
 10 38  1  0
 10 39  1  0
 11 40  1  1
 13 41  1  0
 19 42  1  0
 21 43  1  0
 22 44  1  0
 24 45  1  0
 27 46  1  0
 28 47  1  0
M  END
>  <smiles>  (44) 
O=C(NCC(=O)N1CCC[C@H]1c1cnc(Cl)c(Cl)c1)c1ccc2cc(F)ccc2n1

>  <score_type>  (44) 
oracle

>  <origin>  (44) 
autodockgpu

>  <m_score__min__energy>  (44) 
-8.9700000000000006

>  <m_primary>  (44) 
energy

>  <rmsd>  (44) 
1.2898844598112733

>  <m_score__min__rmsd>  (44) 
1.2898844598112733

>  <meeko>  (44) 
{"free_energy": -7.96, "intermolecular_energy": -9.46, "internal_energy": -1.64, "cluster_size": 17, "cluster_id": 1, "rank_in_cluster": 14}

>  <energy>  (44) 
-7.59

>  <cluster_rmsd>  (44) 
0.93

>  <cluster>  (44) 
7

$$$$

     RDKit          3D

 47 50  0  0  0  0  0  0  0  0999 V2000
  138.7890   71.1350  221.0850 O   0  0  0  0  0  0  0  0  0  0  0  0
  139.0560   71.7320  222.1550 C   0  0  0  0  0  0  0  0  0  0  0  0
  139.0350   73.1570  222.2310 N   0  0  0  0  0  0  0  0  0  0  0  0
  138.7010   73.9550  221.0690 C   0  0  0  0  0  0  0  0  0  0  0  0
  138.7180   75.3990  221.3660 C   0  0  0  0  0  0  0  0  0  0  0  0
  137.6760   76.0680  221.6070 O   0  0  0  0  0  0  0  0  0  0  0  0
  139.9800   76.0550  221.3760 N   0  0  0  0  0  0  0  0  0  0  0  0
  140.7010   76.6530  222.4860 C   0  0  0  0  0  0  0  0  0  0  0  0
  141.0800   77.9900  221.9200 C   0  0  0  0  0  0  0  0  0  0  0  0
  141.1300   77.7600  220.4160 C   0  0  0  0  0  0  0  0  0  0  0  0
  140.8720   76.2850  220.2180 C   0  0  1  0  0  0  0  0  0  0  0  0
  142.0470   75.4270  220.2730 C   0  0  0  0  0  0  0  0  0  0  0  0
  143.2940   76.0230  220.0740 C   0  0  0  0  0  0  0  0  0  0  0  0
  144.4320   75.2840  220.1130 N   0  0  0  0  0  0  0  0  0  0  0  0
  144.4500   73.9650  220.3380 C   0  0  0  0  0  0  0  0  0  0  0  0
  145.9440   73.0370  220.3820 Cl  0  0  0  0  0  0  0  0  0  0  0  0
  143.2280   73.3320  220.5420 C   0  0  0  0  0  0  0  0  0  0  0  0
  143.1900   71.5900  220.8440 Cl  0  0  0  0  0  0  0  0  0  0  0  0
  142.0600   74.0730  220.5050 C   0  0  0  0  0  0  0  0  0  0  0  0
  139.4030   70.9930  223.3730 C   0  0  0  0  0  0  0  0  0  0  0  0
  139.2170   69.6300  223.4240 C   0  0  0  0  0  0  0  0  0  0  0  0
  139.5430   68.9110  224.5790 C   0  0  0  0  0  0  0  0  0  0  0  0
  140.0550   69.5630  225.6800 C   0  0  0  0  0  0  0  0  0  0  0  0
  140.3880   68.8920  226.8360 C   0  0  0  0  0  0  0  0  0  0  0  0
  140.9040   69.6060  227.9220 C   0  0  0  0  0  0  0  0  0  0  0  0
  141.2360   68.9420  229.0740 F   0  0  0  0  0  0  0  0  0  0  0  0
  141.0800   70.9810  227.8450 C   0  0  0  0  0  0  0  0  0  0  0  0
  140.7380   71.6330  226.6740 C   0  0  0  0  0  0  0  0  0  0  0  0
  140.2280   70.9440  225.5880 C   0  0  0  0  0  0  0  0  0  0  0  0
  139.9070   71.6150  224.4660 N   0  0  0  0  0  0  0  0  0  0  0  0
  139.2670   73.6170  223.1530 H   0  0  0  0  0  0  0  0  0  0  0  0
  139.4322   73.7475  220.2738 H   0  0  0  0  0  0  0  0  0  0  0  0
  137.6822   73.6854  220.7537 H   0  0  0  0  0  0  0  0  0  0  0  0
  140.0565   76.7606  223.3709 H   0  0  0  0  0  0  0  0  0  0  0  0
  141.5577   76.0571  222.8339 H   0  0  0  0  0  0  0  0  0  0  0  0
  140.3251   78.7488  222.1735 H   0  0  0  0  0  0  0  0  0  0  0  0
  142.0348   78.3612  222.3208 H   0  0  0  0  0  0  0  0  0  0  0  0
  140.3553   78.3558  219.9112 H   0  0  0  0  0  0  0  0  0  0  0  0
  142.0986   78.0628  219.9915 H   0  0  0  0  0  0  0  0  0  0  0  0
  140.4786   76.0418  219.2199 H   0  0  0  0  0  0  0  0  0  0  0  0
  143.3549   77.1046  219.8833 H   0  0  0  0  0  0  0  0  0  0  0  0
  141.1025   73.5567  220.6681 H   0  0  0  0  0  0  0  0  0  0  0  0
  138.8088   69.1019  222.5496 H   0  0  0  0  0  0  0  0  0  0  0  0
  139.3902   67.8221  224.6085 H   0  0  0  0  0  0  0  0  0  0  0  0
  140.2491   67.8029  226.9043 H   0  0  0  0  0  0  0  0  0  0  0  0
  141.4844   71.5422  228.7003 H   0  0  0  0  0  0  0  0  0  0  0  0
  140.8744   72.7223  226.6047 H   0  0  0  0  0  0  0  0  0  0  0  0
  1  2  2  0
  2  3  1  0
  3  4  1  0
  4  5  1  0
  5  6  2  0
  5  7  1  0
  7  8  1  0
  8  9  1  0
  9 10  1  0
 10 11  1  0
 11 12  1  0
 12 13  2  0
 13 14  1  0
 14 15  2  0
 15 16  1  0
 15 17  1  0
 17 18  1  0
 17 19  2  0
  2 20  1  0
 20 21  2  0
 21 22  1  0
 22 23  2  0
 23 24  1  0
 24 25  2  0
 25 26  1  0
 25 27  1  0
 27 28  2  0
 28 29  1  0
 29 30  2  0
 11  7  1  0
 19 12  1  0
 30 20  1  0
 29 23  1  0
  3 31  1  0
  4 32  1  0
  4 33  1  0
  8 34  1  0
  8 35  1  0
  9 36  1  0
  9 37  1  0
 10 38  1  0
 10 39  1  0
 11 40  1  6
 13 41  1  0
 19 42  1  0
 21 43  1  0
 22 44  1  0
 24 45  1  0
 27 46  1  0
 28 47  1  0
M  END
>  <smiles>  (45) 
O=C(NCC(=O)N1CCC[C@H]1c1cnc(Cl)c(Cl)c1)c1ccc2cc(F)ccc2n1

>  <score_type>  (45) 
oracle

>  <origin>  (45) 
autodockgpu

>  <m_score__min__energy>  (45) 
-8.9700000000000006

>  <m_primary>  (45) 
energy

>  <rmsd>  (45) 
2.2452735808071718

>  <m_score__min__rmsd>  (45) 
2.2452735808071718

>  <meeko>  (45) 
{"free_energy": -8.16, "intermolecular_energy": -9.66, "internal_energy": -1.89, "cluster_size": 6, "cluster_id": 4, "rank_in_cluster": 5}

>  <energy>  (45) 
-7.58

>  <cluster_rmsd>  (45) 
1.01

>  <cluster>  (45) 
7

$$$$

     RDKit          3D

 47 50  0  0  0  0  0  0  0  0999 V2000
  137.5750   70.8510  221.8230 O   0  0  0  0  0  0  0  0  0  0  0  0
  138.3350   71.3340  222.6970 C   0  0  0  0  0  0  0  0  0  0  0  0
  138.7830   72.6870  222.6200 N   0  0  0  0  0  0  0  0  0  0  0  0
  138.3700   73.5430  221.5270 C   0  0  0  0  0  0  0  0  0  0  0  0
  138.0210   74.8980  221.9870 C   0  0  0  0  0  0  0  0  0  0  0  0
  138.8580   75.8380  222.0680 O   0  0  0  0  0  0  0  0  0  0  0  0
  136.6690   75.1420  222.3570 N   0  0  0  0  0  0  0  0  0  0  0  0
  135.4540   74.9700  221.5810 C   0  0  0  0  0  0  0  0  0  0  0  0
  134.7540   76.2780  221.8140 C   0  0  0  0  0  0  0  0  0  0  0  0
  135.2850   76.7520  223.1590 C   0  0  0  0  0  0  0  0  0  0  0  0
  136.1810   75.6440  223.6610 C   0  0  1  0  0  0  0  0  0  0  0  0
  135.5180   74.5930  224.4210 C   0  0  0  0  0  0  0  0  0  0  0  0
  134.7140   74.9790  225.4960 C   0  0  0  0  0  0  0  0  0  0  0  0
  134.0660   74.0530  226.2460 N   0  0  0  0  0  0  0  0  0  0  0  0
  134.1420   72.7360  226.0240 C   0  0  0  0  0  0  0  0  0  0  0  0
  133.2870   71.5620  227.0180 Cl  0  0  0  0  0  0  0  0  0  0  0  0
  134.9330   72.3080  224.9630 C   0  0  0  0  0  0  0  0  0  0  0  0
  135.0710   70.5780  224.6220 Cl  0  0  0  0  0  0  0  0  0  0  0  0
  135.6000   73.2410  224.1890 C   0  0  0  0  0  0  0  0  0  0  0  0
  138.7960   70.5300  223.8340 C   0  0  0  0  0  0  0  0  0  0  0  0
  138.5200   69.1820  223.8760 C   0  0  0  0  0  0  0  0  0  0  0  0
  138.9530   68.4010  224.9530 C   0  0  0  0  0  0  0  0  0  0  0  0
  139.6610   68.9770  225.9860 C   0  0  0  0  0  0  0  0  0  0  0  0
  140.1040   68.2450  227.0650 C   0  0  0  0  0  0  0  0  0  0  0  0
  140.8190   68.8830  228.0830 C   0  0  0  0  0  0  0  0  0  0  0  0
  141.2620   68.1570  229.1580 F   0  0  0  0  0  0  0  0  0  0  0  0
  141.0830   70.2440  228.0160 C   0  0  0  0  0  0  0  0  0  0  0  0
  140.6280   70.9590  226.9240 C   0  0  0  0  0  0  0  0  0  0  0  0
  139.9200   70.3460  225.9050 C   0  0  0  0  0  0  0  0  0  0  0  0
  139.4930   71.0770  224.8590 N   0  0  0  0  0  0  0  0  0  0  0  0
  139.4220   73.0500  223.3790 H   0  0  0  0  0  0  0  0  0  0  0  0
  139.1942   73.6156  220.8022 H   0  0  0  0  0  0  0  0  0  0  0  0
  137.4739   73.0992  221.0686 H   0  0  0  0  0  0  0  0  0  0  0  0
  135.6776   74.8197  220.5145 H   0  0  0  0  0  0  0  0  0  0  0  0
  134.8613   74.0895  221.8700 H   0  0  0  0  0  0  0  0  0  0  0  0
  135.0011   76.9992  221.0210 H   0  0  0  0  0  0  0  0  0  0  0  0
  133.6587   76.1767  221.8057 H   0  0  0  0  0  0  0  0  0  0  0  0
  135.8581   77.6831  223.0381 H   0  0  0  0  0  0  0  0  0  0  0  0
  134.4685   76.9638  223.8650 H   0  0  0  0  0  0  0  0  0  0  0  0
  136.9340   75.9870  224.3858 H   0  0  0  0  0  0  0  0  0  0  0  0
  134.6050   76.0467  225.7372 H   0  0  0  0  0  0  0  0  0  0  0  0
  136.2214   72.8859  223.3537 H   0  0  0  0  0  0  0  0  0  0  0  0
  137.9544   68.7151  223.0562 H   0  0  0  0  0  0  0  0  0  0  0  0
  138.7279   67.3245  224.9755 H   0  0  0  0  0  0  0  0  0  0  0  0
  139.8969   67.1664  227.1255 H   0  0  0  0  0  0  0  0  0  0  0  0
  141.6447   70.7451  228.8182 H   0  0  0  0  0  0  0  0  0  0  0  0
  140.8330   72.0380  226.8636 H   0  0  0  0  0  0  0  0  0  0  0  0
  1  2  2  0
  2  3  1  0
  3  4  1  0
  4  5  1  0
  5  6  2  0
  5  7  1  0
  7  8  1  0
  8  9  1  0
  9 10  1  0
 10 11  1  0
 11 12  1  0
 12 13  2  0
 13 14  1  0
 14 15  2  0
 15 16  1  0
 15 17  1  0
 17 18  1  0
 17 19  2  0
  2 20  1  0
 20 21  2  0
 21 22  1  0
 22 23  2  0
 23 24  1  0
 24 25  2  0
 25 26  1  0
 25 27  1  0
 27 28  2  0
 28 29  1  0
 29 30  2  0
 11  7  1  0
 19 12  1  0
 30 20  1  0
 29 23  1  0
  3 31  1  0
  4 32  1  0
  4 33  1  0
  8 34  1  0
  8 35  1  0
  9 36  1  0
  9 37  1  0
 10 38  1  0
 10 39  1  0
 11 40  1  1
 13 41  1  0
 19 42  1  0
 21 43  1  0
 22 44  1  0
 24 45  1  0
 27 46  1  0
 28 47  1  0
M  END
>  <smiles>  (46) 
O=C(NCC(=O)N1CCC[C@H]1c1cnc(Cl)c(Cl)c1)c1ccc2cc(F)ccc2n1

>  <score_type>  (46) 
oracle

>  <origin>  (46) 
autodockgpu

>  <m_score__min__energy>  (46) 
-8.9700000000000006

>  <m_primary>  (46) 
energy

>  <rmsd>  (46) 
3.6780344783990295

>  <m_score__min__rmsd>  (46) 
3.6780344783990295

>  <meeko>  (46) 
{"free_energy": -7.6, "intermolecular_energy": -9.09, "internal_energy": -2.22, "cluster_size": 12, "cluster_id": 7, "rank_in_cluster": 7}

>  <energy>  (46) 
-7.56

>  <cluster_rmsd>  (46) 
0.94

>  <cluster>  (46) 
7

$$$$

     RDKit          3D

 47 50  0  0  0  0  0  0  0  0999 V2000
  138.2730   70.9100  220.9990 O   0  0  0  0  0  0  0  0  0  0  0  0
  138.4380   71.5380  222.0720 C   0  0  0  0  0  0  0  0  0  0  0  0
  138.1780   72.9390  222.1570 N   0  0  0  0  0  0  0  0  0  0  0  0
  137.7130   73.6760  221.0000 C   0  0  0  0  0  0  0  0  0  0  0  0
  138.7610   73.8140  219.9730 C   0  0  0  0  0  0  0  0  0  0  0  0
  138.7230   73.2200  218.8610 O   0  0  0  0  0  0  0  0  0  0  0  0
  139.8640   74.6630  220.2670 N   0  0  0  0  0  0  0  0  0  0  0  0
  140.6480   75.5000  219.3770 C   0  0  0  0  0  0  0  0  0  0  0  0
  142.0510   75.1340  219.7670 C   0  0  0  0  0  0  0  0  0  0  0  0
  141.9280   74.6700  221.2120 C   0  0  0  0  0  0  0  0  0  0  0  0
  140.4830   74.8900  221.5920 C   0  0  1  0  0  0  0  0  0  0  0  0
  140.1620   76.2130  222.1100 C   0  0  0  0  0  0  0  0  0  0  0  0
  138.8130   76.5380  222.2660 C   0  0  0  0  0  0  0  0  0  0  0  0
  138.4410   77.7530  222.7440 N   0  0  0  0  0  0  0  0  0  0  0  0
  139.3110   78.7070  223.0950 C   0  0  0  0  0  0  0  0  0  0  0  0
  138.7950   80.2720  223.7120 Cl  0  0  0  0  0  0  0  0  0  0  0  0
  140.6660   78.4240  222.9550 C   0  0  0  0  0  0  0  0  0  0  0  0
  141.8620   79.6480  223.4020 Cl  0  0  0  0  0  0  0  0  0  0  0  0
  141.0590   77.1900  222.4680 C   0  0  0  0  0  0  0  0  0  0  0  0
  138.9070   70.8610  223.2860 C   0  0  0  0  0  0  0  0  0  0  0  0
  138.7110   69.5050  223.4330 C   0  0  0  0  0  0  0  0  0  0  0  0
  139.1520   68.8450  224.5850 C   0  0  0  0  0  0  0  0  0  0  0  0
  139.7880   69.5470  225.5860 C   0  0  0  0  0  0  0  0  0  0  0  0
  140.2370   68.9350  226.7360 C   0  0  0  0  0  0  0  0  0  0  0  0
  140.8760   69.6980  227.7170 C   0  0  0  0  0  0  0  0  0  0  0  0
  141.3240   69.0920  228.8620 F   0  0  0  0  0  0  0  0  0  0  0  0
  141.0600   71.0640  227.5440 C   0  0  0  0  0  0  0  0  0  0  0  0
  140.6010   71.6560  226.3820 C   0  0  0  0  0  0  0  0  0  0  0  0
  139.9670   70.9180  225.3980 C   0  0  0  0  0  0  0  0  0  0  0  0
  139.5340   71.5320  224.2810 N   0  0  0  0  0  0  0  0  0  0  0  0
  138.3320   73.4250  223.0820 H   0  0  0  0  0  0  0  0  0  0  0  0
  136.8551   73.1447  220.5622 H   0  0  0  0  0  0  0  0  0  0  0  0
  137.4296   74.6854  221.3327 H   0  0  0  0  0  0  0  0  0  0  0  0
  140.4497   75.2587  218.3223 H   0  0  0  0  0  0  0  0  0  0  0  0
  140.4269   76.5739  219.4658 H   0  0  0  0  0  0  0  0  0  0  0  0
  142.4348   74.3245  219.1287 H   0  0  0  0  0  0  0  0  0  0  0  0
  142.7527   75.9733  219.6522 H   0  0  0  0  0  0  0  0  0  0  0  0
  142.1884   73.6046  221.2959 H   0  0  0  0  0  0  0  0  0  0  0  0
  142.6101   75.2228  221.8747 H   0  0  0  0  0  0  0  0  0  0  0  0
  140.1491   74.2506  222.4225 H   0  0  0  0  0  0  0  0  0  0  0  0
  138.0421   75.8004  221.9983 H   0  0  0  0  0  0  0  0  0  0  0  0
  142.1342   76.9827  222.3631 H   0  0  0  0  0  0  0  0  0  0  0  0
  138.2041   68.9373  222.6388 H   0  0  0  0  0  0  0  0  0  0  0  0
  138.9906   67.7622  224.6922 H   0  0  0  0  0  0  0  0  0  0  0  0
  140.0935   67.8540  226.8808 H   0  0  0  0  0  0  0  0  0  0  0  0
  141.5618   71.6638  228.3176 H   0  0  0  0  0  0  0  0  0  0  0  0
  140.7428   72.7371  226.2365 H   0  0  0  0  0  0  0  0  0  0  0  0
  1  2  2  0
  2  3  1  0
  3  4  1  0
  4  5  1  0
  5  6  2  0
  5  7  1  0
  7  8  1  0
  8  9  1  0
  9 10  1  0
 10 11  1  0
 11 12  1  0
 12 13  2  0
 13 14  1  0
 14 15  2  0
 15 16  1  0
 15 17  1  0
 17 18  1  0
 17 19  2  0
  2 20  1  0
 20 21  2  0
 21 22  1  0
 22 23  2  0
 23 24  1  0
 24 25  2  0
 25 26  1  0
 25 27  1  0
 27 28  2  0
 28 29  1  0
 29 30  2  0
 11  7  1  0
 19 12  1  0
 30 20  1  0
 29 23  1  0
  3 31  1  0
  4 32  1  0
  4 33  1  0
  8 34  1  0
  8 35  1  0
  9 36  1  0
  9 37  1  0
 10 38  1  0
 10 39  1  0
 11 40  1  1
 13 41  1  0
 19 42  1  0
 21 43  1  0
 22 44  1  0
 24 45  1  0
 27 46  1  0
 28 47  1  0
M  END
>  <smiles>  (47) 
O=C(NCC(=O)N1CCC[C@H]1c1cnc(Cl)c(Cl)c1)c1ccc2cc(F)ccc2n1

>  <score_type>  (47) 
oracle

>  <origin>  (47) 
autodockgpu

>  <m_score__min__energy>  (47) 
-8.9700000000000006

>  <m_primary>  (47) 
energy

>  <rmsd>  (47) 
2.0286700253993706

>  <m_score__min__rmsd>  (47) 
2.0286700253993706

>  <meeko>  (47) 
{"free_energy": -7.75, "intermolecular_energy": -9.24, "internal_energy": -1.71, "cluster_size": 17, "cluster_id": 1, "rank_in_cluster": 17}

>  <energy>  (47) 
-7.56

>  <cluster_rmsd>  (47) 
0.93

>  <cluster>  (47) 
7

$$$$

     RDKit          3D

 47 50  0  0  0  0  0  0  0  0999 V2000
  135.8560   71.6370  222.8690 O   0  0  0  0  0  0  0  0  0  0  0  0
  135.8700   72.8310  223.2550 C   0  0  0  0  0  0  0  0  0  0  0  0
  136.7420   73.7910  222.6610 N   0  0  0  0  0  0  0  0  0  0  0  0
  137.6400   73.4110  221.5880 C   0  0  0  0  0  0  0  0  0  0  0  0
  139.0130   73.1830  222.0710 C   0  0  0  0  0  0  0  0  0  0  0  0
  139.8140   74.1180  222.3440 O   0  0  0  0  0  0  0  0  0  0  0  0
  139.4420   71.8360  222.2310 N   0  0  0  0  0  0  0  0  0  0  0  0
  140.7020   71.2180  221.8610 C   0  0  0  0  0  0  0  0  0  0  0  0
  140.2390   69.9820  221.1450 C   0  0  0  0  0  0  0  0  0  0  0  0
  138.8690   69.6950  221.7430 C   0  0  0  0  0  0  0  0  0  0  0  0
  138.6720   70.7240  222.8310 C   0  0  1  0  0  0  0  0  0  0  0  0
  139.1930   70.3620  224.1420 C   0  0  0  0  0  0  0  0  0  0  0  0
  139.0510   69.0350  224.5520 C   0  0  0  0  0  0  0  0  0  0  0  0
  139.5150   68.6270  225.7610 N   0  0  0  0  0  0  0  0  0  0  0  0
  140.1260   69.4390  226.6300 C   0  0  0  0  0  0  0  0  0  0  0  0
  140.7160   68.8770  228.1900 Cl  0  0  0  0  0  0  0  0  0  0  0  0
  140.2890   70.7710  226.2610 C   0  0  0  0  0  0  0  0  0  0  0  0
  141.0900   71.8900  227.3700 Cl  0  0  0  0  0  0  0  0  0  0  0  0
  139.8210   71.2000  225.0310 C   0  0  0  0  0  0  0  0  0  0  0  0
  134.9900   73.2910  224.3350 C   0  0  0  0  0  0  0  0  0  0  0  0
  134.2720   72.3750  225.0710 C   0  0  0  0  0  0  0  0  0  0  0  0
  133.4290   72.7980  226.1040 C   0  0  0  0  0  0  0  0  0  0  0  0
  133.3090   74.1400  226.3950 C   0  0  0  0  0  0  0  0  0  0  0  0
  132.4890   74.5980  227.4030 C   0  0  0  0  0  0  0  0  0  0  0  0
  132.4080   75.9710  227.6540 C   0  0  0  0  0  0  0  0  0  0  0  0
  131.5940   76.4300  228.6570 F   0  0  0  0  0  0  0  0  0  0  0  0
  133.1430   76.8730  226.8960 C   0  0  0  0  0  0  0  0  0  0  0  0
  133.9580   76.3900  225.8890 C   0  0  0  0  0  0  0  0  0  0  0  0
  134.0530   75.0350  225.6270 C   0  0  0  0  0  0  0  0  0  0  0  0
  134.8580   74.6050  224.6370 N   0  0  0  0  0  0  0  0  0  0  0  0
  136.7190   74.7840  223.0190 H   0  0  0  0  0  0  0  0  0  0  0  0
  137.2682   72.4850  221.1251 H   0  0  0  0  0  0  0  0  0  0  0  0
  137.6686   74.2361  220.8611 H   0  0  0  0  0  0  0  0  0  0  0  0
  141.2881   71.8700  221.1966 H   0  0  0  0  0  0  0  0  0  0  0  0
  141.3667   71.0162  222.7139 H   0  0  0  0  0  0  0  0  0  0  0  0
  140.1620   70.1638  220.0629 H   0  0  0  0  0  0  0  0  0  0  0  0
  140.9360   69.1395  221.2651 H   0  0  0  0  0  0  0  0  0  0  0  0
  138.0874   69.7945  220.9754 H   0  0  0  0  0  0  0  0  0  0  0  0
  138.8060   68.6704  222.1382 H   0  0  0  0  0  0  0  0  0  0  0  0
  137.6142   70.9110  223.0677 H   0  0  0  0  0  0  0  0  0  0  0  0
  138.5570   68.3110  223.8873 H   0  0  0  0  0  0  0  0  0  0  0  0
  139.9576   72.2557  224.7539 H   0  0  0  0  0  0  0  0  0  0  0  0
  134.3621   71.3023  224.8448 H   0  0  0  0  0  0  0  0  0  0  0  0
  132.8603   72.0576  226.6857 H   0  0  0  0  0  0  0  0  0  0  0  0
  131.9025   73.8889  228.0057 H   0  0  0  0  0  0  0  0  0  0  0  0
  133.0779   77.9532  227.0933 H   0  0  0  0  0  0  0  0  0  0  0  0
  134.5431   77.0979  225.2836 H   0  0  0  0  0  0  0  0  0  0  0  0
  1  2  2  0
  2  3  1  0
  3  4  1  0
  4  5  1  0
  5  6  2  0
  5  7  1  0
  7  8  1  0
  8  9  1  0
  9 10  1  0
 10 11  1  0
 11 12  1  0
 12 13  2  0
 13 14  1  0
 14 15  2  0
 15 16  1  0
 15 17  1  0
 17 18  1  0
 17 19  2  0
  2 20  1  0
 20 21  2  0
 21 22  1  0
 22 23  2  0
 23 24  1  0
 24 25  2  0
 25 26  1  0
 25 27  1  0
 27 28  2  0
 28 29  1  0
 29 30  2  0
 11  7  1  0
 19 12  1  0
 30 20  1  0
 29 23  1  0
  3 31  1  0
  4 32  1  0
  4 33  1  0
  8 34  1  0
  8 35  1  0
  9 36  1  0
  9 37  1  0
 10 38  1  0
 10 39  1  0
 11 40  1  1
 13 41  1  0
 19 42  1  0
 21 43  1  0
 22 44  1  0
 24 45  1  0
 27 46  1  0
 28 47  1  0
M  END
>  <smiles>  (48) 
O=C(NCC(=O)N1CCC[C@H]1c1cnc(Cl)c(Cl)c1)c1ccc2cc(F)ccc2n1

>  <score_type>  (48) 
oracle

>  <origin>  (48) 
autodockgpu

>  <m_score__min__energy>  (48) 
-8.9700000000000006

>  <m_primary>  (48) 
energy

>  <rmsd>  (48) 
7.050166198375193

>  <m_score__min__rmsd>  (48) 
7.050166198375193

>  <meeko>  (48) 
{"free_energy": -7.66, "intermolecular_energy": -9.16, "internal_energy": -1.89, "cluster_size": 2, "cluster_id": 8, "rank_in_cluster": 2}

>  <energy>  (48) 
-7.54

>  <cluster_rmsd>  (48) 
0.95

>  <cluster>  (48) 
7

$$$$

     RDKit          3D

 47 50  0  0  0  0  0  0  0  0999 V2000
  137.7080   71.0070  221.7230 O   0  0  0  0  0  0  0  0  0  0  0  0
  138.4590   71.4570  222.6210 C   0  0  0  0  0  0  0  0  0  0  0  0
  138.9460   72.7980  222.5740 N   0  0  0  0  0  0  0  0  0  0  0  0
  138.5830   73.6790  221.4830 C   0  0  0  0  0  0  0  0  0  0  0  0
  138.1290   74.9960  221.9640 C   0  0  0  0  0  0  0  0  0  0  0  0
  138.9050   75.9760  222.1330 O   0  0  0  0  0  0  0  0  0  0  0  0
  136.7440   75.1540  222.2480 N   0  0  0  0  0  0  0  0  0  0  0  0
  135.5910   74.8440  221.4220 C   0  0  0  0  0  0  0  0  0  0  0  0
  134.7820   76.1030  221.5400 C   0  0  0  0  0  0  0  0  0  0  0  0
  135.2000   76.6920  222.8800 C   0  0  0  0  0  0  0  0  0  0  0  0
  136.1470   75.6870  223.4920 C   0  0  1  0  0  0  0  0  0  0  0  0
  135.5240   74.6320  224.2790 C   0  0  0  0  0  0  0  0  0  0  0  0
  134.7010   75.0140  225.3400 C   0  0  0  0  0  0  0  0  0  0  0  0
  134.0860   74.0840  226.1140 N   0  0  0  0  0  0  0  0  0  0  0  0
  134.2170   72.7650  225.9290 C   0  0  0  0  0  0  0  0  0  0  0  0
  133.4050   71.5860  226.9520 Cl  0  0  0  0  0  0  0  0  0  0  0  0
  135.0290   72.3410  224.8820 C   0  0  0  0  0  0  0  0  0  0  0  0
  135.2390   70.6090  224.5900 Cl  0  0  0  0  0  0  0  0  0  0  0  0
  135.6610   73.2790  224.0850 C   0  0  0  0  0  0  0  0  0  0  0  0
  138.8700   70.6260  223.7570 C   0  0  0  0  0  0  0  0  0  0  0  0
  138.5460   69.2880  223.7800 C   0  0  0  0  0  0  0  0  0  0  0  0
  138.9310   68.4810  224.8560 C   0  0  0  0  0  0  0  0  0  0  0  0
  139.6400   69.0210  225.9080 C   0  0  0  0  0  0  0  0  0  0  0  0
  140.0380   68.2620  226.9860 C   0  0  0  0  0  0  0  0  0  0  0  0
  140.7560   68.8640  228.0230 C   0  0  0  0  0  0  0  0  0  0  0  0
  141.1530   68.1110  229.0980 F   0  0  0  0  0  0  0  0  0  0  0  0
  141.0700   70.2160  227.9760 C   0  0  0  0  0  0  0  0  0  0  0  0
  140.6600   70.9570  226.8830 C   0  0  0  0  0  0  0  0  0  0  0  0
  139.9500   70.3800  225.8460 C   0  0  0  0  0  0  0  0  0  0  0  0
  139.5690   71.1360  224.8000 N   0  0  0  0  0  0  0  0  0  0  0  0
  139.5770   73.1330  223.3520 H   0  0  0  0  0  0  0  0  0  0  0  0
  139.4600   73.8209  220.8344 H   0  0  0  0  0  0  0  0  0  0  0  0
  137.7520   73.2135  220.9327 H   0  0  0  0  0  0  0  0  0  0  0  0
  135.8849   74.6529  220.3794 H   0  0  0  0  0  0  0  0  0  0  0  0
  135.0516   73.9369  221.7321 H   0  0  0  0  0  0  0  0  0  0  0  0
  135.0172   76.7961  220.7189 H   0  0  0  0  0  0  0  0  0  0  0  0
  133.6997   75.9151  221.4818 H   0  0  0  0  0  0  0  0  0  0  0  0
  135.7075   77.6568  222.7331 H   0  0  0  0  0  0  0  0  0  0  0  0
  134.3320   76.8789  223.5293 H   0  0  0  0  0  0  0  0  0  0  0  0
  136.8306   76.1273  224.2328 H   0  0  0  0  0  0  0  0  0  0  0  0
  134.5490   76.0827  225.5515 H   0  0  0  0  0  0  0  0  0  0  0  0
  136.2998   72.9266  223.2617 H   0  0  0  0  0  0  0  0  0  0  0  0
  137.9795   68.8498  222.9451 H   0  0  0  0  0  0  0  0  0  0  0  0
  138.6674   67.4131  224.8627 H   0  0  0  0  0  0  0  0  0  0  0  0
  139.7928   67.1906  227.0305 H   0  0  0  0  0  0  0  0  0  0  0  0
  141.6345   70.6887  228.7933 H   0  0  0  0  0  0  0  0  0  0  0  0
  140.9039   72.0287  226.8373 H   0  0  0  0  0  0  0  0  0  0  0  0
  1  2  2  0
  2  3  1  0
  3  4  1  0
  4  5  1  0
  5  6  2  0
  5  7  1  0
  7  8  1  0
  8  9  1  0
  9 10  1  0
 10 11  1  0
 11 12  1  0
 12 13  2  0
 13 14  1  0
 14 15  2  0
 15 16  1  0
 15 17  1  0
 17 18  1  0
 17 19  2  0
  2 20  1  0
 20 21  2  0
 21 22  1  0
 22 23  2  0
 23 24  1  0
 24 25  2  0
 25 26  1  0
 25 27  1  0
 27 28  2  0
 28 29  1  0
 29 30  2  0
 11  7  1  0
 19 12  1  0
 30 20  1  0
 29 23  1  0
  3 31  1  0
  4 32  1  0
  4 33  1  0
  8 34  1  0
  8 35  1  0
  9 36  1  0
  9 37  1  0
 10 38  1  0
 10 39  1  0
 11 40  1  1
 13 41  1  0
 19 42  1  0
 21 43  1  0
 22 44  1  0
 24 45  1  0
 27 46  1  0
 28 47  1  0
M  END
>  <smiles>  (49) 
O=C(NCC(=O)N1CCC[C@H]1c1cnc(Cl)c(Cl)c1)c1ccc2cc(F)ccc2n1

>  <score_type>  (49) 
oracle

>  <origin>  (49) 
autodockgpu

>  <m_score__min__energy>  (49) 
-8.9700000000000006

>  <m_primary>  (49) 
energy

>  <rmsd>  (49) 
3.5978991718286357

>  <m_score__min__rmsd>  (49) 
3.5978991718286357

>  <meeko>  (49) 
{"free_energy": -7.56, "intermolecular_energy": -9.06, "internal_energy": -2.24, "cluster_size": 12, "cluster_id": 7, "rank_in_cluster": 10}

>  <energy>  (49) 
-7.86

>  <cluster_rmsd>  (49) 
0.0

>  <cluster>  (49) 
8

$$$$

     RDKit          3D

 47 50  0  0  0  0  0  0  0  0999 V2000
  136.6070   76.2580  221.0010 O   0  0  0  0  0  0  0  0  0  0  0  0
  137.5720   76.1130  221.7890 C   0  0  0  0  0  0  0  0  0  0  0  0
  137.9930   74.8170  222.2110 N   0  0  0  0  0  0  0  0  0  0  0  0
  137.3150   73.6270  221.7370 C   0  0  0  0  0  0  0  0  0  0  0  0
  137.3680   72.5310  222.7210 C   0  0  0  0  0  0  0  0  0  0  0  0
  136.4280   72.2740  223.5210 O   0  0  0  0  0  0  0  0  0  0  0  0
  138.5460   71.7340  222.7580 N   0  0  0  0  0  0  0  0  0  0  0  0
  139.9360   72.1330  222.6190 C   0  0  0  0  0  0  0  0  0  0  0  0
  140.4410   71.1370  221.6150 C   0  0  0  0  0  0  0  0  0  0  0  0
  139.5300   69.9310  221.7940 C   0  0  0  0  0  0  0  0  0  0  0  0
  138.6230   70.2700  222.9530 C   0  0  1  0  0  0  0  0  0  0  0  0
  139.1360   69.9350  224.2750 C   0  0  0  0  0  0  0  0  0  0  0  0
  139.1420   68.5890  224.6450 C   0  0  0  0  0  0  0  0  0  0  0  0
  139.6090   68.2040  225.8610 N   0  0  0  0  0  0  0  0  0  0  0  0
  140.0850   69.0590  226.7740 C   0  0  0  0  0  0  0  0  0  0  0  0
  140.6810   68.5250  228.3410 Cl  0  0  0  0  0  0  0  0  0  0  0  0
  140.0960   70.4100  226.4450 C   0  0  0  0  0  0  0  0  0  0  0  0
  140.7140   71.5850  227.6120 Cl  0  0  0  0  0  0  0  0  0  0  0  0
  139.6240   70.8160  225.2090 C   0  0  0  0  0  0  0  0  0  0  0  0
  138.3080   77.2690  222.3110 C   0  0  0  0  0  0  0  0  0  0  0  0
  137.6190   78.3710  222.7670 C   0  0  0  0  0  0  0  0  0  0  0  0
  138.3070   79.4810  223.2690 C   0  0  0  0  0  0  0  0  0  0  0  0
  139.6850   79.4830  223.3100 C   0  0  0  0  0  0  0  0  0  0  0  0
  140.4000   80.5550  223.7960 C   0  0  0  0  0  0  0  0  0  0  0  0
  141.7960   80.5000  223.8140 C   0  0  0  0  0  0  0  0  0  0  0  0
  142.5110   81.5660  224.2970 F   0  0  0  0  0  0  0  0  0  0  0  0
  142.4660   79.3760  223.3480 C   0  0  0  0  0  0  0  0  0  0  0  0
  141.7270   78.3120  222.8650 C   0  0  0  0  0  0  0  0  0  0  0  0
  140.3450   78.3470  222.8400 C   0  0  0  0  0  0  0  0  0  0  0  0
  139.6620   77.2900  222.3620 N   0  0  0  0  0  0  0  0  0  0  0  0
  138.8110   74.7440  222.8760 H   0  0  0  0  0  0  0  0  0  0  0  0
  136.2619   73.8742  221.5375 H   0  0  0  0  0  0  0  0  0  0  0  0
  137.8246   73.2875  220.8232 H   0  0  0  0  0  0  0  0  0  0  0  0
  140.0216   73.1623  222.2404 H   0  0  0  0  0  0  0  0  0  0  0  0
  140.4962   72.1353  223.5657 H   0  0  0  0  0  0  0  0  0  0  0  0
  140.3612   71.5379  220.5938 H   0  0  0  0  0  0  0  0  0  0  0  0
  141.5022   70.8891  221.7648 H   0  0  0  0  0  0  0  0  0  0  0  0
  138.9389   69.7586  220.8825 H   0  0  0  0  0  0  0  0  0  0  0  0
  140.1055   69.0132  221.9848 H   0  0  0  0  0  0  0  0  0  0  0  0
  137.6776   69.7078  222.9446 H   0  0  0  0  0  0  0  0  0  0  0  0
  138.7639   67.8309  223.9433 H   0  0  0  0  0  0  0  0  0  0  0  0
  139.6403   71.8884  224.9645 H   0  0  0  0  0  0  0  0  0  0  0  0
  136.5195   78.3785  222.7363 H   0  0  0  0  0  0  0  0  0  0  0  0
  137.7465   80.3551  223.6322 H   0  0  0  0  0  0  0  0  0  0  0  0
  139.8759   81.4480  224.1673 H   0  0  0  0  0  0  0  0  0  0  0  0
  143.5651   79.3332  223.3630 H   0  0  0  0  0  0  0  0  0  0  0  0
  142.2497   77.4186  222.4927 H   0  0  0  0  0  0  0  0  0  0  0  0
  1  2  2  0
  2  3  1  0
  3  4  1  0
  4  5  1  0
  5  6  2  0
  5  7  1  0
  7  8  1  0
  8  9  1  0
  9 10  1  0
 10 11  1  0
 11 12  1  0
 12 13  2  0
 13 14  1  0
 14 15  2  0
 15 16  1  0
 15 17  1  0
 17 18  1  0
 17 19  2  0
  2 20  1  0
 20 21  2  0
 21 22  1  0
 22 23  2  0
 23 24  1  0
 24 25  2  0
 25 26  1  0
 25 27  1  0
 27 28  2  0
 28 29  1  0
 29 30  2  0
 11  7  1  0
 19 12  1  0
 30 20  1  0
 29 23  1  0
  3 31  1  0
  4 32  1  0
  4 33  1  0
  8 34  1  0
  8 35  1  0
  9 36  1  0
  9 37  1  0
 10 38  1  0
 10 39  1  0
 11 40  1  6
 13 41  1  0
 19 42  1  0
 21 43  1  0
 22 44  1  0
 24 45  1  0
 27 46  1  0
 28 47  1  0
M  END
>  <smiles>  (50) 
O=C(NCC(=O)N1CCC[C@H]1c1cnc(Cl)c(Cl)c1)c1ccc2cc(F)ccc2n1

>  <score_type>  (50) 
oracle

>  <origin>  (50) 
autodockgpu

>  <m_score__min__energy>  (50) 
-8.9700000000000006

>  <m_primary>  (50) 
energy

>  <rmsd>  (50) 
8.146537158332086

>  <m_score__min__rmsd>  (50) 
8.146537158332086

>  <meeko>  (50) 
{"free_energy": -8.41, "intermolecular_energy": -9.9, "internal_energy": -1.12, "cluster_size": 6, "cluster_id": 2, "rank_in_cluster": 3}

>  <energy>  (50) 
-7.66

>  <cluster_rmsd>  (50) 
1.43

>  <cluster>  (50) 
8

$$$$
