
     RDKit          3D

 53 56  0  0  0  0  0  0  0  0999 V2000
  139.6360   71.1830  221.3100 O   0  0  0  0  0  0  0  0  0  0  0  0
  139.6620   71.8430  222.3900 C   0  0  0  0  0  0  0  0  0  0  0  0
  139.4760   73.2980  222.2870 N   0  0  0  0  0  0  0  0  0  0  0  0
  139.2900   73.7840  220.9760 C   0  0  0  0  0  0  0  0  0  0  0  0
  139.5690   75.1630  220.6960 C   0  0  0  0  0  0  0  0  0  0  0  0
  138.4830   75.9100  220.7240 O   0  0  0  0  0  0  0  0  0  0  0  0
  140.7400   75.8910  220.3990 N   0  0  0  0  0  0  0  0  0  0  0  0
  141.5070   75.6870  219.1630 C   0  0  0  0  0  0  0  0  0  0  0  0
  142.3570   76.9540  219.0660 C   0  0  2  0  0  0  0  0  0  0  0  0
  143.6880   76.6430  219.3060 O   0  0  0  0  0  0  0  0  0  0  0  0
  141.7670   77.8900  220.1240 C   0  0  0  0  0  0  0  0  0  0  0  0
  141.4120   76.8860  221.2150 C   0  0  1  0  0  0  0  0  0  0  0  0
  140.5860   77.4160  222.2880 C   0  0  0  0  0  0  0  0  0  0  0  0
  140.6180   78.8340  222.4850 N   0  0  0  0  0  0  0  0  0  0  0  0
  141.7060   79.4000  223.1540 C   0  0  0  0  0  0  0  0  0  0  0  0
  141.2060   80.7800  223.5990 C   0  0  0  0  0  0  0  0  0  0  0  0
  139.7310   80.5230  223.7920 C   0  0  0  0  0  0  0  0  0  0  0  0
  139.4190   79.5190  222.7020 C   0  0  0  0  0  0  0  0  0  0  0  0
  139.8600   71.2230  223.6940 C   0  0  0  0  0  0  0  0  0  0  0  0
  139.5160   69.8920  223.8090 C   0  0  0  0  0  0  0  0  0  0  0  0
  139.6550   69.2130  224.9740 N   0  0  0  0  0  0  0  0  0  0  0  0
  140.1390   69.8380  226.0530 C   0  0  0  0  0  0  0  0  0  0  0  0
  140.2730   69.1310  227.2290 C   0  0  0  0  0  0  0  0  0  0  0  0
  140.7810   69.8150  228.3380 C   0  0  0  0  0  0  0  0  0  0  0  0
  141.1270   71.1430  228.2310 C   0  0  0  0  0  0  0  0  0  0  0  0
  140.9890   71.8530  227.0340 C   0  0  0  0  0  0  0  0  0  0  0  0
  140.4800   71.1670  225.9250 C   0  0  0  0  0  0  0  0  0  0  0  0
  140.3410   71.8450  224.7620 N   0  0  0  0  0  0  0  0  0  0  0  0
  139.4920   73.7570  223.1990 H   0  0  0  0  0  0  0  0  0  0  0  0
  139.9350   73.1850  220.3164 H   0  0  0  0  0  0  0  0  0  0  0  0
  138.2051   73.6982  220.8160 H   0  0  0  0  0  0  0  0  0  0  0  0
  142.1412   74.7912  219.2357 H   0  0  0  0  0  0  0  0  0  0  0  0
  140.8693   75.5269  218.2811 H   0  0  0  0  0  0  0  0  0  0  0  0
  142.3380   77.4267  218.0729 H   0  0  0  0  0  0  0  0  0  0  0  0
  144.0940   77.1740  220.0070 H   0  0  0  0  0  0  0  0  0  0  0  0
  142.5066   78.6254  220.4737 H   0  0  0  0  0  0  0  0  0  0  0  0
  140.9243   78.5044  219.7742 H   0  0  0  0  0  0  0  0  0  0  0  0
  142.2719   76.5222  221.7966 H   0  0  0  0  0  0  0  0  0  0  0  0
  139.5442   77.1323  222.0776 H   0  0  0  0  0  0  0  0  0  0  0  0
  141.0021   76.9868  223.2114 H   0  0  0  0  0  0  0  0  0  0  0  0
  141.9881   78.7892  224.0243 H   0  0  0  0  0  0  0  0  0  0  0  0
  142.6013   79.4640  222.5182 H   0  0  0  0  0  0  0  0  0  0  0  0
  141.6842   81.0963  224.5378 H   0  0  0  0  0  0  0  0  0  0  0  0
  141.4292   81.5873  222.8859 H   0  0  0  0  0  0  0  0  0  0  0  0
  139.5294   80.1018  224.7880 H   0  0  0  0  0  0  0  0  0  0  0  0
  139.1189   81.4350  223.7318 H   0  0  0  0  0  0  0  0  0  0  0  0
  138.6314   78.8248  223.0301 H   0  0  0  0  0  0  0  0  0  0  0  0
  139.0501   80.0050  221.7867 H   0  0  0  0  0  0  0  0  0  0  0  0
  139.1170   69.3660  222.9291 H   0  0  0  0  0  0  0  0  0  0  0  0
  139.9911   68.0696  227.2926 H   0  0  0  0  0  0  0  0  0  0  0  0
  140.9043   69.2910  229.2973 H   0  0  0  0  0  0  0  0  0  0  0  0
  141.5248   71.6624  229.1153 H   0  0  0  0  0  0  0  0  0  0  0  0
  141.2708   72.9141  226.9663 H   0  0  0  0  0  0  0  0  0  0  0  0
  1  2  2  0
  2  3  1  0
  3  4  1  0
  4  5  1  0
  5  6  2  0
  5  7  1  0
  7  8  1  0
  8  9  1  0
  9 10  1  0
  9 11  1  0
 11 12  1  0
 12 13  1  0
 13 14  1  0
 14 15  1  0
 15 16  1  0
 16 17  1  0
 17 18  1  0
  2 19  1  0
 19 20  2  0
 20 21  1  0
 21 22  2  0
 22 23  1  0
 23 24  2  0
 24 25  1  0
 25 26  2  0
 26 27  1  0
 27 28  2  0
 12  7  1  0
 18 14  1  0
 28 19  1  0
 27 22  1  0
  3 29  1  0
  4 30  1  0
  4 31  1  0
  8 32  1  0
  8 33  1  0
  9 34  1  6
 10 35  1  0
 11 36  1  0
 11 37  1  0
 12 38  1  1
 13 39  1  0
 13 40  1  0
 15 41  1  0
 15 42  1  0
 16 43  1  0
 16 44  1  0
 17 45  1  0
 17 46  1  0
 18 47  1  0
 18 48  1  0
 20 49  1  0
 23 50  1  0
 24 51  1  0
 25 52  1  0
 26 53  1  0
M  END
>  <smiles>  (1) 
O=C(NCC(=O)N1C[C@H](O)C[C@H]1CN1CCCC1)c1cnc2ccccc2n1

>  <score_type>  (1) 
oracle

>  <origin>  (1) 
autodockgpu

>  <m_score__min__energy>  (1) 
-8.4800000000000004

>  <m_primary>  (1) 
energy

>  <rmsd>  (1) 
2.1514907821107494

>  <m_score__min__rmsd>  (1) 
2.1514907821107494

>  <meeko>  (1) 
{"free_energy": -7.71, "intermolecular_energy": -9.8, "internal_energy": -1.24, "cluster_size": 24, "cluster_id": 1, "rank_in_cluster": 19}

>  <energy>  (1) 
-8.48

>  <cluster_rmsd>  (1) 
0.0

>  <cluster>  (1) 
1

$$$$

     RDKit          3D

 53 56  0  0  0  0  0  0  0  0999 V2000
  141.0360   72.7810  221.9840 O   0  0  0  0  0  0  0  0  0  0  0  0
  140.0230   72.5120  222.6940 C   0  0  0  0  0  0  0  0  0  0  0  0
  138.7620   73.1790  222.3370 N   0  0  0  0  0  0  0  0  0  0  0  0
  138.8410   74.0500  221.2300 C   0  0  0  0  0  0  0  0  0  0  0  0
  139.3450   75.3790  221.4210 C   0  0  0  0  0  0  0  0  0  0  0  0
  138.5080   76.1400  222.0980 O   0  0  0  0  0  0  0  0  0  0  0  0
  140.5290   76.0480  221.0480 N   0  0  0  0  0  0  0  0  0  0  0  0
  141.3770   75.5940  219.9380 C   0  0  0  0  0  0  0  0  0  0  0  0
  142.2260   76.8260  219.6200 C   0  0  2  0  0  0  0  0  0  0  0  0
  143.5400   76.6010  220.0070 O   0  0  0  0  0  0  0  0  0  0  0  0
  141.5620   77.9590  220.4080 C   0  0  0  0  0  0  0  0  0  0  0  0
  141.1410   77.2090  221.6680 C   0  0  1  0  0  0  0  0  0  0  0  0
  140.2430   77.9450  222.5440 C   0  0  0  0  0  0  0  0  0  0  0  0
  140.7990   79.0620  223.2450 N   0  0  0  0  0  0  0  0  0  0  0  0
  140.3970   80.3520  222.8900 C   0  0  0  0  0  0  0  0  0  0  0  0
  141.4890   81.2640  223.4610 C   0  0  0  0  0  0  0  0  0  0  0  0
  142.7010   80.3680  223.3950 C   0  0  0  0  0  0  0  0  0  0  0  0
  142.1240   78.9990  223.6870 C   0  0  0  0  0  0  0  0  0  0  0  0
  140.0660   71.5860  223.8180 C   0  0  0  0  0  0  0  0  0  0  0  0
  139.5640   70.3200  223.6010 C   0  0  0  0  0  0  0  0  0  0  0  0
  139.5500   69.3760  224.5750 N   0  0  0  0  0  0  0  0  0  0  0  0
  140.0340   69.6670  225.7880 C   0  0  0  0  0  0  0  0  0  0  0  0
  140.0100   68.6940  226.7650 C   0  0  0  0  0  0  0  0  0  0  0  0
  140.5220   69.0310  228.0210 C   0  0  0  0  0  0  0  0  0  0  0  0
  141.0250   70.2930  228.2460 C   0  0  0  0  0  0  0  0  0  0  0  0
  141.0460   71.2730  227.2490 C   0  0  0  0  0  0  0  0  0  0  0  0
  140.5320   70.9340  225.9920 C   0  0  0  0  0  0  0  0  0  0  0  0
  140.5470   71.8760  225.0200 N   0  0  0  0  0  0  0  0  0  0  0  0
  137.9900   72.8990  222.9430 H   0  0  0  0  0  0  0  0  0  0  0  0
  139.4882   73.5647  220.4846 H   0  0  0  0  0  0  0  0  0  0  0  0
  137.7903   74.2068  220.9444 H   0  0  0  0  0  0  0  0  0  0  0  0
  142.0092   74.7479  220.2452 H   0  0  0  0  0  0  0  0  0  0  0  0
  140.7998   75.2332  219.0739 H   0  0  0  0  0  0  0  0  0  0  0  0
  142.2710   77.0697  218.5483 H   0  0  0  0  0  0  0  0  0  0  0  0
  143.9790   77.3810  220.3760 H   0  0  0  0  0  0  0  0  0  0  0  0
  142.2728   78.7674  220.6346 H   0  0  0  0  0  0  0  0  0  0  0  0
  140.7412   78.4661  219.8797 H   0  0  0  0  0  0  0  0  0  0  0  0
  141.9622   76.9962  222.3683 H   0  0  0  0  0  0  0  0  0  0  0  0
  139.4103   78.3183  221.9297 H   0  0  0  0  0  0  0  0  0  0  0  0
  139.9525   77.2288  223.3268 H   0  0  0  0  0  0  0  0  0  0  0  0
  140.3377   80.4538  221.7963 H   0  0  0  0  0  0  0  0  0  0  0  0
  139.3983   80.6010  223.2781 H   0  0  0  0  0  0  0  0  0  0  0  0
  141.6222   82.1649  222.8440 H   0  0  0  0  0  0  0  0  0  0  0  0
  141.2701   81.6456  224.4692 H   0  0  0  0  0  0  0  0  0  0  0  0
  143.1623   80.3987  222.3969 H   0  0  0  0  0  0  0  0  0  0  0  0
  143.4980   80.6622  224.0938 H   0  0  0  0  0  0  0  0  0  0  0  0
  142.6774   78.2216  223.1398 H   0  0  0  0  0  0  0  0  0  0  0  0
  142.1913   78.7418  224.7544 H   0  0  0  0  0  0  0  0  0  0  0  0
  139.1629   70.0681  222.6082 H   0  0  0  0  0  0  0  0  0  0  0  0
  139.6037   67.6918  226.5636 H   0  0  0  0  0  0  0  0  0  0  0  0
  140.5232   68.2869  228.8311 H   0  0  0  0  0  0  0  0  0  0  0  0
  141.4229   70.5379  229.2418 H   0  0  0  0  0  0  0  0  0  0  0  0
  141.4525   72.2760  227.4457 H   0  0  0  0  0  0  0  0  0  0  0  0
  1  2  2  0
  2  3  1  0
  3  4  1  0
  4  5  1  0
  5  6  2  0
  5  7  1  0
  7  8  1  0
  8  9  1  0
  9 10  1  0
  9 11  1  0
 11 12  1  0
 12 13  1  0
 13 14  1  0
 14 15  1  0
 15 16  1  0
 16 17  1  0
 17 18  1  0
  2 19  1  0
 19 20  2  0
 20 21  1  0
 21 22  2  0
 22 23  1  0
 23 24  2  0
 24 25  1  0
 25 26  2  0
 26 27  1  0
 27 28  2  0
 12  7  1  0
 18 14  1  0
 28 19  1  0
 27 22  1  0
  3 29  1  0
  4 30  1  0
  4 31  1  0
  8 32  1  0
  8 33  1  0
  9 34  1  6
 10 35  1  0
 11 36  1  0
 11 37  1  0
 12 38  1  1
 13 39  1  0
 13 40  1  0
 15 41  1  0
 15 42  1  0
 16 43  1  0
 16 44  1  0
 17 45  1  0
 17 46  1  0
 18 47  1  0
 18 48  1  0
 20 49  1  0
 23 50  1  0
 24 51  1  0
 25 52  1  0
 26 53  1  0
M  END
>  <smiles>  (2) 
O=C(NCC(=O)N1C[C@H](O)C[C@H]1CN1CCCC1)c1cnc2ccccc2n1

>  <score_type>  (2) 
oracle

>  <origin>  (2) 
autodockgpu

>  <m_score__min__energy>  (2) 
-8.4800000000000004

>  <m_primary>  (2) 
energy

>  <rmsd>  (2) 
2.260402907210606

>  <m_score__min__rmsd>  (2) 
2.260402907210606

>  <meeko>  (2) 
{"free_energy": -8.43, "intermolecular_energy": -10.52, "internal_energy": -0.87, "cluster_size": 24, "cluster_id": 1, "rank_in_cluster": 2}

>  <energy>  (2) 
-8.43

>  <cluster_rmsd>  (2) 
0.73

>  <cluster>  (2) 
1

$$$$

     RDKit          3D

 53 56  0  0  0  0  0  0  0  0999 V2000
  139.1870   74.7870  222.3210 O   0  0  0  0  0  0  0  0  0  0  0  0
  140.2200   75.4780  222.0810 C   0  0  0  0  0  0  0  0  0  0  0  0
  141.3580   74.7830  221.4630 N   0  0  0  0  0  0  0  0  0  0  0  0
  141.1530   73.4100  221.2100 C   0  0  0  0  0  0  0  0  0  0  0  0
  142.2170   72.6380  220.6360 C   0  0  0  0  0  0  0  0  0  0  0  0
  142.0180   71.3410  220.7570 O   0  0  0  0  0  0  0  0  0  0  0  0
  143.4220   72.9580  219.9760 N   0  0  0  0  0  0  0  0  0  0  0  0
  144.6580   72.1870  220.1680 C   0  0  0  0  0  0  0  0  0  0  0  0
  145.5070   72.5820  218.9590 C   0  0  2  0  0  0  0  0  0  0  0  0
  146.5720   73.3700  219.3730 O   0  0  0  0  0  0  0  0  0  0  0  0
  144.5370   73.3300  218.0410 C   0  0  0  0  0  0  0  0  0  0  0  0
  143.6880   74.0640  219.0740 C   0  0  1  0  0  0  0  0  0  0  0  0
  142.4860   74.6880  218.5450 C   0  0  0  0  0  0  0  0  0  0  0  0
  142.0920   75.9310  219.1360 N   0  0  0  0  0  0  0  0  0  0  0  0
  140.8140   76.4310  218.8720 C   0  0  0  0  0  0  0  0  0  0  0  0
  140.9030   77.9180  219.2340 C   0  0  0  0  0  0  0  0  0  0  0  0
  142.3510   78.2190  218.9350 C   0  0  0  0  0  0  0  0  0  0  0  0
  143.0500   76.9330  219.3210 C   0  0  0  0  0  0  0  0  0  0  0  0
  140.3130   76.9000  222.3860 C   0  0  0  0  0  0  0  0  0  0  0  0
  139.1250   77.5970  222.4710 C   0  0  0  0  0  0  0  0  0  0  0  0
  139.0890   78.9240  222.7470 N   0  0  0  0  0  0  0  0  0  0  0  0
  140.2320   79.5910  222.9460 C   0  0  0  0  0  0  0  0  0  0  0  0
  140.1750   80.9400  223.2260 C   0  0  0  0  0  0  0  0  0  0  0  0
  141.3870   81.6080  223.4270 C   0  0  0  0  0  0  0  0  0  0  0  0
  142.5770   80.9190  223.3450 C   0  0  0  0  0  0  0  0  0  0  0  0
  142.6250   79.5510  223.0620 C   0  0  0  0  0  0  0  0  0  0  0  0
  141.4100   78.8840  222.8600 C   0  0  0  0  0  0  0  0  0  0  0  0
  141.4460   77.5590  222.5840 N   0  0  0  0  0  0  0  0  0  0  0  0
  142.1460   75.4080  221.2850 H   0  0  0  0  0  0  0  0  0  0  0  0
  140.8978   72.9406  222.1715 H   0  0  0  0  0  0  0  0  0  0  0  0
  140.3741   73.4004  220.4333 H   0  0  0  0  0  0  0  0  0  0  0  0
  145.1557   72.4672  221.1081 H   0  0  0  0  0  0  0  0  0  0  0  0
  144.4841   71.1031  220.2376 H   0  0  0  0  0  0  0  0  0  0  0  0
  145.9587   71.7269  218.4349 H   0  0  0  0  0  0  0  0  0  0  0  0
  146.3870   74.3200  219.3530 H   0  0  0  0  0  0  0  0  0  0  0  0
  145.0646   74.0305  217.3770 H   0  0  0  0  0  0  0  0  0  0  0  0
  143.9683   72.6870  217.3532 H   0  0  0  0  0  0  0  0  0  0  0  0
  144.1760   74.9402  219.5259 H   0  0  0  0  0  0  0  0  0  0  0  0
  142.6479   74.8661  217.4717 H   0  0  0  0  0  0  0  0  0  0  0  0
  141.6708   73.9869  218.7773 H   0  0  0  0  0  0  0  0  0  0  0  0
  140.5582   76.3038  217.8097 H   0  0  0  0  0  0  0  0  0  0  0  0
  140.0330   75.9070  219.4425 H   0  0  0  0  0  0  0  0  0  0  0  0
  140.2302   78.5238  218.6093 H   0  0  0  0  0  0  0  0  0  0  0  0
  140.6039   78.1447  220.2680 H   0  0  0  0  0  0  0  0  0  0  0  0
  142.4964   78.4437  217.8681 H   0  0  0  0  0  0  0  0  0  0  0  0
  142.7320   79.0992  219.4735 H   0  0  0  0  0  0  0  0  0  0  0  0
  143.9224   76.7580  218.6743 H   0  0  0  0  0  0  0  0  0  0  0  0
  143.4249   76.9606  220.3548 H   0  0  0  0  0  0  0  0  0  0  0  0
  138.1787   77.0598  222.3100 H   0  0  0  0  0  0  0  0  0  0  0  0
  139.2133   81.4702  223.2888 H   0  0  0  0  0  0  0  0  0  0  0  0
  141.3901   82.6850  223.6509 H   0  0  0  0  0  0  0  0  0  0  0  0
  143.5194   81.4626  223.5074 H   0  0  0  0  0  0  0  0  0  0  0  0
  143.5844   79.0164  223.0000 H   0  0  0  0  0  0  0  0  0  0  0  0
  1  2  2  0
  2  3  1  0
  3  4  1  0
  4  5  1  0
  5  6  2  0
  5  7  1  0
  7  8  1  0
  8  9  1  0
  9 10  1  0
  9 11  1  0
 11 12  1  0
 12 13  1  0
 13 14  1  0
 14 15  1  0
 15 16  1  0
 16 17  1  0
 17 18  1  0
  2 19  1  0
 19 20  2  0
 20 21  1  0
 21 22  2  0
 22 23  1  0
 23 24  2  0
 24 25  1  0
 25 26  2  0
 26 27  1  0
 27 28  2  0
 12  7  1  0
 18 14  1  0
 28 19  1  0
 27 22  1  0
  3 29  1  0
  4 30  1  0
  4 31  1  0
  8 32  1  0
  8 33  1  0
  9 34  1  6
 10 35  1  0
 11 36  1  0
 11 37  1  0
 12 38  1  1
 13 39  1  0
 13 40  1  0
 15 41  1  0
 15 42  1  0
 16 43  1  0
 16 44  1  0
 17 45  1  0
 17 46  1  0
 18 47  1  0
 18 48  1  0
 20 49  1  0
 23 50  1  0
 24 51  1  0
 25 52  1  0
 26 53  1  0
M  END
>  <smiles>  (3) 
O=C(NCC(=O)N1C[C@H](O)C[C@H]1CN1CCCC1)c1cnc2ccccc2n1

>  <score_type>  (3) 
oracle

>  <origin>  (3) 
autodockgpu

>  <m_score__min__energy>  (3) 
-8.4800000000000004

>  <m_primary>  (3) 
energy

>  <rmsd>  (3) 
7.0753252704254255

>  <m_score__min__rmsd>  (3) 
7.0753252704254255

>  <meeko>  (3) 
{"free_energy": -6.57, "intermolecular_energy": -8.65, "internal_energy": -2.8, "cluster_size": 12, "cluster_id": 8, "rank_in_cluster": 6}

>  <energy>  (3) 
-8.25

>  <cluster_rmsd>  (3) 
0.86

>  <cluster>  (3) 
1

$$$$

     RDKit          3D

 53 56  0  0  0  0  0  0  0  0999 V2000
  140.6420   73.1260  222.7080 O   0  0  0  0  0  0  0  0  0  0  0  0
  140.2890   71.9140  222.8140 C   0  0  0  0  0  0  0  0  0  0  0  0
  139.8430   71.2400  221.5850 N   0  0  0  0  0  0  0  0  0  0  0  0
  139.8650   72.0420  220.4240 C   0  0  0  0  0  0  0  0  0  0  0  0
  141.1200   72.3070  219.7810 C   0  0  0  0  0  0  0  0  0  0  0  0
  141.0870   72.0460  218.4900 O   0  0  0  0  0  0  0  0  0  0  0  0
  142.3730   72.7810  220.2230 N   0  0  0  0  0  0  0  0  0  0  0  0
  143.5640   71.9240  220.2890 C   0  0  0  0  0  0  0  0  0  0  0  0
  144.7150   72.9300  220.3560 C   0  0  2  0  0  0  0  0  0  0  0  0
  145.2860   72.9030  221.6210 O   0  0  0  0  0  0  0  0  0  0  0  0
  144.0630   74.2760  220.0280 C   0  0  0  0  0  0  0  0  0  0  0  0
  142.7120   74.1040  220.7160 C   0  0  1  0  0  0  0  0  0  0  0  0
  141.7250   75.1210  220.3870 C   0  0  0  0  0  0  0  0  0  0  0  0
  140.7870   75.4630  221.4120 N   0  0  0  0  0  0  0  0  0  0  0  0
  139.4240   75.2740  221.1720 C   0  0  0  0  0  0  0  0  0  0  0  0
  138.7260   76.1530  222.2160 C   0  0  0  0  0  0  0  0  0  0  0  0
  139.7280   77.2670  222.3970 C   0  0  0  0  0  0  0  0  0  0  0  0
  141.0550   76.5540  222.2440 C   0  0  0  0  0  0  0  0  0  0  0  0
  140.3140   71.1870  224.0760 C   0  0  0  0  0  0  0  0  0  0  0  0
  140.7620   71.8780  225.1830 C   0  0  0  0  0  0  0  0  0  0  0  0
  140.8300   71.3030  226.4090 N   0  0  0  0  0  0  0  0  0  0  0  0
  140.4550   70.0280  226.5660 C   0  0  0  0  0  0  0  0  0  0  0  0
  140.5330   69.4600  227.8200 C   0  0  0  0  0  0  0  0  0  0  0  0
  140.1350   68.1260  227.9490 C   0  0  0  0  0  0  0  0  0  0  0  0
  139.6870   67.4300  226.8490 C   0  0  0  0  0  0  0  0  0  0  0  0
  139.6110   68.0140  225.5800 C   0  0  0  0  0  0  0  0  0  0  0  0
  140.0100   69.3490  225.4530 C   0  0  0  0  0  0  0  0  0  0  0  0
  139.9410   69.9240  224.2290 N   0  0  0  0  0  0  0  0  0  0  0  0
  139.5930   70.2640  221.7470 H   0  0  0  0  0  0  0  0  0  0  0  0
  139.2206   71.5497  219.6808 H   0  0  0  0  0  0  0  0  0  0  0  0
  139.5402   73.0301  220.7819 H   0  0  0  0  0  0  0  0  0  0  0  0
  143.5432   71.2880  221.1863 H   0  0  0  0  0  0  0  0  0  0  0  0
  143.6451   71.2316  219.4381 H   0  0  0  0  0  0  0  0  0  0  0  0
  145.5359   72.7135  219.6565 H   0  0  0  0  0  0  0  0  0  0  0  0
  145.5920   72.0270  221.8940 H   0  0  0  0  0  0  0  0  0  0  0  0
  144.6311   75.1168  220.4526 H   0  0  0  0  0  0  0  0  0  0  0  0
  144.0050   74.5083  218.9544 H   0  0  0  0  0  0  0  0  0  0  0  0
  142.7405   74.2110  221.8104 H   0  0  0  0  0  0  0  0  0  0  0  0
  142.2691   76.0373  220.1142 H   0  0  0  0  0  0  0  0  0  0  0  0
  141.1213   74.6859  219.5769 H   0  0  0  0  0  0  0  0  0  0  0  0
  139.1601   75.5955  220.1537 H   0  0  0  0  0  0  0  0  0  0  0  0
  139.1279   74.2174  221.2489 H   0  0  0  0  0  0  0  0  0  0  0  0
  137.7651   76.5350  221.8408 H   0  0  0  0  0  0  0  0  0  0  0  0
  138.4725   75.6248  223.1470 H   0  0  0  0  0  0  0  0  0  0  0  0
  139.6031   78.0412  221.6256 H   0  0  0  0  0  0  0  0  0  0  0  0
  139.6249   77.7931  223.3575 H   0  0  0  0  0  0  0  0  0  0  0  0
  141.7997   77.2187  221.7818 H   0  0  0  0  0  0  0  0  0  0  0  0
  141.4698   76.2414  223.2137 H   0  0  0  0  0  0  0  0  0  0  0  0
  141.0733   72.9267  225.0675 H   0  0  0  0  0  0  0  0  0  0  0  0
  140.8945   70.0344  228.6857 H   0  0  0  0  0  0  0  0  0  0  0  0
  140.1799   67.6319  228.9308 H   0  0  0  0  0  0  0  0  0  0  0  0
  139.3789   66.3812  226.9717 H   0  0  0  0  0  0  0  0  0  0  0  0
  139.2499   67.4432  224.7118 H   0  0  0  0  0  0  0  0  0  0  0  0
  1  2  2  0
  2  3  1  0
  3  4  1  0
  4  5  1  0
  5  6  2  0
  5  7  1  0
  7  8  1  0
  8  9  1  0
  9 10  1  0
  9 11  1  0
 11 12  1  0
 12 13  1  0
 13 14  1  0
 14 15  1  0
 15 16  1  0
 16 17  1  0
 17 18  1  0
  2 19  1  0
 19 20  2  0
 20 21  1  0
 21 22  2  0
 22 23  1  0
 23 24  2  0
 24 25  1  0
 25 26  2  0
 26 27  1  0
 27 28  2  0
 12  7  1  0
 18 14  1  0
 28 19  1  0
 27 22  1  0
  3 29  1  0
  4 30  1  0
  4 31  1  0
  8 32  1  0
  8 33  1  0
  9 34  1  6
 10 35  1  0
 11 36  1  0
 11 37  1  0
 12 38  1  1
 13 39  1  0
 13 40  1  0
 15 41  1  0
 15 42  1  0
 16 43  1  0
 16 44  1  0
 17 45  1  0
 17 46  1  0
 18 47  1  0
 18 48  1  0
 20 49  1  0
 23 50  1  0
 24 51  1  0
 25 52  1  0
 26 53  1  0
M  END
>  <smiles>  (4) 
O=C(NCC(=O)N1C[C@H](O)C[C@H]1CN1CCCC1)c1cnc2ccccc2n1

>  <score_type>  (4) 
oracle

>  <origin>  (4) 
autodockgpu

>  <m_score__min__energy>  (4) 
-8.4800000000000004

>  <m_primary>  (4) 
energy

>  <rmsd>  (4) 
4.122332142174751

>  <m_score__min__rmsd>  (4) 
4.122332142174751

>  <meeko>  (4) 
{"free_energy": -7.05, "intermolecular_energy": -9.14, "internal_energy": -1.86, "cluster_size": 4, "cluster_id": 5, "rank_in_cluster": 4}

>  <energy>  (4) 
-8.24

>  <cluster_rmsd>  (4) 
0.84

>  <cluster>  (4) 
1

$$$$

     RDKit          3D

 53 56  0  0  0  0  0  0  0  0999 V2000
  135.8350   77.0470  223.6950 O   0  0  0  0  0  0  0  0  0  0  0  0
  136.0240   75.8020  223.8270 C   0  0  0  0  0  0  0  0  0  0  0  0
  137.1490   75.2150  223.0850 N   0  0  0  0  0  0  0  0  0  0  0  0
  137.8900   76.1290  222.3050 C   0  0  0  0  0  0  0  0  0  0  0  0
  139.2240   75.7850  221.9060 C   0  0  0  0  0  0  0  0  0  0  0  0
  139.5290   74.5360  222.1970 O   0  0  0  0  0  0  0  0  0  0  0  0
  140.2750   76.4830  221.2750 N   0  0  0  0  0  0  0  0  0  0  0  0
  140.9100   76.0080  220.0380 C   0  0  0  0  0  0  0  0  0  0  0  0
  141.6140   77.2560  219.5050 C   0  0  2  0  0  0  0  0  0  0  0  0
  142.9890   77.1070  219.6300 O   0  0  0  0  0  0  0  0  0  0  0  0
  141.0620   78.3990  220.3600 C   0  0  0  0  0  0  0  0  0  0  0  0
  140.9370   77.7000  221.7100 C   0  0  1  0  0  0  0  0  0  0  0  0
  140.1930   78.4420  222.7160 C   0  0  0  0  0  0  0  0  0  0  0  0
  140.8860   79.5080  223.3730 N   0  0  0  0  0  0  0  0  0  0  0  0
  140.6870   80.8180  222.9310 C   0  0  0  0  0  0  0  0  0  0  0  0
  141.8840   81.5960  223.4900 C   0  0  0  0  0  0  0  0  0  0  0  0
  142.9540   80.5320  223.5200 C   0  0  0  0  0  0  0  0  0  0  0  0
  142.1750   79.2810  223.8660 C   0  0  0  0  0  0  0  0  0  0  0  0
  135.1880   74.9580  224.6700 C   0  0  0  0  0  0  0  0  0  0  0  0
  134.4250   75.5950  225.6270 C   0  0  0  0  0  0  0  0  0  0  0  0
  133.6120   74.9110  226.4690 N   0  0  0  0  0  0  0  0  0  0  0  0
  133.5350   73.5780  226.3820 C   0  0  0  0  0  0  0  0  0  0  0  0
  132.7030   72.9010  227.2470 C   0  0  0  0  0  0  0  0  0  0  0  0
  132.6480   71.5090  227.1300 C   0  0  0  0  0  0  0  0  0  0  0  0
  133.4050   70.8650  226.1780 C   0  0  0  0  0  0  0  0  0  0  0  0
  134.2470   71.5600  225.3030 C   0  0  0  0  0  0  0  0  0  0  0  0
  134.3010   72.9540  225.4230 C   0  0  0  0  0  0  0  0  0  0  0  0
  135.1130   73.6370  224.5810 N   0  0  0  0  0  0  0  0  0  0  0  0
  137.2480   74.2140  223.2550 H   0  0  0  0  0  0  0  0  0  0  0  0
  137.3146   76.3069  221.3845 H   0  0  0  0  0  0  0  0  0  0  0  0
  138.0301   76.9913  222.9734 H   0  0  0  0  0  0  0  0  0  0  0  0
  141.6335   75.2067  220.2486 H   0  0  0  0  0  0  0  0  0  0  0  0
  140.1932   75.5785  219.3226 H   0  0  0  0  0  0  0  0  0  0  0  0
  141.4330   77.4454  218.4366 H   0  0  0  0  0  0  0  0  0  0  0  0
  143.3620   77.5520  220.4050 H   0  0  0  0  0  0  0  0  0  0  0  0
  141.7612   79.2470  220.4048 H   0  0  0  0  0  0  0  0  0  0  0  0
  140.1279   78.8426  219.9849 H   0  0  0  0  0  0  0  0  0  0  0  0
  141.8902   77.5598  222.2408 H   0  0  0  0  0  0  0  0  0  0  0  0
  139.3077   78.8727  222.2253 H   0  0  0  0  0  0  0  0  0  0  0  0
  139.9703   77.7114  223.5076 H   0  0  0  0  0  0  0  0  0  0  0  0
  140.6745   80.8601  221.8319 H   0  0  0  0  0  0  0  0  0  0  0  0
  139.7247   81.2318  223.2667 H   0  0  0  0  0  0  0  0  0  0  0  0
  142.1651   82.4287  222.8286 H   0  0  0  0  0  0  0  0  0  0  0  0
  141.6943   82.0660  224.4663 H   0  0  0  0  0  0  0  0  0  0  0  0
  143.4438   80.4351  222.5398 H   0  0  0  0  0  0  0  0  0  0  0  0
  143.7647   80.7502  224.2308 H   0  0  0  0  0  0  0  0  0  0  0  0
  142.6238   78.4004  223.3832 H   0  0  0  0  0  0  0  0  0  0  0  0
  142.1739   79.0814  224.9477 H   0  0  0  0  0  0  0  0  0  0  0  0
  134.4780   76.6906  225.7092 H   0  0  0  0  0  0  0  0  0  0  0  0
  132.1053   73.4351  228.0003 H   0  0  0  0  0  0  0  0  0  0  0  0
  131.9983   70.9272  227.8003 H   0  0  0  0  0  0  0  0  0  0  0  0
  133.3462   69.7692  226.1026 H   0  0  0  0  0  0  0  0  0  0  0  0
  134.8455   71.0299  224.5474 H   0  0  0  0  0  0  0  0  0  0  0  0
  1  2  2  0
  2  3  1  0
  3  4  1  0
  4  5  1  0
  5  6  2  0
  5  7  1  0
  7  8  1  0
  8  9  1  0
  9 10  1  0
  9 11  1  0
 11 12  1  0
 12 13  1  0
 13 14  1  0
 14 15  1  0
 15 16  1  0
 16 17  1  0
 17 18  1  0
  2 19  1  0
 19 20  2  0
 20 21  1  0
 21 22  2  0
 22 23  1  0
 23 24  2  0
 24 25  1  0
 25 26  2  0
 26 27  1  0
 27 28  2  0
 12  7  1  0
 18 14  1  0
 28 19  1  0
 27 22  1  0
  3 29  1  0
  4 30  1  0
  4 31  1  0
  8 32  1  0
  8 33  1  0
  9 34  1  6
 10 35  1  0
 11 36  1  0
 11 37  1  0
 12 38  1  1
 13 39  1  0
 13 40  1  0
 15 41  1  0
 15 42  1  0
 16 43  1  0
 16 44  1  0
 17 45  1  0
 17 46  1  0
 18 47  1  0
 18 48  1  0
 20 49  1  0
 23 50  1  0
 24 51  1  0
 25 52  1  0
 26 53  1  0
M  END
>  <smiles>  (5) 
O=C(NCC(=O)N1C[C@H](O)C[C@H]1CN1CCCC1)c1cnc2ccccc2n1

>  <score_type>  (5) 
oracle

>  <origin>  (5) 
autodockgpu

>  <m_score__min__energy>  (5) 
-8.4800000000000004

>  <m_primary>  (5) 
energy

>  <rmsd>  (5) 
5.098803614471175

>  <m_score__min__rmsd>  (5) 
5.098803614471175

>  <meeko>  (5) 
{"free_energy": -7.38, "intermolecular_energy": -9.47, "internal_energy": -1.51, "cluster_size": 5, "cluster_id": 3, "rank_in_cluster": 4}

>  <energy>  (5) 
-8.21

>  <cluster_rmsd>  (5) 
1.39

>  <cluster>  (5) 
1

$$$$

     RDKit          3D

 53 56  0  0  0  0  0  0  0  0999 V2000
  138.2960   72.0200  222.7910 O   0  0  0  0  0  0  0  0  0  0  0  0
  139.4190   71.5340  223.1160 C   0  0  0  0  0  0  0  0  0  0  0  0
  140.5760   71.9250  222.2980 N   0  0  0  0  0  0  0  0  0  0  0  0
  140.2850   72.8080  221.2360 C   0  0  0  0  0  0  0  0  0  0  0  0
  140.3880   74.2210  221.4550 C   0  0  0  0  0  0  0  0  0  0  0  0
  139.5070   74.6580  222.3330 O   0  0  0  0  0  0  0  0  0  0  0  0
  141.2180   75.2410  220.9440 N   0  0  0  0  0  0  0  0  0  0  0  0
  142.1280   75.0260  219.8110 C   0  0  0  0  0  0  0  0  0  0  0  0
  142.4380   76.4470  219.3370 C   0  0  2  0  0  0  0  0  0  0  0  0
  143.7550   76.7630  219.6390 O   0  0  0  0  0  0  0  0  0  0  0  0
  141.4310   77.3250  220.0840 C   0  0  0  0  0  0  0  0  0  0  0  0
  141.3740   76.6010  221.4260 C   0  0  1  0  0  0  0  0  0  0  0  0
  140.3030   77.0350  222.3090 C   0  0  0  0  0  0  0  0  0  0  0  0
  140.5380   78.2230  223.0710 N   0  0  0  0  0  0  0  0  0  0  0  0
  139.7810   79.3650  222.7950 C   0  0  0  0  0  0  0  0  0  0  0  0
  140.5850   80.5150  223.4120 C   0  0  0  0  0  0  0  0  0  0  0  0
  141.9990   80.0030  223.2850 C   0  0  0  0  0  0  0  0  0  0  0  0
  141.8370   78.5130  223.4990 C   0  0  0  0  0  0  0  0  0  0  0  0
  139.5950   70.6290  224.2440 C   0  0  0  0  0  0  0  0  0  0  0  0
  139.0480   69.3690  224.1220 C   0  0  0  0  0  0  0  0  0  0  0  0
  139.1480   68.4440  225.1090 N   0  0  0  0  0  0  0  0  0  0  0  0
  139.7950   68.7470  226.2400 C   0  0  0  0  0  0  0  0  0  0  0  0
  139.8850   67.7940  227.2320 C   0  0  0  0  0  0  0  0  0  0  0  0
  140.5660   68.1440  228.4010 C   0  0  0  0  0  0  0  0  0  0  0  0
  141.1170   69.4000  228.5310 C   0  0  0  0  0  0  0  0  0  0  0  0
  141.0200   70.3600  227.5190 C   0  0  0  0  0  0  0  0  0  0  0  0
  140.3370   70.0080  226.3490 C   0  0  0  0  0  0  0  0  0  0  0  0
  140.2380   70.9320  225.3640 N   0  0  0  0  0  0  0  0  0  0  0  0
  141.4460   71.5070  222.6310 H   0  0  0  0  0  0  0  0  0  0  0  0
  140.9715   72.5591  220.4134 H   0  0  0  0  0  0  0  0  0  0  0  0
  139.2127   72.6490  221.0490 H   0  0  0  0  0  0  0  0  0  0  0  0
  143.0439   74.5091  220.1333 H   0  0  0  0  0  0  0  0  0  0  0  0
  141.6936   74.3935  219.0228 H   0  0  0  0  0  0  0  0  0  0  0  0
  142.3432   76.5836  218.2497 H   0  0  0  0  0  0  0  0  0  0  0  0
  143.8560   77.2880  220.4460 H   0  0  0  0  0  0  0  0  0  0  0  0
  141.7952   78.3571  220.1943 H   0  0  0  0  0  0  0  0  0  0  0  0
  140.4589   77.4372  219.5816 H   0  0  0  0  0  0  0  0  0  0  0  0
  142.2428   76.7779  222.0771 H   0  0  0  0  0  0  0  0  0  0  0  0
  139.4103   77.2077  221.6899 H   0  0  0  0  0  0  0  0  0  0  0  0
  140.1990   76.2313  223.0528 H   0  0  0  0  0  0  0  0  0  0  0  0
  139.6708   79.5058  221.7096 H   0  0  0  0  0  0  0  0  0  0  0  0
  138.7616   79.3005  223.2031 H   0  0  0  0  0  0  0  0  0  0  0  0
  140.4449   81.4495  222.8488 H   0  0  0  0  0  0  0  0  0  0  0  0
  140.2908   80.7627  224.4426 H   0  0  0  0  0  0  0  0  0  0  0  0
  142.4099   80.2176  222.2875 H   0  0  0  0  0  0  0  0  0  0  0  0
  142.6970   80.4714  223.9945 H   0  0  0  0  0  0  0  0  0  0  0  0
  142.5738   77.9548  222.9027 H   0  0  0  0  0  0  0  0  0  0  0  0
  141.9986   78.2273  224.5489 H   0  0  0  0  0  0  0  0  0  0  0  0
  138.5146   69.1062  223.1965 H   0  0  0  0  0  0  0  0  0  0  0  0
  139.4380   66.7966  227.1081 H   0  0  0  0  0  0  0  0  0  0  0  0
  140.6623   67.4151  229.2192 H   0  0  0  0  0  0  0  0  0  0  0  0
  141.6494   69.6554  229.4591 H   0  0  0  0  0  0  0  0  0  0  0  0
  141.4656   71.3586  227.6383 H   0  0  0  0  0  0  0  0  0  0  0  0
  1  2  2  0
  2  3  1  0
  3  4  1  0
  4  5  1  0
  5  6  2  0
  5  7  1  0
  7  8  1  0
  8  9  1  0
  9 10  1  0
  9 11  1  0
 11 12  1  0
 12 13  1  0
 13 14  1  0
 14 15  1  0
 15 16  1  0
 16 17  1  0
 17 18  1  0
  2 19  1  0
 19 20  2  0
 20 21  1  0
 21 22  2  0
 22 23  1  0
 23 24  2  0
 24 25  1  0
 25 26  2  0
 26 27  1  0
 27 28  2  0
 12  7  1  0
 18 14  1  0
 28 19  1  0
 27 22  1  0
  3 29  1  0
  4 30  1  0
  4 31  1  0
  8 32  1  0
  8 33  1  0
  9 34  1  6
 10 35  1  0
 11 36  1  0
 11 37  1  0
 12 38  1  1
 13 39  1  0
 13 40  1  0
 15 41  1  0
 15 42  1  0
 16 43  1  0
 16 44  1  0
 17 45  1  0
 17 46  1  0
 18 47  1  0
 18 48  1  0
 20 49  1  0
 23 50  1  0
 24 51  1  0
 25 52  1  0
 26 53  1  0
M  END
>  <smiles>  (6) 
O=C(NCC(=O)N1C[C@H](O)C[C@H]1CN1CCCC1)c1cnc2ccccc2n1

>  <score_type>  (6) 
oracle

>  <origin>  (6) 
autodockgpu

>  <m_score__min__energy>  (6) 
-8.4800000000000004

>  <m_primary>  (6) 
energy

>  <rmsd>  (6) 
2.3823362658145393

>  <m_score__min__rmsd>  (6) 
2.3823362658145393

>  <meeko>  (6) 
{"free_energy": -8.21, "intermolecular_energy": -10.29, "internal_energy": -0.72, "cluster_size": 24, "cluster_id": 1, "rank_in_cluster": 5}

>  <energy>  (6) 
-8.19

>  <cluster_rmsd>  (6) 
0.71

>  <cluster>  (6) 
1

$$$$

     RDKit          3D

 53 56  0  0  0  0  0  0  0  0999 V2000
  139.0450   74.9850  221.8000 O   0  0  0  0  0  0  0  0  0  0  0  0
  140.1630   75.5690  221.9160 C   0  0  0  0  0  0  0  0  0  0  0  0
  141.3650   74.7650  221.6540 N   0  0  0  0  0  0  0  0  0  0  0  0
  141.1190   73.4210  221.3000 C   0  0  0  0  0  0  0  0  0  0  0  0
  142.0750   72.7270  220.4860 C   0  0  0  0  0  0  0  0  0  0  0  0
  141.6660   71.5200  220.1510 O   0  0  0  0  0  0  0  0  0  0  0  0
  143.3470   73.0480  219.9690 N   0  0  0  0  0  0  0  0  0  0  0  0
  144.5630   72.3160  220.3480 C   0  0  0  0  0  0  0  0  0  0  0  0
  145.5510   72.6810  219.2390 C   0  0  2  0  0  0  0  0  0  0  0  0
  146.5400   73.5110  219.7490 O   0  0  0  0  0  0  0  0  0  0  0  0
  144.6910   73.3670  218.1750 C   0  0  0  0  0  0  0  0  0  0  0  0
  143.7050   74.1220  219.0600 C   0  0  1  0  0  0  0  0  0  0  0  0
  142.5680   74.6950  218.3570 C   0  0  0  0  0  0  0  0  0  0  0  0
  142.4030   76.1140  218.4490 N   0  0  0  0  0  0  0  0  0  0  0  0
  142.9340   76.7870  219.5520 C   0  0  0  0  0  0  0  0  0  0  0  0
  142.1890   78.1280  219.5770 C   0  0  0  0  0  0  0  0  0  0  0  0
  140.8560   77.7480  218.9820 C   0  0  0  0  0  0  0  0  0  0  0  0
  141.2310   76.6970  217.9580 C   0  0  0  0  0  0  0  0  0  0  0  0
  140.2900   76.9720  222.2870 C   0  0  0  0  0  0  0  0  0  0  0  0
  139.1210   77.6950  222.4000 C   0  0  0  0  0  0  0  0  0  0  0  0
  139.1180   79.0080  222.7380 N   0  0  0  0  0  0  0  0  0  0  0  0
  140.2760   79.6360  222.9720 C   0  0  0  0  0  0  0  0  0  0  0  0
  140.2530   80.9710  223.3130 C   0  0  0  0  0  0  0  0  0  0  0  0
  141.4810   81.5970  223.5490 C   0  0  0  0  0  0  0  0  0  0  0  0
  142.6530   80.8830  223.4390 C   0  0  0  0  0  0  0  0  0  0  0  0
  142.6670   79.5280  223.0930 C   0  0  0  0  0  0  0  0  0  0  0  0
  141.4370   78.9030  222.8560 C   0  0  0  0  0  0  0  0  0  0  0  0
  141.4390   77.5920  222.5200 N   0  0  0  0  0  0  0  0  0  0  0  0
  142.2240   75.3070  221.7510 H   0  0  0  0  0  0  0  0  0  0  0  0
  141.0228   72.8538  222.2376 H   0  0  0  0  0  0  0  0  0  0  0  0
  140.2238   73.4771  220.6632 H   0  0  0  0  0  0  0  0  0  0  0  0
  144.9325   72.6467  221.3299 H   0  0  0  0  0  0  0  0  0  0  0  0
  144.4020   71.2320  220.4425 H   0  0  0  0  0  0  0  0  0  0  0  0
  146.0815   71.8164  218.8136 H   0  0  0  0  0  0  0  0  0  0  0  0
  146.7930   74.2300  219.1530 H   0  0  0  0  0  0  0  0  0  0  0  0
  145.2850   74.0522  217.5523 H   0  0  0  0  0  0  0  0  0  0  0  0
  144.2258   72.6828  217.4502 H   0  0  0  0  0  0  0  0  0  0  0  0
  144.1159   75.0271  219.5311 H   0  0  0  0  0  0  0  0  0  0  0  0
  142.6718   74.4400  217.2920 H   0  0  0  0  0  0  0  0  0  0  0  0
  141.6805   74.2687  218.8475 H   0  0  0  0  0  0  0  0  0  0  0  0
  142.7500   76.2223  220.4779 H   0  0  0  0  0  0  0  0  0  0  0  0
  144.0242   76.9147  219.4798 H   0  0  0  0  0  0  0  0  0  0  0  0
  142.0768   78.5053  220.6041 H   0  0  0  0  0  0  0  0  0  0  0  0
  142.7050   78.9358  219.0374 H   0  0  0  0  0  0  0  0  0  0  0  0
  140.1845   77.3327  219.7479 H   0  0  0  0  0  0  0  0  0  0  0  0
  140.3134   78.6018  218.5500 H   0  0  0  0  0  0  0  0  0  0  0  0
  140.4339   75.9445  217.8669 H   0  0  0  0  0  0  0  0  0  0  0  0
  141.3731   77.1288  216.9563 H   0  0  0  0  0  0  0  0  0  0  0  0
  138.1618   77.1911  222.2101 H   0  0  0  0  0  0  0  0  0  0  0  0
  139.3052   81.5230  223.3964 H   0  0  0  0  0  0  0  0  0  0  0  0
  141.5106   82.6619  223.8230 H   0  0  0  0  0  0  0  0  0  0  0  0
  143.6082   81.3943  223.6292 H   0  0  0  0  0  0  0  0  0  0  0  0
  143.6126   78.9721  223.0099 H   0  0  0  0  0  0  0  0  0  0  0  0
  1  2  2  0
  2  3  1  0
  3  4  1  0
  4  5  1  0
  5  6  2  0
  5  7  1  0
  7  8  1  0
  8  9  1  0
  9 10  1  0
  9 11  1  0
 11 12  1  0
 12 13  1  0
 13 14  1  0
 14 15  1  0
 15 16  1  0
 16 17  1  0
 17 18  1  0
  2 19  1  0
 19 20  2  0
 20 21  1  0
 21 22  2  0
 22 23  1  0
 23 24  2  0
 24 25  1  0
 25 26  2  0
 26 27  1  0
 27 28  2  0
 12  7  1  0
 18 14  1  0
 28 19  1  0
 27 22  1  0
  3 29  1  0
  4 30  1  0
  4 31  1  0
  8 32  1  0
  8 33  1  0
  9 34  1  6
 10 35  1  0
 11 36  1  0
 11 37  1  0
 12 38  1  1
 13 39  1  0
 13 40  1  0
 15 41  1  0
 15 42  1  0
 16 43  1  0
 16 44  1  0
 17 45  1  0
 17 46  1  0
 18 47  1  0
 18 48  1  0
 20 49  1  0
 23 50  1  0
 24 51  1  0
 25 52  1  0
 26 53  1  0
M  END
>  <smiles>  (7) 
O=C(NCC(=O)N1C[C@H](O)C[C@H]1CN1CCCC1)c1cnc2ccccc2n1

>  <score_type>  (7) 
oracle

>  <origin>  (7) 
autodockgpu

>  <m_score__min__energy>  (7) 
-8.4800000000000004

>  <m_primary>  (7) 
energy

>  <rmsd>  (7) 
7.059437396811892

>  <m_score__min__rmsd>  (7) 
7.059437396811892

>  <meeko>  (7) 
{"free_energy": -6.38, "intermolecular_energy": -8.47, "internal_energy": -2.41, "cluster_size": 12, "cluster_id": 8, "rank_in_cluster": 10}

>  <energy>  (7) 
-8.16

>  <cluster_rmsd>  (7) 
0.89

>  <cluster>  (7) 
1

$$$$

     RDKit          3D

 53 56  0  0  0  0  0  0  0  0999 V2000
  140.3150   71.1710  221.4090 O   0  0  0  0  0  0  0  0  0  0  0  0
  140.0620   71.6010  222.5730 C   0  0  0  0  0  0  0  0  0  0  0  0
  139.8490   73.0490  222.7170 N   0  0  0  0  0  0  0  0  0  0  0  0
  139.9540   73.7890  221.5200 C   0  0  0  0  0  0  0  0  0  0  0  0
  140.4170   75.1450  221.5770 C   0  0  0  0  0  0  0  0  0  0  0  0
  139.9880   75.7780  222.6510 O   0  0  0  0  0  0  0  0  0  0  0  0
  141.2260   75.9470  220.7440 N   0  0  0  0  0  0  0  0  0  0  0  0
  142.1150   75.3800  219.7210 C   0  0  0  0  0  0  0  0  0  0  0  0
  142.4000   76.5710  218.8060 C   0  0  2  0  0  0  0  0  0  0  0  0
  143.7190   76.9730  218.9590 O   0  0  0  0  0  0  0  0  0  0  0  0
  141.3990   77.6400  219.2510 C   0  0  0  0  0  0  0  0  0  0  0  0
  141.3770   77.3910  220.7550 C   0  0  1  0  0  0  0  0  0  0  0  0
  140.3190   78.0830  221.4740 C   0  0  0  0  0  0  0  0  0  0  0  0
  140.7260   78.9700  222.5210 N   0  0  0  0  0  0  0  0  0  0  0  0
  140.5560   80.3460  222.3470 C   0  0  0  0  0  0  0  0  0  0  0  0
  141.4950   80.9820  223.3790 C   0  0  0  0  0  0  0  0  0  0  0  0
  142.5930   79.9510  223.4680 C   0  0  0  0  0  0  0  0  0  0  0  0
  141.8470   78.6460  223.2920 C   0  0  0  0  0  0  0  0  0  0  0  0
  139.9740   70.7320  223.7380 C   0  0  0  0  0  0  0  0  0  0  0  0
  139.3580   69.5110  223.5600 C   0  0  0  0  0  0  0  0  0  0  0  0
  139.2170   68.6210  224.5730 N   0  0  0  0  0  0  0  0  0  0  0  0
  139.6860   68.9220  225.7900 C   0  0  0  0  0  0  0  0  0  0  0  0
  139.5330   68.0060  226.8080 C   0  0  0  0  0  0  0  0  0  0  0  0
  140.0330   68.3520  228.0670 C   0  0  0  0  0  0  0  0  0  0  0  0
  140.6500   69.5690  228.2540 C   0  0  0  0  0  0  0  0  0  0  0  0
  140.8010   70.4930  227.2160 C   0  0  0  0  0  0  0  0  0  0  0  0
  140.3000   70.1440  225.9560 C   0  0  0  0  0  0  0  0  0  0  0  0
  140.4400   71.0320  224.9430 N   0  0  0  0  0  0  0  0  0  0  0  0
  139.6340   73.3160  223.6780 H   0  0  0  0  0  0  0  0  0  0  0  0
  140.6441   73.2406  220.8620 H   0  0  0  0  0  0  0  0  0  0  0  0
  138.9133   73.8809  221.1757 H   0  0  0  0  0  0  0  0  0  0  0  0
  143.0428   74.9986  220.1723 H   0  0  0  0  0  0  0  0  0  0  0  0
  141.6712   74.5249  219.1901 H   0  0  0  0  0  0  0  0  0  0  0  0
  142.2818   76.3471  217.7355 H   0  0  0  0  0  0  0  0  0  0  0  0
  143.8940   77.4350  219.7920 H   0  0  0  0  0  0  0  0  0  0  0  0
  141.7541   78.6534  219.0123 H   0  0  0  0  0  0  0  0  0  0  0  0
  140.4156   77.5792  218.7618 H   0  0  0  0  0  0  0  0  0  0  0  0
  142.2568   77.7737  221.2931 H   0  0  0  0  0  0  0  0  0  0  0  0
  139.7484   78.6723  220.7411 H   0  0  0  0  0  0  0  0  0  0  0  0
  139.7438   77.2902  221.9746 H   0  0  0  0  0  0  0  0  0  0  0  0
  140.8380   80.6468  221.3272 H   0  0  0  0  0  0  0  0  0  0  0  0
  139.5104   80.6590  222.4838 H   0  0  0  0  0  0  0  0  0  0  0  0
  141.8812   81.9500  223.0271 H   0  0  0  0  0  0  0  0  0  0  0  0
  141.0139   81.2069  224.3423 H   0  0  0  0  0  0  0  0  0  0  0  0
  143.3352   80.0934  222.6687 H   0  0  0  0  0  0  0  0  0  0  0  0
  143.1620   80.0026  224.4080 H   0  0  0  0  0  0  0  0  0  0  0  0
  142.4752   77.9091  222.7701 H   0  0  0  0  0  0  0  0  0  0  0  0
  141.5687   78.1963  224.2565 H   0  0  0  0  0  0  0  0  0  0  0  0
  138.9687   69.2510  222.5646 H   0  0  0  0  0  0  0  0  0  0  0  0
  139.0365   67.0395  226.6367 H   0  0  0  0  0  0  0  0  0  0  0  0
  139.9335   67.6514  228.9092 H   0  0  0  0  0  0  0  0  0  0  0  0
  141.0364   69.8221  229.2523 H   0  0  0  0  0  0  0  0  0  0  0  0
  141.2963   71.4608  227.3833 H   0  0  0  0  0  0  0  0  0  0  0  0
  1  2  2  0
  2  3  1  0
  3  4  1  0
  4  5  1  0
  5  6  2  0
  5  7  1  0
  7  8  1  0
  8  9  1  0
  9 10  1  0
  9 11  1  0
 11 12  1  0
 12 13  1  0
 13 14  1  0
 14 15  1  0
 15 16  1  0
 16 17  1  0
 17 18  1  0
  2 19  1  0
 19 20  2  0
 20 21  1  0
 21 22  2  0
 22 23  1  0
 23 24  2  0
 24 25  1  0
 25 26  2  0
 26 27  1  0
 27 28  2  0
 12  7  1  0
 18 14  1  0
 28 19  1  0
 27 22  1  0
  3 29  1  0
  4 30  1  0
  4 31  1  0
  8 32  1  0
  8 33  1  0
  9 34  1  6
 10 35  1  0
 11 36  1  0
 11 37  1  0
 12 38  1  1
 13 39  1  0
 13 40  1  0
 15 41  1  0
 15 42  1  0
 16 43  1  0
 16 44  1  0
 17 45  1  0
 17 46  1  0
 18 47  1  0
 18 48  1  0
 20 49  1  0
 23 50  1  0
 24 51  1  0
 25 52  1  0
 26 53  1  0
M  END
>  <smiles>  (8) 
O=C(NCC(=O)N1C[C@H](O)C[C@H]1CN1CCCC1)c1cnc2ccccc2n1

>  <score_type>  (8) 
oracle

>  <origin>  (8) 
autodockgpu

>  <m_score__min__energy>  (8) 
-8.4800000000000004

>  <m_primary>  (8) 
energy

>  <rmsd>  (8) 
2.201607464052494

>  <m_score__min__rmsd>  (8) 
2.201607464052494

>  <meeko>  (8) 
{"free_energy": -8.11, "intermolecular_energy": -10.19, "internal_energy": -1.13, "cluster_size": 24, "cluster_id": 1, "rank_in_cluster": 8}

>  <energy>  (8) 
-8.11

>  <cluster_rmsd>  (8) 
0.85

>  <cluster>  (8) 
1

$$$$

     RDKit          3D

 53 56  0  0  0  0  0  0  0  0999 V2000
  139.1890   74.8090  222.2960 O   0  0  0  0  0  0  0  0  0  0  0  0
  140.2250   75.5080  222.0910 C   0  0  0  0  0  0  0  0  0  0  0  0
  141.3700   74.8340  221.4620 N   0  0  0  0  0  0  0  0  0  0  0  0
  141.1670   73.4700  221.1600 C   0  0  0  0  0  0  0  0  0  0  0  0
  142.2700   72.6910  220.6760 C   0  0  0  0  0  0  0  0  0  0  0  0
  142.1220   71.4050  220.9240 O   0  0  0  0  0  0  0  0  0  0  0  0
  143.4680   72.9940  219.9970 N   0  0  0  0  0  0  0  0  0  0  0  0
  144.7030   72.2210  220.1890 C   0  0  0  0  0  0  0  0  0  0  0  0
  145.5410   72.5900  218.9640 C   0  0  2  0  0  0  0  0  0  0  0  0
  146.6130   73.3810  219.3520 O   0  0  0  0  0  0  0  0  0  0  0  0
  144.5640   73.3280  218.0440 C   0  0  0  0  0  0  0  0  0  0  0  0
  143.7290   74.0830  219.0730 C   0  0  1  0  0  0  0  0  0  0  0  0
  142.5240   74.7030  218.5460 C   0  0  0  0  0  0  0  0  0  0  0  0
  142.1200   75.9380  219.1470 N   0  0  0  0  0  0  0  0  0  0  0  0
  140.8420   76.4340  218.8800 C   0  0  0  0  0  0  0  0  0  0  0  0
  140.9210   77.9190  219.2560 C   0  0  0  0  0  0  0  0  0  0  0  0
  142.3690   78.2300  218.9690 C   0  0  0  0  0  0  0  0  0  0  0  0
  143.0720   76.9430  219.3460 C   0  0  0  0  0  0  0  0  0  0  0  0
  140.3140   76.9180  222.4460 C   0  0  0  0  0  0  0  0  0  0  0  0
  139.1240   77.5820  222.6640 C   0  0  0  0  0  0  0  0  0  0  0  0
  139.0850   78.8950  222.9970 N   0  0  0  0  0  0  0  0  0  0  0  0
  140.2260   79.5820  223.1230 C   0  0  0  0  0  0  0  0  0  0  0  0
  140.1660   80.9180  223.4620 C   0  0  0  0  0  0  0  0  0  0  0  0
  141.3760   81.6070  223.5830 C   0  0  0  0  0  0  0  0  0  0  0  0
  142.5680   80.9520  223.3680 C   0  0  0  0  0  0  0  0  0  0  0  0
  142.6200   79.5970  223.0250 C   0  0  0  0  0  0  0  0  0  0  0  0
  141.4070   78.9090  222.9030 C   0  0  0  0  0  0  0  0  0  0  0  0
  141.4460   77.5970  222.5710 N   0  0  0  0  0  0  0  0  0  0  0  0
  142.1590   75.4640  221.3150 H   0  0  0  0  0  0  0  0  0  0  0  0
  140.8108   72.9859  222.0813 H   0  0  0  0  0  0  0  0  0  0  0  0
  140.4672   73.4901  220.3115 H   0  0  0  0  0  0  0  0  0  0  0  0
  145.2122   72.5157  221.1184 H   0  0  0  0  0  0  0  0  0  0  0  0
  144.5249   71.1393  220.2796 H   0  0  0  0  0  0  0  0  0  0  0  0
  145.9829   71.7232  218.4509 H   0  0  0  0  0  0  0  0  0  0  0  0
  146.4100   74.3270  219.3880 H   0  0  0  0  0  0  0  0  0  0  0  0
  145.0877   74.0151  217.3631 H   0  0  0  0  0  0  0  0  0  0  0  0
  143.9850   72.6762  217.3732 H   0  0  0  0  0  0  0  0  0  0  0  0
  144.2255   74.9647  219.5045 H   0  0  0  0  0  0  0  0  0  0  0  0
  142.6875   74.8916  217.4747 H   0  0  0  0  0  0  0  0  0  0  0  0
  141.7131   73.9942  218.7696 H   0  0  0  0  0  0  0  0  0  0  0  0
  140.5933   76.3151  217.8151 H   0  0  0  0  0  0  0  0  0  0  0  0
  140.0604   75.9011  219.4413 H   0  0  0  0  0  0  0  0  0  0  0  0
  140.2490   78.5269  218.6324 H   0  0  0  0  0  0  0  0  0  0  0  0
  140.6142   78.1350  220.2900 H   0  0  0  0  0  0  0  0  0  0  0  0
  142.5198   78.4665  217.9054 H   0  0  0  0  0  0  0  0  0  0  0  0
  142.7425   79.1064  219.5189 H   0  0  0  0  0  0  0  0  0  0  0  0
  143.9483   76.7783  218.7018 H   0  0  0  0  0  0  0  0  0  0  0  0
  143.4414   76.9625  220.3819 H   0  0  0  0  0  0  0  0  0  0  0  0
  138.1785   77.0287  222.5645 H   0  0  0  0  0  0  0  0  0  0  0  0
  139.2027   81.4217  223.6306 H   0  0  0  0  0  0  0  0  0  0  0  0
  141.3761   82.6740  223.8503 H   0  0  0  0  0  0  0  0  0  0  0  0
  143.5092   81.5122  223.4692 H   0  0  0  0  0  0  0  0  0  0  0  0
  143.5812   79.0893  222.8568 H   0  0  0  0  0  0  0  0  0  0  0  0
  1  2  2  0
  2  3  1  0
  3  4  1  0
  4  5  1  0
  5  6  2  0
  5  7  1  0
  7  8  1  0
  8  9  1  0
  9 10  1  0
  9 11  1  0
 11 12  1  0
 12 13  1  0
 13 14  1  0
 14 15  1  0
 15 16  1  0
 16 17  1  0
 17 18  1  0
  2 19  1  0
 19 20  2  0
 20 21  1  0
 21 22  2  0
 22 23  1  0
 23 24  2  0
 24 25  1  0
 25 26  2  0
 26 27  1  0
 27 28  2  0
 12  7  1  0
 18 14  1  0
 28 19  1  0
 27 22  1  0
  3 29  1  0
  4 30  1  0
  4 31  1  0
  8 32  1  0
  8 33  1  0
  9 34  1  6
 10 35  1  0
 11 36  1  0
 11 37  1  0
 12 38  1  1
 13 39  1  0
 13 40  1  0
 15 41  1  0
 15 42  1  0
 16 43  1  0
 16 44  1  0
 17 45  1  0
 17 46  1  0
 18 47  1  0
 18 48  1  0
 20 49  1  0
 23 50  1  0
 24 51  1  0
 25 52  1  0
 26 53  1  0
M  END
>  <smiles>  (9) 
O=C(NCC(=O)N1C[C@H](O)C[C@H]1CN1CCCC1)c1cnc2ccccc2n1

>  <score_type>  (9) 
oracle

>  <origin>  (9) 
autodockgpu

>  <m_score__min__energy>  (9) 
-8.4800000000000004

>  <m_primary>  (9) 
energy

>  <rmsd>  (9) 
7.074014599244133

>  <m_score__min__rmsd>  (9) 
7.074014599244133

>  <meeko>  (9) 
{"free_energy": -6.6, "intermolecular_energy": -8.69, "internal_energy": -2.75, "cluster_size": 12, "cluster_id": 8, "rank_in_cluster": 2}

>  <energy>  (9) 
-8.08

>  <cluster_rmsd>  (9) 
0.75

>  <cluster>  (9) 
1

$$$$

     RDKit          3D

 53 56  0  0  0  0  0  0  0  0999 V2000
  141.3740   71.9500  221.6070 O   0  0  0  0  0  0  0  0  0  0  0  0
  140.5080   72.2620  222.4770 C   0  0  0  0  0  0  0  0  0  0  0  0
  139.6730   73.4390  222.1950 N   0  0  0  0  0  0  0  0  0  0  0  0
  139.9460   74.0830  220.9690 C   0  0  0  0  0  0  0  0  0  0  0  0
  140.7300   75.2840  220.9700 C   0  0  0  0  0  0  0  0  0  0  0  0
  140.8090   75.8310  222.1670 O   0  0  0  0  0  0  0  0  0  0  0  0
  141.4320   76.0050  219.9810 N   0  0  0  0  0  0  0  0  0  0  0  0
  141.3560   77.4680  219.8660 C   0  0  0  0  0  0  0  0  0  0  0  0
  142.5800   77.8150  219.0170 C   0  0  2  0  0  0  0  0  0  0  0  0
  142.1730   78.2330  217.7580 O   0  0  0  0  0  0  0  0  0  0  0  0
  143.3950   76.5200  218.9770 C   0  0  0  0  0  0  0  0  0  0  0  0
  142.2720   75.4880  218.9170 C   0  0  1  0  0  0  0  0  0  0  0  0
  142.6960   74.1120  219.1230 C   0  0  0  0  0  0  0  0  0  0  0  0
  144.0550   73.9100  219.5250 N   0  0  0  0  0  0  0  0  0  0  0  0
  144.7790   72.8590  218.9570 C   0  0  0  0  0  0  0  0  0  0  0  0
  145.9540   72.6410  219.9180 C   0  0  0  0  0  0  0  0  0  0  0  0
  145.3490   73.0520  221.2380 C   0  0  0  0  0  0  0  0  0  0  0  0
  144.4220   74.1840  220.8460 C   0  0  0  0  0  0  0  0  0  0  0  0
  140.3170   71.5120  223.7110 C   0  0  0  0  0  0  0  0  0  0  0  0
  139.6090   70.3320  223.6190 C   0  0  0  0  0  0  0  0  0  0  0  0
  139.3680   69.5520  224.7020 N   0  0  0  0  0  0  0  0  0  0  0  0
  139.8240   69.9250  225.9030 C   0  0  0  0  0  0  0  0  0  0  0  0
  139.5680   69.1200  226.9920 C   0  0  0  0  0  0  0  0  0  0  0  0
  140.0570   69.5400  228.2330 C   0  0  0  0  0  0  0  0  0  0  0  0
  140.7650   70.7170  228.3340 C   0  0  0  0  0  0  0  0  0  0  0  0
  141.0200   71.5270  227.2230 C   0  0  0  0  0  0  0  0  0  0  0  0
  140.5290   71.1060  225.9820 C   0  0  0  0  0  0  0  0  0  0  0  0
  140.7700   71.8840  224.9010 N   0  0  0  0  0  0  0  0  0  0  0  0
  138.9900   73.6170  222.9320 H   0  0  0  0  0  0  0  0  0  0  0  0
  140.4728   73.3556  220.3339 H   0  0  0  0  0  0  0  0  0  0  0  0
  138.9568   74.4161  220.6219 H   0  0  0  0  0  0  0  0  0  0  0  0
  140.4272   77.7766  219.3639 H   0  0  0  0  0  0  0  0  0  0  0  0
  141.3481   77.9778  220.8407 H   0  0  0  0  0  0  0  0  0  0  0  0
  143.1813   78.6420  219.4225 H   0  0  0  0  0  0  0  0  0  0  0  0
  142.8430   78.7400  217.2780 H   0  0  0  0  0  0  0  0  0  0  0  0
  144.0387   76.4723  218.0863 H   0  0  0  0  0  0  0  0  0  0  0  0
  144.0927   76.3907  219.8176 H   0  0  0  0  0  0  0  0  0  0  0  0
  141.7895   75.3950  217.9329 H   0  0  0  0  0  0  0  0  0  0  0  0
  142.0506   73.6775  219.9006 H   0  0  0  0  0  0  0  0  0  0  0  0
  142.6131   73.6338  218.1359 H   0  0  0  0  0  0  0  0  0  0  0  0
  144.1596   71.9526  218.8878 H   0  0  0  0  0  0  0  0  0  0  0  0
  145.1116   73.0846  217.9330 H   0  0  0  0  0  0  0  0  0  0  0  0
  146.2702   71.5875  219.9324 H   0  0  0  0  0  0  0  0  0  0  0  0
  146.8614   73.2014  219.6486 H   0  0  0  0  0  0  0  0  0  0  0  0
  144.7894   72.2214  221.6928 H   0  0  0  0  0  0  0  0  0  0  0  0
  146.0989   73.3438  221.9880 H   0  0  0  0  0  0  0  0  0  0  0  0
  143.5360   74.2015  221.4977 H   0  0  0  0  0  0  0  0  0  0  0  0
  144.9054   75.1671  220.9452 H   0  0  0  0  0  0  0  0  0  0  0  0
  139.2282   70.0138  222.6373 H   0  0  0  0  0  0  0  0  0  0  0  0
  139.0008   68.1832  226.8890 H   0  0  0  0  0  0  0  0  0  0  0  0
  139.8759   68.9294  229.1299 H   0  0  0  0  0  0  0  0  0  0  0  0
  141.1415   71.0296  229.3191 H   0  0  0  0  0  0  0  0  0  0  0  0
  141.5877   72.4640  227.3213 H   0  0  0  0  0  0  0  0  0  0  0  0
  1  2  2  0
  2  3  1  0
  3  4  1  0
  4  5  1  0
  5  6  2  0
  5  7  1  0
  7  8  1  0
  8  9  1  0
  9 10  1  0
  9 11  1  0
 11 12  1  0
 12 13  1  0
 13 14  1  0
 14 15  1  0
 15 16  1  0
 16 17  1  0
 17 18  1  0
  2 19  1  0
 19 20  2  0
 20 21  1  0
 21 22  2  0
 22 23  1  0
 23 24  2  0
 24 25  1  0
 25 26  2  0
 26 27  1  0
 27 28  2  0
 12  7  1  0
 18 14  1  0
 28 19  1  0
 27 22  1  0
  3 29  1  0
  4 30  1  0
  4 31  1  0
  8 32  1  0
  8 33  1  0
  9 34  1  1
 10 35  1  0
 11 36  1  0
 11 37  1  0
 12 38  1  6
 13 39  1  0
 13 40  1  0
 15 41  1  0
 15 42  1  0
 16 43  1  0
 16 44  1  0
 17 45  1  0
 17 46  1  0
 18 47  1  0
 18 48  1  0
 20 49  1  0
 23 50  1  0
 24 51  1  0
 25 52  1  0
 26 53  1  0
M  END
>  <smiles>  (10) 
O=C(NCC(=O)N1C[C@H](O)C[C@H]1CN1CCCC1)c1cnc2ccccc2n1

>  <score_type>  (10) 
oracle

>  <origin>  (10) 
autodockgpu

>  <m_score__min__energy>  (10) 
-8.4800000000000004

>  <m_primary>  (10) 
energy

>  <rmsd>  (10) 
4.417257481181612

>  <m_score__min__rmsd>  (10) 
4.417257481181612

>  <meeko>  (10) 
{"free_energy": -7.35, "intermolecular_energy": -9.44, "internal_energy": -1.47, "cluster_size": 1, "cluster_id": 6, "rank_in_cluster": 1}

>  <energy>  (10) 
-8.02

>  <cluster_rmsd>  (10) 
1.11

>  <cluster>  (10) 
1

$$$$

     RDKit          3D

 53 56  0  0  0  0  0  0  0  0999 V2000
  140.7500   72.3630  221.0880 O   0  0  0  0  0  0  0  0  0  0  0  0
  140.1780   72.7180  222.1610 C   0  0  0  0  0  0  0  0  0  0  0  0
  139.6140   74.0750  222.1990 N   0  0  0  0  0  0  0  0  0  0  0  0
  139.7830   74.8240  221.0150 C   0  0  0  0  0  0  0  0  0  0  0  0
  141.0450   75.4590  220.7640 C   0  0  0  0  0  0  0  0  0  0  0  0
  142.0030   74.9950  221.5410 O   0  0  0  0  0  0  0  0  0  0  0  0
  141.4850   76.4620  219.8750 N   0  0  0  0  0  0  0  0  0  0  0  0
  142.2060   76.1580  218.6330 C   0  0  0  0  0  0  0  0  0  0  0  0
  142.0560   77.4420  217.8170 C   0  0  2  0  0  0  0  0  0  0  0  0
  143.2810   78.0900  217.7350 O   0  0  0  0  0  0  0  0  0  0  0  0
  141.0050   78.2550  218.5780 C   0  0  0  0  0  0  0  0  0  0  0  0
  141.3710   77.9030  220.0160 C   0  0  1  0  0  0  0  0  0  0  0  0
  140.3970   78.3170  221.0130 C   0  0  0  0  0  0  0  0  0  0  0  0
  140.8760   79.1460  222.0770 N   0  0  0  0  0  0  0  0  0  0  0  0
  142.1250   79.7590  221.9470 C   0  0  0  0  0  0  0  0  0  0  0  0
  142.5170   80.1380  223.3800 C   0  0  0  0  0  0  0  0  0  0  0  0
  141.8340   79.0560  224.1800 C   0  0  0  0  0  0  0  0  0  0  0  0
  140.5610   78.8120  223.3980 C   0  0  0  0  0  0  0  0  0  0  0  0
  140.0630   71.8480  223.3230 C   0  0  0  0  0  0  0  0  0  0  0  0
  139.3210   70.6950  223.1670 C   0  0  0  0  0  0  0  0  0  0  0  0
  139.1440   69.8120  224.1800 N   0  0  0  0  0  0  0  0  0  0  0  0
  139.6980   70.0510  225.3740 C   0  0  0  0  0  0  0  0  0  0  0  0
  139.5060   69.1420  226.3920 C   0  0  0  0  0  0  0  0  0  0  0  0
  140.0970   69.4230  227.6270 C   0  0  0  0  0  0  0  0  0  0  0  0
  140.8390   70.5720  227.7920 C   0  0  0  0  0  0  0  0  0  0  0  0
  141.0290   71.4880  226.7540 C   0  0  0  0  0  0  0  0  0  0  0  0
  140.4360   71.2050  225.5180 C   0  0  0  0  0  0  0  0  0  0  0  0
  140.6140   72.0870  224.5060 N   0  0  0  0  0  0  0  0  0  0  0  0
  139.1570   74.2810  223.0880 H   0  0  0  0  0  0  0  0  0  0  0  0
  139.5930   74.1420  220.1731 H   0  0  0  0  0  0  0  0  0  0  0  0
  139.0852   75.6658  221.1354 H   0  0  0  0  0  0  0  0  0  0  0  0
  143.2652   75.9409  218.8351 H   0  0  0  0  0  0  0  0  0  0  0  0
  141.8154   75.2700  218.1145 H   0  0  0  0  0  0  0  0  0  0  0  0
  141.7411   77.2731  216.7767 H   0  0  0  0  0  0  0  0  0  0  0  0
  143.3630   78.6780  216.9710 H   0  0  0  0  0  0  0  0  0  0  0  0
  141.1072   79.3331  218.3850 H   0  0  0  0  0  0  0  0  0  0  0  0
  139.9639   78.0320  218.3017 H   0  0  0  0  0  0  0  0  0  0  0  0
  142.2661   78.4161  220.3975 H   0  0  0  0  0  0  0  0  0  0  0  0
  139.6019   78.8704  220.4919 H   0  0  0  0  0  0  0  0  0  0  0  0
  140.0683   77.3863  221.4985 H   0  0  0  0  0  0  0  0  0  0  0  0
  142.8576   79.0613  221.5150 H   0  0  0  0  0  0  0  0  0  0  0  0
  142.0956   80.6307  221.2767 H   0  0  0  0  0  0  0  0  0  0  0  0
  143.6080   80.1106  223.5179 H   0  0  0  0  0  0  0  0  0  0  0  0
  142.2245   81.1585  223.6680 H   0  0  0  0  0  0  0  0  0  0  0  0
  142.4517   78.1469  224.2248 H   0  0  0  0  0  0  0  0  0  0  0  0
  141.6536   79.3379  225.2278 H   0  0  0  0  0  0  0  0  0  0  0  0
  140.2608   77.7561  223.4684 H   0  0  0  0  0  0  0  0  0  0  0  0
  139.7195   79.4059  223.7841 H   0  0  0  0  0  0  0  0  0  0  0  0
  138.8591   70.4862  222.1908 H   0  0  0  0  0  0  0  0  0  0  0  0
  138.9103   68.2301  226.2384 H   0  0  0  0  0  0  0  0  0  0  0  0
  139.9695   68.7259  228.4683 H   0  0  0  0  0  0  0  0  0  0  0  0
  141.2963   70.7747  228.7717 H   0  0  0  0  0  0  0  0  0  0  0  0
  141.6245   72.4007  226.9031 H   0  0  0  0  0  0  0  0  0  0  0  0
  1  2  2  0
  2  3  1  0
  3  4  1  0
  4  5  1  0
  5  6  2  0
  5  7  1  0
  7  8  1  0
  8  9  1  0
  9 10  1  0
  9 11  1  0
 11 12  1  0
 12 13  1  0
 13 14  1  0
 14 15  1  0
 15 16  1  0
 16 17  1  0
 17 18  1  0
  2 19  1  0
 19 20  2  0
 20 21  1  0
 21 22  2  0
 22 23  1  0
 23 24  2  0
 24 25  1  0
 25 26  2  0
 26 27  1  0
 27 28  2  0
 12  7  1  0
 18 14  1  0
 28 19  1  0
 27 22  1  0
  3 29  1  0
  4 30  1  0
  4 31  1  0
  8 32  1  0
  8 33  1  0
  9 34  1  6
 10 35  1  0
 11 36  1  0
 11 37  1  0
 12 38  1  1
 13 39  1  0
 13 40  1  0
 15 41  1  0
 15 42  1  0
 16 43  1  0
 16 44  1  0
 17 45  1  0
 17 46  1  0
 18 47  1  0
 18 48  1  0
 20 49  1  0
 23 50  1  0
 24 51  1  0
 25 52  1  0
 26 53  1  0
M  END
>  <smiles>  (11) 
O=C(NCC(=O)N1C[C@H](O)C[C@H]1CN1CCCC1)c1cnc2ccccc2n1

>  <score_type>  (11) 
oracle

>  <origin>  (11) 
autodockgpu

>  <m_score__min__energy>  (11) 
-8.4800000000000004

>  <m_primary>  (11) 
energy

>  <rmsd>  (11) 
2.4143041420401885

>  <m_score__min__rmsd>  (11) 
2.4143041420401885

>  <meeko>  (11) 
{"free_energy": -7.36, "intermolecular_energy": -9.45, "internal_energy": -1.26, "cluster_size": 24, "cluster_id": 1, "rank_in_cluster": 22}

>  <energy>  (11) 
-8.0

>  <cluster_rmsd>  (11) 
1.14

>  <cluster>  (11) 
1

$$$$

     RDKit          3D

 53 56  0  0  0  0  0  0  0  0999 V2000
  141.3250   72.6220  221.8480 O   0  0  0  0  0  0  0  0  0  0  0  0
  140.3220   72.5780  222.6200 C   0  0  0  0  0  0  0  0  0  0  0  0
  139.2270   73.5180  222.3450 N   0  0  0  0  0  0  0  0  0  0  0  0
  139.4330   74.3660  221.2360 C   0  0  0  0  0  0  0  0  0  0  0  0
  140.4550   75.3700  221.3050 C   0  0  0  0  0  0  0  0  0  0  0  0
  140.6120   75.8430  222.5250 O   0  0  0  0  0  0  0  0  0  0  0  0
  141.3230   75.9590  220.3620 N   0  0  0  0  0  0  0  0  0  0  0  0
  142.1850   75.1660  219.4760 C   0  0  0  0  0  0  0  0  0  0  0  0
  142.5580   76.1560  218.3720 C   0  0  2  0  0  0  0  0  0  0  0  0
  143.8990   76.4960  218.4820 O   0  0  0  0  0  0  0  0  0  0  0  0
  141.6240   77.3480  218.5990 C   0  0  0  0  0  0  0  0  0  0  0  0
  141.5690   77.3700  220.1230 C   0  0  1  0  0  0  0  0  0  0  0  0
  140.5510   78.2440  220.6840 C   0  0  0  0  0  0  0  0  0  0  0  0
  140.9520   79.0860  221.7700 N   0  0  0  0  0  0  0  0  0  0  0  0
  142.1750   79.7570  221.6890 C   0  0  0  0  0  0  0  0  0  0  0  0
  142.4960   80.1430  223.1380 C   0  0  0  0  0  0  0  0  0  0  0  0
  141.8350   79.0250  223.9060 C   0  0  0  0  0  0  0  0  0  0  0  0
  140.6050   78.7270  223.0760 C   0  0  0  0  0  0  0  0  0  0  0  0
  140.2230   71.6490  223.7380 C   0  0  0  0  0  0  0  0  0  0  0  0
  139.5920   70.4470  223.4940 C   0  0  0  0  0  0  0  0  0  0  0  0
  139.4390   69.5060  224.4590 N   0  0  0  0  0  0  0  0  0  0  0  0
  139.9090   69.7370  225.6910 C   0  0  0  0  0  0  0  0  0  0  0  0
  139.7440   68.7700  226.6590 C   0  0  0  0  0  0  0  0  0  0  0  0
  140.2450   69.0440  227.9350 C   0  0  0  0  0  0  0  0  0  0  0  0
  140.8760   70.2410  228.1870 C   0  0  0  0  0  0  0  0  0  0  0  0
  141.0400   71.2170  227.1990 C   0  0  0  0  0  0  0  0  0  0  0  0
  140.5370   70.9410  225.9220 C   0  0  0  0  0  0  0  0  0  0  0  0
  140.6900   71.8790  224.9580 N   0  0  0  0  0  0  0  0  0  0  0  0
  138.4490   73.4110  222.9980 H   0  0  0  0  0  0  0  0  0  0  0  0
  139.6732   73.7209  220.3780 H   0  0  0  0  0  0  0  0  0  0  0  0
  138.5001   74.9453  221.1718 H   0  0  0  0  0  0  0  0  0  0  0  0
  143.0806   74.8139  220.0089 H   0  0  0  0  0  0  0  0  0  0  0  0
  141.6926   74.2596  219.0938 H   0  0  0  0  0  0  0  0  0  0  0  0
  142.4377   75.7534  217.3554 H   0  0  0  0  0  0  0  0  0  0  0  0
  144.4780   76.0050  217.8820 H   0  0  0  0  0  0  0  0  0  0  0  0
  142.0476   78.2790  218.1942 H   0  0  0  0  0  0  0  0  0  0  0  0
  140.6444   77.2639  218.1056 H   0  0  0  0  0  0  0  0  0  0  0  0
  142.4660   77.7846  220.6062 H   0  0  0  0  0  0  0  0  0  0  0  0
  140.1878   78.8946  219.8748 H   0  0  0  0  0  0  0  0  0  0  0  0
  139.7927   77.5689  221.1073 H   0  0  0  0  0  0  0  0  0  0  0  0
  142.9545   79.0972  221.2803 H   0  0  0  0  0  0  0  0  0  0  0  0
  142.1299   80.6311  221.0228 H   0  0  0  0  0  0  0  0  0  0  0  0
  143.5813   80.1649  223.3161 H   0  0  0  0  0  0  0  0  0  0  0  0
  142.1460   81.1468  223.4207 H   0  0  0  0  0  0  0  0  0  0  0  0
  142.4925   78.1454  223.9693 H   0  0  0  0  0  0  0  0  0  0  0  0
  141.6025   79.2913  224.9477 H   0  0  0  0  0  0  0  0  0  0  0  0
  140.3532   77.6575  223.1287 H   0  0  0  0  0  0  0  0  0  0  0  0
  139.7224   79.2771  223.4343 H   0  0  0  0  0  0  0  0  0  0  0  0
  139.2008   70.2453  222.4859 H   0  0  0  0  0  0  0  0  0  0  0  0
  139.2376   67.8192  226.4362 H   0  0  0  0  0  0  0  0  0  0  0  0
  140.1347   68.3016  228.7392 H   0  0  0  0  0  0  0  0  0  0  0  0
  141.2637   70.4361  229.1978 H   0  0  0  0  0  0  0  0  0  0  0  0
  141.5466   72.1686  227.4177 H   0  0  0  0  0  0  0  0  0  0  0  0
  1  2  2  0
  2  3  1  0
  3  4  1  0
  4  5  1  0
  5  6  2  0
  5  7  1  0
  7  8  1  0
  8  9  1  0
  9 10  1  0
  9 11  1  0
 11 12  1  0
 12 13  1  0
 13 14  1  0
 14 15  1  0
 15 16  1  0
 16 17  1  0
 17 18  1  0
  2 19  1  0
 19 20  2  0
 20 21  1  0
 21 22  2  0
 22 23  1  0
 23 24  2  0
 24 25  1  0
 25 26  2  0
 26 27  1  0
 27 28  2  0
 12  7  1  0
 18 14  1  0
 28 19  1  0
 27 22  1  0
  3 29  1  0
  4 30  1  0
  4 31  1  0
  8 32  1  0
  8 33  1  0
  9 34  1  6
 10 35  1  0
 11 36  1  0
 11 37  1  0
 12 38  1  1
 13 39  1  0
 13 40  1  0
 15 41  1  0
 15 42  1  0
 16 43  1  0
 16 44  1  0
 17 45  1  0
 17 46  1  0
 18 47  1  0
 18 48  1  0
 20 49  1  0
 23 50  1  0
 24 51  1  0
 25 52  1  0
 26 53  1  0
M  END
>  <smiles>  (12) 
O=C(NCC(=O)N1C[C@H](O)C[C@H]1CN1CCCC1)c1cnc2ccccc2n1

>  <score_type>  (12) 
oracle

>  <origin>  (12) 
autodockgpu

>  <m_score__min__energy>  (12) 
-8.4800000000000004

>  <m_primary>  (12) 
energy

>  <rmsd>  (12) 
2.3040162350808036

>  <m_score__min__rmsd>  (12) 
2.3040162350808036

>  <meeko>  (12) 
{"free_energy": -7.92, "intermolecular_energy": -10.01, "internal_energy": -1.29, "cluster_size": 24, "cluster_id": 1, "rank_in_cluster": 13}

>  <energy>  (12) 
-8.0

>  <cluster_rmsd>  (12) 
1.16

>  <cluster>  (12) 
1

$$$$

     RDKit          3D

 53 56  0  0  0  0  0  0  0  0999 V2000
  141.3190   71.9840  221.5910 O   0  0  0  0  0  0  0  0  0  0  0  0
  140.5040   72.3020  222.5060 C   0  0  0  0  0  0  0  0  0  0  0  0
  139.7480   73.5490  222.3210 N   0  0  0  0  0  0  0  0  0  0  0  0
  140.0290   74.2460  221.1270 C   0  0  0  0  0  0  0  0  0  0  0  0
  140.8060   75.4510  221.1880 C   0  0  0  0  0  0  0  0  0  0  0  0
  140.9290   75.9070  222.4190 O   0  0  0  0  0  0  0  0  0  0  0  0
  141.4620   76.2510  220.2300 N   0  0  0  0  0  0  0  0  0  0  0  0
  142.2820   75.6810  219.1520 C   0  0  0  0  0  0  0  0  0  0  0  0
  142.3820   76.8270  218.1450 C   0  0  2  0  0  0  0  0  0  0  0  0
  143.6760   77.3280  218.1340 O   0  0  0  0  0  0  0  0  0  0  0  0
  141.3550   77.8520  218.6320 C   0  0  0  0  0  0  0  0  0  0  0  0
  141.5060   77.6990  220.1430 C   0  0  1  0  0  0  0  0  0  0  0  0
  140.4780   78.3630  220.9300 C   0  0  0  0  0  0  0  0  0  0  0  0
  140.9280   79.2020  221.9980 N   0  0  0  0  0  0  0  0  0  0  0  0
  142.1860   79.8020  221.9040 C   0  0  0  0  0  0  0  0  0  0  0  0
  142.5300   80.1990  223.3450 C   0  0  0  0  0  0  0  0  0  0  0  0
  141.8090   79.1340  224.1350 C   0  0  0  0  0  0  0  0  0  0  0  0
  140.5620   78.8890  223.3110 C   0  0  0  0  0  0  0  0  0  0  0  0
  140.2970   71.4930  223.7000 C   0  0  0  0  0  0  0  0  0  0  0  0
  139.6900   70.2670  223.5230 C   0  0  0  0  0  0  0  0  0  0  0  0
  139.4440   69.4310  224.5610 N   0  0  0  0  0  0  0  0  0  0  0  0
  139.7950   69.7910  225.8010 C   0  0  0  0  0  0  0  0  0  0  0  0
  139.5360   68.9280  226.8440 C   0  0  0  0  0  0  0  0  0  0  0  0
  139.9130   69.3360  228.1270 C   0  0  0  0  0  0  0  0  0  0  0  0
  140.5200   70.5580  228.3120 C   0  0  0  0  0  0  0  0  0  0  0  0
  140.7790   71.4280  227.2480 C   0  0  0  0  0  0  0  0  0  0  0  0
  140.4000   71.0180  225.9650 C   0  0  0  0  0  0  0  0  0  0  0  0
  140.6460   71.8520  224.9280 N   0  0  0  0  0  0  0  0  0  0  0  0
  139.1010   73.7290  223.0900 H   0  0  0  0  0  0  0  0  0  0  0  0
  140.5667   73.5495  220.4668 H   0  0  0  0  0  0  0  0  0  0  0  0
  139.0413   74.5877  220.7839 H   0  0  0  0  0  0  0  0  0  0  0  0
  143.2770   75.3941  219.5230 H   0  0  0  0  0  0  0  0  0  0  0  0
  141.8515   74.7649  218.7213 H   0  0  0  0  0  0  0  0  0  0  0  0
  142.1721   76.5261  217.1080 H   0  0  0  0  0  0  0  0  0  0  0  0
  144.0220   77.5390  219.0120 H   0  0  0  0  0  0  0  0  0  0  0  0
  141.6075   78.8697  218.2994 H   0  0  0  0  0  0  0  0  0  0  0  0
  140.3340   77.6935  218.2545 H   0  0  0  0  0  0  0  0  0  0  0  0
  142.4055   78.1738  220.5619 H   0  0  0  0  0  0  0  0  0  0  0  0
  139.8838   78.9855  220.2448 H   0  0  0  0  0  0  0  0  0  0  0  0
  139.9172   77.5514  221.4166 H   0  0  0  0  0  0  0  0  0  0  0  0
  142.9271   79.0917  221.5088 H   0  0  0  0  0  0  0  0  0  0  0  0
  142.1887   80.6638  221.2204 H   0  0  0  0  0  0  0  0  0  0  0  0
  143.6150   80.1646  223.5224 H   0  0  0  0  0  0  0  0  0  0  0  0
  142.2366   81.2261  223.6078 H   0  0  0  0  0  0  0  0  0  0  0  0
  142.4167   78.2206  224.2147 H   0  0  0  0  0  0  0  0  0  0  0  0
  141.5935   79.4325  225.1716 H   0  0  0  0  0  0  0  0  0  0  0  0
  140.2504   77.8367  223.3850 H   0  0  0  0  0  0  0  0  0  0  0  0
  139.7119   79.4946  223.6583 H   0  0  0  0  0  0  0  0  0  0  0  0
  139.3968   69.9585  222.5087 H   0  0  0  0  0  0  0  0  0  0  0  0
  139.0512   67.9554  226.6735 H   0  0  0  0  0  0  0  0  0  0  0  0
  139.7245   68.6800  228.9896 H   0  0  0  0  0  0  0  0  0  0  0  0
  140.8105   70.8596  229.3292 H   0  0  0  0  0  0  0  0  0  0  0  0
  141.2640   72.4012  227.4141 H   0  0  0  0  0  0  0  0  0  0  0  0
  1  2  2  0
  2  3  1  0
  3  4  1  0
  4  5  1  0
  5  6  2  0
  5  7  1  0
  7  8  1  0
  8  9  1  0
  9 10  1  0
  9 11  1  0
 11 12  1  0
 12 13  1  0
 13 14  1  0
 14 15  1  0
 15 16  1  0
 16 17  1  0
 17 18  1  0
  2 19  1  0
 19 20  2  0
 20 21  1  0
 21 22  2  0
 22 23  1  0
 23 24  2  0
 24 25  1  0
 25 26  2  0
 26 27  1  0
 27 28  2  0
 12  7  1  0
 18 14  1  0
 28 19  1  0
 27 22  1  0
  3 29  1  0
  4 30  1  0
  4 31  1  0
  8 32  1  0
  8 33  1  0
  9 34  1  6
 10 35  1  0
 11 36  1  0
 11 37  1  0
 12 38  1  1
 13 39  1  0
 13 40  1  0
 15 41  1  0
 15 42  1  0
 16 43  1  0
 16 44  1  0
 17 45  1  0
 17 46  1  0
 18 47  1  0
 18 48  1  0
 20 49  1  0
 23 50  1  0
 24 51  1  0
 25 52  1  0
 26 53  1  0
M  END
>  <smiles>  (13) 
O=C(NCC(=O)N1C[C@H](O)C[C@H]1CN1CCCC1)c1cnc2ccccc2n1

>  <score_type>  (13) 
oracle

>  <origin>  (13) 
autodockgpu

>  <m_score__min__energy>  (13) 
-8.4800000000000004

>  <m_primary>  (13) 
energy

>  <rmsd>  (13) 
2.3678903808788605

>  <m_score__min__rmsd>  (13) 
2.3678903808788605

>  <meeko>  (13) 
{"free_energy": -7.82, "intermolecular_energy": -9.91, "internal_energy": -1.31, "cluster_size": 24, "cluster_id": 1, "rank_in_cluster": 18}

>  <energy>  (13) 
-7.92

>  <cluster_rmsd>  (13) 
0.77

>  <cluster>  (13) 
1

$$$$

     RDKit          3D

 53 56  0  0  0  0  0  0  0  0999 V2000
  139.0260   74.9890  221.8310 O   0  0  0  0  0  0  0  0  0  0  0  0
  140.1520   75.5520  221.9640 C   0  0  0  0  0  0  0  0  0  0  0  0
  141.3450   74.7090  221.7920 N   0  0  0  0  0  0  0  0  0  0  0  0
  141.0800   73.3560  221.4940 C   0  0  0  0  0  0  0  0  0  0  0  0
  142.0540   72.5980  220.7620 C   0  0  0  0  0  0  0  0  0  0  0  0
  141.8520   71.2990  220.8560 O   0  0  0  0  0  0  0  0  0  0  0  0
  143.1710   72.9340  219.9700 N   0  0  0  0  0  0  0  0  0  0  0  0
  144.4120   72.1460  219.9790 C   0  0  0  0  0  0  0  0  0  0  0  0
  145.1100   72.5800  218.6890 C   0  0  2  0  0  0  0  0  0  0  0  0
  146.2270   73.3440  218.9970 O   0  0  0  0  0  0  0  0  0  0  0  0
  144.0440   73.3710  217.9270 C   0  0  0  0  0  0  0  0  0  0  0  0
  143.3380   74.0710  219.0840 C   0  0  1  0  0  0  0  0  0  0  0  0
  142.0880   74.7250  218.7310 C   0  0  0  0  0  0  0  0  0  0  0  0
  142.1150   76.1520  218.6240 N   0  0  0  0  0  0  0  0  0  0  0  0
  142.7590   76.8930  219.6180 C   0  0  0  0  0  0  0  0  0  0  0  0
  142.2000   78.3120  219.4610 C   0  0  0  0  0  0  0  0  0  0  0  0
  140.8130   78.0370  218.9350 C   0  0  0  0  0  0  0  0  0  0  0  0
  141.0180   76.8150  218.0650 C   0  0  0  0  0  0  0  0  0  0  0  0
  140.2990   76.9690  222.2710 C   0  0  0  0  0  0  0  0  0  0  0  0
  139.1480   77.7290  222.2670 C   0  0  0  0  0  0  0  0  0  0  0  0
  139.1640   79.0580  222.5360 N   0  0  0  0  0  0  0  0  0  0  0  0
  140.3240   79.6650  222.8150 C   0  0  0  0  0  0  0  0  0  0  0  0
  140.3200   81.0170  223.0850 C   0  0  0  0  0  0  0  0  0  0  0  0
  141.5480   81.6200  223.3710 C   0  0  0  0  0  0  0  0  0  0  0  0
  142.7020   80.8690  223.3770 C   0  0  0  0  0  0  0  0  0  0  0  0
  142.6960   79.4970  223.1020 C   0  0  0  0  0  0  0  0  0  0  0  0
  141.4660   78.8950  222.8160 C   0  0  0  0  0  0  0  0  0  0  0  0
  141.4490   77.5680  222.5480 N   0  0  0  0  0  0  0  0  0  0  0  0
  142.2120   75.2370  221.8980 H   0  0  0  0  0  0  0  0  0  0  0  0
  140.9251   72.8398  222.4529 H   0  0  0  0  0  0  0  0  0  0  0  0
  140.2173   73.4015  220.8131 H   0  0  0  0  0  0  0  0  0  0  0  0
  145.0256   72.3863  220.8597 H   0  0  0  0  0  0  0  0  0  0  0  0
  144.2345   71.0616  220.0300 H   0  0  0  0  0  0  0  0  0  0  0  0
  145.4823   71.7417  218.0819 H   0  0  0  0  0  0  0  0  0  0  0  0
  146.0460   74.2920  219.0690 H   0  0  0  0  0  0  0  0  0  0  0  0
  144.4947   74.0927  217.2298 H   0  0  0  0  0  0  0  0  0  0  0  0
  143.3867   72.7599  217.2910 H   0  0  0  0  0  0  0  0  0  0  0  0
  143.8893   74.9248  219.5047 H   0  0  0  0  0  0  0  0  0  0  0  0
  141.7656   74.3242  217.7587 H   0  0  0  0  0  0  0  0  0  0  0  0
  141.4050   74.5115  219.5664 H   0  0  0  0  0  0  0  0  0  0  0  0
  142.5259   76.4913  220.6151 H   0  0  0  0  0  0  0  0  0  0  0  0
  143.8542   76.8614  219.5202 H   0  0  0  0  0  0  0  0  0  0  0  0
  142.1659   78.8387  220.4261 H   0  0  0  0  0  0  0  0  0  0  0  0
  142.8043   78.9608  218.8100 H   0  0  0  0  0  0  0  0  0  0  0  0
  140.1129   77.8251  219.7565 H   0  0  0  0  0  0  0  0  0  0  0  0
  140.3772   78.8888  218.3923 H   0  0  0  0  0  0  0  0  0  0  0  0
  140.1260   76.1717  218.0857 H   0  0  0  0  0  0  0  0  0  0  0  0
  141.1897   77.0820  217.0118 H   0  0  0  0  0  0  0  0  0  0  0  0
  138.1882   77.2424  222.0387 H   0  0  0  0  0  0  0  0  0  0  0  0
  139.3864   81.5986  223.0757 H   0  0  0  0  0  0  0  0  0  0  0  0
  141.5926   82.6967  223.5917 H   0  0  0  0  0  0  0  0  0  0  0  0
  143.6581   81.3628  223.6050 H   0  0  0  0  0  0  0  0  0  0  0  0
  143.6272   78.9115  223.1104 H   0  0  0  0  0  0  0  0  0  0  0  0
  1  2  2  0
  2  3  1  0
  3  4  1  0
  4  5  1  0
  5  6  2  0
  5  7  1  0
  7  8  1  0
  8  9  1  0
  9 10  1  0
  9 11  1  0
 11 12  1  0
 12 13  1  0
 13 14  1  0
 14 15  1  0
 15 16  1  0
 16 17  1  0
 17 18  1  0
  2 19  1  0
 19 20  2  0
 20 21  1  0
 21 22  2  0
 22 23  1  0
 23 24  2  0
 24 25  1  0
 25 26  2  0
 26 27  1  0
 27 28  2  0
 12  7  1  0
 18 14  1  0
 28 19  1  0
 27 22  1  0
  3 29  1  0
  4 30  1  0
  4 31  1  0
  8 32  1  0
  8 33  1  0
  9 34  1  6
 10 35  1  0
 11 36  1  0
 11 37  1  0
 12 38  1  1
 13 39  1  0
 13 40  1  0
 15 41  1  0
 15 42  1  0
 16 43  1  0
 16 44  1  0
 17 45  1  0
 17 46  1  0
 18 47  1  0
 18 48  1  0
 20 49  1  0
 23 50  1  0
 24 51  1  0
 25 52  1  0
 26 53  1  0
M  END
>  <smiles>  (14) 
O=C(NCC(=O)N1C[C@H](O)C[C@H]1CN1CCCC1)c1cnc2ccccc2n1

>  <score_type>  (14) 
oracle

>  <origin>  (14) 
autodockgpu

>  <m_score__min__energy>  (14) 
-8.4800000000000004

>  <m_primary>  (14) 
energy

>  <rmsd>  (14) 
6.976671909004969

>  <m_score__min__rmsd>  (14) 
6.976671909004969

>  <meeko>  (14) 
{"free_energy": -6.34, "intermolecular_energy": -8.43, "internal_energy": -2.42, "cluster_size": 12, "cluster_id": 8, "rank_in_cluster": 11}

>  <energy>  (14) 
-7.92

>  <cluster_rmsd>  (14) 
1.0

>  <cluster>  (14) 
1

$$$$

     RDKit          3D

 53 56  0  0  0  0  0  0  0  0999 V2000
  141.3340   72.6330  221.7120 O   0  0  0  0  0  0  0  0  0  0  0  0
  140.3690   72.6540  222.5310 C   0  0  0  0  0  0  0  0  0  0  0  0
  139.3550   73.7020  222.3400 N   0  0  0  0  0  0  0  0  0  0  0  0
  139.5890   74.5670  221.2500 C   0  0  0  0  0  0  0  0  0  0  0  0
  140.4830   75.6760  221.4180 C   0  0  0  0  0  0  0  0  0  0  0  0
  140.7470   75.9200  222.6860 O   0  0  0  0  0  0  0  0  0  0  0  0
  141.1380   76.5580  220.5330 N   0  0  0  0  0  0  0  0  0  0  0  0
  141.8880   76.0890  219.3600 C   0  0  0  0  0  0  0  0  0  0  0  0
  142.0010   77.3430  218.4930 C   0  0  2  0  0  0  0  0  0  0  0  0
  143.3150   77.7890  218.4840 O   0  0  0  0  0  0  0  0  0  0  0  0
  141.0400   78.3430  219.1430 C   0  0  0  0  0  0  0  0  0  0  0  0
  141.2430   78.0030  220.6160 C   0  0  1  0  0  0  0  0  0  0  0  0
  140.2780   78.6080  221.5210 C   0  0  0  0  0  0  0  0  0  0  0  0
  140.8030   79.4420  222.5590 N   0  0  0  0  0  0  0  0  0  0  0  0
  140.8410   80.8250  222.3620 C   0  0  0  0  0  0  0  0  0  0  0  0
  141.8550   81.3310  223.3950 C   0  0  0  0  0  0  0  0  0  0  0  0
  142.7870   80.1500  223.5120 C   0  0  0  0  0  0  0  0  0  0  0  0
  141.8560   78.9680  223.3470 C   0  0  0  0  0  0  0  0  0  0  0  0
  140.2330   71.6980  223.6220 C   0  0  0  0  0  0  0  0  0  0  0  0
  139.5870   70.5140  223.3350 C   0  0  0  0  0  0  0  0  0  0  0  0
  139.4010   69.5510  224.2720 N   0  0  0  0  0  0  0  0  0  0  0  0
  139.8530   69.7420  225.5170 C   0  0  0  0  0  0  0  0  0  0  0  0
  139.6540   68.7530  226.4570 C   0  0  0  0  0  0  0  0  0  0  0  0
  140.1360   68.9840  227.7480 C   0  0  0  0  0  0  0  0  0  0  0  0
  140.7830   70.1630  228.0430 C   0  0  0  0  0  0  0  0  0  0  0  0
  140.9810   71.1610  227.0840 C   0  0  0  0  0  0  0  0  0  0  0  0
  140.4970   70.9280  225.7910 C   0  0  0  0  0  0  0  0  0  0  0  0
  140.6830   71.8880  224.8550 N   0  0  0  0  0  0  0  0  0  0  0  0
  138.6020   73.6440  223.0270 H   0  0  0  0  0  0  0  0  0  0  0  0
  139.9902   73.9516  220.4313 H   0  0  0  0  0  0  0  0  0  0  0  0
  138.6118   75.0416  221.0773 H   0  0  0  0  0  0  0  0  0  0  0  0
  142.8825   75.7190  219.6499 H   0  0  0  0  0  0  0  0  0  0  0  0
  141.3995   75.2499  218.8430 H   0  0  0  0  0  0  0  0  0  0  0  0
  141.7379   77.1780  217.4377 H   0  0  0  0  0  0  0  0  0  0  0  0
  143.7120   77.8540  219.3640 H   0  0  0  0  0  0  0  0  0  0  0  0
  141.3248   79.3824  218.9228 H   0  0  0  0  0  0  0  0  0  0  0  0
  139.9990   78.2724  218.7947 H   0  0  0  0  0  0  0  0  0  0  0  0
  142.1788   78.3875  221.0477 H   0  0  0  0  0  0  0  0  0  0  0  0
  139.5929   79.2204  220.9163 H   0  0  0  0  0  0  0  0  0  0  0  0
  139.8028   77.7638  222.0421 H   0  0  0  0  0  0  0  0  0  0  0  0
  141.1738   81.0635  221.3410 H   0  0  0  0  0  0  0  0  0  0  0  0
  139.8525   81.2924  222.4818 H   0  0  0  0  0  0  0  0  0  0  0  0
  142.3839   82.2250  223.0332 H   0  0  0  0  0  0  0  0  0  0  0  0
  141.4039   81.6404  224.3494 H   0  0  0  0  0  0  0  0  0  0  0  0
  143.5493   80.1672  222.7192 H   0  0  0  0  0  0  0  0  0  0  0  0
  143.3493   80.1319  224.4573 H   0  0  0  0  0  0  0  0  0  0  0  0
  142.3719   78.1373  222.8433 H   0  0  0  0  0  0  0  0  0  0  0  0
  141.5050   78.5811  224.3151 H   0  0  0  0  0  0  0  0  0  0  0  0
  139.2111   70.3453  222.3151 H   0  0  0  0  0  0  0  0  0  0  0  0
  139.1354   67.8175  226.2002 H   0  0  0  0  0  0  0  0  0  0  0  0
  139.9983   68.2227  228.5299 H   0  0  0  0  0  0  0  0  0  0  0  0
  141.1558   70.3248  229.0652 H   0  0  0  0  0  0  0  0  0  0  0  0
  141.4995   72.0976  227.3368 H   0  0  0  0  0  0  0  0  0  0  0  0
  1  2  2  0
  2  3  1  0
  3  4  1  0
  4  5  1  0
  5  6  2  0
  5  7  1  0
  7  8  1  0
  8  9  1  0
  9 10  1  0
  9 11  1  0
 11 12  1  0
 12 13  1  0
 13 14  1  0
 14 15  1  0
 15 16  1  0
 16 17  1  0
 17 18  1  0
  2 19  1  0
 19 20  2  0
 20 21  1  0
 21 22  2  0
 22 23  1  0
 23 24  2  0
 24 25  1  0
 25 26  2  0
 26 27  1  0
 27 28  2  0
 12  7  1  0
 18 14  1  0
 28 19  1  0
 27 22  1  0
  3 29  1  0
  4 30  1  0
  4 31  1  0
  8 32  1  0
  8 33  1  0
  9 34  1  6
 10 35  1  0
 11 36  1  0
 11 37  1  0
 12 38  1  1
 13 39  1  0
 13 40  1  0
 15 41  1  0
 15 42  1  0
 16 43  1  0
 16 44  1  0
 17 45  1  0
 17 46  1  0
 18 47  1  0
 18 48  1  0
 20 49  1  0
 23 50  1  0
 24 51  1  0
 25 52  1  0
 26 53  1  0
M  END
>  <smiles>  (15) 
O=C(NCC(=O)N1C[C@H](O)C[C@H]1CN1CCCC1)c1cnc2ccccc2n1

>  <score_type>  (15) 
oracle

>  <origin>  (15) 
autodockgpu

>  <m_score__min__energy>  (15) 
-8.4800000000000004

>  <m_primary>  (15) 
energy

>  <rmsd>  (15) 
2.2637120030468365

>  <m_score__min__rmsd>  (15) 
2.2637120030468365

>  <meeko>  (15) 
{"free_energy": -8.08, "intermolecular_energy": -10.17, "internal_energy": -1.24, "cluster_size": 24, "cluster_id": 1, "rank_in_cluster": 9}

>  <energy>  (15) 
-7.9

>  <cluster_rmsd>  (15) 
1.03

>  <cluster>  (15) 
1

$$$$

     RDKit          3D

 53 56  0  0  0  0  0  0  0  0999 V2000
  140.6800   71.2340  221.5030 O   0  0  0  0  0  0  0  0  0  0  0  0
  140.2900   71.6580  222.6310 C   0  0  0  0  0  0  0  0  0  0  0  0
  139.9550   73.0870  222.7270 N   0  0  0  0  0  0  0  0  0  0  0  0
  140.1120   73.8180  221.5300 C   0  0  0  0  0  0  0  0  0  0  0  0
  140.4100   75.2190  221.6010 C   0  0  0  0  0  0  0  0  0  0  0  0
  139.9370   75.7770  222.6980 O   0  0  0  0  0  0  0  0  0  0  0  0
  141.0930   76.1260  220.7640 N   0  0  0  0  0  0  0  0  0  0  0  0
  141.8700   75.6920  219.5960 C   0  0  0  0  0  0  0  0  0  0  0  0
  142.0140   76.9750  218.7750 C   0  0  2  0  0  0  0  0  0  0  0  0
  143.3310   77.4100  218.8160 O   0  0  0  0  0  0  0  0  0  0  0  0
  141.0430   77.9580  219.4350 C   0  0  0  0  0  0  0  0  0  0  0  0
  141.2060   77.5670  220.9000 C   0  0  1  0  0  0  0  0  0  0  0  0
  140.2210   78.1480  221.8000 C   0  0  0  0  0  0  0  0  0  0  0  0
  140.6990   79.1200  222.7350 N   0  0  0  0  0  0  0  0  0  0  0  0
  140.5750   80.4770  222.4230 C   0  0  0  0  0  0  0  0  0  0  0  0
  141.5740   81.1760  223.3530 C   0  0  0  0  0  0  0  0  0  0  0  0
  142.6350   80.1150  223.5150 C   0  0  0  0  0  0  0  0  0  0  0  0
  141.8330   78.8310  223.5010 C   0  0  0  0  0  0  0  0  0  0  0  0
  140.1640   70.8000  223.8010 C   0  0  0  0  0  0  0  0  0  0  0  0
  139.5200   69.5930  223.6210 C   0  0  0  0  0  0  0  0  0  0  0  0
  139.3430   68.7150  224.6390 N   0  0  0  0  0  0  0  0  0  0  0  0
  139.8020   69.0130  225.8600 C   0  0  0  0  0  0  0  0  0  0  0  0
  139.6120   68.1070  226.8820 C   0  0  0  0  0  0  0  0  0  0  0  0
  140.1020   68.4500  228.1460 C   0  0  0  0  0  0  0  0  0  0  0  0
  140.7470   69.6520  228.3340 C   0  0  0  0  0  0  0  0  0  0  0  0
  140.9360   70.5640  227.2910 C   0  0  0  0  0  0  0  0  0  0  0  0
  140.4440   70.2200  226.0260 C   0  0  0  0  0  0  0  0  0  0  0  0
  140.6210   71.0960  225.0100 N   0  0  0  0  0  0  0  0  0  0  0  0
  139.6350   73.3490  223.6600 H   0  0  0  0  0  0  0  0  0  0  0  0
  140.9299   73.3433  220.9682 H   0  0  0  0  0  0  0  0  0  0  0  0
  139.1133   73.7854  221.0701 H   0  0  0  0  0  0  0  0  0  0  0  0
  142.8541   75.3049  219.8987 H   0  0  0  0  0  0  0  0  0  0  0  0
  141.3897   74.8747  219.0381 H   0  0  0  0  0  0  0  0  0  0  0  0
  141.7777   76.8499  217.7080 H   0  0  0  0  0  0  0  0  0  0  0  0
  143.6770   77.5270  219.7120 H   0  0  0  0  0  0  0  0  0  0  0  0
  141.3393   79.0024  219.2579 H   0  0  0  0  0  0  0  0  0  0  0  0
  140.0108   77.9058  219.0584 H   0  0  0  0  0  0  0  0  0  0  0  0
  142.1327   77.9294  221.3688 H   0  0  0  0  0  0  0  0  0  0  0  0
  139.4492   78.6308  221.1826 H   0  0  0  0  0  0  0  0  0  0  0  0
  139.8603   77.3095  222.4138 H   0  0  0  0  0  0  0  0  0  0  0  0
  140.8317   80.6589  221.3690 H   0  0  0  0  0  0  0  0  0  0  0  0
  139.5476   80.8458  222.5587 H   0  0  0  0  0  0  0  0  0  0  0  0
  141.9840   82.0857  222.8900 H   0  0  0  0  0  0  0  0  0  0  0  0
  141.1362   81.5184  224.3023 H   0  0  0  0  0  0  0  0  0  0  0  0
  143.3528   80.1425  222.6820 H   0  0  0  0  0  0  0  0  0  0  0  0
  143.2395   80.2401  224.4255 H   0  0  0  0  0  0  0  0  0  0  0  0
  142.4134   78.0178  223.0407 H   0  0  0  0  0  0  0  0  0  0  0  0
  141.5715   78.4965  224.5158 H   0  0  0  0  0  0  0  0  0  0  0  0
  139.1388   69.3354  222.6218 H   0  0  0  0  0  0  0  0  0  0  0  0
  139.0950   67.1515  226.7097 H   0  0  0  0  0  0  0  0  0  0  0  0
  139.9720   67.7585  228.9915 H   0  0  0  0  0  0  0  0  0  0  0  0
  141.1254   69.9026  229.3360 H   0  0  0  0  0  0  0  0  0  0  0  0
  141.4539   71.5198  227.4587 H   0  0  0  0  0  0  0  0  0  0  0  0
  1  2  2  0
  2  3  1  0
  3  4  1  0
  4  5  1  0
  5  6  2  0
  5  7  1  0
  7  8  1  0
  8  9  1  0
  9 10  1  0
  9 11  1  0
 11 12  1  0
 12 13  1  0
 13 14  1  0
 14 15  1  0
 15 16  1  0
 16 17  1  0
 17 18  1  0
  2 19  1  0
 19 20  2  0
 20 21  1  0
 21 22  2  0
 22 23  1  0
 23 24  2  0
 24 25  1  0
 25 26  2  0
 26 27  1  0
 27 28  2  0
 12  7  1  0
 18 14  1  0
 28 19  1  0
 27 22  1  0
  3 29  1  0
  4 30  1  0
  4 31  1  0
  8 32  1  0
  8 33  1  0
  9 34  1  6
 10 35  1  0
 11 36  1  0
 11 37  1  0
 12 38  1  1
 13 39  1  0
 13 40  1  0
 15 41  1  0
 15 42  1  0
 16 43  1  0
 16 44  1  0
 17 45  1  0
 17 46  1  0
 18 47  1  0
 18 48  1  0
 20 49  1  0
 23 50  1  0
 24 51  1  0
 25 52  1  0
 26 53  1  0
M  END
>  <smiles>  (16) 
O=C(NCC(=O)N1C[C@H](O)C[C@H]1CN1CCCC1)c1cnc2ccccc2n1

>  <score_type>  (16) 
oracle

>  <origin>  (16) 
autodockgpu

>  <m_score__min__energy>  (16) 
-8.4800000000000004

>  <m_primary>  (16) 
energy

>  <rmsd>  (16) 
2.2262779975813225

>  <m_score__min__rmsd>  (16) 
2.2262779975813225

>  <meeko>  (16) 
{"free_energy": -8.16, "intermolecular_energy": -10.25, "internal_energy": -1.03, "cluster_size": 24, "cluster_id": 1, "rank_in_cluster": 7}

>  <energy>  (16) 
-7.86

>  <cluster_rmsd>  (16) 
0.84

>  <cluster>  (16) 
1

$$$$

     RDKit          3D

 53 56  0  0  0  0  0  0  0  0999 V2000
  139.7240   75.6960  222.6960 O   0  0  0  0  0  0  0  0  0  0  0  0
  140.7030   76.2800  222.1450 C   0  0  0  0  0  0  0  0  0  0  0  0
  141.6160   75.4460  221.3500 N   0  0  0  0  0  0  0  0  0  0  0  0
  141.2800   74.0760  221.3010 C   0  0  0  0  0  0  0  0  0  0  0  0
  142.1760   73.1600  220.6560 C   0  0  0  0  0  0  0  0  0  0  0  0
  141.6980   71.9330  220.6170 O   0  0  0  0  0  0  0  0  0  0  0  0
  143.4480   73.2820  220.0560 N   0  0  0  0  0  0  0  0  0  0  0  0
  144.6070   72.4920  220.4930 C   0  0  0  0  0  0  0  0  0  0  0  0
  145.5720   72.6050  219.3120 C   0  0  2  0  0  0  0  0  0  0  0  0
  146.6560   73.3950  219.6680 O   0  0  0  0  0  0  0  0  0  0  0  0
  144.7310   73.2220  218.1920 C   0  0  0  0  0  0  0  0  0  0  0  0
  143.8600   74.1830  218.9960 C   0  0  1  0  0  0  0  0  0  0  0  0
  142.7500   74.7640  218.2570 C   0  0  0  0  0  0  0  0  0  0  0  0
  142.2780   76.0400  218.7030 N   0  0  0  0  0  0  0  0  0  0  0  0
  141.0600   76.5180  218.2150 C   0  0  0  0  0  0  0  0  0  0  0  0
  141.1020   78.0260  218.4920 C   0  0  0  0  0  0  0  0  0  0  0  0
  142.5810   78.3120  218.3990 C   0  0  0  0  0  0  0  0  0  0  0  0
  143.2040   77.0540  218.9670 C   0  0  0  0  0  0  0  0  0  0  0  0
  140.9440   77.7120  222.2670 C   0  0  0  0  0  0  0  0  0  0  0  0
  141.4670   78.1550  223.4640 C   0  0  0  0  0  0  0  0  0  0  0  0
  141.7300   79.4660  223.6910 N   0  0  0  0  0  0  0  0  0  0  0  0
  141.4810   80.3680  222.7360 C   0  0  0  0  0  0  0  0  0  0  0  0
  141.7550   81.6960  222.9860 C   0  0  0  0  0  0  0  0  0  0  0  0
  141.4810   82.6130  221.9670 C   0  0  0  0  0  0  0  0  0  0  0  0
  140.9600   82.1790  220.7680 C   0  0  0  0  0  0  0  0  0  0  0  0
  140.6860   80.8300  220.5230 C   0  0  0  0  0  0  0  0  0  0  0  0
  140.9590   79.9130  221.5450 C   0  0  0  0  0  0  0  0  0  0  0  0
  140.6970   78.6050  221.3180 N   0  0  0  0  0  0  0  0  0  0  0  0
  142.3680   75.9890  220.9250 H   0  0  0  0  0  0  0  0  0  0  0  0
  141.1652   73.7355  222.3406 H   0  0  0  0  0  0  0  0  0  0  0  0
  140.3788   74.0492  220.6708 H   0  0  0  0  0  0  0  0  0  0  0  0
  145.0505   72.9145  221.4067 H   0  0  0  0  0  0  0  0  0  0  0  0
  144.3507   71.4518  220.7428 H   0  0  0  0  0  0  0  0  0  0  0  0
  145.9997   71.6428  218.9940 H   0  0  0  0  0  0  0  0  0  0  0  0
  146.5730   74.3200  219.3930 H   0  0  0  0  0  0  0  0  0  0  0  0
  145.3565   73.7554  217.4611 H   0  0  0  0  0  0  0  0  0  0  0  0
  144.1717   72.4950  217.5848 H   0  0  0  0  0  0  0  0  0  0  0  0
  144.3727   75.0994  219.3236 H   0  0  0  0  0  0  0  0  0  0  0  0
  143.0680   74.8738  217.2097 H   0  0  0  0  0  0  0  0  0  0  0  0
  141.9073   74.0741  218.4116 H   0  0  0  0  0  0  0  0  0  0  0  0
  140.9697   76.3230  217.1362 H   0  0  0  0  0  0  0  0  0  0  0  0
  140.1972   76.0287  218.6906 H   0  0  0  0  0  0  0  0  0  0  0  0
  140.5362   78.5888  217.7350 H   0  0  0  0  0  0  0  0  0  0  0  0
  140.6500   78.3169  219.4517 H   0  0  0  0  0  0  0  0  0  0  0  0
  142.8889   78.4697  217.3548 H   0  0  0  0  0  0  0  0  0  0  0  0
  142.8817   79.2255  218.9330 H   0  0  0  0  0  0  0  0  0  0  0  0
  144.1629   76.8402  218.4722 H   0  0  0  0  0  0  0  0  0  0  0  0
  143.4181   77.1482  220.0418 H   0  0  0  0  0  0  0  0  0  0  0  0
  141.6770   77.4233  224.2580 H   0  0  0  0  0  0  0  0  0  0  0  0
  142.1731   82.0213  223.9500 H   0  0  0  0  0  0  0  0  0  0  0  0
  141.6818   83.6832  222.1230 H   0  0  0  0  0  0  0  0  0  0  0  0
  140.7531   82.9167  219.9787 H   0  0  0  0  0  0  0  0  0  0  0  0
  140.2699   80.5003  219.5596 H   0  0  0  0  0  0  0  0  0  0  0  0
  1  2  2  0
  2  3  1  0
  3  4  1  0
  4  5  1  0
  5  6  2  0
  5  7  1  0
  7  8  1  0
  8  9  1  0
  9 10  1  0
  9 11  1  0
 11 12  1  0
 12 13  1  0
 13 14  1  0
 14 15  1  0
 15 16  1  0
 16 17  1  0
 17 18  1  0
  2 19  1  0
 19 20  2  0
 20 21  1  0
 21 22  2  0
 22 23  1  0
 23 24  2  0
 24 25  1  0
 25 26  2  0
 26 27  1  0
 27 28  2  0
 12  7  1  0
 18 14  1  0
 28 19  1  0
 27 22  1  0
  3 29  1  0
  4 30  1  0
  4 31  1  0
  8 32  1  0
  8 33  1  0
  9 34  1  6
 10 35  1  0
 11 36  1  0
 11 37  1  0
 12 38  1  1
 13 39  1  0
 13 40  1  0
 15 41  1  0
 15 42  1  0
 16 43  1  0
 16 44  1  0
 17 45  1  0
 17 46  1  0
 18 47  1  0
 18 48  1  0
 20 49  1  0
 23 50  1  0
 24 51  1  0
 25 52  1  0
 26 53  1  0
M  END
>  <smiles>  (17) 
O=C(NCC(=O)N1C[C@H](O)C[C@H]1CN1CCCC1)c1cnc2ccccc2n1

>  <score_type>  (17) 
oracle

>  <origin>  (17) 
autodockgpu

>  <m_score__min__energy>  (17) 
-8.4800000000000004

>  <m_primary>  (17) 
energy

>  <rmsd>  (17) 
7.843804781964027

>  <m_score__min__rmsd>  (17) 
7.843804781964027

>  <meeko>  (17) 
{"free_energy": -6.24, "intermolecular_energy": -8.33, "internal_energy": -2.55, "cluster_size": 12, "cluster_id": 8, "rank_in_cluster": 12}

>  <energy>  (17) 
-7.84

>  <cluster_rmsd>  (17) 
0.94

>  <cluster>  (17) 
1

$$$$

     RDKit          3D

 53 56  0  0  0  0  0  0  0  0999 V2000
  140.2460   73.1130  222.7030 O   0  0  0  0  0  0  0  0  0  0  0  0
  140.4550   71.8690  222.8080 C   0  0  0  0  0  0  0  0  0  0  0  0
  140.7780   71.1410  221.5720 N   0  0  0  0  0  0  0  0  0  0  0  0
  140.8160   71.9340  220.4050 C   0  0  0  0  0  0  0  0  0  0  0  0
  141.8940   72.8640  220.2280 C   0  0  0  0  0  0  0  0  0  0  0  0
  141.5460   74.0990  220.5320 O   0  0  0  0  0  0  0  0  0  0  0  0
  143.2340   72.7510  219.8030 N   0  0  0  0  0  0  0  0  0  0  0  0
  144.1110   73.9170  219.6320 C   0  0  0  0  0  0  0  0  0  0  0  0
  145.5120   73.3040  219.6310 C   0  0  2  0  0  0  0  0  0  0  0  0
  146.0560   73.3830  218.3570 O   0  0  0  0  0  0  0  0  0  0  0  0
  145.2960   71.8610  220.0950 C   0  0  0  0  0  0  0  0  0  0  0  0
  143.9600   71.5520  219.4260 C   0  0  1  0  0  0  0  0  0  0  0  0
  143.3260   70.3200  219.8690 C   0  0  0  0  0  0  0  0  0  0  0  0
  143.7530   69.1110  219.2330 N   0  0  0  0  0  0  0  0  0  0  0  0
  142.9690   67.9630  219.3660 C   0  0  0  0  0  0  0  0  0  0  0  0
  143.9130   66.8100  219.0050 C   0  0  0  0  0  0  0  0  0  0  0  0
  145.2480   67.3600  219.4440 C   0  0  0  0  0  0  0  0  0  0  0  0
  145.1210   68.8370  219.1380 C   0  0  0  0  0  0  0  0  0  0  0  0
  140.3900   71.1570  224.0770 C   0  0  0  0  0  0  0  0  0  0  0  0
  140.7560   71.8620  225.2050 C   0  0  0  0  0  0  0  0  0  0  0  0
  140.7370   71.3020  226.4400 N   0  0  0  0  0  0  0  0  0  0  0  0
  140.3540   70.0280  226.5850 C   0  0  0  0  0  0  0  0  0  0  0  0
  140.3420   69.4750  227.8480 C   0  0  0  0  0  0  0  0  0  0  0  0
  139.9380   68.1420  227.9640 C   0  0  0  0  0  0  0  0  0  0  0  0
  139.5700   67.4320  226.8430 C   0  0  0  0  0  0  0  0  0  0  0  0
  139.5850   68.0000  225.5660 C   0  0  0  0  0  0  0  0  0  0  0  0
  139.9910   69.3350  225.4510 C   0  0  0  0  0  0  0  0  0  0  0  0
  140.0090   69.8950  224.2190 N   0  0  0  0  0  0  0  0  0  0  0  0
  140.9490   70.1490  221.7390 H   0  0  0  0  0  0  0  0  0  0  0  0
  140.8417   71.2447  219.5482 H   0  0  0  0  0  0  0  0  0  0  0  0
  139.9273   72.5760  220.4947 H   0  0  0  0  0  0  0  0  0  0  0  0
  143.9043   74.4299  218.6811 H   0  0  0  0  0  0  0  0  0  0  0  0
  143.9739   74.6780  220.4143 H   0  0  0  0  0  0  0  0  0  0  0  0
  146.2244   73.8231  220.2891 H   0  0  0  0  0  0  0  0  0  0  0  0
  145.9310   74.2420  217.9300 H   0  0  0  0  0  0  0  0  0  0  0  0
  146.0941   71.1948  219.7355 H   0  0  0  0  0  0  0  0  0  0  0  0
  145.3052   71.7238  221.1864 H   0  0  0  0  0  0  0  0  0  0  0  0
  144.0251   71.3563  218.3455 H   0  0  0  0  0  0  0  0  0  0  0  0
  143.5187   70.2152  220.9469 H   0  0  0  0  0  0  0  0  0  0  0  0
  142.2651   70.4285  219.5995 H   0  0  0  0  0  0  0  0  0  0  0  0
  142.6045   67.8585  220.3986 H   0  0  0  0  0  0  0  0  0  0  0  0
  142.0761   67.9894  218.7241 H   0  0  0  0  0  0  0  0  0  0  0  0
  143.6559   65.8935  219.5562 H   0  0  0  0  0  0  0  0  0  0  0  0
  143.8767   66.5178  217.9451 H   0  0  0  0  0  0  0  0  0  0  0  0
  145.4119   67.1909  220.5185 H   0  0  0  0  0  0  0  0  0  0  0  0
  146.1017   66.8833  218.9400 H   0  0  0  0  0  0  0  0  0  0  0  0
  145.6862   69.4332  219.8695 H   0  0  0  0  0  0  0  0  0  0  0  0
  145.5246   69.0892  218.1463 H   0  0  0  0  0  0  0  0  0  0  0  0
  141.0728   72.9101  225.0995 H   0  0  0  0  0  0  0  0  0  0  0  0
  140.6390   70.0605  228.7306 H   0  0  0  0  0  0  0  0  0  0  0  0
  139.9140   67.6594  228.9522 H   0  0  0  0  0  0  0  0  0  0  0  0
  139.2542   66.3844  226.9561 H   0  0  0  0  0  0  0  0  0  0  0  0
  139.2879   67.4178  224.6812 H   0  0  0  0  0  0  0  0  0  0  0  0
  1  2  2  0
  2  3  1  0
  3  4  1  0
  4  5  1  0
  5  6  2  0
  5  7  1  0
  7  8  1  0
  8  9  1  0
  9 10  1  0
  9 11  1  0
 11 12  1  0
 12 13  1  0
 13 14  1  0
 14 15  1  0
 15 16  1  0
 16 17  1  0
 17 18  1  0
  2 19  1  0
 19 20  2  0
 20 21  1  0
 21 22  2  0
 22 23  1  0
 23 24  2  0
 24 25  1  0
 25 26  2  0
 26 27  1  0
 27 28  2  0
 12  7  1  0
 18 14  1  0
 28 19  1  0
 27 22  1  0
  3 29  1  0
  4 30  1  0
  4 31  1  0
  8 32  1  0
  8 33  1  0
  9 34  1  1
 10 35  1  0
 11 36  1  0
 11 37  1  0
 12 38  1  6
 13 39  1  0
 13 40  1  0
 15 41  1  0
 15 42  1  0
 16 43  1  0
 16 44  1  0
 17 45  1  0
 17 46  1  0
 18 47  1  0
 18 48  1  0
 20 49  1  0
 23 50  1  0
 24 51  1  0
 25 52  1  0
 26 53  1  0
M  END
>  <smiles>  (18) 
O=C(NCC(=O)N1C[C@H](O)C[C@H]1CN1CCCC1)c1cnc2ccccc2n1

>  <score_type>  (18) 
oracle

>  <origin>  (18) 
autodockgpu

>  <m_score__min__energy>  (18) 
-8.4800000000000004

>  <m_primary>  (18) 
energy

>  <rmsd>  (18) 
7.155925500109448

>  <m_score__min__rmsd>  (18) 
7.155925500109448

>  <meeko>  (18) 
{"free_energy": -7.55, "intermolecular_energy": -9.64, "internal_energy": -1.19, "cluster_size": 1, "cluster_id": 4, "rank_in_cluster": 1}

>  <energy>  (18) 
-7.82

>  <cluster_rmsd>  (18) 
0.86

>  <cluster>  (18) 
1

$$$$

     RDKit          3D

 53 56  0  0  0  0  0  0  0  0999 V2000
  139.1690   74.7760  222.3050 O   0  0  0  0  0  0  0  0  0  0  0  0
  140.2120   75.4600  222.0860 C   0  0  0  0  0  0  0  0  0  0  0  0
  141.3570   74.7580  221.4890 N   0  0  0  0  0  0  0  0  0  0  0  0
  141.1470   73.3870  221.2290 C   0  0  0  0  0  0  0  0  0  0  0  0
  142.1800   72.6330  220.5810 C   0  0  0  0  0  0  0  0  0  0  0  0
  141.9220   71.3400  220.5630 O   0  0  0  0  0  0  0  0  0  0  0  0
  143.4040   72.9650  219.9630 N   0  0  0  0  0  0  0  0  0  0  0  0
  144.6360   72.1970  220.1850 C   0  0  0  0  0  0  0  0  0  0  0  0
  145.5220   72.6100  219.0080 C   0  0  2  0  0  0  0  0  0  0  0  0
  146.5690   73.3970  219.4650 O   0  0  0  0  0  0  0  0  0  0  0  0
  144.5780   73.3650  218.0690 C   0  0  0  0  0  0  0  0  0  0  0  0
  143.6940   74.0830  219.0840 C   0  0  1  0  0  0  0  0  0  0  0  0
  142.5060   74.7090  218.5240 C   0  0  0  0  0  0  0  0  0  0  0  0
  142.0400   75.8980  219.1700 N   0  0  0  0  0  0  0  0  0  0  0  0
  140.7690   76.3860  218.8540 C   0  0  0  0  0  0  0  0  0  0  0  0
  140.7930   77.8460  219.3200 C   0  0  0  0  0  0  0  0  0  0  0  0
  142.2490   78.2010  219.1410 C   0  0  0  0  0  0  0  0  0  0  0  0
  142.9560   76.9070  219.4850 C   0  0  0  0  0  0  0  0  0  0  0  0
  140.3080   76.8810  222.3960 C   0  0  0  0  0  0  0  0  0  0  0  0
  139.1210   77.5730  222.5180 C   0  0  0  0  0  0  0  0  0  0  0  0
  139.0890   78.8990  222.8020 N   0  0  0  0  0  0  0  0  0  0  0  0
  140.2340   79.5690  222.9720 C   0  0  0  0  0  0  0  0  0  0  0  0
  140.1810   80.9160  223.2600 C   0  0  0  0  0  0  0  0  0  0  0  0
  141.3950   81.5870  223.4300 C   0  0  0  0  0  0  0  0  0  0  0  0
  142.5840   80.9040  223.3110 C   0  0  0  0  0  0  0  0  0  0  0  0
  142.6290   79.5370  223.0200 C   0  0  0  0  0  0  0  0  0  0  0  0
  141.4120   78.8670  222.8490 C   0  0  0  0  0  0  0  0  0  0  0  0
  141.4440   77.5430  222.5660 N   0  0  0  0  0  0  0  0  0  0  0  0
  142.1520   75.3780  221.3280 H   0  0  0  0  0  0  0  0  0  0  0  0
  140.9539   72.9019  222.1972 H   0  0  0  0  0  0  0  0  0  0  0  0
  140.3224   73.3815  220.5010 H   0  0  0  0  0  0  0  0  0  0  0  0
  145.1023   72.4677  221.1438 H   0  0  0  0  0  0  0  0  0  0  0  0
  144.4646   71.1116  220.2360 H   0  0  0  0  0  0  0  0  0  0  0  0
  145.9944   71.7633  218.4884 H   0  0  0  0  0  0  0  0  0  0  0  0
  146.4140   74.3480  219.3730 H   0  0  0  0  0  0  0  0  0  0  0  0
  145.1229   74.0756  217.4302 H   0  0  0  0  0  0  0  0  0  0  0  0
  144.0339   72.7282  217.3559 H   0  0  0  0  0  0  0  0  0  0  0  0
  144.1639   74.9550  219.5623 H   0  0  0  0  0  0  0  0  0  0  0  0
  142.7256   74.9632  217.4766 H   0  0  0  0  0  0  0  0  0  0  0  0
  141.7004   73.9723  218.6593 H   0  0  0  0  0  0  0  0  0  0  0  0
  140.5877   76.3264  217.7707 H   0  0  0  0  0  0  0  0  0  0  0  0
  139.9667   75.8064  219.3339 H   0  0  0  0  0  0  0  0  0  0  0  0
  140.1464   78.4776  218.6931 H   0  0  0  0  0  0  0  0  0  0  0  0
  140.4202   77.9937  220.3443 H   0  0  0  0  0  0  0  0  0  0  0  0
  142.4583   78.5031  218.1042 H   0  0  0  0  0  0  0  0  0  0  0  0
  142.5692   79.0501  219.7626 H   0  0  0  0  0  0  0  0  0  0  0  0
  143.8729   76.7969  218.8873 H   0  0  0  0  0  0  0  0  0  0  0  0
  143.2618   76.8719  220.5411 H   0  0  0  0  0  0  0  0  0  0  0  0
  138.1722   77.0335  222.3809 H   0  0  0  0  0  0  0  0  0  0  0  0
  139.2197   81.4427  223.3525 H   0  0  0  0  0  0  0  0  0  0  0  0
  141.4003   82.6628  223.6593 H   0  0  0  0  0  0  0  0  0  0  0  0
  143.5285   81.4506  223.4492 H   0  0  0  0  0  0  0  0  0  0  0  0
  143.5881   79.0063  222.9286 H   0  0  0  0  0  0  0  0  0  0  0  0
  1  2  2  0
  2  3  1  0
  3  4  1  0
  4  5  1  0
  5  6  2  0
  5  7  1  0
  7  8  1  0
  8  9  1  0
  9 10  1  0
  9 11  1  0
 11 12  1  0
 12 13  1  0
 13 14  1  0
 14 15  1  0
 15 16  1  0
 16 17  1  0
 17 18  1  0
  2 19  1  0
 19 20  2  0
 20 21  1  0
 21 22  2  0
 22 23  1  0
 23 24  2  0
 24 25  1  0
 25 26  2  0
 26 27  1  0
 27 28  2  0
 12  7  1  0
 18 14  1  0
 28 19  1  0
 27 22  1  0
  3 29  1  0
  4 30  1  0
  4 31  1  0
  8 32  1  0
  8 33  1  0
  9 34  1  6
 10 35  1  0
 11 36  1  0
 11 37  1  0
 12 38  1  1
 13 39  1  0
 13 40  1  0
 15 41  1  0
 15 42  1  0
 16 43  1  0
 16 44  1  0
 17 45  1  0
 17 46  1  0
 18 47  1  0
 18 48  1  0
 20 49  1  0
 23 50  1  0
 24 51  1  0
 25 52  1  0
 26 53  1  0
M  END
>  <smiles>  (19) 
O=C(NCC(=O)N1C[C@H](O)C[C@H]1CN1CCCC1)c1cnc2ccccc2n1

>  <score_type>  (19) 
oracle

>  <origin>  (19) 
autodockgpu

>  <m_score__min__energy>  (19) 
-8.4800000000000004

>  <m_primary>  (19) 
energy

>  <rmsd>  (19) 
7.061698694928701

>  <m_score__min__rmsd>  (19) 
7.061698694928701

>  <meeko>  (19) 
{"free_energy": -6.51, "intermolecular_energy": -8.6, "internal_energy": -2.83, "cluster_size": 12, "cluster_id": 8, "rank_in_cluster": 8}

>  <energy>  (19) 
-7.71

>  <cluster_rmsd>  (19) 
1.13

>  <cluster>  (19) 
1

$$$$

     RDKit          3D

 53 56  0  0  0  0  0  0  0  0999 V2000
  139.2090   74.7440  222.3220 O   0  0  0  0  0  0  0  0  0  0  0  0
  140.2400   75.4380  222.0800 C   0  0  0  0  0  0  0  0  0  0  0  0
  141.3850   74.7420  221.4740 N   0  0  0  0  0  0  0  0  0  0  0  0
  141.1870   73.3660  221.2330 C   0  0  0  0  0  0  0  0  0  0  0  0
  142.1370   72.6530  220.4300 C   0  0  0  0  0  0  0  0  0  0  0  0
  141.7500   71.4200  220.1690 O   0  0  0  0  0  0  0  0  0  0  0  0
  143.3860   72.9780  219.8600 N   0  0  0  0  0  0  0  0  0  0  0  0
  144.5990   72.1870  220.1090 C   0  0  0  0  0  0  0  0  0  0  0  0
  145.5300   72.6060  218.9710 C   0  0  2  0  0  0  0  0  0  0  0  0
  146.5730   73.3690  219.4780 O   0  0  0  0  0  0  0  0  0  0  0  0
  144.6310   73.3930  218.0140 C   0  0  0  0  0  0  0  0  0  0  0  0
  143.7230   74.1060  219.0110 C   0  0  1  0  0  0  0  0  0  0  0  0
  142.5650   74.7600  218.4220 C   0  0  0  0  0  0  0  0  0  0  0  0
  142.0450   75.8980  219.1190 N   0  0  0  0  0  0  0  0  0  0  0  0
  140.7710   76.3680  218.7900 C   0  0  0  0  0  0  0  0  0  0  0  0
  140.7380   77.8000  219.3380 C   0  0  0  0  0  0  0  0  0  0  0  0
  142.1880   78.2030  219.2250 C   0  0  0  0  0  0  0  0  0  0  0  0
  142.9210   76.9110  219.5190 C   0  0  0  0  0  0  0  0  0  0  0  0
  140.3240   76.8630  222.3710 C   0  0  0  0  0  0  0  0  0  0  0  0
  139.1330   77.5560  222.4400 C   0  0  0  0  0  0  0  0  0  0  0  0
  139.0900   78.8850  222.7030 N   0  0  0  0  0  0  0  0  0  0  0  0
  140.2280   79.5590  222.9030 C   0  0  0  0  0  0  0  0  0  0  0  0
  140.1630   80.9110  223.1690 C   0  0  0  0  0  0  0  0  0  0  0  0
  141.3700   81.5860  223.3720 C   0  0  0  0  0  0  0  0  0  0  0  0
  142.5640   80.9020  223.3050 C   0  0  0  0  0  0  0  0  0  0  0  0
  142.6200   79.5310  223.0360 C   0  0  0  0  0  0  0  0  0  0  0  0
  141.4100   78.8570  222.8320 C   0  0  0  0  0  0  0  0  0  0  0  0
  141.4530   77.5290  222.5710 N   0  0  0  0  0  0  0  0  0  0  0  0
  142.1700   75.3690  221.2930 H   0  0  0  0  0  0  0  0  0  0  0  0
  141.1578   72.8688  222.2138 H   0  0  0  0  0  0  0  0  0  0  0  0
  140.2638   73.3351  220.6356 H   0  0  0  0  0  0  0  0  0  0  0  0
  145.0366   72.4337  221.0876 H   0  0  0  0  0  0  0  0  0  0  0  0
  144.4096   71.1037  220.1343 H   0  0  0  0  0  0  0  0  0  0  0  0
  146.0062   71.7608  218.4525 H   0  0  0  0  0  0  0  0  0  0  0  0
  146.4610   74.3220  219.3470 H   0  0  0  0  0  0  0  0  0  0  0  0
  145.2087   74.1066  217.4081 H   0  0  0  0  0  0  0  0  0  0  0  0
  144.1027   72.7781  217.2705 H   0  0  0  0  0  0  0  0  0  0  0  0
  144.1893   74.9619  219.5209 H   0  0  0  0  0  0  0  0  0  0  0  0
  142.8464   75.0886  217.4106 H   0  0  0  0  0  0  0  0  0  0  0  0
  141.7616   74.0093  218.4544 H   0  0  0  0  0  0  0  0  0  0  0  0
  140.6249   76.3652  217.6997 H   0  0  0  0  0  0  0  0  0  0  0  0
  139.9715   75.7402  219.2104 H   0  0  0  0  0  0  0  0  0  0  0  0
  140.0926   78.4485  218.7273 H   0  0  0  0  0  0  0  0  0  0  0  0
  140.3300   77.8796  220.3564 H   0  0  0  0  0  0  0  0  0  0  0  0
  142.4197   78.5684  218.2137 H   0  0  0  0  0  0  0  0  0  0  0  0
  142.4652   79.0240  219.9026 H   0  0  0  0  0  0  0  0  0  0  0  0
  143.8586   76.8596  218.9461 H   0  0  0  0  0  0  0  0  0  0  0  0
  143.1951   76.8243  220.5808 H   0  0  0  0  0  0  0  0  0  0  0  0
  138.1900   77.0137  222.2767 H   0  0  0  0  0  0  0  0  0  0  0  0
  139.1985   81.4376  223.2194 H   0  0  0  0  0  0  0  0  0  0  0  0
  141.3665   82.6651  223.5856 H   0  0  0  0  0  0  0  0  0  0  0  0
  143.5027   81.4517  223.4682 H   0  0  0  0  0  0  0  0  0  0  0  0
  143.5821   79.0001  222.9863 H   0  0  0  0  0  0  0  0  0  0  0  0
  1  2  2  0
  2  3  1  0
  3  4  1  0
  4  5  1  0
  5  6  2  0
  5  7  1  0
  7  8  1  0
  8  9  1  0
  9 10  1  0
  9 11  1  0
 11 12  1  0
 12 13  1  0
 13 14  1  0
 14 15  1  0
 15 16  1  0
 16 17  1  0
 17 18  1  0
  2 19  1  0
 19 20  2  0
 20 21  1  0
 21 22  2  0
 22 23  1  0
 23 24  2  0
 24 25  1  0
 25 26  2  0
 26 27  1  0
 27 28  2  0
 12  7  1  0
 18 14  1  0
 28 19  1  0
 27 22  1  0
  3 29  1  0
  4 30  1  0
  4 31  1  0
  8 32  1  0
  8 33  1  0
  9 34  1  6
 10 35  1  0
 11 36  1  0
 11 37  1  0
 12 38  1  1
 13 39  1  0
 13 40  1  0
 15 41  1  0
 15 42  1  0
 16 43  1  0
 16 44  1  0
 17 45  1  0
 17 46  1  0
 18 47  1  0
 18 48  1  0
 20 49  1  0
 23 50  1  0
 24 51  1  0
 25 52  1  0
 26 53  1  0
M  END
>  <smiles>  (20) 
O=C(NCC(=O)N1C[C@H](O)C[C@H]1CN1CCCC1)c1cnc2ccccc2n1

>  <score_type>  (20) 
oracle

>  <origin>  (20) 
autodockgpu

>  <m_score__min__energy>  (20) 
-8.4800000000000004

>  <m_primary>  (20) 
energy

>  <rmsd>  (20) 
7.060600170659919

>  <m_score__min__rmsd>  (20) 
7.060600170659919

>  <meeko>  (20) 
{"free_energy": -6.45, "intermolecular_energy": -8.54, "internal_energy": -2.86, "cluster_size": 12, "cluster_id": 8, "rank_in_cluster": 9}

>  <energy>  (20) 
-7.64

>  <cluster_rmsd>  (20) 
1.25

>  <cluster>  (20) 
1

$$$$

     RDKit          3D

 53 56  0  0  0  0  0  0  0  0999 V2000
  141.3060   72.3010  221.6370 O   0  0  0  0  0  0  0  0  0  0  0  0
  140.3980   72.4550  222.5050 C   0  0  0  0  0  0  0  0  0  0  0  0
  139.4500   73.5590  222.2900 N   0  0  0  0  0  0  0  0  0  0  0  0
  139.6750   74.3180  221.1220 C   0  0  0  0  0  0  0  0  0  0  0  0
  140.7160   75.3060  221.1210 C   0  0  0  0  0  0  0  0  0  0  0  0
  141.0760   75.6550  222.3400 O   0  0  0  0  0  0  0  0  0  0  0  0
  141.4340   75.9810  220.1120 N   0  0  0  0  0  0  0  0  0  0  0  0
  142.2700   75.2760  219.1310 C   0  0  0  0  0  0  0  0  0  0  0  0
  142.4460   76.3090  218.0170 C   0  0  2  0  0  0  0  0  0  0  0  0
  143.7570   76.7640  218.0050 O   0  0  0  0  0  0  0  0  0  0  0  0
  141.4390   77.4110  218.3570 C   0  0  0  0  0  0  0  0  0  0  0  0
  141.5320   77.4100  219.8790 C   0  0  1  0  0  0  0  0  0  0  0  0
  140.5010   78.1840  220.5540 C   0  0  0  0  0  0  0  0  0  0  0  0
  140.9230   78.9960  221.6540 N   0  0  0  0  0  0  0  0  0  0  0  0
  142.1530   79.6530  221.5780 C   0  0  0  0  0  0  0  0  0  0  0  0
  142.4920   80.0030  223.0320 C   0  0  0  0  0  0  0  0  0  0  0  0
  141.8230   78.8760  223.7800 C   0  0  0  0  0  0  0  0  0  0  0  0
  140.5820   78.6130  222.9550 C   0  0  0  0  0  0  0  0  0  0  0  0
  140.2650   71.5980  223.6760 C   0  0  0  0  0  0  0  0  0  0  0  0
  139.6070   70.3990  223.4970 C   0  0  0  0  0  0  0  0  0  0  0  0
  139.4230   69.5220  224.5150 N   0  0  0  0  0  0  0  0  0  0  0  0
  139.8860   69.8150  225.7350 C   0  0  0  0  0  0  0  0  0  0  0  0
  139.6880   68.9110  226.7580 C   0  0  0  0  0  0  0  0  0  0  0  0
  140.1830   69.2490  228.0210 C   0  0  0  0  0  0  0  0  0  0  0  0
  140.8410   70.4440  228.2080 C   0  0  0  0  0  0  0  0  0  0  0  0
  141.0390   71.3540  227.1650 C   0  0  0  0  0  0  0  0  0  0  0  0
  140.5410   71.0150  225.9010 C   0  0  0  0  0  0  0  0  0  0  0  0
  140.7260   71.8900  224.8840 N   0  0  0  0  0  0  0  0  0  0  0  0
  138.7400   73.6090  223.0210 H   0  0  0  0  0  0  0  0  0  0  0  0
  139.9058   73.6066  220.3154 H   0  0  0  0  0  0  0  0  0  0  0  0
  138.7532   74.9078  221.0105 H   0  0  0  0  0  0  0  0  0  0  0  0
  143.2404   74.9971  219.5674 H   0  0  0  0  0  0  0  0  0  0  0  0
  141.8228   74.3343  218.7800 H   0  0  0  0  0  0  0  0  0  0  0  0
  142.2619   75.9104  217.0084 H   0  0  0  0  0  0  0  0  0  0  0  0
  144.4110   76.0720  217.8300 H   0  0  0  0  0  0  0  0  0  0  0  0
  141.7386   78.3804  217.9322 H   0  0  0  0  0  0  0  0  0  0  0  0
  140.4268   77.2467  217.9588 H   0  0  0  0  0  0  0  0  0  0  0  0
  142.4328   77.8966  220.2812 H   0  0  0  0  0  0  0  0  0  0  0  0
  140.0402   78.8476  219.8075 H   0  0  0  0  0  0  0  0  0  0  0  0
  139.8193   77.4388  220.9899 H   0  0  0  0  0  0  0  0  0  0  0  0
  142.9205   78.9927  221.1480 H   0  0  0  0  0  0  0  0  0  0  0  0
  142.1128   80.5425  220.9322 H   0  0  0  0  0  0  0  0  0  0  0  0
  143.5790   80.0071  223.2008 H   0  0  0  0  0  0  0  0  0  0  0  0
  142.1581   81.0047  223.3404 H   0  0  0  0  0  0  0  0  0  0  0  0
  142.4695   77.9868  223.8170 H   0  0  0  0  0  0  0  0  0  0  0  0
  141.6032   79.1212  224.8295 H   0  0  0  0  0  0  0  0  0  0  0  0
  140.3160   77.5461  222.9865 H   0  0  0  0  0  0  0  0  0  0  0  0
  139.7101   79.1669  223.3331 H   0  0  0  0  0  0  0  0  0  0  0  0
  139.2199   70.1466  222.4988 H   0  0  0  0  0  0  0  0  0  0  0  0
  139.1610   67.9608  226.5866 H   0  0  0  0  0  0  0  0  0  0  0  0
  140.0466   68.5591  228.8668 H   0  0  0  0  0  0  0  0  0  0  0  0
  141.2230   70.6906  229.2096 H   0  0  0  0  0  0  0  0  0  0  0  0
  141.5680   72.3039  227.3318 H   0  0  0  0  0  0  0  0  0  0  0  0
  1  2  2  0
  2  3  1  0
  3  4  1  0
  4  5  1  0
  5  6  2  0
  5  7  1  0
  7  8  1  0
  8  9  1  0
  9 10  1  0
  9 11  1  0
 11 12  1  0
 12 13  1  0
 13 14  1  0
 14 15  1  0
 15 16  1  0
 16 17  1  0
 17 18  1  0
  2 19  1  0
 19 20  2  0
 20 21  1  0
 21 22  2  0
 22 23  1  0
 23 24  2  0
 24 25  1  0
 25 26  2  0
 26 27  1  0
 27 28  2  0
 12  7  1  0
 18 14  1  0
 28 19  1  0
 27 22  1  0
  3 29  1  0
  4 30  1  0
  4 31  1  0
  8 32  1  0
  8 33  1  0
  9 34  1  6
 10 35  1  0
 11 36  1  0
 11 37  1  0
 12 38  1  6
 13 39  1  0
 13 40  1  0
 15 41  1  0
 15 42  1  0
 16 43  1  0
 16 44  1  0
 17 45  1  0
 17 46  1  0
 18 47  1  0
 18 48  1  0
 20 49  1  0
 23 50  1  0
 24 51  1  0
 25 52  1  0
 26 53  1  0
M  END
>  <smiles>  (21) 
O=C(NCC(=O)N1C[C@H](O)C[C@H]1CN1CCCC1)c1cnc2ccccc2n1

>  <score_type>  (21) 
oracle

>  <origin>  (21) 
autodockgpu

>  <m_score__min__energy>  (21) 
-8.4800000000000004

>  <m_primary>  (21) 
energy

>  <rmsd>  (21) 
2.2962474261732275

>  <m_score__min__rmsd>  (21) 
2.2962474261732275

>  <meeko>  (21) 
{"free_energy": -7.84, "intermolecular_energy": -9.93, "internal_energy": -1.36, "cluster_size": 24, "cluster_id": 1, "rank_in_cluster": 17}

>  <energy>  (21) 
-7.39

>  <cluster_rmsd>  (21) 
1.25

>  <cluster>  (21) 
1

$$$$

     RDKit          3D

 53 56  0  0  0  0  0  0  0  0999 V2000
  138.9220   75.1860  221.4560 O   0  0  0  0  0  0  0  0  0  0  0  0
  140.0600   75.6430  221.7700 C   0  0  0  0  0  0  0  0  0  0  0  0
  141.2120   74.7500  221.5820 N   0  0  0  0  0  0  0  0  0  0  0  0
  140.9000   73.4750  221.0640 C   0  0  0  0  0  0  0  0  0  0  0  0
  140.6970   72.3830  221.9730 C   0  0  0  0  0  0  0  0  0  0  0  0
  141.7410   71.5800  222.0340 O   0  0  0  0  0  0  0  0  0  0  0  0
  139.6360   71.9810  222.8100 N   0  0  0  0  0  0  0  0  0  0  0  0
  138.2320   72.0150  222.3790 C   0  0  0  0  0  0  0  0  0  0  0  0
  137.5360   71.0920  223.3800 C   0  0  2  0  0  0  0  0  0  0  0  0
  136.7320   71.8420  224.2270 O   0  0  0  0  0  0  0  0  0  0  0  0
  138.6840   70.3950  224.1150 C   0  0  0  0  0  0  0  0  0  0  0  0
  139.6970   71.5320  224.1890 C   0  0  1  0  0  0  0  0  0  0  0  0
  141.0300   71.1360  224.6160 C   0  0  0  0  0  0  0  0  0  0  0  0
  141.2110   70.8870  226.0140 N   0  0  0  0  0  0  0  0  0  0  0  0
  140.7440   69.6860  226.5530 C   0  0  0  0  0  0  0  0  0  0  0  0
  140.6600   69.9500  228.0610 C   0  0  0  0  0  0  0  0  0  0  0  0
  140.3640   71.4300  228.0960 C   0  0  0  0  0  0  0  0  0  0  0  0
  141.1450   71.9570  226.9110 C   0  0  0  0  0  0  0  0  0  0  0  0
  140.2580   76.9880  222.2950 C   0  0  0  0  0  0  0  0  0  0  0  0
  139.1260   77.6840  222.6670 C   0  0  0  0  0  0  0  0  0  0  0  0
  139.1890   78.9430  223.1660 N   0  0  0  0  0  0  0  0  0  0  0  0
  140.3770   79.5420  223.3080 C   0  0  0  0  0  0  0  0  0  0  0  0
  140.4200   80.8220  223.8170 C   0  0  0  0  0  0  0  0  0  0  0  0
  141.6770   81.4200  223.9510 C   0  0  0  0  0  0  0  0  0  0  0  0
  142.8120   80.7320  223.5830 C   0  0  0  0  0  0  0  0  0  0  0  0
  142.7580   79.4330  223.0690 C   0  0  0  0  0  0  0  0  0  0  0  0
  141.4990   78.8370  222.9340 C   0  0  0  0  0  0  0  0  0  0  0  0
  141.4360   77.5790  222.4360 N   0  0  0  0  0  0  0  0  0  0  0  0
  142.0940   75.1930  221.8410 H   0  0  0  0  0  0  0  0  0  0  0  0
  139.9749   73.5829  220.4788 H   0  0  0  0  0  0  0  0  0  0  0  0
  141.8046   73.1889  220.5074 H   0  0  0  0  0  0  0  0  0  0  0  0
  137.8266   73.0360  222.4361 H   0  0  0  0  0  0  0  0  0  0  0  0
  138.0941   71.7000  221.3341 H   0  0  0  0  0  0  0  0  0  0  0  0
  136.8661   70.3547  222.9135 H   0  0  0  0  0  0  0  0  0  0  0  0
  136.9930   72.7720  224.2930 H   0  0  0  0  0  0  0  0  0  0  0  0
  138.3792   70.0568  225.1164 H   0  0  0  0  0  0  0  0  0  0  0  0
  139.0544   69.4820  223.6258 H   0  0  0  0  0  0  0  0  0  0  0  0
  139.4710   72.2952  224.9482 H   0  0  0  0  0  0  0  0  0  0  0  0
  141.2923   70.2138  224.0767 H   0  0  0  0  0  0  0  0  0  0  0  0
  141.6734   71.9994  224.3910 H   0  0  0  0  0  0  0  0  0  0  0  0
  139.7530   69.4363  226.1460 H   0  0  0  0  0  0  0  0  0  0  0  0
  141.3999   68.8362  226.3126 H   0  0  0  0  0  0  0  0  0  0  0  0
  139.8504   69.3680  228.5256 H   0  0  0  0  0  0  0  0  0  0  0  0
  141.5650   69.6621  228.6160 H   0  0  0  0  0  0  0  0  0  0  0  0
  139.2873   71.6215  227.9776 H   0  0  0  0  0  0  0  0  0  0  0  0
  140.6419   71.9071  229.0474 H   0  0  0  0  0  0  0  0  0  0  0  0
  140.6246   72.8120  226.4547 H   0  0  0  0  0  0  0  0  0  0  0  0
  142.1442   72.3138  227.2014 H   0  0  0  0  0  0  0  0  0  0  0  0
  138.1431   77.2029  222.5553 H   0  0  0  0  0  0  0  0  0  0  0  0
  139.5011   81.3527  224.1067 H   0  0  0  0  0  0  0  0  0  0  0  0
  141.7594   82.4414  224.3509 H   0  0  0  0  0  0  0  0  0  0  0  0
  143.7913   81.2197  223.6970 H   0  0  0  0  0  0  0  0  0  0  0  0
  143.6744   78.8973  222.7804 H   0  0  0  0  0  0  0  0  0  0  0  0
  1  2  2  0
  2  3  1  0
  3  4  1  0
  4  5  1  0
  5  6  2  0
  5  7  1  0
  7  8  1  0
  8  9  1  0
  9 10  1  0
  9 11  1  0
 11 12  1  0
 12 13  1  0
 13 14  1  0
 14 15  1  0
 15 16  1  0
 16 17  1  0
 17 18  1  0
  2 19  1  0
 19 20  2  0
 20 21  1  0
 21 22  2  0
 22 23  1  0
 23 24  2  0
 24 25  1  0
 25 26  2  0
 26 27  1  0
 27 28  2  0
 12  7  1  0
 18 14  1  0
 28 19  1  0
 27 22  1  0
  3 29  1  0
  4 30  1  0
  4 31  1  0
  8 32  1  0
  8 33  1  0
  9 34  1  6
 10 35  1  0
 11 36  1  0
 11 37  1  0
 12 38  1  1
 13 39  1  0
 13 40  1  0
 15 41  1  0
 15 42  1  0
 16 43  1  0
 16 44  1  0
 17 45  1  0
 17 46  1  0
 18 47  1  0
 18 48  1  0
 20 49  1  0
 23 50  1  0
 24 51  1  0
 25 52  1  0
 26 53  1  0
M  END
>  <smiles>  (22) 
O=C(NCC(=O)N1C[C@H](O)C[C@H]1CN1CCCC1)c1cnc2ccccc2n1

>  <score_type>  (22) 
oracle

>  <origin>  (22) 
autodockgpu

>  <m_score__min__energy>  (22) 
-8.4800000000000004

>  <m_primary>  (22) 
energy

>  <rmsd>  (22) 
8.735235203667262

>  <m_score__min__rmsd>  (22) 
8.735235203667262

>  <meeko>  (22) 
{"free_energy": -8.04, "intermolecular_energy": -10.13, "internal_energy": -1.36, "cluster_size": 2, "cluster_id": 2, "rank_in_cluster": 1}

>  <energy>  (22) 
-7.36

>  <cluster_rmsd>  (22) 
1.27

>  <cluster>  (22) 
1

$$$$

     RDKit          3D

 53 56  0  0  0  0  0  0  0  0999 V2000
  139.5490   71.2860  221.3280 O   0  0  0  0  0  0  0  0  0  0  0  0
  139.6410   71.9330  222.4130 C   0  0  0  0  0  0  0  0  0  0  0  0
  139.5280   73.3960  222.3290 N   0  0  0  0  0  0  0  0  0  0  0  0
  139.3260   73.9050  221.0280 C   0  0  0  0  0  0  0  0  0  0  0  0
  140.4050   73.8540  220.0840 C   0  0  0  0  0  0  0  0  0  0  0  0
  140.0600   73.2590  218.9590 O   0  0  0  0  0  0  0  0  0  0  0  0
  141.7440   74.2980  220.0910 N   0  0  0  0  0  0  0  0  0  0  0  0
  142.8690   73.4220  219.7400 C   0  0  0  0  0  0  0  0  0  0  0  0
  143.9990   74.4070  219.4400 C   0  0  2  0  0  0  0  0  0  0  0  0
  144.9580   74.3390  220.4410 O   0  0  0  0  0  0  0  0  0  0  0  0
  143.3070   75.7710  219.3750 C   0  0  0  0  0  0  0  0  0  0  0  0
  142.2580   75.6010  220.4700 C   0  0  1  0  0  0  0  0  0  0  0  0
  141.2420   76.6420  220.5080 C   0  0  0  0  0  0  0  0  0  0  0  0
  141.4710   77.7320  221.4070 N   0  0  0  0  0  0  0  0  0  0  0  0
  141.0020   77.6370  222.7200 C   0  0  0  0  0  0  0  0  0  0  0  0
  140.9790   79.0840  223.2240 C   0  0  0  0  0  0  0  0  0  0  0  0
  140.7130   79.8480  221.9500 C   0  0  0  0  0  0  0  0  0  0  0  0
  141.4590   79.0390  220.9100 C   0  0  0  0  0  0  0  0  0  0  0  0
  139.8470   71.2900  223.7040 C   0  0  0  0  0  0  0  0  0  0  0  0
  139.5210   69.9530  223.7930 C   0  0  0  0  0  0  0  0  0  0  0  0
  139.6690   69.2520  224.9450 N   0  0  0  0  0  0  0  0  0  0  0  0
  140.1440   69.8630  226.0360 C   0  0  0  0  0  0  0  0  0  0  0  0
  140.2870   69.1350  227.1980 C   0  0  0  0  0  0  0  0  0  0  0  0
  140.7840   69.8030  228.3210 C   0  0  0  0  0  0  0  0  0  0  0  0
  141.1120   71.1380  228.2400 C   0  0  0  0  0  0  0  0  0  0  0  0
  140.9650   71.8690  227.0570 C   0  0  0  0  0  0  0  0  0  0  0  0
  140.4660   71.1980  225.9350 C   0  0  0  0  0  0  0  0  0  0  0  0
  140.3190   71.8970  224.7850 N   0  0  0  0  0  0  0  0  0  0  0  0
  139.5950   73.8440  223.2430 H   0  0  0  0  0  0  0  0  0  0  0  0
  138.4877   73.3439  220.5894 H   0  0  0  0  0  0  0  0  0  0  0  0
  139.1678   74.9817  221.1886 H   0  0  0  0  0  0  0  0  0  0  0  0
  143.1329   72.7631  220.5804 H   0  0  0  0  0  0  0  0  0  0  0  0
  142.6465   72.7513  218.8970 H   0  0  0  0  0  0  0  0  0  0  0  0
  144.5347   74.1953  218.5029 H   0  0  0  0  0  0  0  0  0  0  0  0
  145.8490   74.5760  220.1470 H   0  0  0  0  0  0  0  0  0  0  0  0
  144.0034   76.5913  219.6032 H   0  0  0  0  0  0  0  0  0  0  0  0
  142.9009   76.0331  218.3869 H   0  0  0  0  0  0  0  0  0  0  0  0
  142.6506   75.6775  221.4947 H   0  0  0  0  0  0  0  0  0  0  0  0
  141.1544   77.0592  219.4940 H   0  0  0  0  0  0  0  0  0  0  0  0
  140.3339   76.1458  220.8811 H   0  0  0  0  0  0  0  0  0  0  0  0
  139.9921   77.2015  222.7417 H   0  0  0  0  0  0  0  0  0  0  0  0
  141.6327   76.9865  223.3437 H   0  0  0  0  0  0  0  0  0  0  0  0
  140.1762   79.2395  223.9598 H   0  0  0  0  0  0  0  0  0  0  0  0
  141.8986   79.3901  223.7443 H   0  0  0  0  0  0  0  0  0  0  0  0
  139.6364   79.8832  221.7269 H   0  0  0  0  0  0  0  0  0  0  0  0
  141.0356   80.8985  221.9974 H   0  0  0  0  0  0  0  0  0  0  0  0
  140.9380   79.0796  219.9421 H   0  0  0  0  0  0  0  0  0  0  0  0
  142.4748   79.4245  220.7378 H   0  0  0  0  0  0  0  0  0  0  0  0
  139.1290   69.4393  222.9028 H   0  0  0  0  0  0  0  0  0  0  0  0
  140.0201   68.0687  227.2399 H   0  0  0  0  0  0  0  0  0  0  0  0
  140.9131   69.2619  229.2700 H   0  0  0  0  0  0  0  0  0  0  0  0
  141.5021   71.6456  229.1345 H   0  0  0  0  0  0  0  0  0  0  0  0
  141.2324   72.9350  227.0100 H   0  0  0  0  0  0  0  0  0  0  0  0
  1  2  2  0
  2  3  1  0
  3  4  1  0
  4  5  1  0
  5  6  2  0
  5  7  1  0
  7  8  1  0
  8  9  1  0
  9 10  1  0
  9 11  1  0
 11 12  1  0
 12 13  1  0
 13 14  1  0
 14 15  1  0
 15 16  1  0
 16 17  1  0
 17 18  1  0
  2 19  1  0
 19 20  2  0
 20 21  1  0
 21 22  2  0
 22 23  1  0
 23 24  2  0
 24 25  1  0
 25 26  2  0
 26 27  1  0
 27 28  2  0
 12  7  1  0
 18 14  1  0
 28 19  1  0
 27 22  1  0
  3 29  1  0
  4 30  1  0
  4 31  1  0
  8 32  1  0
  8 33  1  0
  9 34  1  6
 10 35  1  0
 11 36  1  0
 11 37  1  0
 12 38  1  1
 13 39  1  0
 13 40  1  0
 15 41  1  0
 15 42  1  0
 16 43  1  0
 16 44  1  0
 17 45  1  0
 17 46  1  0
 18 47  1  0
 18 48  1  0
 20 49  1  0
 23 50  1  0
 24 51  1  0
 25 52  1  0
 26 53  1  0
M  END
>  <smiles>  (23) 
O=C(NCC(=O)N1C[C@H](O)C[C@H]1CN1CCCC1)c1cnc2ccccc2n1

>  <score_type>  (23) 
oracle

>  <origin>  (23) 
autodockgpu

>  <m_score__min__energy>  (23) 
-8.4800000000000004

>  <m_primary>  (23) 
energy

>  <rmsd>  (23) 
2.3912965439310043

>  <m_score__min__rmsd>  (23) 
2.3912965439310043

>  <meeko>  (23) 
{"free_energy": -7.21, "intermolecular_energy": -9.29, "internal_energy": -1.38, "cluster_size": 24, "cluster_id": 1, "rank_in_cluster": 24}

>  <energy>  (23) 
-7.23

>  <cluster_rmsd>  (23) 
1.93

>  <cluster>  (23) 
1

$$$$

     RDKit          3D

 53 56  0  0  0  0  0  0  0  0999 V2000
  136.7200   77.0040  222.2100 O   0  0  0  0  0  0  0  0  0  0  0  0
  136.7060   75.8740  222.7800 C   0  0  0  0  0  0  0  0  0  0  0  0
  137.7190   74.8980  222.3510 N   0  0  0  0  0  0  0  0  0  0  0  0
  138.5940   75.3520  221.3410 C   0  0  0  0  0  0  0  0  0  0  0  0
  140.0020   75.1160  221.4790 C   0  0  0  0  0  0  0  0  0  0  0  0
  140.2670   74.1510  222.3370 O   0  0  0  0  0  0  0  0  0  0  0  0
  141.1580   75.6830  220.9040 N   0  0  0  0  0  0  0  0  0  0  0  0
  142.2720   74.8690  220.4000 C   0  0  0  0  0  0  0  0  0  0  0  0
  143.0280   75.8370  219.4890 C   0  0  2  0  0  0  0  0  0  0  0  0
  144.2430   76.1720  220.0700 O   0  0  0  0  0  0  0  0  0  0  0  0
  142.0890   77.0370  219.3470 C   0  0  0  0  0  0  0  0  0  0  0  0
  141.4890   77.0880  220.7480 C   0  0  1  0  0  0  0  0  0  0  0  0
  140.3470   77.9770  220.8920 C   0  0  0  0  0  0  0  0  0  0  0  0
  140.0860   78.4830  222.2050 N   0  0  0  0  0  0  0  0  0  0  0  0
  139.1500   79.5080  222.3620 C   0  0  0  0  0  0  0  0  0  0  0  0
  139.4670   80.1090  223.7370 C   0  0  0  0  0  0  0  0  0  0  0  0
  140.9530   79.8700  223.8400 C   0  0  0  0  0  0  0  0  0  0  0  0
  141.1310   78.5430  223.1330 C   0  0  0  0  0  0  0  0  0  0  0  0
  135.7480   75.5210  223.8200 C   0  0  0  0  0  0  0  0  0  0  0  0
  135.0560   76.5590  224.4070 C   0  0  0  0  0  0  0  0  0  0  0  0
  134.1420   76.3510  225.3860 N   0  0  0  0  0  0  0  0  0  0  0  0
  133.8920   75.1050  225.8060 C   0  0  0  0  0  0  0  0  0  0  0  0
  132.9590   74.9130  226.8030 C   0  0  0  0  0  0  0  0  0  0  0  0
  132.7230   73.5990  227.2200 C   0  0  0  0  0  0  0  0  0  0  0  0
  133.4090   72.5570  226.6390 C   0  0  0  0  0  0  0  0  0  0  0  0
  134.3530   72.7610  225.6270 C   0  0  0  0  0  0  0  0  0  0  0  0
  134.5890   74.0770  225.2120 C   0  0  0  0  0  0  0  0  0  0  0  0
  135.5010   74.2850  224.2340 N   0  0  0  0  0  0  0  0  0  0  0  0
  137.6550   74.0190  222.8660 H   0  0  0  0  0  0  0  0  0  0  0  0
  138.2780   74.8731  220.4025 H   0  0  0  0  0  0  0  0  0  0  0  0
  138.5055   76.4473  221.3902 H   0  0  0  0  0  0  0  0  0  0  0  0
  142.9119   74.5223  221.2248 H   0  0  0  0  0  0  0  0  0  0  0  0
  141.9400   73.9580  219.8805 H   0  0  0  0  0  0  0  0  0  0  0  0
  143.2767   75.4171  218.5032 H   0  0  0  0  0  0  0  0  0  0  0  0
  144.3300   77.1120  220.2830 H   0  0  0  0  0  0  0  0  0  0  0  0
  142.6406   77.9581  219.1077 H   0  0  0  0  0  0  0  0  0  0  0  0
  141.3516   76.9484  218.5356 H   0  0  0  0  0  0  0  0  0  0  0  0
  142.1564   77.5079  221.5150 H   0  0  0  0  0  0  0  0  0  0  0  0
  140.5108   78.8395  220.2292 H   0  0  0  0  0  0  0  0  0  0  0  0
  139.4699   77.3628  220.6401 H   0  0  0  0  0  0  0  0  0  0  0  0
  139.2647   80.2640  221.5712 H   0  0  0  0  0  0  0  0  0  0  0  0
  138.1144   79.1435  222.2931 H   0  0  0  0  0  0  0  0  0  0  0  0
  139.2304   81.1828  223.7695 H   0  0  0  0  0  0  0  0  0  0  0  0
  138.8859   79.6696  224.5611 H   0  0  0  0  0  0  0  0  0  0  0  0
  141.5181   80.6669  223.3344 H   0  0  0  0  0  0  0  0  0  0  0  0
  141.3215   79.8633  224.8764 H   0  0  0  0  0  0  0  0  0  0  0  0
  142.1043   78.5049  222.6219 H   0  0  0  0  0  0  0  0  0  0  0  0
  141.1095   77.6957  223.8341 H   0  0  0  0  0  0  0  0  0  0  0  0
  135.2517   77.5878  224.0704 H   0  0  0  0  0  0  0  0  0  0  0  0
  132.4211   75.7605  227.2530 H   0  0  0  0  0  0  0  0  0  0  0  0
  131.9881   73.3982  228.0134 H   0  0  0  0  0  0  0  0  0  0  0  0
  133.2086   71.5310  226.9813 H   0  0  0  0  0  0  0  0  0  0  0  0
  134.8915   71.9162  225.1728 H   0  0  0  0  0  0  0  0  0  0  0  0
  1  2  2  0
  2  3  1  0
  3  4  1  0
  4  5  1  0
  5  6  2  0
  5  7  1  0
  7  8  1  0
  8  9  1  0
  9 10  1  0
  9 11  1  0
 11 12  1  0
 12 13  1  0
 13 14  1  0
 14 15  1  0
 15 16  1  0
 16 17  1  0
 17 18  1  0
  2 19  1  0
 19 20  2  0
 20 21  1  0
 21 22  2  0
 22 23  1  0
 23 24  2  0
 24 25  1  0
 25 26  2  0
 26 27  1  0
 27 28  2  0
 12  7  1  0
 18 14  1  0
 28 19  1  0
 27 22  1  0
  3 29  1  0
  4 30  1  0
  4 31  1  0
  8 32  1  0
  8 33  1  0
  9 34  1  6
 10 35  1  0
 11 36  1  0
 11 37  1  0
 12 38  1  1
 13 39  1  0
 13 40  1  0
 15 41  1  0
 15 42  1  0
 16 43  1  0
 16 44  1  0
 17 45  1  0
 17 46  1  0
 18 47  1  0
 18 48  1  0
 20 49  1  0
 23 50  1  0
 24 51  1  0
 25 52  1  0
 26 53  1  0
M  END
>  <smiles>  (24) 
O=C(NCC(=O)N1C[C@H](O)C[C@H]1CN1CCCC1)c1cnc2ccccc2n1

>  <score_type>  (24) 
oracle

>  <origin>  (24) 
autodockgpu

>  <m_score__min__energy>  (24) 
-8.4800000000000004

>  <m_primary>  (24) 
energy

>  <rmsd>  (24) 
5.175386326714424

>  <m_score__min__rmsd>  (24) 
5.175386326714424

>  <meeko>  (24) 
{"free_energy": -6.66, "intermolecular_energy": -8.75, "internal_energy": -1.77, "cluster_size": 5, "cluster_id": 3, "rank_in_cluster": 5}

>  <energy>  (24) 
-7.21

>  <cluster_rmsd>  (24) 
1.51

>  <cluster>  (24) 
1

$$$$

     RDKit          3D

 53 56  0  0  0  0  0  0  0  0999 V2000
  138.9390   75.1300  221.5070 O   0  0  0  0  0  0  0  0  0  0  0  0
  140.0730   75.6030  221.8140 C   0  0  0  0  0  0  0  0  0  0  0  0
  141.2330   74.7170  221.6410 N   0  0  0  0  0  0  0  0  0  0  0  0
  140.9330   73.4300  221.1460 C   0  0  0  0  0  0  0  0  0  0  0  0
  140.5410   72.4010  222.0660 C   0  0  0  0  0  0  0  0  0  0  0  0
  141.5260   71.5670  222.3350 O   0  0  0  0  0  0  0  0  0  0  0  0
  139.3440   72.0870  222.7430 N   0  0  0  0  0  0  0  0  0  0  0  0
  138.0180   72.3660  222.1750 C   0  0  0  0  0  0  0  0  0  0  0  0
  137.0900   71.4700  222.9960 C   0  0  2  0  0  0  0  0  0  0  0  0
  136.3030   72.2520  223.8300 O   0  0  0  0  0  0  0  0  0  0  0  0
  138.0380   70.5480  223.7680 C   0  0  0  0  0  0  0  0  0  0  0  0
  139.1810   71.5120  224.0650 C   0  0  1  0  0  0  0  0  0  0  0  0
  140.3880   70.8870  224.5830 C   0  0  0  0  0  0  0  0  0  0  0  0
  140.2960   70.2810  225.8760 N   0  0  0  0  0  0  0  0  0  0  0  0
  140.9870   70.8580  226.9450 C   0  0  0  0  0  0  0  0  0  0  0  0
  141.0660   69.7440  227.9960 C   0  0  0  0  0  0  0  0  0  0  0  0
  141.0910   68.5080  227.1300 C   0  0  0  0  0  0  0  0  0  0  0  0
  140.1930   68.8900  225.9720 C   0  0  0  0  0  0  0  0  0  0  0  0
  140.2580   76.9580  222.3150 C   0  0  0  0  0  0  0  0  0  0  0  0
  139.1210   77.6480  222.6790 C   0  0  0  0  0  0  0  0  0  0  0  0
  139.1710   78.9160  223.1570 N   0  0  0  0  0  0  0  0  0  0  0  0
  140.3530   79.5300  223.2850 C   0  0  0  0  0  0  0  0  0  0  0  0
  140.3850   80.8190  223.7720 C   0  0  0  0  0  0  0  0  0  0  0  0
  141.6360   81.4320  223.8930 C   0  0  0  0  0  0  0  0  0  0  0  0
  142.7770   80.7500  223.5330 C   0  0  0  0  0  0  0  0  0  0  0  0
  142.7350   79.4410  223.0410 C   0  0  0  0  0  0  0  0  0  0  0  0
  141.4820   78.8300  222.9200 C   0  0  0  0  0  0  0  0  0  0  0  0
  141.4310   77.5640  222.4430 N   0  0  0  0  0  0  0  0  0  0  0  0
  142.1110   75.1730  221.8930 H   0  0  0  0  0  0  0  0  0  0  0  0
  140.1109   73.5465  220.4245 H   0  0  0  0  0  0  0  0  0  0  0  0
  141.8935   73.0724  220.7465 H   0  0  0  0  0  0  0  0  0  0  0  0
  137.7519   73.4263  222.2970 H   0  0  0  0  0  0  0  0  0  0  0  0
  137.9619   72.1695  221.0942 H   0  0  0  0  0  0  0  0  0  0  0  0
  136.3848   70.8843  222.3880 H   0  0  0  0  0  0  0  0  0  0  0  0
  136.7740   73.0000  224.2240 H   0  0  0  0  0  0  0  0  0  0  0  0
  137.5748   70.1703  224.6915 H   0  0  0  0  0  0  0  0  0  0  0  0
  138.3347   69.6377  223.2264 H   0  0  0  0  0  0  0  0  0  0  0  0
  138.9738   72.2292  224.8729 H   0  0  0  0  0  0  0  0  0  0  0  0
  140.6907   70.1059  223.8700 H   0  0  0  0  0  0  0  0  0  0  0  0
  141.1102   71.7084  224.7004 H   0  0  0  0  0  0  0  0  0  0  0  0
  141.9945   71.1709  226.6334 H   0  0  0  0  0  0  0  0  0  0  0  0
  140.4878   71.7603  227.3280 H   0  0  0  0  0  0  0  0  0  0  0  0
  141.9805   69.8280  228.6015 H   0  0  0  0  0  0  0  0  0  0  0  0
  140.2443   69.7606  228.7271 H   0  0  0  0  0  0  0  0  0  0  0  0
  142.1116   68.2876  226.7838 H   0  0  0  0  0  0  0  0  0  0  0  0
  140.7595   67.6010  227.6567 H   0  0  0  0  0  0  0  0  0  0  0  0
  140.5365   68.4121  225.0427 H   0  0  0  0  0  0  0  0  0  0  0  0
  139.1546   68.5631  226.1298 H   0  0  0  0  0  0  0  0  0  0  0  0
  138.1431   77.1545  222.5785 H   0  0  0  0  0  0  0  0  0  0  0  0
  139.4615   81.3455  224.0547 H   0  0  0  0  0  0  0  0  0  0  0  0
  141.7088   82.4605  224.2763 H   0  0  0  0  0  0  0  0  0  0  0  0
  143.7515   81.2499  223.6355 H   0  0  0  0  0  0  0  0  0  0  0  0
  143.6561   78.9100  222.7588 H   0  0  0  0  0  0  0  0  0  0  0  0
  1  2  2  0
  2  3  1  0
  3  4  1  0
  4  5  1  0
  5  6  2  0
  5  7  1  0
  7  8  1  0
  8  9  1  0
  9 10  1  0
  9 11  1  0
 11 12  1  0
 12 13  1  0
 13 14  1  0
 14 15  1  0
 15 16  1  0
 16 17  1  0
 17 18  1  0
  2 19  1  0
 19 20  2  0
 20 21  1  0
 21 22  2  0
 22 23  1  0
 23 24  2  0
 24 25  1  0
 25 26  2  0
 26 27  1  0
 27 28  2  0
 12  7  1  0
 18 14  1  0
 28 19  1  0
 27 22  1  0
  3 29  1  0
  4 30  1  0
  4 31  1  0
  8 32  1  0
  8 33  1  0
  9 34  1  6
 10 35  1  0
 11 36  1  0
 11 37  1  0
 12 38  1  1
 13 39  1  0
 13 40  1  0
 15 41  1  0
 15 42  1  0
 16 43  1  0
 16 44  1  0
 17 45  1  0
 17 46  1  0
 18 47  1  0
 18 48  1  0
 20 49  1  0
 23 50  1  0
 24 51  1  0
 25 52  1  0
 26 53  1  0
M  END
>  <smiles>  (25) 
O=C(NCC(=O)N1C[C@H](O)C[C@H]1CN1CCCC1)c1cnc2ccccc2n1

>  <score_type>  (25) 
oracle

>  <origin>  (25) 
autodockgpu

>  <m_score__min__energy>  (25) 
-8.4800000000000004

>  <m_primary>  (25) 
energy

>  <rmsd>  (25) 
8.993230370999077

>  <m_score__min__rmsd>  (25) 
8.993230370999077

>  <meeko>  (25) 
{"free_energy": -7.64, "intermolecular_energy": -9.73, "internal_energy": -1.19, "cluster_size": 2, "cluster_id": 2, "rank_in_cluster": 2}

>  <energy>  (25) 
-8.04

>  <cluster_rmsd>  (25) 
0.0

>  <cluster>  (25) 
2

$$$$

     RDKit          3D

 53 56  0  0  0  0  0  0  0  0999 V2000
  138.6920   70.8580  221.8180 O   0  0  0  0  0  0  0  0  0  0  0  0
  139.2290   71.2700  222.8880 C   0  0  0  0  0  0  0  0  0  0  0  0
  139.6150   72.6880  222.9370 N   0  0  0  0  0  0  0  0  0  0  0  0
  139.3330   73.4240  221.7660 C   0  0  0  0  0  0  0  0  0  0  0  0
  139.9040   74.7300  221.6070 C   0  0  0  0  0  0  0  0  0  0  0  0
  141.2020   74.7410  221.8380 O   0  0  0  0  0  0  0  0  0  0  0  0
  139.3880   75.9960  221.2610 N   0  0  0  0  0  0  0  0  0  0  0  0
  138.1810   76.1610  220.4400 C   0  0  0  0  0  0  0  0  0  0  0  0
  137.7630   77.6050  220.7200 C   0  0  2  0  0  0  0  0  0  0  0  0
  137.9840   78.3830  219.5920 O   0  0  0  0  0  0  0  0  0  0  0  0
  138.6280   78.0280  221.9100 C   0  0  0  0  0  0  0  0  0  0  0  0
  139.9290   77.3060  221.5770 C   0  0  1  0  0  0  0  0  0  0  0  0
  140.9100   77.2890  222.6510 C   0  0  0  0  0  0  0  0  0  0  0  0
  141.7230   78.4580  222.7980 N   0  0  0  0  0  0  0  0  0  0  0  0
  141.7780   79.0920  224.0420 C   0  0  0  0  0  0  0  0  0  0  0  0
  142.3060   80.4980  223.7330 C   0  0  0  0  0  0  0  0  0  0  0  0
  141.7740   80.7240  222.3390 C   0  0  0  0  0  0  0  0  0  0  0  0
  141.8470   79.3430  221.7220 C   0  0  0  0  0  0  0  0  0  0  0  0
  139.4670   70.4100  224.0390 C   0  0  0  0  0  0  0  0  0  0  0  0
  139.0190   69.1080  223.9460 C   0  0  0  0  0  0  0  0  0  0  0  0
  139.1840   68.2180  224.9560 N   0  0  0  0  0  0  0  0  0  0  0  0
  139.7960   68.5990  226.0830 C   0  0  0  0  0  0  0  0  0  0  0  0
  139.9530   67.6810  227.0990 C   0  0  0  0  0  0  0  0  0  0  0  0
  140.5960   68.1110  228.2630 C   0  0  0  0  0  0  0  0  0  0  0  0
  141.0460   69.4090  228.3640 C   0  0  0  0  0  0  0  0  0  0  0  0
  140.8830   70.3340  227.3280 C   0  0  0  0  0  0  0  0  0  0  0  0
  140.2390   69.9010  226.1630 C   0  0  0  0  0  0  0  0  0  0  0  0
  140.0750   70.7890  225.1550 N   0  0  0  0  0  0  0  0  0  0  0  0
  140.0250   72.9490  223.8350 H   0  0  0  0  0  0  0  0  0  0  0  0
  139.6755   72.8175  220.9147 H   0  0  0  0  0  0  0  0  0  0  0  0
  138.2520   73.6169  221.8317 H   0  0  0  0  0  0  0  0  0  0  0  0
  138.4065   76.0154  219.3733 H   0  0  0  0  0  0  0  0  0  0  0  0
  137.3941   75.4302  220.6780 H   0  0  0  0  0  0  0  0  0  0  0  0
  136.6944   77.7201  220.9540 H   0  0  0  0  0  0  0  0  0  0  0  0
  138.8590   78.2600  219.1970 H   0  0  0  0  0  0  0  0  0  0  0  0
  138.7660   79.1188  221.9446 H   0  0  0  0  0  0  0  0  0  0  0  0
  138.2054   77.7811  222.8951 H   0  0  0  0  0  0  0  0  0  0  0  0
  140.5226   77.7799  220.7814 H   0  0  0  0  0  0  0  0  0  0  0  0
  140.3671   77.1397  223.5959 H   0  0  0  0  0  0  0  0  0  0  0  0
  141.6098   76.4813  222.3904 H   0  0  0  0  0  0  0  0  0  0  0  0
  140.7777   79.1435  224.4968 H   0  0  0  0  0  0  0  0  0  0  0  0
  142.4160   78.5535  224.7582 H   0  0  0  0  0  0  0  0  0  0  0  0
  141.9072   81.2406  224.4398 H   0  0  0  0  0  0  0  0  0  0  0  0
  143.3988   80.5931  223.8152 H   0  0  0  0  0  0  0  0  0  0  0  0
  140.7375   81.0915  222.3655 H   0  0  0  0  0  0  0  0  0  0  0  0
  142.3382   81.4821  221.7760 H   0  0  0  0  0  0  0  0  0  0  0  0
  141.0263   79.1964  221.0044 H   0  0  0  0  0  0  0  0  0  0  0  0
  142.7834   79.1882  221.1659 H   0  0  0  0  0  0  0  0  0  0  0  0
  138.5130   68.7823  223.0252 H   0  0  0  0  0  0  0  0  0  0  0  0
  139.5861   66.6490  226.9976 H   0  0  0  0  0  0  0  0  0  0  0  0
  140.7429   67.4120  229.0996 H   0  0  0  0  0  0  0  0  0  0  0  0
  141.5494   69.7279  229.2886 H   0  0  0  0  0  0  0  0  0  0  0  0
  141.2485   71.3669  227.4253 H   0  0  0  0  0  0  0  0  0  0  0  0
  1  2  2  0
  2  3  1  0
  3  4  1  0
  4  5  1  0
  5  6  2  0
  5  7  1  0
  7  8  1  0
  8  9  1  0
  9 10  1  0
  9 11  1  0
 11 12  1  0
 12 13  1  0
 13 14  1  0
 14 15  1  0
 15 16  1  0
 16 17  1  0
 17 18  1  0
  2 19  1  0
 19 20  2  0
 20 21  1  0
 21 22  2  0
 22 23  1  0
 23 24  2  0
 24 25  1  0
 25 26  2  0
 26 27  1  0
 27 28  2  0
 12  7  1  0
 18 14  1  0
 28 19  1  0
 27 22  1  0
  3 29  1  0
  4 30  1  0
  4 31  1  0
  8 32  1  0
  8 33  1  0
  9 34  1  1
 10 35  1  0
 11 36  1  0
 11 37  1  0
 12 38  1  6
 13 39  1  0
 13 40  1  0
 15 41  1  0
 15 42  1  0
 16 43  1  0
 16 44  1  0
 17 45  1  0
 17 46  1  0
 18 47  1  0
 18 48  1  0
 20 49  1  0
 23 50  1  0
 24 51  1  0
 25 52  1  0
 26 53  1  0
M  END
>  <smiles>  (26) 
O=C(NCC(=O)N1C[C@H](O)C[C@H]1CN1CCCC1)c1cnc2ccccc2n1

>  <score_type>  (26) 
oracle

>  <origin>  (26) 
autodockgpu

>  <m_score__min__energy>  (26) 
-8.4800000000000004

>  <m_primary>  (26) 
energy

>  <rmsd>  (26) 
2.3781944192496076

>  <m_score__min__rmsd>  (26) 
2.3781944192496076

>  <meeko>  (26) 
{"free_energy": -7.23, "intermolecular_energy": -9.32, "internal_energy": -1.23, "cluster_size": 24, "cluster_id": 1, "rank_in_cluster": 23}

>  <energy>  (26) 
-7.64

>  <cluster_rmsd>  (26) 
0.54

>  <cluster>  (26) 
2

$$$$

     RDKit          3D

 53 56  0  0  0  0  0  0  0  0999 V2000
  139.0400   74.9980  221.8240 O   0  0  0  0  0  0  0  0  0  0  0  0
  140.1600   75.5740  221.9550 C   0  0  0  0  0  0  0  0  0  0  0  0
  141.3600   74.7690  221.6840 N   0  0  0  0  0  0  0  0  0  0  0  0
  141.1090   73.4330  221.3050 C   0  0  0  0  0  0  0  0  0  0  0  0
  142.1750   72.6530  220.7450 C   0  0  0  0  0  0  0  0  0  0  0  0
  142.0020   71.3600  220.9320 O   0  0  0  0  0  0  0  0  0  0  0  0
  143.3590   72.9620  220.0430 N   0  0  0  0  0  0  0  0  0  0  0  0
  144.6000   72.1950  220.2110 C   0  0  0  0  0  0  0  0  0  0  0  0
  145.4130   72.5690  218.9700 C   0  0  2  0  0  0  0  0  0  0  0  0
  146.4880   73.3650  219.3380 O   0  0  0  0  0  0  0  0  0  0  0  0
  144.4150   73.3020  218.0700 C   0  0  0  0  0  0  0  0  0  0  0  0
  143.5970   74.0520  219.1150 C   0  0  1  0  0  0  0  0  0  0  0  0
  142.3790   74.6670  218.6120 C   0  0  0  0  0  0  0  0  0  0  0  0
  142.3430   76.0980  218.5840 N   0  0  0  0  0  0  0  0  0  0  0  0
  142.8010   76.8080  219.6980 C   0  0  0  0  0  0  0  0  0  0  0  0
  142.1940   78.2060  219.5360 C   0  0  0  0  0  0  0  0  0  0  0  0
  140.9110   77.9000  218.8040 C   0  0  0  0  0  0  0  0  0  0  0  0
  141.3010   76.7420  217.9100 C   0  0  0  0  0  0  0  0  0  0  0  0
  140.2930   76.9700  222.3510 C   0  0  0  0  0  0  0  0  0  0  0  0
  139.1250   77.6880  222.5020 C   0  0  0  0  0  0  0  0  0  0  0  0
  139.1270   78.9940  222.8660 N   0  0  0  0  0  0  0  0  0  0  0  0
  140.2890   79.6190  223.0880 C   0  0  0  0  0  0  0  0  0  0  0  0
  140.2700   80.9480  223.4560 C   0  0  0  0  0  0  0  0  0  0  0  0
  141.5010   81.5720  223.6790 C   0  0  0  0  0  0  0  0  0  0  0  0
  142.6720   80.8620  223.5310 C   0  0  0  0  0  0  0  0  0  0  0  0
  142.6810   79.5140  223.1580 C   0  0  0  0  0  0  0  0  0  0  0  0
  141.4480   78.8920  222.9340 C   0  0  0  0  0  0  0  0  0  0  0  0
  141.4460   77.5870  222.5720 N   0  0  0  0  0  0  0  0  0  0  0  0
  142.2210   75.3050  221.7940 H   0  0  0  0  0  0  0  0  0  0  0  0
  140.7613   72.9036  222.2043 H   0  0  0  0  0  0  0  0  0  0  0  0
  140.3900   73.5261  220.4777 H   0  0  0  0  0  0  0  0  0  0  0  0
  145.1254   72.4914  221.1308 H   0  0  0  0  0  0  0  0  0  0  0  0
  144.4287   71.1124  220.3043 H   0  0  0  0  0  0  0  0  0  0  0  0
  145.8497   71.7049  218.4478 H   0  0  0  0  0  0  0  0  0  0  0  0
  146.2920   74.3130  219.3430 H   0  0  0  0  0  0  0  0  0  0  0  0
  144.9218   73.9919  217.3792 H   0  0  0  0  0  0  0  0  0  0  0  0
  143.8263   72.6476  217.4103 H   0  0  0  0  0  0  0  0  0  0  0  0
  144.0979   74.9356  219.5373 H   0  0  0  0  0  0  0  0  0  0  0  0
  142.2263   74.3100  217.5828 H   0  0  0  0  0  0  0  0  0  0  0  0
  141.5929   74.3729  219.3230 H   0  0  0  0  0  0  0  0  0  0  0  0
  142.4523   76.3379  220.6293 H   0  0  0  0  0  0  0  0  0  0  0  0
  143.8991   76.8323  219.7569 H   0  0  0  0  0  0  0  0  0  0  0  0
  141.9970   78.6731  220.5122 H   0  0  0  0  0  0  0  0  0  0  0  0
  142.8479   78.9185  219.0118 H   0  0  0  0  0  0  0  0  0  0  0  0
  140.1150   77.6084  219.5050 H   0  0  0  0  0  0  0  0  0  0  0  0
  140.5104   78.7616  218.2497 H   0  0  0  0  0  0  0  0  0  0  0  0
  140.4506   76.0584  217.7700 H   0  0  0  0  0  0  0  0  0  0  0  0
  141.6037   77.0784  216.9074 H   0  0  0  0  0  0  0  0  0  0  0  0
  138.1630   77.1859  222.3217 H   0  0  0  0  0  0  0  0  0  0  0  0
  139.3229   81.4958  223.5696 H   0  0  0  0  0  0  0  0  0  0  0  0
  141.5345   82.6314  223.9731 H   0  0  0  0  0  0  0  0  0  0  0  0
  143.6302   81.3711  223.7118 H   0  0  0  0  0  0  0  0  0  0  0  0
  143.6255   78.9616  223.0446 H   0  0  0  0  0  0  0  0  0  0  0  0
  1  2  2  0
  2  3  1  0
  3  4  1  0
  4  5  1  0
  5  6  2  0
  5  7  1  0
  7  8  1  0
  8  9  1  0
  9 10  1  0
  9 11  1  0
 11 12  1  0
 12 13  1  0
 13 14  1  0
 14 15  1  0
 15 16  1  0
 16 17  1  0
 17 18  1  0
  2 19  1  0
 19 20  2  0
 20 21  1  0
 21 22  2  0
 22 23  1  0
 23 24  2  0
 24 25  1  0
 25 26  2  0
 26 27  1  0
 27 28  2  0
 12  7  1  0
 18 14  1  0
 28 19  1  0
 27 22  1  0
  3 29  1  0
  4 30  1  0
  4 31  1  0
  8 32  1  0
  8 33  1  0
  9 34  1  6
 10 35  1  0
 11 36  1  0
 11 37  1  0
 12 38  1  1
 13 39  1  0
 13 40  1  0
 15 41  1  0
 15 42  1  0
 16 43  1  0
 16 44  1  0
 17 45  1  0
 17 46  1  0
 18 47  1  0
 18 48  1  0
 20 49  1  0
 23 50  1  0
 24 51  1  0
 25 52  1  0
 26 53  1  0
M  END
>  <smiles>  (27) 
O=C(NCC(=O)N1C[C@H](O)C[C@H]1CN1CCCC1)c1cnc2ccccc2n1

>  <score_type>  (27) 
oracle

>  <origin>  (27) 
autodockgpu

>  <m_score__min__energy>  (27) 
-8.4800000000000004

>  <m_primary>  (27) 
energy

>  <rmsd>  (27) 
7.010947542590705

>  <m_score__min__rmsd>  (27) 
7.010947542590705

>  <meeko>  (27) 
{"free_energy": -6.61, "intermolecular_energy": -8.7, "internal_energy": -2.32, "cluster_size": 12, "cluster_id": 8, "rank_in_cluster": 1}

>  <energy>  (27) 
-7.58

>  <cluster_rmsd>  (27) 
0.0

>  <cluster>  (27) 
3

$$$$

     RDKit          3D

 53 56  0  0  0  0  0  0  0  0999 V2000
  140.8210   71.6950  221.4030 O   0  0  0  0  0  0  0  0  0  0  0  0
  140.2820   72.1960  222.4340 C   0  0  0  0  0  0  0  0  0  0  0  0
  139.7510   73.5610  222.3120 N   0  0  0  0  0  0  0  0  0  0  0  0
  139.9110   74.1520  221.0410 C   0  0  0  0  0  0  0  0  0  0  0  0
  141.1410   74.8250  220.7340 C   0  0  0  0  0  0  0  0  0  0  0  0
  142.1970   74.0700  220.9660 O   0  0  0  0  0  0  0  0  0  0  0  0
  141.4680   76.1050  220.2410 N   0  0  0  0  0  0  0  0  0  0  0  0
  141.9040   76.3330  218.8570 C   0  0  0  0  0  0  0  0  0  0  0  0
  141.6900   77.8350  218.6650 C   0  0  2  0  0  0  0  0  0  0  0  0
  142.9180   78.4760  218.5890 O   0  0  0  0  0  0  0  0  0  0  0  0
  140.8730   78.2610  219.8880 C   0  0  0  0  0  0  0  0  0  0  0  0
  141.4900   77.3670  220.9590 C   0  0  1  0  0  0  0  0  0  0  0  0
  140.7660   77.3350  222.2190 C   0  0  0  0  0  0  0  0  0  0  0  0
  140.8520   78.5040  223.0410 N   0  0  0  0  0  0  0  0  0  0  0  0
  139.9090   79.5210  222.8740 C   0  0  0  0  0  0  0  0  0  0  0  0
  140.5540   80.7520  223.5210 C   0  0  0  0  0  0  0  0  0  0  0  0
  142.0220   80.4830  223.2950 C   0  0  0  0  0  0  0  0  0  0  0  0
  142.1120   78.9770  223.4240 C   0  0  0  0  0  0  0  0  0  0  0  0
  140.1710   71.4800  223.6980 C   0  0  0  0  0  0  0  0  0  0  0  0
  139.4840   70.2840  223.6790 C   0  0  0  0  0  0  0  0  0  0  0  0
  139.3160   69.5340  224.7950 N   0  0  0  0  0  0  0  0  0  0  0  0
  139.8260   69.9520  225.9590 C   0  0  0  0  0  0  0  0  0  0  0  0
  139.6450   69.1760  227.0840 C   0  0  0  0  0  0  0  0  0  0  0  0
  140.1890   69.6430  228.2840 C   0  0  0  0  0  0  0  0  0  0  0  0
  140.8760   70.8360  228.3120 C   0  0  0  0  0  0  0  0  0  0  0  0
  141.0570   71.6170  227.1660 C   0  0  0  0  0  0  0  0  0  0  0  0
  140.5100   71.1480  225.9660 C   0  0  0  0  0  0  0  0  0  0  0  0
  140.6780   71.8970  224.8510 N   0  0  0  0  0  0  0  0  0  0  0  0
  139.3180   73.8880  223.1770 H   0  0  0  0  0  0  0  0  0  0  0  0
  139.7872   73.3520  220.2962 H   0  0  0  0  0  0  0  0  0  0  0  0
  139.1612   74.9568  221.0292 H   0  0  0  0  0  0  0  0  0  0  0  0
  142.9633   76.0661  218.7283 H   0  0  0  0  0  0  0  0  0  0  0  0
  141.3540   75.7224  218.1258 H   0  0  0  0  0  0  0  0  0  0  0  0
  141.1639   78.0939  217.7343 H   0  0  0  0  0  0  0  0  0  0  0  0
  143.5260   78.2450  219.3050 H   0  0  0  0  0  0  0  0  0  0  0  0
  141.0132   79.3273  220.1188 H   0  0  0  0  0  0  0  0  0  0  0  0
  139.7844   78.1536  219.7723 H   0  0  0  0  0  0  0  0  0  0  0  0
  142.4780   77.6954  221.3140 H   0  0  0  0  0  0  0  0  0  0  0  0
  139.7036   77.1673  221.9885 H   0  0  0  0  0  0  0  0  0  0  0  0
  141.2416   76.5346  222.8049 H   0  0  0  0  0  0  0  0  0  0  0  0
  139.7148   79.6997  221.8061 H   0  0  0  0  0  0  0  0  0  0  0  0
  138.9385   79.2703  223.3271 H   0  0  0  0  0  0  0  0  0  0  0  0
  140.2352   81.6798  223.0235 H   0  0  0  0  0  0  0  0  0  0  0  0
  140.2837   80.8941  224.5778 H   0  0  0  0  0  0  0  0  0  0  0  0
  142.3358   80.8142  222.2941 H   0  0  0  0  0  0  0  0  0  0  0  0
  142.6759   81.0197  223.9981 H   0  0  0  0  0  0  0  0  0  0  0  0
  142.8928   78.5782  222.7597 H   0  0  0  0  0  0  0  0  0  0  0  0
  142.3772   78.6652  224.4450 H   0  0  0  0  0  0  0  0  0  0  0  0
  139.0595   69.9281  222.7287 H   0  0  0  0  0  0  0  0  0  0  0  0
  139.0934   68.2254  227.0390 H   0  0  0  0  0  0  0  0  0  0  0  0
  140.0681   69.0568  229.2069 H   0  0  0  0  0  0  0  0  0  0  0  0
  141.2960   71.1861  229.2665 H   0  0  0  0  0  0  0  0  0  0  0  0
  141.6101   72.5670  227.2063 H   0  0  0  0  0  0  0  0  0  0  0  0
  1  2  2  0
  2  3  1  0
  3  4  1  0
  4  5  1  0
  5  6  2  0
  5  7  1  0
  7  8  1  0
  8  9  1  0
  9 10  1  0
  9 11  1  0
 11 12  1  0
 12 13  1  0
 13 14  1  0
 14 15  1  0
 15 16  1  0
 16 17  1  0
 17 18  1  0
  2 19  1  0
 19 20  2  0
 20 21  1  0
 21 22  2  0
 22 23  1  0
 23 24  2  0
 24 25  1  0
 25 26  2  0
 26 27  1  0
 27 28  2  0
 12  7  1  0
 18 14  1  0
 28 19  1  0
 27 22  1  0
  3 29  1  0
  4 30  1  0
  4 31  1  0
  8 32  1  0
  8 33  1  0
  9 34  1  6
 10 35  1  0
 11 36  1  0
 11 37  1  0
 12 38  1  1
 13 39  1  0
 13 40  1  0
 15 41  1  0
 15 42  1  0
 16 43  1  0
 16 44  1  0
 17 45  1  0
 17 46  1  0
 18 47  1  0
 18 48  1  0
 20 49  1  0
 23 50  1  0
 24 51  1  0
 25 52  1  0
 26 53  1  0
M  END
>  <smiles>  (28) 
O=C(NCC(=O)N1C[C@H](O)C[C@H]1CN1CCCC1)c1cnc2ccccc2n1

>  <score_type>  (28) 
oracle

>  <origin>  (28) 
autodockgpu

>  <m_score__min__energy>  (28) 
-8.4800000000000004

>  <m_primary>  (28) 
energy

>  <rmsd>  (28) 
2.212761803020003

>  <m_score__min__rmsd>  (28) 
2.212761803020003

>  <meeko>  (28) 
{"free_energy": -8.0, "intermolecular_energy": -10.09, "internal_energy": -1.16, "cluster_size": 24, "cluster_id": 1, "rank_in_cluster": 11}

>  <energy>  (28) 
-7.55

>  <cluster_rmsd>  (28) 
0.19

>  <cluster>  (28) 
3

$$$$

     RDKit          3D

 53 56  0  0  0  0  0  0  0  0999 V2000
  140.8860   72.2600  221.7190 O   0  0  0  0  0  0  0  0  0  0  0  0
  139.9720   72.2900  222.5940 C   0  0  0  0  0  0  0  0  0  0  0  0
  138.8210   73.1650  222.3270 N   0  0  0  0  0  0  0  0  0  0  0  0
  138.8820   73.8730  221.1080 C   0  0  0  0  0  0  0  0  0  0  0  0
  139.2870   75.2490  221.1190 C   0  0  0  0  0  0  0  0  0  0  0  0
  138.2920   76.0630  221.4140 O   0  0  0  0  0  0  0  0  0  0  0  0
  140.5060   75.9210  220.8860 N   0  0  0  0  0  0  0  0  0  0  0  0
  141.3950   75.5800  219.7680 C   0  0  0  0  0  0  0  0  0  0  0  0
  142.2910   76.8130  219.6460 C   0  0  2  0  0  0  0  0  0  0  0  0
  143.5780   76.4990  220.0610 O   0  0  0  0  0  0  0  0  0  0  0  0
  141.6200   77.8610  220.5380 C   0  0  0  0  0  0  0  0  0  0  0  0
  141.1170   76.9750  221.6740 C   0  0  1  0  0  0  0  0  0  0  0  0
  140.1970   77.6260  222.5940 C   0  0  0  0  0  0  0  0  0  0  0  0
  140.6630   78.8180  223.2350 N   0  0  0  0  0  0  0  0  0  0  0  0
  140.3080   80.0580  222.6990 C   0  0  0  0  0  0  0  0  0  0  0  0
  141.3220   81.0390  223.3000 C   0  0  0  0  0  0  0  0  0  0  0  0
  142.5330   80.1560  223.4780 C   0  0  0  0  0  0  0  0  0  0  0  0
  141.9240   78.8180  223.8400 C   0  0  0  0  0  0  0  0  0  0  0  0
  140.0210   71.5040  223.8200 C   0  0  0  0  0  0  0  0  0  0  0  0
  139.4620   70.2440  223.7750 C   0  0  0  0  0  0  0  0  0  0  0  0
  139.4480   69.4250  224.8560 N   0  0  0  0  0  0  0  0  0  0  0  0
  139.9890   69.8370  226.0080 C   0  0  0  0  0  0  0  0  0  0  0  0
  139.9650   68.9910  227.0960 C   0  0  0  0  0  0  0  0  0  0  0  0
  140.5370   69.4530  228.2840 C   0  0  0  0  0  0  0  0  0  0  0  0
  141.0980   70.7090  228.3380 C   0  0  0  0  0  0  0  0  0  0  0  0
  141.1190   71.5610  227.2290 C   0  0  0  0  0  0  0  0  0  0  0  0
  140.5440   71.0970  226.0400 C   0  0  0  0  0  0  0  0  0  0  0  0
  140.5590   71.9150  224.9610 N   0  0  0  0  0  0  0  0  0  0  0  0
  138.1200   73.1230  223.0670 H   0  0  0  0  0  0  0  0  0  0  0  0
  139.5882   73.3350  220.4585 H   0  0  0  0  0  0  0  0  0  0  0  0
  137.8347   73.9105  220.7738 H   0  0  0  0  0  0  0  0  0  0  0  0
  141.9883   74.6821  219.9955 H   0  0  0  0  0  0  0  0  0  0  0  0
  140.8518   75.3478  218.8401 H   0  0  0  0  0  0  0  0  0  0  0  0
  142.3951   77.1858  218.6164 H   0  0  0  0  0  0  0  0  0  0  0  0
  144.1070   77.2690  220.3130 H   0  0  0  0  0  0  0  0  0  0  0  0
  142.3403   78.6113  220.8961 H   0  0  0  0  0  0  0  0  0  0  0  0
  140.8404   78.4564  220.0403 H   0  0  0  0  0  0  0  0  0  0  0  0
  141.8962   76.6503  222.3793 H   0  0  0  0  0  0  0  0  0  0  0  0
  139.2889   77.8845  222.0296 H   0  0  0  0  0  0  0  0  0  0  0  0
  140.0426   76.9023  223.4079 H   0  0  0  0  0  0  0  0  0  0  0  0
  140.3839   80.0436  221.6017 H   0  0  0  0  0  0  0  0  0  0  0  0
  139.2691   80.3336  222.9332 H   0  0  0  0  0  0  0  0  0  0  0  0
  141.5305   81.8718  222.6122 H   0  0  0  0  0  0  0  0  0  0  0  0
  140.9808   81.5215  224.2278 H   0  0  0  0  0  0  0  0  0  0  0  0
  143.1137   80.0877  222.5462 H   0  0  0  0  0  0  0  0  0  0  0  0
  143.2380   80.5318  224.2341 H   0  0  0  0  0  0  0  0  0  0  0  0
  142.5400   77.9946  223.4495 H   0  0  0  0  0  0  0  0  0  0  0  0
  141.8596   78.6746  224.9287 H   0  0  0  0  0  0  0  0  0  0  0  0
  139.0139   69.8926  222.8338 H   0  0  0  0  0  0  0  0  0  0  0  0
  139.5128   67.9903  227.0314 H   0  0  0  0  0  0  0  0  0  0  0  0
  140.5391   68.8119  229.1779 H   0  0  0  0  0  0  0  0  0  0  0  0
  141.5437   71.0533  229.2829 H   0  0  0  0  0  0  0  0  0  0  0  0
  141.5719   72.5616  227.2891 H   0  0  0  0  0  0  0  0  0  0  0  0
  1  2  2  0
  2  3  1  0
  3  4  1  0
  4  5  1  0
  5  6  2  0
  5  7  1  0
  7  8  1  0
  8  9  1  0
  9 10  1  0
  9 11  1  0
 11 12  1  0
 12 13  1  0
 13 14  1  0
 14 15  1  0
 15 16  1  0
 16 17  1  0
 17 18  1  0
  2 19  1  0
 19 20  2  0
 20 21  1  0
 21 22  2  0
 22 23  1  0
 23 24  2  0
 24 25  1  0
 25 26  2  0
 26 27  1  0
 27 28  2  0
 12  7  1  0
 18 14  1  0
 28 19  1  0
 27 22  1  0
  3 29  1  0
  4 30  1  0
  4 31  1  0
  8 32  1  0
  8 33  1  0
  9 34  1  6
 10 35  1  0
 11 36  1  0
 11 37  1  0
 12 38  1  1
 13 39  1  0
 13 40  1  0
 15 41  1  0
 15 42  1  0
 16 43  1  0
 16 44  1  0
 17 45  1  0
 17 46  1  0
 18 47  1  0
 18 48  1  0
 20 49  1  0
 23 50  1  0
 24 51  1  0
 25 52  1  0
 26 53  1  0
M  END
>  <smiles>  (29) 
O=C(NCC(=O)N1C[C@H](O)C[C@H]1CN1CCCC1)c1cnc2ccccc2n1

>  <score_type>  (29) 
oracle

>  <origin>  (29) 
autodockgpu

>  <m_score__min__energy>  (29) 
-8.4800000000000004

>  <m_primary>  (29) 
energy

>  <rmsd>  (29) 
2.2833981348497976

>  <m_score__min__rmsd>  (29) 
2.2833981348497976

>  <meeko>  (29) 
{"free_energy": -8.24, "intermolecular_energy": -10.32, "internal_energy": -1.09, "cluster_size": 24, "cluster_id": 1, "rank_in_cluster": 4}

>  <energy>  (29) 
-7.4

>  <cluster_rmsd>  (29) 
0.89

>  <cluster>  (29) 
3

$$$$

     RDKit          3D

 53 56  0  0  0  0  0  0  0  0999 V2000
  140.7980   71.5590  221.3310 O   0  0  0  0  0  0  0  0  0  0  0  0
  140.3520   72.1150  222.3780 C   0  0  0  0  0  0  0  0  0  0  0  0
  139.9520   73.5250  222.2650 N   0  0  0  0  0  0  0  0  0  0  0  0
  140.1180   74.0910  220.9830 C   0  0  0  0  0  0  0  0  0  0  0  0
  141.4260   74.5090  220.5680 C   0  0  0  0  0  0  0  0  0  0  0  0
  142.3830   73.9090  221.2460 O   0  0  0  0  0  0  0  0  0  0  0  0
  141.9110   75.4150  219.6020 N   0  0  0  0  0  0  0  0  0  0  0  0
  142.5850   74.9740  218.3730 C   0  0  0  0  0  0  0  0  0  0  0  0
  142.5010   76.2040  217.4680 C   0  0  2  0  0  0  0  0  0  0  0  0
  143.7640   76.7620  217.3190 O   0  0  0  0  0  0  0  0  0  0  0  0
  141.5220   77.1380  218.1850 C   0  0  0  0  0  0  0  0  0  0  0  0
  141.8940   76.8660  219.6390 C   0  0  1  0  0  0  0  0  0  0  0  0
  140.9690   77.4150  220.6180 C   0  0  0  0  0  0  0  0  0  0  0  0
  141.5430   78.1520  221.7030 N   0  0  0  0  0  0  0  0  0  0  0  0
  141.1150   77.8820  223.0050 C   0  0  0  0  0  0  0  0  0  0  0  0
  141.5400   79.1150  223.8110 C   0  0  0  0  0  0  0  0  0  0  0  0
  141.4660   80.2030  222.7670 C   0  0  0  0  0  0  0  0  0  0  0  0
  141.9010   79.4890  221.5050 C   0  0  0  0  0  0  0  0  0  0  0  0
  140.2240   71.4200  223.6520 C   0  0  0  0  0  0  0  0  0  0  0  0
  139.5660   70.2080  223.6370 C   0  0  0  0  0  0  0  0  0  0  0  0
  139.3850   69.4740  224.7620 N   0  0  0  0  0  0  0  0  0  0  0  0
  139.8530   69.9260  225.9310 C   0  0  0  0  0  0  0  0  0  0  0  0
  139.6590   69.1660  227.0650 C   0  0  0  0  0  0  0  0  0  0  0  0
  140.1590   69.6680  228.2700 C   0  0  0  0  0  0  0  0  0  0  0  0
  140.8170   70.8770  228.2950 C   0  0  0  0  0  0  0  0  0  0  0  0
  141.0100   71.6410  227.1390 C   0  0  0  0  0  0  0  0  0  0  0  0
  140.5080   71.1370  225.9340 C   0  0  0  0  0  0  0  0  0  0  0  0
  140.6890   71.8700  224.8090 N   0  0  0  0  0  0  0  0  0  0  0  0
  139.5880   73.8970  223.1430 H   0  0  0  0  0  0  0  0  0  0  0  0
  139.7730   73.3430  220.2540 H   0  0  0  0  0  0  0  0  0  0  0  0
  139.5468   75.0297  221.0348 H   0  0  0  0  0  0  0  0  0  0  0  0
  143.6320   74.7022  218.5730 H   0  0  0  0  0  0  0  0  0  0  0  0
  142.1273   74.0785  217.9275 H   0  0  0  0  0  0  0  0  0  0  0  0
  142.1531   75.9819  216.4484 H   0  0  0  0  0  0  0  0  0  0  0  0
  144.4790   76.2130  217.6720 H   0  0  0  0  0  0  0  0  0  0  0  0
  141.6909   78.1902  217.9125 H   0  0  0  0  0  0  0  0  0  0  0  0
  140.4629   76.9661  217.9426 H   0  0  0  0  0  0  0  0  0  0  0  0
  142.8286   77.3438  219.9681 H   0  0  0  0  0  0  0  0  0  0  0  0
  140.2807   78.0878  220.0854 H   0  0  0  0  0  0  0  0  0  0  0  0
  140.4894   76.5415  221.0839 H   0  0  0  0  0  0  0  0  0  0  0  0
  140.0230   77.7539  223.0368 H   0  0  0  0  0  0  0  0  0  0  0  0
  141.5469   76.9521  223.4034 H   0  0  0  0  0  0  0  0  0  0  0  0
  140.8465   79.3092  224.6425 H   0  0  0  0  0  0  0  0  0  0  0  0
  142.5270   79.0191  224.2870 H   0  0  0  0  0  0  0  0  0  0  0  0
  140.4407   80.5896  222.6699 H   0  0  0  0  0  0  0  0  0  0  0  0
  142.0865   81.0790  223.0070 H   0  0  0  0  0  0  0  0  0  0  0  0
  141.3811   79.9025  220.6282 H   0  0  0  0  0  0  0  0  0  0  0  0
  142.9785   79.6042  221.3160 H   0  0  0  0  0  0  0  0  0  0  0  0
  139.1760   69.8251  222.6824 H   0  0  0  0  0  0  0  0  0  0  0  0
  139.1311   68.2018  227.0231 H   0  0  0  0  0  0  0  0  0  0  0  0
  140.0264   69.0959  229.2001 H   0  0  0  0  0  0  0  0  0  0  0  0
  141.2030   71.2540  229.2536 H   0  0  0  0  0  0  0  0  0  0  0  0
  141.5384   72.6051  227.1761 H   0  0  0  0  0  0  0  0  0  0  0  0
  1  2  2  0
  2  3  1  0
  3  4  1  0
  4  5  1  0
  5  6  2  0
  5  7  1  0
  7  8  1  0
  8  9  1  0
  9 10  1  0
  9 11  1  0
 11 12  1  0
 12 13  1  0
 13 14  1  0
 14 15  1  0
 15 16  1  0
 16 17  1  0
 17 18  1  0
  2 19  1  0
 19 20  2  0
 20 21  1  0
 21 22  2  0
 22 23  1  0
 23 24  2  0
 24 25  1  0
 25 26  2  0
 26 27  1  0
 27 28  2  0
 12  7  1  0
 18 14  1  0
 28 19  1  0
 27 22  1  0
  3 29  1  0
  4 30  1  0
  4 31  1  0
  8 32  1  0
  8 33  1  0
  9 34  1  6
 10 35  1  0
 11 36  1  0
 11 37  1  0
 12 38  1  1
 13 39  1  0
 13 40  1  0
 15 41  1  0
 15 42  1  0
 16 43  1  0
 16 44  1  0
 17 45  1  0
 17 46  1  0
 18 47  1  0
 18 48  1  0
 20 49  1  0
 23 50  1  0
 24 51  1  0
 25 52  1  0
 26 53  1  0
M  END
>  <smiles>  (30) 
O=C(NCC(=O)N1C[C@H](O)C[C@H]1CN1CCCC1)c1cnc2ccccc2n1

>  <score_type>  (30) 
oracle

>  <origin>  (30) 
autodockgpu

>  <m_score__min__energy>  (30) 
-8.4800000000000004

>  <m_primary>  (30) 
energy

>  <rmsd>  (30) 
1.9732501013180848

>  <m_score__min__rmsd>  (30) 
1.9732501013180848

>  <meeko>  (30) 
{"free_energy": -7.39, "intermolecular_energy": -9.48, "internal_energy": -1.21, "cluster_size": 24, "cluster_id": 1, "rank_in_cluster": 21}

>  <energy>  (30) 
-7.38

>  <cluster_rmsd>  (30) 
1.03

>  <cluster>  (30) 
3

$$$$

     RDKit          3D

 53 56  0  0  0  0  0  0  0  0999 V2000
  141.2820   72.7560  221.9590 O   0  0  0  0  0  0  0  0  0  0  0  0
  140.2410   72.6410  222.6700 C   0  0  0  0  0  0  0  0  0  0  0  0
  139.1130   73.5290  222.3500 N   0  0  0  0  0  0  0  0  0  0  0  0
  139.3370   74.4110  221.2710 C   0  0  0  0  0  0  0  0  0  0  0  0
  140.3610   75.4090  221.3870 C   0  0  0  0  0  0  0  0  0  0  0  0
  140.3640   75.9910  222.5690 O   0  0  0  0  0  0  0  0  0  0  0  0
  141.3600   75.9020  220.5200 N   0  0  0  0  0  0  0  0  0  0  0  0
  142.0170   75.0610  219.5110 C   0  0  0  0  0  0  0  0  0  0  0  0
  142.6330   76.0810  218.5530 C   0  0  2  0  0  0  0  0  0  0  0  0
  144.0150   76.0680  218.6830 O   0  0  0  0  0  0  0  0  0  0  0  0
  142.0110   77.4170  218.9690 C   0  0  0  0  0  0  0  0  0  0  0  0
  141.9420   77.2310  220.4810 C   0  0  1  0  0  0  0  0  0  0  0  0
  141.1570   78.2330  221.1840 C   0  0  0  0  0  0  0  0  0  0  0  0
  141.8850   79.2210  221.9220 N   0  0  0  0  0  0  0  0  0  0  0  0
  142.0720   79.0380  223.2940 C   0  0  0  0  0  0  0  0  0  0  0  0
  142.4320   80.4330  223.8200 C   0  0  0  0  0  0  0  0  0  0  0  0
  141.6830   81.3240  222.8600 C   0  0  0  0  0  0  0  0  0  0  0  0
  141.7760   80.5650  221.5530 C   0  0  0  0  0  0  0  0  0  0  0  0
  140.1270   71.6830  223.7620 C   0  0  0  0  0  0  0  0  0  0  0  0
  139.4340   70.5200  223.4990 C   0  0  0  0  0  0  0  0  0  0  0  0
  139.2630   69.5580  224.4390 N   0  0  0  0  0  0  0  0  0  0  0  0
  139.7760   69.7270  225.6630 C   0  0  0  0  0  0  0  0  0  0  0  0
  139.5910   68.7380  226.6060 C   0  0  0  0  0  0  0  0  0  0  0  0
  140.1380   68.9480  227.8750 C   0  0  0  0  0  0  0  0  0  0  0  0
  140.8320   70.1060  228.1460 C   0  0  0  0  0  0  0  0  0  0  0  0
  141.0150   71.1040  227.1830 C   0  0  0  0  0  0  0  0  0  0  0  0
  140.4660   70.8930  225.9130 C   0  0  0  0  0  0  0  0  0  0  0  0
  140.6370   71.8530  224.9740 N   0  0  0  0  0  0  0  0  0  0  0  0
  138.3070   73.3660  222.9530 H   0  0  0  0  0  0  0  0  0  0  0  0
  139.5877   73.7926  220.3965 H   0  0  0  0  0  0  0  0  0  0  0  0
  138.4066   74.9948  221.2112 H   0  0  0  0  0  0  0  0  0  0  0  0
  142.7936   74.4303  219.9683 H   0  0  0  0  0  0  0  0  0  0  0  0
  141.3258   74.3647  219.0135 H   0  0  0  0  0  0  0  0  0  0  0  0
  142.4335   75.8713  217.4918 H   0  0  0  0  0  0  0  0  0  0  0  0
  144.4860   75.9470  217.8460 H   0  0  0  0  0  0  0  0  0  0  0  0
  142.6522   78.2672  218.6930 H   0  0  0  0  0  0  0  0  0  0  0  0
  141.0470   77.6433  218.4900 H   0  0  0  0  0  0  0  0  0  0  0  0
  142.9059   77.3436  220.9989 H   0  0  0  0  0  0  0  0  0  0  0  0
  140.5439   78.7595  220.4378 H   0  0  0  0  0  0  0  0  0  0  0  0
  140.5843   77.6736  221.9384 H   0  0  0  0  0  0  0  0  0  0  0  0
  141.1495   78.6700  223.7668 H   0  0  0  0  0  0  0  0  0  0  0  0
  142.8506   78.2930  223.5151 H   0  0  0  0  0  0  0  0  0  0  0  0
  142.0832   80.5742  224.8536 H   0  0  0  0  0  0  0  0  0  0  0  0
  143.5135   80.6297  223.8608 H   0  0  0  0  0  0  0  0  0  0  0  0
  140.6355   81.4493  223.1714 H   0  0  0  0  0  0  0  0  0  0  0  0
  142.0939   82.3427  222.8014 H   0  0  0  0  0  0  0  0  0  0  0  0
  140.8728   80.7274  220.9465 H   0  0  0  0  0  0  0  0  0  0  0  0
  142.6290   80.8963  220.9426 H   0  0  0  0  0  0  0  0  0  0  0  0
  139.0072   70.3683  222.4966 H   0  0  0  0  0  0  0  0  0  0  0  0
  139.0345   67.8193  226.3687 H   0  0  0  0  0  0  0  0  0  0  0  0
  140.0138   68.1865  228.6590 H   0  0  0  0  0  0  0  0  0  0  0  0
  141.2556   70.2508  229.1508 H   0  0  0  0  0  0  0  0  0  0  0  0
  141.5717   72.0237  227.4161 H   0  0  0  0  0  0  0  0  0  0  0  0
  1  2  2  0
  2  3  1  0
  3  4  1  0
  4  5  1  0
  5  6  2  0
  5  7  1  0
  7  8  1  0
  8  9  1  0
  9 10  1  0
  9 11  1  0
 11 12  1  0
 12 13  1  0
 13 14  1  0
 14 15  1  0
 15 16  1  0
 16 17  1  0
 17 18  1  0
  2 19  1  0
 19 20  2  0
 20 21  1  0
 21 22  2  0
 22 23  1  0
 23 24  2  0
 24 25  1  0
 25 26  2  0
 26 27  1  0
 27 28  2  0
 12  7  1  0
 18 14  1  0
 28 19  1  0
 27 22  1  0
  3 29  1  0
  4 30  1  0
  4 31  1  0
  8 32  1  0
  8 33  1  0
  9 34  1  6
 10 35  1  0
 11 36  1  0
 11 37  1  0
 12 38  1  1
 13 39  1  0
 13 40  1  0
 15 41  1  0
 15 42  1  0
 16 43  1  0
 16 44  1  0
 17 45  1  0
 17 46  1  0
 18 47  1  0
 18 48  1  0
 20 49  1  0
 23 50  1  0
 24 51  1  0
 25 52  1  0
 26 53  1  0
M  END
>  <smiles>  (31) 
O=C(NCC(=O)N1C[C@H](O)C[C@H]1CN1CCCC1)c1cnc2ccccc2n1

>  <score_type>  (31) 
oracle

>  <origin>  (31) 
autodockgpu

>  <m_score__min__energy>  (31) 
-8.4800000000000004

>  <m_primary>  (31) 
energy

>  <rmsd>  (31) 
1.862470008532088

>  <m_score__min__rmsd>  (31) 
1.862470008532088

>  <meeko>  (31) 
{"free_energy": -8.19, "intermolecular_energy": -10.28, "internal_energy": -1.03, "cluster_size": 24, "cluster_id": 1, "rank_in_cluster": 6}

>  <energy>  (31) 
-6.66

>  <cluster_rmsd>  (31) 
0.97

>  <cluster>  (31) 
3

$$$$

     RDKit          3D

 53 56  0  0  0  0  0  0  0  0999 V2000
  138.7830   71.6880  221.8160 O   0  0  0  0  0  0  0  0  0  0  0  0
  139.6820   71.8640  222.6900 C   0  0  0  0  0  0  0  0  0  0  0  0
  140.6520   72.9400  222.4410 N   0  0  0  0  0  0  0  0  0  0  0  0
  140.4560   73.6530  221.2400 C   0  0  0  0  0  0  0  0  0  0  0  0
  140.2880   75.0770  221.2930 C   0  0  0  0  0  0  0  0  0  0  0  0
  139.2920   75.4360  222.0780 O   0  0  0  0  0  0  0  0  0  0  0  0
  140.9490   76.1710  220.6960 N   0  0  0  0  0  0  0  0  0  0  0  0
  141.2870   76.2060  219.2660 C   0  0  0  0  0  0  0  0  0  0  0  0
  141.5380   77.6920  219.0030 C   0  0  2  0  0  0  0  0  0  0  0  0
  142.8910   77.9040  218.7770 O   0  0  0  0  0  0  0  0  0  0  0  0
  141.0320   78.3920  220.2670 C   0  0  0  0  0  0  0  0  0  0  0  0
  141.4440   77.3790  221.3300 C   0  0  1  0  0  0  0  0  0  0  0  0
  140.8830   77.6180  222.6500 C   0  0  0  0  0  0  0  0  0  0  0  0
  141.2470   78.8440  223.2920 N   0  0  0  0  0  0  0  0  0  0  0  0
  140.2770   79.8370  223.4550 C   0  0  0  0  0  0  0  0  0  0  0  0
  141.0800   81.1180  223.7090 C   0  0  0  0  0  0  0  0  0  0  0  0
  142.3430   80.8470  222.9280 C   0  0  0  0  0  0  0  0  0  0  0  0
  142.5350   79.3560  223.1050 C   0  0  0  0  0  0  0  0  0  0  0  0
  139.7800   71.0590  223.9010 C   0  0  0  0  0  0  0  0  0  0  0  0
  139.1940   69.8110  223.8680 C   0  0  0  0  0  0  0  0  0  0  0  0
  139.2210   68.9760  224.9360 N   0  0  0  0  0  0  0  0  0  0  0  0
  139.8310   69.3600  226.0630 C   0  0  0  0  0  0  0  0  0  0  0  0
  139.8480   68.4970  227.1390 C   0  0  0  0  0  0  0  0  0  0  0  0
  140.4920   68.9300  228.3010 C   0  0  0  0  0  0  0  0  0  0  0  0
  141.0810   70.1740  228.3430 C   0  0  0  0  0  0  0  0  0  0  0  0
  141.0600   71.0420  227.2460 C   0  0  0  0  0  0  0  0  0  0  0  0
  140.4130   70.6080  226.0830 C   0  0  0  0  0  0  0  0  0  0  0  0
  140.3870   71.4410  225.0170 N   0  0  0  0  0  0  0  0  0  0  0  0
  141.3340   73.0310  223.1960 H   0  0  0  0  0  0  0  0  0  0  0  0
  141.3303   73.4556  220.6023 H   0  0  0  0  0  0  0  0  0  0  0  0
  139.4855   73.2876  220.8731 H   0  0  0  0  0  0  0  0  0  0  0  0
  142.1887   75.6109  219.0590 H   0  0  0  0  0  0  0  0  0  0  0  0
  140.4996   75.7814  218.6259 H   0  0  0  0  0  0  0  0  0  0  0  0
  141.0245   78.0785  218.1103 H   0  0  0  0  0  0  0  0  0  0  0  0
  143.4310   77.8810  219.5800 H   0  0  0  0  0  0  0  0  0  0  0  0
  141.5258   79.3632  220.4186 H   0  0  0  0  0  0  0  0  0  0  0  0
  139.9594   78.6358  220.2576 H   0  0  0  0  0  0  0  0  0  0  0  0
  142.5168   77.3831  221.5732 H   0  0  0  0  0  0  0  0  0  0  0  0
  139.7873   77.6051  222.5535 H   0  0  0  0  0  0  0  0  0  0  0  0
  141.2982   76.8239  223.2880 H   0  0  0  0  0  0  0  0  0  0  0  0
  139.6645   79.9354  222.5466 H   0  0  0  0  0  0  0  0  0  0  0  0
  139.5794   79.6105  224.2748 H   0  0  0  0  0  0  0  0  0  0  0  0
  140.5534   82.0042  223.3250 H   0  0  0  0  0  0  0  0  0  0  0  0
  141.2511   81.3341  224.7739 H   0  0  0  0  0  0  0  0  0  0  0  0
  142.2157   81.1066  221.8667 H   0  0  0  0  0  0  0  0  0  0  0  0
  143.2030   81.4402  223.2723 H   0  0  0  0  0  0  0  0  0  0  0  0
  142.9991   78.9171  222.2095 H   0  0  0  0  0  0  0  0  0  0  0  0
  143.1988   79.1228  223.9506 H   0  0  0  0  0  0  0  0  0  0  0  0
  138.6894   69.4830  222.9473 H   0  0  0  0  0  0  0  0  0  0  0  0
  139.3730   67.5063  227.0844 H   0  0  0  0  0  0  0  0  0  0  0  0
  140.5286   68.2755  229.1844 H   0  0  0  0  0  0  0  0  0  0  0  0
  141.5834   70.4951  229.2674 H   0  0  0  0  0  0  0  0  0  0  0  0
  141.5360   72.0324  227.2957 H   0  0  0  0  0  0  0  0  0  0  0  0
  1  2  2  0
  2  3  1  0
  3  4  1  0
  4  5  1  0
  5  6  2  0
  5  7  1  0
  7  8  1  0
  8  9  1  0
  9 10  1  0
  9 11  1  0
 11 12  1  0
 12 13  1  0
 13 14  1  0
 14 15  1  0
 15 16  1  0
 16 17  1  0
 17 18  1  0
  2 19  1  0
 19 20  2  0
 20 21  1  0
 21 22  2  0
 22 23  1  0
 23 24  2  0
 24 25  1  0
 25 26  2  0
 26 27  1  0
 27 28  2  0
 12  7  1  0
 18 14  1  0
 28 19  1  0
 27 22  1  0
  3 29  1  0
  4 30  1  0
  4 31  1  0
  8 32  1  0
  8 33  1  0
  9 34  1  6
 10 35  1  0
 11 36  1  0
 11 37  1  0
 12 38  1  1
 13 39  1  0
 13 40  1  0
 15 41  1  0
 15 42  1  0
 16 43  1  0
 16 44  1  0
 17 45  1  0
 17 46  1  0
 18 47  1  0
 18 48  1  0
 20 49  1  0
 23 50  1  0
 24 51  1  0
 25 52  1  0
 26 53  1  0
M  END
>  <smiles>  (32) 
O=C(NCC(=O)N1C[C@H](O)C[C@H]1CN1CCCC1)c1cnc2ccccc2n1

>  <score_type>  (32) 
oracle

>  <origin>  (32) 
autodockgpu

>  <m_score__min__energy>  (32) 
-8.4800000000000004

>  <m_primary>  (32) 
energy

>  <rmsd>  (32) 
2.149851140742049

>  <m_score__min__rmsd>  (32) 
2.149851140742049

>  <meeko>  (32) 
{"free_energy": -7.64, "intermolecular_energy": -9.73, "internal_energy": -1.2, "cluster_size": 24, "cluster_id": 1, "rank_in_cluster": 20}

>  <energy>  (32) 
-7.55

>  <cluster_rmsd>  (32) 
0.0

>  <cluster>  (32) 
4

$$$$

     RDKit          3D

 53 56  0  0  0  0  0  0  0  0999 V2000
  140.7980   71.6510  221.3630 O   0  0  0  0  0  0  0  0  0  0  0  0
  140.3350   72.1770  222.4180 C   0  0  0  0  0  0  0  0  0  0  0  0
  139.9020   73.5800  222.3290 N   0  0  0  0  0  0  0  0  0  0  0  0
  140.0600   74.1730  221.0580 C   0  0  0  0  0  0  0  0  0  0  0  0
  141.2670   74.8910  220.7680 C   0  0  0  0  0  0  0  0  0  0  0  0
  142.3480   74.1920  221.0530 O   0  0  0  0  0  0  0  0  0  0  0  0
  141.5530   76.1710  220.2480 N   0  0  0  0  0  0  0  0  0  0  0  0
  141.9860   76.3820  218.8600 C   0  0  0  0  0  0  0  0  0  0  0  0
  141.7210   77.8710  218.6340 C   0  0  2  0  0  0  0  0  0  0  0  0
  142.9270   78.5520  218.5460 O   0  0  0  0  0  0  0  0  0  0  0  0
  140.8870   78.2970  219.8450 C   0  0  0  0  0  0  0  0  0  0  0  0
  141.5300   77.4480  220.9370 C   0  0  1  0  0  0  0  0  0  0  0  0
  140.8020   77.4200  222.1960 C   0  0  0  0  0  0  0  0  0  0  0  0
  140.9080   78.5810  223.0270 N   0  0  0  0  0  0  0  0  0  0  0  0
  140.0090   79.6330  222.8370 C   0  0  0  0  0  0  0  0  0  0  0  0
  140.6810   80.8360  223.5100 C   0  0  0  0  0  0  0  0  0  0  0  0
  142.1430   80.5130  223.3260 C   0  0  0  0  0  0  0  0  0  0  0  0
  142.1730   79.0040  223.4490 C   0  0  0  0  0  0  0  0  0  0  0  0
  140.2180   71.4570  223.6790 C   0  0  0  0  0  0  0  0  0  0  0  0
  139.5740   70.2370  223.6410 C   0  0  0  0  0  0  0  0  0  0  0  0
  139.4050   69.4800  224.7530 N   0  0  0  0  0  0  0  0  0  0  0  0
  139.8710   69.9140  225.9290 C   0  0  0  0  0  0  0  0  0  0  0  0
  139.6880   69.1300  227.0480 C   0  0  0  0  0  0  0  0  0  0  0  0
  140.1860   69.6140  228.2620 C   0  0  0  0  0  0  0  0  0  0  0  0
  140.8300   70.8300  228.3080 C   0  0  0  0  0  0  0  0  0  0  0  0
  141.0110   71.6190  227.1680 C   0  0  0  0  0  0  0  0  0  0  0  0
  140.5120   71.1330  225.9540 C   0  0  0  0  0  0  0  0  0  0  0  0
  140.6810   71.8890  224.8430 N   0  0  0  0  0  0  0  0  0  0  0  0
  139.5260   73.9270  223.2120 H   0  0  0  0  0  0  0  0  0  0  0  0
  139.9788   73.3665  220.3144 H   0  0  0  0  0  0  0  0  0  0  0  0
  139.2804   74.9486  221.0315 H   0  0  0  0  0  0  0  0  0  0  0  0
  143.0543   76.1488  218.7403 H   0  0  0  0  0  0  0  0  0  0  0  0
  141.4603   75.7363  218.1412 H   0  0  0  0  0  0  0  0  0  0  0  0
  141.1884   78.0902  217.6968 H   0  0  0  0  0  0  0  0  0  0  0  0
  143.6090   78.2200  219.1470 H   0  0  0  0  0  0  0  0  0  0  0  0
  140.9914   79.3723  220.0521 H   0  0  0  0  0  0  0  0  0  0  0  0
  139.8028   78.1513  219.7294 H   0  0  0  0  0  0  0  0  0  0  0  0
  142.5054   77.8168  221.2870 H   0  0  0  0  0  0  0  0  0  0  0  0
  139.7372   77.2740  221.9619 H   0  0  0  0  0  0  0  0  0  0  0  0
  141.2610   76.6064  222.7768 H   0  0  0  0  0  0  0  0  0  0  0  0
  139.8538   79.8234  221.7648 H   0  0  0  0  0  0  0  0  0  0  0  0
  139.0163   79.4173  223.2590 H   0  0  0  0  0  0  0  0  0  0  0  0
  140.4123   81.7775  223.0087 H   0  0  0  0  0  0  0  0  0  0  0  0
  140.3851   80.9832  224.5592 H   0  0  0  0  0  0  0  0  0  0  0  0
  142.4986   80.8368  222.3367 H   0  0  0  0  0  0  0  0  0  0  0  0
  142.7953   81.0214  224.0513 H   0  0  0  0  0  0  0  0  0  0  0  0
  142.9574   78.5792  222.8053 H   0  0  0  0  0  0  0  0  0  0  0  0
  142.3967   78.6775  224.4753 H   0  0  0  0  0  0  0  0  0  0  0  0
  139.1863   69.8678  222.6801 H   0  0  0  0  0  0  0  0  0  0  0  0
  139.1703   68.1612  226.9884 H   0  0  0  0  0  0  0  0  0  0  0  0
  140.0630   69.0224  229.1812 H   0  0  0  0  0  0  0  0  0  0  0  0
  141.2145   71.1925  229.2727 H   0  0  0  0  0  0  0  0  0  0  0  0
  141.5278   72.5884  227.2233 H   0  0  0  0  0  0  0  0  0  0  0  0
  1  2  2  0
  2  3  1  0
  3  4  1  0
  4  5  1  0
  5  6  2  0
  5  7  1  0
  7  8  1  0
  8  9  1  0
  9 10  1  0
  9 11  1  0
 11 12  1  0
 12 13  1  0
 13 14  1  0
 14 15  1  0
 15 16  1  0
 16 17  1  0
 17 18  1  0
  2 19  1  0
 19 20  2  0
 20 21  1  0
 21 22  2  0
 22 23  1  0
 23 24  2  0
 24 25  1  0
 25 26  2  0
 26 27  1  0
 27 28  2  0
 12  7  1  0
 18 14  1  0
 28 19  1  0
 27 22  1  0
  3 29  1  0
  4 30  1  0
  4 31  1  0
  8 32  1  0
  8 33  1  0
  9 34  1  6
 10 35  1  0
 11 36  1  0
 11 37  1  0
 12 38  1  1
 13 39  1  0
 13 40  1  0
 15 41  1  0
 15 42  1  0
 16 43  1  0
 16 44  1  0
 17 45  1  0
 17 46  1  0
 18 47  1  0
 18 48  1  0
 20 49  1  0
 23 50  1  0
 24 51  1  0
 25 52  1  0
 26 53  1  0
M  END
>  <smiles>  (33) 
O=C(NCC(=O)N1C[C@H](O)C[C@H]1CN1CCCC1)c1cnc2ccccc2n1

>  <score_type>  (33) 
oracle

>  <origin>  (33) 
autodockgpu

>  <m_score__min__energy>  (33) 
-8.4800000000000004

>  <m_primary>  (33) 
energy

>  <rmsd>  (33) 
2.24767040379391

>  <m_score__min__rmsd>  (33) 
2.24767040379391

>  <meeko>  (33) 
{"free_energy": -8.0, "intermolecular_energy": -10.08, "internal_energy": -1.2, "cluster_size": 24, "cluster_id": 1, "rank_in_cluster": 12}

>  <energy>  (33) 
-7.39

>  <cluster_rmsd>  (33) 
0.0

>  <cluster>  (33) 
5

$$$$

     RDKit          3D

 53 56  0  0  0  0  0  0  0  0999 V2000
  140.3720   73.1790  222.7210 O   0  0  0  0  0  0  0  0  0  0  0  0
  140.2670   71.9200  222.7980 C   0  0  0  0  0  0  0  0  0  0  0  0
  140.0990   71.1850  221.5360 N   0  0  0  0  0  0  0  0  0  0  0  0
  140.0770   71.9900  220.3770 C   0  0  0  0  0  0  0  0  0  0  0  0
  141.3150   72.3230  219.7330 C   0  0  0  0  0  0  0  0  0  0  0  0
  141.2860   72.0860  218.4370 O   0  0  0  0  0  0  0  0  0  0  0  0
  142.5480   72.8430  220.1770 N   0  0  0  0  0  0  0  0  0  0  0  0
  143.7630   72.0240  220.2760 C   0  0  0  0  0  0  0  0  0  0  0  0
  144.8830   73.0640  220.3330 C   0  0  2  0  0  0  0  0  0  0  0  0
  145.4400   73.0820  221.6040 O   0  0  0  0  0  0  0  0  0  0  0  0
  144.1960   74.3820  219.9680 C   0  0  0  0  0  0  0  0  0  0  0  0
  142.8430   74.1860  220.6440 C   0  0  1  0  0  0  0  0  0  0  0  0
  141.8310   75.1660  220.2820 C   0  0  0  0  0  0  0  0  0  0  0  0
  140.8070   75.4220  221.2490 N   0  0  0  0  0  0  0  0  0  0  0  0
  139.4690   75.3230  220.8590 C   0  0  0  0  0  0  0  0  0  0  0  0
  138.6990   76.0990  221.9350 C   0  0  0  0  0  0  0  0  0  0  0  0
  139.7130   77.1370  222.3480 C   0  0  0  0  0  0  0  0  0  0  0  0
  141.0260   76.3910  222.2330 C   0  0  0  0  0  0  0  0  0  0  0  0
  140.3090   71.1970  224.0620 C   0  0  0  0  0  0  0  0  0  0  0  0
  140.7820   71.8870  225.1590 C   0  0  0  0  0  0  0  0  0  0  0  0
  140.8680   71.3150  226.3860 N   0  0  0  0  0  0  0  0  0  0  0  0
  140.4870   70.0440  226.5530 C   0  0  0  0  0  0  0  0  0  0  0  0
  140.5820   69.4790  227.8070 C   0  0  0  0  0  0  0  0  0  0  0  0
  140.1770   68.1490  227.9480 C   0  0  0  0  0  0  0  0  0  0  0  0
  139.7030   67.4520  226.8580 C   0  0  0  0  0  0  0  0  0  0  0  0
  139.6090   68.0330  225.5900 C   0  0  0  0  0  0  0  0  0  0  0  0
  140.0160   69.3650  225.4510 C   0  0  0  0  0  0  0  0  0  0  0  0
  139.9290   69.9370  224.2270 N   0  0  0  0  0  0  0  0  0  0  0  0
  140.0390   70.1760  221.6780 H   0  0  0  0  0  0  0  0  0  0  0  0
  139.4586   71.4660  219.6334 H   0  0  0  0  0  0  0  0  0  0  0  0
  139.7009   72.9586  220.7381 H   0  0  0  0  0  0  0  0  0  0  0  0
  143.7501   71.4081  221.1873 H   0  0  0  0  0  0  0  0  0  0  0  0
  143.8745   71.3158  219.4418 H   0  0  0  0  0  0  0  0  0  0  0  0
  145.7179   72.8561  219.6477 H   0  0  0  0  0  0  0  0  0  0  0  0
  145.6510   72.2040  221.9520 H   0  0  0  0  0  0  0  0  0  0  0  0
  144.7342   75.2483  220.3800 H   0  0  0  0  0  0  0  0  0  0  0  0
  144.1438   74.5885  218.8888 H   0  0  0  0  0  0  0  0  0  0  0  0
  142.8557   74.3180  221.7360 H   0  0  0  0  0  0  0  0  0  0  0  0
  142.3454   76.1175  220.0818 H   0  0  0  0  0  0  0  0  0  0  0  0
  141.3082   74.7342  219.4158 H   0  0  0  0  0  0  0  0  0  0  0  0
  139.3177   75.7770  219.8686 H   0  0  0  0  0  0  0  0  0  0  0  0
  139.1333   74.2789  220.7744 H   0  0  0  0  0  0  0  0  0  0  0  0
  137.7929   76.5659  221.5215 H   0  0  0  0  0  0  0  0  0  0  0  0
  138.3375   75.4731  222.7642 H   0  0  0  0  0  0  0  0  0  0  0  0
  139.6898   78.0041  221.6716 H   0  0  0  0  0  0  0  0  0  0  0  0
  139.5319   77.5457  223.3531 H   0  0  0  0  0  0  0  0  0  0  0  0
  141.8334   77.0739  221.9301 H   0  0  0  0  0  0  0  0  0  0  0  0
  141.3331   75.9452  223.1906 H   0  0  0  0  0  0  0  0  0  0  0  0
  141.0991   72.9330  225.0349 H   0  0  0  0  0  0  0  0  0  0  0  0
  140.9623   70.0536  228.6644 H   0  0  0  0  0  0  0  0  0  0  0  0
  140.2367   67.6579  228.9305 H   0  0  0  0  0  0  0  0  0  0  0  0
  139.3889   66.4061  226.9897 H   0  0  0  0  0  0  0  0  0  0  0  0
  139.2279   67.4625  224.7302 H   0  0  0  0  0  0  0  0  0  0  0  0
  1  2  2  0
  2  3  1  0
  3  4  1  0
  4  5  1  0
  5  6  2  0
  5  7  1  0
  7  8  1  0
  8  9  1  0
  9 10  1  0
  9 11  1  0
 11 12  1  0
 12 13  1  0
 13 14  1  0
 14 15  1  0
 15 16  1  0
 16 17  1  0
 17 18  1  0
  2 19  1  0
 19 20  2  0
 20 21  1  0
 21 22  2  0
 22 23  1  0
 23 24  2  0
 24 25  1  0
 25 26  2  0
 26 27  1  0
 27 28  2  0
 12  7  1  0
 18 14  1  0
 28 19  1  0
 27 22  1  0
  3 29  1  0
  4 30  1  0
  4 31  1  0
  8 32  1  0
  8 33  1  0
  9 34  1  6
 10 35  1  0
 11 36  1  0
 11 37  1  0
 12 38  1  1
 13 39  1  0
 13 40  1  0
 15 41  1  0
 15 42  1  0
 16 43  1  0
 16 44  1  0
 17 45  1  0
 17 46  1  0
 18 47  1  0
 18 48  1  0
 20 49  1  0
 23 50  1  0
 24 51  1  0
 25 52  1  0
 26 53  1  0
M  END
>  <smiles>  (34) 
O=C(NCC(=O)N1C[C@H](O)C[C@H]1CN1CCCC1)c1cnc2ccccc2n1

>  <score_type>  (34) 
oracle

>  <origin>  (34) 
autodockgpu

>  <m_score__min__energy>  (34) 
-8.4800000000000004

>  <m_primary>  (34) 
energy

>  <rmsd>  (34) 
4.1732619107169056

>  <m_score__min__rmsd>  (34) 
4.1732619107169056

>  <meeko>  (34) 
{"free_energy": -7.12, "intermolecular_energy": -9.21, "internal_energy": -1.88, "cluster_size": 4, "cluster_id": 5, "rank_in_cluster": 3}

>  <energy>  (34) 
-7.35

>  <cluster_rmsd>  (34) 
0.51

>  <cluster>  (34) 
5

$$$$

     RDKit          3D

 53 56  0  0  0  0  0  0  0  0999 V2000
  139.1520   74.8510  222.3170 O   0  0  0  0  0  0  0  0  0  0  0  0
  140.1960   75.5360  222.1020 C   0  0  0  0  0  0  0  0  0  0  0  0
  141.3310   74.8420  221.4760 N   0  0  0  0  0  0  0  0  0  0  0  0
  141.1110   73.4780  221.1880 C   0  0  0  0  0  0  0  0  0  0  0  0
  142.1720   72.7080  220.6050 C   0  0  0  0  0  0  0  0  0  0  0  0
  141.9120   71.4150  220.6070 O   0  0  0  0  0  0  0  0  0  0  0  0
  143.4220   73.0250  220.0340 N   0  0  0  0  0  0  0  0  0  0  0  0
  144.6410   72.2580  220.3240 C   0  0  0  0  0  0  0  0  0  0  0  0
  145.5780   72.6450  219.1790 C   0  0  2  0  0  0  0  0  0  0  0  0
  146.6070   73.4380  219.6650 O   0  0  0  0  0  0  0  0  0  0  0  0
  144.6780   73.3840  218.1850 C   0  0  0  0  0  0  0  0  0  0  0  0
  143.7530   74.1240  219.1460 C   0  0  1  0  0  0  0  0  0  0  0  0
  142.5930   74.7420  218.5230 C   0  0  0  0  0  0  0  0  0  0  0  0
  142.0770   75.9200  219.1510 N   0  0  0  0  0  0  0  0  0  0  0  0
  140.7900   76.3540  218.8210 C   0  0  0  0  0  0  0  0  0  0  0  0
  140.7540   77.8200  219.2690 C   0  0  0  0  0  0  0  0  0  0  0  0
  142.1960   78.2290  219.0940 C   0  0  0  0  0  0  0  0  0  0  0  0
  142.9500   76.9680  219.4590 C   0  0  0  0  0  0  0  0  0  0  0  0
  140.3020   76.9480  222.4420 C   0  0  0  0  0  0  0  0  0  0  0  0
  139.1200   77.6350  222.6250 C   0  0  0  0  0  0  0  0  0  0  0  0
  139.0970   78.9530  222.9430 N   0  0  0  0  0  0  0  0  0  0  0  0
  140.2470   79.6220  223.0860 C   0  0  0  0  0  0  0  0  0  0  0  0
  140.2040   80.9610  223.4080 C   0  0  0  0  0  0  0  0  0  0  0  0
  141.4230   81.6300  223.5480 C   0  0  0  0  0  0  0  0  0  0  0  0
  142.6080   80.9520  223.3670 C   0  0  0  0  0  0  0  0  0  0  0  0
  142.6430   79.5930  223.0410 C   0  0  0  0  0  0  0  0  0  0  0  0
  141.4210   78.9250  222.9000 C   0  0  0  0  0  0  0  0  0  0  0  0
  141.4430   77.6080  222.5840 N   0  0  0  0  0  0  0  0  0  0  0  0
  142.1270   75.4620  221.3200 H   0  0  0  0  0  0  0  0  0  0  0  0
  140.8411   72.9885  222.1354 H   0  0  0  0  0  0  0  0  0  0  0  0
  140.3386   73.4961  220.4050 H   0  0  0  0  0  0  0  0  0  0  0  0
  145.0665   72.5464  221.2965 H   0  0  0  0  0  0  0  0  0  0  0  0
  144.4637   71.1743  220.3888 H   0  0  0  0  0  0  0  0  0  0  0  0
  146.0692   71.7868  218.6972 H   0  0  0  0  0  0  0  0  0  0  0  0
  146.5780   74.3540  219.3520 H   0  0  0  0  0  0  0  0  0  0  0  0
  145.2526   74.0806  217.5568 H   0  0  0  0  0  0  0  0  0  0  0  0
  144.1633   72.7346  217.4615 H   0  0  0  0  0  0  0  0  0  0  0  0
  144.2044   75.0044  219.6267 H   0  0  0  0  0  0  0  0  0  0  0  0
  142.8704   75.0081  217.4923 H   0  0  0  0  0  0  0  0  0  0  0  0
  141.7892   73.9955  218.6044 H   0  0  0  0  0  0  0  0  0  0  0  0
  140.6184   76.2740  217.7374 H   0  0  0  0  0  0  0  0  0  0  0  0
  140.0077   75.7494  219.3031 H   0  0  0  0  0  0  0  0  0  0  0  0
  140.0873   78.4181  218.6305 H   0  0  0  0  0  0  0  0  0  0  0  0
  140.3692   77.9658  220.2891 H   0  0  0  0  0  0  0  0  0  0  0  0
  142.4002   78.5257  218.0546 H   0  0  0  0  0  0  0  0  0  0  0  0
  142.4792   79.0979  219.7062 H   0  0  0  0  0  0  0  0  0  0  0  0
  143.8748   76.8864  218.8689 H   0  0  0  0  0  0  0  0  0  0  0  0
  143.2488   76.9581  220.5176 H   0  0  0  0  0  0  0  0  0  0  0  0
  138.1673   77.0975  222.5095 H   0  0  0  0  0  0  0  0  0  0  0  0
  139.2465   81.4836  223.5495 H   0  0  0  0  0  0  0  0  0  0  0  0
  141.4360   82.6999  223.8032 H   0  0  0  0  0  0  0  0  0  0  0  0
  143.5566   81.4968  223.4826 H   0  0  0  0  0  0  0  0  0  0  0  0
  143.5985   79.0665  222.9001 H   0  0  0  0  0  0  0  0  0  0  0  0
  1  2  2  0
  2  3  1  0
  3  4  1  0
  4  5  1  0
  5  6  2  0
  5  7  1  0
  7  8  1  0
  8  9  1  0
  9 10  1  0
  9 11  1  0
 11 12  1  0
 12 13  1  0
 13 14  1  0
 14 15  1  0
 15 16  1  0
 16 17  1  0
 17 18  1  0
  2 19  1  0
 19 20  2  0
 20 21  1  0
 21 22  2  0
 22 23  1  0
 23 24  2  0
 24 25  1  0
 25 26  2  0
 26 27  1  0
 27 28  2  0
 12  7  1  0
 18 14  1  0
 28 19  1  0
 27 22  1  0
  3 29  1  0
  4 30  1  0
  4 31  1  0
  8 32  1  0
  8 33  1  0
  9 34  1  6
 10 35  1  0
 11 36  1  0
 11 37  1  0
 12 38  1  1
 13 39  1  0
 13 40  1  0
 15 41  1  0
 15 42  1  0
 16 43  1  0
 16 44  1  0
 17 45  1  0
 17 46  1  0
 18 47  1  0
 18 48  1  0
 20 49  1  0
 23 50  1  0
 24 51  1  0
 25 52  1  0
 26 53  1  0
M  END
>  <smiles>  (35) 
O=C(NCC(=O)N1C[C@H](O)C[C@H]1CN1CCCC1)c1cnc2ccccc2n1

>  <score_type>  (35) 
oracle

>  <origin>  (35) 
autodockgpu

>  <m_score__min__energy>  (35) 
-8.4800000000000004

>  <m_primary>  (35) 
energy

>  <rmsd>  (35) 
7.082412594029319

>  <m_score__min__rmsd>  (35) 
7.082412594029319

>  <meeko>  (35) 
{"free_energy": -6.57, "intermolecular_energy": -8.66, "internal_energy": -2.82, "cluster_size": 12, "cluster_id": 8, "rank_in_cluster": 5}

>  <energy>  (35) 
-7.12

>  <cluster_rmsd>  (35) 
0.98

>  <cluster>  (35) 
5

$$$$

     RDKit          3D

 53 56  0  0  0  0  0  0  0  0999 V2000
  141.2050   72.2060  221.7050 O   0  0  0  0  0  0  0  0  0  0  0  0
  140.2890   72.3320  222.5700 C   0  0  0  0  0  0  0  0  0  0  0  0
  139.2630   73.3530  222.3110 N   0  0  0  0  0  0  0  0  0  0  0  0
  139.4310   74.0760  221.1120 C   0  0  0  0  0  0  0  0  0  0  0  0
  139.6530   75.4920  221.1750 C   0  0  0  0  0  0  0  0  0  0  0  0
  138.7120   76.1170  221.8530 O   0  0  0  0  0  0  0  0  0  0  0  0
  140.6500   76.3570  220.6770 N   0  0  0  0  0  0  0  0  0  0  0  0
  141.0990   76.3240  219.2780 C   0  0  0  0  0  0  0  0  0  0  0  0
  141.7920   77.6760  219.1010 C   0  0  2  0  0  0  0  0  0  0  0  0
  143.1610   77.4870  218.9830 O   0  0  0  0  0  0  0  0  0  0  0  0
  141.4080   78.4660  220.3550 C   0  0  0  0  0  0  0  0  0  0  0  0
  141.4200   77.3530  221.3980 C   0  0  1  0  0  0  0  0  0  0  0  0
  140.8470   77.7160  222.6850 C   0  0  0  0  0  0  0  0  0  0  0  0
  141.2890   78.9490  223.2620 N   0  0  0  0  0  0  0  0  0  0  0  0
  140.4110   80.0360  223.2900 C   0  0  0  0  0  0  0  0  0  0  0  0
  141.3170   81.2540  223.5060 C   0  0  0  0  0  0  0  0  0  0  0  0
  142.5920   80.8100  222.8320 C   0  0  0  0  0  0  0  0  0  0  0  0
  142.6290   79.3250  223.1250 C   0  0  0  0  0  0  0  0  0  0  0  0
  140.2190   71.5180  223.7760 C   0  0  0  0  0  0  0  0  0  0  0  0
  139.6240   70.2790  223.6580 C   0  0  0  0  0  0  0  0  0  0  0  0
  139.5010   69.4370  224.7140 N   0  0  0  0  0  0  0  0  0  0  0  0
  139.9670   69.8040  225.9130 C   0  0  0  0  0  0  0  0  0  0  0  0
  139.8330   68.9350  226.9750 C   0  0  0  0  0  0  0  0  0  0  0  0
  140.3300   69.3500  228.2140 C   0  0  0  0  0  0  0  0  0  0  0  0
  140.9260   70.5840  228.3410 C   0  0  0  0  0  0  0  0  0  0  0  0
  141.0590   71.4600  227.2580 C   0  0  0  0  0  0  0  0  0  0  0  0
  140.5600   71.0430  226.0180 C   0  0  0  0  0  0  0  0  0  0  0  0
  140.6830   71.8830  224.9640 N   0  0  0  0  0  0  0  0  0  0  0  0
  138.5510   73.3830  223.0420 H   0  0  0  0  0  0  0  0  0  0  0  0
  140.2949   73.6379  220.5906 H   0  0  0  0  0  0  0  0  0  0  0  0
  138.4551   73.9856  220.6125 H   0  0  0  0  0  0  0  0  0  0  0  0
  141.8022   75.4952  219.1090 H   0  0  0  0  0  0  0  0  0  0  0  0
  140.2768   76.1642  218.5649 H   0  0  0  0  0  0  0  0  0  0  0  0
  141.4890   78.2156  218.1916 H   0  0  0  0  0  0  0  0  0  0  0  0
  143.6730   77.8600  219.7150 H   0  0  0  0  0  0  0  0  0  0  0  0
  142.1477   79.2469  220.5856 H   0  0  0  0  0  0  0  0  0  0  0  0
  140.4569   79.0133  220.2790 H   0  0  0  0  0  0  0  0  0  0  0  0
  142.4244   77.0378  221.7169 H   0  0  0  0  0  0  0  0  0  0  0  0
  139.7562   77.7799  222.5578 H   0  0  0  0  0  0  0  0  0  0  0  0
  141.1841   76.9343  223.3816 H   0  0  0  0  0  0  0  0  0  0  0  0
  139.8659   80.1205  222.3383 H   0  0  0  0  0  0  0  0  0  0  0  0
  139.6473   79.9375  224.0756 H   0  0  0  0  0  0  0  0  0  0  0  0
  140.9018   82.1527  223.0264 H   0  0  0  0  0  0  0  0  0  0  0  0
  141.4443   81.5342  224.5621 H   0  0  0  0  0  0  0  0  0  0  0  0
  142.5539   80.9990  221.7490 H   0  0  0  0  0  0  0  0  0  0  0  0
  143.4829   81.3462  223.1907 H   0  0  0  0  0  0  0  0  0  0  0  0
  143.1007   78.7789  222.2948 H   0  0  0  0  0  0  0  0  0  0  0  0
  143.2162   79.0965  224.0266 H   0  0  0  0  0  0  0  0  0  0  0  0
  139.2375   69.9644  222.6774 H   0  0  0  0  0  0  0  0  0  0  0  0
  139.3534   67.9527  226.8521 H   0  0  0  0  0  0  0  0  0  0  0  0
  140.2446   68.6890  229.0891 H   0  0  0  0  0  0  0  0  0  0  0  0
  141.3099   70.8914  229.3249 H   0  0  0  0  0  0  0  0  0  0  0  0
  141.5391   72.4425  227.3767 H   0  0  0  0  0  0  0  0  0  0  0  0
  1  2  2  0
  2  3  1  0
  3  4  1  0
  4  5  1  0
  5  6  2  0
  5  7  1  0
  7  8  1  0
  8  9  1  0
  9 10  1  0
  9 11  1  0
 11 12  1  0
 12 13  1  0
 13 14  1  0
 14 15  1  0
 15 16  1  0
 16 17  1  0
 17 18  1  0
  2 19  1  0
 19 20  2  0
 20 21  1  0
 21 22  2  0
 22 23  1  0
 23 24  2  0
 24 25  1  0
 25 26  2  0
 26 27  1  0
 27 28  2  0
 12  7  1  0
 18 14  1  0
 28 19  1  0
 27 22  1  0
  3 29  1  0
  4 30  1  0
  4 31  1  0
  8 32  1  0
  8 33  1  0
  9 34  1  6
 10 35  1  0
 11 36  1  0
 11 37  1  0
 12 38  1  1
 13 39  1  0
 13 40  1  0
 15 41  1  0
 15 42  1  0
 16 43  1  0
 16 44  1  0
 17 45  1  0
 17 46  1  0
 18 47  1  0
 18 48  1  0
 20 49  1  0
 23 50  1  0
 24 51  1  0
 25 52  1  0
 26 53  1  0
M  END
>  <smiles>  (36) 
O=C(NCC(=O)N1C[C@H](O)C[C@H]1CN1CCCC1)c1cnc2ccccc2n1

>  <score_type>  (36) 
oracle

>  <origin>  (36) 
autodockgpu

>  <m_score__min__energy>  (36) 
-8.4800000000000004

>  <m_primary>  (36) 
energy

>  <rmsd>  (36) 
2.1380601599587976

>  <m_score__min__rmsd>  (36) 
2.1380601599587976

>  <meeko>  (36) 
{"free_energy": -8.25, "intermolecular_energy": -10.34, "internal_energy": -1.06, "cluster_size": 24, "cluster_id": 1, "rank_in_cluster": 3}

>  <energy>  (36) 
-7.05

>  <cluster_rmsd>  (36) 
1.01

>  <cluster>  (36) 
5

$$$$

     RDKit          3D

 53 56  0  0  0  0  0  0  0  0999 V2000
  141.0480   72.0000  221.3290 O   0  0  0  0  0  0  0  0  0  0  0  0
  140.3720   72.3710  222.3330 C   0  0  0  0  0  0  0  0  0  0  0  0
  139.7280   73.6900  222.2530 N   0  0  0  0  0  0  0  0  0  0  0  0
  139.9460   74.3880  221.0460 C   0  0  0  0  0  0  0  0  0  0  0  0
  141.1630   75.1300  220.8790 C   0  0  0  0  0  0  0  0  0  0  0  0
  142.1880   74.5520  221.4720 O   0  0  0  0  0  0  0  0  0  0  0  0
  141.5020   76.3330  220.2240 N   0  0  0  0  0  0  0  0  0  0  0  0
  141.9690   76.3710  218.8320 C   0  0  0  0  0  0  0  0  0  0  0  0
  141.7600   77.8330  218.4330 C   0  0  2  0  0  0  0  0  0  0  0  0
  142.9910   78.4600  218.2980 O   0  0  0  0  0  0  0  0  0  0  0  0
  140.9180   78.4200  219.5690 C   0  0  0  0  0  0  0  0  0  0  0  0
  141.5100   77.6800  220.7640 C   0  0  1  0  0  0  0  0  0  0  0  0
  140.7570   77.8180  222.0010 C   0  0  0  0  0  0  0  0  0  0  0  0
  140.9940   79.0020  222.7700 N   0  0  0  0  0  0  0  0  0  0  0  0
  141.0240   80.2380  222.1180 C   0  0  0  0  0  0  0  0  0  0  0  0
  141.7490   81.1690  223.0960 C   0  0  0  0  0  0  0  0  0  0  0  0
  142.6720   80.2090  223.8050 C   0  0  0  0  0  0  0  0  0  0  0  0
  141.8510   78.9390  223.8730 C   0  0  0  0  0  0  0  0  0  0  0  0
  140.2160   71.5550  223.5300 C   0  0  0  0  0  0  0  0  0  0  0  0
  139.5410   70.3610  223.3850 C   0  0  0  0  0  0  0  0  0  0  0  0
  139.3330   69.5210  224.4290 N   0  0  0  0  0  0  0  0  0  0  0  0
  139.7910   69.8460  225.6430 C   0  0  0  0  0  0  0  0  0  0  0  0
  139.5700   68.9800  226.6920 C   0  0  0  0  0  0  0  0  0  0  0  0
  140.0610   69.3510  227.9480 C   0  0  0  0  0  0  0  0  0  0  0  0
  140.7360   70.5410  228.1020 C   0  0  0  0  0  0  0  0  0  0  0  0
  140.9570   71.4130  227.0310 C   0  0  0  0  0  0  0  0  0  0  0  0
  140.4640   71.0400  225.7750 C   0  0  0  0  0  0  0  0  0  0  0  0
  140.6720   71.8790  224.7320 N   0  0  0  0  0  0  0  0  0  0  0  0
  139.1890   73.9110  223.0910 H   0  0  0  0  0  0  0  0  0  0  0  0
  139.9068   73.6469  220.2340 H   0  0  0  0  0  0  0  0  0  0  0  0
  139.1642   75.1618  221.0451 H   0  0  0  0  0  0  0  0  0  0  0  0
  143.0308   76.0916  218.7644 H   0  0  0  0  0  0  0  0  0  0  0  0
  141.4355   75.6650  218.1786 H   0  0  0  0  0  0  0  0  0  0  0  0
  141.2538   77.9619  217.4649 H   0  0  0  0  0  0  0  0  0  0  0  0
  143.6270   78.2280  218.9890 H   0  0  0  0  0  0  0  0  0  0  0  0
  141.0555   79.5079  219.6562 H   0  0  0  0  0  0  0  0  0  0  0  0
  139.8319   78.2970  219.4456 H   0  0  0  0  0  0  0  0  0  0  0  0
  142.4907   78.0546  221.0926 H   0  0  0  0  0  0  0  0  0  0  0  0
  139.6876   77.7959  221.7443 H   0  0  0  0  0  0  0  0  0  0  0  0
  141.0941   76.9873  222.6385 H   0  0  0  0  0  0  0  0  0  0  0  0
  141.5761   80.1641  221.1695 H   0  0  0  0  0  0  0  0  0  0  0  0
  140.0176   80.6010  221.8623 H   0  0  0  0  0  0  0  0  0  0  0  0
  142.3135   81.9487  222.5636 H   0  0  0  0  0  0  0  0  0  0  0  0
  141.0763   81.7210  223.7689 H   0  0  0  0  0  0  0  0  0  0  0  0
  143.5969   80.0521  223.2307 H   0  0  0  0  0  0  0  0  0  0  0  0
  142.9984   80.5688  224.7919 H   0  0  0  0  0  0  0  0  0  0  0  0
  142.5014   78.0543  223.8071 H   0  0  0  0  0  0  0  0  0  0  0  0
  141.2989   78.8544  224.8206 H   0  0  0  0  0  0  0  0  0  0  0  0
  139.1596   70.0815  222.3918 H   0  0  0  0  0  0  0  0  0  0  0  0
  139.0284   68.0336  226.5471 H   0  0  0  0  0  0  0  0  0  0  0  0
  139.9076   68.6908  228.8143 H   0  0  0  0  0  0  0  0  0  0  0  0
  141.1132   70.8145  229.0984 H   0  0  0  0  0  0  0  0  0  0  0  0
  141.4997   72.3596  227.1709 H   0  0  0  0  0  0  0  0  0  0  0  0
  1  2  2  0
  2  3  1  0
  3  4  1  0
  4  5  1  0
  5  6  2  0
  5  7  1  0
  7  8  1  0
  8  9  1  0
  9 10  1  0
  9 11  1  0
 11 12  1  0
 12 13  1  0
 13 14  1  0
 14 15  1  0
 15 16  1  0
 16 17  1  0
 17 18  1  0
  2 19  1  0
 19 20  2  0
 20 21  1  0
 21 22  2  0
 22 23  1  0
 23 24  2  0
 24 25  1  0
 25 26  2  0
 26 27  1  0
 27 28  2  0
 12  7  1  0
 18 14  1  0
 28 19  1  0
 27 22  1  0
  3 29  1  0
  4 30  1  0
  4 31  1  0
  8 32  1  0
  8 33  1  0
  9 34  1  6
 10 35  1  0
 11 36  1  0
 11 37  1  0
 12 38  1  1
 13 39  1  0
 13 40  1  0
 15 41  1  0
 15 42  1  0
 16 43  1  0
 16 44  1  0
 17 45  1  0
 17 46  1  0
 18 47  1  0
 18 48  1  0
 20 49  1  0
 23 50  1  0
 24 51  1  0
 25 52  1  0
 26 53  1  0
M  END
>  <smiles>  (37) 
O=C(NCC(=O)N1C[C@H](O)C[C@H]1CN1CCCC1)c1cnc2ccccc2n1

>  <score_type>  (37) 
oracle

>  <origin>  (37) 
autodockgpu

>  <m_score__min__energy>  (37) 
-8.4800000000000004

>  <m_primary>  (37) 
energy

>  <rmsd>  (37) 
2.3670486632335748

>  <m_score__min__rmsd>  (37) 
2.3670486632335748

>  <meeko>  (37) 
{"free_energy": -7.9, "intermolecular_energy": -9.99, "internal_energy": -1.08, "cluster_size": 24, "cluster_id": 1, "rank_in_cluster": 15}

>  <energy>  (37) 
-7.35

>  <cluster_rmsd>  (37) 
0.0

>  <cluster>  (37) 
6

$$$$

     RDKit          3D

 53 56  0  0  0  0  0  0  0  0999 V2000
  140.8920   71.7520  221.3970 O   0  0  0  0  0  0  0  0  0  0  0  0
  140.3300   72.2180  222.4310 C   0  0  0  0  0  0  0  0  0  0  0  0
  139.7870   73.5810  222.3390 N   0  0  0  0  0  0  0  0  0  0  0  0
  139.9640   74.2090  221.0880 C   0  0  0  0  0  0  0  0  0  0  0  0
  141.1860   74.9130  220.8260 C   0  0  0  0  0  0  0  0  0  0  0  0
  142.2490   74.2260  221.1940 O   0  0  0  0  0  0  0  0  0  0  0  0
  141.5000   76.1690  220.2660 N   0  0  0  0  0  0  0  0  0  0  0  0
  141.9860   76.3220  218.8880 C   0  0  0  0  0  0  0  0  0  0  0  0
  141.7420   77.8020  218.5930 C   0  0  2  0  0  0  0  0  0  0  0  0
  142.9560   78.4710  218.5240 O   0  0  0  0  0  0  0  0  0  0  0  0
  140.8660   78.2810  219.7540 C   0  0  0  0  0  0  0  0  0  0  0  0
  141.4620   77.4730  220.9020 C   0  0  1  0  0  0  0  0  0  0  0  0
  140.6880   77.5010  222.1330 C   0  0  0  0  0  0  0  0  0  0  0  0
  140.8620   78.6430  222.9780 N   0  0  0  0  0  0  0  0  0  0  0  0
  140.0250   79.7480  222.8030 C   0  0  0  0  0  0  0  0  0  0  0  0
  140.7660   80.9010  223.4900 C   0  0  0  0  0  0  0  0  0  0  0  0
  142.2060   80.4960  223.2990 C   0  0  0  0  0  0  0  0  0  0  0  0
  142.1490   78.9870  223.4030 C   0  0  0  0  0  0  0  0  0  0  0  0
  140.2040   71.4660  223.6730 C   0  0  0  0  0  0  0  0  0  0  0  0
  139.5870   70.2350  223.5960 C   0  0  0  0  0  0  0  0  0  0  0  0
  139.4130   69.4480  224.6860 N   0  0  0  0  0  0  0  0  0  0  0  0
  139.8480   69.8650  225.8810 C   0  0  0  0  0  0  0  0  0  0  0  0
  139.6610   69.0520  226.9790 C   0  0  0  0  0  0  0  0  0  0  0  0
  140.1260   69.5180  228.2120 C   0  0  0  0  0  0  0  0  0  0  0  0
  140.7440   70.7460  228.2980 C   0  0  0  0  0  0  0  0  0  0  0  0
  140.9300   71.5640  227.1790 C   0  0  0  0  0  0  0  0  0  0  0  0
  140.4630   71.0960  225.9450 C   0  0  0  0  0  0  0  0  0  0  0  0
  140.6370   71.8800  224.8560 N   0  0  0  0  0  0  0  0  0  0  0  0
  139.3360   73.8790  223.2050 H   0  0  0  0  0  0  0  0  0  0  0  0
  139.8724   73.4270  220.3198 H   0  0  0  0  0  0  0  0  0  0  0  0
  139.1994   74.9998  221.0813 H   0  0  0  0  0  0  0  0  0  0  0  0
  143.0561   76.0771  218.8178 H   0  0  0  0  0  0  0  0  0  0  0  0
  141.4819   75.6518  218.1762 H   0  0  0  0  0  0  0  0  0  0  0  0
  141.2473   77.9875  217.6282 H   0  0  0  0  0  0  0  0  0  0  0  0
  143.6280   78.1280  219.1290 H   0  0  0  0  0  0  0  0  0  0  0  0
  140.9700   79.3631  219.9219 H   0  0  0  0  0  0  0  0  0  0  0  0
  139.7859   78.1368  219.6037 H   0  0  0  0  0  0  0  0  0  0  0  0
  142.4270   77.8490  221.2727 H   0  0  0  0  0  0  0  0  0  0  0  0
  139.6241   77.4489  221.8586 H   0  0  0  0  0  0  0  0  0  0  0  0
  141.0538   76.6476  222.7229 H   0  0  0  0  0  0  0  0  0  0  0  0
  139.8801   79.9609  221.7336 H   0  0  0  0  0  0  0  0  0  0  0  0
  139.0219   79.5847  223.2238 H   0  0  0  0  0  0  0  0  0  0  0  0
  140.5518   81.8630  223.0014 H   0  0  0  0  0  0  0  0  0  0  0  0
  140.4803   81.0518  224.5415 H   0  0  0  0  0  0  0  0  0  0  0  0
  142.5783   80.8110  222.3130 H   0  0  0  0  0  0  0  0  0  0  0  0
  142.8875   80.9565  224.0294 H   0  0  0  0  0  0  0  0  0  0  0  0
  142.9070   78.5258  222.7528 H   0  0  0  0  0  0  0  0  0  0  0  0
  142.3543   78.6353  224.4249 H   0  0  0  0  0  0  0  0  0  0  0  0
  139.2248   69.8807  222.6196 H   0  0  0  0  0  0  0  0  0  0  0  0
  139.1650   68.0744  226.8880 H   0  0  0  0  0  0  0  0  0  0  0  0
  139.9982   68.9031  229.1151 H   0  0  0  0  0  0  0  0  0  0  0  0
  141.1026   71.0943  229.2778 H   0  0  0  0  0  0  0  0  0  0  0  0
  141.4263   72.5418  227.2655 H   0  0  0  0  0  0  0  0  0  0  0  0
  1  2  2  0
  2  3  1  0
  3  4  1  0
  4  5  1  0
  5  6  2  0
  5  7  1  0
  7  8  1  0
  8  9  1  0
  9 10  1  0
  9 11  1  0
 11 12  1  0
 12 13  1  0
 13 14  1  0
 14 15  1  0
 15 16  1  0
 16 17  1  0
 17 18  1  0
  2 19  1  0
 19 20  2  0
 20 21  1  0
 21 22  2  0
 22 23  1  0
 23 24  2  0
 24 25  1  0
 25 26  2  0
 26 27  1  0
 27 28  2  0
 12  7  1  0
 18 14  1  0
 28 19  1  0
 27 22  1  0
  3 29  1  0
  4 30  1  0
  4 31  1  0
  8 32  1  0
  8 33  1  0
  9 34  1  6
 10 35  1  0
 11 36  1  0
 11 37  1  0
 12 38  1  1
 13 39  1  0
 13 40  1  0
 15 41  1  0
 15 42  1  0
 16 43  1  0
 16 44  1  0
 17 45  1  0
 17 46  1  0
 18 47  1  0
 18 48  1  0
 20 49  1  0
 23 50  1  0
 24 51  1  0
 25 52  1  0
 26 53  1  0
M  END
>  <smiles>  (38) 
O=C(NCC(=O)N1C[C@H](O)C[C@H]1CN1CCCC1)c1cnc2ccccc2n1

>  <score_type>  (38) 
oracle

>  <origin>  (38) 
autodockgpu

>  <m_score__min__energy>  (38) 
-8.4800000000000004

>  <m_primary>  (38) 
energy

>  <rmsd>  (38) 
2.2174548576348543

>  <m_score__min__rmsd>  (38) 
2.2174548576348543

>  <meeko>  (38) 
{"free_energy": -8.02, "intermolecular_energy": -10.11, "internal_energy": -1.18, "cluster_size": 24, "cluster_id": 1, "rank_in_cluster": 10}

>  <energy>  (38) 
-7.28

>  <cluster_rmsd>  (38) 
0.0

>  <cluster>  (38) 
7

$$$$

     RDKit          3D

 53 56  0  0  0  0  0  0  0  0999 V2000
  136.3200   76.8840  223.2690 O   0  0  0  0  0  0  0  0  0  0  0  0
  136.4550   75.6380  223.4460 C   0  0  0  0  0  0  0  0  0  0  0  0
  137.5460   74.9750  222.7160 N   0  0  0  0  0  0  0  0  0  0  0  0
  138.3180   75.8260  221.8960 C   0  0  0  0  0  0  0  0  0  0  0  0
  139.6950   75.5020  221.6560 C   0  0  0  0  0  0  0  0  0  0  0  0
  140.0220   74.3160  222.1290 O   0  0  0  0  0  0  0  0  0  0  0  0
  140.7690   76.1680  221.0280 N   0  0  0  0  0  0  0  0  0  0  0  0
  141.6580   75.5020  220.0660 C   0  0  0  0  0  0  0  0  0  0  0  0
  142.3210   76.6710  219.3370 C   0  0  2  0  0  0  0  0  0  0  0  0
  143.6590   76.7500  219.7000 O   0  0  0  0  0  0  0  0  0  0  0  0
  141.5160   77.8980  219.7730 C   0  0  0  0  0  0  0  0  0  0  0  0
  141.2200   77.5330  221.2250 C   0  0  1  0  0  0  0  0  0  0  0  0
  140.2400   78.3840  221.8800 C   0  0  0  0  0  0  0  0  0  0  0  0
  140.7500   79.4640  222.6700 N   0  0  0  0  0  0  0  0  0  0  0  0
  141.1840   80.6260  222.0270 C   0  0  0  0  0  0  0  0  0  0  0  0
  142.0710   81.3270  223.0620 C   0  0  0  0  0  0  0  0  0  0  0  0
  142.6230   80.1550  223.8360 C   0  0  0  0  0  0  0  0  0  0  0  0
  141.4670   79.1770  223.8350 C   0  0  0  0  0  0  0  0  0  0  0  0
  135.5910   74.8630  224.3260 C   0  0  0  0  0  0  0  0  0  0  0  0
  134.8980   75.5630  225.2920 C   0  0  0  0  0  0  0  0  0  0  0  0
  134.0660   74.9470  226.1680 N   0  0  0  0  0  0  0  0  0  0  0  0
  133.9030   73.6210  226.1070 C   0  0  0  0  0  0  0  0  0  0  0  0
  133.0540   73.0120  227.0060 C   0  0  0  0  0  0  0  0  0  0  0  0
  132.9070   71.6250  226.9160 C   0  0  0  0  0  0  0  0  0  0  0  0
  133.5950   70.9180  225.9560 C   0  0  0  0  0  0  0  0  0  0  0  0
  134.4540   71.5440  225.0470 C   0  0  0  0  0  0  0  0  0  0  0  0
  134.6000   72.9330  225.1390 C   0  0  0  0  0  0  0  0  0  0  0  0
  135.4300   73.5480  224.2640 N   0  0  0  0  0  0  0  0  0  0  0  0
  137.6010   73.9770  222.9220 H   0  0  0  0  0  0  0  0  0  0  0  0
  137.8210   75.8661  220.9155 H   0  0  0  0  0  0  0  0  0  0  0  0
  138.3643   76.7671  222.4635 H   0  0  0  0  0  0  0  0  0  0  0  0
  142.4066   74.8838  220.5831 H   0  0  0  0  0  0  0  0  0  0  0  0
  141.1261   74.8170  219.3893 H   0  0  0  0  0  0  0  0  0  0  0  0
  142.3166   76.5706  218.2416 H   0  0  0  0  0  0  0  0  0  0  0  0
  143.8460   77.4320  220.3600 H   0  0  0  0  0  0  0  0  0  0  0  0
  142.1099   78.8209  219.6990 H   0  0  0  0  0  0  0  0  0  0  0  0
  140.6256   78.1039  219.1609 H   0  0  0  0  0  0  0  0  0  0  0  0
  142.0713   77.6581  221.9103 H   0  0  0  0  0  0  0  0  0  0  0  0
  139.5992   78.8171  221.0978 H   0  0  0  0  0  0  0  0  0  0  0  0
  139.7177   77.7276  222.5916 H   0  0  0  0  0  0  0  0  0  0  0  0
  141.7611   80.3785  221.1238 H   0  0  0  0  0  0  0  0  0  0  0  0
  140.3474   81.2585  221.6952 H   0  0  0  0  0  0  0  0  0  0  0  0
  142.8742   81.9020  222.5780 H   0  0  0  0  0  0  0  0  0  0  0  0
  141.5372   82.0610  223.6836 H   0  0  0  0  0  0  0  0  0  0  0  0
  143.5035   79.7280  223.3337 H   0  0  0  0  0  0  0  0  0  0  0  0
  142.9654   80.4231  224.8464 H   0  0  0  0  0  0  0  0  0  0  0  0
  141.8371   78.1413  223.8157 H   0  0  0  0  0  0  0  0  0  0  0  0
  140.8445   79.2728  224.7369 H   0  0  0  0  0  0  0  0  0  0  0  0
  135.0242   76.6540  225.3535 H   0  0  0  0  0  0  0  0  0  0  0  0
  132.5127   73.5954  227.7654 H   0  0  0  0  0  0  0  0  0  0  0  0
  132.2402   71.0973  227.6137 H   0  0  0  0  0  0  0  0  0  0  0  0
  133.4652   69.8270  225.9021 H   0  0  0  0  0  0  0  0  0  0  0  0
  134.9965   70.9644  224.2856 H   0  0  0  0  0  0  0  0  0  0  0  0
  1  2  2  0
  2  3  1  0
  3  4  1  0
  4  5  1  0
  5  6  2  0
  5  7  1  0
  7  8  1  0
  8  9  1  0
  9 10  1  0
  9 11  1  0
 11 12  1  0
 12 13  1  0
 13 14  1  0
 14 15  1  0
 15 16  1  0
 16 17  1  0
 17 18  1  0
  2 19  1  0
 19 20  2  0
 20 21  1  0
 21 22  2  0
 22 23  1  0
 23 24  2  0
 24 25  1  0
 25 26  2  0
 26 27  1  0
 27 28  2  0
 12  7  1  0
 18 14  1  0
 28 19  1  0
 27 22  1  0
  3 29  1  0
  4 30  1  0
  4 31  1  0
  8 32  1  0
  8 33  1  0
  9 34  1  6
 10 35  1  0
 11 36  1  0
 11 37  1  0
 12 38  1  1
 13 39  1  0
 13 40  1  0
 15 41  1  0
 15 42  1  0
 16 43  1  0
 16 44  1  0
 17 45  1  0
 17 46  1  0
 18 47  1  0
 18 48  1  0
 20 49  1  0
 23 50  1  0
 24 51  1  0
 25 52  1  0
 26 53  1  0
M  END
>  <smiles>  (39) 
O=C(NCC(=O)N1C[C@H](O)C[C@H]1CN1CCCC1)c1cnc2ccccc2n1

>  <score_type>  (39) 
oracle

>  <origin>  (39) 
autodockgpu

>  <m_score__min__energy>  (39) 
-8.4800000000000004

>  <m_primary>  (39) 
energy

>  <rmsd>  (39) 
4.934247909612161

>  <m_score__min__rmsd>  (39) 
4.934247909612161

>  <meeko>  (39) 
{"free_energy": -7.4, "intermolecular_energy": -9.49, "internal_energy": -1.49, "cluster_size": 5, "cluster_id": 3, "rank_in_cluster": 3}

>  <energy>  (39) 
-6.61

>  <cluster_rmsd>  (39) 
0.0

>  <cluster>  (39) 
8

$$$$

     RDKit          3D

 53 56  0  0  0  0  0  0  0  0999 V2000
  140.5330   73.3300  222.3530 O   0  0  0  0  0  0  0  0  0  0  0  0
  140.2990   72.0890  222.4490 C   0  0  0  0  0  0  0  0  0  0  0  0
  140.1440   71.3410  221.1930 N   0  0  0  0  0  0  0  0  0  0  0  0
  140.2770   72.1130  220.0190 C   0  0  0  0  0  0  0  0  0  0  0  0
  141.5870   72.3510  219.4850 C   0  0  0  0  0  0  0  0  0  0  0  0
  141.6840   71.9980  218.2190 O   0  0  0  0  0  0  0  0  0  0  0  0
  142.7860   72.8760  220.0110 N   0  0  0  0  0  0  0  0  0  0  0  0
  143.9920   72.0590  220.2000 C   0  0  0  0  0  0  0  0  0  0  0  0
  145.1040   73.1010  220.3280 C   0  0  2  0  0  0  0  0  0  0  0  0
  145.5700   73.1270  221.6350 O   0  0  0  0  0  0  0  0  0  0  0  0
  144.4420   74.4160  219.9090 C   0  0  0  0  0  0  0  0  0  0  0  0
  143.0450   74.2220  220.4900 C   0  0  1  0  0  0  0  0  0  0  0  0
  142.0600   75.1980  220.0520 C   0  0  0  0  0  0  0  0  0  0  0  0
  141.8120   76.3010  220.9300 N   0  0  0  0  0  0  0  0  0  0  0  0
  140.8720   76.1530  221.9530 C   0  0  0  0  0  0  0  0  0  0  0  0
  140.5180   77.5890  222.3570 C   0  0  0  0  0  0  0  0  0  0  0  0
  140.7100   78.3300  221.0560 C   0  0  0  0  0  0  0  0  0  0  0  0
  141.8790   77.6030  220.4250 C   0  0  0  0  0  0  0  0  0  0  0  0
  140.1870   71.4000  223.7270 C   0  0  0  0  0  0  0  0  0  0  0  0
  139.4810   70.2150  223.7350 C   0  0  0  0  0  0  0  0  0  0  0  0
  139.3090   69.4880  224.8670 N   0  0  0  0  0  0  0  0  0  0  0  0
  139.8340   69.9200  226.0190 C   0  0  0  0  0  0  0  0  0  0  0  0
  139.6490   69.1680  227.1590 C   0  0  0  0  0  0  0  0  0  0  0  0
  140.2090   69.6490  228.3460 C   0  0  0  0  0  0  0  0  0  0  0  0
  140.9150   70.8310  228.3480 C   0  0  0  0  0  0  0  0  0  0  0  0
  141.0990   71.5870  227.1860 C   0  0  0  0  0  0  0  0  0  0  0  0
  140.5370   71.1040  225.9980 C   0  0  0  0  0  0  0  0  0  0  0  0
  140.7090   71.8300  224.8680 N   0  0  0  0  0  0  0  0  0  0  0  0
  139.9750   70.3470  221.3510 H   0  0  0  0  0  0  0  0  0  0  0  0
  139.6964   71.6070  219.2336 H   0  0  0  0  0  0  0  0  0  0  0  0
  139.9311   73.1125  220.3213 H   0  0  0  0  0  0  0  0  0  0  0  0
  143.9162   71.4491  221.1123 H   0  0  0  0  0  0  0  0  0  0  0  0
  144.1621   71.3453  219.3804 H   0  0  0  0  0  0  0  0  0  0  0  0
  145.9847   72.8910  219.7033 H   0  0  0  0  0  0  0  0  0  0  0  0
  145.6990   72.2500  222.0230 H   0  0  0  0  0  0  0  0  0  0  0  0
  144.9492   75.2854  220.3528 H   0  0  0  0  0  0  0  0  0  0  0  0
  144.4648   74.6162  218.8276 H   0  0  0  0  0  0  0  0  0  0  0  0
  142.9803   74.3605  221.5793 H   0  0  0  0  0  0  0  0  0  0  0  0
  142.4022   75.6081  219.0904 H   0  0  0  0  0  0  0  0  0  0  0  0
  141.1090   74.6471  220.0049 H   0  0  0  0  0  0  0  0  0  0  0  0
  139.9811   75.6204  221.5888 H   0  0  0  0  0  0  0  0  0  0  0  0
  141.2603   75.5639  222.7969 H   0  0  0  0  0  0  0  0  0  0  0  0
  139.4787   77.6615  222.7099 H   0  0  0  0  0  0  0  0  0  0  0  0
  141.1236   77.9811  223.1874 H   0  0  0  0  0  0  0  0  0  0  0  0
  139.8123   78.2603  220.4241 H   0  0  0  0  0  0  0  0  0  0  0  0
  140.8884   79.4071  221.1906 H   0  0  0  0  0  0  0  0  0  0  0  0
  141.7847   77.5977  219.3291 H   0  0  0  0  0  0  0  0  0  0  0  0
  142.8394   78.0866  220.6567 H   0  0  0  0  0  0  0  0  0  0  0  0
  139.0441   69.8484  222.7944 H   0  0  0  0  0  0  0  0  0  0  0  0
  139.0824   68.2254  227.1357 H   0  0  0  0  0  0  0  0  0  0  0  0
  140.0854   69.0820  229.2804 H   0  0  0  0  0  0  0  0  0  0  0  0
  141.3477   71.1918  229.2928 H   0  0  0  0  0  0  0  0  0  0  0  0
  141.6661   72.5293  227.2047 H   0  0  0  0  0  0  0  0  0  0  0  0
  1  2  2  0
  2  3  1  0
  3  4  1  0
  4  5  1  0
  5  6  2  0
  5  7  1  0
  7  8  1  0
  8  9  1  0
  9 10  1  0
  9 11  1  0
 11 12  1  0
 12 13  1  0
 13 14  1  0
 14 15  1  0
 15 16  1  0
 16 17  1  0
 17 18  1  0
  2 19  1  0
 19 20  2  0
 20 21  1  0
 21 22  2  0
 22 23  1  0
 23 24  2  0
 24 25  1  0
 25 26  2  0
 26 27  1  0
 27 28  2  0
 12  7  1  0
 18 14  1  0
 28 19  1  0
 27 22  1  0
  3 29  1  0
  4 30  1  0
  4 31  1  0
  8 32  1  0
  8 33  1  0
  9 34  1  6
 10 35  1  0
 11 36  1  0
 11 37  1  0
 12 38  1  1
 13 39  1  0
 13 40  1  0
 15 41  1  0
 15 42  1  0
 16 43  1  0
 16 44  1  0
 17 45  1  0
 17 46  1  0
 18 47  1  0
 18 48  1  0
 20 49  1  0
 23 50  1  0
 24 51  1  0
 25 52  1  0
 26 53  1  0
M  END
>  <smiles>  (40) 
O=C(NCC(=O)N1C[C@H](O)C[C@H]1CN1CCCC1)c1cnc2ccccc2n1

>  <score_type>  (40) 
oracle

>  <origin>  (40) 
autodockgpu

>  <m_score__min__energy>  (40) 
-8.4800000000000004

>  <m_primary>  (40) 
energy

>  <rmsd>  (40) 
3.579743448813177

>  <m_score__min__rmsd>  (40) 
3.579743448813177

>  <meeko>  (40) 
{"free_energy": -7.39, "intermolecular_energy": -9.47, "internal_energy": -1.38, "cluster_size": 4, "cluster_id": 5, "rank_in_cluster": 1}

>  <energy>  (40) 
-6.6

>  <cluster_rmsd>  (40) 
0.34

>  <cluster>  (40) 
8

$$$$

     RDKit          3D

 53 56  0  0  0  0  0  0  0  0999 V2000
  139.1790   74.8410  222.3260 O   0  0  0  0  0  0  0  0  0  0  0  0
  140.2140   75.5320  222.0930 C   0  0  0  0  0  0  0  0  0  0  0  0
  141.3480   74.8420  221.4600 N   0  0  0  0  0  0  0  0  0  0  0  0
  141.1360   73.4740  221.1870 C   0  0  0  0  0  0  0  0  0  0  0  0
  142.2180   72.6900  220.6640 C   0  0  0  0  0  0  0  0  0  0  0  0
  142.0090   71.3950  220.7960 O   0  0  0  0  0  0  0  0  0  0  0  0
  143.4470   72.9960  220.0440 N   0  0  0  0  0  0  0  0  0  0  0  0
  144.6730   72.2270  220.2960 C   0  0  0  0  0  0  0  0  0  0  0  0
  145.5690   72.5990  219.1130 C   0  0  2  0  0  0  0  0  0  0  0  0
  146.6180   73.3930  219.5530 O   0  0  0  0  0  0  0  0  0  0  0  0
  144.6350   73.3320  218.1460 C   0  0  0  0  0  0  0  0  0  0  0  0
  143.7500   74.0850  219.1330 C   0  0  1  0  0  0  0  0  0  0  0  0
  142.5700   74.7020  218.5480 C   0  0  0  0  0  0  0  0  0  0  0  0
  142.1170   75.9220  219.1450 N   0  0  0  0  0  0  0  0  0  0  0  0
  140.8370   76.3900  218.8390 C   0  0  0  0  0  0  0  0  0  0  0  0
  140.8690   77.8730  219.2300 C   0  0  0  0  0  0  0  0  0  0  0  0
  142.3180   78.2200  218.9930 C   0  0  0  0  0  0  0  0  0  0  0  0
  143.0380   76.9470  219.3840 C   0  0  0  0  0  0  0  0  0  0  0  0
  140.3130   76.9480  222.4190 C   0  0  0  0  0  0  0  0  0  0  0  0
  139.1280   77.6420  222.5440 C   0  0  0  0  0  0  0  0  0  0  0  0
  139.0980   78.9650  222.8440 N   0  0  0  0  0  0  0  0  0  0  0  0
  140.2440   79.6300  223.0260 C   0  0  0  0  0  0  0  0  0  0  0  0
  140.1930   80.9740  223.3290 C   0  0  0  0  0  0  0  0  0  0  0  0
  141.4090   81.6400  223.5110 C   0  0  0  0  0  0  0  0  0  0  0  0
  142.5970   80.9540  223.3890 C   0  0  0  0  0  0  0  0  0  0  0  0
  142.6390   79.5900  223.0820 C   0  0  0  0  0  0  0  0  0  0  0  0
  141.4210   78.9260  222.8990 C   0  0  0  0  0  0  0  0  0  0  0  0
  141.4510   77.6050  222.6010 N   0  0  0  0  0  0  0  0  0  0  0  0
  142.1370   75.4670  221.2880 H   0  0  0  0  0  0  0  0  0  0  0  0
  140.8237   73.0024  222.1304 H   0  0  0  0  0  0  0  0  0  0  0  0
  140.3986   73.4807  220.3708 H   0  0  0  0  0  0  0  0  0  0  0  0
  145.1353   72.5230  221.2492 H   0  0  0  0  0  0  0  0  0  0  0  0
  144.4940   71.1447  220.3777 H   0  0  0  0  0  0  0  0  0  0  0  0
  146.0393   71.7343  218.6219 H   0  0  0  0  0  0  0  0  0  0  0  0
  146.4990   74.3360  219.3710 H   0  0  0  0  0  0  0  0  0  0  0  0
  145.1883   74.0199  217.4898 H   0  0  0  0  0  0  0  0  0  0  0  0
  144.0910   72.6776  217.4490 H   0  0  0  0  0  0  0  0  0  0  0  0
  144.2233   74.9678  219.5875 H   0  0  0  0  0  0  0  0  0  0  0  0
  142.7929   74.9112  217.4913 H   0  0  0  0  0  0  0  0  0  0  0  0
  141.7560   73.9808  218.7131 H   0  0  0  0  0  0  0  0  0  0  0  0
  140.6269   76.2750  217.7654 H   0  0  0  0  0  0  0  0  0  0  0  0
  140.0496   75.8338  219.3687 H   0  0  0  0  0  0  0  0  0  0  0  0
  140.2035   78.4710  218.5900 H   0  0  0  0  0  0  0  0  0  0  0  0
  140.5238   78.0723  220.2552 H   0  0  0  0  0  0  0  0  0  0  0  0
  142.4980   78.4681  217.9366 H   0  0  0  0  0  0  0  0  0  0  0  0
  142.6526   79.1007  219.5608 H   0  0  0  0  0  0  0  0  0  0  0  0
  143.9393   76.8081  218.7689 H   0  0  0  0  0  0  0  0  0  0  0  0
  143.3718   76.9664  220.4320 H   0  0  0  0  0  0  0  0  0  0  0  0
  138.1784   77.1069  222.3961 H   0  0  0  0  0  0  0  0  0  0  0  0
  139.2327   81.5021  223.4239 H   0  0  0  0  0  0  0  0  0  0  0  0
  141.4167   82.7133  223.7519 H   0  0  0  0  0  0  0  0  0  0  0  0
  143.5427   81.4959  223.5377 H   0  0  0  0  0  0  0  0  0  0  0  0
  143.5969   79.0575  222.9876 H   0  0  0  0  0  0  0  0  0  0  0  0
  1  2  2  0
  2  3  1  0
  3  4  1  0
  4  5  1  0
  5  6  2  0
  5  7  1  0
  7  8  1  0
  8  9  1  0
  9 10  1  0
  9 11  1  0
 11 12  1  0
 12 13  1  0
 13 14  1  0
 14 15  1  0
 15 16  1  0
 16 17  1  0
 17 18  1  0
  2 19  1  0
 19 20  2  0
 20 21  1  0
 21 22  2  0
 22 23  1  0
 23 24  2  0
 24 25  1  0
 25 26  2  0
 26 27  1  0
 27 28  2  0
 12  7  1  0
 18 14  1  0
 28 19  1  0
 27 22  1  0
  3 29  1  0
  4 30  1  0
  4 31  1  0
  8 32  1  0
  8 33  1  0
  9 34  1  6
 10 35  1  0
 11 36  1  0
 11 37  1  0
 12 38  1  1
 13 39  1  0
 13 40  1  0
 15 41  1  0
 15 42  1  0
 16 43  1  0
 16 44  1  0
 17 45  1  0
 17 46  1  0
 18 47  1  0
 18 48  1  0
 20 49  1  0
 23 50  1  0
 24 51  1  0
 25 52  1  0
 26 53  1  0
M  END
>  <smiles>  (41) 
O=C(NCC(=O)N1C[C@H](O)C[C@H]1CN1CCCC1)c1cnc2ccccc2n1

>  <score_type>  (41) 
oracle

>  <origin>  (41) 
autodockgpu

>  <m_score__min__energy>  (41) 
-8.4800000000000004

>  <m_primary>  (41) 
energy

>  <rmsd>  (41) 
7.095818636022775

>  <m_score__min__rmsd>  (41) 
7.095818636022775

>  <meeko>  (41) 
{"free_energy": -6.59, "intermolecular_energy": -8.68, "internal_energy": -2.79, "cluster_size": 12, "cluster_id": 8, "rank_in_cluster": 3}

>  <energy>  (41) 
-6.59

>  <cluster_rmsd>  (41) 
0.34

>  <cluster>  (41) 
8

$$$$

     RDKit          3D

 53 56  0  0  0  0  0  0  0  0999 V2000
  139.1680   74.8340  222.3400 O   0  0  0  0  0  0  0  0  0  0  0  0
  140.2060   75.5230  222.1160 C   0  0  0  0  0  0  0  0  0  0  0  0
  141.3380   74.8360  221.4780 N   0  0  0  0  0  0  0  0  0  0  0  0
  141.1210   73.4710  221.1900 C   0  0  0  0  0  0  0  0  0  0  0  0
  142.1990   72.6900  220.6570 C   0  0  0  0  0  0  0  0  0  0  0  0
  141.9780   71.3950  220.7580 O   0  0  0  0  0  0  0  0  0  0  0  0
  143.4360   72.9990  220.0520 N   0  0  0  0  0  0  0  0  0  0  0  0
  144.6590   72.2280  220.3140 C   0  0  0  0  0  0  0  0  0  0  0  0
  145.5670   72.6060  219.1430 C   0  0  2  0  0  0  0  0  0  0  0  0
  146.6120   73.3970  219.5990 O   0  0  0  0  0  0  0  0  0  0  0  0
  144.6450   73.3460  218.1700 C   0  0  0  0  0  0  0  0  0  0  0  0
  143.7490   74.0930  219.1510 C   0  0  1  0  0  0  0  0  0  0  0  0
  142.5760   74.7140  218.5560 C   0  0  0  0  0  0  0  0  0  0  0  0
  142.1210   75.9340  219.1500 N   0  0  0  0  0  0  0  0  0  0  0  0
  140.8320   76.3890  218.8600 C   0  0  0  0  0  0  0  0  0  0  0  0
  140.8570   77.8750  219.2390 C   0  0  0  0  0  0  0  0  0  0  0  0
  142.2990   78.2330  218.9780 C   0  0  0  0  0  0  0  0  0  0  0  0
  143.0360   76.9690  219.3670 C   0  0  0  0  0  0  0  0  0  0  0  0
  140.3100   76.9360  222.4580 C   0  0  0  0  0  0  0  0  0  0  0  0
  139.1270   77.6190  222.6480 C   0  0  0  0  0  0  0  0  0  0  0  0
  139.1010   78.9370  222.9680 N   0  0  0  0  0  0  0  0  0  0  0  0
  140.2500   79.6080  223.1050 C   0  0  0  0  0  0  0  0  0  0  0  0
  140.2040   80.9480  223.4290 C   0  0  0  0  0  0  0  0  0  0  0  0
  141.4220   81.6200  223.5640 C   0  0  0  0  0  0  0  0  0  0  0  0
  142.6080   80.9460  223.3760 C   0  0  0  0  0  0  0  0  0  0  0  0
  142.6450   79.5870  223.0480 C   0  0  0  0  0  0  0  0  0  0  0  0
  141.4250   78.9150  222.9130 C   0  0  0  0  0  0  0  0  0  0  0  0
  141.4500   77.6000  222.5950 N   0  0  0  0  0  0  0  0  0  0  0  0
  142.1300   75.4590  221.3150 H   0  0  0  0  0  0  0  0  0  0  0  0
  140.8086   72.9899  222.1286 H   0  0  0  0  0  0  0  0  0  0  0  0
  140.3823   73.4890  220.3752 H   0  0  0  0  0  0  0  0  0  0  0  0
  145.1109   72.5191  221.2737 H   0  0  0  0  0  0  0  0  0  0  0  0
  144.4791   71.1454  220.3888 H   0  0  0  0  0  0  0  0  0  0  0  0
  146.0409   71.7433  218.6519 H   0  0  0  0  0  0  0  0  0  0  0  0
  146.5370   74.3290  219.3480 H   0  0  0  0  0  0  0  0  0  0  0  0
  145.2065   74.0378  217.5249 H   0  0  0  0  0  0  0  0  0  0  0  0
  144.1089   72.6965  217.4624 H   0  0  0  0  0  0  0  0  0  0  0  0
  144.2168   74.9731  219.6163 H   0  0  0  0  0  0  0  0  0  0  0  0
  142.8091   74.9238  217.5017 H   0  0  0  0  0  0  0  0  0  0  0  0
  141.7585   73.9949  218.7128 H   0  0  0  0  0  0  0  0  0  0  0  0
  140.6066   76.2639  217.7906 H   0  0  0  0  0  0  0  0  0  0  0  0
  140.0577   75.8303  219.4061 H   0  0  0  0  0  0  0  0  0  0  0  0
  140.1769   78.4622  218.6044 H   0  0  0  0  0  0  0  0  0  0  0  0
  140.5254   78.0791  220.2678 H   0  0  0  0  0  0  0  0  0  0  0  0
  142.4610   78.4753  217.9173 H   0  0  0  0  0  0  0  0  0  0  0  0
  142.6342   79.1206  219.5346 H   0  0  0  0  0  0  0  0  0  0  0  0
  143.9289   76.8335  218.7390 H   0  0  0  0  0  0  0  0  0  0  0  0
  143.3854   76.9992  220.4096 H   0  0  0  0  0  0  0  0  0  0  0  0
  138.1754   77.0785  222.5366 H   0  0  0  0  0  0  0  0  0  0  0  0
  139.2456   81.4677  223.5755 H   0  0  0  0  0  0  0  0  0  0  0  0
  141.4333   82.6895  223.8209 H   0  0  0  0  0  0  0  0  0  0  0  0
  143.5556   81.4934  223.4873 H   0  0  0  0  0  0  0  0  0  0  0  0
  143.6013   79.0637  222.9010 H   0  0  0  0  0  0  0  0  0  0  0  0
  1  2  2  0
  2  3  1  0
  3  4  1  0
  4  5  1  0
  5  6  2  0
  5  7  1  0
  7  8  1  0
  8  9  1  0
  9 10  1  0
  9 11  1  0
 11 12  1  0
 12 13  1  0
 13 14  1  0
 14 15  1  0
 15 16  1  0
 16 17  1  0
 17 18  1  0
  2 19  1  0
 19 20  2  0
 20 21  1  0
 21 22  2  0
 22 23  1  0
 23 24  2  0
 24 25  1  0
 25 26  2  0
 26 27  1  0
 27 28  2  0
 12  7  1  0
 18 14  1  0
 28 19  1  0
 27 22  1  0
  3 29  1  0
  4 30  1  0
  4 31  1  0
  8 32  1  0
  8 33  1  0
  9 34  1  6
 10 35  1  0
 11 36  1  0
 11 37  1  0
 12 38  1  1
 13 39  1  0
 13 40  1  0
 15 41  1  0
 15 42  1  0
 16 43  1  0
 16 44  1  0
 17 45  1  0
 17 46  1  0
 18 47  1  0
 18 48  1  0
 20 49  1  0
 23 50  1  0
 24 51  1  0
 25 52  1  0
 26 53  1  0
M  END
>  <smiles>  (42) 
O=C(NCC(=O)N1C[C@H](O)C[C@H]1CN1CCCC1)c1cnc2ccccc2n1

>  <score_type>  (42) 
oracle

>  <origin>  (42) 
autodockgpu

>  <m_score__min__energy>  (42) 
-8.4800000000000004

>  <m_primary>  (42) 
energy

>  <rmsd>  (42) 
7.082788791374734

>  <m_score__min__rmsd>  (42) 
7.082788791374734

>  <meeko>  (42) 
{"free_energy": -6.59, "intermolecular_energy": -8.67, "internal_energy": -2.8, "cluster_size": 12, "cluster_id": 8, "rank_in_cluster": 4}

>  <energy>  (42) 
-6.59

>  <cluster_rmsd>  (42) 
0.34

>  <cluster>  (42) 
8

$$$$

     RDKit          3D

 53 56  0  0  0  0  0  0  0  0999 V2000
  139.1490   74.8250  222.3080 O   0  0  0  0  0  0  0  0  0  0  0  0
  140.1980   75.5050  222.1050 C   0  0  0  0  0  0  0  0  0  0  0  0
  141.3410   74.8030  221.5040 N   0  0  0  0  0  0  0  0  0  0  0  0
  141.1230   73.4370  221.2250 C   0  0  0  0  0  0  0  0  0  0  0  0
  142.1720   72.6730  220.6140 C   0  0  0  0  0  0  0  0  0  0  0  0
  141.9000   71.3830  220.5840 O   0  0  0  0  0  0  0  0  0  0  0  0
  143.4200   72.9930  220.0410 N   0  0  0  0  0  0  0  0  0  0  0  0
  144.6410   72.2280  220.3270 C   0  0  0  0  0  0  0  0  0  0  0  0
  145.5760   72.6200  219.1810 C   0  0  2  0  0  0  0  0  0  0  0  0
  146.6040   73.4140  219.6680 O   0  0  0  0  0  0  0  0  0  0  0  0
  144.6730   73.3600  218.1910 C   0  0  0  0  0  0  0  0  0  0  0  0
  143.7480   74.0960  219.1550 C   0  0  1  0  0  0  0  0  0  0  0  0
  142.5860   74.7130  218.5360 C   0  0  0  0  0  0  0  0  0  0  0  0
  142.0580   75.8790  219.1770 N   0  0  0  0  0  0  0  0  0  0  0  0
  140.7810   76.3240  218.8270 C   0  0  0  0  0  0  0  0  0  0  0  0
  140.7380   77.7800  219.3040 C   0  0  0  0  0  0  0  0  0  0  0  0
  142.1850   78.1880  219.1710 C   0  0  0  0  0  0  0  0  0  0  0  0
  142.9270   76.9170  219.5270 C   0  0  0  0  0  0  0  0  0  0  0  0
  140.3020   76.9200  222.4340 C   0  0  0  0  0  0  0  0  0  0  0  0
  139.1190   77.6090  222.6060 C   0  0  0  0  0  0  0  0  0  0  0  0
  139.0940   78.9290  222.9130 N   0  0  0  0  0  0  0  0  0  0  0  0
  140.2440   79.5990  223.0570 C   0  0  0  0  0  0  0  0  0  0  0  0
  140.1980   80.9410  223.3680 C   0  0  0  0  0  0  0  0  0  0  0  0
  141.4170   81.6110  223.5090 C   0  0  0  0  0  0  0  0  0  0  0  0
  142.6030   80.9320  223.3400 C   0  0  0  0  0  0  0  0  0  0  0  0
  142.6400   79.5700  223.0250 C   0  0  0  0  0  0  0  0  0  0  0  0
  141.4180   78.9010  222.8830 C   0  0  0  0  0  0  0  0  0  0  0  0
  141.4430   77.5820  222.5770 N   0  0  0  0  0  0  0  0  0  0  0  0
  142.1410   75.4190  221.3560 H   0  0  0  0  0  0  0  0  0  0  0  0
  140.8834   72.9477  222.1806 H   0  0  0  0  0  0  0  0  0  0  0  0
  140.3290   73.4482  220.4638 H   0  0  0  0  0  0  0  0  0  0  0  0
  145.0674   72.5148  221.2996 H   0  0  0  0  0  0  0  0  0  0  0  0
  144.4660   71.1438  220.3892 H   0  0  0  0  0  0  0  0  0  0  0  0
  146.0683   71.7642  218.6959 H   0  0  0  0  0  0  0  0  0  0  0  0
  146.5780   74.3280  219.3500 H   0  0  0  0  0  0  0  0  0  0  0  0
  145.2453   74.0593  217.5637 H   0  0  0  0  0  0  0  0  0  0  0  0
  144.1582   72.7113  217.4670 H   0  0  0  0  0  0  0  0  0  0  0  0
  144.1986   74.9762  219.6369 H   0  0  0  0  0  0  0  0  0  0  0  0
  142.8653   74.9945  217.5100 H   0  0  0  0  0  0  0  0  0  0  0  0
  141.7878   73.9592  218.6051 H   0  0  0  0  0  0  0  0  0  0  0  0
  140.6342   76.2670  217.7383 H   0  0  0  0  0  0  0  0  0  0  0  0
  139.9863   75.7121  219.2788 H   0  0  0  0  0  0  0  0  0  0  0  0
  140.0879   78.3931  218.6626 H   0  0  0  0  0  0  0  0  0  0  0  0
  140.3297   77.9061  220.3176 H   0  0  0  0  0  0  0  0  0  0  0  0
  142.4141   78.5057  218.1431 H   0  0  0  0  0  0  0  0  0  0  0  0
  142.4563   79.0430  219.8076 H   0  0  0  0  0  0  0  0  0  0  0  0
  143.8649   76.8445  218.9568 H   0  0  0  0  0  0  0  0  0  0  0  0
  143.2016   76.8839  220.5917 H   0  0  0  0  0  0  0  0  0  0  0  0
  138.1668   77.0705  222.4904 H   0  0  0  0  0  0  0  0  0  0  0  0
  139.2396   81.4645  223.5001 H   0  0  0  0  0  0  0  0  0  0  0  0
  141.4287   82.6830  223.7555 H   0  0  0  0  0  0  0  0  0  0  0  0
  143.5508   81.4779  223.4564 H   0  0  0  0  0  0  0  0  0  0  0  0
  143.5961   79.0423  222.8933 H   0  0  0  0  0  0  0  0  0  0  0  0
  1  2  2  0
  2  3  1  0
  3  4  1  0
  4  5  1  0
  5  6  2  0
  5  7  1  0
  7  8  1  0
  8  9  1  0
  9 10  1  0
  9 11  1  0
 11 12  1  0
 12 13  1  0
 13 14  1  0
 14 15  1  0
 15 16  1  0
 16 17  1  0
 17 18  1  0
  2 19  1  0
 19 20  2  0
 20 21  1  0
 21 22  2  0
 22 23  1  0
 23 24  2  0
 24 25  1  0
 25 26  2  0
 26 27  1  0
 27 28  2  0
 12  7  1  0
 18 14  1  0
 28 19  1  0
 27 22  1  0
  3 29  1  0
  4 30  1  0
  4 31  1  0
  8 32  1  0
  8 33  1  0
  9 34  1  6
 10 35  1  0
 11 36  1  0
 11 37  1  0
 12 38  1  1
 13 39  1  0
 13 40  1  0
 15 41  1  0
 15 42  1  0
 16 43  1  0
 16 44  1  0
 17 45  1  0
 17 46  1  0
 18 47  1  0
 18 48  1  0
 20 49  1  0
 23 50  1  0
 24 51  1  0
 25 52  1  0
 26 53  1  0
M  END
>  <smiles>  (43) 
O=C(NCC(=O)N1C[C@H](O)C[C@H]1CN1CCCC1)c1cnc2ccccc2n1

>  <score_type>  (43) 
oracle

>  <origin>  (43) 
autodockgpu

>  <m_score__min__energy>  (43) 
-8.4800000000000004

>  <m_primary>  (43) 
energy

>  <rmsd>  (43) 
7.080173146609896

>  <m_score__min__rmsd>  (43) 
7.080173146609896

>  <meeko>  (43) 
{"free_energy": -6.55, "intermolecular_energy": -8.64, "internal_energy": -2.82, "cluster_size": 12, "cluster_id": 8, "rank_in_cluster": 7}

>  <energy>  (43) 
-6.57

>  <cluster_rmsd>  (43) 
0.35

>  <cluster>  (43) 
8

$$$$

     RDKit          3D

 53 56  0  0  0  0  0  0  0  0999 V2000
  141.3830   72.4730  222.2890 O   0  0  0  0  0  0  0  0  0  0  0  0
  140.3510   72.2600  222.9920 C   0  0  0  0  0  0  0  0  0  0  0  0
  139.1180   72.9550  222.5950 N   0  0  0  0  0  0  0  0  0  0  0  0
  139.2410   73.7850  221.4600 C   0  0  0  0  0  0  0  0  0  0  0  0
  139.8730   75.0660  221.5970 C   0  0  0  0  0  0  0  0  0  0  0  0
  139.2490   75.8440  222.4590 O   0  0  0  0  0  0  0  0  0  0  0  0
  141.0080   75.6720  221.0180 N   0  0  0  0  0  0  0  0  0  0  0  0
  141.9780   74.9230  220.2090 C   0  0  0  0  0  0  0  0  0  0  0  0
  142.7180   76.0220  219.4450 C   0  0  2  0  0  0  0  0  0  0  0  0
  144.0160   76.1330  219.9250 O   0  0  0  0  0  0  0  0  0  0  0  0
  141.8850   77.2830  219.6910 C   0  0  0  0  0  0  0  0  0  0  0  0
  141.4500   77.0500  221.1340 C   0  0  1  0  0  0  0  0  0  0  0  0
  140.4190   77.9560  221.6150 C   0  0  0  0  0  0  0  0  0  0  0  0
  140.8470   79.2570  222.0310 N   0  0  0  0  0  0  0  0  0  0  0  0
  142.1790   79.4410  222.4110 C   0  0  0  0  0  0  0  0  0  0  0  0
  142.1700   80.7430  223.2200 C   0  0  0  0  0  0  0  0  0  0  0  0
  140.7850   80.7210  223.8190 C   0  0  0  0  0  0  0  0  0  0  0  0
  139.9560   80.0780  222.7280 C   0  0  0  0  0  0  0  0  0  0  0  0
  140.3480   71.3720  224.1470 C   0  0  0  0  0  0  0  0  0  0  0  0
  140.9580   71.8370  225.2930 C   0  0  0  0  0  0  0  0  0  0  0  0
  141.0170   71.0970  226.4270 N   0  0  0  0  0  0  0  0  0  0  0  0
  140.4710   69.8760  226.4520 C   0  0  0  0  0  0  0  0  0  0  0  0
  140.5420   69.1380  227.6140 C   0  0  0  0  0  0  0  0  0  0  0  0
  139.9640   67.8650  227.6050 C   0  0  0  0  0  0  0  0  0  0  0  0
  139.3520   67.3920  226.4660 C   0  0  0  0  0  0  0  0  0  0  0  0
  139.2840   68.1480  225.2910 C   0  0  0  0  0  0  0  0  0  0  0  0
  139.8650   69.4220  225.3020 C   0  0  0  0  0  0  0  0  0  0  0  0
  139.8050   70.1620  224.1690 N   0  0  0  0  0  0  0  0  0  0  0  0
  138.3290   72.7210  223.1980 H   0  0  0  0  0  0  0  0  0  0  0  0
  139.8153   73.2214  220.7099 H   0  0  0  0  0  0  0  0  0  0  0  0
  138.2007   74.0318  221.2013 H   0  0  0  0  0  0  0  0  0  0  0  0
  142.6686   74.3534  220.8483 H   0  0  0  0  0  0  0  0  0  0  0  0
  141.5068   74.1805  219.5482 H   0  0  0  0  0  0  0  0  0  0  0  0
  142.8176   75.8239  218.3676 H   0  0  0  0  0  0  0  0  0  0  0  0
  144.2640   77.0340  220.1790 H   0  0  0  0  0  0  0  0  0  0  0  0
  142.4906   78.1959  219.5915 H   0  0  0  0  0  0  0  0  0  0  0  0
  141.0583   77.4326  218.9810 H   0  0  0  0  0  0  0  0  0  0  0  0
  142.2340   77.2367  221.8827 H   0  0  0  0  0  0  0  0  0  0  0  0
  139.6882   78.0895  220.8038 H   0  0  0  0  0  0  0  0  0  0  0  0
  140.0181   77.4807  222.5224 H   0  0  0  0  0  0  0  0  0  0  0  0
  142.5265   78.6008  223.0301 H   0  0  0  0  0  0  0  0  0  0  0  0
  142.8580   79.4897  221.5469 H   0  0  0  0  0  0  0  0  0  0  0  0
  142.9448   80.7354  224.0008 H   0  0  0  0  0  0  0  0  0  0  0  0
  142.3841   81.6415  222.6227 H   0  0  0  0  0  0  0  0  0  0  0  0
  140.7615   80.1202  224.7402 H   0  0  0  0  0  0  0  0  0  0  0  0
  140.4217   81.7174  224.1110 H   0  0  0  0  0  0  0  0  0  0  0  0
  139.1406   79.4815  223.1631 H   0  0  0  0  0  0  0  0  0  0  0  0
  139.4851   80.8256  222.0728 H   0  0  0  0  0  0  0  0  0  0  0  0
  141.4107   72.8395  225.2866 H   0  0  0  0  0  0  0  0  0  0  0  0
  141.0345   69.5353  228.5138 H   0  0  0  0  0  0  0  0  0  0  0  0
  139.9983   67.2401  228.5096 H   0  0  0  0  0  0  0  0  0  0  0  0
  138.9024   66.3882  226.4804 H   0  0  0  0  0  0  0  0  0  0  0  0
  138.7911   67.7552  224.3895 H   0  0  0  0  0  0  0  0  0  0  0  0
  1  2  2  0
  2  3  1  0
  3  4  1  0
  4  5  1  0
  5  6  2  0
  5  7  1  0
  7  8  1  0
  8  9  1  0
  9 10  1  0
  9 11  1  0
 11 12  1  0
 12 13  1  0
 13 14  1  0
 14 15  1  0
 15 16  1  0
 16 17  1  0
 17 18  1  0
  2 19  1  0
 19 20  2  0
 20 21  1  0
 21 22  2  0
 22 23  1  0
 23 24  2  0
 24 25  1  0
 25 26  2  0
 26 27  1  0
 27 28  2  0
 12  7  1  0
 18 14  1  0
 28 19  1  0
 27 22  1  0
  3 29  1  0
  4 30  1  0
  4 31  1  0
  8 32  1  0
  8 33  1  0
  9 34  1  6
 10 35  1  0
 11 36  1  0
 11 37  1  0
 12 38  1  1
 13 39  1  0
 13 40  1  0
 15 41  1  0
 15 42  1  0
 16 43  1  0
 16 44  1  0
 17 45  1  0
 17 46  1  0
 18 47  1  0
 18 48  1  0
 20 49  1  0
 23 50  1  0
 24 51  1  0
 25 52  1  0
 26 53  1  0
M  END
>  <smiles>  (44) 
O=C(NCC(=O)N1C[C@H](O)C[C@H]1CN1CCCC1)c1cnc2ccccc2n1

>  <score_type>  (44) 
oracle

>  <origin>  (44) 
autodockgpu

>  <m_score__min__energy>  (44) 
-8.4800000000000004

>  <m_primary>  (44) 
energy

>  <rmsd>  (44) 
2.8640545967848277

>  <m_score__min__rmsd>  (44) 
2.8640545967848277

>  <meeko>  (44) 
{"free_energy": -7.86, "intermolecular_energy": -9.95, "internal_energy": -0.91, "cluster_size": 24, "cluster_id": 1, "rank_in_cluster": 16}

>  <energy>  (44) 
-6.57

>  <cluster_rmsd>  (44) 
0.34

>  <cluster>  (44) 
8

$$$$

     RDKit          3D

 53 56  0  0  0  0  0  0  0  0999 V2000
  139.9510   73.4720  222.4330 O   0  0  0  0  0  0  0  0  0  0  0  0
  140.1850   72.2290  222.4880 C   0  0  0  0  0  0  0  0  0  0  0  0
  140.4980   71.5530  221.2210 N   0  0  0  0  0  0  0  0  0  0  0  0
  140.5000   72.3880  220.0840 C   0  0  0  0  0  0  0  0  0  0  0  0
  141.7530   72.8360  219.5480 C   0  0  0  0  0  0  0  0  0  0  0  0
  141.7070   73.0060  218.2410 O   0  0  0  0  0  0  0  0  0  0  0  0
  143.0140   73.1330  220.1050 N   0  0  0  0  0  0  0  0  0  0  0  0
  143.9330   72.0910  220.5830 C   0  0  0  0  0  0  0  0  0  0  0  0
  145.2790   72.8150  220.6470 C   0  0  2  0  0  0  0  0  0  0  0  0
  145.6500   72.9940  221.9720 O   0  0  0  0  0  0  0  0  0  0  0  0
  145.0340   74.1380  219.9160 C   0  0  0  0  0  0  0  0  0  0  0  0
  143.6040   74.4360  220.3540 C   0  0  1  0  0  0  0  0  0  0  0  0
  142.9560   75.5180  219.6300 C   0  0  0  0  0  0  0  0  0  0  0  0
  141.8360   76.1400  220.2670 N   0  0  0  0  0  0  0  0  0  0  0  0
  141.6580   77.5190  220.1290 C   0  0  0  0  0  0  0  0  0  0  0  0
  140.7130   77.9000  221.2750 C   0  0  0  0  0  0  0  0  0  0  0  0
  141.0750   76.8760  222.3230 C   0  0  0  0  0  0  0  0  0  0  0  0
  141.3920   75.6470  221.4980 C   0  0  0  0  0  0  0  0  0  0  0  0
  140.1570   71.4710  223.7320 C   0  0  0  0  0  0  0  0  0  0  0  0
  139.5740   70.2220  223.6870 C   0  0  0  0  0  0  0  0  0  0  0  0
  139.4890   69.4280  224.7830 N   0  0  0  0  0  0  0  0  0  0  0  0
  139.9830   69.8550  225.9510 C   0  0  0  0  0  0  0  0  0  0  0  0
  139.8870   69.0340  227.0540 C   0  0  0  0  0  0  0  0  0  0  0  0
  140.4110   69.5120  228.2600 C   0  0  0  0  0  0  0  0  0  0  0  0
  140.9960   70.7570  228.3130 C   0  0  0  0  0  0  0  0  0  0  0  0
  141.0890   71.5830  227.1890 C   0  0  0  0  0  0  0  0  0  0  0  0
  140.5630   71.1040  225.9830 C   0  0  0  0  0  0  0  0  0  0  0  0
  140.6480   71.8960  224.8880 N   0  0  0  0  0  0  0  0  0  0  0  0
  140.6910   70.5580  221.3490 H   0  0  0  0  0  0  0  0  0  0  0  0
  139.9846   71.8399  219.2816 H   0  0  0  0  0  0  0  0  0  0  0  0
  140.0204   73.3128  220.4372 H   0  0  0  0  0  0  0  0  0  0  0  0
  143.6335   71.7264  221.5767 H   0  0  0  0  0  0  0  0  0  0  0  0
  143.9516   71.2020  219.9355 H   0  0  0  0  0  0  0  0  0  0  0  0
  146.1057   72.2589  220.1808 H   0  0  0  0  0  0  0  0  0  0  0  0
  145.6650   72.1760  222.4880 H   0  0  0  0  0  0  0  0  0  0  0  0
  145.7320   74.9208  220.2478 H   0  0  0  0  0  0  0  0  0  0  0  0
  145.1803   74.0940  218.8267 H   0  0  0  0  0  0  0  0  0  0  0  0
  143.5117   74.8115  221.3838 H   0  0  0  0  0  0  0  0  0  0  0  0
  143.7113   76.2971  219.4497 H   0  0  0  0  0  0  0  0  0  0  0  0
  142.5482   75.0524  218.7207 H   0  0  0  0  0  0  0  0  0  0  0  0
  142.6184   78.0467  220.2251 H   0  0  0  0  0  0  0  0  0  0  0  0
  141.2524   77.7922  219.1437 H   0  0  0  0  0  0  0  0  0  0  0  0
  140.9057   78.9230  221.6304 H   0  0  0  0  0  0  0  0  0  0  0  0
  139.6489   77.8968  220.9962 H   0  0  0  0  0  0  0  0  0  0  0  0
  141.9505   77.1983  222.9057 H   0  0  0  0  0  0  0  0  0  0  0  0
  140.2776   76.7097  223.0622 H   0  0  0  0  0  0  0  0  0  0  0  0
  142.1790   75.0496  221.9815 H   0  0  0  0  0  0  0  0  0  0  0  0
  140.5183   74.9879  221.3874 H   0  0  0  0  0  0  0  0  0  0  0  0
  139.1653   69.8586  222.7326 H   0  0  0  0  0  0  0  0  0  0  0  0
  139.4168   68.0417  226.9886 H   0  0  0  0  0  0  0  0  0  0  0  0
  140.3554   68.8922  229.1670 H   0  0  0  0  0  0  0  0  0  0  0  0
  141.4034   71.1134  229.2706 H   0  0  0  0  0  0  0  0  0  0  0  0
  141.5594   72.5755  227.2499 H   0  0  0  0  0  0  0  0  0  0  0  0
  1  2  2  0
  2  3  1  0
  3  4  1  0
  4  5  1  0
  5  6  2  0
  5  7  1  0
  7  8  1  0
  8  9  1  0
  9 10  1  0
  9 11  1  0
 11 12  1  0
 12 13  1  0
 13 14  1  0
 14 15  1  0
 15 16  1  0
 16 17  1  0
 17 18  1  0
  2 19  1  0
 19 20  2  0
 20 21  1  0
 21 22  2  0
 22 23  1  0
 23 24  2  0
 24 25  1  0
 25 26  2  0
 26 27  1  0
 27 28  2  0
 12  7  1  0
 18 14  1  0
 28 19  1  0
 27 22  1  0
  3 29  1  0
  4 30  1  0
  4 31  1  0
  8 32  1  0
  8 33  1  0
  9 34  1  6
 10 35  1  0
 11 36  1  0
 11 37  1  0
 12 38  1  1
 13 39  1  0
 13 40  1  0
 15 41  1  0
 15 42  1  0
 16 43  1  0
 16 44  1  0
 17 45  1  0
 17 46  1  0
 18 47  1  0
 18 48  1  0
 20 49  1  0
 23 50  1  0
 24 51  1  0
 25 52  1  0
 26 53  1  0
M  END
>  <smiles>  (45) 
O=C(NCC(=O)N1C[C@H](O)C[C@H]1CN1CCCC1)c1cnc2ccccc2n1

>  <score_type>  (45) 
oracle

>  <origin>  (45) 
autodockgpu

>  <m_score__min__energy>  (45) 
-8.4800000000000004

>  <m_primary>  (45) 
energy

>  <rmsd>  (45) 
3.967231698911273

>  <m_score__min__rmsd>  (45) 
3.967231698911273

>  <meeko>  (45) 
{"free_energy": -7.35, "intermolecular_energy": -9.44, "internal_energy": -1.47, "cluster_size": 4, "cluster_id": 5, "rank_in_cluster": 2}

>  <energy>  (45) 
-6.55

>  <cluster_rmsd>  (45) 
0.35

>  <cluster>  (45) 
8

$$$$

     RDKit          3D

 53 56  0  0  0  0  0  0  0  0999 V2000
  136.3870   77.2280  223.0540 O   0  0  0  0  0  0  0  0  0  0  0  0
  136.5170   75.9970  223.3250 C   0  0  0  0  0  0  0  0  0  0  0  0
  137.6600   75.2980  222.7200 N   0  0  0  0  0  0  0  0  0  0  0  0
  138.4830   76.0990  221.9000 C   0  0  0  0  0  0  0  0  0  0  0  0
  139.8510   75.7180  221.6990 C   0  0  0  0  0  0  0  0  0  0  0  0
  140.1500   74.5860  222.3030 O   0  0  0  0  0  0  0  0  0  0  0  0
  140.9400   76.2830  221.0020 N   0  0  0  0  0  0  0  0  0  0  0  0
  141.7820   75.5030  220.0850 C   0  0  0  0  0  0  0  0  0  0  0  0
  142.4800   76.5790  219.2510 C   0  0  2  0  0  0  0  0  0  0  0  0
  143.8260   76.6290  219.5860 O   0  0  0  0  0  0  0  0  0  0  0  0
  141.7350   77.8710  219.5980 C   0  0  0  0  0  0  0  0  0  0  0  0
  141.4510   77.6390  221.0780 C   0  0  1  0  0  0  0  0  0  0  0  0
  140.5200   78.5820  221.6770 C   0  0  0  0  0  0  0  0  0  0  0  0
  141.0140   79.3760  222.7600 N   0  0  0  0  0  0  0  0  0  0  0  0
  140.7760   80.7530  222.7550 C   0  0  0  0  0  0  0  0  0  0  0  0
  141.8050   81.3240  223.7370 C   0  0  0  0  0  0  0  0  0  0  0  0
  142.9430   80.3440  223.5910 C   0  0  0  0  0  0  0  0  0  0  0  0
  142.2280   79.0290  223.3610 C   0  0  0  0  0  0  0  0  0  0  0  0
  135.5980   75.2750  224.1940 C   0  0  0  0  0  0  0  0  0  0  0  0
  135.5230   73.9090  224.0230 C   0  0  0  0  0  0  0  0  0  0  0  0
  134.7010   73.1340  224.7740 N   0  0  0  0  0  0  0  0  0  0  0  0
  133.9330   73.6980  225.7130 C   0  0  0  0  0  0  0  0  0  0  0  0
  133.1040   72.8950  226.4660 C   0  0  0  0  0  0  0  0  0  0  0  0
  132.3130   73.5160  227.4380 C   0  0  0  0  0  0  0  0  0  0  0  0
  132.3820   74.8800  227.6160 C   0  0  0  0  0  0  0  0  0  0  0  0
  133.2270   75.6870  226.8480 C   0  0  0  0  0  0  0  0  0  0  0  0
  134.0170   75.0640  225.8750 C   0  0  0  0  0  0  0  0  0  0  0  0
  134.8380   75.8360  225.1260 N   0  0  0  0  0  0  0  0  0  0  0  0
  137.7070   74.3170  222.9970 H   0  0  0  0  0  0  0  0  0  0  0  0
  138.0101   76.1355  220.9075 H   0  0  0  0  0  0  0  0  0  0  0  0
  138.5535   77.0500  222.4483 H   0  0  0  0  0  0  0  0  0  0  0  0
  142.5138   74.8975  220.6399 H   0  0  0  0  0  0  0  0  0  0  0  0
  141.2092   74.7886  219.4754 H   0  0  0  0  0  0  0  0  0  0  0  0
  142.4511   76.3903  218.1677 H   0  0  0  0  0  0  0  0  0  0  0  0
  144.0650   77.3890  220.1360 H   0  0  0  0  0  0  0  0  0  0  0  0
  142.3655   78.7584  219.4397 H   0  0  0  0  0  0  0  0  0  0  0  0
  140.8425   78.0643  218.9848 H   0  0  0  0  0  0  0  0  0  0  0  0
  142.3200   77.7833  221.7368 H   0  0  0  0  0  0  0  0  0  0  0  0
  140.1868   79.2692  220.8854 H   0  0  0  0  0  0  0  0  0  0  0  0
  139.7235   77.9621  222.1143 H   0  0  0  0  0  0  0  0  0  0  0  0
  140.9263   81.1699  221.7482 H   0  0  0  0  0  0  0  0  0  0  0  0
  139.7430   80.9999  223.0411 H   0  0  0  0  0  0  0  0  0  0  0  0
  142.1119   82.3406  223.4502 H   0  0  0  0  0  0  0  0  0  0  0  0
  141.4317   81.4249  224.7668 H   0  0  0  0  0  0  0  0  0  0  0  0
  143.5811   80.6031  222.7333 H   0  0  0  0  0  0  0  0  0  0  0  0
  143.6162   80.3266  224.4607 H   0  0  0  0  0  0  0  0  0  0  0  0
  142.8168   78.3802  222.6959 H   0  0  0  0  0  0  0  0  0  0  0  0
  142.0803   78.4704  224.2970 H   0  0  0  0  0  0  0  0  0  0  0  0
  136.1489   73.4329  223.2539 H   0  0  0  0  0  0  0  0  0  0  0  0
  133.0659   71.8070  226.3086 H   0  0  0  0  0  0  0  0  0  0  0  0
  131.6350   72.9143  228.0611 H   0  0  0  0  0  0  0  0  0  0  0  0
  131.7526   75.3492  228.3865 H   0  0  0  0  0  0  0  0  0  0  0  0
  133.2695   76.7751  227.0033 H   0  0  0  0  0  0  0  0  0  0  0  0
  1  2  2  0
  2  3  1  0
  3  4  1  0
  4  5  1  0
  5  6  2  0
  5  7  1  0
  7  8  1  0
  8  9  1  0
  9 10  1  0
  9 11  1  0
 11 12  1  0
 12 13  1  0
 13 14  1  0
 14 15  1  0
 15 16  1  0
 16 17  1  0
 17 18  1  0
  2 19  1  0
 19 20  2  0
 20 21  1  0
 21 22  2  0
 22 23  1  0
 23 24  2  0
 24 25  1  0
 25 26  2  0
 26 27  1  0
 27 28  2  0
 12  7  1  0
 18 14  1  0
 28 19  1  0
 27 22  1  0
  3 29  1  0
  4 30  1  0
  4 31  1  0
  8 32  1  0
  8 33  1  0
  9 34  1  6
 10 35  1  0
 11 36  1  0
 11 37  1  0
 12 38  1  1
 13 39  1  0
 13 40  1  0
 15 41  1  0
 15 42  1  0
 16 43  1  0
 16 44  1  0
 17 45  1  0
 17 46  1  0
 18 47  1  0
 18 48  1  0
 20 49  1  0
 23 50  1  0
 24 51  1  0
 25 52  1  0
 26 53  1  0
M  END
>  <smiles>  (46) 
O=C(NCC(=O)N1C[C@H](O)C[C@H]1CN1CCCC1)c1cnc2ccccc2n1

>  <score_type>  (46) 
oracle

>  <origin>  (46) 
autodockgpu

>  <m_score__min__energy>  (46) 
-8.4800000000000004

>  <m_primary>  (46) 
energy

>  <rmsd>  (46) 
5.188864909680239

>  <m_score__min__rmsd>  (46) 
5.188864909680239

>  <meeko>  (46) 
{"free_energy": -7.55, "intermolecular_energy": -9.64, "internal_energy": -1.26, "cluster_size": 5, "cluster_id": 3, "rank_in_cluster": 2}

>  <energy>  (46) 
-6.51

>  <cluster_rmsd>  (46) 
0.34

>  <cluster>  (46) 
8

$$$$

     RDKit          3D

 53 56  0  0  0  0  0  0  0  0999 V2000
  139.5420   71.3080  221.0220 O   0  0  0  0  0  0  0  0  0  0  0  0
  140.5080   71.2070  221.8340 C   0  0  0  0  0  0  0  0  0  0  0  0
  141.8600   71.4010  221.2900 N   0  0  0  0  0  0  0  0  0  0  0  0
  141.9120   71.6810  219.9080 C   0  0  0  0  0  0  0  0  0  0  0  0
  142.6870   70.8300  219.0520 C   0  0  0  0  0  0  0  0  0  0  0  0
  142.2400   70.8230  217.8120 O   0  0  0  0  0  0  0  0  0  0  0  0
  143.8150   70.0040  219.2420 N   0  0  0  0  0  0  0  0  0  0  0  0
  143.7110   68.6250  219.7390 C   0  0  0  0  0  0  0  0  0  0  0  0
  145.0540   68.0090  219.3440 C   0  0  2  0  0  0  0  0  0  0  0  0
  145.8200   67.7900  220.4800 O   0  0  0  0  0  0  0  0  0  0  0  0
  145.6790   69.0360  218.3970 C   0  0  0  0  0  0  0  0  0  0  0  0
  145.2150   70.3340  219.0500 C   0  0  1  0  0  0  0  0  0  0  0  0
  145.4290   71.5300  218.2510 C   0  0  0  0  0  0  0  0  0  0  0  0
  145.5690   72.7640  218.9630 N   0  0  0  0  0  0  0  0  0  0  0  0
  146.1090   72.7440  220.2520 C   0  0  0  0  0  0  0  0  0  0  0  0
  145.6780   74.0800  220.8680 C   0  0  0  0  0  0  0  0  0  0  0  0
  144.3680   74.3330  220.1640 C   0  0  0  0  0  0  0  0  0  0  0  0
  144.6150   73.7690  218.7800 C   0  0  0  0  0  0  0  0  0  0  0  0
  140.3270   70.9160  223.2500 C   0  0  0  0  0  0  0  0  0  0  0  0
  139.4780   69.8760  223.5690 C   0  0  0  0  0  0  0  0  0  0  0  0
  139.2320   69.5170  224.8530 N   0  0  0  0  0  0  0  0  0  0  0  0
  139.8230   70.1820  225.8520 C   0  0  0  0  0  0  0  0  0  0  0  0
  139.5600   69.8030  227.1520 C   0  0  0  0  0  0  0  0  0  0  0  0
  140.1910   70.5200  228.1720 C   0  0  0  0  0  0  0  0  0  0  0  0
  141.0400   71.5590  227.8630 C   0  0  0  0  0  0  0  0  0  0  0  0
  141.3010   71.9370  226.5430 C   0  0  0  0  0  0  0  0  0  0  0  0
  140.6670   71.2180  225.5220 C   0  0  0  0  0  0  0  0  0  0  0  0
  140.9130   71.5760  224.2400 N   0  0  0  0  0  0  0  0  0  0  0  0
  142.5820   71.3210  222.0070 H   0  0  0  0  0  0  0  0  0  0  0  0
  140.8773   71.6558  219.5355 H   0  0  0  0  0  0  0  0  0  0  0  0
  142.4316   72.6491  219.8557 H   0  0  0  0  0  0  0  0  0  0  0  0
  143.5751   68.6083  220.8304 H   0  0  0  0  0  0  0  0  0  0  0  0
  142.8487   68.0813  219.3256 H   0  0  0  0  0  0  0  0  0  0  0  0
  144.9658   67.0284  218.8535 H   0  0  0  0  0  0  0  0  0  0  0  0
  146.3350   66.9710  220.4530 H   0  0  0  0  0  0  0  0  0  0  0  0
  146.7762   68.9589  218.3811 H   0  0  0  0  0  0  0  0  0  0  0  0
  145.3880   68.9238  217.3422 H   0  0  0  0  0  0  0  0  0  0  0  0
  145.7678   70.6096  219.9602 H   0  0  0  0  0  0  0  0  0  0  0  0
  146.3467   71.3784  217.6638 H   0  0  0  0  0  0  0  0  0  0  0  0
  144.5132   71.6447  217.6525 H   0  0  0  0  0  0  0  0  0  0  0  0
  145.7042   71.9004  220.8303 H   0  0  0  0  0  0  0  0  0  0  0  0
  147.2018   72.6186  220.2464 H   0  0  0  0  0  0  0  0  0  0  0  0
  145.5385   73.9936  221.9557 H   0  0  0  0  0  0  0  0  0  0  0  0
  146.4148   74.8873  220.7438 H   0  0  0  0  0  0  0  0  0  0  0  0
  143.5415   73.8070  220.6643 H   0  0  0  0  0  0  0  0  0  0  0  0
  144.0762   75.3936  220.1559 H   0  0  0  0  0  0  0  0  0  0  0  0
  143.6877   73.3501  218.3622 H   0  0  0  0  0  0  0  0  0  0  0  0
  144.9582   74.5405  218.0750 H   0  0  0  0  0  0  0  0  0  0  0  0
  138.9857   69.3213  222.7566 H   0  0  0  0  0  0  0  0  0  0  0  0
  138.8797   68.9684  227.3771 H   0  0  0  0  0  0  0  0  0  0  0  0
  140.0091   70.2539  229.2237 H   0  0  0  0  0  0  0  0  0  0  0  0
  141.5283   72.1090  228.6810 H   0  0  0  0  0  0  0  0  0  0  0  0
  141.9811   72.7707  226.3139 H   0  0  0  0  0  0  0  0  0  0  0  0
  1  2  2  0
  2  3  1  0
  3  4  1  0
  4  5  1  0
  5  6  2  0
  5  7  1  0
  7  8  1  0
  8  9  1  0
  9 10  1  0
  9 11  1  0
 11 12  1  0
 12 13  1  0
 13 14  1  0
 14 15  1  0
 15 16  1  0
 16 17  1  0
 17 18  1  0
  2 19  1  0
 19 20  2  0
 20 21  1  0
 21 22  2  0
 22 23  1  0
 23 24  2  0
 24 25  1  0
 25 26  2  0
 26 27  1  0
 27 28  2  0
 12  7  1  0
 18 14  1  0
 28 19  1  0
 27 22  1  0
  3 29  1  0
  4 30  1  0
  4 31  1  0
  8 32  1  0
  8 33  1  0
  9 34  1  6
 10 35  1  0
 11 36  1  0
 11 37  1  0
 12 38  1  1
 13 39  1  0
 13 40  1  0
 15 41  1  0
 15 42  1  0
 16 43  1  0
 16 44  1  0
 17 45  1  0
 17 46  1  0
 18 47  1  0
 18 48  1  0
 20 49  1  0
 23 50  1  0
 24 51  1  0
 25 52  1  0
 26 53  1  0
M  END
>  <smiles>  (47) 
O=C(NCC(=O)N1C[C@H](O)C[C@H]1CN1CCCC1)c1cnc2ccccc2n1

>  <score_type>  (47) 
oracle

>  <origin>  (47) 
autodockgpu

>  <m_score__min__energy>  (47) 
-8.4800000000000004

>  <m_primary>  (47) 
energy

>  <rmsd>  (47) 
6.297649628007278

>  <m_score__min__rmsd>  (47) 
6.297649628007278

>  <meeko>  (47) 
{"free_energy": -7.28, "intermolecular_energy": -9.36, "internal_energy": -1.57, "cluster_size": 1, "cluster_id": 7, "rank_in_cluster": 1}

>  <energy>  (47) 
-6.45

>  <cluster_rmsd>  (47) 
0.38

>  <cluster>  (47) 
8

$$$$

     RDKit          3D

 53 56  0  0  0  0  0  0  0  0999 V2000
  136.3330   77.2450  223.0200 O   0  0  0  0  0  0  0  0  0  0  0  0
  136.4390   76.0210  223.3250 C   0  0  0  0  0  0  0  0  0  0  0  0
  137.5530   75.2760  222.7200 N   0  0  0  0  0  0  0  0  0  0  0  0
  138.3780   76.0320  221.8610 C   0  0  0  0  0  0  0  0  0  0  0  0
  139.7480   75.6430  221.6870 C   0  0  0  0  0  0  0  0  0  0  0  0
  140.0180   74.4880  222.2630 O   0  0  0  0  0  0  0  0  0  0  0  0
  140.8620   76.2180  221.0410 N   0  0  0  0  0  0  0  0  0  0  0  0
  141.7460   75.4490  220.1550 C   0  0  0  0  0  0  0  0  0  0  0  0
  142.4730   76.5340  219.3590 C   0  0  2  0  0  0  0  0  0  0  0  0
  143.8030   76.5890  219.7500 O   0  0  0  0  0  0  0  0  0  0  0  0
  141.7070   77.8190  219.6810 C   0  0  0  0  0  0  0  0  0  0  0  0
  141.3620   77.5760  221.1470 C   0  0  1  0  0  0  0  0  0  0  0  0
  140.4010   78.5110  221.7120 C   0  0  0  0  0  0  0  0  0  0  0  0
  140.8890   79.4120  222.7110 N   0  0  0  0  0  0  0  0  0  0  0  0
  140.8790   80.7840  222.4470 C   0  0  0  0  0  0  0  0  0  0  0  0
  141.8680   81.3750  223.4600 C   0  0  0  0  0  0  0  0  0  0  0  0
  142.8400   80.2350  223.6390 C   0  0  0  0  0  0  0  0  0  0  0  0
  141.9530   79.0140  223.5270 C   0  0  0  0  0  0  0  0  0  0  0  0
  135.5200   75.3470  224.2340 C   0  0  0  0  0  0  0  0  0  0  0  0
  135.4750   73.9700  224.1660 C   0  0  0  0  0  0  0  0  0  0  0  0
  134.6570   73.2380  224.9620 N   0  0  0  0  0  0  0  0  0  0  0  0
  133.8630   73.8560  225.8440 C   0  0  0  0  0  0  0  0  0  0  0  0
  133.0370   73.0940  226.6440 C   0  0  0  0  0  0  0  0  0  0  0  0
  132.2200   73.7710  227.5540 C   0  0  0  0  0  0  0  0  0  0  0  0
  132.2590   75.1450  227.6280 C   0  0  0  0  0  0  0  0  0  0  0  0
  133.1000   75.9090  226.8140 C   0  0  0  0  0  0  0  0  0  0  0  0
  133.9170   75.2300  225.9030 C   0  0  0  0  0  0  0  0  0  0  0  0
  134.7350   75.9610  225.1090 N   0  0  0  0  0  0  0  0  0  0  0  0
  137.5820   74.3030  223.0270 H   0  0  0  0  0  0  0  0  0  0  0  0
  137.9094   76.0130  220.8660 H   0  0  0  0  0  0  0  0  0  0  0  0
  138.4445   77.0118  222.3565 H   0  0  0  0  0  0  0  0  0  0  0  0
  142.4568   74.8431  220.7361 H   0  0  0  0  0  0  0  0  0  0  0  0
  141.2031   74.7364  219.5167 H   0  0  0  0  0  0  0  0  0  0  0  0
  142.4915   76.3519  218.2743 H   0  0  0  0  0  0  0  0  0  0  0  0
  144.0490   77.4170  220.1870 H   0  0  0  0  0  0  0  0  0  0  0  0
  142.3384   78.7108  219.5547 H   0  0  0  0  0  0  0  0  0  0  0  0
  140.8403   78.0113  219.0316 H   0  0  0  0  0  0  0  0  0  0  0  0
  142.2015   77.7204  221.8430 H   0  0  0  0  0  0  0  0  0  0  0  0
  139.9997   79.1159  220.8856 H   0  0  0  0  0  0  0  0  0  0  0  0
  139.6581   77.8844  222.2273 H   0  0  0  0  0  0  0  0  0  0  0  0
  141.2100   80.9846  221.4174 H   0  0  0  0  0  0  0  0  0  0  0  0
  139.8738   81.2212  222.5386 H   0  0  0  0  0  0  0  0  0  0  0  0
  142.3677   82.2687  223.0580 H   0  0  0  0  0  0  0  0  0  0  0  0
  141.3997   81.7138  224.3959 H   0  0  0  0  0  0  0  0  0  0  0  0
  143.6066   80.2410  222.8502 H   0  0  0  0  0  0  0  0  0  0  0  0
  143.3958   80.2827  224.5870 H   0  0  0  0  0  0  0  0  0  0  0  0
  142.5015   78.1788  223.0669 H   0  0  0  0  0  0  0  0  0  0  0  0
  141.6094   78.6618  224.5108 H   0  0  0  0  0  0  0  0  0  0  0  0
  136.1222   73.4501  223.4443 H   0  0  0  0  0  0  0  0  0  0  0  0
  133.0219   71.9967  226.5688 H   0  0  0  0  0  0  0  0  0  0  0  0
  131.5446   73.2047  228.2122 H   0  0  0  0  0  0  0  0  0  0  0  0
  131.6076   75.6580  228.3508 H   0  0  0  0  0  0  0  0  0  0  0  0
  133.1190   77.0064  226.8869 H   0  0  0  0  0  0  0  0  0  0  0  0
  1  2  2  0
  2  3  1  0
  3  4  1  0
  4  5  1  0
  5  6  2  0
  5  7  1  0
  7  8  1  0
  8  9  1  0
  9 10  1  0
  9 11  1  0
 11 12  1  0
 12 13  1  0
 13 14  1  0
 14 15  1  0
 15 16  1  0
 16 17  1  0
 17 18  1  0
  2 19  1  0
 19 20  2  0
 20 21  1  0
 21 22  2  0
 22 23  1  0
 23 24  2  0
 24 25  1  0
 25 26  2  0
 26 27  1  0
 27 28  2  0
 12  7  1  0
 18 14  1  0
 28 19  1  0
 27 22  1  0
  3 29  1  0
  4 30  1  0
  4 31  1  0
  8 32  1  0
  8 33  1  0
  9 34  1  6
 10 35  1  0
 11 36  1  0
 11 37  1  0
 12 38  1  1
 13 39  1  0
 13 40  1  0
 15 41  1  0
 15 42  1  0
 16 43  1  0
 16 44  1  0
 17 45  1  0
 17 46  1  0
 18 47  1  0
 18 48  1  0
 20 49  1  0
 23 50  1  0
 24 51  1  0
 25 52  1  0
 26 53  1  0
M  END
>  <smiles>  (48) 
O=C(NCC(=O)N1C[C@H](O)C[C@H]1CN1CCCC1)c1cnc2ccccc2n1

>  <score_type>  (48) 
oracle

>  <origin>  (48) 
autodockgpu

>  <m_score__min__energy>  (48) 
-8.4800000000000004

>  <m_primary>  (48) 
energy

>  <rmsd>  (48) 
5.283979835321746

>  <m_score__min__rmsd>  (48) 
5.283979835321746

>  <meeko>  (48) 
{"free_energy": -7.58, "intermolecular_energy": -9.67, "internal_energy": -1.25, "cluster_size": 5, "cluster_id": 3, "rank_in_cluster": 1}

>  <energy>  (48) 
-6.38

>  <cluster_rmsd>  (48) 
0.25

>  <cluster>  (48) 
8

$$$$

     RDKit          3D

 53 56  0  0  0  0  0  0  0  0999 V2000
  141.1110   71.8500  221.4830 O   0  0  0  0  0  0  0  0  0  0  0  0
  140.4170   72.2710  222.4550 C   0  0  0  0  0  0  0  0  0  0  0  0
  139.7790   73.5860  222.2980 N   0  0  0  0  0  0  0  0  0  0  0  0
  140.0240   74.2250  221.0630 C   0  0  0  0  0  0  0  0  0  0  0  0
  140.2100   75.6470  221.0370 C   0  0  0  0  0  0  0  0  0  0  0  0
  139.3890   76.2750  221.8550 O   0  0  0  0  0  0  0  0  0  0  0  0
  141.0700   76.5160  220.3350 N   0  0  0  0  0  0  0  0  0  0  0  0
  141.3840   76.3390  218.9110 C   0  0  0  0  0  0  0  0  0  0  0  0
  141.9300   77.7070  218.5000 C   0  0  2  0  0  0  0  0  0  0  0  0
  143.2930   77.6130  218.2590 O   0  0  0  0  0  0  0  0  0  0  0  0
  141.6000   78.6190  219.6840 C   0  0  0  0  0  0  0  0  0  0  0  0
  141.8130   77.6540  220.8460 C   0  0  1  0  0  0  0  0  0  0  0  0
  141.3360   78.1330  222.1340 C   0  0  0  0  0  0  0  0  0  0  0  0
  141.6430   79.4900  222.4700 N   0  0  0  0  0  0  0  0  0  0  0  0
  142.7270   79.7500  223.3110 C   0  0  0  0  0  0  0  0  0  0  0  0
  142.4770   81.1720  223.8290 C   0  0  0  0  0  0  0  0  0  0  0  0
  140.9700   81.2380  223.8250 C   0  0  0  0  0  0  0  0  0  0  0  0
  140.5990   80.4090  222.6140 C   0  0  0  0  0  0  0  0  0  0  0  0
  140.2330   71.5140  223.6860 C   0  0  0  0  0  0  0  0  0  0  0  0
  139.5540   70.3170  223.5850 C   0  0  0  0  0  0  0  0  0  0  0  0
  139.3220   69.5300  224.6640 N   0  0  0  0  0  0  0  0  0  0  0  0
  139.7590   69.9110  225.8700 C   0  0  0  0  0  0  0  0  0  0  0  0
  139.5140   69.0970  226.9550 C   0  0  0  0  0  0  0  0  0  0  0  0
  139.9820   69.5260  228.2010 C   0  0  0  0  0  0  0  0  0  0  0  0
  140.6610   70.7190  228.3100 C   0  0  0  0  0  0  0  0  0  0  0  0
  140.9070   71.5380  227.2040 C   0  0  0  0  0  0  0  0  0  0  0  0
  140.4360   71.1070  225.9570 C   0  0  0  0  0  0  0  0  0  0  0  0
  140.6680   71.8930  224.8800 N   0  0  0  0  0  0  0  0  0  0  0  0
  139.2240   73.8490  223.1140 H   0  0  0  0  0  0  0  0  0  0  0  0
  140.9348   73.7737  220.6425 H   0  0  0  0  0  0  0  0  0  0  0  0
  139.0919   74.0721  220.4993 H   0  0  0  0  0  0  0  0  0  0  0  0
  142.1408   75.5535  218.7688 H   0  0  0  0  0  0  0  0  0  0  0  0
  140.5153   76.0245  218.3139 H   0  0  0  0  0  0  0  0  0  0  0  0
  141.4915   78.0991  217.5705 H   0  0  0  0  0  0  0  0  0  0  0  0
  143.8440   77.9270  218.9910 H   0  0  0  0  0  0  0  0  0  0  0  0
  142.2853   79.4778  219.7385 H   0  0  0  0  0  0  0  0  0  0  0  0
  140.6004   79.0766  219.6455 H   0  0  0  0  0  0  0  0  0  0  0  0
  142.8679   77.4621  221.0918 H   0  0  0  0  0  0  0  0  0  0  0  0
  140.2412   78.0268  222.1443 H   0  0  0  0  0  0  0  0  0  0  0  0
  141.8643   77.5238  222.8822 H   0  0  0  0  0  0  0  0  0  0  0  0
  142.7544   79.0318  224.1437 H   0  0  0  0  0  0  0  0  0  0  0  0
  143.6920   79.6572  222.7913 H   0  0  0  0  0  0  0  0  0  0  0  0
  142.8816   81.3064  224.8430 H   0  0  0  0  0  0  0  0  0  0  0  0
  142.9601   81.9573  223.2290 H   0  0  0  0  0  0  0  0  0  0  0  0
  140.5523   80.8035  224.7452 H   0  0  0  0  0  0  0  0  0  0  0  0
  140.5801   82.2658  223.7842 H   0  0  0  0  0  0  0  0  0  0  0  0
  139.6450   79.8872  222.7803 H   0  0  0  0  0  0  0  0  0  0  0  0
  140.4670   81.0282  221.7145 H   0  0  0  0  0  0  0  0  0  0  0  0
  139.1900   69.9917  222.5993 H   0  0  0  0  0  0  0  0  0  0  0  0
  138.9713   68.1466  226.8450 H   0  0  0  0  0  0  0  0  0  0  0  0
  139.8075   68.9096  229.0952 H   0  0  0  0  0  0  0  0  0  0  0  0
  141.0214   71.0379  229.2991 H   0  0  0  0  0  0  0  0  0  0  0  0
  141.4515   72.4879  227.3093 H   0  0  0  0  0  0  0  0  0  0  0  0
  1  2  2  0
  2  3  1  0
  3  4  1  0
  4  5  1  0
  5  6  2  0
  5  7  1  0
  7  8  1  0
  8  9  1  0
  9 10  1  0
  9 11  1  0
 11 12  1  0
 12 13  1  0
 13 14  1  0
 14 15  1  0
 15 16  1  0
 16 17  1  0
 17 18  1  0
  2 19  1  0
 19 20  2  0
 20 21  1  0
 21 22  2  0
 22 23  1  0
 23 24  2  0
 24 25  1  0
 25 26  2  0
 26 27  1  0
 27 28  2  0
 12  7  1  0
 18 14  1  0
 28 19  1  0
 27 22  1  0
  3 29  1  0
  4 30  1  0
  4 31  1  0
  8 32  1  0
  8 33  1  0
  9 34  1  6
 10 35  1  0
 11 36  1  0
 11 37  1  0
 12 38  1  1
 13 39  1  0
 13 40  1  0
 15 41  1  0
 15 42  1  0
 16 43  1  0
 16 44  1  0
 17 45  1  0
 17 46  1  0
 18 47  1  0
 18 48  1  0
 20 49  1  0
 23 50  1  0
 24 51  1  0
 25 52  1  0
 26 53  1  0
M  END
>  <smiles>  (49) 
O=C(NCC(=O)N1C[C@H](O)C[C@H]1CN1CCCC1)c1cnc2ccccc2n1

>  <score_type>  (49) 
oracle

>  <origin>  (49) 
autodockgpu

>  <m_score__min__energy>  (49) 
-8.4800000000000004

>  <m_primary>  (49) 
energy

>  <rmsd>  (49) 
2.1855993523158035

>  <m_score__min__rmsd>  (49) 
2.1855993523158035

>  <meeko>  (49) 
{"free_energy": -7.92, "intermolecular_energy": -10.0, "internal_energy": -1.04, "cluster_size": 24, "cluster_id": 1, "rank_in_cluster": 14}

>  <energy>  (49) 
-6.34

>  <cluster_rmsd>  (49) 
0.25

>  <cluster>  (49) 
8

$$$$

     RDKit          3D

 53 56  0  0  0  0  0  0  0  0999 V2000
  141.2160   72.9200  222.1740 O   0  0  0  0  0  0  0  0  0  0  0  0
  140.1330   72.6170  222.7560 C   0  0  0  0  0  0  0  0  0  0  0  0
  138.9260   73.3470  222.3420 N   0  0  0  0  0  0  0  0  0  0  0  0
  139.1290   74.3100  221.3310 C   0  0  0  0  0  0  0  0  0  0  0  0
  140.0070   75.4160  221.5860 C   0  0  0  0  0  0  0  0  0  0  0  0
  139.7070   76.0460  222.7040 O   0  0  0  0  0  0  0  0  0  0  0  0
  141.1110   75.9750  220.9090 N   0  0  0  0  0  0  0  0  0  0  0  0
  142.0930   75.1550  220.1870 C   0  0  0  0  0  0  0  0  0  0  0  0
  142.7850   76.1650  219.2700 C   0  0  2  0  0  0  0  0  0  0  0  0
  144.0850   76.3780  219.7060 O   0  0  0  0  0  0  0  0  0  0  0  0
  141.9150   77.4210  219.3640 C   0  0  0  0  0  0  0  0  0  0  0  0
  141.5100   77.3680  220.8340 C   0  0  1  0  0  0  0  0  0  0  0  0
  140.4570   78.2980  221.2110 C   0  0  0  0  0  0  0  0  0  0  0  0
  140.8130   79.3340  222.1330 N   0  0  0  0  0  0  0  0  0  0  0  0
  141.5920   80.4030  221.6820 C   0  0  0  0  0  0  0  0  0  0  0  0
  142.1650   81.0250  222.9610 C   0  0  0  0  0  0  0  0  0  0  0  0
  142.2590   79.8240  223.8690 C   0  0  0  0  0  0  0  0  0  0  0  0
  141.0500   79.0040  223.4710 C   0  0  0  0  0  0  0  0  0  0  0  0
  140.0470   71.5950  223.7910 C   0  0  0  0  0  0  0  0  0  0  0  0
  139.3680   70.4380  223.4680 C   0  0  0  0  0  0  0  0  0  0  0  0
  139.2240   69.4190  224.3520 N   0  0  0  0  0  0  0  0  0  0  0  0
  139.7490   69.5250  225.5780 C   0  0  0  0  0  0  0  0  0  0  0  0
  139.5910   68.4800  226.4630 C   0  0  0  0  0  0  0  0  0  0  0  0
  140.1500   68.6230  227.7360 C   0  0  0  0  0  0  0  0  0  0  0  0
  140.8300   69.7740  228.0660 C   0  0  0  0  0  0  0  0  0  0  0  0
  140.9860   70.8290  227.1620 C   0  0  0  0  0  0  0  0  0  0  0  0
  140.4240   70.6850  225.8880 C   0  0  0  0  0  0  0  0  0  0  0  0
  140.5690   71.7010  225.0050 N   0  0  0  0  0  0  0  0  0  0  0  0
  138.0920   73.0360  222.8420 H   0  0  0  0  0  0  0  0  0  0  0  0
  139.5282   73.7776  220.4551 H   0  0  0  0  0  0  0  0  0  0  0  0
  138.1415   74.7804  221.2146 H   0  0  0  0  0  0  0  0  0  0  0  0
  142.8116   74.6966  220.8824 H   0  0  0  0  0  0  0  0  0  0  0  0
  141.6363   74.3174  219.6394 H   0  0  0  0  0  0  0  0  0  0  0  0
  142.8748   75.8292  218.2264 H   0  0  0  0  0  0  0  0  0  0  0  0
  144.2040   77.2040  220.1960 H   0  0  0  0  0  0  0  0  0  0  0  0
  142.4886   78.3308  219.1332 H   0  0  0  0  0  0  0  0  0  0  0  0
  141.0729   77.4498  218.6569 H   0  0  0  0  0  0  0  0  0  0  0  0
  142.2990   77.6756  221.5360 H   0  0  0  0  0  0  0  0  0  0  0  0
  140.0937   78.7805  220.2916 H   0  0  0  0  0  0  0  0  0  0  0  0
  139.7078   77.6881  221.7371 H   0  0  0  0  0  0  0  0  0  0  0  0
  142.4004   80.0461  221.0270 H   0  0  0  0  0  0  0  0  0  0  0  0
  141.0103   81.1245  221.0896 H   0  0  0  0  0  0  0  0  0  0  0  0
  143.1546   81.4707  222.7817 H   0  0  0  0  0  0  0  0  0  0  0  0
  141.5581   81.8469  223.3687 H   0  0  0  0  0  0  0  0  0  0  0  0
  143.1908   79.2666  223.6928 H   0  0  0  0  0  0  0  0  0  0  0  0
  142.2733   80.0868  224.9371 H   0  0  0  0  0  0  0  0  0  0  0  0
  141.2614   77.9293  223.5725 H   0  0  0  0  0  0  0  0  0  0  0  0
  140.1793   79.2155  224.1090 H   0  0  0  0  0  0  0  0  0  0  0  0
  138.9304   70.3389  222.4637 H   0  0  0  0  0  0  0  0  0  0  0  0
  139.0457   67.5682  226.1781 H   0  0  0  0  0  0  0  0  0  0  0  0
  140.0466   67.8150  228.4752 H   0  0  0  0  0  0  0  0  0  0  0  0
  141.2641   69.8663  229.0725 H   0  0  0  0  0  0  0  0  0  0  0  0
  141.5321   71.7418  227.4425 H   0  0  0  0  0  0  0  0  0  0  0  0
  1  2  2  0
  2  3  1  0
  3  4  1  0
  4  5  1  0
  5  6  2  0
  5  7  1  0
  7  8  1  0
  8  9  1  0
  9 10  1  0
  9 11  1  0
 11 12  1  0
 12 13  1  0
 13 14  1  0
 14 15  1  0
 15 16  1  0
 16 17  1  0
 17 18  1  0
  2 19  1  0
 19 20  2  0
 20 21  1  0
 21 22  2  0
 22 23  1  0
 23 24  2  0
 24 25  1  0
 25 26  2  0
 26 27  1  0
 27 28  2  0
 12  7  1  0
 18 14  1  0
 28 19  1  0
 27 22  1  0
  3 29  1  0
  4 30  1  0
  4 31  1  0
  8 32  1  0
  8 33  1  0
  9 34  1  6
 10 35  1  0
 11 36  1  0
 11 37  1  0
 12 38  1  1
 13 39  1  0
 13 40  1  0
 15 41  1  0
 15 42  1  0
 16 43  1  0
 16 44  1  0
 17 45  1  0
 17 46  1  0
 18 47  1  0
 18 48  1  0
 20 49  1  0
 23 50  1  0
 24 51  1  0
 25 52  1  0
 26 53  1  0
M  END
>  <smiles>  (50) 
O=C(NCC(=O)N1C[C@H](O)C[C@H]1CN1CCCC1)c1cnc2ccccc2n1

>  <score_type>  (50) 
oracle

>  <origin>  (50) 
autodockgpu

>  <m_score__min__energy>  (50) 
-8.4800000000000004

>  <m_primary>  (50) 
energy

>  <rmsd>  (50) 
2.3632993572027394

>  <m_score__min__rmsd>  (50) 
2.3632993572027394

>  <meeko>  (50) 
{"free_energy": -8.48, "intermolecular_energy": -10.57, "internal_energy": -1.15, "cluster_size": 24, "cluster_id": 1, "rank_in_cluster": 1}

>  <energy>  (50) 
-6.24

>  <cluster_rmsd>  (50) 
1.24

>  <cluster>  (50) 
8

$$$$
