
     RDKit          3D

 48 51  0  0  0  0  0  0  0  0999 V2000
  138.6520   71.6730  221.0710 O   0  0  0  0  0  0  0  0  0  0  0  0
  139.0570   72.1630  222.1610 C   0  0  0  0  0  0  0  0  0  0  0  0
  139.2450   73.5870  222.3110 N   0  0  0  0  0  0  0  0  0  0  0  0
  139.0040   74.5290  221.2680 C   0  0  0  0  0  0  0  0  0  0  0  0
  140.0970   75.4300  220.8900 C   0  0  0  0  0  0  0  0  0  0  0  0
  141.0550   75.4540  221.7750 O   0  0  0  0  0  0  0  0  0  0  0  0
  140.2660   76.2360  219.7630 N   0  0  0  0  0  0  0  0  0  0  0  0
  140.3030   75.8840  218.3340 C   0  0  0  0  0  0  0  0  0  0  0  0
  141.1060   77.0010  217.6460 C   0  0  0  0  0  0  0  0  0  0  0  0
  141.6210   77.8240  218.7900 C   0  0  0  0  0  0  0  0  0  0  0  0
  140.4420   77.6670  219.7830 C   0  0  2  0  0  0  0  0  0  0  0  0
  140.8020   78.2820  221.0590 C   0  0  0  0  0  0  0  0  0  0  0  0
  139.9910   78.3790  222.1660 C   0  0  0  0  0  0  0  0  0  0  0  0
  140.4040   78.9780  223.3370 C   0  0  0  0  0  0  0  0  0  0  0  0
  141.6730   79.5130  223.4520 C   0  0  0  0  0  0  0  0  0  0  0  0
  142.0850   80.1020  224.6010 F   0  0  0  0  0  0  0  0  0  0  0  0
  142.5010   79.4280  222.3620 C   0  0  0  0  0  0  0  0  0  0  0  0
  142.0820   78.8320  221.1990 C   0  0  0  0  0  0  0  0  0  0  0  0
  139.3430   71.2640  223.2940 C   0  0  0  0  0  0  0  0  0  0  0  0
  139.0240   69.9440  223.2130 C   0  0  0  0  0  0  0  0  0  0  0  0
  139.2900   69.1000  224.2700 C   0  0  0  0  0  0  0  0  0  0  0  0
  139.8780   69.5750  225.4200 C   0  0  0  0  0  0  0  0  0  0  0  0
  140.1430   68.7280  226.4780 C   0  0  0  0  0  0  0  0  0  0  0  0
  140.7340   69.1950  227.6360 C   0  0  0  0  0  0  0  0  0  0  0  0
  141.0650   68.1100  228.9730 Cl  0  0  0  0  0  0  0  0  0  0  0  0
  141.0530   70.5520  227.7000 C   0  0  0  0  0  0  0  0  0  0  0  0
  140.7830   71.3970  226.6300 C   0  0  0  0  0  0  0  0  0  0  0  0
  140.1930   70.9270  225.4750 C   0  0  0  0  0  0  0  0  0  0  0  0
  139.9180   71.7100  224.4240 N   0  0  0  0  0  0  0  0  0  0  0  0
  139.5820   73.8790  223.2730 H   0  0  0  0  0  0  0  0  0  0  0  0
  138.7245   73.9587  220.3699 H   0  0  0  0  0  0  0  0  0  0  0  0
  138.2262   75.1939  221.6718 H   0  0  0  0  0  0  0  0  0  0  0  0
  140.7992   74.9127  218.1918 H   0  0  0  0  0  0  0  0  0  0  0  0
  139.2905   75.7962  217.9131 H   0  0  0  0  0  0  0  0  0  0  0  0
  141.9365   76.5825  217.0586 H   0  0  0  0  0  0  0  0  0  0  0  0
  140.5017   77.5864  216.9373 H   0  0  0  0  0  0  0  0  0  0  0  0
  142.5568   77.4152  219.1988 H   0  0  0  0  0  0  0  0  0  0  0  0
  141.8787   78.8627  218.5357 H   0  0  0  0  0  0  0  0  0  0  0  0
  139.4928   78.1713  219.5489 H   0  0  0  0  0  0  0  0  0  0  0  0
  138.9741   77.9627  222.1148 H   0  0  0  0  0  0  0  0  0  0  0  0
  139.7137   79.0308  224.1918 H   0  0  0  0  0  0  0  0  0  0  0  0
  143.5175   79.8443  222.4209 H   0  0  0  0  0  0  0  0  0  0  0  0
  142.7761   78.7847  220.3469 H   0  0  0  0  0  0  0  0  0  0  0  0
  138.5523   69.5489  222.3012 H   0  0  0  0  0  0  0  0  0  0  0  0
  139.0291   68.0341  224.1933 H   0  0  0  0  0  0  0  0  0  0  0  0
  139.8790   67.6632  226.3973 H   0  0  0  0  0  0  0  0  0  0  0  0
  141.5236   70.9576  228.6078 H   0  0  0  0  0  0  0  0  0  0  0  0
  141.0452   72.4626  226.7057 H   0  0  0  0  0  0  0  0  0  0  0  0
  1  2  2  0
  2  3  1  0
  3  4  1  0
  4  5  1  0
  5  6  2  0
  5  7  1  0
  7  8  1  0
  8  9  1  0
  9 10  1  0
 10 11  1  0
 11 12  1  0
 12 13  2  0
 13 14  1  0
 14 15  2  0
 15 16  1  0
 15 17  1  0
 17 18  2  0
  2 19  1  0
 19 20  2  0
 20 21  1  0
 21 22  2  0
 22 23  1  0
 23 24  2  0
 24 25  1  0
 24 26  1  0
 26 27  2  0
 27 28  1  0
 28 29  2  0
 11  7  1  0
 18 12  1  0
 29 19  1  0
 28 22  1  0
  3 30  1  0
  4 31  1  0
  4 32  1  0
  8 33  1  0
  8 34  1  0
  9 35  1  0
  9 36  1  0
 10 37  1  0
 10 38  1  0
 11 39  1  6
 13 40  1  0
 14 41  1  0
 17 42  1  0
 18 43  1  0
 20 44  1  0
 21 45  1  0
 23 46  1  0
 26 47  1  0
 27 48  1  0
M  END
>  <smiles>  (1) 
O=C(NCC(=O)N1CCCC1c1ccc(F)cc1)c1ccc2cc(Cl)ccc2n1

>  <score_type>  (1) 
oracle

>  <origin>  (1) 
autodockgpu

>  <m_score__min__energy>  (1) 
-8.8399999999999999

>  <m_primary>  (1) 
energy

>  <rmsd>  (1) 
1.1930135257358618

>  <m_score__min__rmsd>  (1) 
1.1930135257358618

>  <meeko>  (1) 
{"free_energy": -7.64, "intermolecular_energy": -9.13, "internal_energy": -1.61, "cluster_size": 9, "cluster_id": 2, "rank_in_cluster": 8}

>  <energy>  (1) 
-8.84

>  <cluster_rmsd>  (1) 
0.0

>  <cluster>  (1) 
1

$$$$

     RDKit          3D

 48 51  0  0  0  0  0  0  0  0999 V2000
  133.4930   69.9230  226.5280 O   0  0  0  0  0  0  0  0  0  0  0  0
  133.9320   71.0450  226.1530 C   0  0  0  0  0  0  0  0  0  0  0  0
  135.0770   71.1410  225.2790 N   0  0  0  0  0  0  0  0  0  0  0  0
  135.7910   70.0090  224.7860 C   0  0  0  0  0  0  0  0  0  0  0  0
  136.8740   70.2450  223.8270 C   0  0  0  0  0  0  0  0  0  0  0  0
  137.1520   71.5120  223.6860 O   0  0  0  0  0  0  0  0  0  0  0  0
  137.6330   69.3510  223.0700 N   0  0  0  0  0  0  0  0  0  0  0  0
  137.3180   68.6620  221.8070 C   0  0  0  0  0  0  0  0  0  0  0  0
  138.1990   67.4020  221.7850 C   0  0  0  0  0  0  0  0  0  0  0  0
  138.8290   67.3850  223.1460 C   0  0  0  0  0  0  0  0  0  0  0  0
  138.9660   68.9080  223.3940 C   0  0  2  0  0  0  0  0  0  0  0  0
  139.4340   69.1330  224.7620 C   0  0  0  0  0  0  0  0  0  0  0  0
  139.9050   70.3220  225.2680 C   0  0  0  0  0  0  0  0  0  0  0  0
  140.3310   70.4540  226.5730 C   0  0  0  0  0  0  0  0  0  0  0  0
  140.3010   69.3800  227.4430 C   0  0  0  0  0  0  0  0  0  0  0  0
  140.7180   69.5050  228.7260 F   0  0  0  0  0  0  0  0  0  0  0  0
  139.8340   68.1840  226.9600 C   0  0  0  0  0  0  0  0  0  0  0  0
  139.4130   68.0600  225.6600 C   0  0  0  0  0  0  0  0  0  0  0  0
  133.2630   72.2740  226.6200 C   0  0  0  0  0  0  0  0  0  0  0  0
  132.0560   72.1970  227.2420 C   0  0  0  0  0  0  0  0  0  0  0  0
  131.4270   73.3420  227.6800 C   0  0  0  0  0  0  0  0  0  0  0  0
  132.0050   74.5770  227.4950 C   0  0  0  0  0  0  0  0  0  0  0  0
  131.3740   75.7250  227.9350 C   0  0  0  0  0  0  0  0  0  0  0  0
  131.9470   76.9690  227.7550 C   0  0  0  0  0  0  0  0  0  0  0  0
  131.1350   78.4180  228.3160 Cl  0  0  0  0  0  0  0  0  0  0  0  0
  133.1840   77.0270  227.1140 C   0  0  0  0  0  0  0  0  0  0  0  0
  133.8130   75.8670  226.6750 C   0  0  0  0  0  0  0  0  0  0  0  0
  133.2380   74.6260  226.8570 C   0  0  0  0  0  0  0  0  0  0  0  0
  133.8130   73.4880  226.4490 N   0  0  0  0  0  0  0  0  0  0  0  0
  135.3470   72.1350  225.0280 H   0  0  0  0  0  0  0  0  0  0  0  0
  136.2287   69.4944  225.6541 H   0  0  0  0  0  0  0  0  0  0  0  0
  135.0419   69.4357  224.2201 H   0  0  0  0  0  0  0  0  0  0  0  0
  136.2537   68.3856  221.7767 H   0  0  0  0  0  0  0  0  0  0  0  0
  137.5109   69.3057  220.9361 H   0  0  0  0  0  0  0  0  0  0  0  0
  137.5900   66.5003  221.6233 H   0  0  0  0  0  0  0  0  0  0  0  0
  138.9402   67.4142  220.9723 H   0  0  0  0  0  0  0  0  0  0  0  0
  138.1776   66.9063  223.8920 H   0  0  0  0  0  0  0  0  0  0  0  0
  139.7680   66.8165  223.2163 H   0  0  0  0  0  0  0  0  0  0  0  0
  139.7082   69.4669  222.8051 H   0  0  0  0  0  0  0  0  0  0  0  0
  139.9433   71.2005  224.6071 H   0  0  0  0  0  0  0  0  0  0  0  0
  140.7000   71.4280  226.9268 H   0  0  0  0  0  0  0  0  0  0  0  0
  139.7964   67.3095  227.6262 H   0  0  0  0  0  0  0  0  0  0  0  0
  139.0462   67.0832  225.3116 H   0  0  0  0  0  0  0  0  0  0  0  0
  131.5803   71.2172  227.3960 H   0  0  0  0  0  0  0  0  0  0  0  0
  130.4517   73.2680  228.1833 H   0  0  0  0  0  0  0  0  0  0  0  0
  130.3985   75.6469  228.4373 H   0  0  0  0  0  0  0  0  0  0  0  0
  133.6680   78.0017  226.9537 H   0  0  0  0  0  0  0  0  0  0  0  0
  134.7888   75.9403  226.1725 H   0  0  0  0  0  0  0  0  0  0  0  0
  1  2  2  0
  2  3  1  0
  3  4  1  0
  4  5  1  0
  5  6  2  0
  5  7  1  0
  7  8  1  0
  8  9  1  0
  9 10  1  0
 10 11  1  0
 11 12  1  0
 12 13  2  0
 13 14  1  0
 14 15  2  0
 15 16  1  0
 15 17  1  0
 17 18  2  0
  2 19  1  0
 19 20  2  0
 20 21  1  0
 21 22  2  0
 22 23  1  0
 23 24  2  0
 24 25  1  0
 24 26  1  0
 26 27  2  0
 27 28  1  0
 28 29  2  0
 11  7  1  0
 18 12  1  0
 29 19  1  0
 28 22  1  0
  3 30  1  0
  4 31  1  0
  4 32  1  0
  8 33  1  0
  8 34  1  0
  9 35  1  0
  9 36  1  0
 10 37  1  0
 10 38  1  0
 11 39  1  6
 13 40  1  0
 14 41  1  0
 17 42  1  0
 18 43  1  0
 20 44  1  0
 21 45  1  0
 23 46  1  0
 26 47  1  0
 27 48  1  0
M  END
>  <smiles>  (2) 
O=C(NCC(=O)N1CCCC1c1ccc(F)cc1)c1ccc2cc(Cl)ccc2n1

>  <score_type>  (2) 
oracle

>  <origin>  (2) 
autodockgpu

>  <m_score__min__energy>  (2) 
-8.8399999999999999

>  <m_primary>  (2) 
energy

>  <rmsd>  (2) 
8.730144468338139

>  <m_score__min__rmsd>  (2) 
8.730144468338139

>  <meeko>  (2) 
{"free_energy": -7.83, "intermolecular_energy": -9.32, "internal_energy": -1.92, "cluster_size": 9, "cluster_id": 1, "rank_in_cluster": 9}

>  <energy>  (2) 
-8.71

>  <cluster_rmsd>  (2) 
0.28

>  <cluster>  (2) 
1

$$$$

     RDKit          3D

 48 51  0  0  0  0  0  0  0  0999 V2000
  140.2470   72.3650  220.6800 O   0  0  0  0  0  0  0  0  0  0  0  0
  140.0240   72.8050  221.8410 C   0  0  0  0  0  0  0  0  0  0  0  0
  139.7890   74.2110  222.0690 N   0  0  0  0  0  0  0  0  0  0  0  0
  139.7990   75.1920  221.0340 C   0  0  0  0  0  0  0  0  0  0  0  0
  140.8170   76.2450  221.0940 C   0  0  0  0  0  0  0  0  0  0  0  0
  141.1360   76.5640  222.3190 O   0  0  0  0  0  0  0  0  0  0  0  0
  141.4800   76.9320  220.0770 N   0  0  0  0  0  0  0  0  0  0  0  0
  141.0960   78.1450  219.3350 C   0  0  0  0  0  0  0  0  0  0  0  0
  141.8430   78.0720  217.9940 C   0  0  0  0  0  0  0  0  0  0  0  0
  142.4700   76.7090  218.0100 C   0  0  0  0  0  0  0  0  0  0  0  0
  142.7610   76.5680  219.5250 C   0  0  2  0  0  0  0  0  0  0  0  0
  143.2510   75.2170  219.7970 C   0  0  0  0  0  0  0  0  0  0  0  0
  144.4080   74.8990  220.4700 C   0  0  0  0  0  0  0  0  0  0  0  0
  144.8040   73.5960  220.6870 C   0  0  0  0  0  0  0  0  0  0  0  0
  144.0420   72.5360  220.2310 C   0  0  0  0  0  0  0  0  0  0  0  0
  144.4250   71.2540  220.4410 F   0  0  0  0  0  0  0  0  0  0  0  0
  142.8830   72.8300  219.5570 C   0  0  0  0  0  0  0  0  0  0  0  0
  142.4960   74.1280  219.3450 C   0  0  0  0  0  0  0  0  0  0  0  0
  140.0040   71.8660  222.9780 C   0  0  0  0  0  0  0  0  0  0  0  0
  139.4680   70.6250  222.8260 C   0  0  0  0  0  0  0  0  0  0  0  0
  139.4480   69.7440  223.8850 C   0  0  0  0  0  0  0  0  0  0  0  0
  139.9660   70.1020  225.1090 C   0  0  0  0  0  0  0  0  0  0  0  0
  139.9450   69.2180  226.1700 C   0  0  0  0  0  0  0  0  0  0  0  0
  140.4630   69.5680  227.4020 C   0  0  0  0  0  0  0  0  0  0  0  0
  140.4300   68.4370  228.7410 Cl  0  0  0  0  0  0  0  0  0  0  0  0
  141.0080   70.8450  227.5370 C   0  0  0  0  0  0  0  0  0  0  0  0
  141.0250   71.7280  226.4640 C   0  0  0  0  0  0  0  0  0  0  0  0
  140.5070   71.3750  225.2350 C   0  0  0  0  0  0  0  0  0  0  0  0
  140.5060   72.1980  224.1790 N   0  0  0  0  0  0  0  0  0  0  0  0
  139.6070   74.4590  223.0840 H   0  0  0  0  0  0  0  0  0  0  0  0
  139.9341   74.6603  220.0806 H   0  0  0  0  0  0  0  0  0  0  0  0
  138.8443   75.7256  221.1519 H   0  0  0  0  0  0  0  0  0  0  0  0
  140.0090   78.1629  219.1671 H   0  0  0  0  0  0  0  0  0  0  0  0
  141.3537   79.0579  219.8919 H   0  0  0  0  0  0  0  0  0  0  0  0
  141.1447   78.1727  217.1500 H   0  0  0  0  0  0  0  0  0  0  0  0
  142.5804   78.8791  217.8723 H   0  0  0  0  0  0  0  0  0  0  0  0
  141.7744   75.9349  217.6536 H   0  0  0  0  0  0  0  0  0  0  0  0
  143.3468   76.5934  217.3559 H   0  0  0  0  0  0  0  0  0  0  0  0
  143.5555   77.1897  219.9634 H   0  0  0  0  0  0  0  0  0  0  0  0
  145.0410   75.7148  220.8493 H   0  0  0  0  0  0  0  0  0  0  0  0
  145.7394   73.3970  221.2306 H   0  0  0  0  0  0  0  0  0  0  0  0
  142.2538   72.0100  219.1805 H   0  0  0  0  0  0  0  0  0  0  0  0
  141.5597   74.3206  218.8008 H   0  0  0  0  0  0  0  0  0  0  0  0
  139.0492   70.3239  221.8544 H   0  0  0  0  0  0  0  0  0  0  0  0
  139.0129   68.7427  223.7508 H   0  0  0  0  0  0  0  0  0  0  0  0
  139.5083   68.2179  226.0317 H   0  0  0  0  0  0  0  0  0  0  0  0
  141.4292   71.1567  228.5042 H   0  0  0  0  0  0  0  0  0  0  0  0
  141.4605   72.7293  226.5974 H   0  0  0  0  0  0  0  0  0  0  0  0
  1  2  2  0
  2  3  1  0
  3  4  1  0
  4  5  1  0
  5  6  2  0
  5  7  1  0
  7  8  1  0
  8  9  1  0
  9 10  1  0
 10 11  1  0
 11 12  1  0
 12 13  2  0
 13 14  1  0
 14 15  2  0
 15 16  1  0
 15 17  1  0
 17 18  2  0
  2 19  1  0
 19 20  2  0
 20 21  1  0
 21 22  2  0
 22 23  1  0
 23 24  2  0
 24 25  1  0
 24 26  1  0
 26 27  2  0
 27 28  1  0
 28 29  2  0
 11  7  1  0
 18 12  1  0
 29 19  1  0
 28 22  1  0
  3 30  1  0
  4 31  1  0
  4 32  1  0
  8 33  1  0
  8 34  1  0
  9 35  1  0
  9 36  1  0
 10 37  1  0
 10 38  1  0
 11 39  1  1
 13 40  1  0
 14 41  1  0
 17 42  1  0
 18 43  1  0
 20 44  1  0
 21 45  1  0
 23 46  1  0
 26 47  1  0
 27 48  1  0
M  END
>  <smiles>  (3) 
O=C(NCC(=O)N1CCCC1c1ccc(F)cc1)c1ccc2cc(Cl)ccc2n1

>  <score_type>  (3) 
oracle

>  <origin>  (3) 
autodockgpu

>  <m_score__min__energy>  (3) 
-8.8399999999999999

>  <m_primary>  (3) 
energy

>  <rmsd>  (3) 
2.150027450613131

>  <m_score__min__rmsd>  (3) 
2.150027450613131

>  <meeko>  (3) 
{"free_energy": -7.9, "intermolecular_energy": -9.39, "internal_energy": -1.88, "cluster_size": 22, "cluster_id": 3, "rank_in_cluster": 4}

>  <energy>  (3) 
-8.68

>  <cluster_rmsd>  (3) 
0.29

>  <cluster>  (3) 
1

$$$$

     RDKit          3D

 48 51  0  0  0  0  0  0  0  0999 V2000
  141.1040   72.6470  220.9310 O   0  0  0  0  0  0  0  0  0  0  0  0
  140.3500   72.9170  221.9060 C   0  0  0  0  0  0  0  0  0  0  0  0
  139.5980   74.1490  221.9450 N   0  0  0  0  0  0  0  0  0  0  0  0
  139.6500   75.1380  220.9180 C   0  0  0  0  0  0  0  0  0  0  0  0
  140.8220   76.0180  220.8710 C   0  0  0  0  0  0  0  0  0  0  0  0
  141.4230   76.1140  222.0250 O   0  0  0  0  0  0  0  0  0  0  0  0
  141.3770   76.7410  219.8150 N   0  0  0  0  0  0  0  0  0  0  0  0
  140.8570   77.9040  219.0760 C   0  0  0  0  0  0  0  0  0  0  0  0
  141.5480   77.8720  217.7020 C   0  0  0  0  0  0  0  0  0  0  0  0
  142.2890   76.5670  217.7080 C   0  0  0  0  0  0  0  0  0  0  0  0
  142.6590   76.4780  219.2090 C   0  0  2  0  0  0  0  0  0  0  0  0
  143.2740   75.1780  219.4770 C   0  0  0  0  0  0  0  0  0  0  0  0
  144.2600   74.9280  220.4030 C   0  0  0  0  0  0  0  0  0  0  0  0
  144.7920   73.6700  220.5970 C   0  0  0  0  0  0  0  0  0  0  0  0
  144.3480   72.5890  219.8580 C   0  0  0  0  0  0  0  0  0  0  0  0
  144.8670   71.3520  220.0440 F   0  0  0  0  0  0  0  0  0  0  0  0
  143.3650   72.8150  218.9290 C   0  0  0  0  0  0  0  0  0  0  0  0
  142.8410   74.0690  218.7410 C   0  0  0  0  0  0  0  0  0  0  0  0
  140.2400   71.9580  223.0210 C   0  0  0  0  0  0  0  0  0  0  0  0
  139.6620   70.7430  222.8180 C   0  0  0  0  0  0  0  0  0  0  0  0
  139.5570   69.8430  223.8570 C   0  0  0  0  0  0  0  0  0  0  0  0
  140.0310   70.1570  225.1100 C   0  0  0  0  0  0  0  0  0  0  0  0
  139.9250   69.2530  226.1510 C   0  0  0  0  0  0  0  0  0  0  0  0
  140.3990   69.5580  227.4120 C   0  0  0  0  0  0  0  0  0  0  0  0
  140.2580   68.4050  228.7240 Cl  0  0  0  0  0  0  0  0  0  0  0  0
  140.9870   70.8090  227.5990 C   0  0  0  0  0  0  0  0  0  0  0  0
  141.0900   71.7120  226.5460 C   0  0  0  0  0  0  0  0  0  0  0  0
  140.6160   71.4030  225.2880 C   0  0  0  0  0  0  0  0  0  0  0  0
  140.6980   72.2460  224.2510 N   0  0  0  0  0  0  0  0  0  0  0  0
  138.9960   74.2600  222.8100 H   0  0  0  0  0  0  0  0  0  0  0  0
  139.5967   74.6117  219.9535 H   0  0  0  0  0  0  0  0  0  0  0  0
  138.8088   75.8109  221.1405 H   0  0  0  0  0  0  0  0  0  0  0  0
  139.7661   77.8260  218.9579 H   0  0  0  0  0  0  0  0  0  0  0  0
  141.0592   78.8450  219.6086 H   0  0  0  0  0  0  0  0  0  0  0  0
  140.8071   77.8989  216.8894 H   0  0  0  0  0  0  0  0  0  0  0  0
  142.2076   78.7365  217.5358 H   0  0  0  0  0  0  0  0  0  0  0  0
  141.6465   75.7308  217.3952 H   0  0  0  0  0  0  0  0  0  0  0  0
  143.1421   76.5142  217.0156 H   0  0  0  0  0  0  0  0  0  0  0  0
  143.4165   77.1727  219.6008 H   0  0  0  0  0  0  0  0  0  0  0  0
  144.6385   75.7624  221.0116 H   0  0  0  0  0  0  0  0  0  0  0  0
  145.5805   73.5249  221.3502 H   0  0  0  0  0  0  0  0  0  0  0  0
  142.9901   71.9763  218.3240 H   0  0  0  0  0  0  0  0  0  0  0  0
  142.0534   74.2076  217.9857 H   0  0  0  0  0  0  0  0  0  0  0  0
  139.2774   70.4781  221.8220 H   0  0  0  0  0  0  0  0  0  0  0  0
  139.0891   68.8629  223.6824 H   0  0  0  0  0  0  0  0  0  0  0  0
  139.4553   68.2746  225.9719 H   0  0  0  0  0  0  0  0  0  0  0  0
  141.3739   71.0847  228.5911 H   0  0  0  0  0  0  0  0  0  0  0  0
  141.5587   72.6918  226.7199 H   0  0  0  0  0  0  0  0  0  0  0  0
  1  2  2  0
  2  3  1  0
  3  4  1  0
  4  5  1  0
  5  6  2  0
  5  7  1  0
  7  8  1  0
  8  9  1  0
  9 10  1  0
 10 11  1  0
 11 12  1  0
 12 13  2  0
 13 14  1  0
 14 15  2  0
 15 16  1  0
 15 17  1  0
 17 18  2  0
  2 19  1  0
 19 20  2  0
 20 21  1  0
 21 22  2  0
 22 23  1  0
 23 24  2  0
 24 25  1  0
 24 26  1  0
 26 27  2  0
 27 28  1  0
 28 29  2  0
 11  7  1  0
 18 12  1  0
 29 19  1  0
 28 22  1  0
  3 30  1  0
  4 31  1  0
  4 32  1  0
  8 33  1  0
  8 34  1  0
  9 35  1  0
  9 36  1  0
 10 37  1  0
 10 38  1  0
 11 39  1  1
 13 40  1  0
 14 41  1  0
 17 42  1  0
 18 43  1  0
 20 44  1  0
 21 45  1  0
 23 46  1  0
 26 47  1  0
 27 48  1  0
M  END
>  <smiles>  (4) 
O=C(NCC(=O)N1CCCC1c1ccc(F)cc1)c1ccc2cc(Cl)ccc2n1

>  <score_type>  (4) 
oracle

>  <origin>  (4) 
autodockgpu

>  <m_score__min__energy>  (4) 
-8.8399999999999999

>  <m_primary>  (4) 
energy

>  <rmsd>  (4) 
2.090896703804672

>  <m_score__min__rmsd>  (4) 
2.090896703804672

>  <meeko>  (4) 
{"free_energy": -7.63, "intermolecular_energy": -9.12, "internal_energy": -1.78, "cluster_size": 22, "cluster_id": 3, "rank_in_cluster": 17}

>  <energy>  (4) 
-8.67

>  <cluster_rmsd>  (4) 
0.28

>  <cluster>  (4) 
1

$$$$

     RDKit          3D

 48 51  0  0  0  0  0  0  0  0999 V2000
  140.3050   72.3990  220.6450 O   0  0  0  0  0  0  0  0  0  0  0  0
  140.1280   72.8490  221.8100 C   0  0  0  0  0  0  0  0  0  0  0  0
  139.9610   74.2640  222.0430 N   0  0  0  0  0  0  0  0  0  0  0  0
  139.9890   75.2430  221.0070 C   0  0  0  0  0  0  0  0  0  0  0  0
  140.9270   76.3610  221.1440 C   0  0  0  0  0  0  0  0  0  0  0  0
  141.0770   76.7400  222.3840 O   0  0  0  0  0  0  0  0  0  0  0  0
  141.6630   77.0570  220.1850 N   0  0  0  0  0  0  0  0  0  0  0  0
  141.4070   78.3550  219.5400 C   0  0  0  0  0  0  0  0  0  0  0  0
  142.1560   78.3140  218.1980 C   0  0  0  0  0  0  0  0  0  0  0  0
  142.6450   76.8980  218.1070 C   0  0  0  0  0  0  0  0  0  0  0  0
  142.9070   76.6120  219.6070 C   0  0  2  0  0  0  0  0  0  0  0  0
  143.2590   75.2020  219.7730 C   0  0  0  0  0  0  0  0  0  0  0  0
  142.5390   74.1300  219.3000 C   0  0  0  0  0  0  0  0  0  0  0  0
  142.9380   72.8240  219.4990 C   0  0  0  0  0  0  0  0  0  0  0  0
  144.0980   72.5330  220.1920 C   0  0  0  0  0  0  0  0  0  0  0  0
  144.4940   71.2530  220.3900 F   0  0  0  0  0  0  0  0  0  0  0  0
  144.8330   73.5870  220.6730 C   0  0  0  0  0  0  0  0  0  0  0  0
  144.4300   74.8830  220.4720 C   0  0  0  0  0  0  0  0  0  0  0  0
  140.0950   71.9110  222.9480 C   0  0  0  0  0  0  0  0  0  0  0  0
  139.5590   70.6700  222.7920 C   0  0  0  0  0  0  0  0  0  0  0  0
  139.5260   69.7900  223.8520 C   0  0  0  0  0  0  0  0  0  0  0  0
  140.0290   70.1500  225.0810 C   0  0  0  0  0  0  0  0  0  0  0  0
  139.9950   69.2670  226.1430 C   0  0  0  0  0  0  0  0  0  0  0  0
  140.4980   69.6180  227.3800 C   0  0  0  0  0  0  0  0  0  0  0  0
  140.4480   68.4890  228.7210 Cl  0  0  0  0  0  0  0  0  0  0  0  0
  141.0420   70.8950  227.5210 C   0  0  0  0  0  0  0  0  0  0  0  0
  141.0730   71.7770  226.4460 C   0  0  0  0  0  0  0  0  0  0  0  0
  140.5700   71.4220  225.2130 C   0  0  0  0  0  0  0  0  0  0  0  0
  140.5820   72.2440  224.1550 N   0  0  0  0  0  0  0  0  0  0  0  0
  139.8130   74.5190  223.0620 H   0  0  0  0  0  0  0  0  0  0  0  0
  140.2356   74.7216  220.0704 H   0  0  0  0  0  0  0  0  0  0  0  0
  138.9945   75.7117  221.0439 H   0  0  0  0  0  0  0  0  0  0  0  0
  140.3286   78.4927  219.3722 H   0  0  0  0  0  0  0  0  0  0  0  0
  141.7480   79.1918  220.1673 H   0  0  0  0  0  0  0  0  0  0  0  0
  141.4791   78.5497  217.3636 H   0  0  0  0  0  0  0  0  0  0  0  0
  142.9707   79.0509  218.1417 H   0  0  0  0  0  0  0  0  0  0  0  0
  141.8795   76.2269  217.6903 H   0  0  0  0  0  0  0  0  0  0  0  0
  143.5115   76.7468  217.4465 H   0  0  0  0  0  0  0  0  0  0  0  0
  143.7548   77.1166  220.0934 H   0  0  0  0  0  0  0  0  0  0  0  0
  141.6103   74.3207  218.7422 H   0  0  0  0  0  0  0  0  0  0  0  0
  142.3241   72.0028  219.1004 H   0  0  0  0  0  0  0  0  0  0  0  0
  145.7612   73.3896  221.2293 H   0  0  0  0  0  0  0  0  0  0  0  0
  145.0479   75.6996  220.8737 H   0  0  0  0  0  0  0  0  0  0  0  0
  139.1506   70.3682  221.8163 H   0  0  0  0  0  0  0  0  0  0  0  0
  139.0926   68.7884  223.7140 H   0  0  0  0  0  0  0  0  0  0  0  0
  139.5596   68.2669  226.0006 H   0  0  0  0  0  0  0  0  0  0  0  0
  141.4509   71.2077  228.4931 H   0  0  0  0  0  0  0  0  0  0  0  0
  141.5078   72.7781  226.5827 H   0  0  0  0  0  0  0  0  0  0  0  0
  1  2  2  0
  2  3  1  0
  3  4  1  0
  4  5  1  0
  5  6  2  0
  5  7  1  0
  7  8  1  0
  8  9  1  0
  9 10  1  0
 10 11  1  0
 11 12  1  0
 12 13  2  0
 13 14  1  0
 14 15  2  0
 15 16  1  0
 15 17  1  0
 17 18  2  0
  2 19  1  0
 19 20  2  0
 20 21  1  0
 21 22  2  0
 22 23  1  0
 23 24  2  0
 24 25  1  0
 24 26  1  0
 26 27  2  0
 27 28  1  0
 28 29  2  0
 11  7  1  0
 18 12  1  0
 29 19  1  0
 28 22  1  0
  3 30  1  0
  4 31  1  0
  4 32  1  0
  8 33  1  0
  8 34  1  0
  9 35  1  0
  9 36  1  0
 10 37  1  0
 10 38  1  0
 11 39  1  1
 13 40  1  0
 14 41  1  0
 17 42  1  0
 18 43  1  0
 20 44  1  0
 21 45  1  0
 23 46  1  0
 26 47  1  0
 27 48  1  0
M  END
>  <smiles>  (5) 
O=C(NCC(=O)N1CCCC1c1ccc(F)cc1)c1ccc2cc(Cl)ccc2n1

>  <score_type>  (5) 
oracle

>  <origin>  (5) 
autodockgpu

>  <m_score__min__energy>  (5) 
-8.8399999999999999

>  <m_primary>  (5) 
energy

>  <rmsd>  (5) 
2.3140081088937805

>  <m_score__min__rmsd>  (5) 
2.3140081088937805

>  <meeko>  (5) 
{"free_energy": -7.9, "intermolecular_energy": -9.39, "internal_energy": -1.93, "cluster_size": 22, "cluster_id": 3, "rank_in_cluster": 3}

>  <energy>  (5) 
-8.59

>  <cluster_rmsd>  (5) 
0.33

>  <cluster>  (5) 
1

$$$$

     RDKit          3D

 48 51  0  0  0  0  0  0  0  0999 V2000
  140.6710   72.4080  220.7110 O   0  0  0  0  0  0  0  0  0  0  0  0
  140.2670   72.8470  221.8230 C   0  0  0  0  0  0  0  0  0  0  0  0
  139.9200   74.2380  221.9910 N   0  0  0  0  0  0  0  0  0  0  0  0
  140.0100   75.2060  220.9470 C   0  0  0  0  0  0  0  0  0  0  0  0
  140.8950   76.3570  221.1520 C   0  0  0  0  0  0  0  0  0  0  0  0
  141.0240   76.6710  222.4120 O   0  0  0  0  0  0  0  0  0  0  0  0
  141.6000   77.1400  220.2380 N   0  0  0  0  0  0  0  0  0  0  0  0
  141.2880   78.4640  219.6730 C   0  0  0  0  0  0  0  0  0  0  0  0
  142.0360   78.5350  218.3320 C   0  0  0  0  0  0  0  0  0  0  0  0
  142.5840   77.1500  218.1560 C   0  0  0  0  0  0  0  0  0  0  0  0
  142.8600   76.7840  219.6360 C   0  0  2  0  0  0  0  0  0  0  0  0
  143.2710   75.3820  219.7160 C   0  0  0  0  0  0  0  0  0  0  0  0
  144.3060   74.8870  220.4740 C   0  0  0  0  0  0  0  0  0  0  0  0
  144.6340   73.5480  220.4960 C   0  0  0  0  0  0  0  0  0  0  0  0
  143.9230   72.6300  219.7460 C   0  0  0  0  0  0  0  0  0  0  0  0
  144.2390   71.3130  219.7640 F   0  0  0  0  0  0  0  0  0  0  0  0
  142.8850   73.1010  218.9820 C   0  0  0  0  0  0  0  0  0  0  0  0
  142.5660   74.4350  218.9650 C   0  0  0  0  0  0  0  0  0  0  0  0
  140.1510   71.9210  222.9650 C   0  0  0  0  0  0  0  0  0  0  0  0
  139.5240   70.7240  222.8090 C   0  0  0  0  0  0  0  0  0  0  0  0
  139.4140   69.8550  223.8730 C   0  0  0  0  0  0  0  0  0  0  0  0
  139.9310   70.1820  225.1060 C   0  0  0  0  0  0  0  0  0  0  0  0
  139.8200   69.3100  226.1720 C   0  0  0  0  0  0  0  0  0  0  0  0
  140.3370   69.6290  227.4120 C   0  0  0  0  0  0  0  0  0  0  0  0
  140.1880   68.5150  228.7570 Cl  0  0  0  0  0  0  0  0  0  0  0  0
  140.9750   70.8620  227.5520 C   0  0  0  0  0  0  0  0  0  0  0  0
  141.0840   71.7330  226.4730 C   0  0  0  0  0  0  0  0  0  0  0  0
  140.5660   71.4100  225.2360 C   0  0  0  0  0  0  0  0  0  0  0  0
  140.6510   72.2230  224.1750 N   0  0  0  0  0  0  0  0  0  0  0  0
  139.5880   74.4850  222.9670 H   0  0  0  0  0  0  0  0  0  0  0  0
  140.3575   74.6825  220.0441 H   0  0  0  0  0  0  0  0  0  0  0  0
  139.0015   75.6412  220.8871 H   0  0  0  0  0  0  0  0  0  0  0  0
  140.2045   78.5663  219.5130 H   0  0  0  0  0  0  0  0  0  0  0  0
  141.5939   79.2750  220.3502 H   0  0  0  0  0  0  0  0  0  0  0  0
  141.3485   78.7917  217.5126 H   0  0  0  0  0  0  0  0  0  0  0  0
  142.8190   79.3075  218.3213 H   0  0  0  0  0  0  0  0  0  0  0  0
  141.8470   76.4738  217.6982 H   0  0  0  0  0  0  0  0  0  0  0  0
  143.4554   77.0763  217.4888 H   0  0  0  0  0  0  0  0  0  0  0  0
  143.6867   77.2928  220.1533 H   0  0  0  0  0  0  0  0  0  0  0  0
  144.8948   75.5860  221.0862 H   0  0  0  0  0  0  0  0  0  0  0  0
  145.4733   73.2054  221.1191 H   0  0  0  0  0  0  0  0  0  0  0  0
  142.2989   72.3970  218.3730 H   0  0  0  0  0  0  0  0  0  0  0  0
  141.7266   74.7721  218.3391 H   0  0  0  0  0  0  0  0  0  0  0  0
  139.1034   70.4488  221.8306 H   0  0  0  0  0  0  0  0  0  0  0  0
  138.9070   68.8886  223.7352 H   0  0  0  0  0  0  0  0  0  0  0  0
  139.3111   68.3451  226.0304 H   0  0  0  0  0  0  0  0  0  0  0  0
  141.3966   71.1485  228.5268 H   0  0  0  0  0  0  0  0  0  0  0  0
  141.5933   72.6985  226.6088 H   0  0  0  0  0  0  0  0  0  0  0  0
  1  2  2  0
  2  3  1  0
  3  4  1  0
  4  5  1  0
  5  6  2  0
  5  7  1  0
  7  8  1  0
  8  9  1  0
  9 10  1  0
 10 11  1  0
 11 12  1  0
 12 13  2  0
 13 14  1  0
 14 15  2  0
 15 16  1  0
 15 17  1  0
 17 18  2  0
  2 19  1  0
 19 20  2  0
 20 21  1  0
 21 22  2  0
 22 23  1  0
 23 24  2  0
 24 25  1  0
 24 26  1  0
 26 27  2  0
 27 28  1  0
 28 29  2  0
 11  7  1  0
 18 12  1  0
 29 19  1  0
 28 22  1  0
  3 30  1  0
  4 31  1  0
  4 32  1  0
  8 33  1  0
  8 34  1  0
  9 35  1  0
  9 36  1  0
 10 37  1  0
 10 38  1  0
 11 39  1  1
 13 40  1  0
 14 41  1  0
 17 42  1  0
 18 43  1  0
 20 44  1  0
 21 45  1  0
 23 46  1  0
 26 47  1  0
 27 48  1  0
M  END
>  <smiles>  (6) 
O=C(NCC(=O)N1CCCC1c1ccc(F)cc1)c1ccc2cc(Cl)ccc2n1

>  <score_type>  (6) 
oracle

>  <origin>  (6) 
autodockgpu

>  <m_score__min__energy>  (6) 
-8.8399999999999999

>  <m_primary>  (6) 
energy

>  <rmsd>  (6) 
2.329437313453277

>  <m_score__min__rmsd>  (6) 
2.329437313453277

>  <meeko>  (6) 
{"free_energy": -7.89, "intermolecular_energy": -9.38, "internal_energy": -1.87, "cluster_size": 22, "cluster_id": 3, "rank_in_cluster": 5}

>  <energy>  (6) 
-8.57

>  <cluster_rmsd>  (6) 
0.42

>  <cluster>  (6) 
1

$$$$

     RDKit          3D

 48 51  0  0  0  0  0  0  0  0999 V2000
  139.2120   72.2030  220.7200 O   0  0  0  0  0  0  0  0  0  0  0  0
  139.8580   72.5510  221.7460 C   0  0  0  0  0  0  0  0  0  0  0  0
  140.5360   73.8240  221.8010 N   0  0  0  0  0  0  0  0  0  0  0  0
  140.5380   74.7650  220.7290 C   0  0  0  0  0  0  0  0  0  0  0  0
  141.2760   76.0180  220.9160 C   0  0  0  0  0  0  0  0  0  0  0  0
  141.1930   76.4690  222.1380 O   0  0  0  0  0  0  0  0  0  0  0  0
  142.0310   76.7750  220.0200 N   0  0  0  0  0  0  0  0  0  0  0  0
  141.7730   78.1020  219.4360 C   0  0  0  0  0  0  0  0  0  0  0  0
  142.5660   78.1430  218.1190 C   0  0  0  0  0  0  0  0  0  0  0  0
  143.0810   76.7420  217.9710 C   0  0  0  0  0  0  0  0  0  0  0  0
  143.3000   76.3800  219.4610 C   0  0  2  0  0  0  0  0  0  0  0  0
  143.6700   74.9690  219.5640 C   0  0  0  0  0  0  0  0  0  0  0  0
  143.1170   73.9350  218.8460 C   0  0  0  0  0  0  0  0  0  0  0  0
  143.5210   72.6260  219.0010 C   0  0  0  0  0  0  0  0  0  0  0  0
  144.5170   72.2910  219.8990 C   0  0  0  0  0  0  0  0  0  0  0  0
  144.9180   71.0070  220.0550 F   0  0  0  0  0  0  0  0  0  0  0  0
  145.0850   73.3060  220.6260 C   0  0  0  0  0  0  0  0  0  0  0  0
  144.6770   74.6060  220.4670 C   0  0  0  0  0  0  0  0  0  0  0  0
  139.9200   71.6380  222.9030 C   0  0  0  0  0  0  0  0  0  0  0  0
  139.4530   70.3660  222.7910 C   0  0  0  0  0  0  0  0  0  0  0  0
  139.5090   69.5090  223.8700 C   0  0  0  0  0  0  0  0  0  0  0  0
  140.0340   69.9240  225.0720 C   0  0  0  0  0  0  0  0  0  0  0  0
  140.0900   69.0640  226.1520 C   0  0  0  0  0  0  0  0  0  0  0  0
  140.6160   69.4720  227.3620 C   0  0  0  0  0  0  0  0  0  0  0  0
  140.6800   68.3720  228.7260 Cl  0  0  0  0  0  0  0  0  0  0  0  0
  141.0890   70.7810  227.4570 C   0  0  0  0  0  0  0  0  0  0  0  0
  141.0300   71.6390  226.3640 C   0  0  0  0  0  0  0  0  0  0  0  0
  140.5040   71.2280  225.1570 C   0  0  0  0  0  0  0  0  0  0  0  0
  140.4300   72.0260  224.0840 N   0  0  0  0  0  0  0  0  0  0  0  0
  141.0380   74.0070  222.7170 H   0  0  0  0  0  0  0  0  0  0  0  0
  140.9673   74.2601  219.8510 H   0  0  0  0  0  0  0  0  0  0  0  0
  139.4872   75.0760  220.6337 H   0  0  0  0  0  0  0  0  0  0  0  0
  140.6984   78.2316  219.2400 H   0  0  0  0  0  0  0  0  0  0  0  0
  142.0784   78.9099  220.1172 H   0  0  0  0  0  0  0  0  0  0  0  0
  141.9127   78.4120  217.2759 H   0  0  0  0  0  0  0  0  0  0  0  0
  143.3696   78.8941  218.1282 H   0  0  0  0  0  0  0  0  0  0  0  0
  142.3405   76.0826  217.4948 H   0  0  0  0  0  0  0  0  0  0  0  0
  143.9709   76.6395  217.3326 H   0  0  0  0  0  0  0  0  0  0  0  0
  144.1236   76.8700  220.0010 H   0  0  0  0  0  0  0  0  0  0  0  0
  142.3219   74.1608  218.1202 H   0  0  0  0  0  0  0  0  0  0  0  0
  143.0438   71.8368  218.4014 H   0  0  0  0  0  0  0  0  0  0  0  0
  145.8811   73.0736  221.3487 H   0  0  0  0  0  0  0  0  0  0  0  0
  145.1576   75.3907  221.0698 H   0  0  0  0  0  0  0  0  0  0  0  0
  139.0293   70.0194  221.8369 H   0  0  0  0  0  0  0  0  0  0  0  0
  139.1295   68.4816  223.7684 H   0  0  0  0  0  0  0  0  0  0  0  0
  139.7093   68.0374  226.0463 H   0  0  0  0  0  0  0  0  0  0  0  0
  141.5133   71.1385  228.4068 H   0  0  0  0  0  0  0  0  0  0  0  0
  141.4105   72.6662  226.4642 H   0  0  0  0  0  0  0  0  0  0  0  0
  1  2  2  0
  2  3  1  0
  3  4  1  0
  4  5  1  0
  5  6  2  0
  5  7  1  0
  7  8  1  0
  8  9  1  0
  9 10  1  0
 10 11  1  0
 11 12  1  0
 12 13  2  0
 13 14  1  0
 14 15  2  0
 15 16  1  0
 15 17  1  0
 17 18  2  0
  2 19  1  0
 19 20  2  0
 20 21  1  0
 21 22  2  0
 22 23  1  0
 23 24  2  0
 24 25  1  0
 24 26  1  0
 26 27  2  0
 27 28  1  0
 28 29  2  0
 11  7  1  0
 18 12  1  0
 29 19  1  0
 28 22  1  0
  3 30  1  0
  4 31  1  0
  4 32  1  0
  8 33  1  0
  8 34  1  0
  9 35  1  0
  9 36  1  0
 10 37  1  0
 10 38  1  0
 11 39  1  1
 13 40  1  0
 14 41  1  0
 17 42  1  0
 18 43  1  0
 20 44  1  0
 21 45  1  0
 23 46  1  0
 26 47  1  0
 27 48  1  0
M  END
>  <smiles>  (7) 
O=C(NCC(=O)N1CCCC1c1ccc(F)cc1)c1ccc2cc(Cl)ccc2n1

>  <score_type>  (7) 
oracle

>  <origin>  (7) 
autodockgpu

>  <m_score__min__energy>  (7) 
-8.8399999999999999

>  <m_primary>  (7) 
energy

>  <rmsd>  (7) 
2.3782788546579248

>  <m_score__min__rmsd>  (7) 
2.3782788546579248

>  <meeko>  (7) 
{"free_energy": -7.64, "intermolecular_energy": -9.13, "internal_energy": -1.94, "cluster_size": 22, "cluster_id": 3, "rank_in_cluster": 15}

>  <energy>  (7) 
-8.23

>  <cluster_rmsd>  (7) 
0.52

>  <cluster>  (7) 
1

$$$$

     RDKit          3D

 48 51  0  0  0  0  0  0  0  0999 V2000
  138.8490   72.1900  221.2010 O   0  0  0  0  0  0  0  0  0  0  0  0
  138.4440   73.1480  221.9140 C   0  0  0  0  0  0  0  0  0  0  0  0
  137.2240   73.0410  222.6780 N   0  0  0  0  0  0  0  0  0  0  0  0
  136.3950   71.8810  222.6850 C   0  0  0  0  0  0  0  0  0  0  0  0
  136.9000   70.6800  223.3570 C   0  0  0  0  0  0  0  0  0  0  0  0
  136.5950   70.6510  224.6250 O   0  0  0  0  0  0  0  0  0  0  0  0
  137.6300   69.5970  222.8650 N   0  0  0  0  0  0  0  0  0  0  0  0
  137.2690   68.5770  221.8660 C   0  0  0  0  0  0  0  0  0  0  0  0
  138.1460   67.3540  222.1790 C   0  0  0  0  0  0  0  0  0  0  0  0
  138.8240   67.7230  223.4660 C   0  0  0  0  0  0  0  0  0  0  0  0
  138.9730   69.2510  223.2590 C   0  0  2  0  0  0  0  0  0  0  0  0
  139.4900   69.8540  224.4870 C   0  0  0  0  0  0  0  0  0  0  0  0
  139.3610   69.3390  225.7560 C   0  0  0  0  0  0  0  0  0  0  0  0
  139.8770   69.9710  226.8680 C   0  0  0  0  0  0  0  0  0  0  0  0
  140.5590   71.1680  226.7520 C   0  0  0  0  0  0  0  0  0  0  0  0
  141.0690   71.7920  227.8410 F   0  0  0  0  0  0  0  0  0  0  0  0
  140.7010   71.7010  225.4960 C   0  0  0  0  0  0  0  0  0  0  0  0
  140.1830   71.0670  224.3950 C   0  0  0  0  0  0  0  0  0  0  0  0
  139.2320   74.3940  221.9620 C   0  0  0  0  0  0  0  0  0  0  0  0
  140.5270   74.3970  221.5480 C   0  0  0  0  0  0  0  0  0  0  0  0
  141.2670   75.5590  221.5910 C   0  0  0  0  0  0  0  0  0  0  0  0
  140.7110   76.7300  222.0530 C   0  0  0  0  0  0  0  0  0  0  0  0
  141.4540   77.8950  222.0950 C   0  0  0  0  0  0  0  0  0  0  0  0
  140.9040   79.0750  222.5560 C   0  0  0  0  0  0  0  0  0  0  0  0
  141.8570   80.5460  222.6070 Cl  0  0  0  0  0  0  0  0  0  0  0  0
  139.5750   79.0520  222.9770 C   0  0  0  0  0  0  0  0  0  0  0  0
  138.8350   77.8760  222.9300 C   0  0  0  0  0  0  0  0  0  0  0  0
  139.3860   76.6990  222.4690 C   0  0  0  0  0  0  0  0  0  0  0  0
  138.7060   75.5470  222.4080 N   0  0  0  0  0  0  0  0  0  0  0  0
  136.9920   73.9080  223.2430 H   0  0  0  0  0  0  0  0  0  0  0  0
  135.4496   72.1572  223.1748 H   0  0  0  0  0  0  0  0  0  0  0  0
  136.3167   71.5920  221.6265 H   0  0  0  0  0  0  0  0  0  0  0  0
  136.2038   68.3165  221.9525 H   0  0  0  0  0  0  0  0  0  0  0  0
  137.4320   68.9398  220.8404 H   0  0  0  0  0  0  0  0  0  0  0  0
  137.5300   66.4514  222.3048 H   0  0  0  0  0  0  0  0  0  0  0  0
  138.8579   67.1223  221.3731 H   0  0  0  0  0  0  0  0  0  0  0  0
  138.1984   67.4879  224.3397 H   0  0  0  0  0  0  0  0  0  0  0  0
  139.7637   67.1875  223.6662 H   0  0  0  0  0  0  0  0  0  0  0  0
  139.6946   69.6086  222.5097 H   0  0  0  0  0  0  0  0  0  0  0  0
  138.8260   68.3871  225.8889 H   0  0  0  0  0  0  0  0  0  0  0  0
  139.7441   69.5164  227.8608 H   0  0  0  0  0  0  0  0  0  0  0  0
  141.2389   72.6521  225.3695 H   0  0  0  0  0  0  0  0  0  0  0  0
  140.3169   71.5280  223.4053 H   0  0  0  0  0  0  0  0  0  0  0  0
  140.9859   73.4686  221.1773 H   0  0  0  0  0  0  0  0  0  0  0  0
  142.3135   75.5503  221.2523 H   0  0  0  0  0  0  0  0  0  0  0  0
  142.5003   77.8820  221.7557 H   0  0  0  0  0  0  0  0  0  0  0  0
  139.1068   79.9746  223.3505 H   0  0  0  0  0  0  0  0  0  0  0  0
  137.7881   77.8846  223.2676 H   0  0  0  0  0  0  0  0  0  0  0  0
  1  2  2  0
  2  3  1  0
  3  4  1  0
  4  5  1  0
  5  6  2  0
  5  7  1  0
  7  8  1  0
  8  9  1  0
  9 10  1  0
 10 11  1  0
 11 12  1  0
 12 13  2  0
 13 14  1  0
 14 15  2  0
 15 16  1  0
 15 17  1  0
 17 18  2  0
  2 19  1  0
 19 20  2  0
 20 21  1  0
 21 22  2  0
 22 23  1  0
 23 24  2  0
 24 25  1  0
 24 26  1  0
 26 27  2  0
 27 28  1  0
 28 29  2  0
 11  7  1  0
 18 12  1  0
 29 19  1  0
 28 22  1  0
  3 30  1  0
  4 31  1  0
  4 32  1  0
  8 33  1  0
  8 34  1  0
  9 35  1  0
  9 36  1  0
 10 37  1  0
 10 38  1  0
 11 39  1  6
 13 40  1  0
 14 41  1  0
 17 42  1  0
 18 43  1  0
 20 44  1  0
 21 45  1  0
 23 46  1  0
 26 47  1  0
 27 48  1  0
M  END
>  <smiles>  (8) 
O=C(NCC(=O)N1CCCC1c1ccc(F)cc1)c1ccc2cc(Cl)ccc2n1

>  <score_type>  (8) 
oracle

>  <origin>  (8) 
autodockgpu

>  <m_score__min__energy>  (8) 
-8.8399999999999999

>  <m_primary>  (8) 
energy

>  <rmsd>  (8) 
7.838004709238149

>  <m_score__min__rmsd>  (8) 
7.838004709238149

>  <meeko>  (8) 
{"free_energy": -7.18, "intermolecular_energy": -8.68, "internal_energy": -2.03, "cluster_size": 5, "cluster_id": 5, "rank_in_cluster": 5}

>  <energy>  (8) 
-7.85

>  <cluster_rmsd>  (8) 
1.53

>  <cluster>  (8) 
1

$$$$

     RDKit          3D

 48 51  0  0  0  0  0  0  0  0999 V2000
  140.9420   72.5400  220.7680 O   0  0  0  0  0  0  0  0  0  0  0  0
  140.2800   72.8780  221.7870 C   0  0  0  0  0  0  0  0  0  0  0  0
  139.6170   74.1590  221.8510 N   0  0  0  0  0  0  0  0  0  0  0  0
  139.6610   75.1240  220.8010 C   0  0  0  0  0  0  0  0  0  0  0  0
  139.2560   76.4980  221.1140 C   0  0  0  0  0  0  0  0  0  0  0  0
  139.9410   77.3860  220.4460 O   0  0  0  0  0  0  0  0  0  0  0  0
  138.2800   76.9860  221.9840 N   0  0  0  0  0  0  0  0  0  0  0  0
  136.8320   76.7290  222.0350 C   0  0  0  0  0  0  0  0  0  0  0  0
  136.2130   77.9490  222.7380 C   0  0  0  0  0  0  0  0  0  0  0  0
  137.3640   78.9010  222.8770 C   0  0  0  0  0  0  0  0  0  0  0  0
  138.5210   77.8910  223.0800 C   0  0  2  0  0  0  0  0  0  0  0  0
  139.7930   78.6120  223.0900 C   0  0  0  0  0  0  0  0  0  0  0  0
  141.0440   78.0420  223.1250 C   0  0  0  0  0  0  0  0  0  0  0  0
  142.2010   78.7920  223.1320 C   0  0  0  0  0  0  0  0  0  0  0  0
  142.1520   80.1740  223.1030 C   0  0  0  0  0  0  0  0  0  0  0  0
  143.2850   80.9160  223.1090 F   0  0  0  0  0  0  0  0  0  0  0  0
  140.9150   80.7650  223.0660 C   0  0  0  0  0  0  0  0  0  0  0  0
  139.7690   80.0120  223.0600 C   0  0  0  0  0  0  0  0  0  0  0  0
  140.1860   71.9480  222.9280 C   0  0  0  0  0  0  0  0  0  0  0  0
  139.5810   70.7400  222.7730 C   0  0  0  0  0  0  0  0  0  0  0  0
  139.4910   69.8680  223.8360 C   0  0  0  0  0  0  0  0  0  0  0  0
  140.0080   70.2030  225.0670 C   0  0  0  0  0  0  0  0  0  0  0  0
  139.9170   69.3270  226.1320 C   0  0  0  0  0  0  0  0  0  0  0  0
  140.4340   69.6540  227.3710 C   0  0  0  0  0  0  0  0  0  0  0  0
  140.3120   68.5350  228.7150 Cl  0  0  0  0  0  0  0  0  0  0  0  0
  141.0500   70.8980  227.5090 C   0  0  0  0  0  0  0  0  0  0  0  0
  141.1370   71.7720  226.4320 C   0  0  0  0  0  0  0  0  0  0  0  0
  140.6210   71.4420  225.1970 C   0  0  0  0  0  0  0  0  0  0  0  0
  140.6860   72.2580  224.1360 N   0  0  0  0  0  0  0  0  0  0  0  0
  139.0870   74.3270  222.7540 H   0  0  0  0  0  0  0  0  0  0  0  0
  140.6978   75.1634  220.4356 H   0  0  0  0  0  0  0  0  0  0  0  0
  138.9127   74.7749  220.0742 H   0  0  0  0  0  0  0  0  0  0  0  0
  136.4254   76.6260  221.0181 H   0  0  0  0  0  0  0  0  0  0  0  0
  136.6057   75.7955  222.5711 H   0  0  0  0  0  0  0  0  0  0  0  0
  135.4115   78.3892  222.1266 H   0  0  0  0  0  0  0  0  0  0  0  0
  135.7504   77.6956  223.7033 H   0  0  0  0  0  0  0  0  0  0  0  0
  137.5049   79.5072  221.9700 H   0  0  0  0  0  0  0  0  0  0  0  0
  137.2545   79.6488  223.6763 H   0  0  0  0  0  0  0  0  0  0  0  0
  138.5683   77.3362  224.0286 H   0  0  0  0  0  0  0  0  0  0  0  0
  141.1248   76.9452  223.1483 H   0  0  0  0  0  0  0  0  0  0  0  0
  143.1764   78.2843  223.1611 H   0  0  0  0  0  0  0  0  0  0  0  0
  140.8408   81.8622  223.0407 H   0  0  0  0  0  0  0  0  0  0  0  0
  138.7967   80.5256  223.0306 H   0  0  0  0  0  0  0  0  0  0  0  0
  139.1621   70.4581  221.7957 H   0  0  0  0  0  0  0  0  0  0  0  0
  139.0004   68.8930  223.6994 H   0  0  0  0  0  0  0  0  0  0  0  0
  139.4249   68.3534  225.9910 H   0  0  0  0  0  0  0  0  0  0  0  0
  141.4719   71.1906  228.4818 H   0  0  0  0  0  0  0  0  0  0  0  0
  141.6276   72.7471  226.5678 H   0  0  0  0  0  0  0  0  0  0  0  0
  1  2  2  0
  2  3  1  0
  3  4  1  0
  4  5  1  0
  5  6  2  0
  5  7  1  0
  7  8  1  0
  8  9  1  0
  9 10  1  0
 10 11  1  0
 11 12  1  0
 12 13  2  0
 13 14  1  0
 14 15  2  0
 15 16  1  0
 15 17  1  0
 17 18  2  0
  2 19  1  0
 19 20  2  0
 20 21  1  0
 21 22  2  0
 22 23  1  0
 23 24  2  0
 24 25  1  0
 24 26  1  0
 26 27  2  0
 27 28  1  0
 28 29  2  0
 11  7  1  0
 18 12  1  0
 29 19  1  0
 28 22  1  0
  3 30  1  0
  4 31  1  0
  4 32  1  0
  8 33  1  0
  8 34  1  0
  9 35  1  0
  9 36  1  0
 10 37  1  0
 10 38  1  0
 11 39  1  1
 13 40  1  0
 14 41  1  0
 17 42  1  0
 18 43  1  0
 20 44  1  0
 21 45  1  0
 23 46  1  0
 26 47  1  0
 27 48  1  0
M  END
>  <smiles>  (9) 
O=C(NCC(=O)N1CCCC1c1ccc(F)cc1)c1ccc2cc(Cl)ccc2n1

>  <score_type>  (9) 
oracle

>  <origin>  (9) 
autodockgpu

>  <m_score__min__energy>  (9) 
-8.8399999999999999

>  <m_primary>  (9) 
energy

>  <rmsd>  (9) 
3.370365856273797

>  <m_score__min__rmsd>  (9) 
3.370365856273797

>  <meeko>  (9) 
{"free_energy": -8.24, "intermolecular_energy": -9.73, "internal_energy": -1.18, "cluster_size": 9, "cluster_id": 2, "rank_in_cluster": 3}

>  <energy>  (9) 
-7.83

>  <cluster_rmsd>  (9) 
1.54

>  <cluster>  (9) 
1

$$$$

     RDKit          3D

 48 51  0  0  0  0  0  0  0  0999 V2000
  139.4080   72.3460  221.0050 O   0  0  0  0  0  0  0  0  0  0  0  0
  138.9130   73.2690  221.7070 C   0  0  0  0  0  0  0  0  0  0  0  0
  137.6950   73.0620  222.4540 N   0  0  0  0  0  0  0  0  0  0  0  0
  136.9670   71.8360  222.4540 C   0  0  0  0  0  0  0  0  0  0  0  0
  137.4260   70.7650  223.3430 C   0  0  0  0  0  0  0  0  0  0  0  0
  137.0820   70.9640  224.5860 O   0  0  0  0  0  0  0  0  0  0  0  0
  138.1470   69.6010  223.0740 N   0  0  0  0  0  0  0  0  0  0  0  0
  137.8350   68.4690  222.1850 C   0  0  0  0  0  0  0  0  0  0  0  0
  138.6180   67.2690  222.7430 C   0  0  0  0  0  0  0  0  0  0  0  0
  139.1850   67.7830  224.0330 C   0  0  0  0  0  0  0  0  0  0  0  0
  139.4270   69.2630  223.6460 C   0  0  2  0  0  0  0  0  0  0  0  0
  139.8510   70.0080  224.8310 C   0  0  0  0  0  0  0  0  0  0  0  0
  140.4930   71.2240  224.8320 C   0  0  0  0  0  0  0  0  0  0  0  0
  140.8630   71.8650  225.9960 C   0  0  0  0  0  0  0  0  0  0  0  0
  140.5970   71.3040  227.2320 C   0  0  0  0  0  0  0  0  0  0  0  0
  140.9570   71.9290  228.3780 F   0  0  0  0  0  0  0  0  0  0  0  0
  139.9560   70.0920  227.2550 C   0  0  0  0  0  0  0  0  0  0  0  0
  139.5930   69.4600  226.0930 C   0  0  0  0  0  0  0  0  0  0  0  0
  139.5910   74.5780  221.7610 C   0  0  0  0  0  0  0  0  0  0  0  0
  140.8100   74.7370  221.1790 C   0  0  0  0  0  0  0  0  0  0  0  0
  141.4480   75.9580  221.2270 C   0  0  0  0  0  0  0  0  0  0  0  0
  140.8670   77.0310  221.8630 C   0  0  0  0  0  0  0  0  0  0  0  0
  141.5070   78.2540  221.9100 C   0  0  0  0  0  0  0  0  0  0  0  0
  140.9310   79.3370  222.5450 C   0  0  0  0  0  0  0  0  0  0  0  0
  141.7540   80.8840  222.5990 Cl  0  0  0  0  0  0  0  0  0  0  0  0
  139.6820   79.1540  223.1370 C   0  0  0  0  0  0  0  0  0  0  0  0
  139.0440   77.9190  223.0840 C   0  0  0  0  0  0  0  0  0  0  0  0
  139.6220   76.8400  222.4490 C   0  0  0  0  0  0  0  0  0  0  0  0
  139.0390   75.6370  222.3770 N   0  0  0  0  0  0  0  0  0  0  0  0
  137.3810   73.9080  223.0120 H   0  0  0  0  0  0  0  0  0  0  0  0
  135.9294   72.0713  222.7334 H   0  0  0  0  0  0  0  0  0  0  0  0
  137.1077   71.4321  221.4406 H   0  0  0  0  0  0  0  0  0  0  0  0
  136.7551   68.2600  222.1957 H   0  0  0  0  0  0  0  0  0  0  0  0
  138.1133   68.6844  221.1428 H   0  0  0  0  0  0  0  0  0  0  0  0
  137.9500   66.4135  222.9214 H   0  0  0  0  0  0  0  0  0  0  0  0
  139.3927   66.9067  222.0513 H   0  0  0  0  0  0  0  0  0  0  0  0
  138.4671   67.6892  224.8612 H   0  0  0  0  0  0  0  0  0  0  0  0
  140.0740   67.2465  224.3960 H   0  0  0  0  0  0  0  0  0  0  0  0
  140.2350   69.4900  222.9349 H   0  0  0  0  0  0  0  0  0  0  0  0
  140.7200   71.7036  223.8684 H   0  0  0  0  0  0  0  0  0  0  0  0
  141.3769   72.8360  225.9405 H   0  0  0  0  0  0  0  0  0  0  0  0
  139.7291   69.6186  228.2216 H   0  0  0  0  0  0  0  0  0  0  0  0
  139.0811   68.4883  226.1550 H   0  0  0  0  0  0  0  0  0  0  0  0
  141.2884   73.8883  220.6682 H   0  0  0  0  0  0  0  0  0  0  0  0
  142.4328   76.0759  220.7514 H   0  0  0  0  0  0  0  0  0  0  0  0
  142.4920   78.3675  221.4337 H   0  0  0  0  0  0  0  0  0  0  0  0
  139.1956   79.9957  223.6518 H   0  0  0  0  0  0  0  0  0  0  0  0
  138.0585   77.8007  223.5582 H   0  0  0  0  0  0  0  0  0  0  0  0
  1  2  2  0
  2  3  1  0
  3  4  1  0
  4  5  1  0
  5  6  2  0
  5  7  1  0
  7  8  1  0
  8  9  1  0
  9 10  1  0
 10 11  1  0
 11 12  1  0
 12 13  2  0
 13 14  1  0
 14 15  2  0
 15 16  1  0
 15 17  1  0
 17 18  2  0
  2 19  1  0
 19 20  2  0
 20 21  1  0
 21 22  2  0
 22 23  1  0
 23 24  2  0
 24 25  1  0
 24 26  1  0
 26 27  2  0
 27 28  1  0
 28 29  2  0
 11  7  1  0
 18 12  1  0
 29 19  1  0
 28 22  1  0
  3 30  1  0
  4 31  1  0
  4 32  1  0
  8 33  1  0
  8 34  1  0
  9 35  1  0
  9 36  1  0
 10 37  1  0
 10 38  1  0
 11 39  1  6
 13 40  1  0
 14 41  1  0
 17 42  1  0
 18 43  1  0
 20 44  1  0
 21 45  1  0
 23 46  1  0
 26 47  1  0
 27 48  1  0
M  END
>  <smiles>  (10) 
O=C(NCC(=O)N1CCCC1c1ccc(F)cc1)c1ccc2cc(Cl)ccc2n1

>  <score_type>  (10) 
oracle

>  <origin>  (10) 
autodockgpu

>  <m_score__min__energy>  (10) 
-8.8399999999999999

>  <m_primary>  (10) 
energy

>  <rmsd>  (10) 
7.969275271328428

>  <m_score__min__rmsd>  (10) 
7.969275271328428

>  <meeko>  (10) 
{"free_energy": -7.34, "intermolecular_energy": -8.83, "internal_energy": -1.89, "cluster_size": 5, "cluster_id": 5, "rank_in_cluster": 2}

>  <energy>  (10) 
-8.39

>  <cluster_rmsd>  (10) 
0.0

>  <cluster>  (10) 
2

$$$$

     RDKit          3D

 48 51  0  0  0  0  0  0  0  0999 V2000
  138.7950   72.7380  221.0100 O   0  0  0  0  0  0  0  0  0  0  0  0
  139.7270   72.8510  221.8520 C   0  0  0  0  0  0  0  0  0  0  0  0
  140.7200   73.8920  221.7260 N   0  0  0  0  0  0  0  0  0  0  0  0
  140.7340   74.8460  220.6660 C   0  0  0  0  0  0  0  0  0  0  0  0
  139.9470   76.0710  220.8350 C   0  0  0  0  0  0  0  0  0  0  0  0
  140.4000   77.0600  220.1140 O   0  0  0  0  0  0  0  0  0  0  0  0
  138.8220   76.3330  221.6190 N   0  0  0  0  0  0  0  0  0  0  0  0
  137.4640   75.7690  221.5590 C   0  0  0  0  0  0  0  0  0  0  0  0
  136.5420   76.8230  222.1950 C   0  0  0  0  0  0  0  0  0  0  0  0
  137.4460   78.0000  222.4120 C   0  0  0  0  0  0  0  0  0  0  0  0
  138.7740   77.2630  222.7190 C   0  0  2  0  0  0  0  0  0  0  0  0
  139.8550   78.2420  222.8200 C   0  0  0  0  0  0  0  0  0  0  0  0
  141.1720   77.9640  223.1020 C   0  0  0  0  0  0  0  0  0  0  0  0
  142.1370   78.9460  223.1810 C   0  0  0  0  0  0  0  0  0  0  0  0
  141.8170   80.2750  222.9750 C   0  0  0  0  0  0  0  0  0  0  0  0
  142.7600   81.2440  223.0510 F   0  0  0  0  0  0  0  0  0  0  0  0
  140.5090   80.5770  222.6920 C   0  0  0  0  0  0  0  0  0  0  0  0
  139.5550   79.5940  222.6160 C   0  0  0  0  0  0  0  0  0  0  0  0
  139.8010   71.9020  222.9790 C   0  0  0  0  0  0  0  0  0  0  0  0
  139.3110   70.6410  222.8400 C   0  0  0  0  0  0  0  0  0  0  0  0
  139.3770   69.7510  223.8900 C   0  0  0  0  0  0  0  0  0  0  0  0
  139.9360   70.1210  225.0920 C   0  0  0  0  0  0  0  0  0  0  0  0
  140.0020   69.2280  226.1440 C   0  0  0  0  0  0  0  0  0  0  0  0
  140.5620   69.5900  227.3540 C   0  0  0  0  0  0  0  0  0  0  0  0
  140.6390   68.4480  228.6820 Cl  0  0  0  0  0  0  0  0  0  0  0  0
  141.0580   70.8880  227.4770 C   0  0  0  0  0  0  0  0  0  0  0  0
  140.9880   71.7800  226.4130 C   0  0  0  0  0  0  0  0  0  0  0  0
  140.4280   71.4150  225.2060 C   0  0  0  0  0  0  0  0  0  0  0  0
  140.3430   72.2460  224.1600 N   0  0  0  0  0  0  0  0  0  0  0  0
  141.4480   73.8900  222.4970 H   0  0  0  0  0  0  0  0  0  0  0  0
  141.7803   75.1477  220.5107 H   0  0  0  0  0  0  0  0  0  0  0  0
  140.2577   74.3267  219.8213 H   0  0  0  0  0  0  0  0  0  0  0  0
  137.1718   75.5851  220.5146 H   0  0  0  0  0  0  0  0  0  0  0  0
  137.4025   74.8064  222.0878 H   0  0  0  0  0  0  0  0  0  0  0  0
  135.7159   77.0824  221.5166 H   0  0  0  0  0  0  0  0  0  0  0  0
  136.0688   76.4714  223.1237 H   0  0  0  0  0  0  0  0  0  0  0  0
  137.5250   78.6262  221.5111 H   0  0  0  0  0  0  0  0  0  0  0  0
  137.1144   78.7028  223.1905 H   0  0  0  0  0  0  0  0  0  0  0  0
  138.8644   76.7271  223.6753 H   0  0  0  0  0  0  0  0  0  0  0  0
  141.4671   76.9179  223.2711 H   0  0  0  0  0  0  0  0  0  0  0  0
  143.1761   78.6679  223.4112 H   0  0  0  0  0  0  0  0  0  0  0  0
  140.2203   81.6249  222.5232 H   0  0  0  0  0  0  0  0  0  0  0  0
  138.5174   79.8784  222.3866 H   0  0  0  0  0  0  0  0  0  0  0  0
  138.8603   70.3303  221.8859 H   0  0  0  0  0  0  0  0  0  0  0  0
  138.9784   68.7333  223.7661 H   0  0  0  0  0  0  0  0  0  0  0  0
  139.6019   68.2114  226.0161 H   0  0  0  0  0  0  0  0  0  0  0  0
  141.5098   71.2095  228.4270 H   0  0  0  0  0  0  0  0  0  0  0  0
  141.3873   72.7976  226.5359 H   0  0  0  0  0  0  0  0  0  0  0  0
  1  2  2  0
  2  3  1  0
  3  4  1  0
  4  5  1  0
  5  6  2  0
  5  7  1  0
  7  8  1  0
  8  9  1  0
  9 10  1  0
 10 11  1  0
 11 12  1  0
 12 13  2  0
 13 14  1  0
 14 15  2  0
 15 16  1  0
 15 17  1  0
 17 18  2  0
  2 19  1  0
 19 20  2  0
 20 21  1  0
 21 22  2  0
 22 23  1  0
 23 24  2  0
 24 25  1  0
 24 26  1  0
 26 27  2  0
 27 28  1  0
 28 29  2  0
 11  7  1  0
 18 12  1  0
 29 19  1  0
 28 22  1  0
  3 30  1  0
  4 31  1  0
  4 32  1  0
  8 33  1  0
  8 34  1  0
  9 35  1  0
  9 36  1  0
 10 37  1  0
 10 38  1  0
 11 39  1  1
 13 40  1  0
 14 41  1  0
 17 42  1  0
 18 43  1  0
 20 44  1  0
 21 45  1  0
 23 46  1  0
 26 47  1  0
 27 48  1  0
M  END
>  <smiles>  (11) 
O=C(NCC(=O)N1CCCC1c1ccc(F)cc1)c1ccc2cc(Cl)ccc2n1

>  <score_type>  (11) 
oracle

>  <origin>  (11) 
autodockgpu

>  <m_score__min__energy>  (11) 
-8.8399999999999999

>  <m_primary>  (11) 
energy

>  <rmsd>  (11) 
3.062219412016065

>  <m_score__min__rmsd>  (11) 
3.062219412016065

>  <meeko>  (11) 
{"free_energy": -7.63, "intermolecular_energy": -9.12, "internal_energy": -1.63, "cluster_size": 9, "cluster_id": 2, "rank_in_cluster": 9}

>  <energy>  (11) 
-8.34

>  <cluster_rmsd>  (11) 
0.56

>  <cluster>  (11) 
2

$$$$

     RDKit          3D

 48 51  0  0  0  0  0  0  0  0999 V2000
  139.9490   72.4010  220.7130 O   0  0  0  0  0  0  0  0  0  0  0  0
  139.8060   72.8240  221.8930 C   0  0  0  0  0  0  0  0  0  0  0  0
  139.5580   74.2210  222.1570 N   0  0  0  0  0  0  0  0  0  0  0  0
  139.4650   75.2130  221.1370 C   0  0  0  0  0  0  0  0  0  0  0  0
  139.5640   76.6200  221.5360 C   0  0  0  0  0  0  0  0  0  0  0  0
  140.7980   77.0410  221.5880 O   0  0  0  0  0  0  0  0  0  0  0  0
  138.5730   77.5500  221.8540 N   0  0  0  0  0  0  0  0  0  0  0  0
  137.1390   77.5690  221.5230 C   0  0  0  0  0  0  0  0  0  0  0  0
  136.7140   79.0450  221.5760 C   0  0  0  0  0  0  0  0  0  0  0  0
  138.0080   79.7810  221.7660 C   0  0  0  0  0  0  0  0  0  0  0  0
  138.7760   78.7490  222.6300 C   0  0  2  0  0  0  0  0  0  0  0  0
  140.1530   79.2050  222.8140 C   0  0  0  0  0  0  0  0  0  0  0  0
  140.9130   79.0380  223.9480 C   0  0  0  0  0  0  0  0  0  0  0  0
  142.2090   79.4990  224.0460 C   0  0  0  0  0  0  0  0  0  0  0  0
  142.8100   80.1590  222.9900 C   0  0  0  0  0  0  0  0  0  0  0  0
  144.0830   80.6140  223.0800 F   0  0  0  0  0  0  0  0  0  0  0  0
  142.0710   80.3370  221.8480 C   0  0  0  0  0  0  0  0  0  0  0  0
  140.7820   79.8760  221.7590 C   0  0  0  0  0  0  0  0  0  0  0  0
  139.8950   71.8710  223.0160 C   0  0  0  0  0  0  0  0  0  0  0  0
  139.4710   70.5890  222.8560 C   0  0  0  0  0  0  0  0  0  0  0  0
  139.5520   69.6960  223.9030 C   0  0  0  0  0  0  0  0  0  0  0  0
  140.0600   70.0840  225.1210 C   0  0  0  0  0  0  0  0  0  0  0  0
  140.1420   69.1870  226.1690 C   0  0  0  0  0  0  0  0  0  0  0  0
  140.6510   69.5670  227.3960 C   0  0  0  0  0  0  0  0  0  0  0  0
  140.7480   68.4200  228.7190 Cl  0  0  0  0  0  0  0  0  0  0  0  0
  141.0810   70.8860  227.5400 C   0  0  0  0  0  0  0  0  0  0  0  0
  140.9960   71.7820  226.4790 C   0  0  0  0  0  0  0  0  0  0  0  0
  140.4870   71.3990  225.2560 C   0  0  0  0  0  0  0  0  0  0  0  0
  140.3890   72.2320  224.2130 N   0  0  0  0  0  0  0  0  0  0  0  0
  139.4480   74.4530  223.1860 H   0  0  0  0  0  0  0  0  0  0  0  0
  140.2739   75.0192  220.4172 H   0  0  0  0  0  0  0  0  0  0  0  0
  138.4426   75.1094  220.7446 H   0  0  0  0  0  0  0  0  0  0  0  0
  136.9734   77.1591  220.5158 H   0  0  0  0  0  0  0  0  0  0  0  0
  136.5545   76.9550  222.2240 H   0  0  0  0  0  0  0  0  0  0  0  0
  136.2253   79.3465  220.6377 H   0  0  0  0  0  0  0  0  0  0  0  0
  135.9855   79.2505  222.3741 H   0  0  0  0  0  0  0  0  0  0  0  0
  138.5150   79.9704  220.8084 H   0  0  0  0  0  0  0  0  0  0  0  0
  137.9122   80.7815  222.2129 H   0  0  0  0  0  0  0  0  0  0  0  0
  138.4489   78.5919  223.6684 H   0  0  0  0  0  0  0  0  0  0  0  0
  140.4702   78.5169  224.8096 H   0  0  0  0  0  0  0  0  0  0  0  0
  142.7725   79.3395  224.9772 H   0  0  0  0  0  0  0  0  0  0  0  0
  142.5195   80.8581  220.9893 H   0  0  0  0  0  0  0  0  0  0  0  0
  140.2232   80.0395  220.8257 H   0  0  0  0  0  0  0  0  0  0  0  0
  139.0621   70.2635  221.8881 H   0  0  0  0  0  0  0  0  0  0  0  0
  139.2064   68.6611  223.7628 H   0  0  0  0  0  0  0  0  0  0  0  0
  139.7962   68.1529  226.0239 H   0  0  0  0  0  0  0  0  0  0  0  0
  141.4920   71.2217  228.5035 H   0  0  0  0  0  0  0  0  0  0  0  0
  141.3418   72.8168  226.6186 H   0  0  0  0  0  0  0  0  0  0  0  0
  1  2  2  0
  2  3  1  0
  3  4  1  0
  4  5  1  0
  5  6  2  0
  5  7  1  0
  7  8  1  0
  8  9  1  0
  9 10  1  0
 10 11  1  0
 11 12  1  0
 12 13  2  0
 13 14  1  0
 14 15  2  0
 15 16  1  0
 15 17  1  0
 17 18  2  0
  2 19  1  0
 19 20  2  0
 20 21  1  0
 21 22  2  0
 22 23  1  0
 23 24  2  0
 24 25  1  0
 24 26  1  0
 26 27  2  0
 27 28  1  0
 28 29  2  0
 11  7  1  0
 18 12  1  0
 29 19  1  0
 28 22  1  0
  3 30  1  0
  4 31  1  0
  4 32  1  0
  8 33  1  0
  8 34  1  0
  9 35  1  0
  9 36  1  0
 10 37  1  0
 10 38  1  0
 11 39  1  1
 13 40  1  0
 14 41  1  0
 17 42  1  0
 18 43  1  0
 20 44  1  0
 21 45  1  0
 23 46  1  0
 26 47  1  0
 27 48  1  0
M  END
>  <smiles>  (12) 
O=C(NCC(=O)N1CCCC1c1ccc(F)cc1)c1ccc2cc(Cl)ccc2n1

>  <score_type>  (12) 
oracle

>  <origin>  (12) 
autodockgpu

>  <m_score__min__energy>  (12) 
-8.8399999999999999

>  <m_primary>  (12) 
energy

>  <rmsd>  (12) 
3.0600608326806835

>  <m_score__min__rmsd>  (12) 
3.0600608326806835

>  <meeko>  (12) 
{"free_energy": -8.39, "intermolecular_energy": -9.88, "internal_energy": -0.99, "cluster_size": 9, "cluster_id": 2, "rank_in_cluster": 1}

>  <energy>  (12) 
-8.24

>  <cluster_rmsd>  (12) 
0.82

>  <cluster>  (12) 
2

$$$$

     RDKit          3D

 48 51  0  0  0  0  0  0  0  0999 V2000
  140.3070   74.0900  222.1810 O   0  0  0  0  0  0  0  0  0  0  0  0
  139.9600   72.8960  221.9680 C   0  0  0  0  0  0  0  0  0  0  0  0
  139.5090   72.4730  220.6630 N   0  0  0  0  0  0  0  0  0  0  0  0
  139.4140   73.3470  219.5410 C   0  0  0  0  0  0  0  0  0  0  0  0
  140.6180   74.0780  219.1340 C   0  0  0  0  0  0  0  0  0  0  0  0
  141.1900   73.5560  218.0840 O   0  0  0  0  0  0  0  0  0  0  0  0
  141.2240   75.2110  219.6770 N   0  0  0  0  0  0  0  0  0  0  0  0
  140.7710   76.6120  219.7150 C   0  0  0  0  0  0  0  0  0  0  0  0
  142.0440   77.4620  219.8510 C   0  0  0  0  0  0  0  0  0  0  0  0
  143.1560   76.4650  219.7010 C   0  0  0  0  0  0  0  0  0  0  0  0
  142.4940   75.2290  220.3600 C   0  0  2  0  0  0  0  0  0  0  0  0
  143.3660   74.0680  220.1880 C   0  0  0  0  0  0  0  0  0  0  0  0
  143.2230   72.8520  220.8140 C   0  0  0  0  0  0  0  0  0  0  0  0
  144.0900   71.8010  220.6000 C   0  0  0  0  0  0  0  0  0  0  0  0
  145.1580   71.9270  219.7310 C   0  0  0  0  0  0  0  0  0  0  0  0
  146.0120   70.8990  219.5160 F   0  0  0  0  0  0  0  0  0  0  0  0
  145.3200   73.1310  219.0940 C   0  0  0  0  0  0  0  0  0  0  0  0
  144.4540   74.1720  219.3130 C   0  0  0  0  0  0  0  0  0  0  0  0
  140.0160   71.9200  223.0740 C   0  0  0  0  0  0  0  0  0  0  0  0
  139.5790   70.6470  222.8810 C   0  0  0  0  0  0  0  0  0  0  0  0
  139.6300   69.7320  223.9100 C   0  0  0  0  0  0  0  0  0  0  0  0
  140.1200   70.0900  225.1460 C   0  0  0  0  0  0  0  0  0  0  0  0
  140.1700   69.1720  226.1770 C   0  0  0  0  0  0  0  0  0  0  0  0
  140.6610   69.5210  227.4200 C   0  0  0  0  0  0  0  0  0  0  0  0
  140.7180   68.3480  228.7210 Cl  0  0  0  0  0  0  0  0  0  0  0  0
  141.1040   70.8320  227.5980 C   0  0  0  0  0  0  0  0  0  0  0  0
  141.0500   71.7490  226.5540 C   0  0  0  0  0  0  0  0  0  0  0  0
  140.5600   71.3960  225.3150 C   0  0  0  0  0  0  0  0  0  0  0  0
  140.4920   72.2510  224.2860 N   0  0  0  0  0  0  0  0  0  0  0  0
  139.2530   71.4460  220.6070 H   0  0  0  0  0  0  0  0  0  0  0  0
  139.0927   72.7413  218.6808 H   0  0  0  0  0  0  0  0  0  0  0  0
  138.7121   74.1308  219.8620 H   0  0  0  0  0  0  0  0  0  0  0  0
  140.2377   76.8671  218.7873 H   0  0  0  0  0  0  0  0  0  0  0  0
  140.0756   76.7894  220.5486 H   0  0  0  0  0  0  0  0  0  0  0  0
  142.0923   78.2252  219.0603 H   0  0  0  0  0  0  0  0  0  0  0  0
  142.0898   78.0113  220.8029 H   0  0  0  0  0  0  0  0  0  0  0  0
  143.4019   76.2826  218.6445 H   0  0  0  0  0  0  0  0  0  0  0  0
  144.1161   76.7693  220.1433 H   0  0  0  0  0  0  0  0  0  0  0  0
  142.3408   75.2383  221.4492 H   0  0  0  0  0  0  0  0  0  0  0  0
  142.3847   72.7122  221.5124 H   0  0  0  0  0  0  0  0  0  0  0  0
  143.9296   70.8494  221.1280 H   0  0  0  0  0  0  0  0  0  0  0  0
  146.1591   73.2640  218.3953 H   0  0  0  0  0  0  0  0  0  0  0  0
  144.6201   75.1214  218.7828 H   0  0  0  0  0  0  0  0  0  0  0  0
  139.1832   70.3464  221.8997 H   0  0  0  0  0  0  0  0  0  0  0  0
  139.2754   68.7043  223.7422 H   0  0  0  0  0  0  0  0  0  0  0  0
  139.8128   68.1459  226.0052 H   0  0  0  0  0  0  0  0  0  0  0  0
  141.5006   71.1438  228.5755 H   0  0  0  0  0  0  0  0  0  0  0  0
  141.4054   72.7766  226.7203 H   0  0  0  0  0  0  0  0  0  0  0  0
  1  2  2  0
  2  3  1  0
  3  4  1  0
  4  5  1  0
  5  6  2  0
  5  7  1  0
  7  8  1  0
  8  9  1  0
  9 10  1  0
 10 11  1  0
 11 12  1  0
 12 13  2  0
 13 14  1  0
 14 15  2  0
 15 16  1  0
 15 17  1  0
 17 18  2  0
  2 19  1  0
 19 20  2  0
 20 21  1  0
 21 22  2  0
 22 23  1  0
 23 24  2  0
 24 25  1  0
 24 26  1  0
 26 27  2  0
 27 28  1  0
 28 29  2  0
 11  7  1  0
 18 12  1  0
 29 19  1  0
 28 22  1  0
  3 30  1  0
  4 31  1  0
  4 32  1  0
  8 33  1  0
  8 34  1  0
  9 35  1  0
  9 36  1  0
 10 37  1  0
 10 38  1  0
 11 39  1  1
 13 40  1  0
 14 41  1  0
 17 42  1  0
 18 43  1  0
 20 44  1  0
 21 45  1  0
 23 46  1  0
 26 47  1  0
 27 48  1  0
M  END
>  <smiles>  (13) 
O=C(NCC(=O)N1CCCC1c1ccc(F)cc1)c1ccc2cc(Cl)ccc2n1

>  <score_type>  (13) 
oracle

>  <origin>  (13) 
autodockgpu

>  <m_score__min__energy>  (13) 
-8.8399999999999999

>  <m_primary>  (13) 
energy

>  <rmsd>  (13) 
2.330257750801142

>  <m_score__min__rmsd>  (13) 
2.330257750801142

>  <meeko>  (13) 
{"free_energy": -7.66, "intermolecular_energy": -9.15, "internal_energy": -1.73, "cluster_size": 22, "cluster_id": 3, "rank_in_cluster": 14}

>  <energy>  (13) 
-8.07

>  <cluster_rmsd>  (13) 
1.74

>  <cluster>  (13) 
2

$$$$

     RDKit          3D

 48 51  0  0  0  0  0  0  0  0999 V2000
  139.0000   71.7580  220.6450 O   0  0  0  0  0  0  0  0  0  0  0  0
  139.0480   72.2670  221.7980 C   0  0  0  0  0  0  0  0  0  0  0  0
  138.8270   73.6810  221.9950 N   0  0  0  0  0  0  0  0  0  0  0  0
  138.5540   74.5930  220.9330 C   0  0  0  0  0  0  0  0  0  0  0  0
  139.4590   74.5970  219.7810 C   0  0  0  0  0  0  0  0  0  0  0  0
  138.8770   75.0090  218.6880 O   0  0  0  0  0  0  0  0  0  0  0  0
  140.8050   74.2430  219.6760 N   0  0  0  0  0  0  0  0  0  0  0  0
  141.4320   72.9860  219.2360 C   0  0  0  0  0  0  0  0  0  0  0  0
  142.8190   72.9530  219.8970 C   0  0  0  0  0  0  0  0  0  0  0  0
  142.8020   74.1370  220.8190 C   0  0  0  0  0  0  0  0  0  0  0  0
  141.9180   75.1040  219.9930 C   0  0  2  0  0  0  0  0  0  0  0  0
  141.6380   76.2990  220.7880 C   0  0  0  0  0  0  0  0  0  0  0  0
  141.0580   76.3210  222.0350 C   0  0  0  0  0  0  0  0  0  0  0  0
  140.8260   77.4930  222.7240 C   0  0  0  0  0  0  0  0  0  0  0  0
  141.1730   78.7160  222.1820 C   0  0  0  0  0  0  0  0  0  0  0  0
  140.9480   79.8710  222.8540 F   0  0  0  0  0  0  0  0  0  0  0  0
  141.7540   78.7190  220.9390 C   0  0  0  0  0  0  0  0  0  0  0  0
  141.9820   77.5490  220.2600 C   0  0  0  0  0  0  0  0  0  0  0  0
  139.3350   71.4030  222.9580 C   0  0  0  0  0  0  0  0  0  0  0  0
  139.0060   70.0830  222.9200 C   0  0  0  0  0  0  0  0  0  0  0  0
  139.2730   69.2710  224.0020 C   0  0  0  0  0  0  0  0  0  0  0  0
  139.8710   69.7790  225.1320 C   0  0  0  0  0  0  0  0  0  0  0  0
  140.1370   68.9640  226.2160 C   0  0  0  0  0  0  0  0  0  0  0  0
  140.7380   69.4640  227.3540 C   0  0  0  0  0  0  0  0  0  0  0  0
  141.0700   68.4200  228.7230 Cl  0  0  0  0  0  0  0  0  0  0  0  0
  141.0660   70.8190  227.3740 C   0  0  0  0  0  0  0  0  0  0  0  0
  140.7950   71.6320  226.2780 C   0  0  0  0  0  0  0  0  0  0  0  0
  140.1950   71.1290  225.1430 C   0  0  0  0  0  0  0  0  0  0  0  0
  139.9190   71.8800  224.0690 N   0  0  0  0  0  0  0  0  0  0  0  0
  138.8860   73.9890  223.0080 H   0  0  0  0  0  0  0  0  0  0  0  0
  137.5460   74.3645  220.5565 H   0  0  0  0  0  0  0  0  0  0  0  0
  138.6803   75.5877  221.3854 H   0  0  0  0  0  0  0  0  0  0  0  0
  140.8318   72.1241  219.5629 H   0  0  0  0  0  0  0  0  0  0  0  0
  141.5058   72.9337  218.1397 H   0  0  0  0  0  0  0  0  0  0  0  0
  142.9629   72.0192  220.4603 H   0  0  0  0  0  0  0  0  0  0  0  0
  143.6404   72.9934  219.1665 H   0  0  0  0  0  0  0  0  0  0  0  0
  142.3447   73.8930  221.7893 H   0  0  0  0  0  0  0  0  0  0  0  0
  143.7933   74.5298  221.0890 H   0  0  0  0  0  0  0  0  0  0  0  0
  142.3388   75.5374  219.0737 H   0  0  0  0  0  0  0  0  0  0  0  0
  140.7681   75.3674  222.5005 H   0  0  0  0  0  0  0  0  0  0  0  0
  140.3582   77.4538  223.7188 H   0  0  0  0  0  0  0  0  0  0  0  0
  142.0419   79.6759  220.4791 H   0  0  0  0  0  0  0  0  0  0  0  0
  142.4514   77.5947  219.2662 H   0  0  0  0  0  0  0  0  0  0  0  0
  138.5259   69.6628  222.0239 H   0  0  0  0  0  0  0  0  0  0  0  0
  139.0048   68.2050  223.9612 H   0  0  0  0  0  0  0  0  0  0  0  0
  139.8653   67.8990  226.1714 H   0  0  0  0  0  0  0  0  0  0  0  0
  141.5442   71.2499  228.2660 H   0  0  0  0  0  0  0  0  0  0  0  0
  141.0649   72.6977  226.3177 H   0  0  0  0  0  0  0  0  0  0  0  0
  1  2  2  0
  2  3  1  0
  3  4  1  0
  4  5  1  0
  5  6  2  0
  5  7  1  0
  7  8  1  0
  8  9  1  0
  9 10  1  0
 10 11  1  0
 11 12  1  0
 12 13  2  0
 13 14  1  0
 14 15  2  0
 15 16  1  0
 15 17  1  0
 17 18  2  0
  2 19  1  0
 19 20  2  0
 20 21  1  0
 21 22  2  0
 22 23  1  0
 23 24  2  0
 24 25  1  0
 24 26  1  0
 26 27  2  0
 27 28  1  0
 28 29  2  0
 11  7  1  0
 18 12  1  0
 29 19  1  0
 28 22  1  0
  3 30  1  0
  4 31  1  0
  4 32  1  0
  8 33  1  0
  8 34  1  0
  9 35  1  0
  9 36  1  0
 10 37  1  0
 10 38  1  0
 11 39  1  6
 13 40  1  0
 14 41  1  0
 17 42  1  0
 18 43  1  0
 20 44  1  0
 21 45  1  0
 23 46  1  0
 26 47  1  0
 27 48  1  0
M  END
>  <smiles>  (14) 
O=C(NCC(=O)N1CCCC1c1ccc(F)cc1)c1ccc2cc(Cl)ccc2n1

>  <score_type>  (14) 
oracle

>  <origin>  (14) 
autodockgpu

>  <m_score__min__energy>  (14) 
-8.8399999999999999

>  <m_primary>  (14) 
energy

>  <rmsd>  (14) 
2.399741634834125

>  <m_score__min__rmsd>  (14) 
2.399741634834125

>  <meeko>  (14) 
{"free_energy": -7.33, "intermolecular_energy": -8.83, "internal_energy": -1.88, "cluster_size": 4, "cluster_id": 6, "rank_in_cluster": 3}

>  <energy>  (14) 
-8.06

>  <cluster_rmsd>  (14) 
1.78

>  <cluster>  (14) 
2

$$$$

     RDKit          3D

 48 51  0  0  0  0  0  0  0  0999 V2000
  139.3060   71.9270  220.6910 O   0  0  0  0  0  0  0  0  0  0  0  0
  139.4720   72.3950  221.8500 C   0  0  0  0  0  0  0  0  0  0  0  0
  139.4880   73.8200  222.0810 N   0  0  0  0  0  0  0  0  0  0  0  0
  139.3300   74.7890  221.0460 C   0  0  0  0  0  0  0  0  0  0  0  0
  140.2270   74.7100  219.8890 C   0  0  0  0  0  0  0  0  0  0  0  0
  139.6590   75.1180  218.7870 O   0  0  0  0  0  0  0  0  0  0  0  0
  141.5520   74.2850  219.7890 N   0  0  0  0  0  0  0  0  0  0  0  0
  142.1550   72.9680  220.0500 C   0  0  0  0  0  0  0  0  0  0  0  0
  143.6330   73.2390  220.3770 C   0  0  0  0  0  0  0  0  0  0  0  0
  143.7120   74.7360  220.4470 C   0  0  0  0  0  0  0  0  0  0  0  0
  142.6600   75.1080  219.3720 C   0  0  2  0  0  0  0  0  0  0  0  0
  142.4600   76.5570  219.3760 C   0  0  0  0  0  0  0  0  0  0  0  0
  141.9780   77.3020  220.4270 C   0  0  0  0  0  0  0  0  0  0  0  0
  141.8160   78.6700  220.3530 C   0  0  0  0  0  0  0  0  0  0  0  0
  142.1400   79.3620  219.2010 C   0  0  0  0  0  0  0  0  0  0  0  0
  141.9840   80.7050  219.1220 F   0  0  0  0  0  0  0  0  0  0  0  0
  142.6240   78.6400  218.1400 C   0  0  0  0  0  0  0  0  0  0  0  0
  142.7810   77.2790  218.2210 C   0  0  0  0  0  0  0  0  0  0  0  0
  139.6540   71.4690  222.9840 C   0  0  0  0  0  0  0  0  0  0  0  0
  139.2920   70.1630  222.8600 C   0  0  0  0  0  0  0  0  0  0  0  0
  139.4600   69.2940  223.9160 C   0  0  0  0  0  0  0  0  0  0  0  0
  139.9920   69.7290  225.1080 C   0  0  0  0  0  0  0  0  0  0  0  0
  140.1600   68.8560  226.1660 C   0  0  0  0  0  0  0  0  0  0  0  0
  140.6940   69.2840  227.3660 C   0  0  0  0  0  0  0  0  0  0  0  0
  140.9010   68.1670  228.7020 Cl  0  0  0  0  0  0  0  0  0  0  0  0
  141.0570   70.6260  227.4740 C   0  0  0  0  0  0  0  0  0  0  0  0
  140.8850   71.4970  226.4030 C   0  0  0  0  0  0  0  0  0  0  0  0
  140.3520   71.0670  225.2070 C   0  0  0  0  0  0  0  0  0  0  0  0
  140.1720   71.8750  224.1550 N   0  0  0  0  0  0  0  0  0  0  0  0
  139.6280   74.0920  223.0960 H   0  0  0  0  0  0  0  0  0  0  0  0
  138.3005   74.7005  220.6689 H   0  0  0  0  0  0  0  0  0  0  0  0
  139.5812   75.7470  221.5246 H   0  0  0  0  0  0  0  0  0  0  0  0
  141.6576   72.4814  220.9019 H   0  0  0  0  0  0  0  0  0  0  0  0
  142.0491   72.2966  219.1852 H   0  0  0  0  0  0  0  0  0  0  0  0
  143.9114   72.7859  221.3399 H   0  0  0  0  0  0  0  0  0  0  0  0
  144.3203   72.8097  219.6331 H   0  0  0  0  0  0  0  0  0  0  0  0
  143.4318   75.1141  221.4413 H   0  0  0  0  0  0  0  0  0  0  0  0
  144.7148   75.1566  220.2809 H   0  0  0  0  0  0  0  0  0  0  0  0
  142.9023   74.9156  218.3164 H   0  0  0  0  0  0  0  0  0  0  0  0
  141.7116   76.7875  221.3620 H   0  0  0  0  0  0  0  0  0  0  0  0
  141.4236   79.2176  221.2226 H   0  0  0  0  0  0  0  0  0  0  0  0
  142.8908   79.1606  217.2084 H   0  0  0  0  0  0  0  0  0  0  0  0
  143.1728   76.7369  217.3477 H   0  0  0  0  0  0  0  0  0  0  0  0
  138.8640   69.8000  221.9139 H   0  0  0  0  0  0  0  0  0  0  0  0
  139.1653   68.2401  223.8048 H   0  0  0  0  0  0  0  0  0  0  0  0
  139.8636   67.8030  226.0507 H   0  0  0  0  0  0  0  0  0  0  0  0
  141.4840   71.0000  228.4162 H   0  0  0  0  0  0  0  0  0  0  0  0
  141.1805   72.5508  226.5130 H   0  0  0  0  0  0  0  0  0  0  0  0
  1  2  2  0
  2  3  1  0
  3  4  1  0
  4  5  1  0
  5  6  2  0
  5  7  1  0
  7  8  1  0
  8  9  1  0
  9 10  1  0
 10 11  1  0
 11 12  1  0
 12 13  2  0
 13 14  1  0
 14 15  2  0
 15 16  1  0
 15 17  1  0
 17 18  2  0
  2 19  1  0
 19 20  2  0
 20 21  1  0
 21 22  2  0
 22 23  1  0
 23 24  2  0
 24 25  1  0
 24 26  1  0
 26 27  2  0
 27 28  1  0
 28 29  2  0
 11  7  1  0
 18 12  1  0
 29 19  1  0
 28 22  1  0
  3 30  1  0
  4 31  1  0
  4 32  1  0
  8 33  1  0
  8 34  1  0
  9 35  1  0
  9 36  1  0
 10 37  1  0
 10 38  1  0
 11 39  1  6
 13 40  1  0
 14 41  1  0
 17 42  1  0
 18 43  1  0
 20 44  1  0
 21 45  1  0
 23 46  1  0
 26 47  1  0
 27 48  1  0
M  END
>  <smiles>  (15) 
O=C(NCC(=O)N1CCCC1c1ccc(F)cc1)c1ccc2cc(Cl)ccc2n1

>  <score_type>  (15) 
oracle

>  <origin>  (15) 
autodockgpu

>  <m_score__min__energy>  (15) 
-8.8399999999999999

>  <m_primary>  (15) 
energy

>  <rmsd>  (15) 
2.6523798336439444

>  <m_score__min__rmsd>  (15) 
2.6523798336439444

>  <meeko>  (15) 
{"free_energy": -7.44, "intermolecular_energy": -8.94, "internal_energy": -1.71, "cluster_size": 4, "cluster_id": 6, "rank_in_cluster": 2}

>  <energy>  (15) 
-7.93

>  <cluster_rmsd>  (15) 
1.99

>  <cluster>  (15) 
2

$$$$

     RDKit          3D

 48 51  0  0  0  0  0  0  0  0999 V2000
  140.1210   74.0670  222.0260 O   0  0  0  0  0  0  0  0  0  0  0  0
  139.9370   72.8380  221.8110 C   0  0  0  0  0  0  0  0  0  0  0  0
  139.6820   72.3460  220.4780 N   0  0  0  0  0  0  0  0  0  0  0  0
  139.6100   73.1850  219.3280 C   0  0  0  0  0  0  0  0  0  0  0  0
  140.8020   73.9590  218.9670 C   0  0  0  0  0  0  0  0  0  0  0  0
  141.4000   73.4910  217.9050 O   0  0  0  0  0  0  0  0  0  0  0  0
  141.3740   75.0840  219.5610 N   0  0  0  0  0  0  0  0  0  0  0  0
  140.9170   76.4830  219.5960 C   0  0  0  0  0  0  0  0  0  0  0  0
  142.1790   77.3330  219.8180 C   0  0  0  0  0  0  0  0  0  0  0  0
  143.2990   76.3390  219.7150 C   0  0  0  0  0  0  0  0  0  0  0  0
  142.6030   75.0920  220.3150 C   0  0  2  0  0  0  0  0  0  0  0  0
  143.4860   73.9350  220.1740 C   0  0  0  0  0  0  0  0  0  0  0  0
  143.1830   72.6400  220.5270 C   0  0  0  0  0  0  0  0  0  0  0  0
  144.0730   71.6000  220.3620 C   0  0  0  0  0  0  0  0  0  0  0  0
  145.3280   71.8160  219.8250 C   0  0  0  0  0  0  0  0  0  0  0  0
  146.2060   70.7980  219.6610 F   0  0  0  0  0  0  0  0  0  0  0  0
  145.6530   73.0990  219.4650 C   0  0  0  0  0  0  0  0  0  0  0  0
  144.7630   74.1290  219.6320 C   0  0  0  0  0  0  0  0  0  0  0  0
  139.9830   71.8930  222.9440 C   0  0  0  0  0  0  0  0  0  0  0  0
  139.5230   70.6230  222.7890 C   0  0  0  0  0  0  0  0  0  0  0  0
  139.5640   69.7370  223.8440 C   0  0  0  0  0  0  0  0  0  0  0  0
  140.0670   70.1200  225.0660 C   0  0  0  0  0  0  0  0  0  0  0  0
  140.1080   69.2310  226.1220 C   0  0  0  0  0  0  0  0  0  0  0  0
  140.6130   69.6060  227.3520 C   0  0  0  0  0  0  0  0  0  0  0  0
  140.6580   68.4690  228.6860 Cl  0  0  0  0  0  0  0  0  0  0  0  0
  141.0790   70.9130  227.4910 C   0  0  0  0  0  0  0  0  0  0  0  0
  141.0350   71.8010  226.4220 C   0  0  0  0  0  0  0  0  0  0  0  0
  140.5310   71.4230  225.1950 C   0  0  0  0  0  0  0  0  0  0  0  0
  140.4720   72.2490  224.1430 N   0  0  0  0  0  0  0  0  0  0  0  0
  139.5510   71.2950  220.4240 H   0  0  0  0  0  0  0  0  0  0  0  0
  139.3639   72.5431  218.4693 H   0  0  0  0  0  0  0  0  0  0  0  0
  138.8568   73.9437  219.5871 H   0  0  0  0  0  0  0  0  0  0  0  0
  140.4367   76.7526  218.6438 H   0  0  0  0  0  0  0  0  0  0  0  0
  140.1752   76.6458  220.3917 H   0  0  0  0  0  0  0  0  0  0  0  0
  142.2706   78.1090  219.0438 H   0  0  0  0  0  0  0  0  0  0  0  0
  142.1698   77.8673  220.7795 H   0  0  0  0  0  0  0  0  0  0  0  0
  143.6045   76.1741  218.6712 H   0  0  0  0  0  0  0  0  0  0  0  0
  144.2319   76.6366  220.2161 H   0  0  0  0  0  0  0  0  0  0  0  0
  142.3878   75.0832  221.3937 H   0  0  0  0  0  0  0  0  0  0  0  0
  142.1933   72.4264  220.9571 H   0  0  0  0  0  0  0  0  0  0  0  0
  143.7798   70.5832  220.6622 H   0  0  0  0  0  0  0  0  0  0  0  0
  146.6443   73.3053  219.0351 H   0  0  0  0  0  0  0  0  0  0  0  0
  145.0626   75.1433  219.3297 H   0  0  0  0  0  0  0  0  0  0  0  0
  139.1168   70.3016  221.8186 H   0  0  0  0  0  0  0  0  0  0  0  0
  139.1901   68.7115  223.7074 H   0  0  0  0  0  0  0  0  0  0  0  0
  139.7321   68.2068  225.9814 H   0  0  0  0  0  0  0  0  0  0  0  0
  141.4860   71.2452  228.4574 H   0  0  0  0  0  0  0  0  0  0  0  0
  141.4099   72.8262  226.5576 H   0  0  0  0  0  0  0  0  0  0  0  0
  1  2  2  0
  2  3  1  0
  3  4  1  0
  4  5  1  0
  5  6  2  0
  5  7  1  0
  7  8  1  0
  8  9  1  0
  9 10  1  0
 10 11  1  0
 11 12  1  0
 12 13  2  0
 13 14  1  0
 14 15  2  0
 15 16  1  0
 15 17  1  0
 17 18  2  0
  2 19  1  0
 19 20  2  0
 20 21  1  0
 21 22  2  0
 22 23  1  0
 23 24  2  0
 24 25  1  0
 24 26  1  0
 26 27  2  0
 27 28  1  0
 28 29  2  0
 11  7  1  0
 18 12  1  0
 29 19  1  0
 28 22  1  0
  3 30  1  0
  4 31  1  0
  4 32  1  0
  8 33  1  0
  8 34  1  0
  9 35  1  0
  9 36  1  0
 10 37  1  0
 10 38  1  0
 11 39  1  1
 13 40  1  0
 14 41  1  0
 17 42  1  0
 18 43  1  0
 20 44  1  0
 21 45  1  0
 23 46  1  0
 26 47  1  0
 27 48  1  0
M  END
>  <smiles>  (16) 
O=C(NCC(=O)N1CCCC1c1ccc(F)cc1)c1ccc2cc(Cl)ccc2n1

>  <score_type>  (16) 
oracle

>  <origin>  (16) 
autodockgpu

>  <m_score__min__energy>  (16) 
-8.8399999999999999

>  <m_primary>  (16) 
energy

>  <rmsd>  (16) 
2.4184656006650767

>  <m_score__min__rmsd>  (16) 
2.4184656006650767

>  <meeko>  (16) 
{"free_energy": -7.76, "intermolecular_energy": -9.25, "internal_energy": -1.69, "cluster_size": 22, "cluster_id": 3, "rank_in_cluster": 9}

>  <energy>  (16) 
-7.7

>  <cluster_rmsd>  (16) 
0.99

>  <cluster>  (16) 
2

$$$$

     RDKit          3D

 48 51  0  0  0  0  0  0  0  0999 V2000
  140.2090   72.3850  220.6750 O   0  0  0  0  0  0  0  0  0  0  0  0
  139.9920   72.8130  221.8410 C   0  0  0  0  0  0  0  0  0  0  0  0
  139.7390   74.2140  222.0830 N   0  0  0  0  0  0  0  0  0  0  0  0
  139.7220   75.2020  221.0550 C   0  0  0  0  0  0  0  0  0  0  0  0
  140.8200   76.1720  221.0160 C   0  0  0  0  0  0  0  0  0  0  0  0
  141.2240   76.5190  222.2080 O   0  0  0  0  0  0  0  0  0  0  0  0
  141.4820   76.7590  219.9380 N   0  0  0  0  0  0  0  0  0  0  0  0
  141.1460   77.9550  219.1460 C   0  0  0  0  0  0  0  0  0  0  0  0
  141.8280   77.7620  217.7820 C   0  0  0  0  0  0  0  0  0  0  0  0
  142.3650   76.3620  217.8480 C   0  0  0  0  0  0  0  0  0  0  0  0
  142.7120   76.2810  219.3550 C   0  0  2  0  0  0  0  0  0  0  0  0
  143.1240   74.9160  219.6820 C   0  0  0  0  0  0  0  0  0  0  0  0
  144.1510   74.5640  220.5250 C   0  0  0  0  0  0  0  0  0  0  0  0
  144.4800   73.2500  220.7830 C   0  0  0  0  0  0  0  0  0  0  0  0
  143.7790   72.2130  220.1960 C   0  0  0  0  0  0  0  0  0  0  0  0
  144.0970   70.9200  220.4450 F   0  0  0  0  0  0  0  0  0  0  0  0
  142.7490   72.5410  219.3510 C   0  0  0  0  0  0  0  0  0  0  0  0
  142.4280   73.8510  219.0990 C   0  0  0  0  0  0  0  0  0  0  0  0
  140.0000   71.8650  222.9710 C   0  0  0  0  0  0  0  0  0  0  0  0
  139.5050   70.6090  222.8080 C   0  0  0  0  0  0  0  0  0  0  0  0
  139.5100   69.7190  223.8610 C   0  0  0  0  0  0  0  0  0  0  0  0
  140.0120   70.0860  225.0890 C   0  0  0  0  0  0  0  0  0  0  0  0
  140.0160   69.1930  226.1440 C   0  0  0  0  0  0  0  0  0  0  0  0
  140.5180   69.5510  227.3800 C   0  0  0  0  0  0  0  0  0  0  0  0
  140.5170   68.4100  228.7110 Cl  0  0  0  0  0  0  0  0  0  0  0  0
  141.0200   70.8440  227.5270 C   0  0  0  0  0  0  0  0  0  0  0  0
  141.0120   71.7350  226.4600 C   0  0  0  0  0  0  0  0  0  0  0  0
  140.5100   71.3740  225.2270 C   0  0  0  0  0  0  0  0  0  0  0  0
  140.4860   72.2040  224.1770 N   0  0  0  0  0  0  0  0  0  0  0  0
  139.5640   74.4510  223.1010 H   0  0  0  0  0  0  0  0  0  0  0  0
  139.7195   74.6716  220.0913 H   0  0  0  0  0  0  0  0  0  0  0  0
  138.8283   75.8065  221.2690 H   0  0  0  0  0  0  0  0  0  0  0  0
  140.0563   78.0373  219.0207 H   0  0  0  0  0  0  0  0  0  0  0  0
  141.4866   78.8763  219.6412 H   0  0  0  0  0  0  0  0  0  0  0  0
  141.1019   77.8654  216.9622 H   0  0  0  0  0  0  0  0  0  0  0  0
  142.6105   78.5101  217.5868 H   0  0  0  0  0  0  0  0  0  0  0  0
  141.6055   75.6191  217.5630 H   0  0  0  0  0  0  0  0  0  0  0  0
  143.2030   76.1535  217.1667 H   0  0  0  0  0  0  0  0  0  0  0  0
  143.5641   76.8699  219.7253 H   0  0  0  0  0  0  0  0  0  0  0  0
  144.7324   75.3606  221.0122 H   0  0  0  0  0  0  0  0  0  0  0  0
  145.3122   73.0236  221.4658 H   0  0  0  0  0  0  0  0  0  0  0  0
  142.1707   71.7400  218.8673 H   0  0  0  0  0  0  0  0  0  0  0  0
  141.5950   74.0717  218.4153 H   0  0  0  0  0  0  0  0  0  0  0  0
  139.0992   70.3020  221.8327 H   0  0  0  0  0  0  0  0  0  0  0  0
  139.1085   68.7049  223.7182 H   0  0  0  0  0  0  0  0  0  0  0  0
  139.6127   68.1803  225.9968 H   0  0  0  0  0  0  0  0  0  0  0  0
  141.4268   71.1623  228.4982 H   0  0  0  0  0  0  0  0  0  0  0  0
  141.4143   72.7489  226.6019 H   0  0  0  0  0  0  0  0  0  0  0  0
  1  2  2  0
  2  3  1  0
  3  4  1  0
  4  5  1  0
  5  6  2  0
  5  7  1  0
  7  8  1  0
  8  9  1  0
  9 10  1  0
 10 11  1  0
 11 12  1  0
 12 13  2  0
 13 14  1  0
 14 15  2  0
 15 16  1  0
 15 17  1  0
 17 18  2  0
  2 19  1  0
 19 20  2  0
 20 21  1  0
 21 22  2  0
 22 23  1  0
 23 24  2  0
 24 25  1  0
 24 26  1  0
 26 27  2  0
 27 28  1  0
 28 29  2  0
 11  7  1  0
 18 12  1  0
 29 19  1  0
 28 22  1  0
  3 30  1  0
  4 31  1  0
  4 32  1  0
  8 33  1  0
  8 34  1  0
  9 35  1  0
  9 36  1  0
 10 37  1  0
 10 38  1  0
 11 39  1  6
 13 40  1  0
 14 41  1  0
 17 42  1  0
 18 43  1  0
 20 44  1  0
 21 45  1  0
 23 46  1  0
 26 47  1  0
 27 48  1  0
M  END
>  <smiles>  (17) 
O=C(NCC(=O)N1CCCC1c1ccc(F)cc1)c1ccc2cc(Cl)ccc2n1

>  <score_type>  (17) 
oracle

>  <origin>  (17) 
autodockgpu

>  <m_score__min__energy>  (17) 
-8.8399999999999999

>  <m_primary>  (17) 
energy

>  <rmsd>  (17) 
2.1126736127746377

>  <m_score__min__rmsd>  (17) 
2.1126736127746377

>  <meeko>  (17) 
{"free_energy": -7.63, "intermolecular_energy": -9.12, "internal_energy": -1.98, "cluster_size": 22, "cluster_id": 3, "rank_in_cluster": 16}

>  <energy>  (17) 
-7.64

>  <cluster_rmsd>  (17) 
1.65

>  <cluster>  (17) 
2

$$$$

     RDKit          3D

 48 51  0  0  0  0  0  0  0  0999 V2000
  140.9330   72.5140  220.7910 O   0  0  0  0  0  0  0  0  0  0  0  0
  140.3450   72.8950  221.8400 C   0  0  0  0  0  0  0  0  0  0  0  0
  139.8040   74.2290  221.9460 N   0  0  0  0  0  0  0  0  0  0  0  0
  139.8910   75.2010  220.9070 C   0  0  0  0  0  0  0  0  0  0  0  0
  140.8590   76.2910  221.0660 C   0  0  0  0  0  0  0  0  0  0  0  0
  141.1210   76.5490  222.3180 O   0  0  0  0  0  0  0  0  0  0  0  0
  141.5240   77.0670  220.1160 N   0  0  0  0  0  0  0  0  0  0  0  0
  141.1620   78.3630  219.5180 C   0  0  0  0  0  0  0  0  0  0  0  0
  141.8840   78.4170  218.1620 C   0  0  0  0  0  0  0  0  0  0  0  0
  142.4710   77.0430  218.0170 C   0  0  0  0  0  0  0  0  0  0  0  0
  142.7840   76.7300  219.5010 C   0  0  2  0  0  0  0  0  0  0  0  0
  143.2380   75.3450  219.6150 C   0  0  0  0  0  0  0  0  0  0  0  0
  144.2190   74.8850  220.4620 C   0  0  0  0  0  0  0  0  0  0  0  0
  144.5930   73.5580  220.5110 C   0  0  0  0  0  0  0  0  0  0  0  0
  143.9870   72.6180  219.6980 C   0  0  0  0  0  0  0  0  0  0  0  0
  144.3500   71.3140  219.7420 F   0  0  0  0  0  0  0  0  0  0  0  0
  143.0050   73.0540  218.8460 C   0  0  0  0  0  0  0  0  0  0  0  0
  142.6390   74.3760  218.8020 C   0  0  0  0  0  0  0  0  0  0  0  0
  140.2150   71.9600  222.9740 C   0  0  0  0  0  0  0  0  0  0  0  0
  139.6020   70.7590  222.7970 C   0  0  0  0  0  0  0  0  0  0  0  0
  139.4780   69.8820  223.8530 C   0  0  0  0  0  0  0  0  0  0  0  0
  139.9670   70.2050  225.0980 C   0  0  0  0  0  0  0  0  0  0  0  0
  139.8420   69.3250  226.1560 C   0  0  0  0  0  0  0  0  0  0  0  0
  140.3310   69.6400  227.4090 C   0  0  0  0  0  0  0  0  0  0  0  0
  140.1650   68.5160  228.7430 Cl  0  0  0  0  0  0  0  0  0  0  0  0
  140.9560   70.8770  227.5690 C   0  0  0  0  0  0  0  0  0  0  0  0
  141.0780   71.7570  226.4990 C   0  0  0  0  0  0  0  0  0  0  0  0
  140.5890   71.4380  225.2490 C   0  0  0  0  0  0  0  0  0  0  0  0
  140.6870   72.2580  224.1950 N   0  0  0  0  0  0  0  0  0  0  0  0
  139.3280   74.4290  222.8720 H   0  0  0  0  0  0  0  0  0  0  0  0
  140.1479   74.6674  219.9800 H   0  0  0  0  0  0  0  0  0  0  0  0
  138.9106   75.6998  220.9133 H   0  0  0  0  0  0  0  0  0  0  0  0
  140.0733   78.4276  219.3748 H   0  0  0  0  0  0  0  0  0  0  0  0
  141.4548   79.2027  220.1655 H   0  0  0  0  0  0  0  0  0  0  0  0
  141.1749   78.6286  217.3481 H   0  0  0  0  0  0  0  0  0  0  0  0
  142.6426   79.2121  218.1141 H   0  0  0  0  0  0  0  0  0  0  0  0
  141.7468   76.3317  217.5932 H   0  0  0  0  0  0  0  0  0  0  0  0
  143.3324   76.9753  217.3363 H   0  0  0  0  0  0  0  0  0  0  0  0
  143.6043   77.2783  219.9874 H   0  0  0  0  0  0  0  0  0  0  0  0
  144.7245   75.6022  221.1254 H   0  0  0  0  0  0  0  0  0  0  0  0
  145.3847   73.2432  221.2068 H   0  0  0  0  0  0  0  0  0  0  0  0
  142.5019   72.3317  218.1864 H   0  0  0  0  0  0  0  0  0  0  0  0
  141.8473   74.6847  218.1035 H   0  0  0  0  0  0  0  0  0  0  0  0
  139.2041   70.4868  221.8083 H   0  0  0  0  0  0  0  0  0  0  0  0
  138.9822   68.9123  223.6987 H   0  0  0  0  0  0  0  0  0  0  0  0
  139.3445   68.3568  225.9978 H   0  0  0  0  0  0  0  0  0  0  0  0
  141.3572   71.1597  228.5534 H   0  0  0  0  0  0  0  0  0  0  0  0
  141.5743   72.7266  226.6524 H   0  0  0  0  0  0  0  0  0  0  0  0
  1  2  2  0
  2  3  1  0
  3  4  1  0
  4  5  1  0
  5  6  2  0
  5  7  1  0
  7  8  1  0
  8  9  1  0
  9 10  1  0
 10 11  1  0
 11 12  1  0
 12 13  2  0
 13 14  1  0
 14 15  2  0
 15 16  1  0
 15 17  1  0
 17 18  2  0
  2 19  1  0
 19 20  2  0
 20 21  1  0
 21 22  2  0
 22 23  1  0
 23 24  2  0
 24 25  1  0
 24 26  1  0
 26 27  2  0
 27 28  1  0
 28 29  2  0
 11  7  1  0
 18 12  1  0
 29 19  1  0
 28 22  1  0
  3 30  1  0
  4 31  1  0
  4 32  1  0
  8 33  1  0
  8 34  1  0
  9 35  1  0
  9 36  1  0
 10 37  1  0
 10 38  1  0
 11 39  1  1
 13 40  1  0
 14 41  1  0
 17 42  1  0
 18 43  1  0
 20 44  1  0
 21 45  1  0
 23 46  1  0
 26 47  1  0
 27 48  1  0
M  END
>  <smiles>  (18) 
O=C(NCC(=O)N1CCCC1c1ccc(F)cc1)c1ccc2cc(Cl)ccc2n1

>  <score_type>  (18) 
oracle

>  <origin>  (18) 
autodockgpu

>  <m_score__min__energy>  (18) 
-8.8399999999999999

>  <m_primary>  (18) 
energy

>  <rmsd>  (18) 
2.2731391134128605

>  <m_score__min__rmsd>  (18) 
2.2731391134128605

>  <meeko>  (18) 
{"free_energy": -7.82, "intermolecular_energy": -9.31, "internal_energy": -1.83, "cluster_size": 22, "cluster_id": 3, "rank_in_cluster": 7}

>  <energy>  (18) 
-7.63

>  <cluster_rmsd>  (18) 
1.03

>  <cluster>  (18) 
2

$$$$

     RDKit          3D

 48 51  0  0  0  0  0  0  0  0999 V2000
  133.9320   69.2340  226.4750 O   0  0  0  0  0  0  0  0  0  0  0  0
  134.4250   70.3300  226.0930 C   0  0  0  0  0  0  0  0  0  0  0  0
  135.6300   70.3680  225.2990 N   0  0  0  0  0  0  0  0  0  0  0  0
  136.3470   69.2030  224.8970 C   0  0  0  0  0  0  0  0  0  0  0  0
  137.6800   69.3830  224.3140 C   0  0  0  0  0  0  0  0  0  0  0  0
  138.2280   68.2540  223.9580 O   0  0  0  0  0  0  0  0  0  0  0  0
  138.4270   70.5400  224.0860 N   0  0  0  0  0  0  0  0  0  0  0  0
  138.3850   71.4990  222.9700 C   0  0  0  0  0  0  0  0  0  0  0  0
  139.7720   72.1620  222.9330 C   0  0  0  0  0  0  0  0  0  0  0  0
  140.5640   71.3830  223.9410 C   0  0  0  0  0  0  0  0  0  0  0  0
  139.4470   71.0580  224.9630 C   0  0  2  0  0  0  0  0  0  0  0  0
  139.9770   70.1550  225.9840 C   0  0  0  0  0  0  0  0  0  0  0  0
  140.4730   68.8910  225.7650 C   0  0  0  0  0  0  0  0  0  0  0  0
  140.9560   68.0980  226.7840 C   0  0  0  0  0  0  0  0  0  0  0  0
  140.9650   68.5470  228.0920 C   0  0  0  0  0  0  0  0  0  0  0  0
  141.4390   67.7720  229.0970 F   0  0  0  0  0  0  0  0  0  0  0  0
  140.4760   69.8050  228.3350 C   0  0  0  0  0  0  0  0  0  0  0  0
  139.9960   70.5880  227.3160 C   0  0  0  0  0  0  0  0  0  0  0  0
  133.7560   71.5910  226.4690 C   0  0  0  0  0  0  0  0  0  0  0  0
  132.6000   71.5610  227.1840 C   0  0  0  0  0  0  0  0  0  0  0  0
  131.9720   72.7360  227.5380 C   0  0  0  0  0  0  0  0  0  0  0  0
  132.5010   73.9530  227.1740 C   0  0  0  0  0  0  0  0  0  0  0  0
  131.8700   75.1300  227.5290 C   0  0  0  0  0  0  0  0  0  0  0  0
  132.3930   76.3570  227.1690 C   0  0  0  0  0  0  0  0  0  0  0  0
  131.5830   77.8440  227.6240 Cl  0  0  0  0  0  0  0  0  0  0  0  0
  133.5790   76.3670  226.4340 C   0  0  0  0  0  0  0  0  0  0  0  0
  134.2070   75.1770  226.0820 C   0  0  0  0  0  0  0  0  0  0  0  0
  133.6820   73.9540  226.4430 C   0  0  0  0  0  0  0  0  0  0  0  0
  134.2580   72.7880  226.1230 N   0  0  0  0  0  0  0  0  0  0  0  0
  135.9420   71.3460  225.0330 H   0  0  0  0  0  0  0  0  0  0  0  0
  136.4622   68.5664  225.7867 H   0  0  0  0  0  0  0  0  0  0  0  0
  135.7449   68.7776  224.0806 H   0  0  0  0  0  0  0  0  0  0  0  0
  138.1853   70.9760  222.0231 H   0  0  0  0  0  0  0  0  0  0  0  0
  137.5852   72.2420  223.1053 H   0  0  0  0  0  0  0  0  0  0  0  0
  140.2204   72.0784  221.9320 H   0  0  0  0  0  0  0  0  0  0  0  0
  139.7367   73.2383  223.1573 H   0  0  0  0  0  0  0  0  0  0  0  0
  140.9965   70.4707  223.5044 H   0  0  0  0  0  0  0  0  0  0  0  0
  141.4344   71.9116  224.3568 H   0  0  0  0  0  0  0  0  0  0  0  0
  139.0442   71.8794  225.5738 H   0  0  0  0  0  0  0  0  0  0  0  0
  140.4848   68.4979  224.7377 H   0  0  0  0  0  0  0  0  0  0  0  0
  141.3399   67.0933  226.5533 H   0  0  0  0  0  0  0  0  0  0  0  0
  140.4685   70.1927  229.3644 H   0  0  0  0  0  0  0  0  0  0  0  0
  139.6125   71.5913  227.5533 H   0  0  0  0  0  0  0  0  0  0  0  0
  132.1643   70.5957  227.4811 H   0  0  0  0  0  0  0  0  0  0  0  0
  131.0379   72.7003  228.1177 H   0  0  0  0  0  0  0  0  0  0  0  0
  130.9356   75.0893  228.1080 H   0  0  0  0  0  0  0  0  0  0  0  0
  134.0222   77.3266  226.1296 H   0  0  0  0  0  0  0  0  0  0  0  0
  135.1420   75.2121  225.5036 H   0  0  0  0  0  0  0  0  0  0  0  0
  1  2  2  0
  2  3  1  0
  3  4  1  0
  4  5  1  0
  5  6  2  0
  5  7  1  0
  7  8  1  0
  8  9  1  0
  9 10  1  0
 10 11  1  0
 11 12  1  0
 12 13  2  0
 13 14  1  0
 14 15  2  0
 15 16  1  0
 15 17  1  0
 17 18  2  0
  2 19  1  0
 19 20  2  0
 20 21  1  0
 21 22  2  0
 22 23  1  0
 23 24  2  0
 24 25  1  0
 24 26  1  0
 26 27  2  0
 27 28  1  0
 28 29  2  0
 11  7  1  0
 18 12  1  0
 29 19  1  0
 28 22  1  0
  3 30  1  0
  4 31  1  0
  4 32  1  0
  8 33  1  0
  8 34  1  0
  9 35  1  0
  9 36  1  0
 10 37  1  0
 10 38  1  0
 11 39  1  1
 13 40  1  0
 14 41  1  0
 17 42  1  0
 18 43  1  0
 20 44  1  0
 21 45  1  0
 23 46  1  0
 26 47  1  0
 27 48  1  0
M  END
>  <smiles>  (19) 
O=C(NCC(=O)N1CCCC1c1ccc(F)cc1)c1ccc2cc(Cl)ccc2n1

>  <score_type>  (19) 
oracle

>  <origin>  (19) 
autodockgpu

>  <m_score__min__energy>  (19) 
-8.8399999999999999

>  <m_primary>  (19) 
energy

>  <rmsd>  (19) 
7.76537699737095

>  <m_score__min__rmsd>  (19) 
7.76537699737095

>  <meeko>  (19) 
{"free_energy": -8.59, "intermolecular_energy": -10.08, "internal_energy": -1.55, "cluster_size": 9, "cluster_id": 1, "rank_in_cluster": 5}

>  <energy>  (19) 
-7.91

>  <cluster_rmsd>  (19) 
0.0

>  <cluster>  (19) 
3

$$$$

     RDKit          3D

 48 51  0  0  0  0  0  0  0  0999 V2000
  139.6040   72.0420  220.5180 O   0  0  0  0  0  0  0  0  0  0  0  0
  139.1160   72.3800  221.6310 C   0  0  0  0  0  0  0  0  0  0  0  0
  138.3210   73.5780  221.7610 N   0  0  0  0  0  0  0  0  0  0  0  0
  138.0350   74.4570  220.6750 C   0  0  0  0  0  0  0  0  0  0  0  0
  138.6550   75.7860  220.6860 C   0  0  0  0  0  0  0  0  0  0  0  0
  138.6000   76.3740  219.5220 O   0  0  0  0  0  0  0  0  0  0  0  0
  139.2700   76.4980  221.7170 N   0  0  0  0  0  0  0  0  0  0  0  0
  138.7310   77.5280  222.6200 C   0  0  0  0  0  0  0  0  0  0  0  0
  139.9410   78.3560  223.0830 C   0  0  0  0  0  0  0  0  0  0  0  0
  141.0730   77.8270  222.2510 C   0  0  0  0  0  0  0  0  0  0  0  0
  140.6430   76.3440  222.1300 C   0  0  2  0  0  0  0  0  0  0  0  0
  141.5470   75.6540  221.2120 C   0  0  0  0  0  0  0  0  0  0  0  0
  141.8200   74.3060  221.2080 C   0  0  0  0  0  0  0  0  0  0  0  0
  142.6890   73.7280  220.3070 C   0  0  0  0  0  0  0  0  0  0  0  0
  143.3340   74.4910  219.3510 C   0  0  0  0  0  0  0  0  0  0  0  0
  144.1880   73.9290  218.4630 F   0  0  0  0  0  0  0  0  0  0  0  0
  143.0770   75.8390  219.3350 C   0  0  0  0  0  0  0  0  0  0  0  0
  142.2110   76.4060  220.2360 C   0  0  0  0  0  0  0  0  0  0  0  0
  139.3670   71.5360  222.8140 C   0  0  0  0  0  0  0  0  0  0  0  0
  138.9770   70.2340  222.8160 C   0  0  0  0  0  0  0  0  0  0  0  0
  139.2090   69.4410  223.9200 C   0  0  0  0  0  0  0  0  0  0  0  0
  139.8360   69.9520  225.0330 C   0  0  0  0  0  0  0  0  0  0  0  0
  140.0680   69.1560  226.1390 C   0  0  0  0  0  0  0  0  0  0  0  0
  140.6970   69.6600  227.2610 C   0  0  0  0  0  0  0  0  0  0  0  0
  140.9860   68.6410  228.6580 Cl  0  0  0  0  0  0  0  0  0  0  0  0
  141.0900   70.9980  227.2400 C   0  0  0  0  0  0  0  0  0  0  0  0
  140.8520   71.7910  226.1220 C   0  0  0  0  0  0  0  0  0  0  0  0
  140.2240   71.2850  225.0040 C   0  0  0  0  0  0  0  0  0  0  0  0
  139.9780   72.0170  223.9100 N   0  0  0  0  0  0  0  0  0  0  0  0
  137.9610   73.7530  222.7430 H   0  0  0  0  0  0  0  0  0  0  0  0
  138.3573   73.9529  219.7520 H   0  0  0  0  0  0  0  0  0  0  0  0
  136.9562   74.6553  220.7575 H   0  0  0  0  0  0  0  0  0  0  0  0
  138.0118   78.1666  222.0863 H   0  0  0  0  0  0  0  0  0  0  0  0
  138.1979   77.0802  223.4716 H   0  0  0  0  0  0  0  0  0  0  0  0
  139.7801   79.4271  222.8909 H   0  0  0  0  0  0  0  0  0  0  0  0
  140.1289   78.2692  224.1633 H   0  0  0  0  0  0  0  0  0  0  0  0
  141.1233   78.3195  221.2687 H   0  0  0  0  0  0  0  0  0  0  0  0
  142.0754   77.9870  222.6748 H   0  0  0  0  0  0  0  0  0  0  0  0
  140.7030   75.7093  223.0264 H   0  0  0  0  0  0  0  0  0  0  0  0
  141.3260   73.6642  221.9524 H   0  0  0  0  0  0  0  0  0  0  0  0
  142.8719   72.6441  220.3493 H   0  0  0  0  0  0  0  0  0  0  0  0
  143.5733   76.4755  218.5877 H   0  0  0  0  0  0  0  0  0  0  0  0
  142.0323   77.4904  220.1895 H   0  0  0  0  0  0  0  0  0  0  0  0
  138.4744   69.8112  221.9336 H   0  0  0  0  0  0  0  0  0  0  0  0
  138.8893   68.3885  223.9107 H   0  0  0  0  0  0  0  0  0  0  0  0
  139.7465   68.1041  226.1256 H   0  0  0  0  0  0  0  0  0  0  0  0
  141.5936   71.4310  228.1169 H   0  0  0  0  0  0  0  0  0  0  0  0
  141.1716   72.8435  226.1303 H   0  0  0  0  0  0  0  0  0  0  0  0
  1  2  2  0
  2  3  1  0
  3  4  1  0
  4  5  1  0
  5  6  2  0
  5  7  1  0
  7  8  1  0
  8  9  1  0
  9 10  1  0
 10 11  1  0
 11 12  1  0
 12 13  2  0
 13 14  1  0
 14 15  2  0
 15 16  1  0
 15 17  1  0
 17 18  2  0
  2 19  1  0
 19 20  2  0
 20 21  1  0
 21 22  2  0
 22 23  1  0
 23 24  2  0
 24 25  1  0
 24 26  1  0
 26 27  2  0
 27 28  1  0
 28 29  2  0
 11  7  1  0
 18 12  1  0
 29 19  1  0
 28 22  1  0
  3 30  1  0
  4 31  1  0
  4 32  1  0
  8 33  1  0
  8 34  1  0
  9 35  1  0
  9 36  1  0
 10 37  1  0
 10 38  1  0
 11 39  1  1
 13 40  1  0
 14 41  1  0
 17 42  1  0
 18 43  1  0
 20 44  1  0
 21 45  1  0
 23 46  1  0
 26 47  1  0
 27 48  1  0
M  END
>  <smiles>  (20) 
O=C(NCC(=O)N1CCCC1c1ccc(F)cc1)c1ccc2cc(Cl)ccc2n1

>  <score_type>  (20) 
oracle

>  <origin>  (20) 
autodockgpu

>  <m_score__min__energy>  (20) 
-8.8399999999999999

>  <m_primary>  (20) 
energy

>  <rmsd>  (20) 
2.775129825381155

>  <m_score__min__rmsd>  (20) 
2.775129825381155

>  <meeko>  (20) 
{"free_energy": -7.39, "intermolecular_energy": -8.89, "internal_energy": -1.84, "cluster_size": 22, "cluster_id": 3, "rank_in_cluster": 20}

>  <energy>  (20) 
-7.9

>  <cluster_rmsd>  (20) 
0.21

>  <cluster>  (20) 
3

$$$$

     RDKit          3D

 48 51  0  0  0  0  0  0  0  0999 V2000
  140.3660   72.3200  220.6450 O   0  0  0  0  0  0  0  0  0  0  0  0
  140.1380   72.7640  221.8030 C   0  0  0  0  0  0  0  0  0  0  0  0
  139.9140   74.1730  222.0280 N   0  0  0  0  0  0  0  0  0  0  0  0
  139.9400   75.1510  220.9910 C   0  0  0  0  0  0  0  0  0  0  0  0
  140.9170   76.2400  221.0980 C   0  0  0  0  0  0  0  0  0  0  0  0
  141.0890   76.6390  222.3280 O   0  0  0  0  0  0  0  0  0  0  0  0
  141.6700   76.8890  220.1190 N   0  0  0  0  0  0  0  0  0  0  0  0
  141.4340   78.1650  219.4230 C   0  0  0  0  0  0  0  0  0  0  0  0
  142.1940   78.0630  218.0900 C   0  0  0  0  0  0  0  0  0  0  0  0
  142.6670   76.6400  218.0580 C   0  0  0  0  0  0  0  0  0  0  0  0
  142.9130   76.4080  219.5700 C   0  0  2  0  0  0  0  0  0  0  0  0
  143.2470   75.0020  219.7930 C   0  0  0  0  0  0  0  0  0  0  0  0
  144.1950   74.5260  220.6690 C   0  0  0  0  0  0  0  0  0  0  0  0
  144.4520   73.1800  220.8230 C   0  0  0  0  0  0  0  0  0  0  0  0
  143.7570   72.2350  220.0920 C   0  0  0  0  0  0  0  0  0  0  0  0
  144.0050   70.9120  220.2390 F   0  0  0  0  0  0  0  0  0  0  0  0
  142.8050   72.6860  219.2120 C   0  0  0  0  0  0  0  0  0  0  0  0
  142.5550   74.0270  219.0640 C   0  0  0  0  0  0  0  0  0  0  0  0
  140.1020   71.8270  222.9420 C   0  0  0  0  0  0  0  0  0  0  0  0
  139.5710   70.5850  222.7830 C   0  0  0  0  0  0  0  0  0  0  0  0
  139.5350   69.7050  223.8440 C   0  0  0  0  0  0  0  0  0  0  0  0
  140.0310   70.0670  225.0750 C   0  0  0  0  0  0  0  0  0  0  0  0
  139.9940   69.1850  226.1380 C   0  0  0  0  0  0  0  0  0  0  0  0
  140.4900   69.5390  227.3770 C   0  0  0  0  0  0  0  0  0  0  0  0
  140.4370   68.4110  228.7180 Cl  0  0  0  0  0  0  0  0  0  0  0  0
  141.0290   70.8180  227.5200 C   0  0  0  0  0  0  0  0  0  0  0  0
  141.0620   71.6990  226.4450 C   0  0  0  0  0  0  0  0  0  0  0  0
  140.5670   71.3420  225.2090 C   0  0  0  0  0  0  0  0  0  0  0  0
  140.5810   72.1630  224.1510 N   0  0  0  0  0  0  0  0  0  0  0  0
  139.7260   74.4240  223.0410 H   0  0  0  0  0  0  0  0  0  0  0  0
  140.1408   74.6225  220.0474 H   0  0  0  0  0  0  0  0  0  0  0  0
  138.9622   75.6504  221.0587 H   0  0  0  0  0  0  0  0  0  0  0  0
  140.3588   78.3086  219.2407 H   0  0  0  0  0  0  0  0  0  0  0  0
  141.7789   79.0216  220.0207 H   0  0  0  0  0  0  0  0  0  0  0  0
  141.5269   78.2738  217.2411 H   0  0  0  0  0  0  0  0  0  0  0  0
  143.0178   78.7878  218.0126 H   0  0  0  0  0  0  0  0  0  0  0  0
  141.8973   75.9622  217.6603 H   0  0  0  0  0  0  0  0  0  0  0  0
  143.5375   76.4542  217.4117 H   0  0  0  0  0  0  0  0  0  0  0  0
  143.7628   76.9206  220.0444 H   0  0  0  0  0  0  0  0  0  0  0  0
  144.7698   75.2465  221.2694 H   0  0  0  0  0  0  0  0  0  0  0  0
  145.2214   72.8536  221.5381 H   0  0  0  0  0  0  0  0  0  0  0  0
  142.2329   71.9602  218.6154 H   0  0  0  0  0  0  0  0  0  0  0  0
  141.7841   74.3473  218.3477 H   0  0  0  0  0  0  0  0  0  0  0  0
  139.1690   70.2816  221.8051 H   0  0  0  0  0  0  0  0  0  0  0  0
  139.1048   68.7023  223.7045 H   0  0  0  0  0  0  0  0  0  0  0  0
  139.5620   68.1836  225.9947 H   0  0  0  0  0  0  0  0  0  0  0  0
  141.4322   71.1327  228.4939 H   0  0  0  0  0  0  0  0  0  0  0  0
  141.4921   72.7019  226.5837 H   0  0  0  0  0  0  0  0  0  0  0  0
  1  2  2  0
  2  3  1  0
  3  4  1  0
  4  5  1  0
  5  6  2  0
  5  7  1  0
  7  8  1  0
  8  9  1  0
  9 10  1  0
 10 11  1  0
 11 12  1  0
 12 13  2  0
 13 14  1  0
 14 15  2  0
 15 16  1  0
 15 17  1  0
 17 18  2  0
  2 19  1  0
 19 20  2  0
 20 21  1  0
 21 22  2  0
 22 23  1  0
 23 24  2  0
 24 25  1  0
 24 26  1  0
 26 27  2  0
 27 28  1  0
 28 29  2  0
 11  7  1  0
 18 12  1  0
 29 19  1  0
 28 22  1  0
  3 30  1  0
  4 31  1  0
  4 32  1  0
  8 33  1  0
  8 34  1  0
  9 35  1  0
  9 36  1  0
 10 37  1  0
 10 38  1  0
 11 39  1  1
 13 40  1  0
 14 41  1  0
 17 42  1  0
 18 43  1  0
 20 44  1  0
 21 45  1  0
 23 46  1  0
 26 47  1  0
 27 48  1  0
M  END
>  <smiles>  (21) 
O=C(NCC(=O)N1CCCC1c1ccc(F)cc1)c1ccc2cc(Cl)ccc2n1

>  <score_type>  (21) 
oracle

>  <origin>  (21) 
autodockgpu

>  <m_score__min__energy>  (21) 
-8.8399999999999999

>  <m_primary>  (21) 
energy

>  <rmsd>  (21) 
2.2496229333339675

>  <m_score__min__rmsd>  (21) 
2.2496229333339675

>  <meeko>  (21) 
{"free_energy": -7.72, "intermolecular_energy": -9.21, "internal_energy": -2.01, "cluster_size": 22, "cluster_id": 3, "rank_in_cluster": 10}

>  <energy>  (21) 
-7.9

>  <cluster_rmsd>  (21) 
0.1

>  <cluster>  (21) 
3

$$$$

     RDKit          3D

 48 51  0  0  0  0  0  0  0  0999 V2000
  133.9500   69.2720  226.4480 O   0  0  0  0  0  0  0  0  0  0  0  0
  134.4130   70.3700  226.0350 C   0  0  0  0  0  0  0  0  0  0  0  0
  135.5730   70.4120  225.1770 N   0  0  0  0  0  0  0  0  0  0  0  0
  136.2760   69.2500  224.7420 C   0  0  0  0  0  0  0  0  0  0  0  0
  137.6760   69.4060  224.3350 C   0  0  0  0  0  0  0  0  0  0  0  0
  138.2810   68.2610  224.1740 O   0  0  0  0  0  0  0  0  0  0  0  0
  138.4340   70.5530  224.0960 N   0  0  0  0  0  0  0  0  0  0  0  0
  138.3970   71.5060  222.9740 C   0  0  0  0  0  0  0  0  0  0  0  0
  139.7910   72.1530  222.9260 C   0  0  0  0  0  0  0  0  0  0  0  0
  140.5800   71.3720  223.9360 C   0  0  0  0  0  0  0  0  0  0  0  0
  139.4640   71.0650  224.9650 C   0  0  2  0  0  0  0  0  0  0  0  0
  139.9890   70.1640  225.9900 C   0  0  0  0  0  0  0  0  0  0  0  0
  140.5300   68.9190  225.7680 C   0  0  0  0  0  0  0  0  0  0  0  0
  141.0050   68.1250  226.7910 C   0  0  0  0  0  0  0  0  0  0  0  0
  140.9580   68.5540  228.1040 C   0  0  0  0  0  0  0  0  0  0  0  0
  141.4230   67.7790  229.1130 F   0  0  0  0  0  0  0  0  0  0  0  0
  140.4230   69.7930  228.3490 C   0  0  0  0  0  0  0  0  0  0  0  0
  139.9520   70.5770  227.3270 C   0  0  0  0  0  0  0  0  0  0  0  0
  133.7570   71.6280  226.4410 C   0  0  0  0  0  0  0  0  0  0  0  0
  132.6230   71.5930  227.1900 C   0  0  0  0  0  0  0  0  0  0  0  0
  132.0060   72.7650  227.5720 C   0  0  0  0  0  0  0  0  0  0  0  0
  132.5240   73.9850  227.2010 C   0  0  0  0  0  0  0  0  0  0  0  0
  131.9050   75.1590  227.5850 C   0  0  0  0  0  0  0  0  0  0  0  0
  132.4180   76.3890  227.2190 C   0  0  0  0  0  0  0  0  0  0  0  0
  131.6230   77.8720  227.7100 Cl  0  0  0  0  0  0  0  0  0  0  0  0
  133.5820   76.4040  226.4500 C   0  0  0  0  0  0  0  0  0  0  0  0
  134.1980   75.2170  226.0690 C   0  0  0  0  0  0  0  0  0  0  0  0
  133.6830   73.9910  226.4370 C   0  0  0  0  0  0  0  0  0  0  0  0
  134.2490   72.8280  226.0900 N   0  0  0  0  0  0  0  0  0  0  0  0
  135.8640   71.3910  224.8910 H   0  0  0  0  0  0  0  0  0  0  0  0
  136.2544   68.5255  225.5694 H   0  0  0  0  0  0  0  0  0  0  0  0
  135.7552   68.9408  223.8238 H   0  0  0  0  0  0  0  0  0  0  0  0
  138.1866   70.9795  222.0313 H   0  0  0  0  0  0  0  0  0  0  0  0
  137.6063   72.2587  223.1088 H   0  0  0  0  0  0  0  0  0  0  0  0
  140.2335   72.0576  221.9235 H   0  0  0  0  0  0  0  0  0  0  0  0
  139.7686   73.2311  223.1433 H   0  0  0  0  0  0  0  0  0  0  0  0
  141.0013   70.4526  223.5034 H   0  0  0  0  0  0  0  0  0  0  0  0
  141.4577   71.8943  224.3445 H   0  0  0  0  0  0  0  0  0  0  0  0
  139.0723   71.8943  225.5723 H   0  0  0  0  0  0  0  0  0  0  0  0
  140.5859   68.5424  224.7360 H   0  0  0  0  0  0  0  0  0  0  0  0
  141.4273   67.1362  226.5585 H   0  0  0  0  0  0  0  0  0  0  0  0
  140.3708   70.1643  229.3831 H   0  0  0  0  0  0  0  0  0  0  0  0
  139.5306   71.5645  227.5662 H   0  0  0  0  0  0  0  0  0  0  0  0
  132.1960   70.6254  227.4925 H   0  0  0  0  0  0  0  0  0  0  0  0
  131.0900   72.7248  228.1797 H   0  0  0  0  0  0  0  0  0  0  0  0
  130.9888   75.1140  228.1921 H   0  0  0  0  0  0  0  0  0  0  0  0
  134.0175   77.3659  226.1415 H   0  0  0  0  0  0  0  0  0  0  0  0
  135.1145   75.2562  225.4619 H   0  0  0  0  0  0  0  0  0  0  0  0
  1  2  2  0
  2  3  1  0
  3  4  1  0
  4  5  1  0
  5  6  2  0
  5  7  1  0
  7  8  1  0
  8  9  1  0
  9 10  1  0
 10 11  1  0
 11 12  1  0
 12 13  2  0
 13 14  1  0
 14 15  2  0
 15 16  1  0
 15 17  1  0
 17 18  2  0
  2 19  1  0
 19 20  2  0
 20 21  1  0
 21 22  2  0
 22 23  1  0
 23 24  2  0
 24 25  1  0
 24 26  1  0
 26 27  2  0
 27 28  1  0
 28 29  2  0
 11  7  1  0
 18 12  1  0
 29 19  1  0
 28 22  1  0
  3 30  1  0
  4 31  1  0
  4 32  1  0
  8 33  1  0
  8 34  1  0
  9 35  1  0
  9 36  1  0
 10 37  1  0
 10 38  1  0
 11 39  1  1
 13 40  1  0
 14 41  1  0
 17 42  1  0
 18 43  1  0
 20 44  1  0
 21 45  1  0
 23 46  1  0
 26 47  1  0
 27 48  1  0
M  END
>  <smiles>  (22) 
O=C(NCC(=O)N1CCCC1c1ccc(F)cc1)c1ccc2cc(Cl)ccc2n1

>  <score_type>  (22) 
oracle

>  <origin>  (22) 
autodockgpu

>  <m_score__min__energy>  (22) 
-8.8399999999999999

>  <m_primary>  (22) 
energy

>  <rmsd>  (22) 
7.7546223776760455

>  <m_score__min__rmsd>  (22) 
7.7546223776760455

>  <meeko>  (22) 
{"free_energy": -8.71, "intermolecular_energy": -10.2, "internal_energy": -1.51, "cluster_size": 9, "cluster_id": 1, "rank_in_cluster": 2}

>  <energy>  (22) 
-7.9

>  <cluster_rmsd>  (22) 
0.1

>  <cluster>  (22) 
3

$$$$

     RDKit          3D

 48 51  0  0  0  0  0  0  0  0999 V2000
  133.9290   69.5410  226.5410 O   0  0  0  0  0  0  0  0  0  0  0  0
  134.3280   70.6300  226.0440 C   0  0  0  0  0  0  0  0  0  0  0  0
  135.4170   70.6610  225.0970 N   0  0  0  0  0  0  0  0  0  0  0  0
  136.1190   69.4980  224.6630 C   0  0  0  0  0  0  0  0  0  0  0  0
  137.5820   69.5630  224.5990 C   0  0  0  0  0  0  0  0  0  0  0  0
  138.1480   68.4380  224.9430 O   0  0  0  0  0  0  0  0  0  0  0  0
  138.4340   70.6050  224.2340 N   0  0  0  0  0  0  0  0  0  0  0  0
  138.4040   71.4990  223.0640 C   0  0  0  0  0  0  0  0  0  0  0  0
  139.8500   71.9850  222.8700 C   0  0  0  0  0  0  0  0  0  0  0  0
  140.6340   71.1750  223.8600 C   0  0  0  0  0  0  0  0  0  0  0  0
  139.5810   71.0450  224.9890 C   0  0  2  0  0  0  0  0  0  0  0  0
  140.0920   70.1440  226.0210 C   0  0  0  0  0  0  0  0  0  0  0  0
  140.7300   68.9450  225.8030 C   0  0  0  0  0  0  0  0  0  0  0  0
  141.1840   68.1490  226.8330 C   0  0  0  0  0  0  0  0  0  0  0  0
  141.0150   68.5280  228.1520 C   0  0  0  0  0  0  0  0  0  0  0  0
  141.4590   67.7490  229.1670 F   0  0  0  0  0  0  0  0  0  0  0  0
  140.3820   69.7200  228.3940 C   0  0  0  0  0  0  0  0  0  0  0  0
  139.9320   70.5070  227.3640 C   0  0  0  0  0  0  0  0  0  0  0  0
  133.6680   71.8880  226.4420 C   0  0  0  0  0  0  0  0  0  0  0  0
  132.5060   71.8530  227.1490 C   0  0  0  0  0  0  0  0  0  0  0  0
  131.8860   73.0260  227.5230 C   0  0  0  0  0  0  0  0  0  0  0  0
  132.4280   74.2460  227.1890 C   0  0  0  0  0  0  0  0  0  0  0  0
  131.8060   75.4210  227.5650 C   0  0  0  0  0  0  0  0  0  0  0  0
  132.3420   76.6500  227.2350 C   0  0  0  0  0  0  0  0  0  0  0  0
  131.5420   78.1340  227.7160 Cl  0  0  0  0  0  0  0  0  0  0  0  0
  133.5330   76.6650  226.5090 C   0  0  0  0  0  0  0  0  0  0  0  0
  134.1530   75.4770  226.1360 C   0  0  0  0  0  0  0  0  0  0  0  0
  133.6150   74.2520  226.4670 C   0  0  0  0  0  0  0  0  0  0  0  0
  134.1820   73.0880  226.1260 N   0  0  0  0  0  0  0  0  0  0  0  0
  135.6560   71.6330  224.7460 H   0  0  0  0  0  0  0  0  0  0  0  0
  135.8574   68.6815  225.3521 H   0  0  0  0  0  0  0  0  0  0  0  0
  135.8035   69.3596  223.6184 H   0  0  0  0  0  0  0  0  0  0  0  0
  138.0610   70.9524  222.1732 H   0  0  0  0  0  0  0  0  0  0  0  0
  137.7114   72.3401  223.2151 H   0  0  0  0  0  0  0  0  0  0  0  0
  140.1947   71.7905  221.8437 H   0  0  0  0  0  0  0  0  0  0  0  0
  139.9595   73.0686  223.0242 H   0  0  0  0  0  0  0  0  0  0  0  0
  140.9188   70.1941  223.4516 H   0  0  0  0  0  0  0  0  0  0  0  0
  141.5928   71.6179  224.1674 H   0  0  0  0  0  0  0  0  0  0  0  0
  139.3307   71.9420  225.5744 H   0  0  0  0  0  0  0  0  0  0  0  0
  140.8838   68.6084  224.7671 H   0  0  0  0  0  0  0  0  0  0  0  0
  141.6879   67.1988  226.6022 H   0  0  0  0  0  0  0  0  0  0  0  0
  140.2323   70.0512  229.4322 H   0  0  0  0  0  0  0  0  0  0  0  0
  139.4283   71.4556  227.6014 H   0  0  0  0  0  0  0  0  0  0  0  0
  132.0599   70.8856  227.4230 H   0  0  0  0  0  0  0  0  0  0  0  0
  130.9472   72.9864  228.0950 H   0  0  0  0  0  0  0  0  0  0  0  0
  130.8676   75.3767  228.1372 H   0  0  0  0  0  0  0  0  0  0  0  0
  133.9869   77.6269  226.2284 H   0  0  0  0  0  0  0  0  0  0  0  0
  135.0923   75.5160  225.5649 H   0  0  0  0  0  0  0  0  0  0  0  0
  1  2  2  0
  2  3  1  0
  3  4  1  0
  4  5  1  0
  5  6  2  0
  5  7  1  0
  7  8  1  0
  8  9  1  0
  9 10  1  0
 10 11  1  0
 11 12  1  0
 12 13  2  0
 13 14  1  0
 14 15  2  0
 15 16  1  0
 15 17  1  0
 17 18  2  0
  2 19  1  0
 19 20  2  0
 20 21  1  0
 21 22  2  0
 22 23  1  0
 23 24  2  0
 24 25  1  0
 24 26  1  0
 26 27  2  0
 27 28  1  0
 28 29  2  0
 11  7  1  0
 18 12  1  0
 29 19  1  0
 28 22  1  0
  3 30  1  0
  4 31  1  0
  4 32  1  0
  8 33  1  0
  8 34  1  0
  9 35  1  0
  9 36  1  0
 10 37  1  0
 10 38  1  0
 11 39  1  1
 13 40  1  0
 14 41  1  0
 17 42  1  0
 18 43  1  0
 20 44  1  0
 21 45  1  0
 23 46  1  0
 26 47  1  0
 27 48  1  0
M  END
>  <smiles>  (23) 
O=C(NCC(=O)N1CCCC1c1ccc(F)cc1)c1ccc2cc(Cl)ccc2n1

>  <score_type>  (23) 
oracle

>  <origin>  (23) 
autodockgpu

>  <m_score__min__energy>  (23) 
-8.8399999999999999

>  <m_primary>  (23) 
energy

>  <rmsd>  (23) 
7.8503686581505

>  <m_score__min__rmsd>  (23) 
7.8503686581505

>  <meeko>  (23) 
{"free_energy": -8.84, "intermolecular_energy": -10.33, "internal_energy": -1.39, "cluster_size": 9, "cluster_id": 1, "rank_in_cluster": 1}

>  <energy>  (23) 
-7.89

>  <cluster_rmsd>  (23) 
0.28

>  <cluster>  (23) 
3

$$$$

     RDKit          3D

 48 51  0  0  0  0  0  0  0  0999 V2000
  139.2240   72.6050  220.7580 O   0  0  0  0  0  0  0  0  0  0  0  0
  139.9620   72.8480  221.7520 C   0  0  0  0  0  0  0  0  0  0  0  0
  140.7970   74.0250  221.7870 N   0  0  0  0  0  0  0  0  0  0  0  0
  140.8610   74.9790  220.7300 C   0  0  0  0  0  0  0  0  0  0  0  0
  140.0840   76.2140  220.8710 C   0  0  0  0  0  0  0  0  0  0  0  0
  140.5970   77.2080  220.1990 O   0  0  0  0  0  0  0  0  0  0  0  0
  138.9150   76.4800  221.5850 N   0  0  0  0  0  0  0  0  0  0  0  0
  137.5500   75.9540  221.4140 C   0  0  0  0  0  0  0  0  0  0  0  0
  136.6130   77.0100  222.0210 C   0  0  0  0  0  0  0  0  0  0  0  0
  137.5280   78.1570  222.3390 C   0  0  0  0  0  0  0  0  0  0  0  0
  138.8130   77.3750  222.7100 C   0  0  2  0  0  0  0  0  0  0  0  0
  139.9090   78.3220  222.9170 C   0  0  0  0  0  0  0  0  0  0  0  0
  141.2290   77.9960  223.1220 C   0  0  0  0  0  0  0  0  0  0  0  0
  142.2070   78.9490  223.3100 C   0  0  0  0  0  0  0  0  0  0  0  0
  141.8970   80.2970  223.3010 C   0  0  0  0  0  0  0  0  0  0  0  0
  142.8540   81.2380  223.4850 F   0  0  0  0  0  0  0  0  0  0  0  0
  140.5870   80.6460  223.0970 C   0  0  0  0  0  0  0  0  0  0  0  0
  139.6190   79.6920  222.9110 C   0  0  0  0  0  0  0  0  0  0  0  0
  139.9690   71.9100  222.8910 C   0  0  0  0  0  0  0  0  0  0  0  0
  139.4320   70.6680  222.7530 C   0  0  0  0  0  0  0  0  0  0  0  0
  139.4370   69.7890  223.8150 C   0  0  0  0  0  0  0  0  0  0  0  0
  139.9790   70.1520  225.0260 C   0  0  0  0  0  0  0  0  0  0  0  0
  139.9830   69.2690  226.0900 C   0  0  0  0  0  0  0  0  0  0  0  0
  140.5270   69.6240  227.3090 C   0  0  0  0  0  0  0  0  0  0  0  0
  140.5240   68.4960  228.6510 Cl  0  0  0  0  0  0  0  0  0  0  0  0
  141.0710   70.9020  227.4310 C   0  0  0  0  0  0  0  0  0  0  0  0
  141.0630   71.7830  226.3550 C   0  0  0  0  0  0  0  0  0  0  0  0
  140.5200   71.4260  225.1390 C   0  0  0  0  0  0  0  0  0  0  0  0
  140.4950   72.2460  224.0810 N   0  0  0  0  0  0  0  0  0  0  0  0
  141.3650   74.1240  222.6770 H   0  0  0  0  0  0  0  0  0  0  0  0
  141.9160   75.2676  220.6130 H   0  0  0  0  0  0  0  0  0  0  0  0
  140.4085   74.4660  219.8685 H   0  0  0  0  0  0  0  0  0  0  0  0
  137.3257   75.8116  220.3466 H   0  0  0  0  0  0  0  0  0  0  0  0
  137.4292   74.9769  221.9045 H   0  0  0  0  0  0  0  0  0  0  0  0
  135.8418   77.3125  221.2973 H   0  0  0  0  0  0  0  0  0  0  0  0
  136.0695   76.6410  222.9033 H   0  0  0  0  0  0  0  0  0  0  0  0
  137.6838   78.8097  221.4674 H   0  0  0  0  0  0  0  0  0  0  0  0
  137.1606   78.8433  223.1162 H   0  0  0  0  0  0  0  0  0  0  0  0
  138.8233   76.8061  223.6514 H   0  0  0  0  0  0  0  0  0  0  0  0
  141.5155   76.9341  223.1365 H   0  0  0  0  0  0  0  0  0  0  0  0
  143.2485   78.6331  223.4694 H   0  0  0  0  0  0  0  0  0  0  0  0
  140.3072   81.7097  223.0822 H   0  0  0  0  0  0  0  0  0  0  0  0
  138.5794   80.0142  222.7517 H   0  0  0  0  0  0  0  0  0  0  0  0
  138.9926   70.3641  221.7915 H   0  0  0  0  0  0  0  0  0  0  0  0
  139.0026   68.7859  223.6926 H   0  0  0  0  0  0  0  0  0  0  0  0
  139.5459   68.2675  225.9636 H   0  0  0  0  0  0  0  0  0  0  0  0
  141.5112   71.2168  228.3887 H   0  0  0  0  0  0  0  0  0  0  0  0
  141.4990   72.7856  226.4766 H   0  0  0  0  0  0  0  0  0  0  0  0
  1  2  2  0
  2  3  1  0
  3  4  1  0
  4  5  1  0
  5  6  2  0
  5  7  1  0
  7  8  1  0
  8  9  1  0
  9 10  1  0
 10 11  1  0
 11 12  1  0
 12 13  2  0
 13 14  1  0
 14 15  2  0
 15 16  1  0
 15 17  1  0
 17 18  2  0
  2 19  1  0
 19 20  2  0
 20 21  1  0
 21 22  2  0
 22 23  1  0
 23 24  2  0
 24 25  1  0
 24 26  1  0
 26 27  2  0
 27 28  1  0
 28 29  2  0
 11  7  1  0
 18 12  1  0
 29 19  1  0
 28 22  1  0
  3 30  1  0
  4 31  1  0
  4 32  1  0
  8 33  1  0
  8 34  1  0
  9 35  1  0
  9 36  1  0
 10 37  1  0
 10 38  1  0
 11 39  1  1
 13 40  1  0
 14 41  1  0
 17 42  1  0
 18 43  1  0
 20 44  1  0
 21 45  1  0
 23 46  1  0
 26 47  1  0
 27 48  1  0
M  END
>  <smiles>  (24) 
O=C(NCC(=O)N1CCCC1c1ccc(F)cc1)c1ccc2cc(Cl)ccc2n1

>  <score_type>  (24) 
oracle

>  <origin>  (24) 
autodockgpu

>  <m_score__min__energy>  (24) 
-8.8399999999999999

>  <m_primary>  (24) 
energy

>  <rmsd>  (24) 
3.0534608696235717

>  <m_score__min__rmsd>  (24) 
3.0534608696235717

>  <meeko>  (24) 
{"free_energy": -7.7, "intermolecular_energy": -9.2, "internal_energy": -1.6, "cluster_size": 9, "cluster_id": 2, "rank_in_cluster": 7}

>  <energy>  (24) 
-7.88

>  <cluster_rmsd>  (24) 
0.11

>  <cluster>  (24) 
3

$$$$

     RDKit          3D

 48 51  0  0  0  0  0  0  0  0999 V2000
  139.8310   72.4460  220.3450 O   0  0  0  0  0  0  0  0  0  0  0  0
  139.9260   72.8900  221.5210 C   0  0  0  0  0  0  0  0  0  0  0  0
  140.0200   74.3080  221.7750 N   0  0  0  0  0  0  0  0  0  0  0  0
  140.0210   75.2960  220.7470 C   0  0  0  0  0  0  0  0  0  0  0  0
  141.0210   76.3660  220.8230 C   0  0  0  0  0  0  0  0  0  0  0  0
  141.1040   76.8880  222.0160 O   0  0  0  0  0  0  0  0  0  0  0  0
  141.8720   76.8910  219.8500 N   0  0  0  0  0  0  0  0  0  0  0  0
  141.7780   78.1360  219.0700 C   0  0  0  0  0  0  0  0  0  0  0  0
  142.5890   77.8910  217.7870 C   0  0  0  0  0  0  0  0  0  0  0  0
  142.9410   76.4350  217.8620 C   0  0  0  0  0  0  0  0  0  0  0  0
  143.0950   76.2770  219.3950 C   0  0  2  0  0  0  0  0  0  0  0  0
  143.2970   74.8640  219.7160 C   0  0  0  0  0  0  0  0  0  0  0  0
  142.4990   73.8220  219.3060 C   0  0  0  0  0  0  0  0  0  0  0  0
  142.7570   72.5120  219.6520 C   0  0  0  0  0  0  0  0  0  0  0  0
  143.8470   72.1850  220.4370 C   0  0  0  0  0  0  0  0  0  0  0  0
  144.1050   70.9000  220.7790 F   0  0  0  0  0  0  0  0  0  0  0  0
  144.6570   73.2080  220.8570 C   0  0  0  0  0  0  0  0  0  0  0  0
  144.3940   74.5090  220.5090 C   0  0  0  0  0  0  0  0  0  0  0  0
  139.9420   71.9420  222.6510 C   0  0  0  0  0  0  0  0  0  0  0  0
  139.4340   70.6900  222.4960 C   0  0  0  0  0  0  0  0  0  0  0  0
  139.4480   69.8000  223.5490 C   0  0  0  0  0  0  0  0  0  0  0  0
  139.9700   70.1620  224.7690 C   0  0  0  0  0  0  0  0  0  0  0  0
  139.9830   69.2690  225.8240 C   0  0  0  0  0  0  0  0  0  0  0  0
  140.5070   69.6230  227.0520 C   0  0  0  0  0  0  0  0  0  0  0  0
  140.5160   68.4820  228.3830 Cl  0  0  0  0  0  0  0  0  0  0  0  0
  141.0220   70.9120  227.1910 C   0  0  0  0  0  0  0  0  0  0  0  0
  141.0050   71.8040  226.1240 C   0  0  0  0  0  0  0  0  0  0  0  0
  140.4820   71.4470  224.8990 C   0  0  0  0  0  0  0  0  0  0  0  0
  140.4490   72.2770  223.8500 N   0  0  0  0  0  0  0  0  0  0  0  0
  140.0880   74.5600  222.8030 H   0  0  0  0  0  0  0  0  0  0  0  0
  140.1727   74.7735  219.7910 H   0  0  0  0  0  0  0  0  0  0  0  0
  139.0563   75.8122  220.8604 H   0  0  0  0  0  0  0  0  0  0  0  0
  140.7286   78.3549  218.8235 H   0  0  0  0  0  0  0  0  0  0  0  0
  142.1653   78.9969  219.6347 H   0  0  0  0  0  0  0  0  0  0  0  0
  141.9833   78.1027  216.8935 H   0  0  0  0  0  0  0  0  0  0  0  0
  143.4737   78.5403  217.7112 H   0  0  0  0  0  0  0  0  0  0  0  0
  142.1363   75.7990  217.4644 H   0  0  0  0  0  0  0  0  0  0  0  0
  143.8224   76.1395  217.2739 H   0  0  0  0  0  0  0  0  0  0  0  0
  143.9623   76.7464  219.8824 H   0  0  0  0  0  0  0  0  0  0  0  0
  141.6223   74.0413  218.6788 H   0  0  0  0  0  0  0  0  0  0  0  0
  142.0856   71.7157  219.2981 H   0  0  0  0  0  0  0  0  0  0  0  0
  145.5325   72.9822  221.4835 H   0  0  0  0  0  0  0  0  0  0  0  0
  145.0692   75.3007  220.8659 H   0  0  0  0  0  0  0  0  0  0  0  0
  139.0105   70.3864  221.5273 H   0  0  0  0  0  0  0  0  0  0  0  0
  139.0370   68.7889  223.4118 H   0  0  0  0  0  0  0  0  0  0  0  0
  139.5691   68.2596  225.6833 H   0  0  0  0  0  0  0  0  0  0  0  0
  141.4465   71.2266  228.1558 H   0  0  0  0  0  0  0  0  0  0  0  0
  141.4171   72.8148  226.2600 H   0  0  0  0  0  0  0  0  0  0  0  0
  1  2  2  0
  2  3  1  0
  3  4  1  0
  4  5  1  0
  5  6  2  0
  5  7  1  0
  7  8  1  0
  8  9  1  0
  9 10  1  0
 10 11  1  0
 11 12  1  0
 12 13  2  0
 13 14  1  0
 14 15  2  0
 15 16  1  0
 15 17  1  0
 17 18  2  0
  2 19  1  0
 19 20  2  0
 20 21  1  0
 21 22  2  0
 22 23  1  0
 23 24  2  0
 24 25  1  0
 24 26  1  0
 26 27  2  0
 27 28  1  0
 28 29  2  0
 11  7  1  0
 18 12  1  0
 29 19  1  0
 28 22  1  0
  3 30  1  0
  4 31  1  0
  4 32  1  0
  8 33  1  0
  8 34  1  0
  9 35  1  0
  9 36  1  0
 10 37  1  0
 10 38  1  0
 11 39  1  1
 13 40  1  0
 14 41  1  0
 17 42  1  0
 18 43  1  0
 20 44  1  0
 21 45  1  0
 23 46  1  0
 26 47  1  0
 27 48  1  0
M  END
>  <smiles>  (25) 
O=C(NCC(=O)N1CCCC1c1ccc(F)cc1)c1ccc2cc(Cl)ccc2n1

>  <score_type>  (25) 
oracle

>  <origin>  (25) 
autodockgpu

>  <m_score__min__energy>  (25) 
-8.8399999999999999

>  <m_primary>  (25) 
energy

>  <rmsd>  (25) 
2.4016117984205003

>  <m_score__min__rmsd>  (25) 
2.4016117984205003

>  <meeko>  (25) 
{"free_energy": -7.38, "intermolecular_energy": -8.87, "internal_energy": -2.09, "cluster_size": 22, "cluster_id": 3, "rank_in_cluster": 21}

>  <energy>  (25) 
-7.82

>  <cluster_rmsd>  (25) 
0.31

>  <cluster>  (25) 
3

$$$$

     RDKit          3D

 48 51  0  0  0  0  0  0  0  0999 V2000
  133.9180   69.2500  226.4590 O   0  0  0  0  0  0  0  0  0  0  0  0
  134.3970   70.3470  226.0610 C   0  0  0  0  0  0  0  0  0  0  0  0
  135.5790   70.3860  225.2330 N   0  0  0  0  0  0  0  0  0  0  0  0
  136.2880   69.2220  224.8140 C   0  0  0  0  0  0  0  0  0  0  0  0
  137.6690   69.3880  224.3520 C   0  0  0  0  0  0  0  0  0  0  0  0
  138.2670   68.2470  224.1420 O   0  0  0  0  0  0  0  0  0  0  0  0
  138.4170   70.5400  224.1070 N   0  0  0  0  0  0  0  0  0  0  0  0
  138.3600   71.4960  222.9890 C   0  0  0  0  0  0  0  0  0  0  0  0
  139.7490   72.1520  222.9250 C   0  0  0  0  0  0  0  0  0  0  0  0
  140.5560   71.3730  223.9220 C   0  0  0  0  0  0  0  0  0  0  0  0
  139.4550   71.0560  224.9650 C   0  0  2  0  0  0  0  0  0  0  0  0
  139.9990   70.1540  225.9790 C   0  0  0  0  0  0  0  0  0  0  0  0
  140.5680   68.9250  225.7450 C   0  0  0  0  0  0  0  0  0  0  0  0
  141.0600   68.1300  226.7590 C   0  0  0  0  0  0  0  0  0  0  0  0
  141.0010   68.5430  228.0770 C   0  0  0  0  0  0  0  0  0  0  0  0
  141.4820   67.7660  229.0770 F   0  0  0  0  0  0  0  0  0  0  0  0
  140.4370   69.7660  228.3350 C   0  0  0  0  0  0  0  0  0  0  0  0
  139.9500   70.5510  227.3210 C   0  0  0  0  0  0  0  0  0  0  0  0
  133.7360   71.6070  226.4530 C   0  0  0  0  0  0  0  0  0  0  0  0
  132.5840   71.5750  227.1740 C   0  0  0  0  0  0  0  0  0  0  0  0
  131.9630   72.7490  227.5420 C   0  0  0  0  0  0  0  0  0  0  0  0
  132.4940   73.9670  227.1870 C   0  0  0  0  0  0  0  0  0  0  0  0
  131.8710   75.1440  227.5570 C   0  0  0  0  0  0  0  0  0  0  0  0
  132.3970   76.3710  227.2060 C   0  0  0  0  0  0  0  0  0  0  0  0
  131.5960   77.8570  227.6800 Cl  0  0  0  0  0  0  0  0  0  0  0  0
  133.5790   76.3830  226.4650 C   0  0  0  0  0  0  0  0  0  0  0  0
  134.2000   75.1940  226.0980 C   0  0  0  0  0  0  0  0  0  0  0  0
  133.6720   73.9700  226.4510 C   0  0  0  0  0  0  0  0  0  0  0  0
  134.2410   72.8060  226.1160 N   0  0  0  0  0  0  0  0  0  0  0  0
  135.8810   71.3640  224.9570 H   0  0  0  0  0  0  0  0  0  0  0  0
  136.3093   68.5271  225.6665 H   0  0  0  0  0  0  0  0  0  0  0  0
  135.7411   68.8712  223.9264 H   0  0  0  0  0  0  0  0  0  0  0  0
  138.1409   70.9712  222.0474 H   0  0  0  0  0  0  0  0  0  0  0  0
  137.5665   72.2434  223.1365 H   0  0  0  0  0  0  0  0  0  0  0  0
  140.1790   72.0626  221.9165 H   0  0  0  0  0  0  0  0  0  0  0  0
  139.7225   73.2292  223.1461 H   0  0  0  0  0  0  0  0  0  0  0  0
  140.9772   70.4575  223.4811 H   0  0  0  0  0  0  0  0  0  0  0  0
  141.4358   71.8994  224.3205 H   0  0  0  0  0  0  0  0  0  0  0  0
  139.0663   71.8808  225.5804 H   0  0  0  0  0  0  0  0  0  0  0  0
  140.6335   68.5614  224.7089 H   0  0  0  0  0  0  0  0  0  0  0  0
  141.5054   67.1541  226.5157 H   0  0  0  0  0  0  0  0  0  0  0  0
  140.3740   70.1238  229.3733 H   0  0  0  0  0  0  0  0  0  0  0  0
  139.5057   71.5258  227.5706 H   0  0  0  0  0  0  0  0  0  0  0  0
  132.1460   70.6087  227.4647 H   0  0  0  0  0  0  0  0  0  0  0  0
  131.0319   72.7114  228.1264 H   0  0  0  0  0  0  0  0  0  0  0  0
  130.9399   75.1022  228.1413 H   0  0  0  0  0  0  0  0  0  0  0  0
  134.0248   77.3437  226.1677 H   0  0  0  0  0  0  0  0  0  0  0  0
  135.1315   75.2307  225.5141 H   0  0  0  0  0  0  0  0  0  0  0  0
  1  2  2  0
  2  3  1  0
  3  4  1  0
  4  5  1  0
  5  6  2  0
  5  7  1  0
  7  8  1  0
  8  9  1  0
  9 10  1  0
 10 11  1  0
 11 12  1  0
 12 13  2  0
 13 14  1  0
 14 15  2  0
 15 16  1  0
 15 17  1  0
 17 18  2  0
  2 19  1  0
 19 20  2  0
 20 21  1  0
 21 22  2  0
 22 23  1  0
 23 24  2  0
 24 25  1  0
 24 26  1  0
 26 27  2  0
 27 28  1  0
 28 29  2  0
 11  7  1  0
 18 12  1  0
 29 19  1  0
 28 22  1  0
  3 30  1  0
  4 31  1  0
  4 32  1  0
  8 33  1  0
  8 34  1  0
  9 35  1  0
  9 36  1  0
 10 37  1  0
 10 38  1  0
 11 39  1  1
 13 40  1  0
 14 41  1  0
 17 42  1  0
 18 43  1  0
 20 44  1  0
 21 45  1  0
 23 46  1  0
 26 47  1  0
 27 48  1  0
M  END
>  <smiles>  (26) 
O=C(NCC(=O)N1CCCC1c1ccc(F)cc1)c1ccc2cc(Cl)ccc2n1

>  <score_type>  (26) 
oracle

>  <origin>  (26) 
autodockgpu

>  <m_score__min__energy>  (26) 
-8.8399999999999999

>  <m_primary>  (26) 
energy

>  <rmsd>  (26) 
7.767071884308584

>  <m_score__min__rmsd>  (26) 
7.767071884308584

>  <meeko>  (26) 
{"free_energy": -8.68, "intermolecular_energy": -10.17, "internal_energy": -1.54, "cluster_size": 9, "cluster_id": 1, "rank_in_cluster": 3}

>  <energy>  (26) 
-7.76

>  <cluster_rmsd>  (26) 
0.94

>  <cluster>  (26) 
3

$$$$

     RDKit          3D

 48 51  0  0  0  0  0  0  0  0999 V2000
  140.0270   74.0770  222.1720 O   0  0  0  0  0  0  0  0  0  0  0  0
  139.8490   72.8500  221.9380 C   0  0  0  0  0  0  0  0  0  0  0  0
  139.5900   72.3800  220.5980 N   0  0  0  0  0  0  0  0  0  0  0  0
  139.5080   73.2380  219.4620 C   0  0  0  0  0  0  0  0  0  0  0  0
  140.7120   73.9780  219.0720 C   0  0  0  0  0  0  0  0  0  0  0  0
  141.2610   73.5050  217.9860 O   0  0  0  0  0  0  0  0  0  0  0  0
  141.3380   75.0770  219.6600 N   0  0  0  0  0  0  0  0  0  0  0  0
  140.8990   76.4770  219.7780 C   0  0  0  0  0  0  0  0  0  0  0  0
  142.1830   77.3090  219.9340 C   0  0  0  0  0  0  0  0  0  0  0  0
  143.2820   76.3110  219.7140 C   0  0  0  0  0  0  0  0  0  0  0  0
  142.6200   75.0490  220.3200 C   0  0  2  0  0  0  0  0  0  0  0  0
  143.4780   73.8900  220.0740 C   0  0  0  0  0  0  0  0  0  0  0  0
  144.5970   73.8710  219.2750 C   0  0  0  0  0  0  0  0  0  0  0  0
  145.3560   72.7340  219.0910 C   0  0  0  0  0  0  0  0  0  0  0  0
  145.0200   71.5470  219.7140 C   0  0  0  0  0  0  0  0  0  0  0  0
  145.7620   70.4270  219.5370 F   0  0  0  0  0  0  0  0  0  0  0  0
  143.9080   71.5420  220.5160 C   0  0  0  0  0  0  0  0  0  0  0  0
  143.1570   72.6770  220.6930 C   0  0  0  0  0  0  0  0  0  0  0  0
  139.9060   71.8870  223.0530 C   0  0  0  0  0  0  0  0  0  0  0  0
  139.4240   70.6260  222.8880 C   0  0  0  0  0  0  0  0  0  0  0  0
  139.4750   69.7220  223.9280 C   0  0  0  0  0  0  0  0  0  0  0  0
  140.0100   70.0780  225.1440 C   0  0  0  0  0  0  0  0  0  0  0  0
  140.0610   69.1710  226.1850 C   0  0  0  0  0  0  0  0  0  0  0  0
  140.5970   69.5190  227.4100 C   0  0  0  0  0  0  0  0  0  0  0  0
  140.6540   68.3600  228.7240 Cl  0  0  0  0  0  0  0  0  0  0  0  0
  141.0850   70.8170  227.5600 C   0  0  0  0  0  0  0  0  0  0  0  0
  141.0300   71.7230  226.5060 C   0  0  0  0  0  0  0  0  0  0  0  0
  140.4950   71.3720  225.2850 C   0  0  0  0  0  0  0  0  0  0  0  0
  140.4250   72.2160  224.2480 N   0  0  0  0  0  0  0  0  0  0  0  0
  139.4650   71.3290  220.5260 H   0  0  0  0  0  0  0  0  0  0  0  0
  139.2128   72.6171  218.6033 H   0  0  0  0  0  0  0  0  0  0  0  0
  138.7892   74.0169  219.7564 H   0  0  0  0  0  0  0  0  0  0  0  0
  140.3515   76.7839  218.8746 H   0  0  0  0  0  0  0  0  0  0  0  0
  140.2204   76.6171  220.6323 H   0  0  0  0  0  0  0  0  0  0  0  0
  142.2248   78.1107  219.1820 H   0  0  0  0  0  0  0  0  0  0  0  0
  142.2508   77.8095  220.9112 H   0  0  0  0  0  0  0  0  0  0  0  0
  143.5081   76.1808  218.6454 H   0  0  0  0  0  0  0  0  0  0  0  0
  144.2522   76.5837  220.1548 H   0  0  0  0  0  0  0  0  0  0  0  0
  142.4858   75.0039  221.4109 H   0  0  0  0  0  0  0  0  0  0  0  0
  144.8981   74.7971  218.7635 H   0  0  0  0  0  0  0  0  0  0  0  0
  146.2412   72.7726  218.4392 H   0  0  0  0  0  0  0  0  0  0  0  0
  143.6129   70.6131  221.0260 H   0  0  0  0  0  0  0  0  0  0  0  0
  142.2717   72.6314  221.3443 H   0  0  0  0  0  0  0  0  0  0  0  0
  138.9920   70.3263  221.9218 H   0  0  0  0  0  0  0  0  0  0  0  0
  139.0833   68.7043  223.7834 H   0  0  0  0  0  0  0  0  0  0  0  0
  139.6682   68.1544  226.0360 H   0  0  0  0  0  0  0  0  0  0  0  0
  141.5181   71.1276  228.5223 H   0  0  0  0  0  0  0  0  0  0  0  0
  141.4216   72.7408  226.6498 H   0  0  0  0  0  0  0  0  0  0  0  0
  1  2  2  0
  2  3  1  0
  3  4  1  0
  4  5  1  0
  5  6  2  0
  5  7  1  0
  7  8  1  0
  8  9  1  0
  9 10  1  0
 10 11  1  0
 11 12  1  0
 12 13  2  0
 13 14  1  0
 14 15  2  0
 15 16  1  0
 15 17  1  0
 17 18  2  0
  2 19  1  0
 19 20  2  0
 20 21  1  0
 21 22  2  0
 22 23  1  0
 23 24  2  0
 24 25  1  0
 24 26  1  0
 26 27  2  0
 27 28  1  0
 28 29  2  0
 11  7  1  0
 18 12  1  0
 29 19  1  0
 28 22  1  0
  3 30  1  0
  4 31  1  0
  4 32  1  0
  8 33  1  0
  8 34  1  0
  9 35  1  0
  9 36  1  0
 10 37  1  0
 10 38  1  0
 11 39  1  1
 13 40  1  0
 14 41  1  0
 17 42  1  0
 18 43  1  0
 20 44  1  0
 21 45  1  0
 23 46  1  0
 26 47  1  0
 27 48  1  0
M  END
>  <smiles>  (27) 
O=C(NCC(=O)N1CCCC1c1ccc(F)cc1)c1ccc2cc(Cl)ccc2n1

>  <score_type>  (27) 
oracle

>  <origin>  (27) 
autodockgpu

>  <m_score__min__energy>  (27) 
-8.8399999999999999

>  <m_primary>  (27) 
energy

>  <rmsd>  (27) 
2.3904535542650605

>  <m_score__min__rmsd>  (27) 
2.3904535542650605

>  <meeko>  (27) 
{"free_energy": -7.59, "intermolecular_energy": -9.08, "internal_energy": -1.72, "cluster_size": 22, "cluster_id": 3, "rank_in_cluster": 19}

>  <energy>  (27) 
-7.76

>  <cluster_rmsd>  (27) 
1.6

>  <cluster>  (27) 
3

$$$$

     RDKit          3D

 48 51  0  0  0  0  0  0  0  0999 V2000
  141.0690   71.2420  221.6330 O   0  0  0  0  0  0  0  0  0  0  0  0
  140.7590   72.3320  222.1870 C   0  0  0  0  0  0  0  0  0  0  0  0
  140.1180   72.3530  223.4800 N   0  0  0  0  0  0  0  0  0  0  0  0
  139.7840   71.1770  224.2140 C   0  0  0  0  0  0  0  0  0  0  0  0
  140.4250   70.9760  225.5180 C   0  0  0  0  0  0  0  0  0  0  0  0
  141.3280   71.8810  225.7760 O   0  0  0  0  0  0  0  0  0  0  0  0
  140.2200   70.0010  226.4940 N   0  0  0  0  0  0  0  0  0  0  0  0
  140.9350   69.7480  227.7570 C   0  0  0  0  0  0  0  0  0  0  0  0
  140.7080   68.2620  228.0790 C   0  0  0  0  0  0  0  0  0  0  0  0
  140.0140   67.7360  226.8570 C   0  0  0  0  0  0  0  0  0  0  0  0
  139.1950   68.9880  226.4570 C   0  0  2  0  0  0  0  0  0  0  0  0
  138.5380   68.7430  225.1730 C   0  0  0  0  0  0  0  0  0  0  0  0
  137.3120   69.2330  224.7870 C   0  0  0  0  0  0  0  0  0  0  0  0
  136.7580   68.9560  223.5550 C   0  0  0  0  0  0  0  0  0  0  0  0
  137.4230   68.1620  222.6390 C   0  0  0  0  0  0  0  0  0  0  0  0
  136.8840   67.8860  221.4280 F   0  0  0  0  0  0  0  0  0  0  0  0
  138.6480   67.6620  223.0020 C   0  0  0  0  0  0  0  0  0  0  0  0
  139.1920   67.9410  224.2300 C   0  0  0  0  0  0  0  0  0  0  0  0
  141.0570   73.6020  221.4970 C   0  0  0  0  0  0  0  0  0  0  0  0
  141.7200   73.5920  220.3100 C   0  0  0  0  0  0  0  0  0  0  0  0
  142.0010   74.7760  219.6620 C   0  0  0  0  0  0  0  0  0  0  0  0
  141.6170   75.9820  220.2030 C   0  0  0  0  0  0  0  0  0  0  0  0
  141.8990   77.1680  219.5520 C   0  0  0  0  0  0  0  0  0  0  0  0
  141.5170   78.3830  220.0860 C   0  0  0  0  0  0  0  0  0  0  0  0
  141.8820   79.8810  219.2520 Cl  0  0  0  0  0  0  0  0  0  0  0  0
  140.8390   78.3720  221.3050 C   0  0  0  0  0  0  0  0  0  0  0  0
  140.5590   77.1740  221.9530 C   0  0  0  0  0  0  0  0  0  0  0  0
  140.9410   75.9620  221.4160 C   0  0  0  0  0  0  0  0  0  0  0  0
  140.6900   74.7890  222.0090 N   0  0  0  0  0  0  0  0  0  0  0  0
  139.9130   73.3270  223.8450 H   0  0  0  0  0  0  0  0  0  0  0  0
  138.6971   71.1938  224.3825 H   0  0  0  0  0  0  0  0  0  0  0  0
  140.1571   70.3493  223.5930 H   0  0  0  0  0  0  0  0  0  0  0  0
  142.0089   69.9538  227.6367 H   0  0  0  0  0  0  0  0  0  0  0  0
  140.5684   70.3972  228.5658 H   0  0  0  0  0  0  0  0  0  0  0  0
  141.6653   67.7447  228.2398 H   0  0  0  0  0  0  0  0  0  0  0  0
  140.1254   68.1091  228.9994 H   0  0  0  0  0  0  0  0  0  0  0  0
  140.7295   67.4479  226.0727 H   0  0  0  0  0  0  0  0  0  0  0  0
  139.4201   66.8239  227.0165 H   0  0  0  0  0  0  0  0  0  0  0  0
  138.3471   69.2810  227.0936 H   0  0  0  0  0  0  0  0  0  0  0  0
  136.7523   69.8700  225.4877 H   0  0  0  0  0  0  0  0  0  0  0  0
  135.7731   69.3726  223.2973 H   0  0  0  0  0  0  0  0  0  0  0  0
  139.2033   67.0266  222.2964 H   0  0  0  0  0  0  0  0  0  0  0  0
  140.1763   67.5200  224.4826 H   0  0  0  0  0  0  0  0  0  0  0  0
  142.0333   72.6360  219.8652 H   0  0  0  0  0  0  0  0  0  0  0  0
  142.5380   74.7567  218.7022 H   0  0  0  0  0  0  0  0  0  0  0  0
  142.4366   77.1439  218.5926 H   0  0  0  0  0  0  0  0  0  0  0  0
  140.5220   79.3224  221.7591 H   0  0  0  0  0  0  0  0  0  0  0  0
  140.0222   77.1931  222.9130 H   0  0  0  0  0  0  0  0  0  0  0  0
  1  2  2  0
  2  3  1  0
  3  4  1  0
  4  5  1  0
  5  6  2  0
  5  7  1  0
  7  8  1  0
  8  9  1  0
  9 10  1  0
 10 11  1  0
 11 12  1  0
 12 13  2  0
 13 14  1  0
 14 15  2  0
 15 16  1  0
 15 17  1  0
 17 18  2  0
  2 19  1  0
 19 20  2  0
 20 21  1  0
 21 22  2  0
 22 23  1  0
 23 24  2  0
 24 25  1  0
 24 26  1  0
 26 27  2  0
 27 28  1  0
 28 29  2  0
 11  7  1  0
 18 12  1  0
 29 19  1  0
 28 22  1  0
  3 30  1  0
  4 31  1  0
  4 32  1  0
  8 33  1  0
  8 34  1  0
  9 35  1  0
  9 36  1  0
 10 37  1  0
 10 38  1  0
 11 39  1  1
 13 40  1  0
 14 41  1  0
 17 42  1  0
 18 43  1  0
 20 44  1  0
 21 45  1  0
 23 46  1  0
 26 47  1  0
 27 48  1  0
M  END
>  <smiles>  (28) 
O=C(NCC(=O)N1CCCC1c1ccc(F)cc1)c1ccc2cc(Cl)ccc2n1

>  <score_type>  (28) 
oracle

>  <origin>  (28) 
autodockgpu

>  <m_score__min__energy>  (28) 
-8.8399999999999999

>  <m_primary>  (28) 
energy

>  <rmsd>  (28) 
9.01693757742239

>  <m_score__min__rmsd>  (28) 
9.01693757742239

>  <meeko>  (28) 
{"free_energy": -7.72, "intermolecular_energy": -9.21, "internal_energy": -1.43, "cluster_size": 1, "cluster_id": 4, "rank_in_cluster": 1}

>  <energy>  (28) 
-7.72

>  <cluster_rmsd>  (28) 
0.24

>  <cluster>  (28) 
3

$$$$

     RDKit          3D

 48 51  0  0  0  0  0  0  0  0999 V2000
  133.9620   69.2750  226.4530 O   0  0  0  0  0  0  0  0  0  0  0  0
  134.4090   70.3680  226.0080 C   0  0  0  0  0  0  0  0  0  0  0  0
  135.5660   70.4010  225.1450 N   0  0  0  0  0  0  0  0  0  0  0  0
  136.2830   69.2370  224.7410 C   0  0  0  0  0  0  0  0  0  0  0  0
  137.6800   69.4000  224.3290 C   0  0  0  0  0  0  0  0  0  0  0  0
  138.2880   68.2570  224.1590 O   0  0  0  0  0  0  0  0  0  0  0  0
  138.4340   70.5500  224.0940 N   0  0  0  0  0  0  0  0  0  0  0  0
  138.3940   71.5060  222.9750 C   0  0  0  0  0  0  0  0  0  0  0  0
  139.7860   72.1590  222.9290 C   0  0  0  0  0  0  0  0  0  0  0  0
  140.5770   71.3780  223.9370 C   0  0  0  0  0  0  0  0  0  0  0  0
  139.4630   71.0630  224.9650 C   0  0  2  0  0  0  0  0  0  0  0  0
  139.9910   70.1590  225.9860 C   0  0  0  0  0  0  0  0  0  0  0  0
  140.5380   68.9180  225.7600 C   0  0  0  0  0  0  0  0  0  0  0  0
  141.0160   68.1220  226.7800 C   0  0  0  0  0  0  0  0  0  0  0  0
  140.9660   68.5460  228.0950 C   0  0  0  0  0  0  0  0  0  0  0  0
  141.4340   67.7690  229.1010 F   0  0  0  0  0  0  0  0  0  0  0  0
  140.4250   69.7820  228.3450 C   0  0  0  0  0  0  0  0  0  0  0  0
  139.9510   70.5670  227.3250 C   0  0  0  0  0  0  0  0  0  0  0  0
  133.7370   71.6270  226.3810 C   0  0  0  0  0  0  0  0  0  0  0  0
  132.5440   71.5950  227.0320 C   0  0  0  0  0  0  0  0  0  0  0  0
  131.9120   72.7690  227.3820 C   0  0  0  0  0  0  0  0  0  0  0  0
  132.4750   73.9880  227.0800 C   0  0  0  0  0  0  0  0  0  0  0  0
  131.8420   75.1640  227.4320 C   0  0  0  0  0  0  0  0  0  0  0  0
  132.3990   76.3920  227.1340 C   0  0  0  0  0  0  0  0  0  0  0  0
  131.5850   77.8780  227.5850 Cl  0  0  0  0  0  0  0  0  0  0  0  0
  133.6240   76.4040  226.4660 C   0  0  0  0  0  0  0  0  0  0  0  0
  134.2550   75.2150  226.1160 C   0  0  0  0  0  0  0  0  0  0  0  0
  133.6950   73.9910  226.4160 C   0  0  0  0  0  0  0  0  0  0  0  0
  134.2720   72.8260  226.0950 N   0  0  0  0  0  0  0  0  0  0  0  0
  135.8420   71.3760  224.8310 H   0  0  0  0  0  0  0  0  0  0  0  0
  136.2711   68.5348  225.5876 H   0  0  0  0  0  0  0  0  0  0  0  0
  135.7656   68.8963  223.8320 H   0  0  0  0  0  0  0  0  0  0  0  0
  138.1860   70.9814  222.0308 H   0  0  0  0  0  0  0  0  0  0  0  0
  137.6005   72.2554  223.1120 H   0  0  0  0  0  0  0  0  0  0  0  0
  140.2293   72.0681  221.9264 H   0  0  0  0  0  0  0  0  0  0  0  0
  139.7596   73.2364  223.1490 H   0  0  0  0  0  0  0  0  0  0  0  0
  141.0020   70.4616  223.5016 H   0  0  0  0  0  0  0  0  0  0  0  0
  141.4521   71.9030  224.3476 H   0  0  0  0  0  0  0  0  0  0  0  0
  139.0693   71.8889  225.5757 H   0  0  0  0  0  0  0  0  0  0  0  0
  140.5966   68.5458  224.7265 H   0  0  0  0  0  0  0  0  0  0  0  0
  141.4430   67.1361  226.5439 H   0  0  0  0  0  0  0  0  0  0  0  0
  140.3706   70.1493  229.3804 H   0  0  0  0  0  0  0  0  0  0  0  0
  139.5245   71.5516  227.5673 H   0  0  0  0  0  0  0  0  0  0  0  0
  132.0812   70.6285  227.2804 H   0  0  0  0  0  0  0  0  0  0  0  0
  130.9470   72.7311  227.9085 H   0  0  0  0  0  0  0  0  0  0  0  0
  130.8773   75.1217  227.9589 H   0  0  0  0  0  0  0  0  0  0  0  0
  134.0961   77.3649  226.2133 H   0  0  0  0  0  0  0  0  0  0  0  0
  135.2200   75.2517  225.5894 H   0  0  0  0  0  0  0  0  0  0  0  0
  1  2  2  0
  2  3  1  0
  3  4  1  0
  4  5  1  0
  5  6  2  0
  5  7  1  0
  7  8  1  0
  8  9  1  0
  9 10  1  0
 10 11  1  0
 11 12  1  0
 12 13  2  0
 13 14  1  0
 14 15  2  0
 15 16  1  0
 15 17  1  0
 17 18  2  0
  2 19  1  0
 19 20  2  0
 20 21  1  0
 21 22  2  0
 22 23  1  0
 23 24  2  0
 24 25  1  0
 24 26  1  0
 26 27  2  0
 27 28  1  0
 28 29  2  0
 11  7  1  0
 18 12  1  0
 29 19  1  0
 28 22  1  0
  3 30  1  0
  4 31  1  0
  4 32  1  0
  8 33  1  0
  8 34  1  0
  9 35  1  0
  9 36  1  0
 10 37  1  0
 10 38  1  0
 11 39  1  1
 13 40  1  0
 14 41  1  0
 17 42  1  0
 18 43  1  0
 20 44  1  0
 21 45  1  0
 23 46  1  0
 26 47  1  0
 27 48  1  0
M  END
>  <smiles>  (29) 
O=C(NCC(=O)N1CCCC1c1ccc(F)cc1)c1ccc2cc(Cl)ccc2n1

>  <score_type>  (29) 
oracle

>  <origin>  (29) 
autodockgpu

>  <m_score__min__energy>  (29) 
-8.8399999999999999

>  <m_primary>  (29) 
energy

>  <rmsd>  (29) 
7.750846487854963

>  <m_score__min__rmsd>  (29) 
7.750846487854963

>  <meeko>  (29) 
{"free_energy": -8.67, "intermolecular_energy": -10.16, "internal_energy": -1.51, "cluster_size": 9, "cluster_id": 1, "rank_in_cluster": 4}

>  <energy>  (29) 
-7.71

>  <cluster_rmsd>  (29) 
1.5

>  <cluster>  (29) 
3

$$$$

     RDKit          3D

 48 51  0  0  0  0  0  0  0  0999 V2000
  140.5120   72.2540  220.6360 O   0  0  0  0  0  0  0  0  0  0  0  0
  140.2350   72.7180  221.7760 C   0  0  0  0  0  0  0  0  0  0  0  0
  139.9960   74.1290  221.9670 N   0  0  0  0  0  0  0  0  0  0  0  0
  140.0580   75.0890  220.9150 C   0  0  0  0  0  0  0  0  0  0  0  0
  140.9350   76.2500  221.0960 C   0  0  0  0  0  0  0  0  0  0  0  0
  141.0590   76.5930  222.3490 O   0  0  0  0  0  0  0  0  0  0  0  0
  141.6370   77.0170  220.1650 N   0  0  0  0  0  0  0  0  0  0  0  0
  141.3020   78.3090  219.5440 C   0  0  0  0  0  0  0  0  0  0  0  0
  142.0750   78.3500  218.2160 C   0  0  0  0  0  0  0  0  0  0  0  0
  142.6630   76.9740  218.1040 C   0  0  0  0  0  0  0  0  0  0  0  0
  142.9190   76.6730  219.6020 C   0  0  2  0  0  0  0  0  0  0  0  0
  143.3660   75.2880  219.7440 C   0  0  0  0  0  0  0  0  0  0  0  0
  144.4570   74.8620  220.4650 C   0  0  0  0  0  0  0  0  0  0  0  0
  144.8150   73.5330  220.5510 C   0  0  0  0  0  0  0  0  0  0  0  0
  144.0800   72.5550  219.9060 C   0  0  0  0  0  0  0  0  0  0  0  0
  144.4270   71.2490  219.9880 F   0  0  0  0  0  0  0  0  0  0  0  0
  142.9870   72.9570  219.1820 C   0  0  0  0  0  0  0  0  0  0  0  0
  142.6370   74.2810  219.1000 C   0  0  0  0  0  0  0  0  0  0  0  0
  140.1590   71.8000  222.9280 C   0  0  0  0  0  0  0  0  0  0  0  0
  139.6000   70.5690  222.7820 C   0  0  0  0  0  0  0  0  0  0  0  0
  139.5260   69.7080  223.8550 C   0  0  0  0  0  0  0  0  0  0  0  0
  140.0130   70.0780  225.0880 C   0  0  0  0  0  0  0  0  0  0  0  0
  139.9380   69.2130  226.1640 C   0  0  0  0  0  0  0  0  0  0  0  0
  140.4250   69.5750  227.4050 C   0  0  0  0  0  0  0  0  0  0  0  0
  140.3230   68.4700  228.7630 Cl  0  0  0  0  0  0  0  0  0  0  0  0
  140.9930   70.8420  227.5360 C   0  0  0  0  0  0  0  0  0  0  0  0
  141.0650   71.7050  226.4470 C   0  0  0  0  0  0  0  0  0  0  0  0
  140.5780   71.3400  225.2100 C   0  0  0  0  0  0  0  0  0  0  0  0
  140.6290   72.1430  224.1390 N   0  0  0  0  0  0  0  0  0  0  0  0
  139.7670   74.3960  222.9670 H   0  0  0  0  0  0  0  0  0  0  0  0
  140.3949   74.5620  220.0101 H   0  0  0  0  0  0  0  0  0  0  0  0
  139.0443   75.5137  220.8693 H   0  0  0  0  0  0  0  0  0  0  0  0
  140.2197   78.3757  219.3592 H   0  0  0  0  0  0  0  0  0  0  0  0
  141.5727   79.1529  220.1955 H   0  0  0  0  0  0  0  0  0  0  0  0
  141.3978   78.5569  217.3742 H   0  0  0  0  0  0  0  0  0  0  0  0
  142.8373   79.1426  218.1908 H   0  0  0  0  0  0  0  0  0  0  0  0
  141.9533   76.2610  217.6591 H   0  0  0  0  0  0  0  0  0  0  0  0
  143.5490   76.8983  217.4565 H   0  0  0  0  0  0  0  0  0  0  0  0
  143.7209   77.2238  220.1154 H   0  0  0  0  0  0  0  0  0  0  0  0
  145.0671   75.6096  220.9930 H   0  0  0  0  0  0  0  0  0  0  0  0
  145.6980   73.2466  221.1412 H   0  0  0  0  0  0  0  0  0  0  0  0
  142.3799   72.2044  218.6576 H   0  0  0  0  0  0  0  0  0  0  0  0
  141.7532   74.5610  218.5079 H   0  0  0  0  0  0  0  0  0  0  0  0
  139.2053   70.2594  221.8031 H   0  0  0  0  0  0  0  0  0  0  0  0
  139.0728   68.7142  223.7249 H   0  0  0  0  0  0  0  0  0  0  0  0
  139.4832   68.2205  226.0297 H   0  0  0  0  0  0  0  0  0  0  0  0
  141.3885   71.1626  228.5111 H   0  0  0  0  0  0  0  0  0  0  0  0
  141.5196   72.6984  226.5756 H   0  0  0  0  0  0  0  0  0  0  0  0
  1  2  2  0
  2  3  1  0
  3  4  1  0
  4  5  1  0
  5  6  2  0
  5  7  1  0
  7  8  1  0
  8  9  1  0
  9 10  1  0
 10 11  1  0
 11 12  1  0
 12 13  2  0
 13 14  1  0
 14 15  2  0
 15 16  1  0
 15 17  1  0
 17 18  2  0
  2 19  1  0
 19 20  2  0
 20 21  1  0
 21 22  2  0
 22 23  1  0
 23 24  2  0
 24 25  1  0
 24 26  1  0
 26 27  2  0
 27 28  1  0
 28 29  2  0
 11  7  1  0
 18 12  1  0
 29 19  1  0
 28 22  1  0
  3 30  1  0
  4 31  1  0
  4 32  1  0
  8 33  1  0
  8 34  1  0
  9 35  1  0
  9 36  1  0
 10 37  1  0
 10 38  1  0
 11 39  1  1
 13 40  1  0
 14 41  1  0
 17 42  1  0
 18 43  1  0
 20 44  1  0
 21 45  1  0
 23 46  1  0
 26 47  1  0
 27 48  1  0
M  END
>  <smiles>  (30) 
O=C(NCC(=O)N1CCCC1c1ccc(F)cc1)c1ccc2cc(Cl)ccc2n1

>  <score_type>  (30) 
oracle

>  <origin>  (30) 
autodockgpu

>  <m_score__min__energy>  (30) 
-8.8399999999999999

>  <m_primary>  (30) 
energy

>  <rmsd>  (30) 
2.2707407665657997

>  <m_score__min__rmsd>  (30) 
2.2707407665657997

>  <meeko>  (30) 
{"free_energy": -7.9, "intermolecular_energy": -9.39, "internal_energy": -1.91, "cluster_size": 22, "cluster_id": 3, "rank_in_cluster": 2}

>  <energy>  (30) 
-7.7

>  <cluster_rmsd>  (30) 
0.33

>  <cluster>  (30) 
3

$$$$

     RDKit          3D

 48 51  0  0  0  0  0  0  0  0999 V2000
  140.1550   74.0660  222.1960 O   0  0  0  0  0  0  0  0  0  0  0  0
  139.8550   72.8600  221.9790 C   0  0  0  0  0  0  0  0  0  0  0  0
  139.4340   72.4230  220.6690 N   0  0  0  0  0  0  0  0  0  0  0  0
  139.3170   73.2940  219.5460 C   0  0  0  0  0  0  0  0  0  0  0  0
  140.4960   74.0720  219.1540 C   0  0  0  0  0  0  0  0  0  0  0  0
  141.1020   73.5720  218.1120 O   0  0  0  0  0  0  0  0  0  0  0  0
  141.0500   75.2280  219.7040 N   0  0  0  0  0  0  0  0  0  0  0  0
  140.5460   76.6120  219.7250 C   0  0  0  0  0  0  0  0  0  0  0  0
  141.7850   77.5080  219.8840 C   0  0  0  0  0  0  0  0  0  0  0  0
  142.9340   76.5500  219.7640 C   0  0  0  0  0  0  0  0  0  0  0  0
  142.3030   75.2950  220.4150 C   0  0  2  0  0  0  0  0  0  0  0  0
  143.2190   74.1640  220.2680 C   0  0  0  0  0  0  0  0  0  0  0  0
  143.0210   72.8960  220.7600 C   0  0  0  0  0  0  0  0  0  0  0  0
  143.9360   71.8800  220.5800 C   0  0  0  0  0  0  0  0  0  0  0  0
  145.1100   72.0960  219.8840 C   0  0  0  0  0  0  0  0  0  0  0  0
  146.0120   71.1020  219.7040 F   0  0  0  0  0  0  0  0  0  0  0  0
  145.3300   73.3540  219.3830 C   0  0  0  0  0  0  0  0  0  0  0  0
  144.4150   74.3600  219.5670 C   0  0  0  0  0  0  0  0  0  0  0  0
  139.9360   71.8860  223.0840 C   0  0  0  0  0  0  0  0  0  0  0  0
  139.5150   70.6070  222.8960 C   0  0  0  0  0  0  0  0  0  0  0  0
  139.5890   69.6940  223.9260 C   0  0  0  0  0  0  0  0  0  0  0  0
  140.0870   70.0590  225.1560 C   0  0  0  0  0  0  0  0  0  0  0  0
  140.1600   69.1420  226.1870 C   0  0  0  0  0  0  0  0  0  0  0  0
  140.6600   69.4990  227.4240 C   0  0  0  0  0  0  0  0  0  0  0  0
  140.7470   68.3270  228.7260 Cl  0  0  0  0  0  0  0  0  0  0  0  0
  141.0860   70.8160  227.5970 C   0  0  0  0  0  0  0  0  0  0  0  0
  141.0090   71.7310  226.5540 C   0  0  0  0  0  0  0  0  0  0  0  0
  140.5100   71.3710  225.3190 C   0  0  0  0  0  0  0  0  0  0  0  0
  140.4200   72.2240  224.2910 N   0  0  0  0  0  0  0  0  0  0  0  0
  139.2160   71.3870  220.6090 H   0  0  0  0  0  0  0  0  0  0  0  0
  139.0298   72.6770  218.6818 H   0  0  0  0  0  0  0  0  0  0  0  0
  138.5806   74.0489  219.8588 H   0  0  0  0  0  0  0  0  0  0  0  0
  140.0241   76.8437  218.7848 H   0  0  0  0  0  0  0  0  0  0  0  0
  139.8267   76.7680  220.5425 H   0  0  0  0  0  0  0  0  0  0  0  0
  141.8237   78.2685  219.0902 H   0  0  0  0  0  0  0  0  0  0  0  0
  141.7904   78.0637  220.8333 H   0  0  0  0  0  0  0  0  0  0  0  0
  143.2091   76.3712  218.7141 H   0  0  0  0  0  0  0  0  0  0  0  0
  143.8726   76.8904  220.2257 H   0  0  0  0  0  0  0  0  0  0  0  0
  142.1264   75.3047  221.5007 H   0  0  0  0  0  0  0  0  0  0  0  0
  142.0975   72.6835  221.3186 H   0  0  0  0  0  0  0  0  0  0  0  0
  143.7283   70.8833  220.9965 H   0  0  0  0  0  0  0  0  0  0  0  0
  146.2551   73.5597  218.8246 H   0  0  0  0  0  0  0  0  0  0  0  0
  144.6286   75.3549  219.1492 H   0  0  0  0  0  0  0  0  0  0  0  0
  139.1140   70.2998  221.9188 H   0  0  0  0  0  0  0  0  0  0  0  0
  139.2460   68.6616  223.7630 H   0  0  0  0  0  0  0  0  0  0  0  0
  139.8144   68.1112  226.0199 H   0  0  0  0  0  0  0  0  0  0  0  0
  141.4876   71.1340  228.5705 H   0  0  0  0  0  0  0  0  0  0  0  0
  141.3528   72.7632  226.7162 H   0  0  0  0  0  0  0  0  0  0  0  0
  1  2  2  0
  2  3  1  0
  3  4  1  0
  4  5  1  0
  5  6  2  0
  5  7  1  0
  7  8  1  0
  8  9  1  0
  9 10  1  0
 10 11  1  0
 11 12  1  0
 12 13  2  0
 13 14  1  0
 14 15  2  0
 15 16  1  0
 15 17  1  0
 17 18  2  0
  2 19  1  0
 19 20  2  0
 20 21  1  0
 21 22  2  0
 22 23  1  0
 23 24  2  0
 24 25  1  0
 24 26  1  0
 26 27  2  0
 27 28  1  0
 28 29  2  0
 11  7  1  0
 18 12  1  0
 29 19  1  0
 28 22  1  0
  3 30  1  0
  4 31  1  0
  4 32  1  0
  8 33  1  0
  8 34  1  0
  9 35  1  0
  9 36  1  0
 10 37  1  0
 10 38  1  0
 11 39  1  1
 13 40  1  0
 14 41  1  0
 17 42  1  0
 18 43  1  0
 20 44  1  0
 21 45  1  0
 23 46  1  0
 26 47  1  0
 27 48  1  0
M  END
>  <smiles>  (31) 
O=C(NCC(=O)N1CCCC1c1ccc(F)cc1)c1ccc2cc(Cl)ccc2n1

>  <score_type>  (31) 
oracle

>  <origin>  (31) 
autodockgpu

>  <m_score__min__energy>  (31) 
-8.8399999999999999

>  <m_primary>  (31) 
energy

>  <rmsd>  (31) 
2.251662196593708

>  <m_score__min__rmsd>  (31) 
2.251662196593708

>  <meeko>  (31) 
{"free_energy": -7.71, "intermolecular_energy": -9.2, "internal_energy": -1.71, "cluster_size": 22, "cluster_id": 3, "rank_in_cluster": 11}

>  <energy>  (31) 
-7.69

>  <cluster_rmsd>  (31) 
1.61

>  <cluster>  (31) 
3

$$$$

     RDKit          3D

 48 51  0  0  0  0  0  0  0  0999 V2000
  138.5240   71.4920  220.7000 O   0  0  0  0  0  0  0  0  0  0  0  0
  138.7250   72.0400  221.8180 C   0  0  0  0  0  0  0  0  0  0  0  0
  138.6150   73.4700  221.9760 N   0  0  0  0  0  0  0  0  0  0  0  0
  138.2850   74.3590  220.9100 C   0  0  0  0  0  0  0  0  0  0  0  0
  139.2990   74.6000  219.8790 C   0  0  0  0  0  0  0  0  0  0  0  0
  138.8720   75.3900  218.9320 O   0  0  0  0  0  0  0  0  0  0  0  0
  140.6080   74.1330  219.7590 N   0  0  0  0  0  0  0  0  0  0  0  0
  141.1180   72.8010  219.3950 C   0  0  0  0  0  0  0  0  0  0  0  0
  142.5220   72.7040  220.0130 C   0  0  0  0  0  0  0  0  0  0  0  0
  142.6310   73.9480  220.8450 C   0  0  0  0  0  0  0  0  0  0  0  0
  141.7960   74.9220  219.9760 C   0  0  2  0  0  0  0  0  0  0  0  0
  141.6400   76.1890  220.6890 C   0  0  0  0  0  0  0  0  0  0  0  0
  142.0110   77.4280  220.2220 C   0  0  0  0  0  0  0  0  0  0  0  0
  141.8310   78.5810  220.9570 C   0  0  0  0  0  0  0  0  0  0  0  0
  141.2590   78.5400  222.2150 C   0  0  0  0  0  0  0  0  0  0  0  0
  141.0790   79.6690  222.9410 F   0  0  0  0  0  0  0  0  0  0  0  0
  140.8800   77.3150  222.7020 C   0  0  0  0  0  0  0  0  0  0  0  0
  141.0630   76.1720  221.9650 C   0  0  0  0  0  0  0  0  0  0  0  0
  139.0820   71.2010  222.9780 C   0  0  0  0  0  0  0  0  0  0  0  0
  138.8140   69.8680  222.9610 C   0  0  0  0  0  0  0  0  0  0  0  0
  139.1450   69.0800  224.0430 C   0  0  0  0  0  0  0  0  0  0  0  0
  139.7470   69.6260  225.1530 C   0  0  0  0  0  0  0  0  0  0  0  0
  140.0790   68.8350  226.2370 C   0  0  0  0  0  0  0  0  0  0  0  0
  140.6840   69.3740  227.3550 C   0  0  0  0  0  0  0  0  0  0  0  0
  141.0990   68.3610  228.7240 Cl  0  0  0  0  0  0  0  0  0  0  0  0
  140.9500   70.7430  227.3530 C   0  0  0  0  0  0  0  0  0  0  0  0
  140.6140   71.5310  226.2580 C   0  0  0  0  0  0  0  0  0  0  0  0
  140.0090   70.9900  225.1430 C   0  0  0  0  0  0  0  0  0  0  0  0
  139.6710   71.7160  224.0700 N   0  0  0  0  0  0  0  0  0  0  0  0
  138.8000   73.8120  222.9630 H   0  0  0  0  0  0  0  0  0  0  0  0
  137.3963   73.9509  220.4064 H   0  0  0  0  0  0  0  0  0  0  0  0
  138.1496   75.3358  221.3974 H   0  0  0  0  0  0  0  0  0  0  0  0
  140.4648   72.0163  219.8043 H   0  0  0  0  0  0  0  0  0  0  0  0
  141.1467   72.6639  218.3040 H   0  0  0  0  0  0  0  0  0  0  0  0
  142.6138   71.8041  220.6390 H   0  0  0  0  0  0  0  0  0  0  0  0
  143.3165   72.6263  219.2562 H   0  0  0  0  0  0  0  0  0  0  0  0
  142.1911   73.8116  221.8439 H   0  0  0  0  0  0  0  0  0  0  0  0
  143.6591   74.2778  221.0556 H   0  0  0  0  0  0  0  0  0  0  0  0
  142.2151   75.2529  219.0143 H   0  0  0  0  0  0  0  0  0  0  0  0
  142.4687   77.5023  219.2245 H   0  0  0  0  0  0  0  0  0  0  0  0
  142.1470   79.5470  220.5363 H   0  0  0  0  0  0  0  0  0  0  0  0
  140.4218   77.2477  223.6998 H   0  0  0  0  0  0  0  0  0  0  0  0
  140.7455   75.2089  222.3913 H   0  0  0  0  0  0  0  0  0  0  0  0
  138.3316   69.4169  222.0813 H   0  0  0  0  0  0  0  0  0  0  0  0
  138.9252   68.0025  224.0184 H   0  0  0  0  0  0  0  0  0  0  0  0
  139.8574   67.7579  226.2084 H   0  0  0  0  0  0  0  0  0  0  0  0
  141.4312   71.2046  228.2278 H   0  0  0  0  0  0  0  0  0  0  0  0
  140.8353   72.6083  226.2814 H   0  0  0  0  0  0  0  0  0  0  0  0
  1  2  2  0
  2  3  1  0
  3  4  1  0
  4  5  1  0
  5  6  2  0
  5  7  1  0
  7  8  1  0
  8  9  1  0
  9 10  1  0
 10 11  1  0
 11 12  1  0
 12 13  2  0
 13 14  1  0
 14 15  2  0
 15 16  1  0
 15 17  1  0
 17 18  2  0
  2 19  1  0
 19 20  2  0
 20 21  1  0
 21 22  2  0
 22 23  1  0
 23 24  2  0
 24 25  1  0
 24 26  1  0
 26 27  2  0
 27 28  1  0
 28 29  2  0
 11  7  1  0
 18 12  1  0
 29 19  1  0
 28 22  1  0
  3 30  1  0
  4 31  1  0
  4 32  1  0
  8 33  1  0
  8 34  1  0
  9 35  1  0
  9 36  1  0
 10 37  1  0
 10 38  1  0
 11 39  1  6
 13 40  1  0
 14 41  1  0
 17 42  1  0
 18 43  1  0
 20 44  1  0
 21 45  1  0
 23 46  1  0
 26 47  1  0
 27 48  1  0
M  END
>  <smiles>  (32) 
O=C(NCC(=O)N1CCCC1c1ccc(F)cc1)c1ccc2cc(Cl)ccc2n1

>  <score_type>  (32) 
oracle

>  <origin>  (32) 
autodockgpu

>  <m_score__min__energy>  (32) 
-8.8399999999999999

>  <m_primary>  (32) 
energy

>  <rmsd>  (32) 
2.373020168374049

>  <m_score__min__rmsd>  (32) 
2.373020168374049

>  <meeko>  (32) 
{"free_energy": -7.19, "intermolecular_energy": -8.68, "internal_energy": -1.93, "cluster_size": 4, "cluster_id": 6, "rank_in_cluster": 4}

>  <energy>  (32) 
-7.66

>  <cluster_rmsd>  (32) 
1.53

>  <cluster>  (32) 
3

$$$$

     RDKit          3D

 48 51  0  0  0  0  0  0  0  0999 V2000
  137.8780   71.1890  220.8650 O   0  0  0  0  0  0  0  0  0  0  0  0
  138.2500   71.7750  221.9180 C   0  0  0  0  0  0  0  0  0  0  0  0
  138.2310   73.2160  222.0130 N   0  0  0  0  0  0  0  0  0  0  0  0
  137.8100   74.0710  220.9520 C   0  0  0  0  0  0  0  0  0  0  0  0
  138.5450   75.3230  220.7470 C   0  0  0  0  0  0  0  0  0  0  0  0
  138.5860   75.6800  219.4930 O   0  0  0  0  0  0  0  0  0  0  0  0
  139.1840   76.1660  221.6570 N   0  0  0  0  0  0  0  0  0  0  0  0
  138.6990   77.3770  222.3400 C   0  0  0  0  0  0  0  0  0  0  0  0
  139.9540   78.1910  222.6950 C   0  0  0  0  0  0  0  0  0  0  0  0
  141.0650   77.4450  222.0150 C   0  0  0  0  0  0  0  0  0  0  0  0
  140.5310   75.9970  222.1440 C   0  0  2  0  0  0  0  0  0  0  0  0
  141.4060   75.0930  221.4000 C   0  0  0  0  0  0  0  0  0  0  0  0
  141.4560   73.7250  221.5340 C   0  0  0  0  0  0  0  0  0  0  0  0
  142.3130   72.9380  220.7940 C   0  0  0  0  0  0  0  0  0  0  0  0
  143.1720   73.5000  219.8670 C   0  0  0  0  0  0  0  0  0  0  0  0
  144.0150   72.7330  219.1360 F   0  0  0  0  0  0  0  0  0  0  0  0
  143.1390   74.8630  219.7150 C   0  0  0  0  0  0  0  0  0  0  0  0
  142.2840   75.6390  220.4560 C   0  0  0  0  0  0  0  0  0  0  0  0
  138.7110   70.9720  223.0660 C   0  0  0  0  0  0  0  0  0  0  0  0
  138.4810   69.6320  223.0950 C   0  0  0  0  0  0  0  0  0  0  0  0
  138.9110   68.8770  224.1660 C   0  0  0  0  0  0  0  0  0  0  0  0
  139.5740   69.4640  225.2190 C   0  0  0  0  0  0  0  0  0  0  0  0
  140.0050   68.7070  226.2910 C   0  0  0  0  0  0  0  0  0  0  0  0
  140.6720   69.2860  227.3520 C   0  0  0  0  0  0  0  0  0  0  0  0
  141.2120   68.3150  228.7090 Cl  0  0  0  0  0  0  0  0  0  0  0  0
  140.8980   70.6620  227.3040 C   0  0  0  0  0  0  0  0  0  0  0  0
  140.4620   71.4160  226.2210 C   0  0  0  0  0  0  0  0  0  0  0  0
  139.7960   70.8340  225.1630 C   0  0  0  0  0  0  0  0  0  0  0  0
  139.3610   71.5270  224.1030 N   0  0  0  0  0  0  0  0  0  0  0  0
  138.5590   73.5910  222.9490 H   0  0  0  0  0  0  0  0  0  0  0  0
  137.8800   73.4934  220.0185 H   0  0  0  0  0  0  0  0  0  0  0  0
  136.7973   74.3897  221.2399 H   0  0  0  0  0  0  0  0  0  0  0  0
  138.0433   77.9560  221.6730 H   0  0  0  0  0  0  0  0  0  0  0  0
  138.1121   77.1278  223.2363 H   0  0  0  0  0  0  0  0  0  0  0  0
  139.8775   79.2183  222.3093 H   0  0  0  0  0  0  0  0  0  0  0  0
  140.1068   78.2880  223.7800 H   0  0  0  0  0  0  0  0  0  0  0  0
  141.1765   77.7473  220.9633 H   0  0  0  0  0  0  0  0  0  0  0  0
  142.0651   77.6109  222.4419 H   0  0  0  0  0  0  0  0  0  0  0  0
  140.5208   75.5321  223.1409 H   0  0  0  0  0  0  0  0  0  0  0  0
  140.7864   73.2400  222.2595 H   0  0  0  0  0  0  0  0  0  0  0  0
  142.3135   71.8481  220.9430 H   0  0  0  0  0  0  0  0  0  0  0  0
  143.8096   75.3420  218.9864 H   0  0  0  0  0  0  0  0  0  0  0  0
  142.2885   76.7283  220.3031 H   0  0  0  0  0  0  0  0  0  0  0  0
  137.9503   69.1487  222.2615 H   0  0  0  0  0  0  0  0  0  0  0  0
  138.7218   67.7935  224.1785 H   0  0  0  0  0  0  0  0  0  0  0  0
  139.8134   67.6238  226.2994 H   0  0  0  0  0  0  0  0  0  0  0  0
  141.4271   71.1555  228.1325 H   0  0  0  0  0  0  0  0  0  0  0  0
  140.6521   72.4994  226.2075 H   0  0  0  0  0  0  0  0  0  0  0  0
  1  2  2  0
  2  3  1  0
  3  4  1  0
  4  5  1  0
  5  6  2  0
  5  7  1  0
  7  8  1  0
  8  9  1  0
  9 10  1  0
 10 11  1  0
 11 12  1  0
 12 13  2  0
 13 14  1  0
 14 15  2  0
 15 16  1  0
 15 17  1  0
 17 18  2  0
  2 19  1  0
 19 20  2  0
 20 21  1  0
 21 22  2  0
 22 23  1  0
 23 24  2  0
 24 25  1  0
 24 26  1  0
 26 27  2  0
 27 28  1  0
 28 29  2  0
 11  7  1  0
 18 12  1  0
 29 19  1  0
 28 22  1  0
  3 30  1  0
  4 31  1  0
  4 32  1  0
  8 33  1  0
  8 34  1  0
  9 35  1  0
  9 36  1  0
 10 37  1  0
 10 38  1  0
 11 39  1  1
 13 40  1  0
 14 41  1  0
 17 42  1  0
 18 43  1  0
 20 44  1  0
 21 45  1  0
 23 46  1  0
 26 47  1  0
 27 48  1  0
M  END
>  <smiles>  (33) 
O=C(NCC(=O)N1CCCC1c1ccc(F)cc1)c1ccc2cc(Cl)ccc2n1

>  <score_type>  (33) 
oracle

>  <origin>  (33) 
autodockgpu

>  <m_score__min__energy>  (33) 
-8.8399999999999999

>  <m_primary>  (33) 
energy

>  <rmsd>  (33) 
2.5726170304807447

>  <m_score__min__rmsd>  (33) 
2.5726170304807447

>  <meeko>  (33) 
{"free_energy": -7.24, "intermolecular_energy": -8.73, "internal_energy": -1.95, "cluster_size": 22, "cluster_id": 3, "rank_in_cluster": 22}

>  <energy>  (33) 
-7.64

>  <cluster_rmsd>  (33) 
0.6

>  <cluster>  (33) 
3

$$$$

     RDKit          3D

 48 51  0  0  0  0  0  0  0  0999 V2000
  140.0690   71.9170  220.4060 O   0  0  0  0  0  0  0  0  0  0  0  0
  140.2080   72.4320  221.5490 C   0  0  0  0  0  0  0  0  0  0  0  0
  140.4260   73.8510  221.7030 N   0  0  0  0  0  0  0  0  0  0  0  0
  140.5090   74.7600  220.6080 C   0  0  0  0  0  0  0  0  0  0  0  0
  141.2120   76.0290  220.8200 C   0  0  0  0  0  0  0  0  0  0  0  0
  141.0460   76.4980  222.0260 O   0  0  0  0  0  0  0  0  0  0  0  0
  142.0100   76.7850  219.9610 N   0  0  0  0  0  0  0  0  0  0  0  0
  141.7940   78.1230  219.3860 C   0  0  0  0  0  0  0  0  0  0  0  0
  142.6330   78.1680  218.0980 C   0  0  0  0  0  0  0  0  0  0  0  0
  143.1320   76.7610  217.9490 C   0  0  0  0  0  0  0  0  0  0  0  0
  143.2920   76.3770  219.4410 C   0  0  2  0  0  0  0  0  0  0  0  0
  143.6360   74.9590  219.5390 C   0  0  0  0  0  0  0  0  0  0  0  0
  143.1000   73.9440  218.7820 C   0  0  0  0  0  0  0  0  0  0  0  0
  143.4770   72.6270  218.9340 C   0  0  0  0  0  0  0  0  0  0  0  0
  144.4280   72.2630  219.8700 C   0  0  0  0  0  0  0  0  0  0  0  0
  144.8020   70.9710  220.0240 F   0  0  0  0  0  0  0  0  0  0  0  0
  144.9770   73.2590  220.6370 C   0  0  0  0  0  0  0  0  0  0  0  0
  144.5960   74.5670  220.4800 C   0  0  0  0  0  0  0  0  0  0  0  0
  140.1470   71.5670  222.7420 C   0  0  0  0  0  0  0  0  0  0  0  0
  139.5880   70.3300  222.6580 C   0  0  0  0  0  0  0  0  0  0  0  0
  139.5290   69.5180  223.7710 C   0  0  0  0  0  0  0  0  0  0  0  0
  140.0310   69.9430  224.9790 C   0  0  0  0  0  0  0  0  0  0  0  0
  139.9720   69.1280  226.0930 C   0  0  0  0  0  0  0  0  0  0  0  0
  140.4740   69.5450  227.3100 C   0  0  0  0  0  0  0  0  0  0  0  0
  140.3920   68.5030  228.7180 Cl  0  0  0  0  0  0  0  0  0  0  0  0
  141.0440   70.8170  227.3760 C   0  0  0  0  0  0  0  0  0  0  0  0
  141.1000   71.6300  226.2500 C   0  0  0  0  0  0  0  0  0  0  0  0
  140.5970   71.2100  225.0360 C   0  0  0  0  0  0  0  0  0  0  0  0
  140.6330   71.9640  223.9300 N   0  0  0  0  0  0  0  0  0  0  0  0
  140.5210   74.1660  222.7110 H   0  0  0  0  0  0  0  0  0  0  0  0
  141.0192   74.2365  219.7860 H   0  0  0  0  0  0  0  0  0  0  0  0
  139.4665   75.0521  220.4131 H   0  0  0  0  0  0  0  0  0  0  0  0
  140.7291   78.2728  219.1545 H   0  0  0  0  0  0  0  0  0  0  0  0
  142.0885   78.9169  220.0881 H   0  0  0  0  0  0  0  0  0  0  0  0
  142.0136   78.4578  217.2364 H   0  0  0  0  0  0  0  0  0  0  0  0
  143.4471   78.9062  218.1453 H   0  0  0  0  0  0  0  0  0  0  0  0
  142.3992   76.1193  217.4380 H   0  0  0  0  0  0  0  0  0  0  0  0
  144.0423   76.6527  217.3411 H   0  0  0  0  0  0  0  0  0  0  0  0
  144.1036   76.8475  220.0154 H   0  0  0  0  0  0  0  0  0  0  0  0
  142.3409   74.1927  218.0258 H   0  0  0  0  0  0  0  0  0  0  0  0
  143.0149   71.8544  218.3019 H   0  0  0  0  0  0  0  0  0  0  0  0
  145.7361   73.0041  221.3911 H   0  0  0  0  0  0  0  0  0  0  0  0
  145.0608   75.3351  221.1155 H   0  0  0  0  0  0  0  0  0  0  0  0
  139.1816   69.9761  221.6991 H   0  0  0  0  0  0  0  0  0  0  0  0
  139.0753   68.5190  223.6918 H   0  0  0  0  0  0  0  0  0  0  0  0
  139.5174   68.1299  226.0091 H   0  0  0  0  0  0  0  0  0  0  0  0
  141.4537   71.1804  228.3300 H   0  0  0  0  0  0  0  0  0  0  0  0
  141.5546   72.6286  226.3285 H   0  0  0  0  0  0  0  0  0  0  0  0
  1  2  2  0
  2  3  1  0
  3  4  1  0
  4  5  1  0
  5  6  2  0
  5  7  1  0
  7  8  1  0
  8  9  1  0
  9 10  1  0
 10 11  1  0
 11 12  1  0
 12 13  2  0
 13 14  1  0
 14 15  2  0
 15 16  1  0
 15 17  1  0
 17 18  2  0
  2 19  1  0
 19 20  2  0
 20 21  1  0
 21 22  2  0
 22 23  1  0
 23 24  2  0
 24 25  1  0
 24 26  1  0
 26 27  2  0
 27 28  1  0
 28 29  2  0
 11  7  1  0
 18 12  1  0
 29 19  1  0
 28 22  1  0
  3 30  1  0
  4 31  1  0
  4 32  1  0
  8 33  1  0
  8 34  1  0
  9 35  1  0
  9 36  1  0
 10 37  1  0
 10 38  1  0
 11 39  1  1
 13 40  1  0
 14 41  1  0
 17 42  1  0
 18 43  1  0
 20 44  1  0
 21 45  1  0
 23 46  1  0
 26 47  1  0
 27 48  1  0
M  END
>  <smiles>  (34) 
O=C(NCC(=O)N1CCCC1c1ccc(F)cc1)c1ccc2cc(Cl)ccc2n1

>  <score_type>  (34) 
oracle

>  <origin>  (34) 
autodockgpu

>  <m_score__min__energy>  (34) 
-8.8399999999999999

>  <m_primary>  (34) 
energy

>  <rmsd>  (34) 
2.397603779924868

>  <m_score__min__rmsd>  (34) 
2.397603779924868

>  <meeko>  (34) 
{"free_energy": -7.6, "intermolecular_energy": -9.09, "internal_energy": -2.05, "cluster_size": 22, "cluster_id": 3, "rank_in_cluster": 18}

>  <energy>  (34) 
-7.63

>  <cluster_rmsd>  (34) 
0.28

>  <cluster>  (34) 
3

$$$$

     RDKit          3D

 48 51  0  0  0  0  0  0  0  0999 V2000
  133.3440   69.9770  226.5620 O   0  0  0  0  0  0  0  0  0  0  0  0
  133.7380   71.0820  226.1000 C   0  0  0  0  0  0  0  0  0  0  0  0
  134.7760   71.1410  225.0970 N   0  0  0  0  0  0  0  0  0  0  0  0
  135.4270   69.9880  224.5670 C   0  0  0  0  0  0  0  0  0  0  0  0
  136.7560   70.1630  223.9720 C   0  0  0  0  0  0  0  0  0  0  0  0
  137.2770   71.3280  224.2450 O   0  0  0  0  0  0  0  0  0  0  0  0
  137.5240   69.3030  223.1870 N   0  0  0  0  0  0  0  0  0  0  0  0
  137.1920   68.5930  221.9410 C   0  0  0  0  0  0  0  0  0  0  0  0
  138.1300   67.3750  221.8870 C   0  0  0  0  0  0  0  0  0  0  0  0
  138.8140   67.3950  223.2220 C   0  0  0  0  0  0  0  0  0  0  0  0
  138.8890   68.9240  223.4600 C   0  0  2  0  0  0  0  0  0  0  0  0
  139.4000   69.1770  224.8070 C   0  0  0  0  0  0  0  0  0  0  0  0
  139.9830   70.3440  225.2420 C   0  0  0  0  0  0  0  0  0  0  0  0
  140.4430   70.5060  226.5320 C   0  0  0  0  0  0  0  0  0  0  0  0
  140.3340   69.4860  227.4590 C   0  0  0  0  0  0  0  0  0  0  0  0
  140.7840   69.6390  228.7270 F   0  0  0  0  0  0  0  0  0  0  0  0
  139.7550   68.3130  227.0470 C   0  0  0  0  0  0  0  0  0  0  0  0
  139.3010   68.1580  225.7620 C   0  0  0  0  0  0  0  0  0  0  0  0
  133.1290   72.3300  226.5960 C   0  0  0  0  0  0  0  0  0  0  0  0
  131.9320   72.2940  227.2400 C   0  0  0  0  0  0  0  0  0  0  0  0
  131.3580   73.4570  227.7050 C   0  0  0  0  0  0  0  0  0  0  0  0
  131.9830   74.6700  227.5250 C   0  0  0  0  0  0  0  0  0  0  0  0
  131.4070   75.8360  227.9930 C   0  0  0  0  0  0  0  0  0  0  0  0
  132.0270   77.0580  227.8180 C   0  0  0  0  0  0  0  0  0  0  0  0
  131.2850   78.5310  228.4140 Cl  0  0  0  0  0  0  0  0  0  0  0  0
  133.2530   77.0750  227.1540 C   0  0  0  0  0  0  0  0  0  0  0  0
  133.8260   75.8970  226.6880 C   0  0  0  0  0  0  0  0  0  0  0  0
  133.2040   74.6780  226.8650 C   0  0  0  0  0  0  0  0  0  0  0  0
  133.7240   73.5230  226.4300 N   0  0  0  0  0  0  0  0  0  0  0  0
  135.0170   72.1240  224.7820 H   0  0  0  0  0  0  0  0  0  0  0  0
  135.5285   69.2628  225.3878 H   0  0  0  0  0  0  0  0  0  0  0  0
  134.7889   69.6719  223.7286 H   0  0  0  0  0  0  0  0  0  0  0  0
  136.1416   68.2667  221.9548 H   0  0  0  0  0  0  0  0  0  0  0  0
  137.3197   69.2404  221.0609 H   0  0  0  0  0  0  0  0  0  0  0  0
  137.5582   66.4449  221.7529 H   0  0  0  0  0  0  0  0  0  0  0  0
  138.8364   67.4174  221.0449 H   0  0  0  0  0  0  0  0  0  0  0  0
  138.2162   66.8899  223.9950 H   0  0  0  0  0  0  0  0  0  0  0  0
  139.7810   66.8718  223.2561 H   0  0  0  0  0  0  0  0  0  0  0  0
  139.5802   69.5146  222.8408 H   0  0  0  0  0  0  0  0  0  0  0  0
  140.0864   71.1798  224.5344 H   0  0  0  0  0  0  0  0  0  0  0  0
  140.9032   71.4604  226.8276 H   0  0  0  0  0  0  0  0  0  0  0  0
  139.6529   67.4815  227.7599 H   0  0  0  0  0  0  0  0  0  0  0  0
  138.8436   67.2006  225.4719 H   0  0  0  0  0  0  0  0  0  0  0  0
  131.4197   71.3322  227.3904 H   0  0  0  0  0  0  0  0  0  0  0  0
  130.3899   73.4157  228.2257 H   0  0  0  0  0  0  0  0  0  0  0  0
  130.4390   75.7902  228.5134 H   0  0  0  0  0  0  0  0  0  0  0  0
  133.7729   78.0316  226.9970 H   0  0  0  0  0  0  0  0  0  0  0  0
  134.7944   75.9376  226.1679 H   0  0  0  0  0  0  0  0  0  0  0  0
  1  2  2  0
  2  3  1  0
  3  4  1  0
  4  5  1  0
  5  6  2  0
  5  7  1  0
  7  8  1  0
  8  9  1  0
  9 10  1  0
 10 11  1  0
 11 12  1  0
 12 13  2  0
 13 14  1  0
 14 15  2  0
 15 16  1  0
 15 17  1  0
 17 18  2  0
  2 19  1  0
 19 20  2  0
 20 21  1  0
 21 22  2  0
 22 23  1  0
 23 24  2  0
 24 25  1  0
 24 26  1  0
 26 27  2  0
 27 28  1  0
 28 29  2  0
 11  7  1  0
 18 12  1  0
 29 19  1  0
 28 22  1  0
  3 30  1  0
  4 31  1  0
  4 32  1  0
  8 33  1  0
  8 34  1  0
  9 35  1  0
  9 36  1  0
 10 37  1  0
 10 38  1  0
 11 39  1  6
 13 40  1  0
 14 41  1  0
 17 42  1  0
 18 43  1  0
 20 44  1  0
 21 45  1  0
 23 46  1  0
 26 47  1  0
 27 48  1  0
M  END
>  <smiles>  (35) 
O=C(NCC(=O)N1CCCC1c1ccc(F)cc1)c1ccc2cc(Cl)ccc2n1

>  <score_type>  (35) 
oracle

>  <origin>  (35) 
autodockgpu

>  <m_score__min__energy>  (35) 
-8.8399999999999999

>  <m_primary>  (35) 
energy

>  <rmsd>  (35) 
8.79663824307784

>  <m_score__min__rmsd>  (35) 
8.79663824307784

>  <meeko>  (35) 
{"free_energy": -7.85, "intermolecular_energy": -9.34, "internal_energy": -1.74, "cluster_size": 9, "cluster_id": 1, "rank_in_cluster": 8}

>  <energy>  (35) 
-7.63

>  <cluster_rmsd>  (35) 
0.43

>  <cluster>  (35) 
3

$$$$

     RDKit          3D

 48 51  0  0  0  0  0  0  0  0999 V2000
  140.0810   72.0940  220.6300 O   0  0  0  0  0  0  0  0  0  0  0  0
  140.0390   72.5510  221.8040 C   0  0  0  0  0  0  0  0  0  0  0  0
  139.9790   73.9740  222.0460 N   0  0  0  0  0  0  0  0  0  0  0  0
  139.9720   74.9510  221.0080 C   0  0  0  0  0  0  0  0  0  0  0  0
  140.8780   76.0970  221.1370 C   0  0  0  0  0  0  0  0  0  0  0  0
  140.9670   76.5280  222.3650 O   0  0  0  0  0  0  0  0  0  0  0  0
  141.6370   76.7710  220.1800 N   0  0  0  0  0  0  0  0  0  0  0  0
  141.3790   78.0380  219.4750 C   0  0  0  0  0  0  0  0  0  0  0  0
  142.1820   77.9610  218.1660 C   0  0  0  0  0  0  0  0  0  0  0  0
  142.7050   76.5550  218.1520 C   0  0  0  0  0  0  0  0  0  0  0  0
  142.9130   76.3330  219.6700 C   0  0  2  0  0  0  0  0  0  0  0  0
  143.2880   74.9390  219.9060 C   0  0  0  0  0  0  0  0  0  0  0  0
  144.3590   74.5070  220.6530 C   0  0  0  0  0  0  0  0  0  0  0  0
  144.6490   73.1710  220.8280 C   0  0  0  0  0  0  0  0  0  0  0  0
  143.8610   72.1910  220.2530 C   0  0  0  0  0  0  0  0  0  0  0  0
  144.1400   70.8770  220.4230 F   0  0  0  0  0  0  0  0  0  0  0  0
  142.7860   72.5980  219.5050 C   0  0  0  0  0  0  0  0  0  0  0  0
  142.5040   73.9300  219.3340 C   0  0  0  0  0  0  0  0  0  0  0  0
  140.0520   71.6150  222.9440 C   0  0  0  0  0  0  0  0  0  0  0  0
  139.5650   70.3540  222.7950 C   0  0  0  0  0  0  0  0  0  0  0  0
  139.5750   69.4760  223.8570 C   0  0  0  0  0  0  0  0  0  0  0  0
  140.0750   69.8580  225.0810 C   0  0  0  0  0  0  0  0  0  0  0  0
  140.0850   68.9770  226.1450 C   0  0  0  0  0  0  0  0  0  0  0  0
  140.5850   69.3510  227.3770 C   0  0  0  0  0  0  0  0  0  0  0  0
  140.5910   68.2240  228.7200 Cl  0  0  0  0  0  0  0  0  0  0  0  0
  141.0790   70.6480  227.5110 C   0  0  0  0  0  0  0  0  0  0  0  0
  141.0660   71.5280  226.4340 C   0  0  0  0  0  0  0  0  0  0  0  0
  140.5660   71.1510  225.2050 C   0  0  0  0  0  0  0  0  0  0  0  0
  140.5360   71.9700  224.1460 N   0  0  0  0  0  0  0  0  0  0  0  0
  139.9400   74.2360  223.0730 H   0  0  0  0  0  0  0  0  0  0  0  0
  140.2282   74.4350  220.0709 H   0  0  0  0  0  0  0  0  0  0  0  0
  138.9644   75.3903  221.0501 H   0  0  0  0  0  0  0  0  0  0  0  0
  140.3055   78.1448  219.2600 H   0  0  0  0  0  0  0  0  0  0  0  0
  141.6763   78.9062  220.0815 H   0  0  0  0  0  0  0  0  0  0  0  0
  141.5341   78.1472  217.2968 H   0  0  0  0  0  0  0  0  0  0  0  0
  142.9820   78.7140  218.1117 H   0  0  0  0  0  0  0  0  0  0  0  0
  141.9717   75.8504  217.7327 H   0  0  0  0  0  0  0  0  0  0  0  0
  143.6009   76.3991  217.5330 H   0  0  0  0  0  0  0  0  0  0  0  0
  143.7300   76.8750  220.1687 H   0  0  0  0  0  0  0  0  0  0  0  0
  145.0088   75.2562  221.1288 H   0  0  0  0  0  0  0  0  0  0  0  0
  145.5199   72.8802  221.4338 H   0  0  0  0  0  0  0  0  0  0  0  0
  142.1386   71.8437  219.0340 H   0  0  0  0  0  0  0  0  0  0  0  0
  141.6321   74.2147  218.7267 H   0  0  0  0  0  0  0  0  0  0  0  0
  139.1616   70.0337  221.8231 H   0  0  0  0  0  0  0  0  0  0  0  0
  139.1789   68.4583  223.7250 H   0  0  0  0  0  0  0  0  0  0  0  0
  139.6880   67.9602  226.0087 H   0  0  0  0  0  0  0  0  0  0  0  0
  141.4834   70.9788  228.4790 H   0  0  0  0  0  0  0  0  0  0  0  0
  141.4626   72.5456  226.5650 H   0  0  0  0  0  0  0  0  0  0  0  0
  1  2  2  0
  2  3  1  0
  3  4  1  0
  4  5  1  0
  5  6  2  0
  5  7  1  0
  7  8  1  0
  8  9  1  0
  9 10  1  0
 10 11  1  0
 11 12  1  0
 12 13  2  0
 13 14  1  0
 14 15  2  0
 15 16  1  0
 15 17  1  0
 17 18  2  0
  2 19  1  0
 19 20  2  0
 20 21  1  0
 21 22  2  0
 22 23  1  0
 23 24  2  0
 24 25  1  0
 24 26  1  0
 26 27  2  0
 27 28  1  0
 28 29  2  0
 11  7  1  0
 18 12  1  0
 29 19  1  0
 28 22  1  0
  3 30  1  0
  4 31  1  0
  4 32  1  0
  8 33  1  0
  8 34  1  0
  9 35  1  0
  9 36  1  0
 10 37  1  0
 10 38  1  0
 11 39  1  1
 13 40  1  0
 14 41  1  0
 17 42  1  0
 18 43  1  0
 20 44  1  0
 21 45  1  0
 23 46  1  0
 26 47  1  0
 27 48  1  0
M  END
>  <smiles>  (36) 
O=C(NCC(=O)N1CCCC1c1ccc(F)cc1)c1ccc2cc(Cl)ccc2n1

>  <score_type>  (36) 
oracle

>  <origin>  (36) 
autodockgpu

>  <m_score__min__energy>  (36) 
-8.8399999999999999

>  <m_primary>  (36) 
energy

>  <rmsd>  (36) 
2.1647110242331538

>  <m_score__min__rmsd>  (36) 
2.1647110242331538

>  <meeko>  (36) 
{"free_energy": -7.7, "intermolecular_energy": -9.19, "internal_energy": -2.02, "cluster_size": 22, "cluster_id": 3, "rank_in_cluster": 12}

>  <energy>  (36) 
-7.6

>  <cluster_rmsd>  (36) 
0.55

>  <cluster>  (36) 
3

$$$$

     RDKit          3D

 48 51  0  0  0  0  0  0  0  0999 V2000
  140.2930   72.3930  220.6080 O   0  0  0  0  0  0  0  0  0  0  0  0
  140.1280   72.8450  221.7740 C   0  0  0  0  0  0  0  0  0  0  0  0
  139.9750   74.2620  222.0070 N   0  0  0  0  0  0  0  0  0  0  0  0
  140.0030   75.2400  220.9690 C   0  0  0  0  0  0  0  0  0  0  0  0
  140.9340   76.3640  221.1100 C   0  0  0  0  0  0  0  0  0  0  0  0
  141.0660   76.7510  222.3490 O   0  0  0  0  0  0  0  0  0  0  0  0
  141.6780   77.0580  220.1560 N   0  0  0  0  0  0  0  0  0  0  0  0
  141.4300   78.3580  219.5110 C   0  0  0  0  0  0  0  0  0  0  0  0
  142.1870   78.3150  218.1730 C   0  0  0  0  0  0  0  0  0  0  0  0
  142.6700   76.8970  218.0840 C   0  0  0  0  0  0  0  0  0  0  0  0
  142.9230   76.6080  219.5850 C   0  0  2  0  0  0  0  0  0  0  0  0
  143.2690   75.1970  219.7510 C   0  0  0  0  0  0  0  0  0  0  0  0
  142.5540   74.1280  219.2620 C   0  0  0  0  0  0  0  0  0  0  0  0
  142.9460   72.8210  219.4620 C   0  0  0  0  0  0  0  0  0  0  0  0
  144.0930   72.5240  220.1740 C   0  0  0  0  0  0  0  0  0  0  0  0
  144.4820   71.2420  220.3740 F   0  0  0  0  0  0  0  0  0  0  0  0
  144.8220   73.5740  220.6720 C   0  0  0  0  0  0  0  0  0  0  0  0
  144.4260   74.8720  220.4690 C   0  0  0  0  0  0  0  0  0  0  0  0
  140.0950   71.9090  222.9140 C   0  0  0  0  0  0  0  0  0  0  0  0
  139.5770   70.6620  222.7540 C   0  0  0  0  0  0  0  0  0  0  0  0
  139.5430   69.7830  223.8150 C   0  0  0  0  0  0  0  0  0  0  0  0
  140.0300   70.1510  225.0490 C   0  0  0  0  0  0  0  0  0  0  0  0
  139.9960   69.2690  226.1120 C   0  0  0  0  0  0  0  0  0  0  0  0
  140.4830   69.6290  227.3540 C   0  0  0  0  0  0  0  0  0  0  0  0
  140.4330   68.5020  228.6960 Cl  0  0  0  0  0  0  0  0  0  0  0  0
  141.0100   70.9130  227.4970 C   0  0  0  0  0  0  0  0  0  0  0  0
  141.0400   71.7940  226.4210 C   0  0  0  0  0  0  0  0  0  0  0  0
  140.5540   71.4310  225.1830 C   0  0  0  0  0  0  0  0  0  0  0  0
  140.5660   72.2500  224.1250 N   0  0  0  0  0  0  0  0  0  0  0  0
  139.8360   74.5200  223.0260 H   0  0  0  0  0  0  0  0  0  0  0  0
  140.2581   74.7187  220.0346 H   0  0  0  0  0  0  0  0  0  0  0  0
  139.0055   75.7027  220.9991 H   0  0  0  0  0  0  0  0  0  0  0  0
  140.3531   78.4998  219.3371 H   0  0  0  0  0  0  0  0  0  0  0  0
  141.7699   79.1932  220.1410 H   0  0  0  0  0  0  0  0  0  0  0  0
  141.5162   78.5544  217.3347 H   0  0  0  0  0  0  0  0  0  0  0  0
  143.0052   79.0484  218.1220 H   0  0  0  0  0  0  0  0  0  0  0  0
  141.9036   76.2298  217.6627 H   0  0  0  0  0  0  0  0  0  0  0  0
  143.5395   76.7427  217.4281 H   0  0  0  0  0  0  0  0  0  0  0  0
  143.7702   77.1079  220.0773 H   0  0  0  0  0  0  0  0  0  0  0  0
  141.6350   74.3232  218.6899 H   0  0  0  0  0  0  0  0  0  0  0  0
  142.3372   72.0032  219.0491 H   0  0  0  0  0  0  0  0  0  0  0  0
  145.7397   73.3719  221.2438 H   0  0  0  0  0  0  0  0  0  0  0  0
  145.0389   75.6853  220.8848 H   0  0  0  0  0  0  0  0  0  0  0  0
  139.1836   70.3536  221.7741 H   0  0  0  0  0  0  0  0  0  0  0  0
  139.1222   68.7765  223.6743 H   0  0  0  0  0  0  0  0  0  0  0  0
  139.5742   68.2635  225.9671 H   0  0  0  0  0  0  0  0  0  0  0  0
  141.4064   71.2323  228.4721 H   0  0  0  0  0  0  0  0  0  0  0  0
  141.4601   72.8010  226.5608 H   0  0  0  0  0  0  0  0  0  0  0  0
  1  2  2  0
  2  3  1  0
  3  4  1  0
  4  5  1  0
  5  6  2  0
  5  7  1  0
  7  8  1  0
  8  9  1  0
  9 10  1  0
 10 11  1  0
 11 12  1  0
 12 13  2  0
 13 14  1  0
 14 15  2  0
 15 16  1  0
 15 17  1  0
 17 18  2  0
  2 19  1  0
 19 20  2  0
 20 21  1  0
 21 22  2  0
 22 23  1  0
 23 24  2  0
 24 25  1  0
 24 26  1  0
 26 27  2  0
 27 28  1  0
 28 29  2  0
 11  7  1  0
 18 12  1  0
 29 19  1  0
 28 22  1  0
  3 30  1  0
  4 31  1  0
  4 32  1  0
  8 33  1  0
  8 34  1  0
  9 35  1  0
  9 36  1  0
 10 37  1  0
 10 38  1  0
 11 39  1  1
 13 40  1  0
 14 41  1  0
 17 42  1  0
 18 43  1  0
 20 44  1  0
 21 45  1  0
 23 46  1  0
 26 47  1  0
 27 48  1  0
M  END
>  <smiles>  (37) 
O=C(NCC(=O)N1CCCC1c1ccc(F)cc1)c1ccc2cc(Cl)ccc2n1

>  <score_type>  (37) 
oracle

>  <origin>  (37) 
autodockgpu

>  <m_score__min__energy>  (37) 
-8.8399999999999999

>  <m_primary>  (37) 
energy

>  <rmsd>  (37) 
2.3233628220122733

>  <m_score__min__rmsd>  (37) 
2.3233628220122733

>  <meeko>  (37) 
{"free_energy": -7.88, "intermolecular_energy": -9.37, "internal_energy": -1.95, "cluster_size": 22, "cluster_id": 3, "rank_in_cluster": 6}

>  <energy>  (37) 
-7.59

>  <cluster_rmsd>  (37) 
1.57

>  <cluster>  (37) 
3

$$$$

     RDKit          3D

 48 51  0  0  0  0  0  0  0  0999 V2000
  133.8880   69.2390  226.4540 O   0  0  0  0  0  0  0  0  0  0  0  0
  134.3950   70.3440  226.1180 C   0  0  0  0  0  0  0  0  0  0  0  0
  135.6320   70.3980  225.3750 N   0  0  0  0  0  0  0  0  0  0  0  0
  136.3660   69.2420  224.9780 C   0  0  0  0  0  0  0  0  0  0  0  0
  137.4950   69.4270  224.0610 C   0  0  0  0  0  0  0  0  0  0  0  0
  137.8150   68.3290  223.4330 O   0  0  0  0  0  0  0  0  0  0  0  0
  138.2530   70.5600  223.7640 N   0  0  0  0  0  0  0  0  0  0  0  0
  138.2520   71.4240  222.5720 C   0  0  0  0  0  0  0  0  0  0  0  0
  139.6410   72.0810  222.5270 C   0  0  0  0  0  0  0  0  0  0  0  0
  140.3970   71.3880  223.6220 C   0  0  0  0  0  0  0  0  0  0  0  0
  139.2450   71.1480  224.6290 C   0  0  2  0  0  0  0  0  0  0  0  0
  139.7370   70.3330  225.7390 C   0  0  0  0  0  0  0  0  0  0  0  0
  139.9310   70.7610  227.0310 C   0  0  0  0  0  0  0  0  0  0  0  0
  140.4010   69.9290  228.0250 C   0  0  0  0  0  0  0  0  0  0  0  0
  140.7010   68.6050  227.7610 C   0  0  0  0  0  0  0  0  0  0  0  0
  141.1630   67.7830  228.7330 F   0  0  0  0  0  0  0  0  0  0  0  0
  140.5150   68.1550  226.4780 C   0  0  0  0  0  0  0  0  0  0  0  0
  140.0480   68.9900  225.4950 C   0  0  0  0  0  0  0  0  0  0  0  0
  133.7120   71.5960  226.4940 C   0  0  0  0  0  0  0  0  0  0  0  0
  132.5580   71.5510  227.2120 C   0  0  0  0  0  0  0  0  0  0  0  0
  131.9150   72.7180  227.5660 C   0  0  0  0  0  0  0  0  0  0  0  0
  132.4270   73.9420  227.1990 C   0  0  0  0  0  0  0  0  0  0  0  0
  131.7820   75.1110  227.5550 C   0  0  0  0  0  0  0  0  0  0  0  0
  132.2880   76.3440  227.1930 C   0  0  0  0  0  0  0  0  0  0  0  0
  131.4600   77.8210  227.6480 Cl  0  0  0  0  0  0  0  0  0  0  0  0
  133.4720   76.3690  226.4550 C   0  0  0  0  0  0  0  0  0  0  0  0
  134.1150   75.1870  226.1030 C   0  0  0  0  0  0  0  0  0  0  0  0
  133.6070   73.9580  226.4670 C   0  0  0  0  0  0  0  0  0  0  0  0
  134.1970   72.7990  226.1460 N   0  0  0  0  0  0  0  0  0  0  0  0
  135.9550   71.3820  225.1450 H   0  0  0  0  0  0  0  0  0  0  0  0
  136.7600   68.7743  225.8923 H   0  0  0  0  0  0  0  0  0  0  0  0
  135.6437   68.6393  224.4078 H   0  0  0  0  0  0  0  0  0  0  0  0
  138.0825   70.8248  221.6652 H   0  0  0  0  0  0  0  0  0  0  0  0
  137.4507   72.1761  222.6190 H   0  0  0  0  0  0  0  0  0  0  0  0
  140.1223   71.9148  221.5519 H   0  0  0  0  0  0  0  0  0  0  0  0
  139.6013   73.1722  222.6605 H   0  0  0  0  0  0  0  0  0  0  0  0
  140.8418   70.4430  223.2769 H   0  0  0  0  0  0  0  0  0  0  0  0
  141.2543   71.9493  224.0219 H   0  0  0  0  0  0  0  0  0  0  0  0
  138.8244   72.0172  225.1559 H   0  0  0  0  0  0  0  0  0  0  0  0
  139.7025   71.8075  227.2814 H   0  0  0  0  0  0  0  0  0  0  0  0
  140.5393   70.3239  229.0423 H   0  0  0  0  0  0  0  0  0  0  0  0
  140.7442   67.1072  226.2338 H   0  0  0  0  0  0  0  0  0  0  0  0
  139.9131   68.5902  224.4791 H   0  0  0  0  0  0  0  0  0  0  0  0
  132.1362   70.5802  227.5114 H   0  0  0  0  0  0  0  0  0  0  0  0
  130.9828   72.6706  228.1480 H   0  0  0  0  0  0  0  0  0  0  0  0
  130.8498   75.0587  228.1365 H   0  0  0  0  0  0  0  0  0  0  0  0
  133.9015   77.3341  226.1483 H   0  0  0  0  0  0  0  0  0  0  0  0
  135.0480   75.2336  225.5223 H   0  0  0  0  0  0  0  0  0  0  0  0
  1  2  2  0
  2  3  1  0
  3  4  1  0
  4  5  1  0
  5  6  2  0
  5  7  1  0
  7  8  1  0
  8  9  1  0
  9 10  1  0
 10 11  1  0
 11 12  1  0
 12 13  2  0
 13 14  1  0
 14 15  2  0
 15 16  1  0
 15 17  1  0
 17 18  2  0
  2 19  1  0
 19 20  2  0
 20 21  1  0
 21 22  2  0
 22 23  1  0
 23 24  2  0
 24 25  1  0
 24 26  1  0
 26 27  2  0
 27 28  1  0
 28 29  2  0
 11  7  1  0
 18 12  1  0
 29 19  1  0
 28 22  1  0
  3 30  1  0
  4 31  1  0
  4 32  1  0
  8 33  1  0
  8 34  1  0
  9 35  1  0
  9 36  1  0
 10 37  1  0
 10 38  1  0
 11 39  1  1
 13 40  1  0
 14 41  1  0
 17 42  1  0
 18 43  1  0
 20 44  1  0
 21 45  1  0
 23 46  1  0
 26 47  1  0
 27 48  1  0
M  END
>  <smiles>  (38) 
O=C(NCC(=O)N1CCCC1c1ccc(F)cc1)c1ccc2cc(Cl)ccc2n1

>  <score_type>  (38) 
oracle

>  <origin>  (38) 
autodockgpu

>  <m_score__min__energy>  (38) 
-8.8399999999999999

>  <m_primary>  (38) 
energy

>  <rmsd>  (38) 
7.728365277572871

>  <m_score__min__rmsd>  (38) 
7.728365277572871

>  <meeko>  (38) 
{"free_energy": -8.23, "intermolecular_energy": -9.72, "internal_energy": -1.47, "cluster_size": 9, "cluster_id": 1, "rank_in_cluster": 7}

>  <energy>  (38) 
-7.39

>  <cluster_rmsd>  (38) 
1.67

>  <cluster>  (38) 
3

$$$$

     RDKit          3D

 48 51  0  0  0  0  0  0  0  0999 V2000
  140.2440   74.0790  222.0040 O   0  0  0  0  0  0  0  0  0  0  0  0
  140.1780   72.8390  221.7860 C   0  0  0  0  0  0  0  0  0  0  0  0
  140.1450   72.3220  220.4380 N   0  0  0  0  0  0  0  0  0  0  0  0
  140.1750   73.1460  219.2750 C   0  0  0  0  0  0  0  0  0  0  0  0
  141.4770   73.4090  218.6530 C   0  0  0  0  0  0  0  0  0  0  0  0
  141.3690   73.7960  217.4120 O   0  0  0  0  0  0  0  0  0  0  0  0
  142.7700   73.3170  219.1690 N   0  0  0  0  0  0  0  0  0  0  0  0
  143.5470   72.1410  219.5960 C   0  0  0  0  0  0  0  0  0  0  0  0
  144.5810   72.6640  220.6060 C   0  0  0  0  0  0  0  0  0  0  0  0
  144.1860   74.0980  220.8080 C   0  0  0  0  0  0  0  0  0  0  0  0
  143.6580   74.4310  219.3910 C   0  0  2  0  0  0  0  0  0  0  0  0
  143.0690   75.7690  219.3980 C   0  0  0  0  0  0  0  0  0  0  0  0
  143.2930   76.7550  218.4660 C   0  0  0  0  0  0  0  0  0  0  0  0
  142.6990   77.9970  218.5430 C   0  0  0  0  0  0  0  0  0  0  0  0
  141.8370   78.3090  219.5780 C   0  0  0  0  0  0  0  0  0  0  0  0
  141.2500   79.5270  219.6590 F   0  0  0  0  0  0  0  0  0  0  0  0
  141.5980   77.3410  220.5200 C   0  0  0  0  0  0  0  0  0  0  0  0
  142.1940   76.1080  220.4370 C   0  0  0  0  0  0  0  0  0  0  0  0
  140.1330   71.9070  222.9280 C   0  0  0  0  0  0  0  0  0  0  0  0
  139.5840   70.6710  222.7770 C   0  0  0  0  0  0  0  0  0  0  0  0
  139.5400   69.7970  223.8420 C   0  0  0  0  0  0  0  0  0  0  0  0
  140.0450   70.1580  225.0700 C   0  0  0  0  0  0  0  0  0  0  0  0
  139.9990   69.2800  226.1370 C   0  0  0  0  0  0  0  0  0  0  0  0
  140.5050   69.6330  227.3730 C   0  0  0  0  0  0  0  0  0  0  0  0
  140.4400   68.5110  228.7190 Cl  0  0  0  0  0  0  0  0  0  0  0  0
  141.0620   70.9040  227.5080 C   0  0  0  0  0  0  0  0  0  0  0  0
  141.1040   71.7810  226.4290 C   0  0  0  0  0  0  0  0  0  0  0  0
  140.5990   71.4250  225.1960 C   0  0  0  0  0  0  0  0  0  0  0  0
  140.6210   72.2410  224.1340 N   0  0  0  0  0  0  0  0  0  0  0  0
  140.0970   71.2640  220.3830 H   0  0  0  0  0  0  0  0  0  0  0  0
  139.5408   72.6645  218.5161 H   0  0  0  0  0  0  0  0  0  0  0  0
  139.8334   74.1309  219.6262 H   0  0  0  0  0  0  0  0  0  0  0  0
  142.8885   71.3994  220.0717 H   0  0  0  0  0  0  0  0  0  0  0  0
  144.0314   71.6449  218.7420 H   0  0  0  0  0  0  0  0  0  0  0  0
  144.5240   72.1044  221.5513 H   0  0  0  0  0  0  0  0  0  0  0  0
  145.6167   72.5525  220.2527 H   0  0  0  0  0  0  0  0  0  0  0  0
  143.4010   74.2019  221.5715 H   0  0  0  0  0  0  0  0  0  0  0  0
  144.9910   74.7547  221.1697 H   0  0  0  0  0  0  0  0  0  0  0  0
  144.3852   74.5087  218.5693 H   0  0  0  0  0  0  0  0  0  0  0  0
  143.9722   76.5448  217.6267 H   0  0  0  0  0  0  0  0  0  0  0  0
  142.9139   78.7499  217.7704 H   0  0  0  0  0  0  0  0  0  0  0  0
  140.9169   77.5570  221.3563 H   0  0  0  0  0  0  0  0  0  0  0  0
  141.9768   75.3599  221.2137 H   0  0  0  0  0  0  0  0  0  0  0  0
  139.1741   70.3685  221.8021 H   0  0  0  0  0  0  0  0  0  0  0  0
  139.0960   68.7994  223.7086 H   0  0  0  0  0  0  0  0  0  0  0  0
  139.5522   68.2843  225.9995 H   0  0  0  0  0  0  0  0  0  0  0  0
  141.4731   71.2170  228.4791 H   0  0  0  0  0  0  0  0  0  0  0  0
  141.5488   72.7782  226.5619 H   0  0  0  0  0  0  0  0  0  0  0  0
  1  2  2  0
  2  3  1  0
  3  4  1  0
  4  5  1  0
  5  6  2  0
  5  7  1  0
  7  8  1  0
  8  9  1  0
  9 10  1  0
 10 11  1  0
 11 12  1  0
 12 13  2  0
 13 14  1  0
 14 15  2  0
 15 16  1  0
 15 17  1  0
 17 18  2  0
  2 19  1  0
 19 20  2  0
 20 21  1  0
 21 22  2  0
 22 23  1  0
 23 24  2  0
 24 25  1  0
 24 26  1  0
 26 27  2  0
 27 28  1  0
 28 29  2  0
 11  7  1  0
 18 12  1  0
 29 19  1  0
 28 22  1  0
  3 30  1  0
  4 31  1  0
  4 32  1  0
  8 33  1  0
  8 34  1  0
  9 35  1  0
  9 36  1  0
 10 37  1  0
 10 38  1  0
 11 39  1  6
 13 40  1  0
 14 41  1  0
 17 42  1  0
 18 43  1  0
 20 44  1  0
 21 45  1  0
 23 46  1  0
 26 47  1  0
 27 48  1  0
M  END
>  <smiles>  (39) 
O=C(NCC(=O)N1CCCC1c1ccc(F)cc1)c1ccc2cc(Cl)ccc2n1

>  <score_type>  (39) 
oracle

>  <origin>  (39) 
autodockgpu

>  <m_score__min__energy>  (39) 
-8.8399999999999999

>  <m_primary>  (39) 
energy

>  <rmsd>  (39) 
3.4903627574142844

>  <m_score__min__rmsd>  (39) 
3.4903627574142844

>  <meeko>  (39) 
{"free_energy": -7.57, "intermolecular_energy": -9.06, "internal_energy": -1.7, "cluster_size": 4, "cluster_id": 6, "rank_in_cluster": 1}

>  <energy>  (39) 
-7.38

>  <cluster_rmsd>  (39) 
0.43

>  <cluster>  (39) 
3

$$$$

     RDKit          3D

 48 51  0  0  0  0  0  0  0  0999 V2000
  140.0100   72.3520  220.9650 O   0  0  0  0  0  0  0  0  0  0  0  0
  139.2890   72.4210  221.9980 C   0  0  0  0  0  0  0  0  0  0  0  0
  138.2320   73.4000  222.1020 N   0  0  0  0  0  0  0  0  0  0  0  0
  137.9300   74.3470  221.0790 C   0  0  0  0  0  0  0  0  0  0  0  0
  138.9190   75.3900  220.7950 C   0  0  0  0  0  0  0  0  0  0  0  0
  139.2610   75.4270  219.5360 O   0  0  0  0  0  0  0  0  0  0  0  0
  139.5290   76.3220  221.6360 N   0  0  0  0  0  0  0  0  0  0  0  0
  138.9410   77.3640  222.4930 C   0  0  0  0  0  0  0  0  0  0  0  0
  140.0350   78.4300  222.6720 C   0  0  0  0  0  0  0  0  0  0  0  0
  141.1220   77.9830  221.7390 C   0  0  0  0  0  0  0  0  0  0  0  0
  140.9500   76.4470  221.8480 C   0  0  2  0  0  0  0  0  0  0  0  0
  141.8330   75.7950  220.8820 C   0  0  0  0  0  0  0  0  0  0  0  0
  142.1380   74.4540  220.8440 C   0  0  0  0  0  0  0  0  0  0  0  0
  142.9840   73.9130  219.8990 C   0  0  0  0  0  0  0  0  0  0  0  0
  143.5700   74.7080  218.9310 C   0  0  0  0  0  0  0  0  0  0  0  0
  144.4010   74.1820  218.0000 F   0  0  0  0  0  0  0  0  0  0  0  0
  143.2800   76.0480  218.9490 C   0  0  0  0  0  0  0  0  0  0  0  0
  142.4390   76.5800  219.8930 C   0  0  0  0  0  0  0  0  0  0  0  0
  139.5340   71.4880  223.1130 C   0  0  0  0  0  0  0  0  0  0  0  0
  139.2200   70.1710  222.9800 C   0  0  0  0  0  0  0  0  0  0  0  0
  139.4470   69.2950  224.0190 C   0  0  0  0  0  0  0  0  0  0  0  0
  139.9910   69.7350  225.2040 C   0  0  0  0  0  0  0  0  0  0  0  0
  140.2190   68.8550  226.2450 C   0  0  0  0  0  0  0  0  0  0  0  0
  140.7660   69.2870  227.4380 C   0  0  0  0  0  0  0  0  0  0  0  0
  141.0480   68.1620  228.7520 Cl  0  0  0  0  0  0  0  0  0  0  0  0
  141.0800   70.6410  227.5550 C   0  0  0  0  0  0  0  0  0  0  0  0
  140.8480   71.5190  226.5020 C   0  0  0  0  0  0  0  0  0  0  0  0
  140.3030   71.0840  225.3130 C   0  0  0  0  0  0  0  0  0  0  0  0
  140.0650   71.8990  224.2770 N   0  0  0  0  0  0  0  0  0  0  0  0
  137.6910   73.3560  223.0130 H   0  0  0  0  0  0  0  0  0  0  0  0
  137.7719   73.7835  220.1476 H   0  0  0  0  0  0  0  0  0  0  0  0
  137.0548   74.8939  221.4598 H   0  0  0  0  0  0  0  0  0  0  0  0
  138.0554   77.8021  222.0096 H   0  0  0  0  0  0  0  0  0  0  0  0
  138.6143   76.9544  223.4602 H   0  0  0  0  0  0  0  0  0  0  0  0
  139.6620   79.4261  222.3914 H   0  0  0  0  0  0  0  0  0  0  0  0
  140.3770   78.5197  223.7136 H   0  0  0  0  0  0  0  0  0  0  0  0
  140.9531   78.3415  220.7129 H   0  0  0  0  0  0  0  0  0  0  0  0
  142.1272   78.3566  221.9837 H   0  0  0  0  0  0  0  0  0  0  0  0
  141.2397   75.9556  222.7885 H   0  0  0  0  0  0  0  0  0  0  0  0
  141.6899   73.7880  221.5961 H   0  0  0  0  0  0  0  0  0  0  0  0
  143.1958   72.8337  219.9154 H   0  0  0  0  0  0  0  0  0  0  0  0
  143.7298   76.7082  218.1929 H   0  0  0  0  0  0  0  0  0  0  0  0
  142.2334   77.6604  219.8726 H   0  0  0  0  0  0  0  0  0  0  0  0
  138.7833   69.8041  222.0394 H   0  0  0  0  0  0  0  0  0  0  0  0
  139.1905   68.2320  223.8999 H   0  0  0  0  0  0  0  0  0  0  0  0
  139.9607   67.7929  226.1217 H   0  0  0  0  0  0  0  0  0  0  0  0
  141.5164   71.0187  228.4914 H   0  0  0  0  0  0  0  0  0  0  0  0
  141.1046   72.5821  226.6202 H   0  0  0  0  0  0  0  0  0  0  0  0
  1  2  2  0
  2  3  1  0
  3  4  1  0
  4  5  1  0
  5  6  2  0
  5  7  1  0
  7  8  1  0
  8  9  1  0
  9 10  1  0
 10 11  1  0
 11 12  1  0
 12 13  2  0
 13 14  1  0
 14 15  2  0
 15 16  1  0
 15 17  1  0
 17 18  2  0
  2 19  1  0
 19 20  2  0
 20 21  1  0
 21 22  2  0
 22 23  1  0
 23 24  2  0
 24 25  1  0
 24 26  1  0
 26 27  2  0
 27 28  1  0
 28 29  2  0
 11  7  1  0
 18 12  1  0
 29 19  1  0
 28 22  1  0
  3 30  1  0
  4 31  1  0
  4 32  1  0
  8 33  1  0
  8 34  1  0
  9 35  1  0
  9 36  1  0
 10 37  1  0
 10 38  1  0
 11 39  1  1
 13 40  1  0
 14 41  1  0
 17 42  1  0
 18 43  1  0
 20 44  1  0
 21 45  1  0
 23 46  1  0
 26 47  1  0
 27 48  1  0
M  END
>  <smiles>  (40) 
O=C(NCC(=O)N1CCCC1c1ccc(F)cc1)c1ccc2cc(Cl)ccc2n1

>  <score_type>  (40) 
oracle

>  <origin>  (40) 
autodockgpu

>  <m_score__min__energy>  (40) 
-8.8399999999999999

>  <m_primary>  (40) 
energy

>  <rmsd>  (40) 
2.5602321909322154

>  <m_score__min__rmsd>  (40) 
2.5602321909322154

>  <meeko>  (40) 
{"free_energy": -7.69, "intermolecular_energy": -9.18, "internal_energy": -1.65, "cluster_size": 22, "cluster_id": 3, "rank_in_cluster": 13}

>  <energy>  (40) 
-7.24

>  <cluster_rmsd>  (40) 
1.73

>  <cluster>  (40) 
3

$$$$

     RDKit          3D

 48 51  0  0  0  0  0  0  0  0999 V2000
  139.9900   72.4890  221.0960 O   0  0  0  0  0  0  0  0  0  0  0  0
  139.3870   73.4490  221.6480 C   0  0  0  0  0  0  0  0  0  0  0  0
  138.1100   73.2520  222.2930 N   0  0  0  0  0  0  0  0  0  0  0  0
  137.4390   71.9950  222.3490 C   0  0  0  0  0  0  0  0  0  0  0  0
  137.9000   71.0150  223.3370 C   0  0  0  0  0  0  0  0  0  0  0  0
  137.6930   71.4060  224.5650 O   0  0  0  0  0  0  0  0  0  0  0  0
  138.5030   69.7670  223.1720 N   0  0  0  0  0  0  0  0  0  0  0  0
  138.1600   68.6520  222.2740 C   0  0  0  0  0  0  0  0  0  0  0  0
  138.7260   67.3870  222.9390 C   0  0  0  0  0  0  0  0  0  0  0  0
  139.2040   67.8710  224.2760 C   0  0  0  0  0  0  0  0  0  0  0  0
  139.6610   69.3010  223.8930 C   0  0  2  0  0  0  0  0  0  0  0  0
  140.0360   70.0270  225.1050 C   0  0  0  0  0  0  0  0  0  0  0  0
  140.7350   71.2110  225.1530 C   0  0  0  0  0  0  0  0  0  0  0  0
  141.0520   71.8370  226.3410 C   0  0  0  0  0  0  0  0  0  0  0  0
  140.6740   71.2920  227.5540 C   0  0  0  0  0  0  0  0  0  0  0  0
  140.9820   71.9030  228.7230 F   0  0  0  0  0  0  0  0  0  0  0  0
  139.9760   70.1120  227.5310 C   0  0  0  0  0  0  0  0  0  0  0  0
  139.6640   69.4950  226.3460 C   0  0  0  0  0  0  0  0  0  0  0  0
  139.9990   74.7910  221.6320 C   0  0  0  0  0  0  0  0  0  0  0  0
  141.1100   75.0220  220.8810 C   0  0  0  0  0  0  0  0  0  0  0  0
  141.6860   76.2740  220.8620 C   0  0  0  0  0  0  0  0  0  0  0  0
  141.1510   77.3060  221.6000 C   0  0  0  0  0  0  0  0  0  0  0  0
  141.7290   78.5610  221.5800 C   0  0  0  0  0  0  0  0  0  0  0  0
  141.1990   79.6030  222.3150 C   0  0  0  0  0  0  0  0  0  0  0  0
  141.9420   81.1900  222.2830 Cl  0  0  0  0  0  0  0  0  0  0  0  0
  140.0600   79.3450  223.0790 C   0  0  0  0  0  0  0  0  0  0  0  0
  139.4850   78.0790  223.0930 C   0  0  0  0  0  0  0  0  0  0  0  0
  140.0170   77.0410  222.3560 C   0  0  0  0  0  0  0  0  0  0  0  0
  139.4910   75.8100  222.3440 N   0  0  0  0  0  0  0  0  0  0  0  0
  137.7060   74.1310  222.7270 H   0  0  0  0  0  0  0  0  0  0  0  0
  136.3787   72.1987  222.5596 H   0  0  0  0  0  0  0  0  0  0  0  0
  137.6495   71.5263  221.3764 H   0  0  0  0  0  0  0  0  0  0  0  0
  137.0685   68.5709  222.1641 H   0  0  0  0  0  0  0  0  0  0  0  0
  138.5776   68.8007  221.2673 H   0  0  0  0  0  0  0  0  0  0  0  0
  137.9443   66.6219  223.0554 H   0  0  0  0  0  0  0  0  0  0  0  0
  139.5236   66.9148  222.3467 H   0  0  0  0  0  0  0  0  0  0  0  0
  138.3930   67.8863  225.0190 H   0  0  0  0  0  0  0  0  0  0  0  0
  139.9776   67.2465  224.7467 H   0  0  0  0  0  0  0  0  0  0  0  0
  140.5641   69.4115  223.2748 H   0  0  0  0  0  0  0  0  0  0  0  0
  141.0532   71.6762  224.2084 H   0  0  0  0  0  0  0  0  0  0  0  0
  141.6133   72.7828  226.3227 H   0  0  0  0  0  0  0  0  0  0  0  0
  139.6607   69.6520  228.4792 H   0  0  0  0  0  0  0  0  0  0  0  0
  139.1022   68.5496  226.3715 H   0  0  0  0  0  0  0  0  0  0  0  0
  141.5497   74.2071  220.2873 H   0  0  0  0  0  0  0  0  0  0  0  0
  142.5831   76.4507  220.2505 H   0  0  0  0  0  0  0  0  0  0  0  0
  142.6268   78.7329  220.9681 H   0  0  0  0  0  0  0  0  0  0  0  0
  139.6120   80.1523  223.6769 H   0  0  0  0  0  0  0  0  0  0  0  0
  138.5878   77.9015  223.7041 H   0  0  0  0  0  0  0  0  0  0  0  0
  1  2  2  0
  2  3  1  0
  3  4  1  0
  4  5  1  0
  5  6  2  0
  5  7  1  0
  7  8  1  0
  8  9  1  0
  9 10  1  0
 10 11  1  0
 11 12  1  0
 12 13  2  0
 13 14  1  0
 14 15  2  0
 15 16  1  0
 15 17  1  0
 17 18  2  0
  2 19  1  0
 19 20  2  0
 20 21  1  0
 21 22  2  0
 22 23  1  0
 23 24  2  0
 24 25  1  0
 24 26  1  0
 26 27  2  0
 27 28  1  0
 28 29  2  0
 11  7  1  0
 18 12  1  0
 29 19  1  0
 28 22  1  0
  3 30  1  0
  4 31  1  0
  4 32  1  0
  8 33  1  0
  8 34  1  0
  9 35  1  0
  9 36  1  0
 10 37  1  0
 10 38  1  0
 11 39  1  6
 13 40  1  0
 14 41  1  0
 17 42  1  0
 18 43  1  0
 20 44  1  0
 21 45  1  0
 23 46  1  0
 26 47  1  0
 27 48  1  0
M  END
>  <smiles>  (41) 
O=C(NCC(=O)N1CCCC1c1ccc(F)cc1)c1ccc2cc(Cl)ccc2n1

>  <score_type>  (41) 
oracle

>  <origin>  (41) 
autodockgpu

>  <m_score__min__energy>  (41) 
-8.8399999999999999

>  <m_primary>  (41) 
energy

>  <rmsd>  (41) 
8.07545186014825

>  <m_score__min__rmsd>  (41) 
8.07545186014825

>  <meeko>  (41) 
{"free_energy": -7.63, "intermolecular_energy": -9.12, "internal_energy": -1.71, "cluster_size": 5, "cluster_id": 5, "rank_in_cluster": 1}

>  <energy>  (41) 
-7.72

>  <cluster_rmsd>  (41) 
0.0

>  <cluster>  (41) 
4

$$$$

     RDKit          3D

 48 51  0  0  0  0  0  0  0  0999 V2000
  139.9570   72.3620  220.6470 O   0  0  0  0  0  0  0  0  0  0  0  0
  139.8480   72.8120  221.8200 C   0  0  0  0  0  0  0  0  0  0  0  0
  139.6680   74.2240  222.0610 N   0  0  0  0  0  0  0  0  0  0  0  0
  139.6070   75.2000  221.0240 C   0  0  0  0  0  0  0  0  0  0  0  0
  140.2540   76.4940  221.2600 C   0  0  0  0  0  0  0  0  0  0  0  0
  140.4190   76.7470  222.5290 O   0  0  0  0  0  0  0  0  0  0  0  0
  140.7080   77.4640  220.3650 N   0  0  0  0  0  0  0  0  0  0  0  0
  141.5650   77.3380  219.1750 C   0  0  0  0  0  0  0  0  0  0  0  0
  142.2130   78.7180  218.9760 C   0  0  0  0  0  0  0  0  0  0  0  0
  141.7990   79.4850  220.1970 C   0  0  0  0  0  0  0  0  0  0  0  0
  140.3970   78.8700  220.4340 C   0  0  2  0  0  0  0  0  0  0  0  0
  139.8560   79.3780  221.6940 C   0  0  0  0  0  0  0  0  0  0  0  0
  140.5700   80.0180  222.6800 C   0  0  0  0  0  0  0  0  0  0  0  0
  139.9850   80.4690  223.8440 C   0  0  0  0  0  0  0  0  0  0  0  0
  138.6330   80.2950  224.0740 C   0  0  0  0  0  0  0  0  0  0  0  0
  138.0530   80.7350  225.2160 F   0  0  0  0  0  0  0  0  0  0  0  0
  137.9000   79.6590  223.1050 C   0  0  0  0  0  0  0  0  0  0  0  0
  138.4890   79.2130  221.9490 C   0  0  0  0  0  0  0  0  0  0  0  0
  139.9100   71.8770  222.9600 C   0  0  0  0  0  0  0  0  0  0  0  0
  139.4520   70.6040  222.8210 C   0  0  0  0  0  0  0  0  0  0  0  0
  139.5070   69.7270  223.8830 C   0  0  0  0  0  0  0  0  0  0  0  0
  140.0220   70.1220  225.0960 C   0  0  0  0  0  0  0  0  0  0  0  0
  140.0770   69.2420  226.1600 C   0  0  0  0  0  0  0  0  0  0  0  0
  140.5920   69.6290  227.3810 C   0  0  0  0  0  0  0  0  0  0  0  0
  140.6550   68.5040  228.7240 Cl  0  0  0  0  0  0  0  0  0  0  0  0
  141.0560   70.9390  227.5040 C   0  0  0  0  0  0  0  0  0  0  0  0
  140.9970   71.8180  226.4280 C   0  0  0  0  0  0  0  0  0  0  0  0
  140.4820   71.4280  225.2100 C   0  0  0  0  0  0  0  0  0  0  0  0
  140.4090   72.2450  224.1520 N   0  0  0  0  0  0  0  0  0  0  0  0
  139.5830   74.4790  223.0870 H   0  0  0  0  0  0  0  0  0  0  0  0
  140.0737   74.7586  220.1311 H   0  0  0  0  0  0  0  0  0  0  0  0
  138.5372   75.4394  220.9336 H   0  0  0  0  0  0  0  0  0  0  0  0
  142.3376   76.5723  219.3389 H   0  0  0  0  0  0  0  0  0  0  0  0
  140.9868   77.0315  218.2909 H   0  0  0  0  0  0  0  0  0  0  0  0
  143.3082   78.6325  218.9192 H   0  0  0  0  0  0  0  0  0  0  0  0
  141.9001   79.2048  218.0405 H   0  0  0  0  0  0  0  0  0  0  0  0
  142.4751   79.3001  221.0447 H   0  0  0  0  0  0  0  0  0  0  0  0
  141.8136   80.5792  220.0855 H   0  0  0  0  0  0  0  0  0  0  0  0
  139.5925   79.1175  219.7258 H   0  0  0  0  0  0  0  0  0  0  0  0
  141.6488   80.1760  222.5343 H   0  0  0  0  0  0  0  0  0  0  0  0
  140.6029   80.9746  224.6007 H   0  0  0  0  0  0  0  0  0  0  0  0
  136.8217   79.5039  223.2572 H   0  0  0  0  0  0  0  0  0  0  0  0
  137.8657   78.7082  221.1962 H   0  0  0  0  0  0  0  0  0  0  0  0
  139.0363   70.2731  221.8578 H   0  0  0  0  0  0  0  0  0  0  0  0
  139.1348   68.6993  223.7592 H   0  0  0  0  0  0  0  0  0  0  0  0
  139.7039   68.2152  226.0318 H   0  0  0  0  0  0  0  0  0  0  0  0
  141.4732   71.2804  228.4629 H   0  0  0  0  0  0  0  0  0  0  0  0
  141.3690   72.8458  226.5512 H   0  0  0  0  0  0  0  0  0  0  0  0
  1  2  2  0
  2  3  1  0
  3  4  1  0
  4  5  1  0
  5  6  2  0
  5  7  1  0
  7  8  1  0
  8  9  1  0
  9 10  1  0
 10 11  1  0
 11 12  1  0
 12 13  2  0
 13 14  1  0
 14 15  2  0
 15 16  1  0
 15 17  1  0
 17 18  2  0
  2 19  1  0
 19 20  2  0
 20 21  1  0
 21 22  2  0
 22 23  1  0
 23 24  2  0
 24 25  1  0
 24 26  1  0
 26 27  2  0
 27 28  1  0
 28 29  2  0
 11  7  1  0
 18 12  1  0
 29 19  1  0
 28 22  1  0
  3 30  1  0
  4 31  1  0
  4 32  1  0
  8 33  1  0
  8 34  1  0
  9 35  1  0
  9 36  1  0
 10 37  1  0
 10 38  1  0
 11 39  1  6
 13 40  1  0
 14 41  1  0
 17 42  1  0
 18 43  1  0
 20 44  1  0
 21 45  1  0
 23 46  1  0
 26 47  1  0
 27 48  1  0
M  END
>  <smiles>  (42) 
O=C(NCC(=O)N1CCCC1c1ccc(F)cc1)c1ccc2cc(Cl)ccc2n1

>  <score_type>  (42) 
oracle

>  <origin>  (42) 
autodockgpu

>  <m_score__min__energy>  (42) 
-8.8399999999999999

>  <m_primary>  (42) 
energy

>  <rmsd>  (42) 
2.3218482000395726

>  <m_score__min__rmsd>  (42) 
2.3218482000395726

>  <meeko>  (42) 
{"free_energy": -7.93, "intermolecular_energy": -9.42, "internal_energy": -1.59, "cluster_size": 9, "cluster_id": 2, "rank_in_cluster": 6}

>  <energy>  (42) 
-7.63

>  <cluster_rmsd>  (42) 
0.0

>  <cluster>  (42) 
5

$$$$

     RDKit          3D

 48 51  0  0  0  0  0  0  0  0999 V2000
  140.2870   72.4390  220.6720 O   0  0  0  0  0  0  0  0  0  0  0  0
  140.0650   72.8750  221.8340 C   0  0  0  0  0  0  0  0  0  0  0  0
  139.8360   74.2810  222.0700 N   0  0  0  0  0  0  0  0  0  0  0  0
  139.8490   75.2660  221.0390 C   0  0  0  0  0  0  0  0  0  0  0  0
  140.8430   76.3400  221.1290 C   0  0  0  0  0  0  0  0  0  0  0  0
  141.0890   76.6930  222.3600 O   0  0  0  0  0  0  0  0  0  0  0  0
  141.5460   77.0170  220.1320 N   0  0  0  0  0  0  0  0  0  0  0  0
  141.2540   78.2910  219.4540 C   0  0  0  0  0  0  0  0  0  0  0  0
  141.9740   78.2200  218.0970 C   0  0  0  0  0  0  0  0  0  0  0  0
  142.4840   76.8100  218.0390 C   0  0  0  0  0  0  0  0  0  0  0  0
  142.7840   76.5740  219.5400 C   0  0  2  0  0  0  0  0  0  0  0  0
  143.1630   75.1760  219.7410 C   0  0  0  0  0  0  0  0  0  0  0  0
  142.4770   74.0790  219.2740 C   0  0  0  0  0  0  0  0  0  0  0  0
  142.8990   72.7870  219.5070 C   0  0  0  0  0  0  0  0  0  0  0  0
  144.0500   72.5350  220.2300 C   0  0  0  0  0  0  0  0  0  0  0  0
  144.4690   71.2680  220.4620 F   0  0  0  0  0  0  0  0  0  0  0  0
  144.7510   73.6140  220.7060 C   0  0  0  0  0  0  0  0  0  0  0  0
  144.3240   74.8960  220.4710 C   0  0  0  0  0  0  0  0  0  0  0  0
  140.0430   71.9300  222.9670 C   0  0  0  0  0  0  0  0  0  0  0  0
  139.5090   70.6890  222.8070 C   0  0  0  0  0  0  0  0  0  0  0  0
  139.4860   69.8020  223.8620 C   0  0  0  0  0  0  0  0  0  0  0  0
  139.9970   70.1560  225.0890 C   0  0  0  0  0  0  0  0  0  0  0  0
  139.9740   69.2660  226.1460 C   0  0  0  0  0  0  0  0  0  0  0  0
  140.4860   69.6120  227.3820 C   0  0  0  0  0  0  0  0  0  0  0  0
  140.4480   68.4750  228.7160 Cl  0  0  0  0  0  0  0  0  0  0  0  0
  141.0270   70.8890  227.5260 C   0  0  0  0  0  0  0  0  0  0  0  0
  141.0480   71.7780  226.4570 C   0  0  0  0  0  0  0  0  0  0  0  0
  140.5360   71.4290  225.2240 C   0  0  0  0  0  0  0  0  0  0  0  0
  140.5380   72.2570  224.1720 N   0  0  0  0  0  0  0  0  0  0  0  0
  139.6540   74.5240  223.0860 H   0  0  0  0  0  0  0  0  0  0  0  0
  140.0186   74.7416  220.0870 H   0  0  0  0  0  0  0  0  0  0  0  0
  138.8801   75.7781  221.1344 H   0  0  0  0  0  0  0  0  0  0  0  0
  140.1701   78.4065  219.3066 H   0  0  0  0  0  0  0  0  0  0  0  0
  141.5945   79.1522  220.0477 H   0  0  0  0  0  0  0  0  0  0  0  0
  141.2751   78.4187  217.2711 H   0  0  0  0  0  0  0  0  0  0  0  0
  142.7750   78.9676  217.9995 H   0  0  0  0  0  0  0  0  0  0  0  0
  141.7205   76.1144  217.6605 H   0  0  0  0  0  0  0  0  0  0  0  0
  143.3383   76.6524  217.3642 H   0  0  0  0  0  0  0  0  0  0  0  0
  143.6342   77.1062  219.9915 H   0  0  0  0  0  0  0  0  0  0  0  0
  141.5569   74.2384  218.6926 H   0  0  0  0  0  0  0  0  0  0  0  0
  142.3115   71.9451  219.1120 H   0  0  0  0  0  0  0  0  0  0  0  0
  145.6709   73.4481  221.2858 H   0  0  0  0  0  0  0  0  0  0  0  0
  144.9147   75.7336  220.8702 H   0  0  0  0  0  0  0  0  0  0  0  0
  139.0941   70.3923  221.8324 H   0  0  0  0  0  0  0  0  0  0  0  0
  139.0542   68.8001  223.7210 H   0  0  0  0  0  0  0  0  0  0  0  0
  139.5408   68.2653  226.0010 H   0  0  0  0  0  0  0  0  0  0  0  0
  141.4422   71.1969  228.4970 H   0  0  0  0  0  0  0  0  0  0  0  0
  141.4814   72.7793  226.5970 H   0  0  0  0  0  0  0  0  0  0  0  0
  1  2  2  0
  2  3  1  0
  3  4  1  0
  4  5  1  0
  5  6  2  0
  5  7  1  0
  7  8  1  0
  8  9  1  0
  9 10  1  0
 10 11  1  0
 11 12  1  0
 12 13  2  0
 13 14  1  0
 14 15  2  0
 15 16  1  0
 15 17  1  0
 17 18  2  0
  2 19  1  0
 19 20  2  0
 20 21  1  0
 21 22  2  0
 22 23  1  0
 23 24  2  0
 24 25  1  0
 24 26  1  0
 26 27  2  0
 27 28  1  0
 28 29  2  0
 11  7  1  0
 18 12  1  0
 29 19  1  0
 28 22  1  0
  3 30  1  0
  4 31  1  0
  4 32  1  0
  8 33  1  0
  8 34  1  0
  9 35  1  0
  9 36  1  0
 10 37  1  0
 10 38  1  0
 11 39  1  1
 13 40  1  0
 14 41  1  0
 17 42  1  0
 18 43  1  0
 20 44  1  0
 21 45  1  0
 23 46  1  0
 26 47  1  0
 27 48  1  0
M  END
>  <smiles>  (43) 
O=C(NCC(=O)N1CCCC1c1ccc(F)cc1)c1ccc2cc(Cl)ccc2n1

>  <score_type>  (43) 
oracle

>  <origin>  (43) 
autodockgpu

>  <m_score__min__energy>  (43) 
-8.8399999999999999

>  <m_primary>  (43) 
energy

>  <rmsd>  (43) 
2.2410752084874432

>  <m_score__min__rmsd>  (43) 
2.2410752084874432

>  <meeko>  (43) 
{"free_energy": -7.91, "intermolecular_energy": -9.41, "internal_energy": -1.92, "cluster_size": 22, "cluster_id": 3, "rank_in_cluster": 1}

>  <energy>  (43) 
-7.34

>  <cluster_rmsd>  (43) 
0.45

>  <cluster>  (43) 
5

$$$$

     RDKit          3D

 48 51  0  0  0  0  0  0  0  0999 V2000
  133.9290   69.1880  226.4920 O   0  0  0  0  0  0  0  0  0  0  0  0
  134.4410   70.2800  226.1240 C   0  0  0  0  0  0  0  0  0  0  0  0
  135.6610   70.3080  225.3530 N   0  0  0  0  0  0  0  0  0  0  0  0
  136.3730   69.1360  224.9600 C   0  0  0  0  0  0  0  0  0  0  0  0
  137.7860   69.2810  224.5970 C   0  0  0  0  0  0  0  0  0  0  0  0
  138.3770   68.1320  224.4170 O   0  0  0  0  0  0  0  0  0  0  0  0
  138.5690   70.4210  224.4150 N   0  0  0  0  0  0  0  0  0  0  0  0
  138.5860   71.4040  223.3180 C   0  0  0  0  0  0  0  0  0  0  0  0
  139.9900   72.0300  223.3350 C   0  0  0  0  0  0  0  0  0  0  0  0
  140.7320   71.2110  224.3500 C   0  0  0  0  0  0  0  0  0  0  0  0
  139.5760   70.8940  225.3320 C   0  0  2  0  0  0  0  0  0  0  0  0
  140.0520   69.9570  226.3490 C   0  0  0  0  0  0  0  0  0  0  0  0
  140.8810   68.8820  226.1310 C   0  0  0  0  0  0  0  0  0  0  0  0
  141.2860   68.0410  227.1460 C   0  0  0  0  0  0  0  0  0  0  0  0
  140.8700   68.2470  228.4490 C   0  0  0  0  0  0  0  0  0  0  0  0
  141.2660   67.4250  229.4500 F   0  0  0  0  0  0  0  0  0  0  0  0
  140.0430   69.3150  228.6900 C   0  0  0  0  0  0  0  0  0  0  0  0
  139.6440   70.1460  227.6750 C   0  0  0  0  0  0  0  0  0  0  0  0
  133.7800   71.5460  226.4930 C   0  0  0  0  0  0  0  0  0  0  0  0
  132.6150   71.5260  227.1950 C   0  0  0  0  0  0  0  0  0  0  0  0
  131.9940   72.7070  227.5420 C   0  0  0  0  0  0  0  0  0  0  0  0
  132.5370   73.9190  227.1840 C   0  0  0  0  0  0  0  0  0  0  0  0
  131.9120   75.1020  227.5320 C   0  0  0  0  0  0  0  0  0  0  0  0
  132.4500   76.3240  227.1780 C   0  0  0  0  0  0  0  0  0  0  0  0
  131.6480   77.8180  227.6250 Cl  0  0  0  0  0  0  0  0  0  0  0  0
  133.6440   76.3230  226.4570 C   0  0  0  0  0  0  0  0  0  0  0  0
  134.2660   75.1280  226.1120 C   0  0  0  0  0  0  0  0  0  0  0  0
  133.7260   73.9100  226.4670 C   0  0  0  0  0  0  0  0  0  0  0  0
  134.2950   72.7400  226.1530 N   0  0  0  0  0  0  0  0  0  0  0  0
  135.9890   71.2840  225.0980 H   0  0  0  0  0  0  0  0  0  0  0  0
  136.3213   68.4250  225.7978 H   0  0  0  0  0  0  0  0  0  0  0  0
  135.8812   68.8133  224.0305 H   0  0  0  0  0  0  0  0  0  0  0  0
  138.4008   70.9058  222.3549 H   0  0  0  0  0  0  0  0  0  0  0  0
  137.8026   72.1656  223.4459 H   0  0  0  0  0  0  0  0  0  0  0  0
  140.4655   71.9539  222.3460 H   0  0  0  0  0  0  0  0  0  0  0  0
  139.9759   73.1022  223.5802 H   0  0  0  0  0  0  0  0  0  0  0  0
  141.1548   70.2969  223.9076 H   0  0  0  0  0  0  0  0  0  0  0  0
  141.6024   71.7089  224.8023 H   0  0  0  0  0  0  0  0  0  0  0  0
  139.1761   71.7132  225.9477 H   0  0  0  0  0  0  0  0  0  0  0  0
  141.2346   68.6854  225.1081 H   0  0  0  0  0  0  0  0  0  0  0  0
  141.9494   67.1942  226.9162 H   0  0  0  0  0  0  0  0  0  0  0  0
  139.6941   69.5079  229.7152 H   0  0  0  0  0  0  0  0  0  0  0  0
  138.9801   70.9908  227.9107 H   0  0  0  0  0  0  0  0  0  0  0  0
  132.1670   70.5646  227.4867 H   0  0  0  0  0  0  0  0  0  0  0  0
  131.0534   72.6797  228.1117 H   0  0  0  0  0  0  0  0  0  0  0  0
  130.9707   75.0696  228.1002 H   0  0  0  0  0  0  0  0  0  0  0  0
  134.0990   77.2787  226.1578 H   0  0  0  0  0  0  0  0  0  0  0  0
  135.2079   75.1550  225.5444 H   0  0  0  0  0  0  0  0  0  0  0  0
  1  2  2  0
  2  3  1  0
  3  4  1  0
  4  5  1  0
  5  6  2  0
  5  7  1  0
  7  8  1  0
  8  9  1  0
  9 10  1  0
 10 11  1  0
 11 12  1  0
 12 13  2  0
 13 14  1  0
 14 15  2  0
 15 16  1  0
 15 17  1  0
 17 18  2  0
  2 19  1  0
 19 20  2  0
 20 21  1  0
 21 22  2  0
 22 23  1  0
 23 24  2  0
 24 25  1  0
 24 26  1  0
 26 27  2  0
 27 28  1  0
 28 29  2  0
 11  7  1  0
 18 12  1  0
 29 19  1  0
 28 22  1  0
  3 30  1  0
  4 31  1  0
  4 32  1  0
  8 33  1  0
  8 34  1  0
  9 35  1  0
  9 36  1  0
 10 37  1  0
 10 38  1  0
 11 39  1  1
 13 40  1  0
 14 41  1  0
 17 42  1  0
 18 43  1  0
 20 44  1  0
 21 45  1  0
 23 46  1  0
 26 47  1  0
 27 48  1  0
M  END
>  <smiles>  (44) 
O=C(NCC(=O)N1CCCC1c1ccc(F)cc1)c1ccc2cc(Cl)ccc2n1

>  <score_type>  (44) 
oracle

>  <origin>  (44) 
autodockgpu

>  <m_score__min__energy>  (44) 
-8.8399999999999999

>  <m_primary>  (44) 
energy

>  <rmsd>  (44) 
7.870125788334662

>  <m_score__min__rmsd>  (44) 
7.870125788334662

>  <meeko>  (44) 
{"free_energy": -8.57, "intermolecular_energy": -10.06, "internal_energy": -1.62, "cluster_size": 9, "cluster_id": 1, "rank_in_cluster": 6}

>  <energy>  (44) 
-7.24

>  <cluster_rmsd>  (44) 
1.6

>  <cluster>  (44) 
5

$$$$

     RDKit          3D

 48 51  0  0  0  0  0  0  0  0999 V2000
  138.8990   72.1980  221.2140 O   0  0  0  0  0  0  0  0  0  0  0  0
  138.4740   73.1610  221.9100 C   0  0  0  0  0  0  0  0  0  0  0  0
  137.2380   73.0560  222.6490 N   0  0  0  0  0  0  0  0  0  0  0  0
  136.4150   71.8920  222.6480 C   0  0  0  0  0  0  0  0  0  0  0  0
  136.9190   70.6940  223.3270 C   0  0  0  0  0  0  0  0  0  0  0  0
  136.6200   70.6750  224.5970 O   0  0  0  0  0  0  0  0  0  0  0  0
  137.6410   69.6050  222.8380 N   0  0  0  0  0  0  0  0  0  0  0  0
  137.2740   68.5830  221.8430 C   0  0  0  0  0  0  0  0  0  0  0  0
  138.1430   67.3550  222.1610 C   0  0  0  0  0  0  0  0  0  0  0  0
  138.8230   67.7240  223.4460 C   0  0  0  0  0  0  0  0  0  0  0  0
  138.9810   69.2500  223.2350 C   0  0  2  0  0  0  0  0  0  0  0  0
  139.5020   69.8540  224.4610 C   0  0  0  0  0  0  0  0  0  0  0  0
  140.2270   71.0200  224.5410 C   0  0  0  0  0  0  0  0  0  0  0  0
  140.6850   71.5270  225.7390 C   0  0  0  0  0  0  0  0  0  0  0  0
  140.4290   70.8740  226.9310 C   0  0  0  0  0  0  0  0  0  0  0  0
  140.8760   71.3680  228.1100 F   0  0  0  0  0  0  0  0  0  0  0  0
  139.7060   69.7100  226.8750 C   0  0  0  0  0  0  0  0  0  0  0  0
  139.2550   69.2110  225.6800 C   0  0  0  0  0  0  0  0  0  0  0  0
  139.2540   74.4120  221.9630 C   0  0  0  0  0  0  0  0  0  0  0  0
  140.5490   74.4240  221.5480 C   0  0  0  0  0  0  0  0  0  0  0  0
  141.2830   75.5900  221.5960 C   0  0  0  0  0  0  0  0  0  0  0  0
  140.7210   76.7550  222.0640 C   0  0  0  0  0  0  0  0  0  0  0  0
  141.4570   77.9240  222.1120 C   0  0  0  0  0  0  0  0  0  0  0  0
  140.9020   79.0990  222.5790 C   0  0  0  0  0  0  0  0  0  0  0  0
  141.8460   80.5750  222.6360 Cl  0  0  0  0  0  0  0  0  0  0  0  0
  139.5720   79.0660  223.0020 C   0  0  0  0  0  0  0  0  0  0  0  0
  138.8390   77.8860  222.9500 C   0  0  0  0  0  0  0  0  0  0  0  0
  139.3970   76.7140  222.4820 C   0  0  0  0  0  0  0  0  0  0  0  0
  138.7230   75.5590  222.4170 N   0  0  0  0  0  0  0  0  0  0  0  0
  136.9890   73.9270  223.2000 H   0  0  0  0  0  0  0  0  0  0  0  0
  135.4628   72.1638  223.1271 H   0  0  0  0  0  0  0  0  0  0  0  0
  136.3497   71.6016  221.5890 H   0  0  0  0  0  0  0  0  0  0  0  0
  136.2071   68.3298  221.9301 H   0  0  0  0  0  0  0  0  0  0  0  0
  137.4401   68.9407  220.8161 H   0  0  0  0  0  0  0  0  0  0  0  0
  137.5209   66.4570  222.2901 H   0  0  0  0  0  0  0  0  0  0  0  0
  138.8535   67.1155  221.3561 H   0  0  0  0  0  0  0  0  0  0  0  0
  138.1961   67.4951  224.3204 H   0  0  0  0  0  0  0  0  0  0  0  0
  139.7598   67.1837  223.6474 H   0  0  0  0  0  0  0  0  0  0  0  0
  139.7054   69.6001  222.4849 H   0  0  0  0  0  0  0  0  0  0  0  0
  140.4500   71.5690  223.6143 H   0  0  0  0  0  0  0  0  0  0  0  0
  141.2618   72.4636  225.7466 H   0  0  0  0  0  0  0  0  0  0  0  0
  139.4838   69.1669  227.8054 H   0  0  0  0  0  0  0  0  0  0  0  0
  138.6795   68.2735  225.6791 H   0  0  0  0  0  0  0  0  0  0  0  0
  141.0126   73.4998  221.1726 H   0  0  0  0  0  0  0  0  0  0  0  0
  142.3293   75.5887  221.2564 H   0  0  0  0  0  0  0  0  0  0  0  0
  142.5032   77.9182  221.7722 H   0  0  0  0  0  0  0  0  0  0  0  0
  139.0988   79.9840  223.3807 H   0  0  0  0  0  0  0  0  0  0  0  0
  137.7925   77.8866  223.2889 H   0  0  0  0  0  0  0  0  0  0  0  0
  1  2  2  0
  2  3  1  0
  3  4  1  0
  4  5  1  0
  5  6  2  0
  5  7  1  0
  7  8  1  0
  8  9  1  0
  9 10  1  0
 10 11  1  0
 11 12  1  0
 12 13  2  0
 13 14  1  0
 14 15  2  0
 15 16  1  0
 15 17  1  0
 17 18  2  0
  2 19  1  0
 19 20  2  0
 20 21  1  0
 21 22  2  0
 22 23  1  0
 23 24  2  0
 24 25  1  0
 24 26  1  0
 26 27  2  0
 27 28  1  0
 28 29  2  0
 11  7  1  0
 18 12  1  0
 29 19  1  0
 28 22  1  0
  3 30  1  0
  4 31  1  0
  4 32  1  0
  8 33  1  0
  8 34  1  0
  9 35  1  0
  9 36  1  0
 10 37  1  0
 10 38  1  0
 11 39  1  6
 13 40  1  0
 14 41  1  0
 17 42  1  0
 18 43  1  0
 20 44  1  0
 21 45  1  0
 23 46  1  0
 26 47  1  0
 27 48  1  0
M  END
>  <smiles>  (45) 
O=C(NCC(=O)N1CCCC1c1ccc(F)cc1)c1ccc2cc(Cl)ccc2n1

>  <score_type>  (45) 
oracle

>  <origin>  (45) 
autodockgpu

>  <m_score__min__energy>  (45) 
-8.8399999999999999

>  <m_primary>  (45) 
energy

>  <rmsd>  (45) 
7.836778347682607

>  <m_score__min__rmsd>  (45) 
7.836778347682607

>  <meeko>  (45) 
{"free_energy": -7.2, "intermolecular_energy": -8.7, "internal_energy": -1.99, "cluster_size": 5, "cluster_id": 5, "rank_in_cluster": 4}

>  <energy>  (45) 
-7.2

>  <cluster_rmsd>  (45) 
0.87

>  <cluster>  (45) 
5

$$$$

     RDKit          3D

 48 51  0  0  0  0  0  0  0  0999 V2000
  140.0480   72.3850  220.6400 O   0  0  0  0  0  0  0  0  0  0  0  0
  139.8970   72.8290  221.8110 C   0  0  0  0  0  0  0  0  0  0  0  0
  139.6750   74.2350  222.0490 N   0  0  0  0  0  0  0  0  0  0  0  0
  139.6170   75.2130  221.0120 C   0  0  0  0  0  0  0  0  0  0  0  0
  139.4510   76.6170  221.4000 C   0  0  0  0  0  0  0  0  0  0  0  0
  140.3970   77.3820  220.9280 O   0  0  0  0  0  0  0  0  0  0  0  0
  138.4670   77.2410  222.1680 N   0  0  0  0  0  0  0  0  0  0  0  0
  137.0180   76.9940  222.2480 C   0  0  0  0  0  0  0  0  0  0  0  0
  136.3930   78.3120  222.7330 C   0  0  0  0  0  0  0  0  0  0  0  0
  137.5430   79.2760  222.7220 C   0  0  0  0  0  0  0  0  0  0  0  0
  138.6980   78.3150  223.1010 C   0  0  2  0  0  0  0  0  0  0  0  0
  139.9700   79.0300  223.0030 C   0  0  0  0  0  0  0  0  0  0  0  0
  140.1590   80.2650  222.4290 C   0  0  0  0  0  0  0  0  0  0  0  0
  141.3950   80.8750  222.3740 C   0  0  0  0  0  0  0  0  0  0  0  0
  142.5140   80.2620  222.9030 C   0  0  0  0  0  0  0  0  0  0  0  0
  143.7300   80.8560  222.8530 F   0  0  0  0  0  0  0  0  0  0  0  0
  142.3500   79.0290  223.4820 C   0  0  0  0  0  0  0  0  0  0  0  0
  141.1180   78.4280  223.5320 C   0  0  0  0  0  0  0  0  0  0  0  0
  139.9510   71.8930  222.9500 C   0  0  0  0  0  0  0  0  0  0  0  0
  139.4970   70.6190  222.8050 C   0  0  0  0  0  0  0  0  0  0  0  0
  139.5460   69.7410  223.8670 C   0  0  0  0  0  0  0  0  0  0  0  0
  140.0510   70.1360  225.0840 C   0  0  0  0  0  0  0  0  0  0  0  0
  140.0990   69.2550  226.1470 C   0  0  0  0  0  0  0  0  0  0  0  0
  140.6050   69.6420  227.3730 C   0  0  0  0  0  0  0  0  0  0  0  0
  140.6600   68.5150  228.7150 Cl  0  0  0  0  0  0  0  0  0  0  0  0
  141.0650   70.9530  227.5010 C   0  0  0  0  0  0  0  0  0  0  0  0
  141.0130   71.8330  226.4250 C   0  0  0  0  0  0  0  0  0  0  0  0
  140.5080   71.4420  225.2030 C   0  0  0  0  0  0  0  0  0  0  0  0
  140.4410   72.2610  224.1450 N   0  0  0  0  0  0  0  0  0  0  0  0
  139.5570   74.4860  223.0730 H   0  0  0  0  0  0  0  0  0  0  0  0
  140.5540   75.1400  220.4404 H   0  0  0  0  0  0  0  0  0  0  0  0
  138.6992   74.9707  220.4562 H   0  0  0  0  0  0  0  0  0  0  0  0
  136.6207   76.7232  221.2587 H   0  0  0  0  0  0  0  0  0  0  0  0
  136.7868   76.1621  222.9295 H   0  0  0  0  0  0  0  0  0  0  0  0
  135.5969   78.6433  222.0501 H   0  0  0  0  0  0  0  0  0  0  0  0
  135.9219   78.2216  223.7229 H   0  0  0  0  0  0  0  0  0  0  0  0
  137.6924   79.7229  221.7280 H   0  0  0  0  0  0  0  0  0  0  0  0
  137.4262   80.1464  223.3844 H   0  0  0  0  0  0  0  0  0  0  0  0
  138.7365   77.9250  224.1288 H   0  0  0  0  0  0  0  0  0  0  0  0
  139.2919   80.7863  221.9974 H   0  0  0  0  0  0  0  0  0  0  0  0
  141.4909   81.8640  221.9020 H   0  0  0  0  0  0  0  0  0  0  0  0
  143.2210   78.5138  223.9133 H   0  0  0  0  0  0  0  0  0  0  0  0
  141.0289   77.4385  224.0042 H   0  0  0  0  0  0  0  0  0  0  0  0
  139.0897   70.2884  221.8381 H   0  0  0  0  0  0  0  0  0  0  0  0
  139.1770   68.7126  223.7396 H   0  0  0  0  0  0  0  0  0  0  0  0
  139.7280   68.2279  226.0151 H   0  0  0  0  0  0  0  0  0  0  0  0
  141.4734   71.2945  228.4636 H   0  0  0  0  0  0  0  0  0  0  0  0
  141.3822   72.8615  226.5515 H   0  0  0  0  0  0  0  0  0  0  0  0
  1  2  2  0
  2  3  1  0
  3  4  1  0
  4  5  1  0
  5  6  2  0
  5  7  1  0
  7  8  1  0
  8  9  1  0
  9 10  1  0
 10 11  1  0
 11 12  1  0
 12 13  2  0
 13 14  1  0
 14 15  2  0
 15 16  1  0
 15 17  1  0
 17 18  2  0
  2 19  1  0
 19 20  2  0
 20 21  1  0
 21 22  2  0
 22 23  1  0
 23 24  2  0
 24 25  1  0
 24 26  1  0
 26 27  2  0
 27 28  1  0
 28 29  2  0
 11  7  1  0
 18 12  1  0
 29 19  1  0
 28 22  1  0
  3 30  1  0
  4 31  1  0
  4 32  1  0
  8 33  1  0
  8 34  1  0
  9 35  1  0
  9 36  1  0
 10 37  1  0
 10 38  1  0
 11 39  1  1
 13 40  1  0
 14 41  1  0
 17 42  1  0
 18 43  1  0
 20 44  1  0
 21 45  1  0
 23 46  1  0
 26 47  1  0
 27 48  1  0
M  END
>  <smiles>  (46) 
O=C(NCC(=O)N1CCCC1c1ccc(F)cc1)c1ccc2cc(Cl)ccc2n1

>  <score_type>  (46) 
oracle

>  <origin>  (46) 
autodockgpu

>  <m_score__min__energy>  (46) 
-8.8399999999999999

>  <m_primary>  (46) 
energy

>  <rmsd>  (46) 
3.345405629176566

>  <m_score__min__rmsd>  (46) 
3.345405629176566

>  <meeko>  (46) 
{"free_energy": -8.34, "intermolecular_energy": -9.83, "internal_energy": -1.19, "cluster_size": 9, "cluster_id": 2, "rank_in_cluster": 2}

>  <energy>  (46) 
-7.18

>  <cluster_rmsd>  (46) 
0.88

>  <cluster>  (46) 
5

$$$$

     RDKit          3D

 48 51  0  0  0  0  0  0  0  0999 V2000
  139.9950   72.3550  220.6890 O   0  0  0  0  0  0  0  0  0  0  0  0
  139.7510   72.7680  221.8560 C   0  0  0  0  0  0  0  0  0  0  0  0
  139.3880   74.1440  222.0970 N   0  0  0  0  0  0  0  0  0  0  0  0
  139.2840   75.1250  221.0680 C   0  0  0  0  0  0  0  0  0  0  0  0
  140.4020   76.0570  220.8920 C   0  0  0  0  0  0  0  0  0  0  0  0
  140.9770   76.3670  222.0210 O   0  0  0  0  0  0  0  0  0  0  0  0
  140.9300   76.6400  219.7400 N   0  0  0  0  0  0  0  0  0  0  0  0
  141.3950   76.0260  218.4840 C   0  0  0  0  0  0  0  0  0  0  0  0
  142.3990   77.0190  217.8770 C   0  0  0  0  0  0  0  0  0  0  0  0
  142.5600   78.0600  218.9450 C   0  0  0  0  0  0  0  0  0  0  0  0
  141.1290   78.0540  219.5390 C   0  0  2  0  0  0  0  0  0  0  0  0
  141.0970   78.9120  220.7230 C   0  0  0  0  0  0  0  0  0  0  0  0
  140.0720   79.7570  221.0790 C   0  0  0  0  0  0  0  0  0  0  0  0
  140.1160   80.5380  222.2150 C   0  0  0  0  0  0  0  0  0  0  0  0
  141.2100   80.5020  223.0600 C   0  0  0  0  0  0  0  0  0  0  0  0
  141.2590   81.2660  224.1780 F   0  0  0  0  0  0  0  0  0  0  0  0
  142.2440   79.6650  222.7260 C   0  0  0  0  0  0  0  0  0  0  0  0
  142.1930   78.8920  221.5930 C   0  0  0  0  0  0  0  0  0  0  0  0
  139.8440   71.8260  222.9870 C   0  0  0  0  0  0  0  0  0  0  0  0
  139.4280   70.5400  222.8370 C   0  0  0  0  0  0  0  0  0  0  0  0
  139.5120   69.6560  223.8920 C   0  0  0  0  0  0  0  0  0  0  0  0
  140.0140   70.0580  225.1080 C   0  0  0  0  0  0  0  0  0  0  0  0
  140.0980   69.1700  226.1640 C   0  0  0  0  0  0  0  0  0  0  0  0
  140.6020   69.5640  227.3890 C   0  0  0  0  0  0  0  0  0  0  0  0
  140.7020   68.4300  228.7220 Cl  0  0  0  0  0  0  0  0  0  0  0  0
  141.0220   70.8870  227.5230 C   0  0  0  0  0  0  0  0  0  0  0  0
  140.9350   71.7730  226.4540 C   0  0  0  0  0  0  0  0  0  0  0  0
  140.4320   71.3760  225.2330 C   0  0  0  0  0  0  0  0  0  0  0  0
  140.3320   72.2000  224.1820 N   0  0  0  0  0  0  0  0  0  0  0  0
  139.2010   74.3680  223.1170 H   0  0  0  0  0  0  0  0  0  0  0  0
  139.1519   74.5888  220.1166 H   0  0  0  0  0  0  0  0  0  0  0  0
  138.4415   75.7608  221.3778 H   0  0  0  0  0  0  0  0  0  0  0  0
  141.8851   75.0624  218.6875 H   0  0  0  0  0  0  0  0  0  0  0  0
  140.5587   75.8265  217.7978 H   0  0  0  0  0  0  0  0  0  0  0  0
  143.3583   76.5252  217.6628 H   0  0  0  0  0  0  0  0  0  0  0  0
  142.0567   77.4397  216.9200 H   0  0  0  0  0  0  0  0  0  0  0  0
  143.3135   77.7673  219.6910 H   0  0  0  0  0  0  0  0  0  0  0  0
  142.9116   79.0399  218.5897 H   0  0  0  0  0  0  0  0  0  0  0  0
  140.3112   78.4717  218.9334 H   0  0  0  0  0  0  0  0  0  0  0  0
  139.1833   79.8121  220.4332 H   0  0  0  0  0  0  0  0  0  0  0  0
  139.2691   81.1987  222.4521 H   0  0  0  0  0  0  0  0  0  0  0  0
  143.1290   79.6124  223.3771 H   0  0  0  0  0  0  0  0  0  0  0  0
  143.0432   78.2338  221.3607 H   0  0  0  0  0  0  0  0  0  0  0  0
  139.0232   70.2039  221.8710 H   0  0  0  0  0  0  0  0  0  0  0  0
  139.1738   68.6177  223.7597 H   0  0  0  0  0  0  0  0  0  0  0  0
  139.7581   68.1328  226.0271 H   0  0  0  0  0  0  0  0  0  0  0  0
  141.4268   71.2341  228.4851 H   0  0  0  0  0  0  0  0  0  0  0  0
  141.2743   72.8111  226.5854 H   0  0  0  0  0  0  0  0  0  0  0  0
  1  2  2  0
  2  3  1  0
  3  4  1  0
  4  5  1  0
  5  6  2  0
  5  7  1  0
  7  8  1  0
  8  9  1  0
  9 10  1  0
 10 11  1  0
 11 12  1  0
 12 13  2  0
 13 14  1  0
 14 15  2  0
 15 16  1  0
 15 17  1  0
 17 18  2  0
  2 19  1  0
 19 20  2  0
 20 21  1  0
 21 22  2  0
 22 23  1  0
 23 24  2  0
 24 25  1  0
 24 26  1  0
 26 27  2  0
 27 28  1  0
 28 29  2  0
 11  7  1  0
 18 12  1  0
 29 19  1  0
 28 22  1  0
  3 30  1  0
  4 31  1  0
  4 32  1  0
  8 33  1  0
  8 34  1  0
  9 35  1  0
  9 36  1  0
 10 37  1  0
 10 38  1  0
 11 39  1  6
 13 40  1  0
 14 41  1  0
 17 42  1  0
 18 43  1  0
 20 44  1  0
 21 45  1  0
 23 46  1  0
 26 47  1  0
 27 48  1  0
M  END
>  <smiles>  (47) 
O=C(NCC(=O)N1CCCC1c1ccc(F)cc1)c1ccc2cc(Cl)ccc2n1

>  <score_type>  (47) 
oracle

>  <origin>  (47) 
autodockgpu

>  <m_score__min__energy>  (47) 
-8.8399999999999999

>  <m_primary>  (47) 
energy

>  <rmsd>  (47) 
1.8034989751913182

>  <m_score__min__rmsd>  (47) 
1.8034989751913182

>  <meeko>  (47) 
{"free_energy": -8.07, "intermolecular_energy": -9.56, "internal_energy": -1.36, "cluster_size": 9, "cluster_id": 2, "rank_in_cluster": 4}

>  <energy>  (47) 
-7.57

>  <cluster_rmsd>  (47) 
0.0

>  <cluster>  (47) 
6

$$$$

     RDKit          3D

 48 51  0  0  0  0  0  0  0  0999 V2000
  139.6450   71.8870  220.6840 O   0  0  0  0  0  0  0  0  0  0  0  0
  139.7260   72.3680  221.8480 C   0  0  0  0  0  0  0  0  0  0  0  0
  139.7110   73.7960  222.0640 N   0  0  0  0  0  0  0  0  0  0  0  0
  139.6130   74.7530  221.0120 C   0  0  0  0  0  0  0  0  0  0  0  0
  140.7760   74.9340  220.1380 C   0  0  0  0  0  0  0  0  0  0  0  0
  141.1570   73.8210  219.5750 O   0  0  0  0  0  0  0  0  0  0  0  0
  141.5110   76.0780  219.8240 N   0  0  0  0  0  0  0  0  0  0  0  0
  141.0620   77.4350  219.4720 C   0  0  0  0  0  0  0  0  0  0  0  0
  142.2060   78.0580  218.6560 C   0  0  0  0  0  0  0  0  0  0  0  0
  143.1620   76.9190  218.4560 C   0  0  0  0  0  0  0  0  0  0  0  0
  142.9500   76.1580  219.7890 C   0  0  2  0  0  0  0  0  0  0  0  0
  143.6930   74.8990  219.7480 C   0  0  0  0  0  0  0  0  0  0  0  0
  144.0840   74.1570  220.8370 C   0  0  0  0  0  0  0  0  0  0  0  0
  144.7850   72.9750  220.7160 C   0  0  0  0  0  0  0  0  0  0  0  0
  145.1290   72.4780  219.4730 C   0  0  0  0  0  0  0  0  0  0  0  0
  145.8180   71.3180  219.3480 F   0  0  0  0  0  0  0  0  0  0  0  0
  144.7490   73.2010  218.3710 C   0  0  0  0  0  0  0  0  0  0  0  0
  144.0530   74.3760  218.5000 C   0  0  0  0  0  0  0  0  0  0  0  0
  139.8410   71.4540  223.0000 C   0  0  0  0  0  0  0  0  0  0  0  0
  139.4400   70.1600  222.8840 C   0  0  0  0  0  0  0  0  0  0  0  0
  139.5450   69.3020  223.9580 C   0  0  0  0  0  0  0  0  0  0  0  0
  140.0540   69.7390  225.1600 C   0  0  0  0  0  0  0  0  0  0  0  0
  140.1590   68.8770  226.2350 C   0  0  0  0  0  0  0  0  0  0  0  0
  140.6690   69.3060  227.4450 C   0  0  0  0  0  0  0  0  0  0  0  0
  140.7960   68.2050  228.8030 Cl  0  0  0  0  0  0  0  0  0  0  0  0
  141.0740   70.6370  227.5440 C   0  0  0  0  0  0  0  0  0  0  0  0
  140.9650   71.4960  226.4560 C   0  0  0  0  0  0  0  0  0  0  0  0
  140.4560   71.0650  225.2500 C   0  0  0  0  0  0  0  0  0  0  0  0
  140.3360   71.8620  224.1810 N   0  0  0  0  0  0  0  0  0  0  0  0
  139.7780   74.0780  223.0840 H   0  0  0  0  0  0  0  0  0  0  0  0
  138.7679   74.4537  220.3747 H   0  0  0  0  0  0  0  0  0  0  0  0
  139.5026   75.7186  221.5273 H   0  0  0  0  0  0  0  0  0  0  0  0
  140.1427   77.3898  218.8696 H   0  0  0  0  0  0  0  0  0  0  0  0
  140.8340   78.0305  220.3683 H   0  0  0  0  0  0  0  0  0  0  0  0
  141.8385   78.4358  217.6905 H   0  0  0  0  0  0  0  0  0  0  0  0
  142.6688   78.9194  219.1598 H   0  0  0  0  0  0  0  0  0  0  0  0
  142.8888   76.3038  217.5860 H   0  0  0  0  0  0  0  0  0  0  0  0
  144.2012   77.2151  218.2500 H   0  0  0  0  0  0  0  0  0  0  0  0
  143.3289   76.6140  220.7156 H   0  0  0  0  0  0  0  0  0  0  0  0
  143.8282   74.5196  221.8435 H   0  0  0  0  0  0  0  0  0  0  0  0
  145.0741   72.4206  221.6210 H   0  0  0  0  0  0  0  0  0  0  0  0
  145.0067   72.8324  217.3671 H   0  0  0  0  0  0  0  0  0  0  0  0
  143.7678   74.9265  217.5914 H   0  0  0  0  0  0  0  0  0  0  0  0
  139.0304   69.7965  221.9300 H   0  0  0  0  0  0  0  0  0  0  0  0
  139.2185   68.2568  223.8532 H   0  0  0  0  0  0  0  0  0  0  0  0
  139.8313   67.8327  226.1254 H   0  0  0  0  0  0  0  0  0  0  0  0
  141.4843   71.0114  228.4935 H   0  0  0  0  0  0  0  0  0  0  0  0
  141.2918   72.5412  226.5600 H   0  0  0  0  0  0  0  0  0  0  0  0
  1  2  2  0
  2  3  1  0
  3  4  1  0
  4  5  1  0
  5  6  2  0
  5  7  1  0
  7  8  1  0
  8  9  1  0
  9 10  1  0
 10 11  1  0
 11 12  1  0
 12 13  2  0
 13 14  1  0
 14 15  2  0
 15 16  1  0
 15 17  1  0
 17 18  2  0
  2 19  1  0
 19 20  2  0
 20 21  1  0
 21 22  2  0
 22 23  1  0
 23 24  2  0
 24 25  1  0
 24 26  1  0
 26 27  2  0
 27 28  1  0
 28 29  2  0
 11  7  1  0
 18 12  1  0
 29 19  1  0
 28 22  1  0
  3 30  1  0
  4 31  1  0
  4 32  1  0
  8 33  1  0
  8 34  1  0
  9 35  1  0
  9 36  1  0
 10 37  1  0
 10 38  1  0
 11 39  1  1
 13 40  1  0
 14 41  1  0
 17 42  1  0
 18 43  1  0
 20 44  1  0
 21 45  1  0
 23 46  1  0
 26 47  1  0
 27 48  1  0
M  END
>  <smiles>  (48) 
O=C(NCC(=O)N1CCCC1c1ccc(F)cc1)c1ccc2cc(Cl)ccc2n1

>  <score_type>  (48) 
oracle

>  <origin>  (48) 
autodockgpu

>  <m_score__min__energy>  (48) 
-8.8399999999999999

>  <m_primary>  (48) 
energy

>  <rmsd>  (48) 
2.054343291327477

>  <m_score__min__rmsd>  (48) 
2.054343291327477

>  <meeko>  (48) 
{"free_energy": -7.76, "intermolecular_energy": -9.26, "internal_energy": -1.51, "cluster_size": 22, "cluster_id": 3, "rank_in_cluster": 8}

>  <energy>  (48) 
-7.44

>  <cluster_rmsd>  (48) 
1.43

>  <cluster>  (48) 
6

$$$$

     RDKit          3D

 48 51  0  0  0  0  0  0  0  0999 V2000
  140.8870   72.7380  221.0630 O   0  0  0  0  0  0  0  0  0  0  0  0
  140.1420   72.9180  222.0650 C   0  0  0  0  0  0  0  0  0  0  0  0
  139.3020   74.0880  222.1650 N   0  0  0  0  0  0  0  0  0  0  0  0
  139.2520   75.1120  221.1740 C   0  0  0  0  0  0  0  0  0  0  0  0
  140.4670   75.8980  220.9380 C   0  0  0  0  0  0  0  0  0  0  0  0
  141.1990   76.0230  222.0110 O   0  0  0  0  0  0  0  0  0  0  0  0
  140.9470   76.5090  219.7790 N   0  0  0  0  0  0  0  0  0  0  0  0
  141.3440   75.9270  218.4860 C   0  0  0  0  0  0  0  0  0  0  0  0
  142.3300   76.9270  217.8600 C   0  0  0  0  0  0  0  0  0  0  0  0
  142.5530   77.9350  218.9480 C   0  0  0  0  0  0  0  0  0  0  0  0
  141.1530   77.9260  219.6100 C   0  0  2  0  0  0  0  0  0  0  0  0
  141.1860   78.7500  220.8180 C   0  0  0  0  0  0  0  0  0  0  0  0
  142.1990   78.7790  221.7470 C   0  0  0  0  0  0  0  0  0  0  0  0
  142.1560   79.5850  222.8650 C   0  0  0  0  0  0  0  0  0  0  0  0
  141.0750   80.4130  223.1030 C   0  0  0  0  0  0  0  0  0  0  0  0
  141.0280   81.2070  224.1990 F   0  0  0  0  0  0  0  0  0  0  0  0
  140.0520   80.4020  222.1890 C   0  0  0  0  0  0  0  0  0  0  0  0
  140.1020   79.5960  221.0800 C   0  0  0  0  0  0  0  0  0  0  0  0
  140.1330   71.9160  223.1470 C   0  0  0  0  0  0  0  0  0  0  0  0
  139.6420   70.6690  222.9150 C   0  0  0  0  0  0  0  0  0  0  0  0
  139.6320   69.7290  223.9230 C   0  0  0  0  0  0  0  0  0  0  0  0
  140.1150   70.0340  225.1750 C   0  0  0  0  0  0  0  0  0  0  0  0
  140.1040   69.0910  226.1850 C   0  0  0  0  0  0  0  0  0  0  0  0
  140.5880   69.3880  227.4440 C   0  0  0  0  0  0  0  0  0  0  0  0
  140.5680   68.1830  228.7170 Cl  0  0  0  0  0  0  0  0  0  0  0  0
  141.0870   70.6720  227.6620 C   0  0  0  0  0  0  0  0  0  0  0  0
  141.0940   71.6150  226.6400 C   0  0  0  0  0  0  0  0  0  0  0  0
  140.6110   71.3150  225.3830 C   0  0  0  0  0  0  0  0  0  0  0  0
  140.6010   72.1950  224.3750 N   0  0  0  0  0  0  0  0  0  0  0  0
  138.7160   74.1240  223.0490 H   0  0  0  0  0  0  0  0  0  0  0  0
  138.9815   74.6331  220.2214 H   0  0  0  0  0  0  0  0  0  0  0  0
  138.5247   75.8389  221.5648 H   0  0  0  0  0  0  0  0  0  0  0  0
  141.8317   74.9529  218.6383 H   0  0  0  0  0  0  0  0  0  0  0  0
  140.4737   75.7561  217.8353 H   0  0  0  0  0  0  0  0  0  0  0  0
  143.2724   76.4298  217.5868 H   0  0  0  0  0  0  0  0  0  0  0  0
  141.9480   77.3784  216.9325 H   0  0  0  0  0  0  0  0  0  0  0  0
  143.3382   77.6137  219.6481 H   0  0  0  0  0  0  0  0  0  0  0  0
  142.8975   78.9213  218.6038 H   0  0  0  0  0  0  0  0  0  0  0  0
  140.3122   78.3698  219.0568 H   0  0  0  0  0  0  0  0  0  0  0  0
  143.0772   78.1348  221.5926 H   0  0  0  0  0  0  0  0  0  0  0  0
  142.9938   79.5688  223.5776 H   0  0  0  0  0  0  0  0  0  0  0  0
  139.1774   81.0500  222.3479 H   0  0  0  0  0  0  0  0  0  0  0  0
  139.2606   79.6152  220.3717 H   0  0  0  0  0  0  0  0  0  0  0  0
  139.2517   70.4099  221.9198 H   0  0  0  0  0  0  0  0  0  0  0  0
  139.2333   68.7232  223.7244 H   0  0  0  0  0  0  0  0  0  0  0  0
  139.7030   68.0868  225.9829 H   0  0  0  0  0  0  0  0  0  0  0  0
  141.4795   70.9418  228.6536 H   0  0  0  0  0  0  0  0  0  0  0  0
  141.4929   72.6209  226.8379 H   0  0  0  0  0  0  0  0  0  0  0  0
  1  2  2  0
  2  3  1  0
  3  4  1  0
  4  5  1  0
  5  6  2  0
  5  7  1  0
  7  8  1  0
  8  9  1  0
  9 10  1  0
 10 11  1  0
 11 12  1  0
 12 13  2  0
 13 14  1  0
 14 15  2  0
 15 16  1  0
 15 17  1  0
 17 18  2  0
  2 19  1  0
 19 20  2  0
 20 21  1  0
 21 22  2  0
 22 23  1  0
 23 24  2  0
 24 25  1  0
 24 26  1  0
 26 27  2  0
 27 28  1  0
 28 29  2  0
 11  7  1  0
 18 12  1  0
 29 19  1  0
 28 22  1  0
  3 30  1  0
  4 31  1  0
  4 32  1  0
  8 33  1  0
  8 34  1  0
  9 35  1  0
  9 36  1  0
 10 37  1  0
 10 38  1  0
 11 39  1  6
 13 40  1  0
 14 41  1  0
 17 42  1  0
 18 43  1  0
 20 44  1  0
 21 45  1  0
 23 46  1  0
 26 47  1  0
 27 48  1  0
M  END
>  <smiles>  (49) 
O=C(NCC(=O)N1CCCC1c1ccc(F)cc1)c1ccc2cc(Cl)ccc2n1

>  <score_type>  (49) 
oracle

>  <origin>  (49) 
autodockgpu

>  <m_score__min__energy>  (49) 
-8.8399999999999999

>  <m_primary>  (49) 
energy

>  <rmsd>  (49) 
1.8099418248806083

>  <m_score__min__rmsd>  (49) 
1.8099418248806083

>  <meeko>  (49) 
{"free_energy": -8.06, "intermolecular_energy": -9.55, "internal_energy": -1.31, "cluster_size": 9, "cluster_id": 2, "rank_in_cluster": 5}

>  <energy>  (49) 
-7.33

>  <cluster_rmsd>  (49) 
1.77

>  <cluster>  (49) 
6

$$$$

     RDKit          3D

 48 51  0  0  0  0  0  0  0  0999 V2000
  141.3360   74.6540  221.3790 O   0  0  0  0  0  0  0  0  0  0  0  0
  140.2480   74.8970  221.9700 C   0  0  0  0  0  0  0  0  0  0  0  0
  139.3420   73.8310  222.3270 N   0  0  0  0  0  0  0  0  0  0  0  0
  139.5900   72.4560  222.0430 C   0  0  0  0  0  0  0  0  0  0  0  0
  138.7400   71.4560  222.6960 C   0  0  0  0  0  0  0  0  0  0  0  0
  137.7170   71.9900  223.3060 O   0  0  0  0  0  0  0  0  0  0  0  0
  138.8500   70.0670  222.7600 N   0  0  0  0  0  0  0  0  0  0  0  0
  138.2890   69.0230  221.8870 C   0  0  0  0  0  0  0  0  0  0  0  0
  138.2050   67.7530  222.7500 C   0  0  0  0  0  0  0  0  0  0  0  0
  138.5720   68.2320  224.1240 C   0  0  0  0  0  0  0  0  0  0  0  0
  139.5940   69.3360  223.7560 C   0  0  2  0  0  0  0  0  0  0  0  0
  139.9810   70.0570  224.9680 C   0  0  0  0  0  0  0  0  0  0  0  0
  140.7460   71.1980  225.0190 C   0  0  0  0  0  0  0  0  0  0  0  0
  141.0700   71.8210  226.2060 C   0  0  0  0  0  0  0  0  0  0  0  0
  140.6310   71.3170  227.4160 C   0  0  0  0  0  0  0  0  0  0  0  0
  140.9460   71.9240  228.5850 F   0  0  0  0  0  0  0  0  0  0  0  0
  139.8660   70.1790  227.3900 C   0  0  0  0  0  0  0  0  0  0  0  0
  139.5480   69.5640  226.2050 C   0  0  0  0  0  0  0  0  0  0  0  0
  139.9010   76.2930  222.2970 C   0  0  0  0  0  0  0  0  0  0  0  0
  140.8830   77.2260  222.4260 C   0  0  0  0  0  0  0  0  0  0  0  0
  140.5640   78.5310  222.7320 C   0  0  0  0  0  0  0  0  0  0  0  0
  139.2540   78.9110  222.9120 C   0  0  0  0  0  0  0  0  0  0  0  0
  138.9350   80.2210  223.2180 C   0  0  0  0  0  0  0  0  0  0  0  0
  137.6230   80.6120  223.3990 C   0  0  0  0  0  0  0  0  0  0  0  0
  137.2310   82.2760  223.7880 Cl  0  0  0  0  0  0  0  0  0  0  0  0
  136.6310   79.6410  223.2630 C   0  0  0  0  0  0  0  0  0  0  0  0
  136.9610   78.3260  222.9540 C   0  0  0  0  0  0  0  0  0  0  0  0
  138.2720   77.9390  222.7730 C   0  0  0  0  0  0  0  0  0  0  0  0
  138.6280   76.6830  222.4750 N   0  0  0  0  0  0  0  0  0  0  0  0
  138.4650   74.1590  222.8250 H   0  0  0  0  0  0  0  0  0  0  0  0
  139.4794   72.3208  220.9570 H   0  0  0  0  0  0  0  0  0  0  0  0
  140.5960   72.2684  222.4465 H   0  0  0  0  0  0  0  0  0  0  0  0
  137.2879   69.3144  221.5365 H   0  0  0  0  0  0  0  0  0  0  0  0
  138.9123   68.8646  220.9946 H   0  0  0  0  0  0  0  0  0  0  0  0
  137.1866   67.3375  222.7384 H   0  0  0  0  0  0  0  0  0  0  0  0
  138.8623   66.9481  222.3893 H   0  0  0  0  0  0  0  0  0  0  0  0
  137.7030   68.6416  224.6598 H   0  0  0  0  0  0  0  0  0  0  0  0
  138.9529   67.4533  224.8012 H   0  0  0  0  0  0  0  0  0  0  0  0
  140.5703   69.0284  223.3533 H   0  0  0  0  0  0  0  0  0  0  0  0
  141.1138   71.6307  224.0769 H   0  0  0  0  0  0  0  0  0  0  0  0
  141.6865   72.7319  226.1896 H   0  0  0  0  0  0  0  0  0  0  0  0
  139.5009   69.7517  228.3356 H   0  0  0  0  0  0  0  0  0  0  0  0
  138.9321   68.6529  226.2278 H   0  0  0  0  0  0  0  0  0  0  0  0
  141.9351   76.9374  222.2855 H   0  0  0  0  0  0  0  0  0  0  0  0
  141.3656   79.2774  222.8335 H   0  0  0  0  0  0  0  0  0  0  0  0
  139.7397   80.9642  223.3190 H   0  0  0  0  0  0  0  0  0  0  0  0
  135.5757   79.9186  223.4017 H   0  0  0  0  0  0  0  0  0  0  0  0
  136.1598   77.5792  222.8519 H   0  0  0  0  0  0  0  0  0  0  0  0
  1  2  2  0
  2  3  1  0
  3  4  1  0
  4  5  1  0
  5  6  2  0
  5  7  1  0
  7  8  1  0
  8  9  1  0
  9 10  1  0
 10 11  1  0
 11 12  1  0
 12 13  2  0
 13 14  1  0
 14 15  2  0
 15 16  1  0
 15 17  1  0
 17 18  2  0
  2 19  1  0
 19 20  2  0
 20 21  1  0
 21 22  2  0
 22 23  1  0
 23 24  2  0
 24 25  1  0
 24 26  1  0
 26 27  2  0
 27 28  1  0
 28 29  2  0
 11  7  1  0
 18 12  1  0
 29 19  1  0
 28 22  1  0
  3 30  1  0
  4 31  1  0
  4 32  1  0
  8 33  1  0
  8 34  1  0
  9 35  1  0
  9 36  1  0
 10 37  1  0
 10 38  1  0
 11 39  1  6
 13 40  1  0
 14 41  1  0
 17 42  1  0
 18 43  1  0
 20 44  1  0
 21 45  1  0
 23 46  1  0
 26 47  1  0
 27 48  1  0
M  END
>  <smiles>  (50) 
O=C(NCC(=O)N1CCCC1c1ccc(F)cc1)c1ccc2cc(Cl)ccc2n1

>  <score_type>  (50) 
oracle

>  <origin>  (50) 
autodockgpu

>  <m_score__min__energy>  (50) 
-8.8399999999999999

>  <m_primary>  (50) 
energy

>  <rmsd>  (50) 
8.520633968166546

>  <m_score__min__rmsd>  (50) 
8.520633968166546

>  <meeko>  (50) 
{"free_energy": -7.24, "intermolecular_energy": -8.73, "internal_energy": -1.83, "cluster_size": 5, "cluster_id": 5, "rank_in_cluster": 3}

>  <energy>  (50) 
-7.19

>  <cluster_rmsd>  (50) 
1.84

>  <cluster>  (50) 
6

$$$$

     RDKit          3D

 48 51  0  0  0  0  0  0  0  0999 V2000
  133.8850   69.3180  226.5410 O   0  0  0  0  0  0  0  0  0  0  0  0
  134.3520   70.4180  226.0820 C   0  0  0  0  0  0  0  0  0  0  0  0
  135.4930   70.4250  225.2080 N   0  0  0  0  0  0  0  0  0  0  0  0
  136.1750   69.2280  224.8140 C   0  0  0  0  0  0  0  0  0  0  0  0
  137.2860   69.3190  223.8870 C   0  0  0  0  0  0  0  0  0  0  0  0
  137.4300   68.2940  223.1080 O   0  0  0  0  0  0  0  0  0  0  0  0
  138.2290   70.3600  223.7070 N   0  0  0  0  0  0  0  0  0  0  0  0
  138.0390   71.7050  223.1460 C   0  0  0  0  0  0  0  0  0  0  0  0
  139.4670   72.0780  222.6730 C   0  0  0  0  0  0  0  0  0  0  0  0
  140.2000   71.5880  223.9340 C   0  0  0  0  0  0  0  0  0  0  0  0
  139.6270   70.2130  224.0740 C   0  0  1  0  0  0  0  0  0  0  0  0
  139.8290   69.6020  225.4020 C   0  0  0  0  0  0  0  0  0  0  0  0
  139.8630   68.2610  225.6230 C   0  0  0  0  0  0  0  0  0  0  0  0
  140.0580   67.7700  226.8980 C   0  0  0  0  0  0  0  0  0  0  0  0
  140.2240   68.5930  227.9990 C   0  0  0  0  0  0  0  0  0  0  0  0
  140.4150   68.1220  229.2520 F   0  0  0  0  0  0  0  0  0  0  0  0
  140.1900   69.9530  227.7770 C   0  0  0  0  0  0  0  0  0  0  0  0
  139.9970   70.4380  226.5060 C   0  0  0  0  0  0  0  0  0  0  0  0
  133.7030   71.6630  226.4640 C   0  0  0  0  0  0  0  0  0  0  0  0
  132.5320   71.6510  227.1910 C   0  0  0  0  0  0  0  0  0  0  0  0
  131.8850   72.8190  227.5720 C   0  0  0  0  0  0  0  0  0  0  0  0
  132.4510   74.0200  227.2010 C   0  0  0  0  0  0  0  0  0  0  0  0
  131.8980   75.2440  227.5230 C   0  0  0  0  0  0  0  0  0  0  0  0
  132.4960   76.4300  227.1320 C   0  0  0  0  0  0  0  0  0  0  0  0
  131.8000   77.9830  227.5370 Cl  0  0  0  0  0  0  0  0  0  0  0  0
  133.6680   76.4050  226.4060 C   0  0  0  0  0  0  0  0  0  0  0  0
  134.2260   75.1690  226.0800 C   0  0  0  0  0  0  0  0  0  0  0  0
  133.6260   73.9890  226.4720 C   0  0  0  0  0  0  0  0  0  0  0  0
  134.2350   72.8400  226.1140 N   0  0  0  0  0  0  0  0  0  0  0  0
  135.7780   71.3980  224.8880 H   0  0  0  0  0  0  0  0  0  0  0  0
  136.5602   68.7606  225.7322 H   0  0  0  0  0  0  0  0  0  0  0  0
  135.4132   68.6652  224.2546 H   0  0  0  0  0  0  0  0  0  0  0  0
  137.3331   71.6875  222.3026 H   0  0  0  0  0  0  0  0  0  0  0  0
  137.6140   72.4225  223.8633 H   0  0  0  0  0  0  0  0  0  0  0  0
  139.7695   71.5306  221.7681 H   0  0  0  0  0  0  0  0  0  0  0  0
  139.6351   73.1232  222.3742 H   0  0  0  0  0  0  0  0  0  0  0  0
  141.2893   71.5594  223.7838 H   0  0  0  0  0  0  0  0  0  0  0  0
  140.0659   72.2297  224.8173 H   0  0  0  0  0  0  0  0  0  0  0  0
  140.1488   69.4980  223.4209 H   0  0  0  0  0  0  0  0  0  0  0  0
  139.7345   67.5641  224.7817 H   0  0  0  0  0  0  0  0  0  0  0  0
  140.0825   66.6802  227.0455 H   0  0  0  0  0  0  0  0  0  0  0  0
  140.3175   70.6505  228.6180 H   0  0  0  0  0  0  0  0  0  0  0  0
  139.9741   71.5271  226.3532 H   0  0  0  0  0  0  0  0  0  0  0  0
  132.0953   70.6834  227.4791 H   0  0  0  0  0  0  0  0  0  0  0  0
  130.9505   72.7870  228.1514 H   0  0  0  0  0  0  0  0  0  0  0  0
  130.9633   75.2773  228.1020 H   0  0  0  0  0  0  0  0  0  0  0  0
  134.1529   77.3406  226.0904 H   0  0  0  0  0  0  0  0  0  0  0  0
  135.1603   75.1338  225.5005 H   0  0  0  0  0  0  0  0  0  0  0  0
  1  2  2  0
  2  3  1  0
  3  4  1  0
  4  5  1  0
  5  6  2  0
  5  7  1  0
  7  8  1  0
  8  9  1  0
  9 10  1  0
 10 11  1  0
 11 12  1  0
 12 13  2  0
 13 14  1  0
 14 15  2  0
 15 16  1  0
 15 17  1  0
 17 18  2  0
  2 19  1  0
 19 20  2  0
 20 21  1  0
 21 22  2  0
 22 23  1  0
 23 24  2  0
 24 25  1  0
 24 26  1  0
 26 27  2  0
 27 28  1  0
 28 29  2  0
 11  7  1  0
 18 12  1  0
 29 19  1  0
 28 22  1  0
  3 30  1  0
  4 31  1  0
  4 32  1  0
  8 33  1  0
  8 34  1  0
  9 35  1  0
  9 36  1  0
 10 37  1  0
 10 38  1  0
 11 39  1  6
 13 40  1  0
 14 41  1  0
 17 42  1  0
 18 43  1  0
 20 44  1  0
 21 45  1  0
 23 46  1  0
 26 47  1  0
 27 48  1  0
M  END
>  <smiles>  (51) 
O=C(NCC(=O)N1CCCC1c1ccc(F)cc1)c1ccc2cc(Cl)ccc2n1

>  <score_type>  (51) 
oracle

>  <origin>  (51) 
autodockgpu

>  <m_score__min__energy>  (51) 
-8.7400000000000002

>  <m_primary>  (51) 
energy

>  <rmsd>  (51) 
7.803473589551769

>  <m_score__min__rmsd>  (51) 
7.803473589551769

>  <meeko>  (51) 
{"free_energy": -8.27, "intermolecular_energy": -9.76, "internal_energy": -1.63, "cluster_size": 19, "cluster_id": 2, "rank_in_cluster": 11}

>  <energy>  (51) 
-8.74

>  <cluster_rmsd>  (51) 
0.0

>  <cluster>  (51) 
1

$$$$

     RDKit          3D

 48 51  0  0  0  0  0  0  0  0999 V2000
  134.7610   68.4880  225.2100 O   0  0  0  0  0  0  0  0  0  0  0  0
  135.1720   69.6920  225.0790 C   0  0  0  0  0  0  0  0  0  0  0  0
  136.3760   69.9840  224.3490 N   0  0  0  0  0  0  0  0  0  0  0  0
  137.1820   68.9650  223.7460 C   0  0  0  0  0  0  0  0  0  0  0  0
  138.4590   68.6270  224.3430 C   0  0  0  0  0  0  0  0  0  0  0  0
  138.9700   67.5070  223.9390 O   0  0  0  0  0  0  0  0  0  0  0  0
  139.2280   69.3400  225.2960 N   0  0  0  0  0  0  0  0  0  0  0  0
  140.0150   68.8340  226.4290 C   0  0  0  0  0  0  0  0  0  0  0  0
  140.0740   70.0610  227.3730 C   0  0  0  0  0  0  0  0  0  0  0  0
  140.3960   71.1010  226.2850 C   0  0  0  0  0  0  0  0  0  0  0  0
  139.3350   70.7890  225.2780 C   0  0  1  0  0  0  0  0  0  0  0  0
  139.5880   71.3480  223.9360 C   0  0  0  0  0  0  0  0  0  0  0  0
  140.8250   71.4730  223.3870 C   0  0  0  0  0  0  0  0  0  0  0  0
  140.9770   72.0080  222.1240 C   0  0  0  0  0  0  0  0  0  0  0  0
  139.9050   72.4390  221.3610 C   0  0  0  0  0  0  0  0  0  0  0  0
  140.0420   72.9640  220.1230 F   0  0  0  0  0  0  0  0  0  0  0  0
  138.6500   72.3120  221.9160 C   0  0  0  0  0  0  0  0  0  0  0  0
  138.5020   71.7790  223.1730 C   0  0  0  0  0  0  0  0  0  0  0  0
  134.3940   70.7640  225.6840 C   0  0  0  0  0  0  0  0  0  0  0  0
  133.3310   70.4780  226.5130 C   0  0  0  0  0  0  0  0  0  0  0  0
  132.5680   71.4740  227.1070 C   0  0  0  0  0  0  0  0  0  0  0  0
  132.9020   72.7850  226.8460 C   0  0  0  0  0  0  0  0  0  0  0  0
  132.2160   73.8580  227.3800 C   0  0  0  0  0  0  0  0  0  0  0  0
  132.5810   75.1630  227.0940 C   0  0  0  0  0  0  0  0  0  0  0  0
  131.7150   76.5250  227.7680 Cl  0  0  0  0  0  0  0  0  0  0  0  0
  133.6510   75.4120  226.2610 C   0  0  0  0  0  0  0  0  0  0  0  0
  134.3440   74.3280  225.7210 C   0  0  0  0  0  0  0  0  0  0  0  0
  133.9760   73.0300  226.0080 C   0  0  0  0  0  0  0  0  0  0  0  0
  134.7020   72.0440  225.4430 N   0  0  0  0  0  0  0  0  0  0  0  0
  136.6050   71.0210  224.3030 H   0  0  0  0  0  0  0  0  0  0  0  0
  136.5797   68.0446  223.7332 H   0  0  0  0  0  0  0  0  0  0  0  0
  137.4548   69.3913  222.7693 H   0  0  0  0  0  0  0  0  0  0  0  0
  139.5126   67.9838  226.9135 H   0  0  0  0  0  0  0  0  0  0  0  0
  141.0067   68.4563  226.1394 H   0  0  0  0  0  0  0  0  0  0  0  0
  139.1143   70.2560  227.8739 H   0  0  0  0  0  0  0  0  0  0  0  0
  140.7678   70.0007  228.2245 H   0  0  0  0  0  0  0  0  0  0  0  0
  140.3027   72.1285  226.6666 H   0  0  0  0  0  0  0  0  0  0  0  0
  141.4234   71.0500  225.8954 H   0  0  0  0  0  0  0  0  0  0  0  0
  138.3828   71.2724  225.5420 H   0  0  0  0  0  0  0  0  0  0  0  0
  141.7100   71.1459  223.9525 H   0  0  0  0  0  0  0  0  0  0  0  0
  141.9909   72.0956  221.7065 H   0  0  0  0  0  0  0  0  0  0  0  0
  137.7646   72.6384  221.3508 H   0  0  0  0  0  0  0  0  0  0  0  0
  137.4898   71.6885  223.5940 H   0  0  0  0  0  0  0  0  0  0  0  0
  133.0787   69.4257  226.7106 H   0  0  0  0  0  0  0  0  0  0  0  0
  131.7230   71.2244  227.7656 H   0  0  0  0  0  0  0  0  0  0  0  0
  131.3612   73.6722  228.0469 H   0  0  0  0  0  0  0  0  0  0  0  0
  133.9521   76.4438  226.0270 H   0  0  0  0  0  0  0  0  0  0  0  0
  135.1994   74.5119  225.0543 H   0  0  0  0  0  0  0  0  0  0  0  0
  1  2  2  0
  2  3  1  0
  3  4  1  0
  4  5  1  0
  5  6  2  0
  5  7  1  0
  7  8  1  0
  8  9  1  0
  9 10  1  0
 10 11  1  0
 11 12  1  0
 12 13  2  0
 13 14  1  0
 14 15  2  0
 15 16  1  0
 15 17  1  0
 17 18  2  0
  2 19  1  0
 19 20  2  0
 20 21  1  0
 21 22  2  0
 22 23  1  0
 23 24  2  0
 24 25  1  0
 24 26  1  0
 26 27  2  0
 27 28  1  0
 28 29  2  0
 11  7  1  0
 18 12  1  0
 29 19  1  0
 28 22  1  0
  3 30  1  0
  4 31  1  0
  4 32  1  0
  8 33  1  0
  8 34  1  0
  9 35  1  0
  9 36  1  0
 10 37  1  0
 10 38  1  0
 11 39  1  1
 13 40  1  0
 14 41  1  0
 17 42  1  0
 18 43  1  0
 20 44  1  0
 21 45  1  0
 23 46  1  0
 26 47  1  0
 27 48  1  0
M  END
>  <smiles>  (52) 
O=C(NCC(=O)N1CCCC1c1ccc(F)cc1)c1ccc2cc(Cl)ccc2n1

>  <score_type>  (52) 
oracle

>  <origin>  (52) 
autodockgpu

>  <m_score__min__energy>  (52) 
-8.7400000000000002

>  <m_primary>  (52) 
energy

>  <rmsd>  (52) 
8.172333432323407

>  <m_score__min__rmsd>  (52) 
8.172333432323407

>  <meeko>  (52) 
{"free_energy": -7.26, "intermolecular_energy": -8.75, "internal_energy": -1.78, "cluster_size": 1, "cluster_id": 7, "rank_in_cluster": 1}

>  <energy>  (52) 
-8.68

>  <cluster_rmsd>  (52) 
0.25

>  <cluster>  (52) 
1

$$$$

     RDKit          3D

 48 51  0  0  0  0  0  0  0  0999 V2000
  133.9290   69.3090  226.5410 O   0  0  0  0  0  0  0  0  0  0  0  0
  134.3760   70.4110  226.0670 C   0  0  0  0  0  0  0  0  0  0  0  0
  135.5060   70.4260  225.1800 N   0  0  0  0  0  0  0  0  0  0  0  0
  136.2000   69.2360  224.7880 C   0  0  0  0  0  0  0  0  0  0  0  0
  137.2880   69.3320  223.8360 C   0  0  0  0  0  0  0  0  0  0  0  0
  137.3970   68.3240  223.0300 O   0  0  0  0  0  0  0  0  0  0  0  0
  138.2430   70.3630  223.6560 N   0  0  0  0  0  0  0  0  0  0  0  0
  138.0680   71.7110  223.0980 C   0  0  0  0  0  0  0  0  0  0  0  0
  139.4990   72.0680  222.6230 C   0  0  0  0  0  0  0  0  0  0  0  0
  140.2280   71.5680  223.8820 C   0  0  0  0  0  0  0  0  0  0  0  0
  139.6400   70.1990  224.0210 C   0  0  1  0  0  0  0  0  0  0  0  0
  139.8380   69.5830  225.3470 C   0  0  0  0  0  0  0  0  0  0  0  0
  139.7940   68.2440  225.5760 C   0  0  0  0  0  0  0  0  0  0  0  0
  139.9900   67.7480  226.8490 C   0  0  0  0  0  0  0  0  0  0  0  0
  140.2350   68.5640  227.9400 C   0  0  0  0  0  0  0  0  0  0  0  0
  140.4280   68.0890  229.1910 F   0  0  0  0  0  0  0  0  0  0  0  0
  140.2800   69.9220  227.7090 C   0  0  0  0  0  0  0  0  0  0  0  0
  140.0850   70.4130  226.4410 C   0  0  0  0  0  0  0  0  0  0  0  0
  133.7130   71.6500  226.4460 C   0  0  0  0  0  0  0  0  0  0  0  0
  132.5300   71.6270  227.1520 C   0  0  0  0  0  0  0  0  0  0  0  0
  131.8710   72.7900  227.5300 C   0  0  0  0  0  0  0  0  0  0  0  0
  132.4360   73.9960  227.1760 C   0  0  0  0  0  0  0  0  0  0  0  0
  131.8720   75.2150  227.4970 C   0  0  0  0  0  0  0  0  0  0  0  0
  132.4700   76.4070  227.1230 C   0  0  0  0  0  0  0  0  0  0  0  0
  131.7590   77.9530  227.5260 Cl  0  0  0  0  0  0  0  0  0  0  0  0
  133.6540   76.3920  226.4170 C   0  0  0  0  0  0  0  0  0  0  0  0
  134.2240   75.1610  226.0940 C   0  0  0  0  0  0  0  0  0  0  0  0
  133.6240   73.9760  226.4670 C   0  0  0  0  0  0  0  0  0  0  0  0
  134.2450   72.8320  226.1120 N   0  0  0  0  0  0  0  0  0  0  0  0
  135.7740   71.4000  224.8480 H   0  0  0  0  0  0  0  0  0  0  0  0
  136.6133   68.7888  225.7040 H   0  0  0  0  0  0  0  0  0  0  0  0
  135.4361   68.6524  224.2534 H   0  0  0  0  0  0  0  0  0  0  0  0
  137.3603   71.7035  222.2559 H   0  0  0  0  0  0  0  0  0  0  0  0
  137.6530   72.4321  223.8176 H   0  0  0  0  0  0  0  0  0  0  0  0
  139.7936   71.5182  221.7169 H   0  0  0  0  0  0  0  0  0  0  0  0
  139.6788   73.1115  222.3251 H   0  0  0  0  0  0  0  0  0  0  0  0
  141.3167   71.5275  223.7302 H   0  0  0  0  0  0  0  0  0  0  0  0
  140.1021   72.2098  224.7664 H   0  0  0  0  0  0  0  0  0  0  0  0
  140.1525   69.4788  223.3663 H   0  0  0  0  0  0  0  0  0  0  0  0
  139.6013   67.5523  224.7427 H   0  0  0  0  0  0  0  0  0  0  0  0
  139.9499   66.6596  227.0029 H   0  0  0  0  0  0  0  0  0  0  0  0
  140.4725   70.6142  228.5419 H   0  0  0  0  0  0  0  0  0  0  0  0
  140.1251   71.5007  226.2822 H   0  0  0  0  0  0  0  0  0  0  0  0
  132.0928   70.6553  227.4254 H   0  0  0  0  0  0  0  0  0  0  0  0
  130.9276   72.7495  228.0943 H   0  0  0  0  0  0  0  0  0  0  0  0
  130.9282   75.2398  228.0614 H   0  0  0  0  0  0  0  0  0  0  0  0
  134.1392   77.3318  226.1147 H   0  0  0  0  0  0  0  0  0  0  0  0
  135.1690   75.1343  225.5317 H   0  0  0  0  0  0  0  0  0  0  0  0
  1  2  2  0
  2  3  1  0
  3  4  1  0
  4  5  1  0
  5  6  2  0
  5  7  1  0
  7  8  1  0
  8  9  1  0
  9 10  1  0
 10 11  1  0
 11 12  1  0
 12 13  2  0
 13 14  1  0
 14 15  2  0
 15 16  1  0
 15 17  1  0
 17 18  2  0
  2 19  1  0
 19 20  2  0
 20 21  1  0
 21 22  2  0
 22 23  1  0
 23 24  2  0
 24 25  1  0
 24 26  1  0
 26 27  2  0
 27 28  1  0
 28 29  2  0
 11  7  1  0
 18 12  1  0
 29 19  1  0
 28 22  1  0
  3 30  1  0
  4 31  1  0
  4 32  1  0
  8 33  1  0
  8 34  1  0
  9 35  1  0
  9 36  1  0
 10 37  1  0
 10 38  1  0
 11 39  1  6
 13 40  1  0
 14 41  1  0
 17 42  1  0
 18 43  1  0
 20 44  1  0
 21 45  1  0
 23 46  1  0
 26 47  1  0
 27 48  1  0
M  END
>  <smiles>  (53) 
O=C(NCC(=O)N1CCCC1c1ccc(F)cc1)c1ccc2cc(Cl)ccc2n1

>  <score_type>  (53) 
oracle

>  <origin>  (53) 
autodockgpu

>  <m_score__min__energy>  (53) 
-8.7400000000000002

>  <m_primary>  (53) 
energy

>  <rmsd>  (53) 
7.78502992101274

>  <m_score__min__rmsd>  (53) 
7.78502992101274

>  <meeko>  (53) 
{"free_energy": -8.28, "intermolecular_energy": -9.78, "internal_energy": -1.61, "cluster_size": 19, "cluster_id": 2, "rank_in_cluster": 10}

>  <energy>  (53) 
-8.21

>  <cluster_rmsd>  (53) 
1.95

>  <cluster>  (53) 
1

$$$$

     RDKit          3D

 48 51  0  0  0  0  0  0  0  0999 V2000
  139.2360   72.7990  220.7000 O   0  0  0  0  0  0  0  0  0  0  0  0
  140.0050   72.9560  221.7110 C   0  0  0  0  0  0  0  0  0  0  0  0
  140.9200   74.0620  221.7740 N   0  0  0  0  0  0  0  0  0  0  0  0
  141.0380   75.0320  220.7260 C   0  0  0  0  0  0  0  0  0  0  0  0
  139.9320   75.9320  220.4670 C   0  0  0  0  0  0  0  0  0  0  0  0
  139.8900   76.4100  219.2640 O   0  0  0  0  0  0  0  0  0  0  0  0
  138.8940   76.3600  221.3310 N   0  0  0  0  0  0  0  0  0  0  0  0
  137.8370   75.5740  221.9820 C   0  0  0  0  0  0  0  0  0  0  0  0
  136.7400   76.6360  222.2440 C   0  0  0  0  0  0  0  0  0  0  0  0
  137.6810   77.7280  222.7810 C   0  0  0  0  0  0  0  0  0  0  0  0
  138.7220   77.7530  221.7060 C   0  0  1  0  0  0  0  0  0  0  0  0
  139.9790   78.4230  222.0930 C   0  0  0  0  0  0  0  0  0  0  0  0
  140.7980   77.9830  223.0840 C   0  0  0  0  0  0  0  0  0  0  0  0
  141.9580   78.6680  223.3850 C   0  0  0  0  0  0  0  0  0  0  0  0
  142.3450   79.8150  222.7120 C   0  0  0  0  0  0  0  0  0  0  0  0
  143.4780   80.4940  222.9980 F   0  0  0  0  0  0  0  0  0  0  0  0
  141.5150   80.2620  221.7060 C   0  0  0  0  0  0  0  0  0  0  0  0
  140.3610   79.5770  221.4090 C   0  0  0  0  0  0  0  0  0  0  0  0
  139.9330   71.9900  222.7970 C   0  0  0  0  0  0  0  0  0  0  0  0
  139.2610   70.7980  222.6340 C   0  0  0  0  0  0  0  0  0  0  0  0
  139.1720   69.8540  223.6480 C   0  0  0  0  0  0  0  0  0  0  0  0
  139.7840   70.1380  224.8500 C   0  0  0  0  0  0  0  0  0  0  0  0
  139.7620   69.2760  225.9290 C   0  0  0  0  0  0  0  0  0  0  0  0
  140.3880   69.5970  227.1210 C   0  0  0  0  0  0  0  0  0  0  0  0
  140.3640   68.5100  228.4910 Cl  0  0  0  0  0  0  0  0  0  0  0  0
  141.0520   70.7990  227.2490 C   0  0  0  0  0  0  0  0  0  0  0  0
  141.0740   71.6700  226.1600 C   0  0  0  0  0  0  0  0  0  0  0  0
  140.4480   71.3460  224.9740 C   0  0  0  0  0  0  0  0  0  0  0  0
  140.5200   72.2470  223.9720 N   0  0  0  0  0  0  0  0  0  0  0  0
  141.4960   74.0880  222.6680 H   0  0  0  0  0  0  0  0  0  0  0  0
  141.9117   75.6567  220.9634 H   0  0  0  0  0  0  0  0  0  0  0  0
  141.0989   74.4230  219.8120 H   0  0  0  0  0  0  0  0  0  0  0  0
  137.4685   74.7776  221.3187 H   0  0  0  0  0  0  0  0  0  0  0  0
  138.1734   75.0580  222.8934 H   0  0  0  0  0  0  0  0  0  0  0  0
  136.2186   76.9414  221.3248 H   0  0  0  0  0  0  0  0  0  0  0  0
  135.9033   76.3373  222.8926 H   0  0  0  0  0  0  0  0  0  0  0  0
  137.1678   78.6968  222.8704 H   0  0  0  0  0  0  0  0  0  0  0  0
  138.0729   77.5359  223.7907 H   0  0  0  0  0  0  0  0  0  0  0  0
  138.3982   78.3684  220.8537 H   0  0  0  0  0  0  0  0  0  0  0  0
  140.5353   77.0765  223.6491 H   0  0  0  0  0  0  0  0  0  0  0  0
  142.6012   78.2874  224.1922 H   0  0  0  0  0  0  0  0  0  0  0  0
  141.7767   81.1683  221.1401 H   0  0  0  0  0  0  0  0  0  0  0  0
  139.7148   79.9528  220.6020 H   0  0  0  0  0  0  0  0  0  0  0  0
  138.7789   70.5874  221.6680 H   0  0  0  0  0  0  0  0  0  0  0  0
  138.6300   68.9088  223.4969 H   0  0  0  0  0  0  0  0  0  0  0  0
  139.2359   68.3142  225.8391 H   0  0  0  0  0  0  0  0  0  0  0  0
  141.5540   71.0653  228.1908 H   0  0  0  0  0  0  0  0  0  0  0  0
  141.5997   72.6322  226.2482 H   0  0  0  0  0  0  0  0  0  0  0  0
  1  2  2  0
  2  3  1  0
  3  4  1  0
  4  5  1  0
  5  6  2  0
  5  7  1  0
  7  8  1  0
  8  9  1  0
  9 10  1  0
 10 11  1  0
 11 12  1  0
 12 13  2  0
 13 14  1  0
 14 15  2  0
 15 16  1  0
 15 17  1  0
 17 18  2  0
  2 19  1  0
 19 20  2  0
 20 21  1  0
 21 22  2  0
 22 23  1  0
 23 24  2  0
 24 25  1  0
 24 26  1  0
 26 27  2  0
 27 28  1  0
 28 29  2  0
 11  7  1  0
 18 12  1  0
 29 19  1  0
 28 22  1  0
  3 30  1  0
  4 31  1  0
  4 32  1  0
  8 33  1  0
  8 34  1  0
  9 35  1  0
  9 36  1  0
 10 37  1  0
 10 38  1  0
 11 39  1  6
 13 40  1  0
 14 41  1  0
 17 42  1  0
 18 43  1  0
 20 44  1  0
 21 45  1  0
 23 46  1  0
 26 47  1  0
 27 48  1  0
M  END
>  <smiles>  (54) 
O=C(NCC(=O)N1CCCC1c1ccc(F)cc1)c1ccc2cc(Cl)ccc2n1

>  <score_type>  (54) 
oracle

>  <origin>  (54) 
autodockgpu

>  <m_score__min__energy>  (54) 
-8.7400000000000002

>  <m_primary>  (54) 
energy

>  <rmsd>  (54) 
3.1552765439770427

>  <m_score__min__rmsd>  (54) 
3.1552765439770427

>  <meeko>  (54) 
{"free_energy": -7.32, "intermolecular_energy": -8.81, "internal_energy": -1.83, "cluster_size": 12, "cluster_id": 1, "rank_in_cluster": 12}

>  <energy>  (54) 
-8.11

>  <cluster_rmsd>  (54) 
1.98

>  <cluster>  (54) 
1

$$$$

     RDKit          3D

 48 51  0  0  0  0  0  0  0  0999 V2000
  133.9530   69.2370  226.1970 O   0  0  0  0  0  0  0  0  0  0  0  0
  134.3620   70.3660  225.7550 C   0  0  0  0  0  0  0  0  0  0  0  0
  135.4200   70.4370  224.7850 N   0  0  0  0  0  0  0  0  0  0  0  0
  136.0800   69.2740  224.2720 C   0  0  0  0  0  0  0  0  0  0  0  0
  137.5240   69.2760  224.1480 C   0  0  0  0  0  0  0  0  0  0  0  0
  138.0790   68.1070  224.2180 O   0  0  0  0  0  0  0  0  0  0  0  0
  138.4130   70.3630  223.9570 N   0  0  0  0  0  0  0  0  0  0  0  0
  138.1490   71.7000  223.4080 C   0  0  0  0  0  0  0  0  0  0  0  0
  139.5490   72.1430  222.9130 C   0  0  0  0  0  0  0  0  0  0  0  0
  140.3270   71.6820  224.1580 C   0  0  0  0  0  0  0  0  0  0  0  0
  139.8230   70.2810  224.2990 C   0  0  1  0  0  0  0  0  0  0  0  0
  140.0780   69.6740  225.6200 C   0  0  0  0  0  0  0  0  0  0  0  0
  140.3850   68.3620  225.8050 C   0  0  0  0  0  0  0  0  0  0  0  0
  140.6100   67.8720  227.0760 C   0  0  0  0  0  0  0  0  0  0  0  0
  140.5360   68.6660  228.2080 C   0  0  0  0  0  0  0  0  0  0  0  0
  140.7540   68.1970  229.4560 F   0  0  0  0  0  0  0  0  0  0  0  0
  140.2240   69.9960  228.0210 C   0  0  0  0  0  0  0  0  0  0  0  0
  140.0020   70.4810  226.7550 C   0  0  0  0  0  0  0  0  0  0  0  0
  133.7320   71.5790  226.2550 C   0  0  0  0  0  0  0  0  0  0  0  0
  132.5990   71.5110  227.0370 C   0  0  0  0  0  0  0  0  0  0  0  0
  131.9720   72.6470  227.5310 C   0  0  0  0  0  0  0  0  0  0  0  0
  132.5180   73.8730  227.2170 C   0  0  0  0  0  0  0  0  0  0  0  0
  131.9820   75.0690  227.6520 C   0  0  0  0  0  0  0  0  0  0  0  0
  132.5580   76.2830  227.3150 C   0  0  0  0  0  0  0  0  0  0  0  0
  131.8830   77.8010  227.8620 Cl  0  0  0  0  0  0  0  0  0  0  0  0
  133.6920   76.3130  226.5310 C   0  0  0  0  0  0  0  0  0  0  0  0
  134.2340   75.1050  226.0930 C   0  0  0  0  0  0  0  0  0  0  0  0
  133.6550   73.8980  226.4300 C   0  0  0  0  0  0  0  0  0  0  0  0
  134.2460   72.7790  225.9620 N   0  0  0  0  0  0  0  0  0  0  0  0
  135.6620   71.4290  224.4900 H   0  0  0  0  0  0  0  0  0  0  0  0
  135.8157   68.4364  224.9343 H   0  0  0  0  0  0  0  0  0  0  0  0
  135.7287   69.2122  223.2314 H   0  0  0  0  0  0  0  0  0  0  0  0
  137.4301   71.6533  222.5768 H   0  0  0  0  0  0  0  0  0  0  0  0
  137.7027   72.3925  224.1368 H   0  0  0  0  0  0  0  0  0  0  0  0
  139.8612   71.6154  221.9997 H   0  0  0  0  0  0  0  0  0  0  0  0
  139.6618   73.1967  222.6179 H   0  0  0  0  0  0  0  0  0  0  0  0
  141.4136   71.7064  223.9886 H   0  0  0  0  0  0  0  0  0  0  0  0
  140.1783   72.3117  225.0476 H   0  0  0  0  0  0  0  0  0  0  0  0
  140.3660   69.5948  223.6324 H   0  0  0  0  0  0  0  0  0  0  0  0
  140.4543   67.6883  224.9382 H   0  0  0  0  0  0  0  0  0  0  0  0
  140.8583   66.8069  227.1943 H   0  0  0  0  0  0  0  0  0  0  0  0
  140.1527   70.6701  228.8873 H   0  0  0  0  0  0  0  0  0  0  0  0
  139.7550   71.5458  226.6318 H   0  0  0  0  0  0  0  0  0  0  0  0
  132.1775   70.5239  227.2777 H   0  0  0  0  0  0  0  0  0  0  0  0
  131.0681   72.5710  228.1533 H   0  0  0  0  0  0  0  0  0  0  0  0
  131.0785   75.0575  228.2794 H   0  0  0  0  0  0  0  0  0  0  0  0
  134.1595   77.2702  226.2567 H   0  0  0  0  0  0  0  0  0  0  0  0
  135.1390   75.1141  225.4678 H   0  0  0  0  0  0  0  0  0  0  0  0
  1  2  2  0
  2  3  1  0
  3  4  1  0
  4  5  1  0
  5  6  2  0
  5  7  1  0
  7  8  1  0
  8  9  1  0
  9 10  1  0
 10 11  1  0
 11 12  1  0
 12 13  2  0
 13 14  1  0
 14 15  2  0
 15 16  1  0
 15 17  1  0
 17 18  2  0
  2 19  1  0
 19 20  2  0
 20 21  1  0
 21 22  2  0
 22 23  1  0
 23 24  2  0
 24 25  1  0
 24 26  1  0
 26 27  2  0
 27 28  1  0
 28 29  2  0
 11  7  1  0
 18 12  1  0
 29 19  1  0
 28 22  1  0
  3 30  1  0
  4 31  1  0
  4 32  1  0
  8 33  1  0
  8 34  1  0
  9 35  1  0
  9 36  1  0
 10 37  1  0
 10 38  1  0
 11 39  1  6
 13 40  1  0
 14 41  1  0
 17 42  1  0
 18 43  1  0
 20 44  1  0
 21 45  1  0
 23 46  1  0
 26 47  1  0
 27 48  1  0
M  END
>  <smiles>  (55) 
O=C(NCC(=O)N1CCCC1c1ccc(F)cc1)c1ccc2cc(Cl)ccc2n1

>  <score_type>  (55) 
oracle

>  <origin>  (55) 
autodockgpu

>  <m_score__min__energy>  (55) 
-8.7400000000000002

>  <m_primary>  (55) 
energy

>  <rmsd>  (55) 
7.728076839950936

>  <m_score__min__rmsd>  (55) 
7.728076839950936

>  <meeko>  (55) 
{"free_energy": -8.21, "intermolecular_energy": -9.7, "internal_energy": -1.53, "cluster_size": 19, "cluster_id": 2, "rank_in_cluster": 14}

>  <energy>  (55) 
-8.07

>  <cluster_rmsd>  (55) 
1.59

>  <cluster>  (55) 
1

$$$$

     RDKit          3D

 48 51  0  0  0  0  0  0  0  0999 V2000
  134.1710   69.2610  226.4880 O   0  0  0  0  0  0  0  0  0  0  0  0
  134.4630   70.3730  225.9270 C   0  0  0  0  0  0  0  0  0  0  0  0
  135.4570   70.4360  224.8910 N   0  0  0  0  0  0  0  0  0  0  0  0
  136.1790   69.2850  224.4390 C   0  0  0  0  0  0  0  0  0  0  0  0
  137.6160   69.2340  224.6190 C   0  0  0  0  0  0  0  0  0  0  0  0
  138.0590   68.1400  225.1530 O   0  0  0  0  0  0  0  0  0  0  0  0
  138.6020   70.1980  224.2950 N   0  0  0  0  0  0  0  0  0  0  0  0
  138.4510   71.5070  223.6440 C   0  0  0  0  0  0  0  0  0  0  0  0
  139.8600   71.7530  223.0490 C   0  0  0  0  0  0  0  0  0  0  0  0
  140.6510   71.3130  224.2930 C   0  0  0  0  0  0  0  0  0  0  0  0
  140.0120   69.9910  224.5790 C   0  0  1  0  0  0  0  0  0  0  0  0
  140.2730   69.4700  225.9340 C   0  0  0  0  0  0  0  0  0  0  0  0
  140.0300   70.1680  227.0750 C   0  0  0  0  0  0  0  0  0  0  0  0
  140.3030   69.6080  228.3070 C   0  0  0  0  0  0  0  0  0  0  0  0
  140.8290   68.3350  228.4490 C   0  0  0  0  0  0  0  0  0  0  0  0
  141.1000   67.7760  229.6500 F   0  0  0  0  0  0  0  0  0  0  0  0
  141.0760   67.6260  227.2930 C   0  0  0  0  0  0  0  0  0  0  0  0
  140.8020   68.1860  226.0690 C   0  0  0  0  0  0  0  0  0  0  0  0
  133.7670   71.5750  226.3610 C   0  0  0  0  0  0  0  0  0  0  0  0
  132.6000   71.4870  227.0890 C   0  0  0  0  0  0  0  0  0  0  0  0
  131.9100   72.6130  227.5190 C   0  0  0  0  0  0  0  0  0  0  0  0
  132.4260   73.8490  227.1960 C   0  0  0  0  0  0  0  0  0  0  0  0
  131.8270   75.0360  227.5690 C   0  0  0  0  0  0  0  0  0  0  0  0
  132.3750   76.2600  227.2250 C   0  0  0  0  0  0  0  0  0  0  0  0
  131.6200   77.7670  227.6940 Cl  0  0  0  0  0  0  0  0  0  0  0  0
  133.5440   76.3110  226.4950 C   0  0  0  0  0  0  0  0  0  0  0  0
  134.1490   75.1120  226.1190 C   0  0  0  0  0  0  0  0  0  0  0  0
  133.5990   73.8940  226.4630 C   0  0  0  0  0  0  0  0  0  0  0  0
  134.2510   72.7860  226.0570 N   0  0  0  0  0  0  0  0  0  0  0  0
  135.6030   71.4140  224.4990 H   0  0  0  0  0  0  0  0  0  0  0  0
  135.7585   68.4153  224.9651 H   0  0  0  0  0  0  0  0  0  0  0  0
  136.0539   69.3112  223.3465 H   0  0  0  0  0  0  0  0  0  0  0  0
  137.6868   71.4716  222.8536 H   0  0  0  0  0  0  0  0  0  0  0  0
  138.1209   72.3012  224.3298 H   0  0  0  0  0  0  0  0  0  0  0  0
  140.0652   71.1217  222.1718 H   0  0  0  0  0  0  0  0  0  0  0  0
  140.0665   72.7603  222.6581 H   0  0  0  0  0  0  0  0  0  0  0  0
  141.7235   71.2051  224.0735 H   0  0  0  0  0  0  0  0  0  0  0  0
  140.6165   72.0259  225.1300 H   0  0  0  0  0  0  0  0  0  0  0  0
  140.4439   69.1974  223.9516 H   0  0  0  0  0  0  0  0  0  0  0  0
  139.6136   71.1845  227.0163 H   0  0  0  0  0  0  0  0  0  0  0  0
  140.0942   70.1968  229.2124 H   0  0  0  0  0  0  0  0  0  0  0  0
  141.4933   66.6099  227.3508 H   0  0  0  0  0  0  0  0  0  0  0  0
  141.0074   67.6000  225.1610 H   0  0  0  0  0  0  0  0  0  0  0  0
  132.2020   70.4921  227.3377 H   0  0  0  0  0  0  0  0  0  0  0  0
  130.9802   72.5209  228.0995 H   0  0  0  0  0  0  0  0  0  0  0  0
  130.8945   75.0085  228.1519 H   0  0  0  0  0  0  0  0  0  0  0  0
  133.9898   77.2769  226.2152 H   0  0  0  0  0  0  0  0  0  0  0  0
  135.0822   75.1377  225.5373 H   0  0  0  0  0  0  0  0  0  0  0  0
  1  2  2  0
  2  3  1  0
  3  4  1  0
  4  5  1  0
  5  6  2  0
  5  7  1  0
  7  8  1  0
  8  9  1  0
  9 10  1  0
 10 11  1  0
 11 12  1  0
 12 13  2  0
 13 14  1  0
 14 15  2  0
 15 16  1  0
 15 17  1  0
 17 18  2  0
  2 19  1  0
 19 20  2  0
 20 21  1  0
 21 22  2  0
 22 23  1  0
 23 24  2  0
 24 25  1  0
 24 26  1  0
 26 27  2  0
 27 28  1  0
 28 29  2  0
 11  7  1  0
 18 12  1  0
 29 19  1  0
 28 22  1  0
  3 30  1  0
  4 31  1  0
  4 32  1  0
  8 33  1  0
  8 34  1  0
  9 35  1  0
  9 36  1  0
 10 37  1  0
 10 38  1  0
 11 39  1  6
 13 40  1  0
 14 41  1  0
 17 42  1  0
 18 43  1  0
 20 44  1  0
 21 45  1  0
 23 46  1  0
 26 47  1  0
 27 48  1  0
M  END
>  <smiles>  (56) 
O=C(NCC(=O)N1CCCC1c1ccc(F)cc1)c1ccc2cc(Cl)ccc2n1

>  <score_type>  (56) 
oracle

>  <origin>  (56) 
autodockgpu

>  <m_score__min__energy>  (56) 
-8.7400000000000002

>  <m_primary>  (56) 
energy

>  <rmsd>  (56) 
7.8803826379350115

>  <m_score__min__rmsd>  (56) 
7.8803826379350115

>  <meeko>  (56) 
{"free_energy": -8.6, "intermolecular_energy": -10.09, "internal_energy": -1.41, "cluster_size": 19, "cluster_id": 2, "rank_in_cluster": 3}

>  <energy>  (56) 
-8.04

>  <cluster_rmsd>  (56) 
1.95

>  <cluster>  (56) 
1

$$$$

     RDKit          3D

 48 51  0  0  0  0  0  0  0  0999 V2000
  134.0430   69.2170  226.2560 O   0  0  0  0  0  0  0  0  0  0  0  0
  134.4210   70.3350  225.7630 C   0  0  0  0  0  0  0  0  0  0  0  0
  135.4480   70.3870  224.7590 N   0  0  0  0  0  0  0  0  0  0  0  0
  136.1100   69.2160  224.2660 C   0  0  0  0  0  0  0  0  0  0  0  0
  137.5490   69.2360  224.0930 C   0  0  0  0  0  0  0  0  0  0  0  0
  138.1120   68.0700  224.0800 O   0  0  0  0  0  0  0  0  0  0  0  0
  138.4240   70.3380  223.9320 N   0  0  0  0  0  0  0  0  0  0  0  0
  138.1510   71.6770  223.3920 C   0  0  0  0  0  0  0  0  0  0  0  0
  139.5530   72.1470  222.9300 C   0  0  0  0  0  0  0  0  0  0  0  0
  140.3120   71.6850  224.1860 C   0  0  0  0  0  0  0  0  0  0  0  0
  139.8270   70.2740  224.3030 C   0  0  1  0  0  0  0  0  0  0  0  0
  140.0650   69.6570  225.6220 C   0  0  0  0  0  0  0  0  0  0  0  0
  140.3490   68.3400  225.8030 C   0  0  0  0  0  0  0  0  0  0  0  0
  140.5580   67.8400  227.0730 C   0  0  0  0  0  0  0  0  0  0  0  0
  140.4910   68.6310  228.2080 C   0  0  0  0  0  0  0  0  0  0  0  0
  140.6930   68.1520  229.4560 F   0  0  0  0  0  0  0  0  0  0  0  0
  140.2030   69.9670  228.0260 C   0  0  0  0  0  0  0  0  0  0  0  0
  139.9960   70.4610  226.7600 C   0  0  0  0  0  0  0  0  0  0  0  0
  133.7880   71.5550  226.2400 C   0  0  0  0  0  0  0  0  0  0  0  0
  132.6340   71.5010  226.9920 C   0  0  0  0  0  0  0  0  0  0  0  0
  132.0040   72.6450  227.4630 C   0  0  0  0  0  0  0  0  0  0  0  0
  132.5670   73.8650  227.1570 C   0  0  0  0  0  0  0  0  0  0  0  0
  132.0300   75.0680  227.5710 C   0  0  0  0  0  0  0  0  0  0  0  0
  132.6240   76.2750  227.2430 C   0  0  0  0  0  0  0  0  0  0  0  0
  131.9470   77.8010  227.7640 Cl  0  0  0  0  0  0  0  0  0  0  0  0
  133.7790   76.2920  226.4890 C   0  0  0  0  0  0  0  0  0  0  0  0
  134.3220   75.0770  226.0710 C   0  0  0  0  0  0  0  0  0  0  0  0
  133.7250   73.8770  226.3990 C   0  0  0  0  0  0  0  0  0  0  0  0
  134.3190   72.7510  225.9540 N   0  0  0  0  0  0  0  0  0  0  0  0
  135.6660   71.3720  224.4230 H   0  0  0  0  0  0  0  0  0  0  0  0
  135.8821   68.3992  224.9667 H   0  0  0  0  0  0  0  0  0  0  0  0
  135.7252   69.1106  223.2409 H   0  0  0  0  0  0  0  0  0  0  0  0
  137.4496   71.6286  222.5460 H   0  0  0  0  0  0  0  0  0  0  0  0
  137.6800   72.3546  224.1194 H   0  0  0  0  0  0  0  0  0  0  0  0
  139.8921   71.6339  222.0180 H   0  0  0  0  0  0  0  0  0  0  0  0
  139.6553   73.2052  222.6477 H   0  0  0  0  0  0  0  0  0  0  0  0
  141.4013   71.7279  224.0395 H   0  0  0  0  0  0  0  0  0  0  0  0
  140.1349   72.3031  225.0785 H   0  0  0  0  0  0  0  0  0  0  0  0
  140.3942   69.6027  223.6415 H   0  0  0  0  0  0  0  0  0  0  0  0
  140.4126   67.6693  224.9334 H   0  0  0  0  0  0  0  0  0  0  0  0
  140.7870   66.7703  227.1880 H   0  0  0  0  0  0  0  0  0  0  0  0
  140.1388   70.6384  228.8949 H   0  0  0  0  0  0  0  0  0  0  0  0
  139.7674   71.5302  226.6397 H   0  0  0  0  0  0  0  0  0  0  0  0
  132.1978   70.5189  227.2267 H   0  0  0  0  0  0  0  0  0  0  0  0
  131.0837   72.5796  228.0620 H   0  0  0  0  0  0  0  0  0  0  0  0
  131.1103   75.0674  228.1745 H   0  0  0  0  0  0  0  0  0  0  0  0
  134.2618   77.2439  226.2229 H   0  0  0  0  0  0  0  0  0  0  0  0
  135.2427   75.0755  225.4691 H   0  0  0  0  0  0  0  0  0  0  0  0
  1  2  2  0
  2  3  1  0
  3  4  1  0
  4  5  1  0
  5  6  2  0
  5  7  1  0
  7  8  1  0
  8  9  1  0
  9 10  1  0
 10 11  1  0
 11 12  1  0
 12 13  2  0
 13 14  1  0
 14 15  2  0
 15 16  1  0
 15 17  1  0
 17 18  2  0
  2 19  1  0
 19 20  2  0
 20 21  1  0
 21 22  2  0
 22 23  1  0
 23 24  2  0
 24 25  1  0
 24 26  1  0
 26 27  2  0
 27 28  1  0
 28 29  2  0
 11  7  1  0
 18 12  1  0
 29 19  1  0
 28 22  1  0
  3 30  1  0
  4 31  1  0
  4 32  1  0
  8 33  1  0
  8 34  1  0
  9 35  1  0
  9 36  1  0
 10 37  1  0
 10 38  1  0
 11 39  1  6
 13 40  1  0
 14 41  1  0
 17 42  1  0
 18 43  1  0
 20 44  1  0
 21 45  1  0
 23 46  1  0
 26 47  1  0
 27 48  1  0
M  END
>  <smiles>  (57) 
O=C(NCC(=O)N1CCCC1c1ccc(F)cc1)c1ccc2cc(Cl)ccc2n1

>  <score_type>  (57) 
oracle

>  <origin>  (57) 
autodockgpu

>  <m_score__min__energy>  (57) 
-8.7400000000000002

>  <m_primary>  (57) 
energy

>  <rmsd>  (57) 
7.704391711915192

>  <m_score__min__rmsd>  (57) 
7.704391711915192

>  <meeko>  (57) 
{"free_energy": -8.18, "intermolecular_energy": -9.67, "internal_energy": -1.56, "cluster_size": 19, "cluster_id": 2, "rank_in_cluster": 17}

>  <energy>  (57) 
-7.78

>  <cluster_rmsd>  (57) 
0.93

>  <cluster>  (57) 
1

$$$$

     RDKit          3D

 48 51  0  0  0  0  0  0  0  0999 V2000
  134.0560   68.9780  226.0810 O   0  0  0  0  0  0  0  0  0  0  0  0
  134.4350   70.1210  225.6500 C   0  0  0  0  0  0  0  0  0  0  0  0
  135.4810   70.2280  224.6700 N   0  0  0  0  0  0  0  0  0  0  0  0
  136.1610   69.0860  224.1340 C   0  0  0  0  0  0  0  0  0  0  0  0
  137.6030   69.1220  223.9960 C   0  0  0  0  0  0  0  0  0  0  0  0
  138.1780   67.9610  223.9880 O   0  0  0  0  0  0  0  0  0  0  0  0
  138.4710   70.2340  223.8630 N   0  0  0  0  0  0  0  0  0  0  0  0
  138.2020   71.5670  223.3070 C   0  0  0  0  0  0  0  0  0  0  0  0
  139.6150   72.0520  222.8960 C   0  0  0  0  0  0  0  0  0  0  0  0
  140.3320   71.6040  224.1810 C   0  0  0  0  0  0  0  0  0  0  0  0
  139.8600   70.1880  224.2860 C   0  0  1  0  0  0  0  0  0  0  0  0
  140.0550   69.5790  225.6150 C   0  0  0  0  0  0  0  0  0  0  0  0
  140.3250   68.2610  225.8140 C   0  0  0  0  0  0  0  0  0  0  0  0
  140.4940   67.7690  227.0920 C   0  0  0  0  0  0  0  0  0  0  0  0
  140.4000   68.5680  228.2190 C   0  0  0  0  0  0  0  0  0  0  0  0
  140.5640   68.0970  229.4750 F   0  0  0  0  0  0  0  0  0  0  0  0
  140.1270   69.9040  228.0190 C   0  0  0  0  0  0  0  0  0  0  0  0
  139.9590   70.3910  226.7450 C   0  0  0  0  0  0  0  0  0  0  0  0
  133.7840   71.3130  226.1730 C   0  0  0  0  0  0  0  0  0  0  0  0
  132.6610   71.2100  226.9650 C   0  0  0  0  0  0  0  0  0  0  0  0
  132.0140   72.3260  227.4800 C   0  0  0  0  0  0  0  0  0  0  0  0
  132.5300   73.5680  227.1780 C   0  0  0  0  0  0  0  0  0  0  0  0
  131.9730   74.7460  227.6340 C   0  0  0  0  0  0  0  0  0  0  0  0
  132.5200   75.9760  227.3080 C   0  0  0  0  0  0  0  0  0  0  0  0
  131.8170   77.4720  227.8820 Cl  0  0  0  0  0  0  0  0  0  0  0  0
  133.6440   76.0410  226.5130 C   0  0  0  0  0  0  0  0  0  0  0  0
  134.2080   74.8510  226.0530 C   0  0  0  0  0  0  0  0  0  0  0  0
  133.6590   73.6280  226.3790 C   0  0  0  0  0  0  0  0  0  0  0  0
  134.2690   72.5290  225.8910 N   0  0  0  0  0  0  0  0  0  0  0  0
  135.6980   71.2290  224.3860 H   0  0  0  0  0  0  0  0  0  0  0  0
  135.9219   68.2338  224.7872 H   0  0  0  0  0  0  0  0  0  0  0  0
  135.8003   69.0301  223.0963 H   0  0  0  0  0  0  0  0  0  0  0  0
  137.5336   71.5064  222.4354 H   0  0  0  0  0  0  0  0  0  0  0  0
  137.6955   72.2418  224.0127 H   0  0  0  0  0  0  0  0  0  0  0  0
  139.9940   71.5397  221.9994 H   0  0  0  0  0  0  0  0  0  0  0  0
  139.7152   73.1104  222.6135 H   0  0  0  0  0  0  0  0  0  0  0  0
  141.4255   71.6595  224.0748 H   0  0  0  0  0  0  0  0  0  0  0  0
  140.1144   72.2233  225.0636 H   0  0  0  0  0  0  0  0  0  0  0  0
  140.4599   69.5213  223.6491 H   0  0  0  0  0  0  0  0  0  0  0  0
  140.4091   67.5835  224.9515 H   0  0  0  0  0  0  0  0  0  0  0  0
  140.7123   66.6986  227.2208 H   0  0  0  0  0  0  0  0  0  0  0  0
  140.0434   70.5820  228.8811 H   0  0  0  0  0  0  0  0  0  0  0  0
  139.7407   71.4608  226.6114 H   0  0  0  0  0  0  0  0  0  0  0  0
  132.2638   70.2108  227.1970 H   0  0  0  0  0  0  0  0  0  0  0  0
  131.1178   72.2219  228.1092 H   0  0  0  0  0  0  0  0  0  0  0  0
  131.0760   74.7070  228.2695 H   0  0  0  0  0  0  0  0  0  0  0  0
  134.0874   77.0118  226.2466 H   0  0  0  0  0  0  0  0  0  0  0  0
  135.1063   74.8884  225.4192 H   0  0  0  0  0  0  0  0  0  0  0  0
  1  2  2  0
  2  3  1  0
  3  4  1  0
  4  5  1  0
  5  6  2  0
  5  7  1  0
  7  8  1  0
  8  9  1  0
  9 10  1  0
 10 11  1  0
 11 12  1  0
 12 13  2  0
 13 14  1  0
 14 15  2  0
 15 16  1  0
 15 17  1  0
 17 18  2  0
  2 19  1  0
 19 20  2  0
 20 21  1  0
 21 22  2  0
 22 23  1  0
 23 24  2  0
 24 25  1  0
 24 26  1  0
 26 27  2  0
 27 28  1  0
 28 29  2  0
 11  7  1  0
 18 12  1  0
 29 19  1  0
 28 22  1  0
  3 30  1  0
  4 31  1  0
  4 32  1  0
  8 33  1  0
  8 34  1  0
  9 35  1  0
  9 36  1  0
 10 37  1  0
 10 38  1  0
 11 39  1  6
 13 40  1  0
 14 41  1  0
 17 42  1  0
 18 43  1  0
 20 44  1  0
 21 45  1  0
 23 46  1  0
 26 47  1  0
 27 48  1  0
M  END
>  <smiles>  (58) 
O=C(NCC(=O)N1CCCC1c1ccc(F)cc1)c1ccc2cc(Cl)ccc2n1

>  <score_type>  (58) 
oracle

>  <origin>  (58) 
autodockgpu

>  <m_score__min__energy>  (58) 
-8.7400000000000002

>  <m_primary>  (58) 
energy

>  <rmsd>  (58) 
7.6685351742269905

>  <m_score__min__rmsd>  (58) 
7.6685351742269905

>  <meeko>  (58) 
{"free_energy": -8.19, "intermolecular_energy": -9.68, "internal_energy": -1.56, "cluster_size": 19, "cluster_id": 2, "rank_in_cluster": 16}

>  <energy>  (58) 
-7.75

>  <cluster_rmsd>  (58) 
0.95

>  <cluster>  (58) 
1

$$$$

     RDKit          3D

 48 51  0  0  0  0  0  0  0  0999 V2000
  140.2680   72.4400  220.6660 O   0  0  0  0  0  0  0  0  0  0  0  0
  140.0210   72.8610  221.8480 C   0  0  0  0  0  0  0  0  0  0  0  0
  139.7670   74.2540  222.0960 N   0  0  0  0  0  0  0  0  0  0  0  0
  139.7880   75.2420  221.0580 C   0  0  0  0  0  0  0  0  0  0  0  0
  140.6520   76.3960  221.1970 C   0  0  0  0  0  0  0  0  0  0  0  0
  140.8220   76.8060  222.4140 O   0  0  0  0  0  0  0  0  0  0  0  0
  141.3390   77.1360  220.2020 N   0  0  0  0  0  0  0  0  0  0  0  0
  141.4930   78.5900  220.0580 C   0  0  0  0  0  0  0  0  0  0  0  0
  141.7760   78.7510  218.5440 C   0  0  0  0  0  0  0  0  0  0  0  0
  142.7890   77.5990  218.4340 C   0  0  0  0  0  0  0  0  0  0  0  0
  142.0290   76.4930  219.0970 C   0  0  1  0  0  0  0  0  0  0  0  0
  142.8590   75.3430  219.5030 C   0  0  0  0  0  0  0  0  0  0  0  0
  144.0800   75.4590  220.0890 C   0  0  0  0  0  0  0  0  0  0  0  0
  144.7950   74.3310  220.4400 C   0  0  0  0  0  0  0  0  0  0  0  0
  144.3220   73.0490  220.2200 C   0  0  0  0  0  0  0  0  0  0  0  0
  145.0130   71.9380  220.5590 F   0  0  0  0  0  0  0  0  0  0  0  0
  143.0840   72.9300  219.6260 C   0  0  0  0  0  0  0  0  0  0  0  0
  142.3750   74.0540  219.2790 C   0  0  0  0  0  0  0  0  0  0  0  0
  140.0010   71.8990  222.9400 C   0  0  0  0  0  0  0  0  0  0  0  0
  139.4880   70.6330  222.7520 C   0  0  0  0  0  0  0  0  0  0  0  0
  139.4540   69.6900  223.7700 C   0  0  0  0  0  0  0  0  0  0  0  0
  139.9540   70.0520  225.0030 C   0  0  0  0  0  0  0  0  0  0  0  0
  139.9720   69.1990  226.0880 C   0  0  0  0  0  0  0  0  0  0  0  0
  140.4820   69.6000  227.3120 C   0  0  0  0  0  0  0  0  0  0  0  0
  140.5070   68.5230  228.6900 Cl  0  0  0  0  0  0  0  0  0  0  0  0
  140.9880   70.8730  227.4640 C   0  0  0  0  0  0  0  0  0  0  0  0
  140.9700   71.7350  226.3670 C   0  0  0  0  0  0  0  0  0  0  0  0
  140.4590   71.3320  225.1510 C   0  0  0  0  0  0  0  0  0  0  0  0
  140.4820   72.2300  224.1440 N   0  0  0  0  0  0  0  0  0  0  0  0
  139.5660   74.4760  223.1160 H   0  0  0  0  0  0  0  0  0  0  0  0
  140.0847   74.7284  220.1317 H   0  0  0  0  0  0  0  0  0  0  0  0
  138.7749   75.6697  221.0840 H   0  0  0  0  0  0  0  0  0  0  0  0
  140.5724   79.1175  220.3483 H   0  0  0  0  0  0  0  0  0  0  0  0
  142.2818   79.0121  220.6980 H   0  0  0  0  0  0  0  0  0  0  0  0
  140.8805   78.5874  217.9265 H   0  0  0  0  0  0  0  0  0  0  0  0
  142.1105   79.7419  218.2030 H   0  0  0  0  0  0  0  0  0  0  0  0
  143.0184   77.3604  217.3850 H   0  0  0  0  0  0  0  0  0  0  0  0
  143.7702   77.8108  218.8839 H   0  0  0  0  0  0  0  0  0  0  0  0
  141.3258   76.0183  218.3968 H   0  0  0  0  0  0  0  0  0  0  0  0
  144.5006   76.4564  220.2846 H   0  0  0  0  0  0  0  0  0  0  0  0
  145.7800   74.4563  220.9134 H   0  0  0  0  0  0  0  0  0  0  0  0
  142.6630   71.9329  219.4295 H   0  0  0  0  0  0  0  0  0  0  0  0
  141.3888   73.9333  218.8069 H   0  0  0  0  0  0  0  0  0  0  0  0
  139.0925   70.3613  221.7622 H   0  0  0  0  0  0  0  0  0  0  0  0
  139.0410   68.6850  223.5984 H   0  0  0  0  0  0  0  0  0  0  0  0
  139.5731   68.1797  225.9785 H   0  0  0  0  0  0  0  0  0  0  0  0
  141.3976   71.2026  228.4302 H   0  0  0  0  0  0  0  0  0  0  0  0
  141.3704   72.7539  226.4739 H   0  0  0  0  0  0  0  0  0  0  0  0
  1  2  2  0
  2  3  1  0
  3  4  1  0
  4  5  1  0
  5  6  2  0
  5  7  1  0
  7  8  1  0
  8  9  1  0
  9 10  1  0
 10 11  1  0
 11 12  1  0
 12 13  2  0
 13 14  1  0
 14 15  2  0
 15 16  1  0
 15 17  1  0
 17 18  2  0
  2 19  1  0
 19 20  2  0
 20 21  1  0
 21 22  2  0
 22 23  1  0
 23 24  2  0
 24 25  1  0
 24 26  1  0
 26 27  2  0
 27 28  1  0
 28 29  2  0
 11  7  1  0
 18 12  1  0
 29 19  1  0
 28 22  1  0
  3 30  1  0
  4 31  1  0
  4 32  1  0
  8 33  1  0
  8 34  1  0
  9 35  1  0
  9 36  1  0
 10 37  1  0
 10 38  1  0
 11 39  1  6
 13 40  1  0
 14 41  1  0
 17 42  1  0
 18 43  1  0
 20 44  1  0
 21 45  1  0
 23 46  1  0
 26 47  1  0
 27 48  1  0
M  END
>  <smiles>  (59) 
O=C(NCC(=O)N1CCCC1c1ccc(F)cc1)c1ccc2cc(Cl)ccc2n1

>  <score_type>  (59) 
oracle

>  <origin>  (59) 
autodockgpu

>  <m_score__min__energy>  (59) 
-8.7400000000000002

>  <m_primary>  (59) 
energy

>  <rmsd>  (59) 
2.3819048887074157

>  <m_score__min__rmsd>  (59) 
2.3819048887074157

>  <meeko>  (59) 
{"free_energy": -8.02, "intermolecular_energy": -9.52, "internal_energy": -1.87, "cluster_size": 10, "cluster_id": 4, "rank_in_cluster": 4}

>  <energy>  (59) 
-7.66

>  <cluster_rmsd>  (59) 
0.96

>  <cluster>  (59) 
1

$$$$

     RDKit          3D

 48 51  0  0  0  0  0  0  0  0999 V2000
  139.4710   72.6940  220.4650 O   0  0  0  0  0  0  0  0  0  0  0  0
  140.1310   72.9290  221.5350 C   0  0  0  0  0  0  0  0  0  0  0  0
  140.9620   74.0960  221.6470 N   0  0  0  0  0  0  0  0  0  0  0  0
  141.1110   75.0450  220.5840 C   0  0  0  0  0  0  0  0  0  0  0  0
  140.3120   76.2540  220.5960 C   0  0  0  0  0  0  0  0  0  0  0  0
  140.6610   77.1470  219.7260 O   0  0  0  0  0  0  0  0  0  0  0  0
  139.2060   76.5980  221.4130 N   0  0  0  0  0  0  0  0  0  0  0  0
  138.1530   75.7370  221.9710 C   0  0  0  0  0  0  0  0  0  0  0  0
  136.9920   76.7360  222.2080 C   0  0  0  0  0  0  0  0  0  0  0  0
  137.8470   77.8480  222.8400 C   0  0  0  0  0  0  0  0  0  0  0  0
  138.9450   77.9650  221.8290 C   0  0  1  0  0  0  0  0  0  0  0  0
  140.1440   78.6760  222.3140 C   0  0  0  0  0  0  0  0  0  0  0  0
  141.1070   78.1020  223.0830 C   0  0  0  0  0  0  0  0  0  0  0  0
  142.1990   78.8380  223.4960 C   0  0  0  0  0  0  0  0  0  0  0  0
  142.3740   80.1700  223.1610 C   0  0  0  0  0  0  0  0  0  0  0  0
  143.4390   80.9000  223.5600 F   0  0  0  0  0  0  0  0  0  0  0  0
  141.3980   80.7530  222.3810 C   0  0  0  0  0  0  0  0  0  0  0  0
  140.3120   80.0180  221.9710 C   0  0  0  0  0  0  0  0  0  0  0  0
  140.0230   71.9870  222.6400 C   0  0  0  0  0  0  0  0  0  0  0  0
  139.3390   70.8010  222.4880 C   0  0  0  0  0  0  0  0  0  0  0  0
  139.2160   69.8800  223.5200 C   0  0  0  0  0  0  0  0  0  0  0  0
  139.8060   70.1820  224.7280 C   0  0  0  0  0  0  0  0  0  0  0  0
  139.7490   69.3440  225.8240 C   0  0  0  0  0  0  0  0  0  0  0  0
  140.3530   69.6830  227.0230 C   0  0  0  0  0  0  0  0  0  0  0  0
  140.2850   68.6260  228.4150 Cl  0  0  0  0  0  0  0  0  0  0  0  0
  141.0300   70.8790  227.1400 C   0  0  0  0  0  0  0  0  0  0  0  0
  141.0870   71.7260  226.0330 C   0  0  0  0  0  0  0  0  0  0  0  0
  140.4820   71.3840  224.8410 C   0  0  0  0  0  0  0  0  0  0  0  0
  140.5880   72.2620  223.8220 N   0  0  0  0  0  0  0  0  0  0  0  0
  141.4500   74.1830  222.5880 H   0  0  0  0  0  0  0  0  0  0  0  0
  142.1657   75.3573  220.5780 H   0  0  0  0  0  0  0  0  0  0  0  0
  140.7498   74.5026  219.6978 H   0  0  0  0  0  0  0  0  0  0  0  0
  137.8622   74.9518  221.2576 H   0  0  0  0  0  0  0  0  0  0  0  0
  138.4618   75.2005  222.8803 H   0  0  0  0  0  0  0  0  0  0  0  0
  136.5095   77.0537  221.2719 H   0  0  0  0  0  0  0  0  0  0  0  0
  136.1352   76.3730  222.7947 H   0  0  0  0  0  0  0  0  0  0  0  0
  137.2830   78.7875  222.9359 H   0  0  0  0  0  0  0  0  0  0  0  0
  138.1901   77.6335  223.8629 H   0  0  0  0  0  0  0  0  0  0  0  0
  138.6401   78.5987  220.9831 H   0  0  0  0  0  0  0  0  0  0  0  0
  141.0154   77.0461  223.3774 H   0  0  0  0  0  0  0  0  0  0  0  0
  142.9620   78.3460  224.1171 H   0  0  0  0  0  0  0  0  0  0  0  0
  141.4890   81.8089  222.0863 H   0  0  0  0  0  0  0  0  0  0  0  0
  139.5466   80.5056  221.3493 H   0  0  0  0  0  0  0  0  0  0  0  0
  138.8747   70.5759  221.5166 H   0  0  0  0  0  0  0  0  0  0  0  0
  138.6648   68.9388  223.3776 H   0  0  0  0  0  0  0  0  0  0  0  0
  139.2125   68.3871  225.7429 H   0  0  0  0  0  0  0  0  0  0  0  0
  141.5150   71.1592  228.0867 H   0  0  0  0  0  0  0  0  0  0  0  0
  141.6235   72.6830  226.1118 H   0  0  0  0  0  0  0  0  0  0  0  0
  1  2  2  0
  2  3  1  0
  3  4  1  0
  4  5  1  0
  5  6  2  0
  5  7  1  0
  7  8  1  0
  8  9  1  0
  9 10  1  0
 10 11  1  0
 11 12  1  0
 12 13  2  0
 13 14  1  0
 14 15  2  0
 15 16  1  0
 15 17  1  0
 17 18  2  0
  2 19  1  0
 19 20  2  0
 20 21  1  0
 21 22  2  0
 22 23  1  0
 23 24  2  0
 24 25  1  0
 24 26  1  0
 26 27  2  0
 27 28  1  0
 28 29  2  0
 11  7  1  0
 18 12  1  0
 29 19  1  0
 28 22  1  0
  3 30  1  0
  4 31  1  0
  4 32  1  0
  8 33  1  0
  8 34  1  0
  9 35  1  0
  9 36  1  0
 10 37  1  0
 10 38  1  0
 11 39  1  6
 13 40  1  0
 14 41  1  0
 17 42  1  0
 18 43  1  0
 20 44  1  0
 21 45  1  0
 23 46  1  0
 26 47  1  0
 27 48  1  0
M  END
>  <smiles>  (60) 
O=C(NCC(=O)N1CCCC1c1ccc(F)cc1)c1ccc2cc(Cl)ccc2n1

>  <score_type>  (60) 
oracle

>  <origin>  (60) 
autodockgpu

>  <m_score__min__energy>  (60) 
-8.7400000000000002

>  <m_primary>  (60) 
energy

>  <rmsd>  (60) 
3.1487630523235195

>  <m_score__min__rmsd>  (60) 
3.1487630523235195

>  <meeko>  (60) 
{"free_energy": -7.64, "intermolecular_energy": -9.13, "internal_energy": -1.74, "cluster_size": 12, "cluster_id": 1, "rank_in_cluster": 10}

>  <energy>  (60) 
-7.64

>  <cluster_rmsd>  (60) 
1.02

>  <cluster>  (60) 
1

$$$$

     RDKit          3D

 48 51  0  0  0  0  0  0  0  0999 V2000
  140.4440   72.4740  220.6980 O   0  0  0  0  0  0  0  0  0  0  0  0
  140.1180   72.8920  221.8620 C   0  0  0  0  0  0  0  0  0  0  0  0
  139.8170   74.2790  222.0880 N   0  0  0  0  0  0  0  0  0  0  0  0
  139.8770   75.2640  221.0490 C   0  0  0  0  0  0  0  0  0  0  0  0
  141.1580   75.8360  220.6880 C   0  0  0  0  0  0  0  0  0  0  0  0
  142.1850   75.2450  221.2110 O   0  0  0  0  0  0  0  0  0  0  0  0
  141.4510   76.9380  219.8470 N   0  0  0  0  0  0  0  0  0  0  0  0
  141.4530   77.0190  218.3800 C   0  0  0  0  0  0  0  0  0  0  0  0
  142.4050   78.2110  218.1090 C   0  0  0  0  0  0  0  0  0  0  0  0
  141.8240   79.1440  219.1850 C   0  0  0  0  0  0  0  0  0  0  0  0
  141.8310   78.2370  220.3750 C   0  0  1  0  0  0  0  0  0  0  0  0
  140.9820   78.6940  221.4930 C   0  0  0  0  0  0  0  0  0  0  0  0
  139.6330   78.8430  221.4090 C   0  0  0  0  0  0  0  0  0  0  0  0
  138.9100   79.2760  222.5020 C   0  0  0  0  0  0  0  0  0  0  0  0
  139.5020   79.5780  223.7170 C   0  0  0  0  0  0  0  0  0  0  0  0
  138.8040   80.0030  224.7940 F   0  0  0  0  0  0  0  0  0  0  0  0
  140.8690   79.4280  223.8030 C   0  0  0  0  0  0  0  0  0  0  0  0
  141.5850   78.9960  222.7130 C   0  0  0  0  0  0  0  0  0  0  0  0
  140.0560   71.9320  222.9540 C   0  0  0  0  0  0  0  0  0  0  0  0
  139.4670   70.6990  222.7740 C   0  0  0  0  0  0  0  0  0  0  0  0
  139.3900   69.7600  223.7930 C   0  0  0  0  0  0  0  0  0  0  0  0
  139.9280   70.0920  225.0190 C   0  0  0  0  0  0  0  0  0  0  0  0
  139.9100   69.2390  226.1040 C   0  0  0  0  0  0  0  0  0  0  0  0
  140.4590   69.6080  227.3210 C   0  0  0  0  0  0  0  0  0  0  0  0
  140.4390   68.5320  228.7000 Cl  0  0  0  0  0  0  0  0  0  0  0  0
  141.0410   70.8500  227.4650 C   0  0  0  0  0  0  0  0  0  0  0  0
  141.0590   71.7120  226.3680 C   0  0  0  0  0  0  0  0  0  0  0  0
  140.5090   71.3400  225.1590 C   0  0  0  0  0  0  0  0  0  0  0  0
  140.5710   72.2350  224.1520 N   0  0  0  0  0  0  0  0  0  0  0  0
  139.5510   74.4990  223.0940 H   0  0  0  0  0  0  0  0  0  0  0  0
  139.4661   74.7983  220.1411 H   0  0  0  0  0  0  0  0  0  0  0  0
  139.3190   76.1159  221.4649 H   0  0  0  0  0  0  0  0  0  0  0  0
  141.8397   76.0920  217.9316 H   0  0  0  0  0  0  0  0  0  0  0  0
  140.4504   77.1526  217.9477 H   0  0  0  0  0  0  0  0  0  0  0  0
  143.4602   77.9598  218.2917 H   0  0  0  0  0  0  0  0  0  0  0  0
  142.4375   78.5978  217.0798 H   0  0  0  0  0  0  0  0  0  0  0  0
  142.4623   80.0256  219.3441 H   0  0  0  0  0  0  0  0  0  0  0  0
  140.8381   79.5652  218.9388 H   0  0  0  0  0  0  0  0  0  0  0  0
  142.8235   78.2115  220.8486 H   0  0  0  0  0  0  0  0  0  0  0  0
  139.1153   78.6173  220.4651 H   0  0  0  0  0  0  0  0  0  0  0  0
  137.8199   79.3856  222.4041 H   0  0  0  0  0  0  0  0  0  0  0  0
  141.3879   79.6546  224.7461 H   0  0  0  0  0  0  0  0  0  0  0  0
  142.6753   78.8842  222.8065 H   0  0  0  0  0  0  0  0  0  0  0  0
  139.0437   70.4508  221.7895 H   0  0  0  0  0  0  0  0  0  0  0  0
  138.9149   68.7817  223.6282 H   0  0  0  0  0  0  0  0  0  0  0  0
  139.4500   68.2452  226.0000 H   0  0  0  0  0  0  0  0  0  0  0  0
  141.4822   71.1549  228.4254 H   0  0  0  0  0  0  0  0  0  0  0  0
  141.5199   72.7057  226.4691 H   0  0  0  0  0  0  0  0  0  0  0  0
  1  2  2  0
  2  3  1  0
  3  4  1  0
  4  5  1  0
  5  6  2  0
  5  7  1  0
  7  8  1  0
  8  9  1  0
  9 10  1  0
 10 11  1  0
 11 12  1  0
 12 13  2  0
 13 14  1  0
 14 15  2  0
 15 16  1  0
 15 17  1  0
 17 18  2  0
  2 19  1  0
 19 20  2  0
 20 21  1  0
 21 22  2  0
 22 23  1  0
 23 24  2  0
 24 25  1  0
 24 26  1  0
 26 27  2  0
 27 28  1  0
 28 29  2  0
 11  7  1  0
 18 12  1  0
 29 19  1  0
 28 22  1  0
  3 30  1  0
  4 31  1  0
  4 32  1  0
  8 33  1  0
  8 34  1  0
  9 35  1  0
  9 36  1  0
 10 37  1  0
 10 38  1  0
 11 39  1  1
 13 40  1  0
 14 41  1  0
 17 42  1  0
 18 43  1  0
 20 44  1  0
 21 45  1  0
 23 46  1  0
 26 47  1  0
 27 48  1  0
M  END
>  <smiles>  (61) 
O=C(NCC(=O)N1CCCC1c1ccc(F)cc1)c1ccc2cc(Cl)ccc2n1

>  <score_type>  (61) 
oracle

>  <origin>  (61) 
autodockgpu

>  <m_score__min__energy>  (61) 
-8.7400000000000002

>  <m_primary>  (61) 
energy

>  <rmsd>  (61) 
2.0946823369073186

>  <m_score__min__rmsd>  (61) 
2.0946823369073186

>  <meeko>  (61) 
{"free_energy": -8.11, "intermolecular_energy": -9.6, "internal_energy": -1.4, "cluster_size": 12, "cluster_id": 1, "rank_in_cluster": 4}

>  <energy>  (61) 
-7.63

>  <cluster_rmsd>  (61) 
1.88

>  <cluster>  (61) 
1

$$$$

     RDKit          3D

 48 51  0  0  0  0  0  0  0  0999 V2000
  133.9550   68.9240  226.1230 O   0  0  0  0  0  0  0  0  0  0  0  0
  134.4640   70.0500  225.7920 C   0  0  0  0  0  0  0  0  0  0  0  0
  135.6450   70.1120  224.9750 N   0  0  0  0  0  0  0  0  0  0  0  0
  136.3210   68.9410  224.5010 C   0  0  0  0  0  0  0  0  0  0  0  0
  137.7210   69.0310  224.1350 C   0  0  0  0  0  0  0  0  0  0  0  0
  138.3060   67.8930  223.9360 O   0  0  0  0  0  0  0  0  0  0  0  0
  138.5370   70.1760  223.9610 N   0  0  0  0  0  0  0  0  0  0  0  0
  138.1880   71.4990  223.4260 C   0  0  0  0  0  0  0  0  0  0  0  0
  139.5580   72.0390  222.9410 C   0  0  0  0  0  0  0  0  0  0  0  0
  140.3600   71.6160  224.1840 C   0  0  0  0  0  0  0  0  0  0  0  0
  139.9480   70.1820  224.3080 C   0  0  1  0  0  0  0  0  0  0  0  0
  140.2370   69.5780  225.6230 C   0  0  0  0  0  0  0  0  0  0  0  0
  140.4350   68.2470  225.8190 C   0  0  0  0  0  0  0  0  0  0  0  0
  140.7010   67.7610  227.0830 C   0  0  0  0  0  0  0  0  0  0  0  0
  140.7800   68.5790  228.1980 C   0  0  0  0  0  0  0  0  0  0  0  0
  141.0400   68.1140  229.4400 F   0  0  0  0  0  0  0  0  0  0  0  0
  140.5800   69.9290  228.0000 C   0  0  0  0  0  0  0  0  0  0  0  0
  140.3160   70.4090  226.7400 C   0  0  0  0  0  0  0  0  0  0  0  0
  133.8220   71.2690  226.2600 C   0  0  0  0  0  0  0  0  0  0  0  0
  132.6770   71.2110  227.0260 C   0  0  0  0  0  0  0  0  0  0  0  0
  132.0380   72.3540  227.4890 C   0  0  0  0  0  0  0  0  0  0  0  0
  132.5840   73.5760  227.1610 C   0  0  0  0  0  0  0  0  0  0  0  0
  132.0360   74.7780  227.5650 C   0  0  0  0  0  0  0  0  0  0  0  0
  132.6130   75.9870  227.2140 C   0  0  0  0  0  0  0  0  0  0  0  0
  131.9230   77.5120  227.7230 Cl  0  0  0  0  0  0  0  0  0  0  0  0
  133.7580   76.0080  226.4480 C   0  0  0  0  0  0  0  0  0  0  0  0
  134.3120   74.7940  226.0400 C   0  0  0  0  0  0  0  0  0  0  0  0
  133.7330   73.5910  226.3900 C   0  0  0  0  0  0  0  0  0  0  0  0
  134.3350   72.4670  225.9530 N   0  0  0  0  0  0  0  0  0  0  0  0
  135.9640   71.1040  224.7620 H   0  0  0  0  0  0  0  0  0  0  0  0
  136.2445   68.1827  225.2942 H   0  0  0  0  0  0  0  0  0  0  0  0
  135.8164   68.7150  223.5501 H   0  0  0  0  0  0  0  0  0  0  0  0
  137.4762   71.4149  222.5915 H   0  0  0  0  0  0  0  0  0  0  0  0
  137.6952   72.1524  224.1610 H   0  0  0  0  0  0  0  0  0  0  0  0
  139.9073   71.5434  222.0232 H   0  0  0  0  0  0  0  0  0  0  0  0
  139.6023   73.1010  222.6578 H   0  0  0  0  0  0  0  0  0  0  0  0
  141.4433   71.7133  224.0195 H   0  0  0  0  0  0  0  0  0  0  0  0
  140.1671   72.2247  225.0797 H   0  0  0  0  0  0  0  0  0  0  0  0
  140.5374   69.5403  223.6366 H   0  0  0  0  0  0  0  0  0  0  0  0
  140.3829   67.5544  224.9660 H   0  0  0  0  0  0  0  0  0  0  0  0
  140.8567   66.6795  227.2102 H   0  0  0  0  0  0  0  0  0  0  0  0
  140.6319   70.6226  228.8522 H   0  0  0  0  0  0  0  0  0  0  0  0
  140.1610   71.4899  226.6073 H   0  0  0  0  0  0  0  0  0  0  0  0
  132.2556   70.2269  227.2788 H   0  0  0  0  0  0  0  0  0  0  0  0
  131.1247   72.2859  228.0984 H   0  0  0  0  0  0  0  0  0  0  0  0
  131.1227   74.7747  228.1780 H   0  0  0  0  0  0  0  0  0  0  0  0
  134.2258   76.9622  226.1639 H   0  0  0  0  0  0  0  0  0  0  0  0
  135.2264   74.7958  225.4286 H   0  0  0  0  0  0  0  0  0  0  0  0
  1  2  2  0
  2  3  1  0
  3  4  1  0
  4  5  1  0
  5  6  2  0
  5  7  1  0
  7  8  1  0
  8  9  1  0
  9 10  1  0
 10 11  1  0
 11 12  1  0
 12 13  2  0
 13 14  1  0
 14 15  2  0
 15 16  1  0
 15 17  1  0
 17 18  2  0
  2 19  1  0
 19 20  2  0
 20 21  1  0
 21 22  2  0
 22 23  1  0
 23 24  2  0
 24 25  1  0
 24 26  1  0
 26 27  2  0
 27 28  1  0
 28 29  2  0
 11  7  1  0
 18 12  1  0
 29 19  1  0
 28 22  1  0
  3 30  1  0
  4 31  1  0
  4 32  1  0
  8 33  1  0
  8 34  1  0
  9 35  1  0
  9 36  1  0
 10 37  1  0
 10 38  1  0
 11 39  1  6
 13 40  1  0
 14 41  1  0
 17 42  1  0
 18 43  1  0
 20 44  1  0
 21 45  1  0
 23 46  1  0
 26 47  1  0
 27 48  1  0
M  END
>  <smiles>  (62) 
O=C(NCC(=O)N1CCCC1c1ccc(F)cc1)c1ccc2cc(Cl)ccc2n1

>  <score_type>  (62) 
oracle

>  <origin>  (62) 
autodockgpu

>  <m_score__min__energy>  (62) 
-8.7400000000000002

>  <m_primary>  (62) 
energy

>  <rmsd>  (62) 
7.692951498641954

>  <m_score__min__rmsd>  (62) 
7.692951498641954

>  <meeko>  (62) 
{"free_energy": -8.3, "intermolecular_energy": -9.79, "internal_energy": -1.57, "cluster_size": 19, "cluster_id": 2, "rank_in_cluster": 9}

>  <energy>  (62) 
-7.32

>  <cluster_rmsd>  (62) 
1.09

>  <cluster>  (62) 
1

$$$$

     RDKit          3D

 48 51  0  0  0  0  0  0  0  0999 V2000
  139.7150   72.7170  220.4010 O   0  0  0  0  0  0  0  0  0  0  0  0
  140.2770   72.9750  221.5210 C   0  0  0  0  0  0  0  0  0  0  0  0
  141.0640   74.1650  221.6930 N   0  0  0  0  0  0  0  0  0  0  0  0
  141.2780   75.1110  220.6390 C   0  0  0  0  0  0  0  0  0  0  0  0
  140.4950   76.3300  220.6120 C   0  0  0  0  0  0  0  0  0  0  0  0
  140.8540   77.1880  219.7100 O   0  0  0  0  0  0  0  0  0  0  0  0
  139.3970   76.7170  221.4200 N   0  0  0  0  0  0  0  0  0  0  0  0
  138.3120   75.8960  221.9760 C   0  0  0  0  0  0  0  0  0  0  0  0
  137.1840   76.9350  222.2000 C   0  0  0  0  0  0  0  0  0  0  0  0
  138.0730   78.0220  222.8290 C   0  0  0  0  0  0  0  0  0  0  0  0
  139.1800   78.0950  221.8250 C   0  0  1  0  0  0  0  0  0  0  0  0
  140.3990   78.7690  222.3120 C   0  0  0  0  0  0  0  0  0  0  0  0
  141.0570   78.4170  223.4490 C   0  0  0  0  0  0  0  0  0  0  0  0
  142.1930   79.0990  223.8370 C   0  0  0  0  0  0  0  0  0  0  0  0
  142.7140   80.1560  223.1100 C   0  0  0  0  0  0  0  0  0  0  0  0
  143.8250   80.8310  223.4800 F   0  0  0  0  0  0  0  0  0  0  0  0
  142.0480   80.5140  221.9570 C   0  0  0  0  0  0  0  0  0  0  0  0
  140.9180   79.8320  221.5740 C   0  0  0  0  0  0  0  0  0  0  0  0
  140.1000   72.0380  222.6200 C   0  0  0  0  0  0  0  0  0  0  0  0
  139.3210   70.9120  222.4650 C   0  0  0  0  0  0  0  0  0  0  0  0
  139.1310   69.9960  223.4920 C   0  0  0  0  0  0  0  0  0  0  0  0
  139.7510   70.2410  224.6980 C   0  0  0  0  0  0  0  0  0  0  0  0
  139.6340   69.4020  225.7890 C   0  0  0  0  0  0  0  0  0  0  0  0
  140.2730   69.6830  226.9860 C   0  0  0  0  0  0  0  0  0  0  0  0
  140.1280   68.6240  228.3700 Cl  0  0  0  0  0  0  0  0  0  0  0  0
  141.0450   70.8180  227.1050 C   0  0  0  0  0  0  0  0  0  0  0  0
  141.1630   71.6660  226.0030 C   0  0  0  0  0  0  0  0  0  0  0  0
  140.5240   71.3830  224.8130 C   0  0  0  0  0  0  0  0  0  0  0  0
  140.6940   72.2570  223.8000 N   0  0  0  0  0  0  0  0  0  0  0  0
  141.4690   74.2710  222.6710 H   0  0  0  0  0  0  0  0  0  0  0  0
  142.3357   75.4096  220.6854 H   0  0  0  0  0  0  0  0  0  0  0  0
  140.9547   74.5730  219.7357 H   0  0  0  0  0  0  0  0  0  0  0  0
  137.9991   75.1170  221.2652 H   0  0  0  0  0  0  0  0  0  0  0  0
  138.5968   75.3549  222.8904 H   0  0  0  0  0  0  0  0  0  0  0  0
  136.7172   77.2622  221.2592 H   0  0  0  0  0  0  0  0  0  0  0  0
  136.3125   76.6051  222.7845 H   0  0  0  0  0  0  0  0  0  0  0  0
  137.5406   78.9807  222.9149 H   0  0  0  0  0  0  0  0  0  0  0  0
  138.4028   77.8029  223.8552 H   0  0  0  0  0  0  0  0  0  0  0  0
  138.9020   78.7328  220.9730 H   0  0  0  0  0  0  0  0  0  0  0  0
  140.6822   77.5846  224.0627 H   0  0  0  0  0  0  0  0  0  0  0  0
  142.7046   78.7903  224.7606 H   0  0  0  0  0  0  0  0  0  0  0  0
  142.4216   81.3466  221.3429 H   0  0  0  0  0  0  0  0  0  0  0  0
  140.4037   80.1362  220.6505 H   0  0  0  0  0  0  0  0  0  0  0  0
  138.8332   70.7324  221.4956 H   0  0  0  0  0  0  0  0  0  0  0  0
  138.5052   69.1031  223.3470 H   0  0  0  0  0  0  0  0  0  0  0  0
  139.0211   68.4923  225.7059 H   0  0  0  0  0  0  0  0  0  0  0  0
  141.5580   71.0510  228.0497 H   0  0  0  0  0  0  0  0  0  0  0  0
  141.7760   72.5758  226.0843 H   0  0  0  0  0  0  0  0  0  0  0  0
  1  2  2  0
  2  3  1  0
  3  4  1  0
  4  5  1  0
  5  6  2  0
  5  7  1  0
  7  8  1  0
  8  9  1  0
  9 10  1  0
 10 11  1  0
 11 12  1  0
 12 13  2  0
 13 14  1  0
 14 15  2  0
 15 16  1  0
 15 17  1  0
 17 18  2  0
  2 19  1  0
 19 20  2  0
 20 21  1  0
 21 22  2  0
 22 23  1  0
 23 24  2  0
 24 25  1  0
 24 26  1  0
 26 27  2  0
 27 28  1  0
 28 29  2  0
 11  7  1  0
 18 12  1  0
 29 19  1  0
 28 22  1  0
  3 30  1  0
  4 31  1  0
  4 32  1  0
  8 33  1  0
  8 34  1  0
  9 35  1  0
  9 36  1  0
 10 37  1  0
 10 38  1  0
 11 39  1  6
 13 40  1  0
 14 41  1  0
 17 42  1  0
 18 43  1  0
 20 44  1  0
 21 45  1  0
 23 46  1  0
 26 47  1  0
 27 48  1  0
M  END
>  <smiles>  (63) 
O=C(NCC(=O)N1CCCC1c1ccc(F)cc1)c1ccc2cc(Cl)ccc2n1

>  <score_type>  (63) 
oracle

>  <origin>  (63) 
autodockgpu

>  <m_score__min__energy>  (63) 
-8.7400000000000002

>  <m_primary>  (63) 
energy

>  <rmsd>  (63) 
3.166514902570447

>  <m_score__min__rmsd>  (63) 
3.166514902570447

>  <meeko>  (63) 
{"free_energy": -7.66, "intermolecular_energy": -9.15, "internal_energy": -1.77, "cluster_size": 12, "cluster_id": 1, "rank_in_cluster": 9}

>  <energy>  (63) 
-8.68

>  <cluster_rmsd>  (63) 
0.0

>  <cluster>  (63) 
2

$$$$

     RDKit          3D

 48 51  0  0  0  0  0  0  0  0999 V2000
  140.3960   72.3660  220.6880 O   0  0  0  0  0  0  0  0  0  0  0  0
  140.1050   72.7870  221.8600 C   0  0  0  0  0  0  0  0  0  0  0  0
  139.8120   74.1750  222.0930 N   0  0  0  0  0  0  0  0  0  0  0  0
  139.8400   75.1580  221.0500 C   0  0  0  0  0  0  0  0  0  0  0  0
  140.6850   76.3250  221.2000 C   0  0  0  0  0  0  0  0  0  0  0  0
  140.8430   76.7300  222.4200 O   0  0  0  0  0  0  0  0  0  0  0  0
  141.3630   77.0820  220.2130 N   0  0  0  0  0  0  0  0  0  0  0  0
  141.5120   78.5390  220.0910 C   0  0  0  0  0  0  0  0  0  0  0  0
  141.7850   78.7250  218.5770 C   0  0  0  0  0  0  0  0  0  0  0  0
  142.8000   77.5770  218.4430 C   0  0  0  0  0  0  0  0  0  0  0  0
  142.0470   76.4590  219.0920 C   0  0  1  0  0  0  0  0  0  0  0  0
  142.8820   75.3050  219.4750 C   0  0  0  0  0  0  0  0  0  0  0  0
  144.0810   75.4130  220.1090 C   0  0  0  0  0  0  0  0  0  0  0  0
  144.8020   74.2820  220.4330 C   0  0  0  0  0  0  0  0  0  0  0  0
  144.3600   73.0030  220.1380 C   0  0  0  0  0  0  0  0  0  0  0  0
  145.0590   71.8890  220.4510 F   0  0  0  0  0  0  0  0  0  0  0  0
  143.1450   72.8920  219.4970 C   0  0  0  0  0  0  0  0  0  0  0  0
  142.4290   74.0200  219.1760 C   0  0  0  0  0  0  0  0  0  0  0  0
  140.0770   71.8300  222.9570 C   0  0  0  0  0  0  0  0  0  0  0  0
  139.5480   70.5700  222.7760 C   0  0  0  0  0  0  0  0  0  0  0  0
  139.5050   69.6320  223.7990 C   0  0  0  0  0  0  0  0  0  0  0  0
  140.0140   69.9940  225.0280 C   0  0  0  0  0  0  0  0  0  0  0  0
  140.0240   69.1460  226.1170 C   0  0  0  0  0  0  0  0  0  0  0  0
  140.5430   69.5450  227.3370 C   0  0  0  0  0  0  0  0  0  0  0  0
  140.5590   68.4750  228.7210 Cl  0  0  0  0  0  0  0  0  0  0  0  0
  141.0650   70.8130  227.4820 C   0  0  0  0  0  0  0  0  0  0  0  0
  141.0540   71.6700  226.3820 C   0  0  0  0  0  0  0  0  0  0  0  0
  140.5350   71.2680  225.1680 C   0  0  0  0  0  0  0  0  0  0  0  0
  140.5650   72.1610  224.1580 N   0  0  0  0  0  0  0  0  0  0  0  0
  139.5770   74.3970  223.1050 H   0  0  0  0  0  0  0  0  0  0  0  0
  140.1624   74.6438  220.1326 H   0  0  0  0  0  0  0  0  0  0  0  0
  138.8207   75.5715  221.0534 H   0  0  0  0  0  0  0  0  0  0  0  0
  140.5918   79.0592  220.3955 H   0  0  0  0  0  0  0  0  0  0  0  0
  142.3037   78.9532  220.7326 H   0  0  0  0  0  0  0  0  0  0  0  0
  140.8861   78.5690  217.9625 H   0  0  0  0  0  0  0  0  0  0  0  0
  142.1148   79.7219  218.2494 H   0  0  0  0  0  0  0  0  0  0  0  0
  143.0240   77.3558  217.3890 H   0  0  0  0  0  0  0  0  0  0  0  0
  143.7831   77.7840  218.8910 H   0  0  0  0  0  0  0  0  0  0  0  0
  141.3408   75.9949  218.3878 H   0  0  0  0  0  0  0  0  0  0  0  0
  144.4775   76.4067  220.3645 H   0  0  0  0  0  0  0  0  0  0  0  0
  145.7674   74.4011  220.9466 H   0  0  0  0  0  0  0  0  0  0  0  0
  142.7477   71.8985  219.2419 H   0  0  0  0  0  0  0  0  0  0  0  0
  141.4622   73.9054  218.6640 H   0  0  0  0  0  0  0  0  0  0  0  0
  139.1466   70.2986  221.7885 H   0  0  0  0  0  0  0  0  0  0  0  0
  139.0783   68.6317  223.6340 H   0  0  0  0  0  0  0  0  0  0  0  0
  139.6109   68.1318  226.0134 H   0  0  0  0  0  0  0  0  0  0  0  0
  141.4815   71.1418  228.4455 H   0  0  0  0  0  0  0  0  0  0  0  0
  141.4664   72.6847  226.4837 H   0  0  0  0  0  0  0  0  0  0  0  0
  1  2  2  0
  2  3  1  0
  3  4  1  0
  4  5  1  0
  5  6  2  0
  5  7  1  0
  7  8  1  0
  8  9  1  0
  9 10  1  0
 10 11  1  0
 11 12  1  0
 12 13  2  0
 13 14  1  0
 14 15  2  0
 15 16  1  0
 15 17  1  0
 17 18  2  0
  2 19  1  0
 19 20  2  0
 20 21  1  0
 21 22  2  0
 22 23  1  0
 23 24  2  0
 24 25  1  0
 24 26  1  0
 26 27  2  0
 27 28  1  0
 28 29  2  0
 11  7  1  0
 18 12  1  0
 29 19  1  0
 28 22  1  0
  3 30  1  0
  4 31  1  0
  4 32  1  0
  8 33  1  0
  8 34  1  0
  9 35  1  0
  9 36  1  0
 10 37  1  0
 10 38  1  0
 11 39  1  6
 13 40  1  0
 14 41  1  0
 17 42  1  0
 18 43  1  0
 20 44  1  0
 21 45  1  0
 23 46  1  0
 26 47  1  0
 27 48  1  0
M  END
>  <smiles>  (64) 
O=C(NCC(=O)N1CCCC1c1ccc(F)cc1)c1ccc2cc(Cl)ccc2n1

>  <score_type>  (64) 
oracle

>  <origin>  (64) 
autodockgpu

>  <m_score__min__energy>  (64) 
-8.7400000000000002

>  <m_primary>  (64) 
energy

>  <rmsd>  (64) 
2.3680657748344567

>  <m_score__min__rmsd>  (64) 
2.3680657748344567

>  <meeko>  (64) 
{"free_energy": -8.05, "intermolecular_energy": -9.54, "internal_energy": -1.86, "cluster_size": 10, "cluster_id": 4, "rank_in_cluster": 2}

>  <energy>  (64) 
-8.64

>  <cluster_rmsd>  (64) 
0.16

>  <cluster>  (64) 
2

$$$$

     RDKit          3D

 48 51  0  0  0  0  0  0  0  0999 V2000
  141.1460   72.7510  221.0110 O   0  0  0  0  0  0  0  0  0  0  0  0
  140.3370   72.9720  221.9770 C   0  0  0  0  0  0  0  0  0  0  0  0
  139.5440   74.1700  222.0140 N   0  0  0  0  0  0  0  0  0  0  0  0
  139.6180   75.1800  221.0000 C   0  0  0  0  0  0  0  0  0  0  0  0
  140.7850   76.0360  220.9360 C   0  0  0  0  0  0  0  0  0  0  0  0
  141.4400   76.1470  222.0480 O   0  0  0  0  0  0  0  0  0  0  0  0
  141.3150   76.7610  219.8410 N   0  0  0  0  0  0  0  0  0  0  0  0
  141.2420   78.2000  219.5500 C   0  0  0  0  0  0  0  0  0  0  0  0
  141.4400   78.2440  218.0140 C   0  0  0  0  0  0  0  0  0  0  0  0
  142.6110   77.2460  217.9620 C   0  0  0  0  0  0  0  0  0  0  0  0
  142.0510   76.1160  218.7670 C   0  0  1  0  0  0  0  0  0  0  0  0
  143.0590   75.1470  219.2380 C   0  0  0  0  0  0  0  0  0  0  0  0
  144.0660   75.4580  220.0970 C   0  0  0  0  0  0  0  0  0  0  0  0
  144.9710   74.4920  220.4890 C   0  0  0  0  0  0  0  0  0  0  0  0
  144.9080   73.1830  220.0420 C   0  0  0  0  0  0  0  0  0  0  0  0
  145.7880   72.2290  220.4200 F   0  0  0  0  0  0  0  0  0  0  0  0
  143.8870   72.8670  219.1710 C   0  0  0  0  0  0  0  0  0  0  0  0
  142.9880   73.8300  218.7830 C   0  0  0  0  0  0  0  0  0  0  0  0
  140.2350   71.9820  223.0390 C   0  0  0  0  0  0  0  0  0  0  0  0
  139.6720   70.7480  222.7980 C   0  0  0  0  0  0  0  0  0  0  0  0
  139.5590   69.7800  223.7870 C   0  0  0  0  0  0  0  0  0  0  0  0
  140.0320   70.0850  225.0450 C   0  0  0  0  0  0  0  0  0  0  0  0
  139.9730   69.2030  226.1060 C   0  0  0  0  0  0  0  0  0  0  0  0
  140.4590   69.5460  227.3570 C   0  0  0  0  0  0  0  0  0  0  0  0
  140.3860   68.4320  228.7040 Cl  0  0  0  0  0  0  0  0  0  0  0  0
  141.0170   70.7900  227.5620 C   0  0  0  0  0  0  0  0  0  0  0  0
  141.0760   71.6810  226.4910 C   0  0  0  0  0  0  0  0  0  0  0  0
  140.5900   71.3350  225.2470 C   0  0  0  0  0  0  0  0  0  0  0  0
  140.6890   72.2580  224.2680 N   0  0  0  0  0  0  0  0  0  0  0  0
  138.9050   74.2320  222.8620 H   0  0  0  0  0  0  0  0  0  0  0  0
  139.5427   74.6669  220.0299 H   0  0  0  0  0  0  0  0  0  0  0  0
  138.8022   75.8706  221.2601 H   0  0  0  0  0  0  0  0  0  0  0  0
  140.2640   78.6140  219.8364 H   0  0  0  0  0  0  0  0  0  0  0  0
  141.9816   78.7967  220.1040 H   0  0  0  0  0  0  0  0  0  0  0  0
  140.5566   77.8888  217.4632 H   0  0  0  0  0  0  0  0  0  0  0  0
  141.6084   79.2327  217.5621 H   0  0  0  0  0  0  0  0  0  0  0  0
  142.8340   76.9367  216.9302 H   0  0  0  0  0  0  0  0  0  0  0  0
  143.5656   77.6435  218.3370 H   0  0  0  0  0  0  0  0  0  0  0  0
  141.4007   75.4758  218.1528 H   0  0  0  0  0  0  0  0  0  0  0  0
  144.1600   76.4843  220.4815 H   0  0  0  0  0  0  0  0  0  0  0  0
  145.7750   74.7737  221.1849 H   0  0  0  0  0  0  0  0  0  0  0  0
  143.7922   71.8410  218.7859 H   0  0  0  0  0  0  0  0  0  0  0  0
  142.1820   73.5527  218.0877 H   0  0  0  0  0  0  0  0  0  0  0  0
  139.2994   70.5219  221.7880 H   0  0  0  0  0  0  0  0  0  0  0  0
  139.1062   68.8006  223.5732 H   0  0  0  0  0  0  0  0  0  0  0  0
  139.5308   68.2072  225.9545 H   0  0  0  0  0  0  0  0  0  0  0  0
  141.4077   71.0739  228.5503 H   0  0  0  0  0  0  0  0  0  0  0  0
  141.5178   72.6772  226.6406 H   0  0  0  0  0  0  0  0  0  0  0  0
  1  2  2  0
  2  3  1  0
  3  4  1  0
  4  5  1  0
  5  6  2  0
  5  7  1  0
  7  8  1  0
  8  9  1  0
  9 10  1  0
 10 11  1  0
 11 12  1  0
 12 13  2  0
 13 14  1  0
 14 15  2  0
 15 16  1  0
 15 17  1  0
 17 18  2  0
  2 19  1  0
 19 20  2  0
 20 21  1  0
 21 22  2  0
 22 23  1  0
 23 24  2  0
 24 25  1  0
 24 26  1  0
 26 27  2  0
 27 28  1  0
 28 29  2  0
 11  7  1  0
 18 12  1  0
 29 19  1  0
 28 22  1  0
  3 30  1  0
  4 31  1  0
  4 32  1  0
  8 33  1  0
  8 34  1  0
  9 35  1  0
  9 36  1  0
 10 37  1  0
 10 38  1  0
 11 39  1  6
 13 40  1  0
 14 41  1  0
 17 42  1  0
 18 43  1  0
 20 44  1  0
 21 45  1  0
 23 46  1  0
 26 47  1  0
 27 48  1  0
M  END
>  <smiles>  (65) 
O=C(NCC(=O)N1CCCC1c1ccc(F)cc1)c1ccc2cc(Cl)ccc2n1

>  <score_type>  (65) 
oracle

>  <origin>  (65) 
autodockgpu

>  <m_score__min__energy>  (65) 
-8.7400000000000002

>  <m_primary>  (65) 
energy

>  <rmsd>  (65) 
2.2437371247504934

>  <m_score__min__rmsd>  (65) 
2.2437371247504934

>  <meeko>  (65) 
{"free_energy": -7.94, "intermolecular_energy": -9.43, "internal_energy": -1.69, "cluster_size": 10, "cluster_id": 4, "rank_in_cluster": 6}

>  <energy>  (65) 
-8.6

>  <cluster_rmsd>  (65) 
0.27

>  <cluster>  (65) 
2

$$$$

     RDKit          3D

 48 51  0  0  0  0  0  0  0  0999 V2000
  133.8720   69.2890  226.4700 O   0  0  0  0  0  0  0  0  0  0  0  0
  134.3270   70.3850  225.9910 C   0  0  0  0  0  0  0  0  0  0  0  0
  135.4190   70.3820  225.0570 N   0  0  0  0  0  0  0  0  0  0  0  0
  136.0650   69.1790  224.6230 C   0  0  0  0  0  0  0  0  0  0  0  0
  137.2860   69.2710  223.8480 C   0  0  0  0  0  0  0  0  0  0  0  0
  137.5990   68.1960  223.1950 O   0  0  0  0  0  0  0  0  0  0  0  0
  138.1800   70.3590  223.6960 N   0  0  0  0  0  0  0  0  0  0  0  0
  137.9330   71.7030  223.1550 C   0  0  0  0  0  0  0  0  0  0  0  0
  139.3460   72.1510  222.7060 C   0  0  0  0  0  0  0  0  0  0  0  0
  140.0870   71.6750  223.9680 C   0  0  0  0  0  0  0  0  0  0  0  0
  139.5790   70.2720  224.0780 C   0  0  1  0  0  0  0  0  0  0  0  0
  139.7950   69.6500  225.3990 C   0  0  0  0  0  0  0  0  0  0  0  0
  139.8330   68.3060  225.6070 C   0  0  0  0  0  0  0  0  0  0  0  0
  140.0400   67.8030  226.8750 C   0  0  0  0  0  0  0  0  0  0  0  0
  140.2170   68.6160  227.9820 C   0  0  0  0  0  0  0  0  0  0  0  0
  140.4200   68.1340  229.2280 F   0  0  0  0  0  0  0  0  0  0  0  0
  140.1790   69.9780  227.7720 C   0  0  0  0  0  0  0  0  0  0  0  0
  139.9730   70.4750  226.5080 C   0  0  0  0  0  0  0  0  0  0  0  0
  133.7130   71.6360  226.4110 C   0  0  0  0  0  0  0  0  0  0  0  0
  132.5530   71.6350  227.1550 C   0  0  0  0  0  0  0  0  0  0  0  0
  131.9410   72.8090  227.5730 C   0  0  0  0  0  0  0  0  0  0  0  0
  132.5300   74.0040  227.2200 C   0  0  0  0  0  0  0  0  0  0  0  0
  132.0120   75.2330  227.5790 C   0  0  0  0  0  0  0  0  0  0  0  0
  132.6320   76.4140  227.2050 C   0  0  0  0  0  0  0  0  0  0  0  0
  131.9800   77.9730  227.6560 Cl  0  0  0  0  0  0  0  0  0  0  0  0
  133.7920   76.3780  226.4600 C   0  0  0  0  0  0  0  0  0  0  0  0
  134.3150   75.1360  226.0980 C   0  0  0  0  0  0  0  0  0  0  0  0
  133.6930   73.9630  226.4720 C   0  0  0  0  0  0  0  0  0  0  0  0
  134.2690   72.8080  226.0790 N   0  0  0  0  0  0  0  0  0  0  0  0
  135.6990   71.3530  224.7250 H   0  0  0  0  0  0  0  0  0  0  0  0
  136.3010   68.5974  225.5263 H   0  0  0  0  0  0  0  0  0  0  0  0
  135.3437   68.7337  223.9220 H   0  0  0  0  0  0  0  0  0  0  0  0
  137.2384   71.6666  222.3028 H   0  0  0  0  0  0  0  0  0  0  0  0
  137.4664   72.3872  223.8790 H   0  0  0  0  0  0  0  0  0  0  0  0
  139.6846   71.6339  221.7961 H   0  0  0  0  0  0  0  0  0  0  0  0
  139.4676   73.2079  222.4263 H   0  0  0  0  0  0  0  0  0  0  0  0
  141.1781   71.7010  223.8310 H   0  0  0  0  0  0  0  0  0  0  0  0
  139.9120   72.2943  224.8601 H   0  0  0  0  0  0  0  0  0  0  0  0
  140.1411   69.5931  223.4199 H   0  0  0  0  0  0  0  0  0  0  0  0
  139.6980   67.6171  224.7602 H   0  0  0  0  0  0  0  0  0  0  0  0
  140.0655   66.7119  227.0122 H   0  0  0  0  0  0  0  0  0  0  0  0
  140.3139   70.6680  228.6180 H   0  0  0  0  0  0  0  0  0  0  0  0
  139.9476   71.5655  226.3658 H   0  0  0  0  0  0  0  0  0  0  0  0
  132.0967   70.6717  227.4268 H   0  0  0  0  0  0  0  0  0  0  0  0
  131.0155   72.7861  228.1670 H   0  0  0  0  0  0  0  0  0  0  0  0
  131.0879   75.2749  228.1742 H   0  0  0  0  0  0  0  0  0  0  0  0
  134.2943   77.3087  226.1575 H   0  0  0  0  0  0  0  0  0  0  0  0
  135.2397   75.0916  225.5039 H   0  0  0  0  0  0  0  0  0  0  0  0
  1  2  2  0
  2  3  1  0
  3  4  1  0
  4  5  1  0
  5  6  2  0
  5  7  1  0
  7  8  1  0
  8  9  1  0
  9 10  1  0
 10 11  1  0
 11 12  1  0
 12 13  2  0
 13 14  1  0
 14 15  2  0
 15 16  1  0
 15 17  1  0
 17 18  2  0
  2 19  1  0
 19 20  2  0
 20 21  1  0
 21 22  2  0
 22 23  1  0
 23 24  2  0
 24 25  1  0
 24 26  1  0
 26 27  2  0
 27 28  1  0
 28 29  2  0
 11  7  1  0
 18 12  1  0
 29 19  1  0
 28 22  1  0
  3 30  1  0
  4 31  1  0
  4 32  1  0
  8 33  1  0
  8 34  1  0
  9 35  1  0
  9 36  1  0
 10 37  1  0
 10 38  1  0
 11 39  1  6
 13 40  1  0
 14 41  1  0
 17 42  1  0
 18 43  1  0
 20 44  1  0
 21 45  1  0
 23 46  1  0
 26 47  1  0
 27 48  1  0
M  END
>  <smiles>  (66) 
O=C(NCC(=O)N1CCCC1c1ccc(F)cc1)c1ccc2cc(Cl)ccc2n1

>  <score_type>  (66) 
oracle

>  <origin>  (66) 
autodockgpu

>  <m_score__min__energy>  (66) 
-8.7400000000000002

>  <m_primary>  (66) 
energy

>  <rmsd>  (66) 
7.756299067508104

>  <m_score__min__rmsd>  (66) 
7.756299067508104

>  <meeko>  (66) 
{"free_energy": -8.25, "intermolecular_energy": -9.74, "internal_energy": -1.63, "cluster_size": 19, "cluster_id": 2, "rank_in_cluster": 13}

>  <energy>  (66) 
-8.49

>  <cluster_rmsd>  (66) 
0.11

>  <cluster>  (66) 
2

$$$$

     RDKit          3D

 48 51  0  0  0  0  0  0  0  0999 V2000
  133.7910   69.3240  226.4460 O   0  0  0  0  0  0  0  0  0  0  0  0
  134.2950   70.4320  226.0500 C   0  0  0  0  0  0  0  0  0  0  0  0
  135.4830   70.4530  225.2410 N   0  0  0  0  0  0  0  0  0  0  0  0
  136.1720   69.2610  224.8460 C   0  0  0  0  0  0  0  0  0  0  0  0
  137.2440   69.3520  223.8750 C   0  0  0  0  0  0  0  0  0  0  0  0
  137.3360   68.3420  223.0690 O   0  0  0  0  0  0  0  0  0  0  0  0
  138.1980   70.3800  223.6770 N   0  0  0  0  0  0  0  0  0  0  0  0
  138.0210   71.7210  223.1020 C   0  0  0  0  0  0  0  0  0  0  0  0
  139.4500   72.0720  222.6160 C   0  0  0  0  0  0  0  0  0  0  0  0
  140.1850   71.5870  223.8780 C   0  0  0  0  0  0  0  0  0  0  0  0
  139.5970   70.2210  224.0370 C   0  0  1  0  0  0  0  0  0  0  0  0
  139.8010   69.6230  225.3710 C   0  0  0  0  0  0  0  0  0  0  0  0
  139.7610   68.2860  225.6170 C   0  0  0  0  0  0  0  0  0  0  0  0
  139.9620   67.8070  226.8950 C   0  0  0  0  0  0  0  0  0  0  0  0
  140.2090   68.6370  227.9750 C   0  0  0  0  0  0  0  0  0  0  0  0
  140.4070   68.1790  229.2310 F   0  0  0  0  0  0  0  0  0  0  0  0
  140.2490   69.9930  227.7270 C   0  0  0  0  0  0  0  0  0  0  0  0
  140.0490   70.4670  226.4530 C   0  0  0  0  0  0  0  0  0  0  0  0
  133.6390   71.6720  226.4360 C   0  0  0  0  0  0  0  0  0  0  0  0
  132.4550   71.6510  227.1420 C   0  0  0  0  0  0  0  0  0  0  0  0
  131.8020   72.8150  227.5270 C   0  0  0  0  0  0  0  0  0  0  0  0
  132.3750   74.0200  227.1810 C   0  0  0  0  0  0  0  0  0  0  0  0
  131.8170   75.2400  227.5100 C   0  0  0  0  0  0  0  0  0  0  0  0
  132.4210   76.4310  227.1440 C   0  0  0  0  0  0  0  0  0  0  0  0
  131.7190   77.9790  227.5570 Cl  0  0  0  0  0  0  0  0  0  0  0  0
  133.6060   76.4150  226.4390 C   0  0  0  0  0  0  0  0  0  0  0  0
  134.1690   75.1830  226.1070 C   0  0  0  0  0  0  0  0  0  0  0  0
  133.5630   73.9980  226.4720 C   0  0  0  0  0  0  0  0  0  0  0  0
  134.1780   72.8540  226.1110 N   0  0  0  0  0  0  0  0  0  0  0  0
  135.7960   71.4320  224.9700 H   0  0  0  0  0  0  0  0  0  0  0  0
  136.6013   68.8209  225.7581 H   0  0  0  0  0  0  0  0  0  0  0  0
  135.4001   68.6724  224.3286 H   0  0  0  0  0  0  0  0  0  0  0  0
  137.3097   71.7026  222.2632 H   0  0  0  0  0  0  0  0  0  0  0  0
  137.6094   72.4514  223.8141 H   0  0  0  0  0  0  0  0  0  0  0  0
  139.7404   71.5112  221.7153 H   0  0  0  0  0  0  0  0  0  0  0  0
  139.6285   73.1118  222.3046 H   0  0  0  0  0  0  0  0  0  0  0  0
  141.2729   71.5437  223.7214 H   0  0  0  0  0  0  0  0  0  0  0  0
  140.0639   72.2399  224.7549 H   0  0  0  0  0  0  0  0  0  0  0  0
  140.1057   69.4925  223.3886 H   0  0  0  0  0  0  0  0  0  0  0  0
  139.5675   67.5833  224.7931 H   0  0  0  0  0  0  0  0  0  0  0  0
  139.9245   66.7205  227.0628 H   0  0  0  0  0  0  0  0  0  0  0  0
  140.4413   70.6963  228.5506 H   0  0  0  0  0  0  0  0  0  0  0  0
  140.0859   71.5527  226.2801 H   0  0  0  0  0  0  0  0  0  0  0  0
  132.0126   70.6800  227.4094 H   0  0  0  0  0  0  0  0  0  0  0  0
  130.8578   72.7764  228.0900 H   0  0  0  0  0  0  0  0  0  0  0  0
  130.8732   75.2659  228.0745 H   0  0  0  0  0  0  0  0  0  0  0  0
  134.0970   77.3543  226.1446 H   0  0  0  0  0  0  0  0  0  0  0  0
  135.1135   75.1553  225.5438 H   0  0  0  0  0  0  0  0  0  0  0  0
  1  2  2  0
  2  3  1  0
  3  4  1  0
  4  5  1  0
  5  6  2  0
  5  7  1  0
  7  8  1  0
  8  9  1  0
  9 10  1  0
 10 11  1  0
 11 12  1  0
 12 13  2  0
 13 14  1  0
 14 15  2  0
 15 16  1  0
 15 17  1  0
 17 18  2  0
  2 19  1  0
 19 20  2  0
 20 21  1  0
 21 22  2  0
 22 23  1  0
 23 24  2  0
 24 25  1  0
 24 26  1  0
 26 27  2  0
 27 28  1  0
 28 29  2  0
 11  7  1  0
 18 12  1  0
 29 19  1  0
 28 22  1  0
  3 30  1  0
  4 31  1  0
  4 32  1  0
  8 33  1  0
  8 34  1  0
  9 35  1  0
  9 36  1  0
 10 37  1  0
 10 38  1  0
 11 39  1  6
 13 40  1  0
 14 41  1  0
 17 42  1  0
 18 43  1  0
 20 44  1  0
 21 45  1  0
 23 46  1  0
 26 47  1  0
 27 48  1  0
M  END
>  <smiles>  (67) 
O=C(NCC(=O)N1CCCC1c1ccc(F)cc1)c1ccc2cc(Cl)ccc2n1

>  <score_type>  (67) 
oracle

>  <origin>  (67) 
autodockgpu

>  <m_score__min__energy>  (67) 
-8.7400000000000002

>  <m_primary>  (67) 
energy

>  <rmsd>  (67) 
7.816269206972821

>  <m_score__min__rmsd>  (67) 
7.816269206972821

>  <meeko>  (67) 
{"free_energy": -8.3, "intermolecular_energy": -9.79, "internal_energy": -1.62, "cluster_size": 19, "cluster_id": 2, "rank_in_cluster": 8}

>  <energy>  (67) 
-8.39

>  <cluster_rmsd>  (67) 
0.44

>  <cluster>  (67) 
2

$$$$

     RDKit          3D

 48 51  0  0  0  0  0  0  0  0999 V2000
  140.9370   72.5680  220.8670 O   0  0  0  0  0  0  0  0  0  0  0  0
  140.3030   72.8920  221.9290 C   0  0  0  0  0  0  0  0  0  0  0  0
  139.6900   74.1860  222.0550 N   0  0  0  0  0  0  0  0  0  0  0  0
  139.7610   75.1800  221.0260 C   0  0  0  0  0  0  0  0  0  0  0  0
  140.8060   76.1830  221.0810 C   0  0  0  0  0  0  0  0  0  0  0  0
  141.2680   76.4240  222.2670 O   0  0  0  0  0  0  0  0  0  0  0  0
  141.3970   76.9300  220.0320 N   0  0  0  0  0  0  0  0  0  0  0  0
  141.4660   78.3860  219.8460 C   0  0  0  0  0  0  0  0  0  0  0  0
  141.6550   78.5220  218.3140 C   0  0  0  0  0  0  0  0  0  0  0  0
  142.7190   77.4200  218.1730 C   0  0  0  0  0  0  0  0  0  0  0  0
  142.0550   76.2950  218.9030 C   0  0  1  0  0  0  0  0  0  0  0  0
  142.9660   75.1990  219.2880 C   0  0  0  0  0  0  0  0  0  0  0  0
  142.8020   73.9060  218.9000 C   0  0  0  0  0  0  0  0  0  0  0  0
  143.7000   72.9390  219.3040 C   0  0  0  0  0  0  0  0  0  0  0  0
  144.7910   73.2210  220.1080 C   0  0  0  0  0  0  0  0  0  0  0  0
  145.6770   72.2810  220.5090 F   0  0  0  0  0  0  0  0  0  0  0  0
  144.9590   74.5310  220.5010 C   0  0  0  0  0  0  0  0  0  0  0  0
  144.0630   75.4920  220.0970 C   0  0  0  0  0  0  0  0  0  0  0  0
  140.2130   71.9210  223.0100 C   0  0  0  0  0  0  0  0  0  0  0  0
  139.6480   70.6830  222.7970 C   0  0  0  0  0  0  0  0  0  0  0  0
  139.5460   69.7320  223.8040 C   0  0  0  0  0  0  0  0  0  0  0  0
  140.0330   70.0600  225.0510 C   0  0  0  0  0  0  0  0  0  0  0  0
  139.9870   69.1960  226.1280 C   0  0  0  0  0  0  0  0  0  0  0  0
  140.4860   69.5610  227.3670 C   0  0  0  0  0  0  0  0  0  0  0  0
  140.4290   68.4720  228.7350 Cl  0  0  0  0  0  0  0  0  0  0  0  0
  141.0450   70.8090  227.5450 C   0  0  0  0  0  0  0  0  0  0  0  0
  141.0920   71.6810  226.4570 C   0  0  0  0  0  0  0  0  0  0  0  0
  140.5920   71.3130  225.2250 C   0  0  0  0  0  0  0  0  0  0  0  0
  140.6800   72.2190  224.2290 N   0  0  0  0  0  0  0  0  0  0  0  0
  139.1850   74.3310  222.9800 H   0  0  0  0  0  0  0  0  0  0  0  0
  139.8782   74.6462  220.0714 H   0  0  0  0  0  0  0  0  0  0  0  0
  138.8356   75.7597  221.1587 H   0  0  0  0  0  0  0  0  0  0  0  0
  140.5367   78.8731  220.1763 H   0  0  0  0  0  0  0  0  0  0  0  0
  142.2661   78.8644  220.4299 H   0  0  0  0  0  0  0  0  0  0  0  0
  140.7361   78.2973  217.7527 H   0  0  0  0  0  0  0  0  0  0  0  0
  141.9178   79.5193  217.9316 H   0  0  0  0  0  0  0  0  0  0  0  0
  142.9020   77.1663  217.1184 H   0  0  0  0  0  0  0  0  0  0  0  0
  143.7114   77.6924  218.5614 H   0  0  0  0  0  0  0  0  0  0  0  0
  141.3386   75.7689  218.2548 H   0  0  0  0  0  0  0  0  0  0  0  0
  141.9500   73.6297  218.2614 H   0  0  0  0  0  0  0  0  0  0  0  0
  143.5423   71.9017  218.9736 H   0  0  0  0  0  0  0  0  0  0  0  0
  145.8112   74.8081  221.1389 H   0  0  0  0  0  0  0  0  0  0  0  0
  144.2173   76.5308  220.4242 H   0  0  0  0  0  0  0  0  0  0  0  0
  139.2645   70.4393  221.7952 H   0  0  0  0  0  0  0  0  0  0  0  0
  139.0913   68.7488  223.6126 H   0  0  0  0  0  0  0  0  0  0  0  0
  139.5447   68.1972  225.9986 H   0  0  0  0  0  0  0  0  0  0  0  0
  141.4454   71.1106  228.5241 H   0  0  0  0  0  0  0  0  0  0  0  0
  141.5356   72.6796  226.5837 H   0  0  0  0  0  0  0  0  0  0  0  0
  1  2  2  0
  2  3  1  0
  3  4  1  0
  4  5  1  0
  5  6  2  0
  5  7  1  0
  7  8  1  0
  8  9  1  0
  9 10  1  0
 10 11  1  0
 11 12  1  0
 12 13  2  0
 13 14  1  0
 14 15  2  0
 15 16  1  0
 15 17  1  0
 17 18  2  0
  2 19  1  0
 19 20  2  0
 20 21  1  0
 21 22  2  0
 22 23  1  0
 23 24  2  0
 24 25  1  0
 24 26  1  0
 26 27  2  0
 27 28  1  0
 28 29  2  0
 11  7  1  0
 18 12  1  0
 29 19  1  0
 28 22  1  0
  3 30  1  0
  4 31  1  0
  4 32  1  0
  8 33  1  0
  8 34  1  0
  9 35  1  0
  9 36  1  0
 10 37  1  0
 10 38  1  0
 11 39  1  6
 13 40  1  0
 14 41  1  0
 17 42  1  0
 18 43  1  0
 20 44  1  0
 21 45  1  0
 23 46  1  0
 26 47  1  0
 27 48  1  0
M  END
>  <smiles>  (68) 
O=C(NCC(=O)N1CCCC1c1ccc(F)cc1)c1ccc2cc(Cl)ccc2n1

>  <score_type>  (68) 
oracle

>  <origin>  (68) 
autodockgpu

>  <m_score__min__energy>  (68) 
-8.7400000000000002

>  <m_primary>  (68) 
energy

>  <rmsd>  (68) 
2.330301109219191

>  <m_score__min__rmsd>  (68) 
2.330301109219191

>  <meeko>  (68) 
{"free_energy": -8.04, "intermolecular_energy": -9.53, "internal_energy": -1.72, "cluster_size": 10, "cluster_id": 4, "rank_in_cluster": 3}

>  <energy>  (68) 
-8.36

>  <cluster_rmsd>  (68) 
0.49

>  <cluster>  (68) 
2

$$$$

     RDKit          3D

 48 51  0  0  0  0  0  0  0  0999 V2000
  139.7250   72.0210  220.6330 O   0  0  0  0  0  0  0  0  0  0  0  0
  139.7540   72.4880  221.8240 C   0  0  0  0  0  0  0  0  0  0  0  0
  139.7150   73.9060  222.0600 N   0  0  0  0  0  0  0  0  0  0  0  0
  139.6560   74.8660  220.9990 C   0  0  0  0  0  0  0  0  0  0  0  0
  140.2780   76.1620  221.1830 C   0  0  0  0  0  0  0  0  0  0  0  0
  139.9130   76.7950  222.2520 O   0  0  0  0  0  0  0  0  0  0  0  0
  141.2260   76.8330  220.3700 N   0  0  0  0  0  0  0  0  0  0  0  0
  141.6950   78.2240  220.4360 C   0  0  0  0  0  0  0  0  0  0  0  0
  142.1970   78.4800  218.9930 C   0  0  0  0  0  0  0  0  0  0  0  0
  142.9550   77.1500  218.8360 C   0  0  0  0  0  0  0  0  0  0  0  0
  141.9030   76.1760  219.2650 C   0  0  1  0  0  0  0  0  0  0  0  0
  142.4170   74.8340  219.5990 C   0  0  0  0  0  0  0  0  0  0  0  0
  141.8820   73.6770  219.1240 C   0  0  0  0  0  0  0  0  0  0  0  0
  142.4220   72.4600  219.4850 C   0  0  0  0  0  0  0  0  0  0  0  0
  143.5130   72.3470  220.3310 C   0  0  0  0  0  0  0  0  0  0  0  0
  144.0500   71.1610  220.6910 F   0  0  0  0  0  0  0  0  0  0  0  0
  144.0560   73.5190  220.8130 C   0  0  0  0  0  0  0  0  0  0  0  0
  143.5160   74.7290  220.4510 C   0  0  0  0  0  0  0  0  0  0  0  0
  139.8260   71.5530  222.9370 C   0  0  0  0  0  0  0  0  0  0  0  0
  139.3590   70.2640  222.8030 C   0  0  0  0  0  0  0  0  0  0  0  0
  139.4120   69.3450  223.8430 C   0  0  0  0  0  0  0  0  0  0  0  0
  139.9550   69.7580  225.0410 C   0  0  0  0  0  0  0  0  0  0  0  0
  140.0600   68.9330  226.1430 C   0  0  0  0  0  0  0  0  0  0  0  0
  140.6110   69.3840  227.3310 C   0  0  0  0  0  0  0  0  0  0  0  0
  140.7460   68.3440  228.7310 Cl  0  0  0  0  0  0  0  0  0  0  0  0
  141.0690   70.6810  227.4300 C   0  0  0  0  0  0  0  0  0  0  0  0
  140.9630   71.5140  226.3160 C   0  0  0  0  0  0  0  0  0  0  0  0
  140.4120   71.0600  225.1350 C   0  0  0  0  0  0  0  0  0  0  0  0
  140.3490   71.9340  224.1090 N   0  0  0  0  0  0  0  0  0  0  0  0
  139.7340   74.1670  223.0910 H   0  0  0  0  0  0  0  0  0  0  0  0
  140.1301   74.4038  220.1206 H   0  0  0  0  0  0  0  0  0  0  0  0
  138.5842   75.0994  220.9166 H   0  0  0  0  0  0  0  0  0  0  0  0
  140.8742   78.9078  220.6981 H   0  0  0  0  0  0  0  0  0  0  0  0
  142.4656   78.3900  221.2033 H   0  0  0  0  0  0  0  0  0  0  0  0
  141.3738   78.5858  218.2710 H   0  0  0  0  0  0  0  0  0  0  0  0
  142.7704   79.4030  218.8218 H   0  0  0  0  0  0  0  0  0  0  0  0
  143.2632   76.9802  217.7938 H   0  0  0  0  0  0  0  0  0  0  0  0
  143.8925   77.0895  219.4083 H   0  0  0  0  0  0  0  0  0  0  0  0
  141.2128   75.9479  218.4394 H   0  0  0  0  0  0  0  0  0  0  0  0
  141.0144   73.7120  218.4486 H   0  0  0  0  0  0  0  0  0  0  0  0
  141.9676   71.5417  219.0847 H   0  0  0  0  0  0  0  0  0  0  0  0
  144.9233   73.4850  221.4887 H   0  0  0  0  0  0  0  0  0  0  0  0
  143.9675   75.6501  220.8482 H   0  0  0  0  0  0  0  0  0  0  0  0
  138.9295   69.9519  221.8396 H   0  0  0  0  0  0  0  0  0  0  0  0
  139.0329   68.3204  223.7149 H   0  0  0  0  0  0  0  0  0  0  0  0
  139.6986   67.8962  226.0762 H   0  0  0  0  0  0  0  0  0  0  0  0
  141.5088   71.0510  228.3679 H   0  0  0  0  0  0  0  0  0  0  0  0
  141.3249   72.5508  226.3801 H   0  0  0  0  0  0  0  0  0  0  0  0
  1  2  2  0
  2  3  1  0
  3  4  1  0
  4  5  1  0
  5  6  2  0
  5  7  1  0
  7  8  1  0
  8  9  1  0
  9 10  1  0
 10 11  1  0
 11 12  1  0
 12 13  2  0
 13 14  1  0
 14 15  2  0
 15 16  1  0
 15 17  1  0
 17 18  2  0
  2 19  1  0
 19 20  2  0
 20 21  1  0
 21 22  2  0
 22 23  1  0
 23 24  2  0
 24 25  1  0
 24 26  1  0
 26 27  2  0
 27 28  1  0
 28 29  2  0
 11  7  1  0
 18 12  1  0
 29 19  1  0
 28 22  1  0
  3 30  1  0
  4 31  1  0
  4 32  1  0
  8 33  1  0
  8 34  1  0
  9 35  1  0
  9 36  1  0
 10 37  1  0
 10 38  1  0
 11 39  1  6
 13 40  1  0
 14 41  1  0
 17 42  1  0
 18 43  1  0
 20 44  1  0
 21 45  1  0
 23 46  1  0
 26 47  1  0
 27 48  1  0
M  END
>  <smiles>  (69) 
O=C(NCC(=O)N1CCCC1c1ccc(F)cc1)c1ccc2cc(Cl)ccc2n1

>  <score_type>  (69) 
oracle

>  <origin>  (69) 
autodockgpu

>  <m_score__min__energy>  (69) 
-8.7400000000000002

>  <m_primary>  (69) 
energy

>  <rmsd>  (69) 
2.299575757258417

>  <m_score__min__rmsd>  (69) 
2.299575757258417

>  <meeko>  (69) 
{"free_energy": -7.52, "intermolecular_energy": -9.01, "internal_energy": -1.94, "cluster_size": 10, "cluster_id": 4, "rank_in_cluster": 10}

>  <energy>  (69) 
-8.3

>  <cluster_rmsd>  (69) 
0.58

>  <cluster>  (69) 
2

$$$$

     RDKit          3D

 48 51  0  0  0  0  0  0  0  0999 V2000
  141.4100   71.4460  221.4160 O   0  0  0  0  0  0  0  0  0  0  0  0
  140.9750   72.4980  221.9990 C   0  0  0  0  0  0  0  0  0  0  0  0
  140.2440   72.4060  223.2340 N   0  0  0  0  0  0  0  0  0  0  0  0
  139.9510   71.1570  223.8700 C   0  0  0  0  0  0  0  0  0  0  0  0
  140.4000   70.9310  225.2290 C   0  0  0  0  0  0  0  0  0  0  0  0
  141.0350   71.9250  225.7640 O   0  0  0  0  0  0  0  0  0  0  0  0
  140.2420   69.7910  226.0550 N   0  0  0  0  0  0  0  0  0  0  0  0
  140.4230   69.6570  227.5070 C   0  0  0  0  0  0  0  0  0  0  0  0
  140.7050   68.1430  227.6740 C   0  0  0  0  0  0  0  0  0  0  0  0
  139.5900   67.6550  226.7320 C   0  0  0  0  0  0  0  0  0  0  0  0
  139.8590   68.4950  225.5220 C   0  0  1  0  0  0  0  0  0  0  0  0
  138.7400   68.5550  224.5630 C   0  0  0  0  0  0  0  0  0  0  0  0
  138.7850   68.0280  223.3110 C   0  0  0  0  0  0  0  0  0  0  0  0
  137.6930   68.1270  222.4730 C   0  0  0  0  0  0  0  0  0  0  0  0
  136.5170   68.7530  222.8490 C   0  0  0  0  0  0  0  0  0  0  0  0
  135.4410   68.8560  222.0370 F   0  0  0  0  0  0  0  0  0  0  0  0
  136.4690   69.2880  224.1180 C   0  0  0  0  0  0  0  0  0  0  0  0
  137.5580   69.1870  224.9500 C   0  0  0  0  0  0  0  0  0  0  0  0
  141.2360   73.7920  221.3860 C   0  0  0  0  0  0  0  0  0  0  0  0
  141.9190   73.8790  220.1930 C   0  0  0  0  0  0  0  0  0  0  0  0
  142.1860   75.0960  219.5800 C   0  0  0  0  0  0  0  0  0  0  0  0
  141.7420   76.2430  220.2030 C   0  0  0  0  0  0  0  0  0  0  0  0
  141.9490   77.5080  219.6880 C   0  0  0  0  0  0  0  0  0  0  0  0
  141.4890   78.6370  220.3440 C   0  0  0  0  0  0  0  0  0  0  0  0
  141.7470   80.2420  219.6960 Cl  0  0  0  0  0  0  0  0  0  0  0  0
  140.8080   78.5130  221.5360 C   0  0  0  0  0  0  0  0  0  0  0  0
  140.5990   77.2360  222.0560 C   0  0  0  0  0  0  0  0  0  0  0  0
  141.0610   76.1130  221.4000 C   0  0  0  0  0  0  0  0  0  0  0  0
  140.8140   74.9180  221.9750 N   0  0  0  0  0  0  0  0  0  0  0  0
  139.9460   73.3500  223.6230 H   0  0  0  0  0  0  0  0  0  0  0  0
  138.8566   71.0463  223.8710 H   0  0  0  0  0  0  0  0  0  0  0  0
  140.5227   70.4244  223.2814 H   0  0  0  0  0  0  0  0  0  0  0  0
  141.2729   70.2604  227.8586 H   0  0  0  0  0  0  0  0  0  0  0  0
  139.5587   70.0080  228.0899 H   0  0  0  0  0  0  0  0  0  0  0  0
  141.7086   67.8584  227.3249 H   0  0  0  0  0  0  0  0  0  0  0  0
  140.6992   67.7458  228.6998 H   0  0  0  0  0  0  0  0  0  0  0  0
  139.6880   66.5821  226.5101 H   0  0  0  0  0  0  0  0  0  0  0  0
  138.5730   67.7547  227.1393 H   0  0  0  0  0  0  0  0  0  0  0  0
  140.6552   68.0562  224.9027 H   0  0  0  0  0  0  0  0  0  0  0  0
  139.6967   67.5198  222.9638 H   0  0  0  0  0  0  0  0  0  0  0  0
  137.7598   67.6908  221.4654 H   0  0  0  0  0  0  0  0  0  0  0  0
  135.5577   69.7966  224.4655 H   0  0  0  0  0  0  0  0  0  0  0  0
  137.4954   69.6207  225.9589 H   0  0  0  0  0  0  0  0  0  0  0  0
  142.2646   72.9533  219.7096 H   0  0  0  0  0  0  0  0  0  0  0  0
  142.7343   75.1435  218.6276 H   0  0  0  0  0  0  0  0  0  0  0  0
  142.4905   77.6206  218.7371 H   0  0  0  0  0  0  0  0  0  0  0  0
  140.4372   79.4027  222.0660 H   0  0  0  0  0  0  0  0  0  0  0  0
  140.0563   77.1217  223.0059 H   0  0  0  0  0  0  0  0  0  0  0  0
  1  2  2  0
  2  3  1  0
  3  4  1  0
  4  5  1  0
  5  6  2  0
  5  7  1  0
  7  8  1  0
  8  9  1  0
  9 10  1  0
 10 11  1  0
 11 12  1  0
 12 13  2  0
 13 14  1  0
 14 15  2  0
 15 16  1  0
 15 17  1  0
 17 18  2  0
  2 19  1  0
 19 20  2  0
 20 21  1  0
 21 22  2  0
 22 23  1  0
 23 24  2  0
 24 25  1  0
 24 26  1  0
 26 27  2  0
 27 28  1  0
 28 29  2  0
 11  7  1  0
 18 12  1  0
 29 19  1  0
 28 22  1  0
  3 30  1  0
  4 31  1  0
  4 32  1  0
  8 33  1  0
  8 34  1  0
  9 35  1  0
  9 36  1  0
 10 37  1  0
 10 38  1  0
 11 39  1  6
 13 40  1  0
 14 41  1  0
 17 42  1  0
 18 43  1  0
 20 44  1  0
 21 45  1  0
 23 46  1  0
 26 47  1  0
 27 48  1  0
M  END
>  <smiles>  (70) 
O=C(NCC(=O)N1CCCC1c1ccc(F)cc1)c1ccc2cc(Cl)ccc2n1

>  <score_type>  (70) 
oracle

>  <origin>  (70) 
autodockgpu

>  <m_score__min__energy>  (70) 
-8.7400000000000002

>  <m_primary>  (70) 
energy

>  <rmsd>  (70) 
8.979988147608864

>  <m_score__min__rmsd>  (70) 
8.979988147608864

>  <meeko>  (70) 
{"free_energy": -7.75, "intermolecular_energy": -9.24, "internal_energy": -1.5, "cluster_size": 1, "cluster_id": 5, "rank_in_cluster": 1}

>  <energy>  (70) 
-8.3

>  <cluster_rmsd>  (70) 
0.6

>  <cluster>  (70) 
2

$$$$

     RDKit          3D

 48 51  0  0  0  0  0  0  0  0999 V2000
  133.6970   69.3470  226.3870 O   0  0  0  0  0  0  0  0  0  0  0  0
  134.2330   70.4490  226.0210 C   0  0  0  0  0  0  0  0  0  0  0  0
  135.4260   70.4570  225.2190 N   0  0  0  0  0  0  0  0  0  0  0  0
  136.0850   69.2570  224.7980 C   0  0  0  0  0  0  0  0  0  0  0  0
  137.5280   69.2500  224.6660 C   0  0  0  0  0  0  0  0  0  0  0  0
  138.1030   68.1490  225.0320 O   0  0  0  0  0  0  0  0  0  0  0  0
  138.3970   70.2650  224.1950 N   0  0  0  0  0  0  0  0  0  0  0  0
  138.0780   71.5120  223.4850 C   0  0  0  0  0  0  0  0  0  0  0  0
  139.4030   71.8280  222.7470 C   0  0  0  0  0  0  0  0  0  0  0  0
  140.3370   71.5350  223.9340 C   0  0  0  0  0  0  0  0  0  0  0  0
  139.8380   70.1890  224.3560 C   0  0  1  0  0  0  0  0  0  0  0  0
  140.2620   69.7810  225.7100 C   0  0  0  0  0  0  0  0  0  0  0  0
  140.2590   70.6100  226.7870 C   0  0  0  0  0  0  0  0  0  0  0  0
  140.6720   70.1500  228.0220 C   0  0  0  0  0  0  0  0  0  0  0  0
  141.1040   68.8510  228.2290 C   0  0  0  0  0  0  0  0  0  0  0  0
  141.5100   68.3890  229.4330 F   0  0  0  0  0  0  0  0  0  0  0  0
  141.1070   68.0090  227.1370 C   0  0  0  0  0  0  0  0  0  0  0  0
  140.6950   68.4700  225.9100 C   0  0  0  0  0  0  0  0  0  0  0  0
  133.6090   71.6980  226.4340 C   0  0  0  0  0  0  0  0  0  0  0  0
  132.4500   71.6910  227.1800 C   0  0  0  0  0  0  0  0  0  0  0  0
  131.8280   72.8620  227.5910 C   0  0  0  0  0  0  0  0  0  0  0  0
  132.4050   74.0600  227.2300 C   0  0  0  0  0  0  0  0  0  0  0  0
  131.8760   75.2870  227.5810 C   0  0  0  0  0  0  0  0  0  0  0  0
  132.4840   76.4710  227.1980 C   0  0  0  0  0  0  0  0  0  0  0  0
  131.8190   78.0270  227.6400 Cl  0  0  0  0  0  0  0  0  0  0  0  0
  133.6430   76.4400  226.4510 C   0  0  0  0  0  0  0  0  0  0  0  0
  134.1770   75.2010  226.0970 C   0  0  0  0  0  0  0  0  0  0  0  0
  133.5670   74.0240  226.4790 C   0  0  0  0  0  0  0  0  0  0  0  0
  134.1530   72.8720  226.0930 N   0  0  0  0  0  0  0  0  0  0  0  0
  135.7670   71.4340  224.9730 H   0  0  0  0  0  0  0  0  0  0  0  0
  135.8256   68.4755  225.5273 H   0  0  0  0  0  0  0  0  0  0  0  0
  135.7282   69.1112  223.7677 H   0  0  0  0  0  0  0  0  0  0  0  0
  137.2525   71.3639  222.7733 H   0  0  0  0  0  0  0  0  0  0  0  0
  137.7436   72.3215  224.1505 H   0  0  0  0  0  0  0  0  0  0  0  0
  139.5816   71.1582  221.8929 H   0  0  0  0  0  0  0  0  0  0  0  0
  139.4879   72.8206  222.2806 H   0  0  0  0  0  0  0  0  0  0  0  0
  141.3906   71.4963  223.6204 H   0  0  0  0  0  0  0  0  0  0  0  0
  140.3193   72.2971  224.7271 H   0  0  0  0  0  0  0  0  0  0  0  0
  140.2766   69.3920  223.7376 H   0  0  0  0  0  0  0  0  0  0  0  0
  139.9260   71.6523  226.6745 H   0  0  0  0  0  0  0  0  0  0  0  0
  140.6571   70.8436  228.8756 H   0  0  0  0  0  0  0  0  0  0  0  0
  141.4398   66.9665  227.2484 H   0  0  0  0  0  0  0  0  0  0  0  0
  140.7070   67.7798  225.0536 H   0  0  0  0  0  0  0  0  0  0  0  0
  132.0030   70.7254  227.4589 H   0  0  0  0  0  0  0  0  0  0  0  0
  130.9034   72.8343  228.1863 H   0  0  0  0  0  0  0  0  0  0  0  0
  130.9524   75.3244  228.1773 H   0  0  0  0  0  0  0  0  0  0  0  0
  134.1361   77.3731  226.1408 H   0  0  0  0  0  0  0  0  0  0  0  0
  135.1015   75.1616  225.5023 H   0  0  0  0  0  0  0  0  0  0  0  0
  1  2  2  0
  2  3  1  0
  3  4  1  0
  4  5  1  0
  5  6  2  0
  5  7  1  0
  7  8  1  0
  8  9  1  0
  9 10  1  0
 10 11  1  0
 11 12  1  0
 12 13  2  0
 13 14  1  0
 14 15  2  0
 15 16  1  0
 15 17  1  0
 17 18  2  0
  2 19  1  0
 19 20  2  0
 20 21  1  0
 21 22  2  0
 22 23  1  0
 23 24  2  0
 24 25  1  0
 24 26  1  0
 26 27  2  0
 27 28  1  0
 28 29  2  0
 11  7  1  0
 18 12  1  0
 29 19  1  0
 28 22  1  0
  3 30  1  0
  4 31  1  0
  4 32  1  0
  8 33  1  0
  8 34  1  0
  9 35  1  0
  9 36  1  0
 10 37  1  0
 10 38  1  0
 11 39  1  6
 13 40  1  0
 14 41  1  0
 17 42  1  0
 18 43  1  0
 20 44  1  0
 21 45  1  0
 23 46  1  0
 26 47  1  0
 27 48  1  0
M  END
>  <smiles>  (71) 
O=C(NCC(=O)N1CCCC1c1ccc(F)cc1)c1ccc2cc(Cl)ccc2n1

>  <score_type>  (71) 
oracle

>  <origin>  (71) 
autodockgpu

>  <m_score__min__energy>  (71) 
-8.7400000000000002

>  <m_primary>  (71) 
energy

>  <rmsd>  (71) 
7.891835066507783

>  <m_score__min__rmsd>  (71) 
7.891835066507783

>  <meeko>  (71) 
{"free_energy": -8.64, "intermolecular_energy": -10.14, "internal_energy": -1.42, "cluster_size": 19, "cluster_id": 2, "rank_in_cluster": 2}

>  <energy>  (71) 
-8.3

>  <cluster_rmsd>  (71) 
0.4

>  <cluster>  (71) 
2

$$$$

     RDKit          3D

 48 51  0  0  0  0  0  0  0  0999 V2000
  139.0490   71.5580  220.9890 O   0  0  0  0  0  0  0  0  0  0  0  0
  139.4120   72.0490  222.1130 C   0  0  0  0  0  0  0  0  0  0  0  0
  139.6380   73.4610  222.2620 N   0  0  0  0  0  0  0  0  0  0  0  0
  139.4870   74.3880  221.1800 C   0  0  0  0  0  0  0  0  0  0  0  0
  140.2510   75.6190  221.1900 C   0  0  0  0  0  0  0  0  0  0  0  0
  140.4450   76.1300  222.3650 O   0  0  0  0  0  0  0  0  0  0  0  0
  140.8180   76.3400  220.1100 N   0  0  0  0  0  0  0  0  0  0  0  0
  140.6410   77.7490  219.7320 C   0  0  0  0  0  0  0  0  0  0  0  0
  140.9870   77.7390  218.2220 C   0  0  0  0  0  0  0  0  0  0  0  0
  142.2440   76.8600  218.3380 C   0  0  0  0  0  0  0  0  0  0  0  0
  141.7140   75.7190  219.1500 C   0  0  1  0  0  0  0  0  0  0  0  0
  142.7560   74.8780  219.7690 C   0  0  0  0  0  0  0  0  0  0  0  0
  142.5410   73.6130  220.2180 C   0  0  0  0  0  0  0  0  0  0  0  0
  143.5700   72.8900  220.7860 C   0  0  0  0  0  0  0  0  0  0  0  0
  144.8500   73.3990  220.9290 C   0  0  0  0  0  0  0  0  0  0  0  0
  145.8660   72.7010  221.4830 F   0  0  0  0  0  0  0  0  0  0  0  0
  145.0700   74.6810  220.4730 C   0  0  0  0  0  0  0  0  0  0  0  0
  144.0420   75.3970  219.9080 C   0  0  0  0  0  0  0  0  0  0  0  0
  139.5930   71.1470  223.2410 C   0  0  0  0  0  0  0  0  0  0  0  0
  139.1890   69.8320  223.1600 C   0  0  0  0  0  0  0  0  0  0  0  0
  139.3460   68.9430  224.2160 C   0  0  0  0  0  0  0  0  0  0  0  0
  139.9270   69.4140  225.3740 C   0  0  0  0  0  0  0  0  0  0  0  0
  140.1330   68.6230  226.4870 C   0  0  0  0  0  0  0  0  0  0  0  0
  140.7200   69.1320  227.6340 C   0  0  0  0  0  0  0  0  0  0  0  0
  140.9830   68.1350  229.0470 Cl  0  0  0  0  0  0  0  0  0  0  0  0
  141.1120   70.4530  227.6800 C   0  0  0  0  0  0  0  0  0  0  0  0
  140.9030   71.2510  226.5550 C   0  0  0  0  0  0  0  0  0  0  0  0
  140.3170   70.7400  225.4150 C   0  0  0  0  0  0  0  0  0  0  0  0
  140.1540   71.5830  224.3750 N   0  0  0  0  0  0  0  0  0  0  0  0
  139.9270   73.7450  223.2450 H   0  0  0  0  0  0  0  0  0  0  0  0
  139.7548   73.8515  220.2578 H   0  0  0  0  0  0  0  0  0  0  0  0
  138.4446   74.7272  221.2707 H   0  0  0  0  0  0  0  0  0  0  0  0
  139.6049   78.0782  219.8999 H   0  0  0  0  0  0  0  0  0  0  0  0
  141.2626   78.4412  220.3190 H   0  0  0  0  0  0  0  0  0  0  0  0
  140.2000   77.2731  217.6108 H   0  0  0  0  0  0  0  0  0  0  0  0
  141.1073   78.7169  217.7328 H   0  0  0  0  0  0  0  0  0  0  0  0
  142.5965   76.5254  217.3512 H   0  0  0  0  0  0  0  0  0  0  0  0
  143.1152   77.3668  218.7786 H   0  0  0  0  0  0  0  0  0  0  0  0
  141.1910   74.9885  218.5153 H   0  0  0  0  0  0  0  0  0  0  0  0
  141.5412   73.1632  220.1280 H   0  0  0  0  0  0  0  0  0  0  0  0
  143.3654   71.8686  221.1393 H   0  0  0  0  0  0  0  0  0  0  0  0
  146.0696   75.1315  220.5614 H   0  0  0  0  0  0  0  0  0  0  0  0
  144.2417   76.4185  219.5520 H   0  0  0  0  0  0  0  0  0  0  0  0
  138.7268   69.4743  222.2281 H   0  0  0  0  0  0  0  0  0  0  0  0
  139.0172   67.8967  224.1308 H   0  0  0  0  0  0  0  0  0  0  0  0
  139.8248   67.5674  226.4624 H   0  0  0  0  0  0  0  0  0  0  0  0
  141.5796   70.8689  228.5846 H   0  0  0  0  0  0  0  0  0  0  0  0
  141.2109   72.3068  226.5771 H   0  0  0  0  0  0  0  0  0  0  0  0
  1  2  2  0
  2  3  1  0
  3  4  1  0
  4  5  1  0
  5  6  2  0
  5  7  1  0
  7  8  1  0
  8  9  1  0
  9 10  1  0
 10 11  1  0
 11 12  1  0
 12 13  2  0
 13 14  1  0
 14 15  2  0
 15 16  1  0
 15 17  1  0
 17 18  2  0
  2 19  1  0
 19 20  2  0
 20 21  1  0
 21 22  2  0
 22 23  1  0
 23 24  2  0
 24 25  1  0
 24 26  1  0
 26 27  2  0
 27 28  1  0
 28 29  2  0
 11  7  1  0
 18 12  1  0
 29 19  1  0
 28 22  1  0
  3 30  1  0
  4 31  1  0
  4 32  1  0
  8 33  1  0
  8 34  1  0
  9 35  1  0
  9 36  1  0
 10 37  1  0
 10 38  1  0
 11 39  1  6
 13 40  1  0
 14 41  1  0
 17 42  1  0
 18 43  1  0
 20 44  1  0
 21 45  1  0
 23 46  1  0
 26 47  1  0
 27 48  1  0
M  END
>  <smiles>  (72) 
O=C(NCC(=O)N1CCCC1c1ccc(F)cc1)c1ccc2cc(Cl)ccc2n1

>  <score_type>  (72) 
oracle

>  <origin>  (72) 
autodockgpu

>  <m_score__min__energy>  (72) 
-8.7400000000000002

>  <m_primary>  (72) 
energy

>  <rmsd>  (72) 
1.7614984386151982

>  <m_score__min__rmsd>  (72) 
1.7614984386151982

>  <meeko>  (72) 
{"free_energy": -7.65, "intermolecular_energy": -9.14, "internal_energy": -1.88, "cluster_size": 10, "cluster_id": 4, "rank_in_cluster": 8}

>  <energy>  (72) 
-8.28

>  <cluster_rmsd>  (72) 
0.59

>  <cluster>  (72) 
2

$$$$

     RDKit          3D

 48 51  0  0  0  0  0  0  0  0999 V2000
  133.9600   69.2820  226.4910 O   0  0  0  0  0  0  0  0  0  0  0  0
  134.3500   70.3890  225.9810 C   0  0  0  0  0  0  0  0  0  0  0  0
  135.4190   70.4210  225.0210 N   0  0  0  0  0  0  0  0  0  0  0  0
  136.1110   69.2420  224.5920 C   0  0  0  0  0  0  0  0  0  0  0  0
  137.5590   69.2440  224.5580 C   0  0  0  0  0  0  0  0  0  0  0  0
  138.1150   68.1440  224.9550 O   0  0  0  0  0  0  0  0  0  0  0  0
  138.4520   70.2670  224.1520 N   0  0  0  0  0  0  0  0  0  0  0  0
  138.1680   71.5440  223.4830 C   0  0  0  0  0  0  0  0  0  0  0  0
  139.5170   71.8730  222.7960 C   0  0  0  0  0  0  0  0  0  0  0  0
  140.4120   71.5240  223.9980 C   0  0  0  0  0  0  0  0  0  0  0  0
  139.8880   70.1670  224.3520 C   0  0  1  0  0  0  0  0  0  0  0  0
  140.2670   69.7020  225.7000 C   0  0  0  0  0  0  0  0  0  0  0  0
  140.2030   70.4760  226.8160 C   0  0  0  0  0  0  0  0  0  0  0  0
  140.5770   69.9650  228.0420 C   0  0  0  0  0  0  0  0  0  0  0  0
  141.0300   68.6660  228.2030 C   0  0  0  0  0  0  0  0  0  0  0  0
  141.3990   68.1550  229.3990 F   0  0  0  0  0  0  0  0  0  0  0  0
  141.0960   67.8800  227.0730 C   0  0  0  0  0  0  0  0  0  0  0  0
  140.7220   68.3930  225.8540 C   0  0  0  0  0  0  0  0  0  0  0  0
  133.6870   71.6170  226.3940 C   0  0  0  0  0  0  0  0  0  0  0  0
  132.5100   71.5740  227.1090 C   0  0  0  0  0  0  0  0  0  0  0  0
  131.8510   72.7250  227.5190 C   0  0  0  0  0  0  0  0  0  0  0  0
  132.4110   73.9410  227.1900 C   0  0  0  0  0  0  0  0  0  0  0  0
  131.8450   75.1510  227.5440 C   0  0  0  0  0  0  0  0  0  0  0  0
  132.4380   76.3530  227.1950 C   0  0  0  0  0  0  0  0  0  0  0  0
  131.7260   77.8880  227.6400 Cl  0  0  0  0  0  0  0  0  0  0  0  0
  133.6160   76.3580  226.4800 C   0  0  0  0  0  0  0  0  0  0  0  0
  134.1870   75.1370  226.1220 C   0  0  0  0  0  0  0  0  0  0  0  0
  133.5930   73.9410  226.4720 C   0  0  0  0  0  0  0  0  0  0  0  0
  134.2140   72.8080  226.0850 N   0  0  0  0  0  0  0  0  0  0  0  0
  135.6430   71.3980  224.6650 H   0  0  0  0  0  0  0  0  0  0  0  0
  135.8068   68.4279  225.2663 H   0  0  0  0  0  0  0  0  0  0  0  0
  135.8252   69.1419  223.5345 H   0  0  0  0  0  0  0  0  0  0  0  0
  137.3619   71.4338  222.7427 H   0  0  0  0  0  0  0  0  0  0  0  0
  137.8237   72.3308  224.1703 H   0  0  0  0  0  0  0  0  0  0  0  0
  139.7138   71.2344  221.9223 H   0  0  0  0  0  0  0  0  0  0  0  0
  139.6260   72.8815  222.3704 H   0  0  0  0  0  0  0  0  0  0  0  0
  141.4742   71.4867  223.7147 H   0  0  0  0  0  0  0  0  0  0  0  0
  140.3772   72.2546  224.8196 H   0  0  0  0  0  0  0  0  0  0  0  0
  140.3370   69.3895  223.7165 H   0  0  0  0  0  0  0  0  0  0  0  0
  139.8511   71.5155  226.7411 H   0  0  0  0  0  0  0  0  0  0  0  0
  140.5128   70.6153  228.9269 H   0  0  0  0  0  0  0  0  0  0  0  0
  141.4485   66.8406  227.1467 H   0  0  0  0  0  0  0  0  0  0  0  0
  140.7840   67.7464  224.9663 H   0  0  0  0  0  0  0  0  0  0  0  0
  132.0780   70.5949  227.3635 H   0  0  0  0  0  0  0  0  0  0  0  0
  130.9116   72.6685  228.0885 H   0  0  0  0  0  0  0  0  0  0  0  0
  130.9045   75.1597  228.1145 H   0  0  0  0  0  0  0  0  0  0  0  0
  134.0965   77.3063  226.1972 H   0  0  0  0  0  0  0  0  0  0  0  0
  135.1270   75.1268  225.5508 H   0  0  0  0  0  0  0  0  0  0  0  0
  1  2  2  0
  2  3  1  0
  3  4  1  0
  4  5  1  0
  5  6  2  0
  5  7  1  0
  7  8  1  0
  8  9  1  0
  9 10  1  0
 10 11  1  0
 11 12  1  0
 12 13  2  0
 13 14  1  0
 14 15  2  0
 15 16  1  0
 15 17  1  0
 17 18  2  0
  2 19  1  0
 19 20  2  0
 20 21  1  0
 21 22  2  0
 22 23  1  0
 23 24  2  0
 24 25  1  0
 24 26  1  0
 26 27  2  0
 27 28  1  0
 28 29  2  0
 11  7  1  0
 18 12  1  0
 29 19  1  0
 28 22  1  0
  3 30  1  0
  4 31  1  0
  4 32  1  0
  8 33  1  0
  8 34  1  0
  9 35  1  0
  9 36  1  0
 10 37  1  0
 10 38  1  0
 11 39  1  6
 13 40  1  0
 14 41  1  0
 17 42  1  0
 18 43  1  0
 20 44  1  0
 21 45  1  0
 23 46  1  0
 26 47  1  0
 27 48  1  0
M  END
>  <smiles>  (73) 
O=C(NCC(=O)N1CCCC1c1ccc(F)cc1)c1ccc2cc(Cl)ccc2n1

>  <score_type>  (73) 
oracle

>  <origin>  (73) 
autodockgpu

>  <m_score__min__energy>  (73) 
-8.7400000000000002

>  <m_primary>  (73) 
energy

>  <rmsd>  (73) 
7.841103630012723

>  <m_score__min__rmsd>  (73) 
7.841103630012723

>  <meeko>  (73) 
{"free_energy": -8.68, "intermolecular_energy": -10.17, "internal_energy": -1.4, "cluster_size": 19, "cluster_id": 2, "rank_in_cluster": 1}

>  <energy>  (73) 
-8.27

>  <cluster_rmsd>  (73) 
0.57

>  <cluster>  (73) 
2

$$$$

     RDKit          3D

 48 51  0  0  0  0  0  0  0  0999 V2000
  141.6480   78.8540  217.2340 O   0  0  0  0  0  0  0  0  0  0  0  0
  142.1680   78.3680  218.2970 C   0  0  0  0  0  0  0  0  0  0  0  0
  142.1450   79.1040  219.5310 N   0  0  0  0  0  0  0  0  0  0  0  0
  141.5630   80.4080  219.6460 C   0  0  0  0  0  0  0  0  0  0  0  0
  141.0270   80.8340  220.9230 C   0  0  0  0  0  0  0  0  0  0  0  0
  139.9100   81.4870  220.8540 O   0  0  0  0  0  0  0  0  0  0  0  0
  141.5410   80.6390  222.2290 N   0  0  0  0  0  0  0  0  0  0  0  0
  141.8920   81.6330  223.2530 C   0  0  0  0  0  0  0  0  0  0  0  0
  142.9140   80.8670  224.1300 C   0  0  0  0  0  0  0  0  0  0  0  0
  142.1210   79.5510  224.2090 C   0  0  0  0  0  0  0  0  0  0  0  0
  141.8210   79.3170  222.7620 C   0  0  1  0  0  0  0  0  0  0  0  0
  140.7450   78.3380  222.5150 C   0  0  0  0  0  0  0  0  0  0  0  0
  139.4440   78.5390  222.8530 C   0  0  0  0  0  0  0  0  0  0  0  0
  138.4970   77.5710  222.5870 C   0  0  0  0  0  0  0  0  0  0  0  0
  138.8080   76.3680  221.9770 C   0  0  0  0  0  0  0  0  0  0  0  0
  137.8890   75.4130  221.7110 F   0  0  0  0  0  0  0  0  0  0  0  0
  140.1280   76.1630  221.6330 C   0  0  0  0  0  0  0  0  0  0  0  0
  141.0680   77.1290  221.8990 C   0  0  0  0  0  0  0  0  0  0  0  0
  142.7850   77.0510  218.2300 C   0  0  0  0  0  0  0  0  0  0  0  0
  143.0420   76.4570  217.0140 C   0  0  0  0  0  0  0  0  0  0  0  0
  143.6290   75.2020  216.9120 C   0  0  0  0  0  0  0  0  0  0  0  0
  143.9570   74.5470  218.0800 C   0  0  0  0  0  0  0  0  0  0  0  0
  144.5440   73.2980  218.1030 C   0  0  0  0  0  0  0  0  0  0  0  0
  144.8580   72.6700  219.2970 C   0  0  0  0  0  0  0  0  0  0  0  0
  145.6010   71.0870  219.3320 Cl  0  0  0  0  0  0  0  0  0  0  0  0
  144.5870   73.2950  220.4960 C   0  0  0  0  0  0  0  0  0  0  0  0
  143.9940   74.5570  220.4730 C   0  0  0  0  0  0  0  0  0  0  0  0
  143.6810   75.1780  219.2810 C   0  0  0  0  0  0  0  0  0  0  0  0
  143.1110   76.3980  219.3520 N   0  0  0  0  0  0  0  0  0  0  0  0
  142.6000   78.5890  220.3430 H   0  0  0  0  0  0  0  0  0  0  0  0
  142.3417   81.1330  219.3666 H   0  0  0  0  0  0  0  0  0  0  0  0
  140.6776   80.3570  218.9952 H   0  0  0  0  0  0  0  0  0  0  0  0
  142.3477   82.5259  222.8002 H   0  0  0  0  0  0  0  0  0  0  0  0
  141.0242   82.0061  223.8167 H   0  0  0  0  0  0  0  0  0  0  0  0
  143.8887   80.7447  223.6350 H   0  0  0  0  0  0  0  0  0  0  0  0
  143.1998   81.3339  225.0841 H   0  0  0  0  0  0  0  0  0  0  0  0
  142.7279   78.7376  224.6333 H   0  0  0  0  0  0  0  0  0  0  0  0
  141.2332   79.5925  224.8572 H   0  0  0  0  0  0  0  0  0  0  0  0
  142.6717   78.8418  222.2516 H   0  0  0  0  0  0  0  0  0  0  0  0
  139.1443   79.4781  223.3411 H   0  0  0  0  0  0  0  0  0  0  0  0
  137.4520   77.7634  222.8715 H   0  0  0  0  0  0  0  0  0  0  0  0
  140.4286   75.2243  221.1447 H   0  0  0  0  0  0  0  0  0  0  0  0
  142.1143   76.9420  221.6156 H   0  0  0  0  0  0  0  0  0  0  0  0
  142.7734   76.9945  216.0926 H   0  0  0  0  0  0  0  0  0  0  0  0
  143.8258   74.7455  215.9307 H   0  0  0  0  0  0  0  0  0  0  0  0
  144.7672   72.7905  217.1529 H   0  0  0  0  0  0  0  0  0  0  0  0
  144.8335   72.8081  221.4510 H   0  0  0  0  0  0  0  0  0  0  0  0
  143.7717   75.0666  221.4221 H   0  0  0  0  0  0  0  0  0  0  0  0
  1  2  2  0
  2  3  1  0
  3  4  1  0
  4  5  1  0
  5  6  2  0
  5  7  1  0
  7  8  1  0
  8  9  1  0
  9 10  1  0
 10 11  1  0
 11 12  1  0
 12 13  2  0
 13 14  1  0
 14 15  2  0
 15 16  1  0
 15 17  1  0
 17 18  2  0
  2 19  1  0
 19 20  2  0
 20 21  1  0
 21 22  2  0
 22 23  1  0
 23 24  2  0
 24 25  1  0
 24 26  1  0
 26 27  2  0
 27 28  1  0
 28 29  2  0
 11  7  1  0
 18 12  1  0
 29 19  1  0
 28 22  1  0
  3 30  1  0
  4 31  1  0
  4 32  1  0
  8 33  1  0
  8 34  1  0
  9 35  1  0
  9 36  1  0
 10 37  1  0
 10 38  1  0
 11 39  1  6
 13 40  1  0
 14 41  1  0
 17 42  1  0
 18 43  1  0
 20 44  1  0
 21 45  1  0
 23 46  1  0
 26 47  1  0
 27 48  1  0
M  END
>  <smiles>  (74) 
O=C(NCC(=O)N1CCCC1c1ccc(F)cc1)c1ccc2cc(Cl)ccc2n1

>  <score_type>  (74) 
oracle

>  <origin>  (74) 
autodockgpu

>  <m_score__min__energy>  (74) 
-8.7400000000000002

>  <m_primary>  (74) 
energy

>  <rmsd>  (74) 
8.494735554344663

>  <m_score__min__rmsd>  (74) 
8.494735554344663

>  <meeko>  (74) 
{"free_energy": -6.95, "intermolecular_energy": -8.44, "internal_energy": -2.18, "cluster_size": 2, "cluster_id": 8, "rank_in_cluster": 2}

>  <energy>  (74) 
-8.27

>  <cluster_rmsd>  (74) 
0.46

>  <cluster>  (74) 
2

$$$$

     RDKit          3D

 48 51  0  0  0  0  0  0  0  0999 V2000
  138.4720   71.5390  220.8440 O   0  0  0  0  0  0  0  0  0  0  0  0
  138.8340   72.0410  221.9640 C   0  0  0  0  0  0  0  0  0  0  0  0
  138.9260   73.4650  222.1380 N   0  0  0  0  0  0  0  0  0  0  0  0
  138.6380   74.3940  221.0860 C   0  0  0  0  0  0  0  0  0  0  0  0
  139.5040   74.4390  219.9250 C   0  0  0  0  0  0  0  0  0  0  0  0
  138.8940   74.6180  218.7960 O   0  0  0  0  0  0  0  0  0  0  0  0
  140.9140   74.3210  219.8440 N   0  0  0  0  0  0  0  0  0  0  0  0
  141.7390   73.6520  218.8290 C   0  0  0  0  0  0  0  0  0  0  0  0
  143.0500   73.3560  219.6010 C   0  0  0  0  0  0  0  0  0  0  0  0
  143.1700   74.7360  220.2710 C   0  0  0  0  0  0  0  0  0  0  0  0
  141.7980   74.8870  220.8490 C   0  0  1  0  0  0  0  0  0  0  0  0
  141.4490   76.2680  221.2350 C   0  0  0  0  0  0  0  0  0  0  0  0
  140.7830   76.5910  222.3750 C   0  0  0  0  0  0  0  0  0  0  0  0
  140.4950   77.9100  222.6640 C   0  0  0  0  0  0  0  0  0  0  0  0
  140.8570   78.9540  221.8300 C   0  0  0  0  0  0  0  0  0  0  0  0
  140.5810   80.2490  222.1030 F   0  0  0  0  0  0  0  0  0  0  0  0
  141.5330   78.6280  220.6740 C   0  0  0  0  0  0  0  0  0  0  0  0
  141.8190   77.3140  220.3900 C   0  0  0  0  0  0  0  0  0  0  0  0
  139.1500   71.1390  223.0620 C   0  0  0  0  0  0  0  0  0  0  0  0
  138.8500   69.7960  222.9760 C   0  0  0  0  0  0  0  0  0  0  0  0
  139.1370   68.9070  224.0030 C   0  0  0  0  0  0  0  0  0  0  0  0
  139.7420   69.4040  225.1370 C   0  0  0  0  0  0  0  0  0  0  0  0
  140.0750   68.6160  226.2210 C   0  0  0  0  0  0  0  0  0  0  0  0
  140.6820   69.1530  227.3440 C   0  0  0  0  0  0  0  0  0  0  0  0
  141.1040   68.1590  228.7200 Cl  0  0  0  0  0  0  0  0  0  0  0  0
  140.9670   70.5000  227.3950 C   0  0  0  0  0  0  0  0  0  0  0  0
  140.6320   71.2970  226.3010 C   0  0  0  0  0  0  0  0  0  0  0  0
  140.0260   70.7580  225.1840 C   0  0  0  0  0  0  0  0  0  0  0  0
  139.7370   71.6010  224.1720 N   0  0  0  0  0  0  0  0  0  0  0  0
  139.2270   73.7560  223.1150 H   0  0  0  0  0  0  0  0  0  0  0  0
  137.6254   74.1642  220.7228 H   0  0  0  0  0  0  0  0  0  0  0  0
  138.7830   75.3768  221.5583 H   0  0  0  0  0  0  0  0  0  0  0  0
  141.2645   72.7226  218.4810 H   0  0  0  0  0  0  0  0  0  0  0  0
  141.8918   74.2554  217.9220 H   0  0  0  0  0  0  0  0  0  0  0  0
  142.9370   72.5400  220.3299 H   0  0  0  0  0  0  0  0  0  0  0  0
  143.9108   73.0139  219.0078 H   0  0  0  0  0  0  0  0  0  0  0  0
  143.9421   74.7399  221.0545 H   0  0  0  0  0  0  0  0  0  0  0  0
  143.4700   75.5476  219.5918 H   0  0  0  0  0  0  0  0  0  0  0  0
  141.7130   74.3617  221.8117 H   0  0  0  0  0  0  0  0  0  0  0  0
  140.4720   75.7977  223.0707 H   0  0  0  0  0  0  0  0  0  0  0  0
  139.9560   78.1407  223.5947 H   0  0  0  0  0  0  0  0  0  0  0  0
  141.8441   79.4206  219.9776 H   0  0  0  0  0  0  0  0  0  0  0  0
  142.3599   77.0786  219.4616 H   0  0  0  0  0  0  0  0  0  0  0  0
  138.3673   69.4163  222.0634 H   0  0  0  0  0  0  0  0  0  0  0  0
  138.8891   67.8390  223.9143 H   0  0  0  0  0  0  0  0  0  0  0  0
  139.8534   67.5389  226.1919 H   0  0  0  0  0  0  0  0  0  0  0  0
  141.4493   70.9381  228.2813 H   0  0  0  0  0  0  0  0  0  0  0  0
  140.8545   72.3739  226.3285 H   0  0  0  0  0  0  0  0  0  0  0  0
  1  2  2  0
  2  3  1  0
  3  4  1  0
  4  5  1  0
  5  6  2  0
  5  7  1  0
  7  8  1  0
  8  9  1  0
  9 10  1  0
 10 11  1  0
 11 12  1  0
 12 13  2  0
 13 14  1  0
 14 15  2  0
 15 16  1  0
 15 17  1  0
 17 18  2  0
  2 19  1  0
 19 20  2  0
 20 21  1  0
 21 22  2  0
 22 23  1  0
 23 24  2  0
 24 25  1  0
 24 26  1  0
 26 27  2  0
 27 28  1  0
 28 29  2  0
 11  7  1  0
 18 12  1  0
 29 19  1  0
 28 22  1  0
  3 30  1  0
  4 31  1  0
  4 32  1  0
  8 33  1  0
  8 34  1  0
  9 35  1  0
  9 36  1  0
 10 37  1  0
 10 38  1  0
 11 39  1  1
 13 40  1  0
 14 41  1  0
 17 42  1  0
 18 43  1  0
 20 44  1  0
 21 45  1  0
 23 46  1  0
 26 47  1  0
 27 48  1  0
M  END
>  <smiles>  (75) 
O=C(NCC(=O)N1CCCC1c1ccc(F)cc1)c1ccc2cc(Cl)ccc2n1

>  <score_type>  (75) 
oracle

>  <origin>  (75) 
autodockgpu

>  <m_score__min__energy>  (75) 
-8.7400000000000002

>  <m_primary>  (75) 
energy

>  <rmsd>  (75) 
2.216184913863815

>  <m_score__min__rmsd>  (75) 
2.216184913863815

>  <meeko>  (75) 
{"free_energy": -7.27, "intermolecular_energy": -8.76, "internal_energy": -1.84, "cluster_size": 3, "cluster_id": 3, "rank_in_cluster": 2}

>  <energy>  (75) 
-8.25

>  <cluster_rmsd>  (75) 
0.56

>  <cluster>  (75) 
2

$$$$

     RDKit          3D

 48 51  0  0  0  0  0  0  0  0999 V2000
  140.9470   72.6390  220.8970 O   0  0  0  0  0  0  0  0  0  0  0  0
  140.2850   72.9640  221.9420 C   0  0  0  0  0  0  0  0  0  0  0  0
  139.6710   74.2590  222.0520 N   0  0  0  0  0  0  0  0  0  0  0  0
  139.7710   75.2540  221.0250 C   0  0  0  0  0  0  0  0  0  0  0  0
  141.0810   75.6990  220.5960 C   0  0  0  0  0  0  0  0  0  0  0  0
  142.0730   75.1790  221.2460 O   0  0  0  0  0  0  0  0  0  0  0  0
  141.4340   76.6130  219.5720 N   0  0  0  0  0  0  0  0  0  0  0  0
  141.2900   76.4840  218.1150 C   0  0  0  0  0  0  0  0  0  0  0  0
  142.3660   77.4640  217.5820 C   0  0  0  0  0  0  0  0  0  0  0  0
  142.0410   78.6180  218.5460 C   0  0  0  0  0  0  0  0  0  0  0  0
  142.0480   77.8980  219.8580 C   0  0  1  0  0  0  0  0  0  0  0  0
  141.3960   78.6350  220.9580 C   0  0  0  0  0  0  0  0  0  0  0  0
  140.0700   78.9330  220.9910 C   0  0  0  0  0  0  0  0  0  0  0  0
  139.5380   79.6270  222.0580 C   0  0  0  0  0  0  0  0  0  0  0  0
  140.3040   80.0500  223.1320 C   0  0  0  0  0  0  0  0  0  0  0  0
  139.7930   80.7290  224.1830 F   0  0  0  0  0  0  0  0  0  0  0  0
  141.6480   79.7470  223.1000 C   0  0  0  0  0  0  0  0  0  0  0  0
  142.1750   79.0560  222.0360 C   0  0  0  0  0  0  0  0  0  0  0  0
  140.1650   71.9930  223.0200 C   0  0  0  0  0  0  0  0  0  0  0  0
  139.5240   70.7910  222.8140 C   0  0  0  0  0  0  0  0  0  0  0  0
  139.3920   69.8420  223.8190 C   0  0  0  0  0  0  0  0  0  0  0  0
  139.9260   70.1320  225.0550 C   0  0  0  0  0  0  0  0  0  0  0  0
  139.8550   69.2660  226.1290 C   0  0  0  0  0  0  0  0  0  0  0  0
  140.4040   69.5940  227.3570 C   0  0  0  0  0  0  0  0  0  0  0  0
  140.3170   68.5010  228.7200 Cl  0  0  0  0  0  0  0  0  0  0  0  0
  141.0390   70.8060  227.5270 C   0  0  0  0  0  0  0  0  0  0  0  0
  141.1100   71.6810  226.4430 C   0  0  0  0  0  0  0  0  0  0  0  0
  140.5610   71.3500  225.2210 C   0  0  0  0  0  0  0  0  0  0  0  0
  140.6770   72.2560  224.2280 N   0  0  0  0  0  0  0  0  0  0  0  0
  139.1420   74.4040  222.9630 H   0  0  0  0  0  0  0  0  0  0  0  0
  139.2619   74.8513  220.1370 H   0  0  0  0  0  0  0  0  0  0  0  0
  139.3287   76.1498  221.4854 H   0  0  0  0  0  0  0  0  0  0  0  0
  141.4924   75.4542  217.7854 H   0  0  0  0  0  0  0  0  0  0  0  0
  140.2756   76.7086  217.7536 H   0  0  0  0  0  0  0  0  0  0  0  0
  143.3888   77.0803  217.7109 H   0  0  0  0  0  0  0  0  0  0  0  0
  142.3419   77.6924  216.5063 H   0  0  0  0  0  0  0  0  0  0  0  0
  142.8104   79.4034  218.5112 H   0  0  0  0  0  0  0  0  0  0  0  0
  141.1033   79.1478  218.3223 H   0  0  0  0  0  0  0  0  0  0  0  0
  143.0716   77.7852  220.2446 H   0  0  0  0  0  0  0  0  0  0  0  0
  139.4179   78.6191  220.1626 H   0  0  0  0  0  0  0  0  0  0  0  0
  138.4616   79.8537  222.0559 H   0  0  0  0  0  0  0  0  0  0  0  0
  142.3006   80.0593  223.9286 H   0  0  0  0  0  0  0  0  0  0  0  0
  143.2507   78.8262  222.0340 H   0  0  0  0  0  0  0  0  0  0  0  0
  139.1030   70.5760  221.8208 H   0  0  0  0  0  0  0  0  0  0  0  0
  138.8768   68.8879  223.6337 H   0  0  0  0  0  0  0  0  0  0  0  0
  139.3518   68.2956  226.0060 H   0  0  0  0  0  0  0  0  0  0  0  0
  141.4805   71.0773  228.4973 H   0  0  0  0  0  0  0  0  0  0  0  0
  141.6125   72.6520  226.5644 H   0  0  0  0  0  0  0  0  0  0  0  0
  1  2  2  0
  2  3  1  0
  3  4  1  0
  4  5  1  0
  5  6  2  0
  5  7  1  0
  7  8  1  0
  8  9  1  0
  9 10  1  0
 10 11  1  0
 11 12  1  0
 12 13  2  0
 13 14  1  0
 14 15  2  0
 15 16  1  0
 15 17  1  0
 17 18  2  0
  2 19  1  0
 19 20  2  0
 20 21  1  0
 21 22  2  0
 22 23  1  0
 23 24  2  0
 24 25  1  0
 24 26  1  0
 26 27  2  0
 27 28  1  0
 28 29  2  0
 11  7  1  0
 18 12  1  0
 29 19  1  0
 28 22  1  0
  3 30  1  0
  4 31  1  0
  4 32  1  0
  8 33  1  0
  8 34  1  0
  9 35  1  0
  9 36  1  0
 10 37  1  0
 10 38  1  0
 11 39  1  1
 13 40  1  0
 14 41  1  0
 17 42  1  0
 18 43  1  0
 20 44  1  0
 21 45  1  0
 23 46  1  0
 26 47  1  0
 27 48  1  0
M  END
>  <smiles>  (76) 
O=C(NCC(=O)N1CCCC1c1ccc(F)cc1)c1ccc2cc(Cl)ccc2n1

>  <score_type>  (76) 
oracle

>  <origin>  (76) 
autodockgpu

>  <m_score__min__energy>  (76) 
-8.7400000000000002

>  <m_primary>  (76) 
energy

>  <rmsd>  (76) 
1.9348071040580688

>  <m_score__min__rmsd>  (76) 
1.9348071040580688

>  <meeko>  (76) 
{"free_energy": -8.04, "intermolecular_energy": -9.54, "internal_energy": -1.28, "cluster_size": 12, "cluster_id": 1, "rank_in_cluster": 6}

>  <energy>  (76) 
-8.21

>  <cluster_rmsd>  (76) 
0.31

>  <cluster>  (76) 
2

$$$$

     RDKit          3D

 48 51  0  0  0  0  0  0  0  0999 V2000
  140.6810   72.6010  220.8250 O   0  0  0  0  0  0  0  0  0  0  0  0
  140.1790   72.9580  221.9460 C   0  0  0  0  0  0  0  0  0  0  0  0
  139.6910   74.2960  222.1430 N   0  0  0  0  0  0  0  0  0  0  0  0
  139.7470   75.2980  221.1210 C   0  0  0  0  0  0  0  0  0  0  0  0
  141.0370   75.7960  220.6870 C   0  0  0  0  0  0  0  0  0  0  0  0
  142.0560   75.1420  221.1470 O   0  0  0  0  0  0  0  0  0  0  0  0
  141.3450   76.8850  219.8350 N   0  0  0  0  0  0  0  0  0  0  0  0
  141.2530   76.9810  218.3710 C   0  0  0  0  0  0  0  0  0  0  0  0
  142.2620   78.1100  218.0430 C   0  0  0  0  0  0  0  0  0  0  0  0
  141.8180   79.0690  219.1620 C   0  0  0  0  0  0  0  0  0  0  0  0
  141.8450   78.1510  220.3430 C   0  0  1  0  0  0  0  0  0  0  0  0
  141.1060   78.6510  221.5190 C   0  0  0  0  0  0  0  0  0  0  0  0
  141.6880   78.9440  222.7120 C   0  0  0  0  0  0  0  0  0  0  0  0
  140.9250   79.4080  223.7640 C   0  0  0  0  0  0  0  0  0  0  0  0
  139.5570   79.5970  223.6690 C   0  0  0  0  0  0  0  0  0  0  0  0
  138.8000   80.0510  224.6930 F   0  0  0  0  0  0  0  0  0  0  0  0
  138.9660   79.3010  222.4590 C   0  0  0  0  0  0  0  0  0  0  0  0
  139.7280   78.8400  221.4140 C   0  0  0  0  0  0  0  0  0  0  0  0
  140.1120   71.9790  223.0210 C   0  0  0  0  0  0  0  0  0  0  0  0
  139.5330   70.7460  222.8130 C   0  0  0  0  0  0  0  0  0  0  0  0
  139.4510   69.7880  223.8150 C   0  0  0  0  0  0  0  0  0  0  0  0
  139.9730   70.1020  225.0520 C   0  0  0  0  0  0  0  0  0  0  0  0
  139.9490   69.2300  226.1230 C   0  0  0  0  0  0  0  0  0  0  0  0
  140.4830   69.5820  227.3510 C   0  0  0  0  0  0  0  0  0  0  0  0
  140.4550   68.4820  228.7110 Cl  0  0  0  0  0  0  0  0  0  0  0  0
  141.0550   70.8250  227.5230 C   0  0  0  0  0  0  0  0  0  0  0  0
  141.0790   71.7050  226.4420 C   0  0  0  0  0  0  0  0  0  0  0  0
  140.5450   71.3510  225.2200 C   0  0  0  0  0  0  0  0  0  0  0  0
  140.6120   72.2640  224.2300 N   0  0  0  0  0  0  0  0  0  0  0  0
  139.2900   74.4650  223.1130 H   0  0  0  0  0  0  0  0  0  0  0  0
  139.2492   74.8798  220.2337 H   0  0  0  0  0  0  0  0  0  0  0  0
  139.2729   76.1738  221.5881 H   0  0  0  0  0  0  0  0  0  0  0  0
  141.5457   76.0351  217.8918 H   0  0  0  0  0  0  0  0  0  0  0  0
  140.2346   77.1852  218.0088 H   0  0  0  0  0  0  0  0  0  0  0  0
  143.3080   77.7876  218.1523 H   0  0  0  0  0  0  0  0  0  0  0  0
  142.2509   78.5044  217.0162 H   0  0  0  0  0  0  0  0  0  0  0  0
  142.5228   79.9049  219.2825 H   0  0  0  0  0  0  0  0  0  0  0  0
  140.8481   79.5572  218.9860 H   0  0  0  0  0  0  0  0  0  0  0  0
  142.8636   78.0554  220.7472 H   0  0  0  0  0  0  0  0  0  0  0  0
  142.7724   78.8106  222.8394 H   0  0  0  0  0  0  0  0  0  0  0  0
  141.4243   79.6370  224.7170 H   0  0  0  0  0  0  0  0  0  0  0  0
  137.8817   79.4345  222.3306 H   0  0  0  0  0  0  0  0  0  0  0  0
  139.2334   78.6112  220.4585 H   0  0  0  0  0  0  0  0  0  0  0  0
  139.1219   70.5127  221.8198 H   0  0  0  0  0  0  0  0  0  0  0  0
  138.9844   68.8096  223.6278 H   0  0  0  0  0  0  0  0  0  0  0  0
  139.4963   68.2354  225.9977 H   0  0  0  0  0  0  0  0  0  0  0  0
  141.4836   71.1162  228.4933 H   0  0  0  0  0  0  0  0  0  0  0  0
  141.5319   72.6998  226.5655 H   0  0  0  0  0  0  0  0  0  0  0  0
  1  2  2  0
  2  3  1  0
  3  4  1  0
  4  5  1  0
  5  6  2  0
  5  7  1  0
  7  8  1  0
  8  9  1  0
  9 10  1  0
 10 11  1  0
 11 12  1  0
 12 13  2  0
 13 14  1  0
 14 15  2  0
 15 16  1  0
 15 17  1  0
 17 18  2  0
  2 19  1  0
 19 20  2  0
 20 21  1  0
 21 22  2  0
 22 23  1  0
 23 24  2  0
 24 25  1  0
 24 26  1  0
 26 27  2  0
 27 28  1  0
 28 29  2  0
 11  7  1  0
 18 12  1  0
 29 19  1  0
 28 22  1  0
  3 30  1  0
  4 31  1  0
  4 32  1  0
  8 33  1  0
  8 34  1  0
  9 35  1  0
  9 36  1  0
 10 37  1  0
 10 38  1  0
 11 39  1  1
 13 40  1  0
 14 41  1  0
 17 42  1  0
 18 43  1  0
 20 44  1  0
 21 45  1  0
 23 46  1  0
 26 47  1  0
 27 48  1  0
M  END
>  <smiles>  (77) 
O=C(NCC(=O)N1CCCC1c1ccc(F)cc1)c1ccc2cc(Cl)ccc2n1

>  <score_type>  (77) 
oracle

>  <origin>  (77) 
autodockgpu

>  <m_score__min__energy>  (77) 
-8.7400000000000002

>  <m_primary>  (77) 
energy

>  <rmsd>  (77) 
2.0401843009774874

>  <m_score__min__rmsd>  (77) 
2.0401843009774874

>  <meeko>  (77) 
{"free_energy": -8.21, "intermolecular_energy": -9.7, "internal_energy": -1.34, "cluster_size": 12, "cluster_id": 1, "rank_in_cluster": 3}

>  <energy>  (77) 
-8.19

>  <cluster_rmsd>  (77) 
0.62

>  <cluster>  (77) 
2

$$$$

     RDKit          3D

 48 51  0  0  0  0  0  0  0  0999 V2000
  133.8160   69.3120  226.4740 O   0  0  0  0  0  0  0  0  0  0  0  0
  134.3130   70.4150  226.0560 C   0  0  0  0  0  0  0  0  0  0  0  0
  135.4800   70.4260  225.2170 N   0  0  0  0  0  0  0  0  0  0  0  0
  136.1560   69.2280  224.8150 C   0  0  0  0  0  0  0  0  0  0  0  0
  137.2640   69.3190  223.8850 C   0  0  0  0  0  0  0  0  0  0  0  0
  137.4100   68.2910  223.1110 O   0  0  0  0  0  0  0  0  0  0  0  0
  138.2020   70.3640  223.6970 N   0  0  0  0  0  0  0  0  0  0  0  0
  138.0060   71.7050  223.1290 C   0  0  0  0  0  0  0  0  0  0  0  0
  139.4310   72.0810  222.6520 C   0  0  0  0  0  0  0  0  0  0  0  0
  140.1680   71.6010  223.9140 C   0  0  0  0  0  0  0  0  0  0  0  0
  139.6010   70.2250  224.0630 C   0  0  1  0  0  0  0  0  0  0  0  0
  139.8090   69.6230  225.3940 C   0  0  0  0  0  0  0  0  0  0  0  0
  139.7980   68.2840  225.6310 C   0  0  0  0  0  0  0  0  0  0  0  0
  140.0000   67.8000  226.9070 C   0  0  0  0  0  0  0  0  0  0  0  0
  140.2200   68.6290  227.9950 C   0  0  0  0  0  0  0  0  0  0  0  0
  140.4200   68.1660  229.2490 F   0  0  0  0  0  0  0  0  0  0  0  0
  140.2320   69.9870  227.7560 C   0  0  0  0  0  0  0  0  0  0  0  0
  140.0300   70.4640  226.4840 C   0  0  0  0  0  0  0  0  0  0  0  0
  133.6700   71.6610  226.4480 C   0  0  0  0  0  0  0  0  0  0  0  0
  132.4990   71.6490  227.1750 C   0  0  0  0  0  0  0  0  0  0  0  0
  131.8590   72.8170  227.5660 C   0  0  0  0  0  0  0  0  0  0  0  0
  132.4310   74.0180  227.2040 C   0  0  0  0  0  0  0  0  0  0  0  0
  131.8850   75.2420  227.5360 C   0  0  0  0  0  0  0  0  0  0  0  0
  132.4880   76.4290  227.1530 C   0  0  0  0  0  0  0  0  0  0  0  0
  131.8000   77.9820  227.5700 Cl  0  0  0  0  0  0  0  0  0  0  0  0
  133.6590   76.4030  226.4260 C   0  0  0  0  0  0  0  0  0  0  0  0
  134.2110   75.1670  226.0900 C   0  0  0  0  0  0  0  0  0  0  0  0
  133.6050   73.9870  226.4730 C   0  0  0  0  0  0  0  0  0  0  0  0
  134.2080   72.8370  226.1060 N   0  0  0  0  0  0  0  0  0  0  0  0
  135.7880   71.4010  224.9290 H   0  0  0  0  0  0  0  0  0  0  0  0
  136.5423   68.7547  225.7297 H   0  0  0  0  0  0  0  0  0  0  0  0
  135.3901   68.6708  224.2555 H   0  0  0  0  0  0  0  0  0  0  0  0
  137.2989   71.6801  222.2867 H   0  0  0  0  0  0  0  0  0  0  0  0
  137.5794   72.4247  223.8431 H   0  0  0  0  0  0  0  0  0  0  0  0
  139.7343   71.5299  221.7496 H   0  0  0  0  0  0  0  0  0  0  0  0
  139.5943   73.1253  222.3474 H   0  0  0  0  0  0  0  0  0  0  0  0
  141.2571   71.5758  223.7619 H   0  0  0  0  0  0  0  0  0  0  0  0
  140.0329   72.2471  224.7939 H   0  0  0  0  0  0  0  0  0  0  0  0
  140.1238   69.5077  223.4132 H   0  0  0  0  0  0  0  0  0  0  0  0
  139.6271   67.5829  224.8007 H   0  0  0  0  0  0  0  0  0  0  0  0
  139.9858   66.7118  227.0670 H   0  0  0  0  0  0  0  0  0  0  0  0
  140.4036   70.6892  228.5852 H   0  0  0  0  0  0  0  0  0  0  0  0
  140.0431   71.5514  226.3188 H   0  0  0  0  0  0  0  0  0  0  0  0
  132.0569   70.6814  227.4547 H   0  0  0  0  0  0  0  0  0  0  0  0
  130.9250   72.7854  228.1463 H   0  0  0  0  0  0  0  0  0  0  0  0
  130.9515   75.2753  228.1169 H   0  0  0  0  0  0  0  0  0  0  0  0
  134.1483   77.3385  226.1170 H   0  0  0  0  0  0  0  0  0  0  0  0
  135.1450   75.1317  225.5100 H   0  0  0  0  0  0  0  0  0  0  0  0
  1  2  2  0
  2  3  1  0
  3  4  1  0
  4  5  1  0
  5  6  2  0
  5  7  1  0
  7  8  1  0
  8  9  1  0
  9 10  1  0
 10 11  1  0
 11 12  1  0
 12 13  2  0
 13 14  1  0
 14 15  2  0
 15 16  1  0
 15 17  1  0
 17 18  2  0
  2 19  1  0
 19 20  2  0
 20 21  1  0
 21 22  2  0
 22 23  1  0
 23 24  2  0
 24 25  1  0
 24 26  1  0
 26 27  2  0
 27 28  1  0
 28 29  2  0
 11  7  1  0
 18 12  1  0
 29 19  1  0
 28 22  1  0
  3 30  1  0
  4 31  1  0
  4 32  1  0
  8 33  1  0
  8 34  1  0
  9 35  1  0
  9 36  1  0
 10 37  1  0
 10 38  1  0
 11 39  1  6
 13 40  1  0
 14 41  1  0
 17 42  1  0
 18 43  1  0
 20 44  1  0
 21 45  1  0
 23 46  1  0
 26 47  1  0
 27 48  1  0
M  END
>  <smiles>  (78) 
O=C(NCC(=O)N1CCCC1c1ccc(F)cc1)c1ccc2cc(Cl)ccc2n1

>  <score_type>  (78) 
oracle

>  <origin>  (78) 
autodockgpu

>  <m_score__min__energy>  (78) 
-8.7400000000000002

>  <m_primary>  (78) 
energy

>  <rmsd>  (78) 
7.806006085749361

>  <m_score__min__rmsd>  (78) 
7.806006085749361

>  <meeko>  (78) 
{"free_energy": -8.3, "intermolecular_energy": -9.79, "internal_energy": -1.63, "cluster_size": 19, "cluster_id": 2, "rank_in_cluster": 7}

>  <energy>  (78) 
-8.19

>  <cluster_rmsd>  (78) 
0.45

>  <cluster>  (78) 
2

$$$$

     RDKit          3D

 48 51  0  0  0  0  0  0  0  0999 V2000
  133.8790   69.2870  226.4660 O   0  0  0  0  0  0  0  0  0  0  0  0
  134.3290   70.3890  225.9980 C   0  0  0  0  0  0  0  0  0  0  0  0
  135.4360   70.4020  225.0810 N   0  0  0  0  0  0  0  0  0  0  0  0
  136.1010   69.2080  224.6520 C   0  0  0  0  0  0  0  0  0  0  0  0
  137.4790   69.2850  224.2100 C   0  0  0  0  0  0  0  0  0  0  0  0
  138.1170   68.1570  224.2170 O   0  0  0  0  0  0  0  0  0  0  0  0
  138.2250   70.4060  223.7690 N   0  0  0  0  0  0  0  0  0  0  0  0
  137.7630   71.6350  223.1100 C   0  0  0  0  0  0  0  0  0  0  0  0
  139.0360   72.1210  222.3720 C   0  0  0  0  0  0  0  0  0  0  0  0
  140.0110   71.8890  223.5400 C   0  0  0  0  0  0  0  0  0  0  0  0
  139.6690   70.4820  223.9150 C   0  0  1  0  0  0  0  0  0  0  0  0
  140.1530   70.0730  225.2470 C   0  0  0  0  0  0  0  0  0  0  0  0
  140.4150   68.7850  225.5970 C   0  0  0  0  0  0  0  0  0  0  0  0
  140.8650   68.4860  226.8670 C   0  0  0  0  0  0  0  0  0  0  0  0
  141.0700   69.4540  227.8350 C   0  0  0  0  0  0  0  0  0  0  0  0
  141.5110   69.1730  229.0810 F   0  0  0  0  0  0  0  0  0  0  0  0
  140.8050   70.7600  227.4820 C   0  0  0  0  0  0  0  0  0  0  0  0
  140.3570   71.0550  226.2170 C   0  0  0  0  0  0  0  0  0  0  0  0
  133.6960   71.6320  226.4130 C   0  0  0  0  0  0  0  0  0  0  0  0
  132.5340   71.6150  227.1540 C   0  0  0  0  0  0  0  0  0  0  0  0
  131.9030   72.7810  227.5670 C   0  0  0  0  0  0  0  0  0  0  0  0
  132.4750   73.9840  227.2140 C   0  0  0  0  0  0  0  0  0  0  0  0
  131.9370   75.2060  227.5680 C   0  0  0  0  0  0  0  0  0  0  0  0
  132.5410   76.3950  227.1940 C   0  0  0  0  0  0  0  0  0  0  0  0
  131.8640   77.9450  227.6400 Cl  0  0  0  0  0  0  0  0  0  0  0  0
  133.7040   76.3740  226.4540 C   0  0  0  0  0  0  0  0  0  0  0  0
  134.2460   75.1400  226.0960 C   0  0  0  0  0  0  0  0  0  0  0  0
  133.6410   73.9580  226.4700 C   0  0  0  0  0  0  0  0  0  0  0  0
  134.2350   72.8110  226.0810 N   0  0  0  0  0  0  0  0  0  0  0  0
  135.7090   71.3780  224.7570 H   0  0  0  0  0  0  0  0  0  0  0  0
  136.0735   68.5039  225.4967 H   0  0  0  0  0  0  0  0  0  0  0  0
  135.5519   68.9147  223.7451 H   0  0  0  0  0  0  0  0  0  0  0  0
  136.9491   71.4236  222.4009 H   0  0  0  0  0  0  0  0  0  0  0  0
  137.3514   72.3782  223.8087 H   0  0  0  0  0  0  0  0  0  0  0  0
  139.2758   71.5061  221.4920 H   0  0  0  0  0  0  0  0  0  0  0  0
  139.0063   73.1329  221.9417 H   0  0  0  0  0  0  0  0  0  0  0  0
  141.0586   71.9786  223.2168 H   0  0  0  0  0  0  0  0  0  0  0  0
  139.9186   72.6147  224.3615 H   0  0  0  0  0  0  0  0  0  0  0  0
  140.1845   69.7608  223.2637 H   0  0  0  0  0  0  0  0  0  0  0  0
  140.2675   67.9779  224.8644 H   0  0  0  0  0  0  0  0  0  0  0  0
  141.0692   67.4352  227.1204 H   0  0  0  0  0  0  0  0  0  0  0  0
  140.9525   71.5674  228.2144 H   0  0  0  0  0  0  0  0  0  0  0  0
  140.1515   72.1045  225.9594 H   0  0  0  0  0  0  0  0  0  0  0  0
  132.0918   70.6456  227.4273 H   0  0  0  0  0  0  0  0  0  0  0  0
  130.9756   72.7455  228.1575 H   0  0  0  0  0  0  0  0  0  0  0  0
  131.0098   75.2354  228.1591 H   0  0  0  0  0  0  0  0  0  0  0  0
  134.1943   77.3113  226.1522 H   0  0  0  0  0  0  0  0  0  0  0  0
  135.1729   75.1086  225.5045 H   0  0  0  0  0  0  0  0  0  0  0  0
  1  2  2  0
  2  3  1  0
  3  4  1  0
  4  5  1  0
  5  6  2  0
  5  7  1  0
  7  8  1  0
  8  9  1  0
  9 10  1  0
 10 11  1  0
 11 12  1  0
 12 13  2  0
 13 14  1  0
 14 15  2  0
 15 16  1  0
 15 17  1  0
 17 18  2  0
  2 19  1  0
 19 20  2  0
 20 21  1  0
 21 22  2  0
 22 23  1  0
 23 24  2  0
 24 25  1  0
 24 26  1  0
 26 27  2  0
 27 28  1  0
 28 29  2  0
 11  7  1  0
 18 12  1  0
 29 19  1  0
 28 22  1  0
  3 30  1  0
  4 31  1  0
  4 32  1  0
  8 33  1  0
  8 34  1  0
  9 35  1  0
  9 36  1  0
 10 37  1  0
 10 38  1  0
 11 39  1  6
 13 40  1  0
 14 41  1  0
 17 42  1  0
 18 43  1  0
 20 44  1  0
 21 45  1  0
 23 46  1  0
 26 47  1  0
 27 48  1  0
M  END
>  <smiles>  (79) 
O=C(NCC(=O)N1CCCC1c1ccc(F)cc1)c1ccc2cc(Cl)ccc2n1

>  <score_type>  (79) 
oracle

>  <origin>  (79) 
autodockgpu

>  <m_score__min__energy>  (79) 
-8.7400000000000002

>  <m_primary>  (79) 
energy

>  <rmsd>  (79) 
7.6961170210295915

>  <m_score__min__rmsd>  (79) 
7.6961170210295915

>  <meeko>  (79) 
{"free_energy": -8.36, "intermolecular_energy": -9.85, "internal_energy": -1.48, "cluster_size": 19, "cluster_id": 2, "rank_in_cluster": 6}

>  <energy>  (79) 
-8.18

>  <cluster_rmsd>  (79) 
0.34

>  <cluster>  (79) 
2

$$$$

     RDKit          3D

 48 51  0  0  0  0  0  0  0  0999 V2000
  132.8380   69.8200  226.4850 O   0  0  0  0  0  0  0  0  0  0  0  0
  133.5860   70.8470  226.3320 C   0  0  0  0  0  0  0  0  0  0  0  0
  134.8940   70.7240  225.7490 N   0  0  0  0  0  0  0  0  0  0  0  0
  135.4380   69.4690  225.3240 C   0  0  0  0  0  0  0  0  0  0  0  0
  136.3750   69.4420  224.2180 C   0  0  0  0  0  0  0  0  0  0  0  0
  136.3460   68.3600  223.5070 O   0  0  0  0  0  0  0  0  0  0  0  0
  137.3080   70.4220  223.8000 N   0  0  0  0  0  0  0  0  0  0  0  0
  137.0720   71.7860  223.3040 C   0  0  0  0  0  0  0  0  0  0  0  0
  138.3530   72.0710  222.4810 C   0  0  0  0  0  0  0  0  0  0  0  0
  139.3490   71.5150  223.5130 C   0  0  0  0  0  0  0  0  0  0  0  0
  138.7400   70.1780  223.7980 C   0  0  1  0  0  0  0  0  0  0  0  0
  139.2340   69.5360  225.0310 C   0  0  0  0  0  0  0  0  0  0  0  0
  139.2380   68.1920  225.2360 C   0  0  0  0  0  0  0  0  0  0  0  0
  139.7180   67.6690  226.4200 C   0  0  0  0  0  0  0  0  0  0  0  0
  140.2100   68.4620  227.4430 C   0  0  0  0  0  0  0  0  0  0  0  0
  140.6820   67.9610  228.6060 F   0  0  0  0  0  0  0  0  0  0  0  0
  140.2060   69.8250  227.2360 C   0  0  0  0  0  0  0  0  0  0  0  0
  139.7280   70.3420  226.0560 C   0  0  0  0  0  0  0  0  0  0  0  0
  133.0830   72.1440  226.7600 C   0  0  0  0  0  0  0  0  0  0  0  0
  131.9270   72.2390  227.5040 C   0  0  0  0  0  0  0  0  0  0  0  0
  131.4190   73.4590  227.9290 C   0  0  0  0  0  0  0  0  0  0  0  0
  132.1100   74.6010  227.5860 C   0  0  0  0  0  0  0  0  0  0  0  0
  131.7010   75.8680  227.9520 C   0  0  0  0  0  0  0  0  0  0  0  0
  132.4230   76.9930  227.5870 C   0  0  0  0  0  0  0  0  0  0  0  0
  131.9090   78.6000  228.0490 Cl  0  0  0  0  0  0  0  0  0  0  0  0
  133.5760   76.8600  226.8430 C   0  0  0  0  0  0  0  0  0  0  0  0
  133.9890   75.5810  226.4730 C   0  0  0  0  0  0  0  0  0  0  0  0
  133.2660   74.4630  226.8380 C   0  0  0  0  0  0  0  0  0  0  0  0
  133.7390   73.2650  226.4370 N   0  0  0  0  0  0  0  0  0  0  0  0
  135.4120   71.6490  225.6670 H   0  0  0  0  0  0  0  0  0  0  0  0
  135.9529   69.0315  226.1921 H   0  0  0  0  0  0  0  0  0  0  0  0
  134.5643   68.9220  224.9399 H   0  0  0  0  0  0  0  0  0  0  0  0
  136.1745   71.8283  222.6695 H   0  0  0  0  0  0  0  0  0  0  0  0
  136.8938   72.5187  224.1049 H   0  0  0  0  0  0  0  0  0  0  0  0
  138.3765   71.5186  221.5301 H   0  0  0  0  0  0  0  0  0  0  0  0
  138.5094   73.1073  222.1469 H   0  0  0  0  0  0  0  0  0  0  0  0
  140.3593   71.4176  223.0889 H   0  0  0  0  0  0  0  0  0  0  0  0
  139.4883   72.1505  224.4000 H   0  0  0  0  0  0  0  0  0  0  0  0
  139.0278   69.4395  223.0353 H   0  0  0  0  0  0  0  0  0  0  0  0
  138.8569   67.5180  224.4546 H   0  0  0  0  0  0  0  0  0  0  0  0
  139.7093   66.5775  226.5564 H   0  0  0  0  0  0  0  0  0  0  0  0
  140.5862   70.5000  228.0170 H   0  0  0  0  0  0  0  0  0  0  0  0
  139.7353   71.4329  225.9147 H   0  0  0  0  0  0  0  0  0  0  0  0
  131.3888   71.3173  227.7700 H   0  0  0  0  0  0  0  0  0  0  0  0
  130.4936   73.5126  228.5212 H   0  0  0  0  0  0  0  0  0  0  0  0
  130.7827   75.9868  228.5458 H   0  0  0  0  0  0  0  0  0  0  0  0
  134.1583   77.7452  226.5473 H   0  0  0  0  0  0  0  0  0  0  0  0
  134.9074   75.4604  225.8796 H   0  0  0  0  0  0  0  0  0  0  0  0
  1  2  2  0
  2  3  1  0
  3  4  1  0
  4  5  1  0
  5  6  2  0
  5  7  1  0
  7  8  1  0
  8  9  1  0
  9 10  1  0
 10 11  1  0
 11 12  1  0
 12 13  2  0
 13 14  1  0
 14 15  2  0
 15 16  1  0
 15 17  1  0
 17 18  2  0
  2 19  1  0
 19 20  2  0
 20 21  1  0
 21 22  2  0
 22 23  1  0
 23 24  2  0
 24 25  1  0
 24 26  1  0
 26 27  2  0
 27 28  1  0
 28 29  2  0
 11  7  1  0
 18 12  1  0
 29 19  1  0
 28 22  1  0
  3 30  1  0
  4 31  1  0
  4 32  1  0
  8 33  1  0
  8 34  1  0
  9 35  1  0
  9 36  1  0
 10 37  1  0
 10 38  1  0
 11 39  1  6
 13 40  1  0
 14 41  1  0
 17 42  1  0
 18 43  1  0
 20 44  1  0
 21 45  1  0
 23 46  1  0
 26 47  1  0
 27 48  1  0
M  END
>  <smiles>  (80) 
O=C(NCC(=O)N1CCCC1c1ccc(F)cc1)c1ccc2cc(Cl)ccc2n1

>  <score_type>  (80) 
oracle

>  <origin>  (80) 
autodockgpu

>  <m_score__min__energy>  (80) 
-8.7400000000000002

>  <m_primary>  (80) 
energy

>  <rmsd>  (80) 
8.21578201580301

>  <m_score__min__rmsd>  (80) 
8.21578201580301

>  <meeko>  (80) 
{"free_energy": -7.93, "intermolecular_energy": -9.42, "internal_energy": -1.59, "cluster_size": 19, "cluster_id": 2, "rank_in_cluster": 18}

>  <energy>  (80) 
-7.93

>  <cluster_rmsd>  (80) 
1.05

>  <cluster>  (80) 
2

$$$$

     RDKit          3D

 48 51  0  0  0  0  0  0  0  0999 V2000
  133.9530   69.2530  226.5040 O   0  0  0  0  0  0  0  0  0  0  0  0
  134.4220   70.3700  226.0940 C   0  0  0  0  0  0  0  0  0  0  0  0
  135.6130   70.4180  225.2910 N   0  0  0  0  0  0  0  0  0  0  0  0
  136.3450   69.2430  224.9190 C   0  0  0  0  0  0  0  0  0  0  0  0
  137.3160   69.3240  223.8460 C   0  0  0  0  0  0  0  0  0  0  0  0
  137.2900   68.3330  223.0120 O   0  0  0  0  0  0  0  0  0  0  0  0
  138.2810   70.3260  223.5740 N   0  0  0  0  0  0  0  0  0  0  0  0
  138.1210   71.6160  222.8900 C   0  0  0  0  0  0  0  0  0  0  0  0
  139.5570   71.9140  222.3920 C   0  0  0  0  0  0  0  0  0  0  0  0
  140.2750   71.5300  223.6970 C   0  0  0  0  0  0  0  0  0  0  0  0
  139.6740   70.1850  223.9620 C   0  0  1  0  0  0  0  0  0  0  0  0
  139.8590   69.6970  225.3420 C   0  0  0  0  0  0  0  0  0  0  0  0
  140.0380   70.5110  226.4160 C   0  0  0  0  0  0  0  0  0  0  0  0
  140.2050   69.9750  227.6770 C   0  0  0  0  0  0  0  0  0  0  0  0
  140.2010   68.6110  227.9160 C   0  0  0  0  0  0  0  0  0  0  0  0
  140.3640   68.0750  229.1460 F   0  0  0  0  0  0  0  0  0  0  0  0
  140.0200   67.7850  226.8270 C   0  0  0  0  0  0  0  0  0  0  0  0
  139.8530   68.3220  225.5740 C   0  0  0  0  0  0  0  0  0  0  0  0
  133.7220   71.5940  226.4560 C   0  0  0  0  0  0  0  0  0  0  0  0
  132.5210   71.5430  227.1300 C   0  0  0  0  0  0  0  0  0  0  0  0
  131.8270   72.6900  227.4910 C   0  0  0  0  0  0  0  0  0  0  0  0
  132.3750   73.9090  227.1550 C   0  0  0  0  0  0  0  0  0  0  0  0
  131.7760   75.1150  227.4620 C   0  0  0  0  0  0  0  0  0  0  0  0
  132.3570   76.3200  227.1070 C   0  0  0  0  0  0  0  0  0  0  0  0
  131.6020   77.8500  227.4930 Cl  0  0  0  0  0  0  0  0  0  0  0  0
  133.5600   76.3330  226.4340 C   0  0  0  0  0  0  0  0  0  0  0  0
  134.1660   75.1160  226.1240 C   0  0  0  0  0  0  0  0  0  0  0  0
  133.5820   73.9170  226.4790 C   0  0  0  0  0  0  0  0  0  0  0  0
  134.2380   72.7880  226.1390 N   0  0  0  0  0  0  0  0  0  0  0  0
  135.8950   71.4020  225.0060 H   0  0  0  0  0  0  0  0  0  0  0  0
  136.8845   68.9034  225.8155 H   0  0  0  0  0  0  0  0  0  0  0  0
  135.5721   68.5687  224.5215 H   0  0  0  0  0  0  0  0  0  0  0  0
  137.4176   71.5347  222.0482 H   0  0  0  0  0  0  0  0  0  0  0  0
  137.7088   72.4056  223.5355 H   0  0  0  0  0  0  0  0  0  0  0  0
  139.8514   71.2781  221.5441 H   0  0  0  0  0  0  0  0  0  0  0  0
  139.7476   72.9229  221.9973 H   0  0  0  0  0  0  0  0  0  0  0  0
  141.3641   71.4662  223.5563 H   0  0  0  0  0  0  0  0  0  0  0  0
  140.1503   72.2540  224.5157 H   0  0  0  0  0  0  0  0  0  0  0  0
  140.1833   69.4009  223.3826 H   0  0  0  0  0  0  0  0  0  0  0  0
  140.0498   71.6024  226.2794 H   0  0  0  0  0  0  0  0  0  0  0  0
  140.3470   70.6591  228.5266 H   0  0  0  0  0  0  0  0  0  0  0  0
  140.0093   66.6934  226.9620 H   0  0  0  0  0  0  0  0  0  0  0  0
  139.7091   67.6419  224.7215 H   0  0  0  0  0  0  0  0  0  0  0  0
  132.0984   70.5614  227.3905 H   0  0  0  0  0  0  0  0  0  0  0  0
  130.8693   72.6277  228.0286 H   0  0  0  0  0  0  0  0  0  0  0  0
  130.8167   75.1179  228.0002 H   0  0  0  0  0  0  0  0  0  0  0  0
  134.0323   77.2842  226.1473 H   0  0  0  0  0  0  0  0  0  0  0  0
  135.1261   75.1115  225.5872 H   0  0  0  0  0  0  0  0  0  0  0  0
  1  2  2  0
  2  3  1  0
  3  4  1  0
  4  5  1  0
  5  6  2  0
  5  7  1  0
  7  8  1  0
  8  9  1  0
  9 10  1  0
 10 11  1  0
 11 12  1  0
 12 13  2  0
 13 14  1  0
 14 15  2  0
 15 16  1  0
 15 17  1  0
 17 18  2  0
  2 19  1  0
 19 20  2  0
 20 21  1  0
 21 22  2  0
 22 23  1  0
 23 24  2  0
 24 25  1  0
 24 26  1  0
 26 27  2  0
 27 28  1  0
 28 29  2  0
 11  7  1  0
 18 12  1  0
 29 19  1  0
 28 22  1  0
  3 30  1  0
  4 31  1  0
  4 32  1  0
  8 33  1  0
  8 34  1  0
  9 35  1  0
  9 36  1  0
 10 37  1  0
 10 38  1  0
 11 39  1  6
 13 40  1  0
 14 41  1  0
 17 42  1  0
 18 43  1  0
 20 44  1  0
 21 45  1  0
 23 46  1  0
 26 47  1  0
 27 48  1  0
M  END
>  <smiles>  (81) 
O=C(NCC(=O)N1CCCC1c1ccc(F)cc1)c1ccc2cc(Cl)ccc2n1

>  <score_type>  (81) 
oracle

>  <origin>  (81) 
autodockgpu

>  <m_score__min__energy>  (81) 
-8.7400000000000002

>  <m_primary>  (81) 
energy

>  <rmsd>  (81) 
7.763835399203004

>  <m_score__min__rmsd>  (81) 
7.763835399203004

>  <meeko>  (81) 
{"free_energy": -8.19, "intermolecular_energy": -9.69, "internal_energy": -1.62, "cluster_size": 19, "cluster_id": 2, "rank_in_cluster": 15}

>  <energy>  (81) 
-7.56

>  <cluster_rmsd>  (81) 
1.73

>  <cluster>  (81) 
2

$$$$

     RDKit          3D

 48 51  0  0  0  0  0  0  0  0999 V2000
  134.1490   68.9210  226.1490 O   0  0  0  0  0  0  0  0  0  0  0  0
  134.5820   70.0600  225.7600 C   0  0  0  0  0  0  0  0  0  0  0  0
  135.7090   70.1550  224.8730 N   0  0  0  0  0  0  0  0  0  0  0  0
  136.4130   69.0060  224.3870 C   0  0  0  0  0  0  0  0  0  0  0  0
  137.8570   69.0530  224.2800 C   0  0  0  0  0  0  0  0  0  0  0  0
  138.4450   67.9010  224.3390 O   0  0  0  0  0  0  0  0  0  0  0  0
  138.7140   70.1690  224.1150 N   0  0  0  0  0  0  0  0  0  0  0  0
  138.4360   71.4810  223.5150 C   0  0  0  0  0  0  0  0  0  0  0  0
  139.8460   71.9660  223.0950 C   0  0  0  0  0  0  0  0  0  0  0  0
  140.5610   71.5670  224.3970 C   0  0  0  0  0  0  0  0  0  0  0  0
  140.1020   70.1500  224.5450 C   0  0  1  0  0  0  0  0  0  0  0  0
  140.2970   69.5860  225.8950 C   0  0  0  0  0  0  0  0  0  0  0  0
  140.0040   70.2510  227.0440 C   0  0  0  0  0  0  0  0  0  0  0  0
  140.2160   69.6520  228.2690 C   0  0  0  0  0  0  0  0  0  0  0  0
  140.7280   68.3720  228.3970 C   0  0  0  0  0  0  0  0  0  0  0  0
  140.9400   67.7750  229.5910 F   0  0  0  0  0  0  0  0  0  0  0  0
  141.0250   67.6960  227.2320 C   0  0  0  0  0  0  0  0  0  0  0  0
  140.8130   68.2960  226.0140 C   0  0  0  0  0  0  0  0  0  0  0  0
  133.9090   71.2600  226.2360 C   0  0  0  0  0  0  0  0  0  0  0  0
  132.7680   71.1680  227.0020 C   0  0  0  0  0  0  0  0  0  0  0  0
  132.1000   72.2910  227.4730 C   0  0  0  0  0  0  0  0  0  0  0  0
  132.6140   73.5290  227.1510 C   0  0  0  0  0  0  0  0  0  0  0  0
  132.0360   74.7140  227.5620 C   0  0  0  0  0  0  0  0  0  0  0  0
  132.5810   75.9400  227.2180 C   0  0  0  0  0  0  0  0  0  0  0  0
  131.8530   77.4430  227.7360 Cl  0  0  0  0  0  0  0  0  0  0  0  0
  133.7250   75.9940  226.4500 C   0  0  0  0  0  0  0  0  0  0  0  0
  134.3080   74.7970  226.0350 C   0  0  0  0  0  0  0  0  0  0  0  0
  133.7610   73.5780  226.3790 C   0  0  0  0  0  0  0  0  0  0  0  0
  134.3910   72.4720  225.9340 N   0  0  0  0  0  0  0  0  0  0  0  0
  135.9660   71.1550  224.6160 H   0  0  0  0  0  0  0  0  0  0  0  0
  136.1679   68.1710  225.0598 H   0  0  0  0  0  0  0  0  0  0  0  0
  136.0769   68.9162  223.3435 H   0  0  0  0  0  0  0  0  0  0  0  0
  137.7725   71.3862  222.6428 H   0  0  0  0  0  0  0  0  0  0  0  0
  137.9202   72.1734  224.1966 H   0  0  0  0  0  0  0  0  0  0  0  0
  140.2342   71.4285  222.2173 H   0  0  0  0  0  0  0  0  0  0  0  0
  139.9374   73.0156  222.7788 H   0  0  0  0  0  0  0  0  0  0  0  0
  141.6544   71.6299  224.2942 H   0  0  0  0  0  0  0  0  0  0  0  0
  140.3332   72.2122  225.2583 H   0  0  0  0  0  0  0  0  0  0  0  0
  140.7108   69.4690  223.9321 H   0  0  0  0  0  0  0  0  0  0  0  0
  139.5960   71.2714  226.9970 H   0  0  0  0  0  0  0  0  0  0  0  0
  139.9681   70.2146  229.1812 H   0  0  0  0  0  0  0  0  0  0  0  0
  141.4321   66.6751  227.2779 H   0  0  0  0  0  0  0  0  0  0  0  0
  141.0596   67.7378  225.0988 H   0  0  0  0  0  0  0  0  0  0  0  0
  132.3725   70.1717  227.2490 H   0  0  0  0  0  0  0  0  0  0  0  0
  131.1899   72.1956  228.0835 H   0  0  0  0  0  0  0  0  0  0  0  0
  131.1235   74.6835  228.1755 H   0  0  0  0  0  0  0  0  0  0  0  0
  134.1685   76.9611  226.1705 H   0  0  0  0  0  0  0  0  0  0  0  0
  135.2209   74.8253  225.4220 H   0  0  0  0  0  0  0  0  0  0  0  0
  1  2  2  0
  2  3  1  0
  3  4  1  0
  4  5  1  0
  5  6  2  0
  5  7  1  0
  7  8  1  0
  8  9  1  0
  9 10  1  0
 10 11  1  0
 11 12  1  0
 12 13  2  0
 13 14  1  0
 14 15  2  0
 15 16  1  0
 15 17  1  0
 17 18  2  0
  2 19  1  0
 19 20  2  0
 20 21  1  0
 21 22  2  0
 22 23  1  0
 23 24  2  0
 24 25  1  0
 24 26  1  0
 26 27  2  0
 27 28  1  0
 28 29  2  0
 11  7  1  0
 18 12  1  0
 29 19  1  0
 28 22  1  0
  3 30  1  0
  4 31  1  0
  4 32  1  0
  8 33  1  0
  8 34  1  0
  9 35  1  0
  9 36  1  0
 10 37  1  0
 10 38  1  0
 11 39  1  6
 13 40  1  0
 14 41  1  0
 17 42  1  0
 18 43  1  0
 20 44  1  0
 21 45  1  0
 23 46  1  0
 26 47  1  0
 27 48  1  0
M  END
>  <smiles>  (82) 
O=C(NCC(=O)N1CCCC1c1ccc(F)cc1)c1ccc2cc(Cl)ccc2n1

>  <score_type>  (82) 
oracle

>  <origin>  (82) 
autodockgpu

>  <m_score__min__energy>  (82) 
-8.7400000000000002

>  <m_primary>  (82) 
energy

>  <rmsd>  (82) 
7.695645846591641

>  <m_score__min__rmsd>  (82) 
7.695645846591641

>  <meeko>  (82) 
{"free_energy": -8.39, "intermolecular_energy": -9.88, "internal_energy": -1.61, "cluster_size": 19, "cluster_id": 2, "rank_in_cluster": 5}

>  <energy>  (82) 
-8.16

>  <cluster_rmsd>  (82) 
0.0

>  <cluster>  (82) 
3

$$$$

     RDKit          3D

 48 51  0  0  0  0  0  0  0  0999 V2000
  137.8990   71.2670  221.3860 O   0  0  0  0  0  0  0  0  0  0  0  0
  138.5830   71.7750  222.3410 C   0  0  0  0  0  0  0  0  0  0  0  0
  138.9270   73.1700  222.3400 N   0  0  0  0  0  0  0  0  0  0  0  0
  138.5460   74.0610  221.2850 C   0  0  0  0  0  0  0  0  0  0  0  0
  139.4440   74.2560  220.1650 C   0  0  0  0  0  0  0  0  0  0  0  0
  138.8710   74.6380  219.0670 O   0  0  0  0  0  0  0  0  0  0  0  0
  140.8500   74.0960  220.0950 N   0  0  0  0  0  0  0  0  0  0  0  0
  141.6540   73.2960  219.1610 C   0  0  0  0  0  0  0  0  0  0  0  0
  142.9610   73.0580  219.9590 C   0  0  0  0  0  0  0  0  0  0  0  0
  143.1170   74.5010  220.4680 C   0  0  0  0  0  0  0  0  0  0  0  0
  141.7520   74.7500  221.0280 C   0  0  1  0  0  0  0  0  0  0  0  0
  141.4390   76.1740  221.2550 C   0  0  0  0  0  0  0  0  0  0  0  0
  141.8190   77.1770  220.4200 C   0  0  0  0  0  0  0  0  0  0  0  0
  141.4860   78.4860  220.7050 C   0  0  0  0  0  0  0  0  0  0  0  0
  140.7640   78.8450  221.8310 C   0  0  0  0  0  0  0  0  0  0  0  0
  140.4320   80.1230  222.1200 F   0  0  0  0  0  0  0  0  0  0  0  0
  140.3770   77.8290  222.6780 C   0  0  0  0  0  0  0  0  0  0  0  0
  140.7100   76.5270  222.3910 C   0  0  0  0  0  0  0  0  0  0  0  0
  139.0050   70.9080  223.4320 C   0  0  0  0  0  0  0  0  0  0  0  0
  138.7870   69.5480  223.3730 C   0  0  0  0  0  0  0  0  0  0  0  0
  139.1770   68.6920  224.3940 C   0  0  0  0  0  0  0  0  0  0  0  0
  139.8000   69.2410  225.4940 C   0  0  0  0  0  0  0  0  0  0  0  0
  140.2310   68.4880  226.5690 C   0  0  0  0  0  0  0  0  0  0  0  0
  140.8530   69.0760  227.6580 C   0  0  0  0  0  0  0  0  0  0  0  0
  141.4010   68.1280  229.0220 Cl  0  0  0  0  0  0  0  0  0  0  0  0
  141.0550   70.4400  227.6830 C   0  0  0  0  0  0  0  0  0  0  0  0
  140.6200   71.2000  226.5970 C   0  0  0  0  0  0  0  0  0  0  0  0
  139.9990   70.6100  225.5150 C   0  0  0  0  0  0  0  0  0  0  0  0
  139.6120   71.4210  224.5090 N   0  0  0  0  0  0  0  0  0  0  0  0
  139.4870   73.4720  223.1920 H   0  0  0  0  0  0  0  0  0  0  0  0
  137.5971   73.6855  220.8744 H   0  0  0  0  0  0  0  0  0  0  0  0
  138.5184   75.0467  221.7726 H   0  0  0  0  0  0  0  0  0  0  0  0
  141.1558   72.3449  218.9220 H   0  0  0  0  0  0  0  0  0  0  0  0
  141.8169   73.7884  218.1909 H   0  0  0  0  0  0  0  0  0  0  0  0
  142.8320   72.3327  220.7759 H   0  0  0  0  0  0  0  0  0  0  0  0
  143.8107   72.6304  219.4066 H   0  0  0  0  0  0  0  0  0  0  0  0
  143.8927   74.5747  221.2444 H   0  0  0  0  0  0  0  0  0  0  0  0
  143.4330   75.2229  219.7006 H   0  0  0  0  0  0  0  0  0  0  0  0
  141.6584   74.3393  222.0441 H   0  0  0  0  0  0  0  0  0  0  0  0
  142.3950   76.9443  219.5122 H   0  0  0  0  0  0  0  0  0  0  0  0
  141.8070   79.2757  220.0098 H   0  0  0  0  0  0  0  0  0  0  0  0
  139.8004   78.0608  223.5856 H   0  0  0  0  0  0  0  0  0  0  0  0
  140.3899   75.7337  223.0826 H   0  0  0  0  0  0  0  0  0  0  0  0
  138.2876   69.1273  222.4878 H   0  0  0  0  0  0  0  0  0  0  0  0
  138.9945   67.6093  224.3271 H   0  0  0  0  0  0  0  0  0  0  0  0
  140.0770   67.3989  226.5600 H   0  0  0  0  0  0  0  0  0  0  0  0
  141.5489   70.9188  228.5414 H   0  0  0  0  0  0  0  0  0  0  0  0
  140.7748   72.2890  226.6033 H   0  0  0  0  0  0  0  0  0  0  0  0
  1  2  2  0
  2  3  1  0
  3  4  1  0
  4  5  1  0
  5  6  2  0
  5  7  1  0
  7  8  1  0
  8  9  1  0
  9 10  1  0
 10 11  1  0
 11 12  1  0
 12 13  2  0
 13 14  1  0
 14 15  2  0
 15 16  1  0
 15 17  1  0
 17 18  2  0
  2 19  1  0
 19 20  2  0
 20 21  1  0
 21 22  2  0
 22 23  1  0
 23 24  2  0
 24 25  1  0
 24 26  1  0
 26 27  2  0
 27 28  1  0
 28 29  2  0
 11  7  1  0
 18 12  1  0
 29 19  1  0
 28 22  1  0
  3 30  1  0
  4 31  1  0
  4 32  1  0
  8 33  1  0
  8 34  1  0
  9 35  1  0
  9 36  1  0
 10 37  1  0
 10 38  1  0
 11 39  1  1
 13 40  1  0
 14 41  1  0
 17 42  1  0
 18 43  1  0
 20 44  1  0
 21 45  1  0
 23 46  1  0
 26 47  1  0
 27 48  1  0
M  END
>  <smiles>  (83) 
O=C(NCC(=O)N1CCCC1c1ccc(F)cc1)c1ccc2cc(Cl)ccc2n1

>  <score_type>  (83) 
oracle

>  <origin>  (83) 
autodockgpu

>  <m_score__min__energy>  (83) 
-8.7400000000000002

>  <m_primary>  (83) 
energy

>  <rmsd>  (83) 
2.2853589041691054

>  <m_score__min__rmsd>  (83) 
2.2853589041691054

>  <meeko>  (83) 
{"free_energy": -7.2, "intermolecular_energy": -8.69, "internal_energy": -1.8, "cluster_size": 3, "cluster_id": 3, "rank_in_cluster": 3}

>  <energy>  (83) 
-7.27

>  <cluster_rmsd>  (83) 
1.69

>  <cluster>  (83) 
3

$$$$

     RDKit          3D

 48 51  0  0  0  0  0  0  0  0999 V2000
  133.8860   69.2910  226.4680 O   0  0  0  0  0  0  0  0  0  0  0  0
  134.3860   70.3870  226.0380 C   0  0  0  0  0  0  0  0  0  0  0  0
  135.5370   70.3830  225.1760 N   0  0  0  0  0  0  0  0  0  0  0  0
  136.1920   69.1780  224.7630 C   0  0  0  0  0  0  0  0  0  0  0  0
  137.4370   69.2650  224.0270 C   0  0  0  0  0  0  0  0  0  0  0  0
  137.8300   68.1540  223.4880 O   0  0  0  0  0  0  0  0  0  0  0  0
  138.2800   70.3820  223.8060 N   0  0  0  0  0  0  0  0  0  0  0  0
  137.9700   71.6780  223.1870 C   0  0  0  0  0  0  0  0  0  0  0  0
  139.3610   72.1630  222.7060 C   0  0  0  0  0  0  0  0  0  0  0  0
  140.1250   71.7980  223.9910 C   0  0  0  0  0  0  0  0  0  0  0  0
  139.6820   70.3820  224.1880 C   0  0  1  0  0  0  0  0  0  0  0  0
  139.9280   69.8510  225.5420 C   0  0  0  0  0  0  0  0  0  0  0  0
  140.0870   70.6300  226.6450 C   0  0  0  0  0  0  0  0  0  0  0  0
  140.3150   70.0540  227.8780 C   0  0  0  0  0  0  0  0  0  0  0  0
  140.3930   68.6830  228.0600 C   0  0  0  0  0  0  0  0  0  0  0  0
  140.6160   68.1080  229.2630 F   0  0  0  0  0  0  0  0  0  0  0  0
  140.2320   67.8920  226.9430 C   0  0  0  0  0  0  0  0  0  0  0  0
  140.0050   68.4690  225.7170 C   0  0  0  0  0  0  0  0  0  0  0  0
  133.7650   71.6400  226.4390 C   0  0  0  0  0  0  0  0  0  0  0  0
  132.6110   71.6430  227.1930 C   0  0  0  0  0  0  0  0  0  0  0  0
  131.9920   72.8190  227.5940 C   0  0  0  0  0  0  0  0  0  0  0  0
  132.5670   74.0130  227.2140 C   0  0  0  0  0  0  0  0  0  0  0  0
  132.0400   75.2440  227.5540 C   0  0  0  0  0  0  0  0  0  0  0  0
  132.6460   76.4230  227.1520 C   0  0  0  0  0  0  0  0  0  0  0  0
  131.9840   77.9840  227.5790 Cl  0  0  0  0  0  0  0  0  0  0  0  0
  133.8000   76.3830  226.3990 C   0  0  0  0  0  0  0  0  0  0  0  0
  134.3320   75.1400  226.0560 C   0  0  0  0  0  0  0  0  0  0  0  0
  133.7240   73.9670  226.4570 C   0  0  0  0  0  0  0  0  0  0  0  0
  134.3070   72.8110  226.0810 N   0  0  0  0  0  0  0  0  0  0  0  0
  135.8500   71.3550  224.8800 H   0  0  0  0  0  0  0  0  0  0  0  0
  136.3973   68.5959  225.6735 H   0  0  0  0  0  0  0  0  0  0  0  0
  135.4917   68.7352  224.0395 H   0  0  0  0  0  0  0  0  0  0  0  0
  137.2766   71.5587  222.3414 H   0  0  0  0  0  0  0  0  0  0  0  0
  137.4730   72.3821  223.8706 H   0  0  0  0  0  0  0  0  0  0  0  0
  139.7219   71.6085  221.8272 H   0  0  0  0  0  0  0  0  0  0  0  0
  139.4333   73.2057  222.3633 H   0  0  0  0  0  0  0  0  0  0  0  0
  141.2135   71.8654  223.8477 H   0  0  0  0  0  0  0  0  0  0  0  0
  139.9231   72.4614  224.8449 H   0  0  0  0  0  0  0  0  0  0  0  0
  140.2743   69.6906  223.5706 H   0  0  0  0  0  0  0  0  0  0  0  0
  140.0336   71.7249  226.5540 H   0  0  0  0  0  0  0  0  0  0  0  0
  140.4399   70.7102  228.7519 H   0  0  0  0  0  0  0  0  0  0  0  0
  140.2853   66.7970  227.0332 H   0  0  0  0  0  0  0  0  0  0  0  0
  139.8792   67.8167  224.8402 H   0  0  0  0  0  0  0  0  0  0  0  0
  132.1656   70.6811  227.4868 H   0  0  0  0  0  0  0  0  0  0  0  0
  131.0716   72.7989  228.1960 H   0  0  0  0  0  0  0  0  0  0  0  0
  131.1205   75.2888  228.1561 H   0  0  0  0  0  0  0  0  0  0  0  0
  134.2913   77.3124  226.0752 H   0  0  0  0  0  0  0  0  0  0  0  0
  135.2523   75.0935  225.4553 H   0  0  0  0  0  0  0  0  0  0  0  0
  1  2  2  0
  2  3  1  0
  3  4  1  0
  4  5  1  0
  5  6  2  0
  5  7  1  0
  7  8  1  0
  8  9  1  0
  9 10  1  0
 10 11  1  0
 11 12  1  0
 12 13  2  0
 13 14  1  0
 14 15  2  0
 15 16  1  0
 15 17  1  0
 17 18  2  0
  2 19  1  0
 19 20  2  0
 20 21  1  0
 21 22  2  0
 22 23  1  0
 23 24  2  0
 24 25  1  0
 24 26  1  0
 26 27  2  0
 27 28  1  0
 28 29  2  0
 11  7  1  0
 18 12  1  0
 29 19  1  0
 28 22  1  0
  3 30  1  0
  4 31  1  0
  4 32  1  0
  8 33  1  0
  8 34  1  0
  9 35  1  0
  9 36  1  0
 10 37  1  0
 10 38  1  0
 11 39  1  6
 13 40  1  0
 14 41  1  0
 17 42  1  0
 18 43  1  0
 20 44  1  0
 21 45  1  0
 23 46  1  0
 26 47  1  0
 27 48  1  0
M  END
>  <smiles>  (84) 
O=C(NCC(=O)N1CCCC1c1ccc(F)cc1)c1ccc2cc(Cl)ccc2n1

>  <score_type>  (84) 
oracle

>  <origin>  (84) 
autodockgpu

>  <m_score__min__energy>  (84) 
-8.7400000000000002

>  <m_primary>  (84) 
energy

>  <rmsd>  (84) 
7.7409260659362475

>  <m_score__min__rmsd>  (84) 
7.7409260659362475

>  <meeko>  (84) 
{"free_energy": -8.27, "intermolecular_energy": -9.76, "internal_energy": -1.63, "cluster_size": 19, "cluster_id": 2, "rank_in_cluster": 12}

>  <energy>  (84) 
-7.2

>  <cluster_rmsd>  (84) 
1.79

>  <cluster>  (84) 
3

$$$$

     RDKit          3D

 48 51  0  0  0  0  0  0  0  0999 V2000
  140.7590   72.2140  220.7260 O   0  0  0  0  0  0  0  0  0  0  0  0
  140.3240   72.6500  221.8480 C   0  0  0  0  0  0  0  0  0  0  0  0
  139.9490   74.0280  222.0070 N   0  0  0  0  0  0  0  0  0  0  0  0
  140.0490   74.9860  220.9460 C   0  0  0  0  0  0  0  0  0  0  0  0
  140.8130   76.1990  221.1570 C   0  0  0  0  0  0  0  0  0  0  0  0
  140.8790   76.5940  222.3890 O   0  0  0  0  0  0  0  0  0  0  0  0
  141.4970   77.0100  220.2180 N   0  0  0  0  0  0  0  0  0  0  0  0
  141.6970   78.4660  220.2110 C   0  0  0  0  0  0  0  0  0  0  0  0
  141.9440   78.7660  218.7110 C   0  0  0  0  0  0  0  0  0  0  0  0
  142.9140   77.5980  218.4600 C   0  0  0  0  0  0  0  0  0  0  0  0
  142.1340   76.4580  219.0350 C   0  0  1  0  0  0  0  0  0  0  0  0
  142.9350   75.2480  219.3030 C   0  0  0  0  0  0  0  0  0  0  0  0
  142.6360   74.0160  218.8110 C   0  0  0  0  0  0  0  0  0  0  0  0
  143.4380   72.9330  219.1090 C   0  0  0  0  0  0  0  0  0  0  0  0
  144.5640   73.0340  219.9080 C   0  0  0  0  0  0  0  0  0  0  0  0
  145.3560   71.9800  220.2070 F   0  0  0  0  0  0  0  0  0  0  0  0
  144.8690   74.2820  220.4080 C   0  0  0  0  0  0  0  0  0  0  0  0
  144.0690   75.3580  220.1080 C   0  0  0  0  0  0  0  0  0  0  0  0
  140.2170   71.7190  222.9610 C   0  0  0  0  0  0  0  0  0  0  0  0
  139.6000   70.4970  222.7990 C   0  0  0  0  0  0  0  0  0  0  0  0
  139.4790   69.5850  223.8390 C   0  0  0  0  0  0  0  0  0  0  0  0
  140.0020   69.9330  225.0660 C   0  0  0  0  0  0  0  0  0  0  0  0
  139.9410   69.1070  226.1710 C   0  0  0  0  0  0  0  0  0  0  0  0
  140.4770   69.4920  227.3890 C   0  0  0  0  0  0  0  0  0  0  0  0
  140.4030   68.4510  228.7920 Cl  0  0  0  0  0  0  0  0  0  0  0  0
  141.0880   70.7220  227.5150 C   0  0  0  0  0  0  0  0  0  0  0  0
  141.1490   71.5560  226.3990 C   0  0  0  0  0  0  0  0  0  0  0  0
  140.6130   71.1680  225.1880 C   0  0  0  0  0  0  0  0  0  0  0  0
  140.7170   72.0370  224.1610 N   0  0  0  0  0  0  0  0  0  0  0  0
  139.5950   74.2640  222.9820 H   0  0  0  0  0  0  0  0  0  0  0  0
  140.4999   74.4678  220.0869 H   0  0  0  0  0  0  0  0  0  0  0  0
  139.0171   75.3459  220.8211 H   0  0  0  0  0  0  0  0  0  0  0  0
  140.8034   78.9914  220.5791 H   0  0  0  0  0  0  0  0  0  0  0  0
  142.5172   78.7981  220.8644 H   0  0  0  0  0  0  0  0  0  0  0  0
  141.0271   78.6918  218.1079 H   0  0  0  0  0  0  0  0  0  0  0  0
  142.3025   79.7745  218.4572 H   0  0  0  0  0  0  0  0  0  0  0  0
  143.1073   77.4557  217.3865 H   0  0  0  0  0  0  0  0  0  0  0  0
  143.9135   77.7335  218.8989 H   0  0  0  0  0  0  0  0  0  0  0  0
  141.3959   76.0781  218.3133 H   0  0  0  0  0  0  0  0  0  0  0  0
  141.7505   73.8819  218.1723 H   0  0  0  0  0  0  0  0  0  0  0  0
  143.1716   71.9494  218.6947 H   0  0  0  0  0  0  0  0  0  0  0  0
  145.7537   74.4165  221.0477 H   0  0  0  0  0  0  0  0  0  0  0  0
  144.3328   76.3439  220.5183 H   0  0  0  0  0  0  0  0  0  0  0  0
  139.1896   70.2355  221.8125 H   0  0  0  0  0  0  0  0  0  0  0  0
  138.9816   68.6155  223.6885 H   0  0  0  0  0  0  0  0  0  0  0  0
  139.4569   68.1233  226.0822 H   0  0  0  0  0  0  0  0  0  0  0  0
  141.5185   71.0388  228.4764 H   0  0  0  0  0  0  0  0  0  0  0  0
  141.6327   72.5401  226.4855 H   0  0  0  0  0  0  0  0  0  0  0  0
  1  2  2  0
  2  3  1  0
  3  4  1  0
  4  5  1  0
  5  6  2  0
  5  7  1  0
  7  8  1  0
  8  9  1  0
  9 10  1  0
 10 11  1  0
 11 12  1  0
 12 13  2  0
 13 14  1  0
 14 15  2  0
 15 16  1  0
 15 17  1  0
 17 18  2  0
  2 19  1  0
 19 20  2  0
 20 21  1  0
 21 22  2  0
 22 23  1  0
 23 24  2  0
 24 25  1  0
 24 26  1  0
 26 27  2  0
 27 28  1  0
 28 29  2  0
 11  7  1  0
 18 12  1  0
 29 19  1  0
 28 22  1  0
  3 30  1  0
  4 31  1  0
  4 32  1  0
  8 33  1  0
  8 34  1  0
  9 35  1  0
  9 36  1  0
 10 37  1  0
 10 38  1  0
 11 39  1  6
 13 40  1  0
 14 41  1  0
 17 42  1  0
 18 43  1  0
 20 44  1  0
 21 45  1  0
 23 46  1  0
 26 47  1  0
 27 48  1  0
M  END
>  <smiles>  (85) 
O=C(NCC(=O)N1CCCC1c1ccc(F)cc1)c1ccc2cc(Cl)ccc2n1

>  <score_type>  (85) 
oracle

>  <origin>  (85) 
autodockgpu

>  <m_score__min__energy>  (85) 
-8.7400000000000002

>  <m_primary>  (85) 
energy

>  <rmsd>  (85) 
2.4141959587440227

>  <m_score__min__rmsd>  (85) 
2.4141959587440227

>  <meeko>  (85) 
{"free_energy": -7.96, "intermolecular_energy": -9.45, "internal_energy": -1.8, "cluster_size": 10, "cluster_id": 4, "rank_in_cluster": 5}

>  <energy>  (85) 
-8.08

>  <cluster_rmsd>  (85) 
0.0

>  <cluster>  (85) 
4

$$$$

     RDKit          3D

 48 51  0  0  0  0  0  0  0  0999 V2000
  139.5060   72.6620  220.4560 O   0  0  0  0  0  0  0  0  0  0  0  0
  140.1560   72.9060  221.5310 C   0  0  0  0  0  0  0  0  0  0  0  0
  140.9960   74.0680  221.6360 N   0  0  0  0  0  0  0  0  0  0  0  0
  141.1650   75.0010  220.5620 C   0  0  0  0  0  0  0  0  0  0  0  0
  140.5250   76.2990  220.6430 C   0  0  0  0  0  0  0  0  0  0  0  0
  141.0480   77.2130  219.8900 O   0  0  0  0  0  0  0  0  0  0  0  0
  139.4130   76.7100  221.4190 N   0  0  0  0  0  0  0  0  0  0  0  0
  138.3110   75.9090  221.9700 C   0  0  0  0  0  0  0  0  0  0  0  0
  137.1850   76.9600  222.1460 C   0  0  0  0  0  0  0  0  0  0  0  0
  138.0680   78.0550  222.7700 C   0  0  0  0  0  0  0  0  0  0  0  0
  139.1960   78.0980  221.7880 C   0  0  1  0  0  0  0  0  0  0  0  0
  140.4090   78.7750  222.2860 C   0  0  0  0  0  0  0  0  0  0  0  0
  141.0690   78.4130  223.4190 C   0  0  0  0  0  0  0  0  0  0  0  0
  142.1990   79.0990  223.8170 C   0  0  0  0  0  0  0  0  0  0  0  0
  142.7120   80.1700  223.1060 C   0  0  0  0  0  0  0  0  0  0  0  0
  143.8170   80.8490  223.4860 F   0  0  0  0  0  0  0  0  0  0  0  0
  142.0440   80.5390  221.9570 C   0  0  0  0  0  0  0  0  0  0  0  0
  140.9200   79.8530  221.5640 C   0  0  0  0  0  0  0  0  0  0  0  0
  140.0280   71.9810  222.6470 C   0  0  0  0  0  0  0  0  0  0  0  0
  139.3230   70.8050  222.5070 C   0  0  0  0  0  0  0  0  0  0  0  0
  139.1800   69.9000  223.5500 C   0  0  0  0  0  0  0  0  0  0  0  0
  139.7710   70.2070  224.7570 C   0  0  0  0  0  0  0  0  0  0  0  0
  139.6960   69.3840  225.8630 C   0  0  0  0  0  0  0  0  0  0  0  0
  140.3030   69.7270  227.0600 C   0  0  0  0  0  0  0  0  0  0  0  0
  140.2110   68.6880  228.4640 Cl  0  0  0  0  0  0  0  0  0  0  0  0
  141.0010   70.9120  227.1640 C   0  0  0  0  0  0  0  0  0  0  0  0
  141.0770   71.7430  226.0460 C   0  0  0  0  0  0  0  0  0  0  0  0
  140.4690   71.3970  224.8560 C   0  0  0  0  0  0  0  0  0  0  0  0
  140.5940   72.2600  223.8270 N   0  0  0  0  0  0  0  0  0  0  0  0
  141.4740   74.1640  222.5810 H   0  0  0  0  0  0  0  0  0  0  0  0
  142.2453   75.1816  220.4607 H   0  0  0  0  0  0  0  0  0  0  0  0
  140.6621   74.5150  219.7130 H   0  0  0  0  0  0  0  0  0  0  0  0
  138.0082   75.1158  221.2706 H   0  0  0  0  0  0  0  0  0  0  0  0
  138.5726   75.3874  222.9025 H   0  0  0  0  0  0  0  0  0  0  0  0
  136.7410   77.2690  221.1882 H   0  0  0  0  0  0  0  0  0  0  0  0
  136.2986   76.6489  222.7183 H   0  0  0  0  0  0  0  0  0  0  0  0
  137.5407   79.0189  222.8234 H   0  0  0  0  0  0  0  0  0  0  0  0
  138.3745   77.8569  223.8077 H   0  0  0  0  0  0  0  0  0  0  0  0
  138.9397   78.7175  220.9159 H   0  0  0  0  0  0  0  0  0  0  0  0
  140.7005   77.5694  224.0211 H   0  0  0  0  0  0  0  0  0  0  0  0
  142.7125   78.7815  224.7365 H   0  0  0  0  0  0  0  0  0  0  0  0
  142.4113   81.3831  221.3548 H   0  0  0  0  0  0  0  0  0  0  0  0
  140.4036   80.1662  220.6446 H   0  0  0  0  0  0  0  0  0  0  0  0
  138.8582   70.5759  221.5367 H   0  0  0  0  0  0  0  0  0  0  0  0
  138.6127   68.9669  223.4174 H   0  0  0  0  0  0  0  0  0  0  0  0
  139.1426   68.4360  225.7922 H   0  0  0  0  0  0  0  0  0  0  0  0
  141.4876   71.1959  228.1088 H   0  0  0  0  0  0  0  0  0  0  0  0
  141.6312   72.6907  226.1140 H   0  0  0  0  0  0  0  0  0  0  0  0
  1  2  2  0
  2  3  1  0
  3  4  1  0
  4  5  1  0
  5  6  2  0
  5  7  1  0
  7  8  1  0
  8  9  1  0
  9 10  1  0
 10 11  1  0
 11 12  1  0
 12 13  2  0
 13 14  1  0
 14 15  2  0
 15 16  1  0
 15 17  1  0
 17 18  2  0
  2 19  1  0
 19 20  2  0
 20 21  1  0
 21 22  2  0
 22 23  1  0
 23 24  2  0
 24 25  1  0
 24 26  1  0
 26 27  2  0
 27 28  1  0
 28 29  2  0
 11  7  1  0
 18 12  1  0
 29 19  1  0
 28 22  1  0
  3 30  1  0
  4 31  1  0
  4 32  1  0
  8 33  1  0
  8 34  1  0
  9 35  1  0
  9 36  1  0
 10 37  1  0
 10 38  1  0
 11 39  1  6
 13 40  1  0
 14 41  1  0
 17 42  1  0
 18 43  1  0
 20 44  1  0
 21 45  1  0
 23 46  1  0
 26 47  1  0
 27 48  1  0
M  END
>  <smiles>  (86) 
O=C(NCC(=O)N1CCCC1c1ccc(F)cc1)c1ccc2cc(Cl)ccc2n1

>  <score_type>  (86) 
oracle

>  <origin>  (86) 
autodockgpu

>  <m_score__min__energy>  (86) 
-8.7400000000000002

>  <m_primary>  (86) 
energy

>  <rmsd>  (86) 
3.1047576225809

>  <m_score__min__rmsd>  (86) 
3.1047576225809

>  <meeko>  (86) 
{"free_energy": -7.75, "intermolecular_energy": -9.24, "internal_energy": -1.73, "cluster_size": 12, "cluster_id": 1, "rank_in_cluster": 8}

>  <energy>  (86) 
-8.05

>  <cluster_rmsd>  (86) 
0.28

>  <cluster>  (86) 
4

$$$$

     RDKit          3D

 48 51  0  0  0  0  0  0  0  0999 V2000
  133.9560   69.2690  226.4750 O   0  0  0  0  0  0  0  0  0  0  0  0
  134.3450   70.3790  225.9720 C   0  0  0  0  0  0  0  0  0  0  0  0
  135.4050   70.4180  225.0020 N   0  0  0  0  0  0  0  0  0  0  0  0
  136.0900   69.2410  224.5570 C   0  0  0  0  0  0  0  0  0  0  0  0
  137.5380   69.2480  224.4880 C   0  0  0  0  0  0  0  0  0  0  0  0
  138.1040   68.1360  224.8340 O   0  0  0  0  0  0  0  0  0  0  0  0
  138.4190   70.2860  224.0960 N   0  0  0  0  0  0  0  0  0  0  0  0
  138.1170   71.5800  223.4690 C   0  0  0  0  0  0  0  0  0  0  0  0
  139.4530   71.9350  222.7680 C   0  0  0  0  0  0  0  0  0  0  0  0
  140.3700   71.5560  223.9440 C   0  0  0  0  0  0  0  0  0  0  0  0
  139.8580   70.1880  224.2690 C   0  0  1  0  0  0  0  0  0  0  0  0
  140.2630   69.6860  225.5960 C   0  0  0  0  0  0  0  0  0  0  0  0
  140.6510   68.4050  225.8360 C   0  0  0  0  0  0  0  0  0  0  0  0
  141.0160   68.0150  227.1090 C   0  0  0  0  0  0  0  0  0  0  0  0
  141.0060   68.8820  228.1890 C   0  0  0  0  0  0  0  0  0  0  0  0
  141.3610   68.5110  229.4390 F   0  0  0  0  0  0  0  0  0  0  0  0
  140.6130   70.1810  227.9460 C   0  0  0  0  0  0  0  0  0  0  0  0
  140.2510   70.5660  226.6780 C   0  0  0  0  0  0  0  0  0  0  0  0
  133.6890   71.6060  226.4020 C   0  0  0  0  0  0  0  0  0  0  0  0
  132.5330   71.5590  227.1510 C   0  0  0  0  0  0  0  0  0  0  0  0
  131.8810   72.7080  227.5780 C   0  0  0  0  0  0  0  0  0  0  0  0
  132.4250   73.9260  227.2310 C   0  0  0  0  0  0  0  0  0  0  0  0
  131.8650   75.1330  227.5990 C   0  0  0  0  0  0  0  0  0  0  0  0
  132.4410   76.3370  227.2300 C   0  0  0  0  0  0  0  0  0  0  0  0
  131.7360   77.8700  227.6930 Cl  0  0  0  0  0  0  0  0  0  0  0  0
  133.5990   76.3470  226.4810 C   0  0  0  0  0  0  0  0  0  0  0  0
  134.1640   75.1270  226.1090 C   0  0  0  0  0  0  0  0  0  0  0  0
  133.5860   73.9300  226.4780 C   0  0  0  0  0  0  0  0  0  0  0  0
  134.2010   72.7980  226.0760 N   0  0  0  0  0  0  0  0  0  0  0  0
  135.6280   71.3970  224.6540 H   0  0  0  0  0  0  0  0  0  0  0  0
  135.8049   68.4263  225.2389 H   0  0  0  0  0  0  0  0  0  0  0  0
  135.7789   69.1390  223.5068 H   0  0  0  0  0  0  0  0  0  0  0  0
  137.2985   71.4868  222.7401 H   0  0  0  0  0  0  0  0  0  0  0  0
  137.7809   72.3453  224.1842 H   0  0  0  0  0  0  0  0  0  0  0  0
  139.6373   71.3225  221.8731 H   0  0  0  0  0  0  0  0  0  0  0  0
  139.5504   72.9556  222.3695 H   0  0  0  0  0  0  0  0  0  0  0  0
  141.4272   71.5312  223.6413 H   0  0  0  0  0  0  0  0  0  0  0  0
  140.3464   72.2632  224.7862 H   0  0  0  0  0  0  0  0  0  0  0  0
  140.2994   69.4308  223.6043 H   0  0  0  0  0  0  0  0  0  0  0  0
  140.6741   67.6764  225.0123 H   0  0  0  0  0  0  0  0  0  0  0  0
  141.3276   66.9728  227.2723 H   0  0  0  0  0  0  0  0  0  0  0  0
  140.5893   70.9105  228.7690 H   0  0  0  0  0  0  0  0  0  0  0  0
  139.9400   71.6076  226.5097 H   0  0  0  0  0  0  0  0  0  0  0  0
  132.1129   70.5784  227.4194 H   0  0  0  0  0  0  0  0  0  0  0  0
  130.9589   72.6482  228.1747 H   0  0  0  0  0  0  0  0  0  0  0  0
  130.9422   75.1384  228.1977 H   0  0  0  0  0  0  0  0  0  0  0  0
  134.0672   77.2968  226.1833 H   0  0  0  0  0  0  0  0  0  0  0  0
  135.0870   75.1193  225.5107 H   0  0  0  0  0  0  0  0  0  0  0  0
  1  2  2  0
  2  3  1  0
  3  4  1  0
  4  5  1  0
  5  6  2  0
  5  7  1  0
  7  8  1  0
  8  9  1  0
  9 10  1  0
 10 11  1  0
 11 12  1  0
 12 13  2  0
 13 14  1  0
 14 15  2  0
 15 16  1  0
 15 17  1  0
 17 18  2  0
  2 19  1  0
 19 20  2  0
 20 21  1  0
 21 22  2  0
 22 23  1  0
 23 24  2  0
 24 25  1  0
 24 26  1  0
 26 27  2  0
 27 28  1  0
 28 29  2  0
 11  7  1  0
 18 12  1  0
 29 19  1  0
 28 22  1  0
  3 30  1  0
  4 31  1  0
  4 32  1  0
  8 33  1  0
  8 34  1  0
  9 35  1  0
  9 36  1  0
 10 37  1  0
 10 38  1  0
 11 39  1  6
 13 40  1  0
 14 41  1  0
 17 42  1  0
 18 43  1  0
 20 44  1  0
 21 45  1  0
 23 46  1  0
 26 47  1  0
 27 48  1  0
M  END
>  <smiles>  (87) 
O=C(NCC(=O)N1CCCC1c1ccc(F)cc1)c1ccc2cc(Cl)ccc2n1

>  <score_type>  (87) 
oracle

>  <origin>  (87) 
autodockgpu

>  <m_score__min__energy>  (87) 
-8.7400000000000002

>  <m_primary>  (87) 
energy

>  <rmsd>  (87) 
7.821902773124736

>  <m_score__min__rmsd>  (87) 
7.821902773124736

>  <meeko>  (87) 
{"free_energy": -8.49, "intermolecular_energy": -9.98, "internal_energy": -1.4, "cluster_size": 19, "cluster_id": 2, "rank_in_cluster": 4}

>  <energy>  (87) 
-8.04

>  <cluster_rmsd>  (87) 
0.07

>  <cluster>  (87) 
4

$$$$

     RDKit          3D

 48 51  0  0  0  0  0  0  0  0999 V2000
  133.5010   70.1500  226.7980 O   0  0  0  0  0  0  0  0  0  0  0  0
  133.8700   71.2550  226.2690 C   0  0  0  0  0  0  0  0  0  0  0  0
  134.9090   71.2850  225.2760 N   0  0  0  0  0  0  0  0  0  0  0  0
  135.5930   70.1070  224.8340 C   0  0  0  0  0  0  0  0  0  0  0  0
  136.5160   70.2000  223.7210 C   0  0  0  0  0  0  0  0  0  0  0  0
  136.5780   71.3660  223.1610 O   0  0  0  0  0  0  0  0  0  0  0  0
  137.3600   69.2080  223.1620 N   0  0  0  0  0  0  0  0  0  0  0  0
  137.4120   68.6930  221.7870 C   0  0  0  0  0  0  0  0  0  0  0  0
  138.0500   67.2930  221.9760 C   0  0  0  0  0  0  0  0  0  0  0  0
  139.1580   67.7370  222.9460 C   0  0  0  0  0  0  0  0  0  0  0  0
  138.3600   68.5070  223.9500 C   0  0  1  0  0  0  0  0  0  0  0  0
  139.1620   69.3940  224.8150 C   0  0  0  0  0  0  0  0  0  0  0  0
  139.7890   70.5170  224.3750 C   0  0  0  0  0  0  0  0  0  0  0  0
  140.5220   71.2940  225.2490 C   0  0  0  0  0  0  0  0  0  0  0  0
  140.6600   70.9810  226.5910 C   0  0  0  0  0  0  0  0  0  0  0  0
  141.3760   71.7340  227.4560 F   0  0  0  0  0  0  0  0  0  0  0  0
  140.0250   69.8430  227.0380 C   0  0  0  0  0  0  0  0  0  0  0  0
  139.2950   69.0720  226.1650 C   0  0  0  0  0  0  0  0  0  0  0  0
  133.2140   72.4830  226.6940 C   0  0  0  0  0  0  0  0  0  0  0  0
  131.9870   72.4430  227.3210 C   0  0  0  0  0  0  0  0  0  0  0  0
  131.3330   73.5940  227.7400 C   0  0  0  0  0  0  0  0  0  0  0  0
  131.9490   74.8060  227.5110 C   0  0  0  0  0  0  0  0  0  0  0  0
  131.3940   76.0150  227.8830 C   0  0  0  0  0  0  0  0  0  0  0  0
  132.0430   77.2130  227.6340 C   0  0  0  0  0  0  0  0  0  0  0  0
  131.3450   78.7470  228.1030 Cl  0  0  0  0  0  0  0  0  0  0  0  0
  133.2700   77.2150  227.0050 C   0  0  0  0  0  0  0  0  0  0  0  0
  133.8300   75.9940  226.6290 C   0  0  0  0  0  0  0  0  0  0  0  0
  133.1790   74.8030  226.8780 C   0  0  0  0  0  0  0  0  0  0  0  0
  133.7950   73.6700  226.4810 N   0  0  0  0  0  0  0  0  0  0  0  0
  135.1170   72.2610  224.9070 H   0  0  0  0  0  0  0  0  0  0  0  0
  136.1637   69.7255  225.6935 H   0  0  0  0  0  0  0  0  0  0  0  0
  134.7862   69.4648  224.4512 H   0  0  0  0  0  0  0  0  0  0  0  0
  136.4040   68.6151  221.3535 H   0  0  0  0  0  0  0  0  0  0  0  0
  137.9732   69.3408  221.0974 H   0  0  0  0  0  0  0  0  0  0  0  0
  137.3561   66.5696  222.4290 H   0  0  0  0  0  0  0  0  0  0  0  0
  138.3686   66.7645  221.0654 H   0  0  0  0  0  0  0  0  0  0  0  0
  139.6630   66.8747  223.4057 H   0  0  0  0  0  0  0  0  0  0  0  0
  139.9722   68.3085  222.4764 H   0  0  0  0  0  0  0  0  0  0  0  0
  137.9009   67.8357  224.6906 H   0  0  0  0  0  0  0  0  0  0  0  0
  139.7118   70.8079  223.3170 H   0  0  0  0  0  0  0  0  0  0  0  0
  141.0164   72.1981  224.8642 H   0  0  0  0  0  0  0  0  0  0  0  0
  140.1023   69.5508  228.0956 H   0  0  0  0  0  0  0  0  0  0  0  0
  138.7975   68.1677  226.5455 H   0  0  0  0  0  0  0  0  0  0  0  0
  131.5103   71.4671  227.4951 H   0  0  0  0  0  0  0  0  0  0  0  0
  130.3541   73.5405  228.2390 H   0  0  0  0  0  0  0  0  0  0  0  0
  130.4165   76.0266  228.3873 H   0  0  0  0  0  0  0  0  0  0  0  0
  133.7963   78.1598  226.8039 H   0  0  0  0  0  0  0  0  0  0  0  0
  134.8077   75.9803  226.1251 H   0  0  0  0  0  0  0  0  0  0  0  0
  1  2  2  0
  2  3  1  0
  3  4  1  0
  4  5  1  0
  5  6  2  0
  5  7  1  0
  7  8  1  0
  8  9  1  0
  9 10  1  0
 10 11  1  0
 11 12  1  0
 12 13  2  0
 13 14  1  0
 14 15  2  0
 15 16  1  0
 15 17  1  0
 17 18  2  0
  2 19  1  0
 19 20  2  0
 20 21  1  0
 21 22  2  0
 22 23  1  0
 23 24  2  0
 24 25  1  0
 24 26  1  0
 26 27  2  0
 27 28  1  0
 28 29  2  0
 11  7  1  0
 18 12  1  0
 29 19  1  0
 28 22  1  0
  3 30  1  0
  4 31  1  0
  4 32  1  0
  8 33  1  0
  8 34  1  0
  9 35  1  0
  9 36  1  0
 10 37  1  0
 10 38  1  0
 11 39  1  1
 13 40  1  0
 14 41  1  0
 17 42  1  0
 18 43  1  0
 20 44  1  0
 21 45  1  0
 23 46  1  0
 26 47  1  0
 27 48  1  0
M  END
>  <smiles>  (88) 
O=C(NCC(=O)N1CCCC1c1ccc(F)cc1)c1ccc2cc(Cl)ccc2n1

>  <score_type>  (88) 
oracle

>  <origin>  (88) 
autodockgpu

>  <m_score__min__energy>  (88) 
-8.7400000000000002

>  <m_primary>  (88) 
energy

>  <rmsd>  (88) 
8.835448864270075

>  <m_score__min__rmsd>  (88) 
8.835448864270075

>  <meeko>  (88) 
{"free_energy": -7.56, "intermolecular_energy": -9.05, "internal_energy": -1.78, "cluster_size": 19, "cluster_id": 2, "rank_in_cluster": 19}

>  <energy>  (88) 
-8.02

>  <cluster_rmsd>  (88) 
0.3

>  <cluster>  (88) 
4

$$$$

     RDKit          3D

 48 51  0  0  0  0  0  0  0  0999 V2000
  141.6740   78.8260  217.2280 O   0  0  0  0  0  0  0  0  0  0  0  0
  142.2020   78.3430  218.2890 C   0  0  0  0  0  0  0  0  0  0  0  0
  142.1870   79.0830  219.5210 N   0  0  0  0  0  0  0  0  0  0  0  0
  141.6060   80.3870  219.6350 C   0  0  0  0  0  0  0  0  0  0  0  0
  141.0470   80.8050  220.9050 C   0  0  0  0  0  0  0  0  0  0  0  0
  139.9090   81.4190  220.8230 O   0  0  0  0  0  0  0  0  0  0  0  0
  141.5570   80.6360  222.2160 N   0  0  0  0  0  0  0  0  0  0  0  0
  141.8600   81.6480  223.2380 C   0  0  0  0  0  0  0  0  0  0  0  0
  142.9040   80.9270  224.1270 C   0  0  0  0  0  0  0  0  0  0  0  0
  142.1640   79.5810  224.2060 C   0  0  0  0  0  0  0  0  0  0  0  0
  141.8850   79.3290  222.7580 C   0  0  1  0  0  0  0  0  0  0  0  0
  140.8520   78.3060  222.5070 C   0  0  0  0  0  0  0  0  0  0  0  0
  141.0950   77.1150  221.8990 C   0  0  0  0  0  0  0  0  0  0  0  0
  140.0710   76.2110  221.7010 C   0  0  0  0  0  0  0  0  0  0  0  0
  138.7680   76.4590  222.0980 C   0  0  0  0  0  0  0  0  0  0  0  0
  137.7580   75.5810  221.9100 F   0  0  0  0  0  0  0  0  0  0  0  0
  138.5200   77.6670  222.7150 C   0  0  0  0  0  0  0  0  0  0  0  0
  139.5420   78.5640  222.9110 C   0  0  0  0  0  0  0  0  0  0  0  0
  142.8170   77.0250  218.2220 C   0  0  0  0  0  0  0  0  0  0  0  0
  143.0570   76.4230  217.0060 C   0  0  0  0  0  0  0  0  0  0  0  0
  143.6420   75.1680  216.9050 C   0  0  0  0  0  0  0  0  0  0  0  0
  143.9870   74.5210  218.0720 C   0  0  0  0  0  0  0  0  0  0  0  0
  144.5740   73.2710  218.0950 C   0  0  0  0  0  0  0  0  0  0  0  0
  144.9060   72.6520  219.2890 C   0  0  0  0  0  0  0  0  0  0  0  0
  145.6490   71.0690  219.3240 Cl  0  0  0  0  0  0  0  0  0  0  0  0
  144.6520   73.2850  220.4870 C   0  0  0  0  0  0  0  0  0  0  0  0
  144.0590   74.5470  220.4640 C   0  0  0  0  0  0  0  0  0  0  0  0
  143.7290   75.1590  219.2720 C   0  0  0  0  0  0  0  0  0  0  0  0
  143.1590   76.3800  219.3430 N   0  0  0  0  0  0  0  0  0  0  0  0
  142.6480   78.5700  220.3310 H   0  0  0  0  0  0  0  0  0  0  0  0
  142.3914   81.1122  219.3757 H   0  0  0  0  0  0  0  0  0  0  0  0
  140.7328   80.3428  218.9675 H   0  0  0  0  0  0  0  0  0  0  0  0
  142.2839   82.5561  222.7845 H   0  0  0  0  0  0  0  0  0  0  0  0
  140.9735   81.9892  223.7927 H   0  0  0  0  0  0  0  0  0  0  0  0
  143.8869   80.8415  223.6406 H   0  0  0  0  0  0  0  0  0  0  0  0
  143.1627   81.4092  225.0812 H   0  0  0  0  0  0  0  0  0  0  0  0
  142.7996   78.7944  224.6386 H   0  0  0  0  0  0  0  0  0  0  0  0
  141.2703   79.5896  224.8472 H   0  0  0  0  0  0  0  0  0  0  0  0
  142.7582   78.8863  222.2566 H   0  0  0  0  0  0  0  0  0  0  0  0
  142.1134   76.8702  221.5629 H   0  0  0  0  0  0  0  0  0  0  0  0
  140.2994   75.2547  221.2078 H   0  0  0  0  0  0  0  0  0  0  0  0
  137.5018   77.9130  223.0509 H   0  0  0  0  0  0  0  0  0  0  0  0
  139.3190   79.5213  223.4049 H   0  0  0  0  0  0  0  0  0  0  0  0
  142.7758   76.9544  216.0848 H   0  0  0  0  0  0  0  0  0  0  0  0
  143.8244   74.7045  215.9242 H   0  0  0  0  0  0  0  0  0  0  0  0
  144.7822   72.7563  217.1454 H   0  0  0  0  0  0  0  0  0  0  0  0
  144.9118   72.8044  221.4417 H   0  0  0  0  0  0  0  0  0  0  0  0
  143.8507   75.0636  221.4125 H   0  0  0  0  0  0  0  0  0  0  0  0
  1  2  2  0
  2  3  1  0
  3  4  1  0
  4  5  1  0
  5  6  2  0
  5  7  1  0
  7  8  1  0
  8  9  1  0
  9 10  1  0
 10 11  1  0
 11 12  1  0
 12 13  2  0
 13 14  1  0
 14 15  2  0
 15 16  1  0
 15 17  1  0
 17 18  2  0
  2 19  1  0
 19 20  2  0
 20 21  1  0
 21 22  2  0
 22 23  1  0
 23 24  2  0
 24 25  1  0
 24 26  1  0
 26 27  2  0
 27 28  1  0
 28 29  2  0
 11  7  1  0
 18 12  1  0
 29 19  1  0
 28 22  1  0
  3 30  1  0
  4 31  1  0
  4 32  1  0
  8 33  1  0
  8 34  1  0
  9 35  1  0
  9 36  1  0
 10 37  1  0
 10 38  1  0
 11 39  1  6
 13 40  1  0
 14 41  1  0
 17 42  1  0
 18 43  1  0
 20 44  1  0
 21 45  1  0
 23 46  1  0
 26 47  1  0
 27 48  1  0
M  END
>  <smiles>  (89) 
O=C(NCC(=O)N1CCCC1c1ccc(F)cc1)c1ccc2cc(Cl)ccc2n1

>  <score_type>  (89) 
oracle

>  <origin>  (89) 
autodockgpu

>  <m_score__min__energy>  (89) 
-8.7400000000000002

>  <m_primary>  (89) 
energy

>  <rmsd>  (89) 
8.49951487605639

>  <m_score__min__rmsd>  (89) 
8.49951487605639

>  <meeko>  (89) 
{"free_energy": -6.97, "intermolecular_energy": -8.46, "internal_energy": -2.16, "cluster_size": 2, "cluster_id": 8, "rank_in_cluster": 1}

>  <energy>  (89) 
-7.96

>  <cluster_rmsd>  (89) 
0.27

>  <cluster>  (89) 
4

$$$$

     RDKit          3D

 48 51  0  0  0  0  0  0  0  0999 V2000
  139.4700   71.9750  220.6720 O   0  0  0  0  0  0  0  0  0  0  0  0
  139.5390   72.4420  221.8610 C   0  0  0  0  0  0  0  0  0  0  0  0
  139.4920   73.8590  222.1000 N   0  0  0  0  0  0  0  0  0  0  0  0
  139.3820   74.8190  221.0420 C   0  0  0  0  0  0  0  0  0  0  0  0
  140.3160   74.7650  219.9360 C   0  0  0  0  0  0  0  0  0  0  0  0
  139.8120   75.0680  218.7820 O   0  0  0  0  0  0  0  0  0  0  0  0
  141.6940   74.4350  219.9320 N   0  0  0  0  0  0  0  0  0  0  0  0
  142.3520   73.1750  219.5590 C   0  0  0  0  0  0  0  0  0  0  0  0
  143.6940   73.2540  220.3300 C   0  0  0  0  0  0  0  0  0  0  0  0
  144.0090   74.7180  219.9770 C   0  0  0  0  0  0  0  0  0  0  0  0
  142.7180   75.3790  220.3450 C   0  0  1  0  0  0  0  0  0  0  0  0
  142.5430   76.7300  219.7760 C   0  0  0  0  0  0  0  0  0  0  0  0
  141.9510   77.7600  220.4370 C   0  0  0  0  0  0  0  0  0  0  0  0
  141.8260   78.9950  219.8340 C   0  0  0  0  0  0  0  0  0  0  0  0
  142.2830   79.2510  218.5530 C   0  0  0  0  0  0  0  0  0  0  0  0
  142.1660   80.4560  217.9520 F   0  0  0  0  0  0  0  0  0  0  0  0
  142.8840   78.2070  217.8810 C   0  0  0  0  0  0  0  0  0  0  0  0
  143.0070   76.9790  218.4850 C   0  0  0  0  0  0  0  0  0  0  0  0
  139.6650   71.5070  222.9700 C   0  0  0  0  0  0  0  0  0  0  0  0
  139.2270   70.2070  222.8450 C   0  0  0  0  0  0  0  0  0  0  0  0
  139.3320   69.2880  223.8810 C   0  0  0  0  0  0  0  0  0  0  0  0
  139.8950   69.7130  225.0660 C   0  0  0  0  0  0  0  0  0  0  0  0
  140.0510   68.8900  226.1630 C   0  0  0  0  0  0  0  0  0  0  0  0
  140.6210   69.3530  227.3370 C   0  0  0  0  0  0  0  0  0  0  0  0
  140.8210   68.3150  228.7300 Cl  0  0  0  0  0  0  0  0  0  0  0  0
  141.0480   70.6610  227.4260 C   0  0  0  0  0  0  0  0  0  0  0  0
  140.8910   71.4930  226.3170 C   0  0  0  0  0  0  0  0  0  0  0  0
  140.3210   71.0270  225.1500 C   0  0  0  0  0  0  0  0  0  0  0  0
  140.2090   71.9000  224.1280 N   0  0  0  0  0  0  0  0  0  0  0  0
  139.5480   74.1200  223.1290 H   0  0  0  0  0  0  0  0  0  0  0  0
  138.3735   74.7128  220.6159 H   0  0  0  0  0  0  0  0  0  0  0  0
  139.6144   75.7756  221.5329 H   0  0  0  0  0  0  0  0  0  0  0  0
  141.7590   72.3065  219.8818 H   0  0  0  0  0  0  0  0  0  0  0  0
  142.4776   73.0515  218.4732 H   0  0  0  0  0  0  0  0  0  0  0  0
  143.5706   73.0965  221.4117 H   0  0  0  0  0  0  0  0  0  0  0  0
  144.4587   72.5051  220.0765 H   0  0  0  0  0  0  0  0  0  0  0  0
  144.8474   75.1069  220.5735 H   0  0  0  0  0  0  0  0  0  0  0  0
  144.3218   74.8781  218.9346 H   0  0  0  0  0  0  0  0  0  0  0  0
  142.6716   75.5870  221.4242 H   0  0  0  0  0  0  0  0  0  0  0  0
  141.5697   77.6082  221.4576 H   0  0  0  0  0  0  0  0  0  0  0  0
  141.3434   79.8092  220.3944 H   0  0  0  0  0  0  0  0  0  0  0  0
  143.2653   78.3578  216.8603 H   0  0  0  0  0  0  0  0  0  0  0  0
  143.4897   76.1616  217.9291 H   0  0  0  0  0  0  0  0  0  0  0  0
  138.7792   69.8861  221.8929 H   0  0  0  0  0  0  0  0  0  0  0  0
  138.9773   68.2538  223.7601 H   0  0  0  0  0  0  0  0  0  0  0  0
  139.7154   67.8441  226.1034 H   0  0  0  0  0  0  0  0  0  0  0  0
  141.5032   71.0409  228.3525 H   0  0  0  0  0  0  0  0  0  0  0  0
  141.2275   72.5387  226.3740 H   0  0  0  0  0  0  0  0  0  0  0  0
  1  2  2  0
  2  3  1  0
  3  4  1  0
  4  5  1  0
  5  6  2  0
  5  7  1  0
  7  8  1  0
  8  9  1  0
  9 10  1  0
 10 11  1  0
 11 12  1  0
 12 13  2  0
 13 14  1  0
 14 15  2  0
 15 16  1  0
 15 17  1  0
 17 18  2  0
  2 19  1  0
 19 20  2  0
 20 21  1  0
 21 22  2  0
 22 23  1  0
 23 24  2  0
 24 25  1  0
 24 26  1  0
 26 27  2  0
 27 28  1  0
 28 29  2  0
 11  7  1  0
 18 12  1  0
 29 19  1  0
 28 22  1  0
  3 30  1  0
  4 31  1  0
  4 32  1  0
  8 33  1  0
  8 34  1  0
  9 35  1  0
  9 36  1  0
 10 37  1  0
 10 38  1  0
 11 39  1  1
 13 40  1  0
 14 41  1  0
 17 42  1  0
 18 43  1  0
 20 44  1  0
 21 45  1  0
 23 46  1  0
 26 47  1  0
 27 48  1  0
M  END
>  <smiles>  (90) 
O=C(NCC(=O)N1CCCC1c1ccc(F)cc1)c1ccc2cc(Cl)ccc2n1

>  <score_type>  (90) 
oracle

>  <origin>  (90) 
autodockgpu

>  <m_score__min__energy>  (90) 
-8.7400000000000002

>  <m_primary>  (90) 
energy

>  <rmsd>  (90) 
2.5979358424178463

>  <m_score__min__rmsd>  (90) 
2.5979358424178463

>  <meeko>  (90) 
{"free_energy": -7.56, "intermolecular_energy": -9.05, "internal_energy": -1.77, "cluster_size": 2, "cluster_id": 6, "rank_in_cluster": 2}

>  <energy>  (90) 
-7.94

>  <cluster_rmsd>  (90) 
0.25

>  <cluster>  (90) 
4

$$$$

     RDKit          3D

 48 51  0  0  0  0  0  0  0  0999 V2000
  139.6820   72.7400  220.4410 O   0  0  0  0  0  0  0  0  0  0  0  0
  140.2480   72.9940  221.5600 C   0  0  0  0  0  0  0  0  0  0  0  0
  141.0440   74.1790  221.7300 N   0  0  0  0  0  0  0  0  0  0  0  0
  141.2620   75.1240  220.6750 C   0  0  0  0  0  0  0  0  0  0  0  0
  140.5270   76.3730  220.6810 C   0  0  0  0  0  0  0  0  0  0  0  0
  140.8960   77.2260  219.7790 O   0  0  0  0  0  0  0  0  0  0  0  0
  139.4660   76.7930  221.5210 N   0  0  0  0  0  0  0  0  0  0  0  0
  138.4290   75.9920  222.1870 C   0  0  0  0  0  0  0  0  0  0  0  0
  137.2940   77.0250  222.4040 C   0  0  0  0  0  0  0  0  0  0  0  0
  138.1930   78.1650  222.9130 C   0  0  0  0  0  0  0  0  0  0  0  0
  139.2430   78.1910  221.8470 C   0  0  1  0  0  0  0  0  0  0  0  0
  140.4720   78.9150  222.2230 C   0  0  0  0  0  0  0  0  0  0  0  0
  141.0770   79.8420  221.4330 C   0  0  0  0  0  0  0  0  0  0  0  0
  142.2270   80.4760  221.8590 C   0  0  0  0  0  0  0  0  0  0  0  0
  142.8170   80.2120  223.0830 C   0  0  0  0  0  0  0  0  0  0  0  0
  143.9430   80.8270  223.5100 F   0  0  0  0  0  0  0  0  0  0  0  0
  142.2050   79.2720  223.8850 C   0  0  0  0  0  0  0  0  0  0  0  0
  141.0600   78.6440  223.4580 C   0  0  0  0  0  0  0  0  0  0  0  0
  140.0680   72.0580  222.6590 C   0  0  0  0  0  0  0  0  0  0  0  0
  139.2680   70.9460  222.5110 C   0  0  0  0  0  0  0  0  0  0  0  0
  139.0740   70.0320  223.5380 C   0  0  0  0  0  0  0  0  0  0  0  0
  139.7130   70.2630  224.7380 C   0  0  0  0  0  0  0  0  0  0  0  0
  139.5940   69.4250  225.8280 C   0  0  0  0  0  0  0  0  0  0  0  0
  140.2520   69.6910  227.0180 C   0  0  0  0  0  0  0  0  0  0  0  0
  140.1050   68.6320  228.4020 Cl  0  0  0  0  0  0  0  0  0  0  0  0
  141.0450   70.8130  227.1300 C   0  0  0  0  0  0  0  0  0  0  0  0
  141.1640   71.6600  226.0290 C   0  0  0  0  0  0  0  0  0  0  0  0
  140.5070   71.3910  224.8460 C   0  0  0  0  0  0  0  0  0  0  0  0
  140.6800   72.2640  223.8320 N   0  0  0  0  0  0  0  0  0  0  0  0
  141.4530   74.2810  222.7060 H   0  0  0  0  0  0  0  0  0  0  0  0
  142.3316   75.3805  220.6894 H   0  0  0  0  0  0  0  0  0  0  0  0
  140.8897   74.6059  219.7789 H   0  0  0  0  0  0  0  0  0  0  0  0
  138.0946   75.1629  221.5461 H   0  0  0  0  0  0  0  0  0  0  0  0
  138.7727   75.5165  223.1175 H   0  0  0  0  0  0  0  0  0  0  0  0
  136.7720   77.2824  221.4706 H   0  0  0  0  0  0  0  0  0  0  0  0
  136.4611   76.7198  223.0545 H   0  0  0  0  0  0  0  0  0  0  0  0
  137.6467   79.1183  222.9665 H   0  0  0  0  0  0  0  0  0  0  0  0
  138.5815   78.0186  223.9316 H   0  0  0  0  0  0  0  0  0  0  0  0
  138.9073   78.7669  220.9720 H   0  0  0  0  0  0  0  0  0  0  0  0
  140.6482   80.0877  220.4503 H   0  0  0  0  0  0  0  0  0  0  0  0
  142.6937   81.2217  221.1985 H   0  0  0  0  0  0  0  0  0  0  0  0
  142.6338   79.0247  224.8673 H   0  0  0  0  0  0  0  0  0  0  0  0
  140.5890   77.8987  224.1157 H   0  0  0  0  0  0  0  0  0  0  0  0
  138.7662   70.7767  221.5469 H   0  0  0  0  0  0  0  0  0  0  0  0
  138.4305   69.1508  223.3987 H   0  0  0  0  0  0  0  0  0  0  0  0
  138.9635   68.5270  225.7505 H   0  0  0  0  0  0  0  0  0  0  0  0
  141.5731   71.0355  228.0689 H   0  0  0  0  0  0  0  0  0  0  0  0
  141.7932   72.5591  226.1049 H   0  0  0  0  0  0  0  0  0  0  0  0
  1  2  2  0
  2  3  1  0
  3  4  1  0
  4  5  1  0
  5  6  2  0
  5  7  1  0
  7  8  1  0
  8  9  1  0
  9 10  1  0
 10 11  1  0
 11 12  1  0
 12 13  2  0
 13 14  1  0
 14 15  2  0
 15 16  1  0
 15 17  1  0
 17 18  2  0
  2 19  1  0
 19 20  2  0
 20 21  1  0
 21 22  2  0
 22 23  1  0
 23 24  2  0
 24 25  1  0
 24 26  1  0
 26 27  2  0
 27 28  1  0
 28 29  2  0
 11  7  1  0
 18 12  1  0
 29 19  1  0
 28 22  1  0
  3 30  1  0
  4 31  1  0
  4 32  1  0
  8 33  1  0
  8 34  1  0
  9 35  1  0
  9 36  1  0
 10 37  1  0
 10 38  1  0
 11 39  1  6
 13 40  1  0
 14 41  1  0
 17 42  1  0
 18 43  1  0
 20 44  1  0
 21 45  1  0
 23 46  1  0
 26 47  1  0
 27 48  1  0
M  END
>  <smiles>  (91) 
O=C(NCC(=O)N1CCCC1c1ccc(F)cc1)c1ccc2cc(Cl)ccc2n1

>  <score_type>  (91) 
oracle

>  <origin>  (91) 
autodockgpu

>  <m_score__min__energy>  (91) 
-8.7400000000000002

>  <m_primary>  (91) 
energy

>  <rmsd>  (91) 
3.2054890976745996

>  <m_score__min__rmsd>  (91) 
3.2054890976745996

>  <meeko>  (91) 
{"free_energy": -7.78, "intermolecular_energy": -9.27, "internal_energy": -1.74, "cluster_size": 12, "cluster_id": 1, "rank_in_cluster": 7}

>  <energy>  (91) 
-7.89

>  <cluster_rmsd>  (91) 
1.82

>  <cluster>  (91) 
4

$$$$

     RDKit          3D

 48 51  0  0  0  0  0  0  0  0999 V2000
  139.8400   72.1340  220.7250 O   0  0  0  0  0  0  0  0  0  0  0  0
  139.1630   72.3170  221.7950 C   0  0  0  0  0  0  0  0  0  0  0  0
  138.1960   73.3770  221.8830 N   0  0  0  0  0  0  0  0  0  0  0  0
  137.9430   74.2860  220.8050 C   0  0  0  0  0  0  0  0  0  0  0  0
  138.8980   75.3410  220.5300 C   0  0  0  0  0  0  0  0  0  0  0  0
  139.2770   75.4240  219.2940 O   0  0  0  0  0  0  0  0  0  0  0  0
  139.4700   76.2930  221.4090 N   0  0  0  0  0  0  0  0  0  0  0  0
  138.9580   76.8140  222.6840 C   0  0  0  0  0  0  0  0  0  0  0  0
  139.6790   78.1800  222.8050 C   0  0  0  0  0  0  0  0  0  0  0  0
  141.0730   77.6760  222.3900 C   0  0  0  0  0  0  0  0  0  0  0  0
  140.7410   76.9410  221.1300 C   0  0  1  0  0  0  0  0  0  0  0  0
  141.7920   76.0110  220.6740 C   0  0  0  0  0  0  0  0  0  0  0  0
  142.7490   76.3360  219.7650 C   0  0  0  0  0  0  0  0  0  0  0  0
  143.6990   75.4070  219.3900 C   0  0  0  0  0  0  0  0  0  0  0  0
  143.7310   74.1220  219.9040 C   0  0  0  0  0  0  0  0  0  0  0  0
  144.6560   73.2050  219.5450 F   0  0  0  0  0  0  0  0  0  0  0  0
  142.7610   73.7910  220.8260 C   0  0  0  0  0  0  0  0  0  0  0  0
  141.8180   74.7190  221.1970 C   0  0  0  0  0  0  0  0  0  0  0  0
  139.3920   71.4270  222.9240 C   0  0  0  0  0  0  0  0  0  0  0  0
  138.9990   70.1080  222.8690 C   0  0  0  0  0  0  0  0  0  0  0  0
  139.2020   69.2310  223.9270 C   0  0  0  0  0  0  0  0  0  0  0  0
  139.8190   69.7180  225.0590 C   0  0  0  0  0  0  0  0  0  0  0  0
  140.0730   68.9400  226.1720 C   0  0  0  0  0  0  0  0  0  0  0  0
  140.6960   69.4650  227.2920 C   0  0  0  0  0  0  0  0  0  0  0  0
  141.0190   68.4840  228.7040 Cl  0  0  0  0  0  0  0  0  0  0  0  0
  141.0760   70.7900  227.3110 C   0  0  0  0  0  0  0  0  0  0  0  0
  140.8200   71.5760  226.1880 C   0  0  0  0  0  0  0  0  0  0  0  0
  140.1990   71.0480  225.0740 C   0  0  0  0  0  0  0  0  0  0  0  0
  139.9900   71.8800  224.0320 N   0  0  0  0  0  0  0  0  0  0  0  0
  137.6930   73.4180  222.8190 H   0  0  0  0  0  0  0  0  0  0  0  0
  137.8583   73.6826  219.8892 H   0  0  0  0  0  0  0  0  0  0  0  0
  137.0408   74.8273  221.1259 H   0  0  0  0  0  0  0  0  0  0  0  0
  137.8661   76.9429  222.6505 H   0  0  0  0  0  0  0  0  0  0  0  0
  139.1439   76.1442  223.5365 H   0  0  0  0  0  0  0  0  0  0  0  0
  139.2775   78.9334  222.1113 H   0  0  0  0  0  0  0  0  0  0  0  0
  139.6046   78.6983  223.7724 H   0  0  0  0  0  0  0  0  0  0  0  0
  141.7656   78.5097  222.2020 H   0  0  0  0  0  0  0  0  0  0  0  0
  141.5829   77.0677  223.1515 H   0  0  0  0  0  0  0  0  0  0  0  0
  140.6705   77.6301  220.2755 H   0  0  0  0  0  0  0  0  0  0  0  0
  142.7666   77.3444  219.3259 H   0  0  0  0  0  0  0  0  0  0  0  0
  144.4613   75.6997  218.6530 H   0  0  0  0  0  0  0  0  0  0  0  0
  142.7419   72.7827  221.2652 H   0  0  0  0  0  0  0  0  0  0  0  0
  141.0545   74.4315  221.9348 H   0  0  0  0  0  0  0  0  0  0  0  0
  138.5082   69.7369  221.9572 H   0  0  0  0  0  0  0  0  0  0  0  0
  138.8804   68.1810  223.8633 H   0  0  0  0  0  0  0  0  0  0  0  0
  139.7742   67.8814  226.1686 H   0  0  0  0  0  0  0  0  0  0  0  0
  141.5714   71.2188  228.1946 H   0  0  0  0  0  0  0  0  0  0  0  0
  141.1180   72.6349  226.1899 H   0  0  0  0  0  0  0  0  0  0  0  0
  1  2  2  0
  2  3  1  0
  3  4  1  0
  4  5  1  0
  5  6  2  0
  5  7  1  0
  7  8  1  0
  8  9  1  0
  9 10  1  0
 10 11  1  0
 11 12  1  0
 12 13  2  0
 13 14  1  0
 14 15  2  0
 15 16  1  0
 15 17  1  0
 17 18  2  0
  2 19  1  0
 19 20  2  0
 20 21  1  0
 21 22  2  0
 22 23  1  0
 23 24  2  0
 24 25  1  0
 24 26  1  0
 26 27  2  0
 27 28  1  0
 28 29  2  0
 11  7  1  0
 18 12  1  0
 29 19  1  0
 28 22  1  0
  3 30  1  0
  4 31  1  0
  4 32  1  0
  8 33  1  0
  8 34  1  0
  9 35  1  0
  9 36  1  0
 10 37  1  0
 10 38  1  0
 11 39  1  6
 13 40  1  0
 14 41  1  0
 17 42  1  0
 18 43  1  0
 20 44  1  0
 21 45  1  0
 23 46  1  0
 26 47  1  0
 27 48  1  0
M  END
>  <smiles>  (92) 
O=C(NCC(=O)N1CCCC1c1ccc(F)cc1)c1ccc2cc(Cl)ccc2n1

>  <score_type>  (92) 
oracle

>  <origin>  (92) 
autodockgpu

>  <m_score__min__energy>  (92) 
-8.7400000000000002

>  <m_primary>  (92) 
energy

>  <rmsd>  (92) 
2.616717628149986

>  <m_score__min__rmsd>  (92) 
2.616717628149986

>  <meeko>  (92) 
{"free_energy": -7.58, "intermolecular_energy": -9.08, "internal_energy": -1.63, "cluster_size": 10, "cluster_id": 4, "rank_in_cluster": 9}

>  <energy>  (92) 
-7.65

>  <cluster_rmsd>  (92) 
0.93

>  <cluster>  (92) 
4

$$$$

     RDKit          3D

 48 51  0  0  0  0  0  0  0  0999 V2000
  140.5470   72.8770  221.0180 O   0  0  0  0  0  0  0  0  0  0  0  0
  139.6920   72.8930  221.9700 C   0  0  0  0  0  0  0  0  0  0  0  0
  138.6270   73.8580  221.9870 N   0  0  0  0  0  0  0  0  0  0  0  0
  138.4660   74.8520  220.9680 C   0  0  0  0  0  0  0  0  0  0  0  0
  139.3510   75.9990  220.9520 C   0  0  0  0  0  0  0  0  0  0  0  0
  138.9940   76.9730  221.7280 O   0  0  0  0  0  0  0  0  0  0  0  0
  140.5450   76.2090  220.2180 N   0  0  0  0  0  0  0  0  0  0  0  0
  140.8310   75.9410  218.8020 C   0  0  0  0  0  0  0  0  0  0  0  0
  142.3730   75.7970  218.7910 C   0  0  0  0  0  0  0  0  0  0  0  0
  142.6670   77.0160  219.6820 C   0  0  0  0  0  0  0  0  0  0  0  0
  141.7450   76.7520  220.8310 C   0  0  1  0  0  0  0  0  0  0  0  0
  141.4940   77.9250  221.6900 C   0  0  0  0  0  0  0  0  0  0  0  0
  141.4450   77.8730  223.0480 C   0  0  0  0  0  0  0  0  0  0  0  0
  141.2040   79.0180  223.7810 C   0  0  0  0  0  0  0  0  0  0  0  0
  141.0020   80.2540  223.1910 C   0  0  0  0  0  0  0  0  0  0  0  0
  140.7650   81.3810  223.8990 F   0  0  0  0  0  0  0  0  0  0  0  0
  141.0500   80.3080  221.8150 C   0  0  0  0  0  0  0  0  0  0  0  0
  141.2910   79.1670  221.0880 C   0  0  0  0  0  0  0  0  0  0  0  0
  139.8200   71.9110  223.0370 C   0  0  0  0  0  0  0  0  0  0  0  0
  139.4300   70.6040  222.8390 C   0  0  0  0  0  0  0  0  0  0  0  0
  139.5380   69.6420  223.8340 C   0  0  0  0  0  0  0  0  0  0  0  0
  140.0540   70.0280  225.0520 C   0  0  0  0  0  0  0  0  0  0  0  0
  140.2080   69.1580  226.1140 C   0  0  0  0  0  0  0  0  0  0  0  0
  140.7310   69.5840  227.3240 C   0  0  0  0  0  0  0  0  0  0  0  0
  140.9280   68.4870  228.6730 Cl  0  0  0  0  0  0  0  0  0  0  0  0
  141.1110   70.8990  227.4870 C   0  0  0  0  0  0  0  0  0  0  0  0
  140.9550   71.7770  226.4140 C   0  0  0  0  0  0  0  0  0  0  0  0
  140.4330   71.3490  225.2100 C   0  0  0  0  0  0  0  0  0  0  0  0
  140.3190   72.2650  224.2270 N   0  0  0  0  0  0  0  0  0  0  0  0
  137.9780   73.7620  222.8230 H   0  0  0  0  0  0  0  0  0  0  0  0
  138.5836   74.3421  220.0005 H   0  0  0  0  0  0  0  0  0  0  0  0
  137.4785   75.2871  221.1813 H   0  0  0  0  0  0  0  0  0  0  0  0
  140.3431   75.0139  218.4668 H   0  0  0  0  0  0  0  0  0  0  0  0
  140.4596   76.7240  218.1245 H   0  0  0  0  0  0  0  0  0  0  0  0
  142.7129   74.8524  219.2407 H   0  0  0  0  0  0  0  0  0  0  0  0
  142.8631   75.7706  217.8066 H   0  0  0  0  0  0  0  0  0  0  0  0
  143.7187   77.0382  220.0036 H   0  0  0  0  0  0  0  0  0  0  0  0
  142.5145   77.9877  219.1895 H   0  0  0  0  0  0  0  0  0  0  0  0
  142.1931   76.0474  221.5471 H   0  0  0  0  0  0  0  0  0  0  0  0
  141.5981   76.9142  223.5650 H   0  0  0  0  0  0  0  0  0  0  0  0
  141.1712   78.9452  224.8781 H   0  0  0  0  0  0  0  0  0  0  0  0
  140.8951   81.2662  221.2975 H   0  0  0  0  0  0  0  0  0  0  0  0
  141.3251   79.2355  219.9907 H   0  0  0  0  0  0  0  0  0  0  0  0
  139.0197   70.3136  221.8606 H   0  0  0  0  0  0  0  0  0  0  0  0
  139.2215   68.6037  223.6556 H   0  0  0  0  0  0  0  0  0  0  0  0
  139.9093   68.1059  225.9965 H   0  0  0  0  0  0  0  0  0  0  0  0
  141.5284   71.2487  228.4428 H   0  0  0  0  0  0  0  0  0  0  0  0
  141.2534   72.8294  226.5296 H   0  0  0  0  0  0  0  0  0  0  0  0
  1  2  2  0
  2  3  1  0
  3  4  1  0
  4  5  1  0
  5  6  2  0
  5  7  1  0
  7  8  1  0
  8  9  1  0
  9 10  1  0
 10 11  1  0
 11 12  1  0
 12 13  2  0
 13 14  1  0
 14 15  2  0
 15 16  1  0
 15 17  1  0
 17 18  2  0
  2 19  1  0
 19 20  2  0
 20 21  1  0
 21 22  2  0
 22 23  1  0
 23 24  2  0
 24 25  1  0
 24 26  1  0
 26 27  2  0
 27 28  1  0
 28 29  2  0
 11  7  1  0
 18 12  1  0
 29 19  1  0
 28 22  1  0
  3 30  1  0
  4 31  1  0
  4 32  1  0
  8 33  1  0
  8 34  1  0
  9 35  1  0
  9 36  1  0
 10 37  1  0
 10 38  1  0
 11 39  1  1
 13 40  1  0
 14 41  1  0
 17 42  1  0
 18 43  1  0
 20 44  1  0
 21 45  1  0
 23 46  1  0
 26 47  1  0
 27 48  1  0
M  END
>  <smiles>  (93) 
O=C(NCC(=O)N1CCCC1c1ccc(F)cc1)c1ccc2cc(Cl)ccc2n1

>  <score_type>  (93) 
oracle

>  <origin>  (93) 
autodockgpu

>  <m_score__min__energy>  (93) 
-8.7400000000000002

>  <m_primary>  (93) 
energy

>  <rmsd>  (93) 
1.725289667572907

>  <m_score__min__rmsd>  (93) 
1.725289667572907

>  <meeko>  (93) 
{"free_energy": -8.07, "intermolecular_energy": -9.56, "internal_energy": -1.27, "cluster_size": 12, "cluster_id": 1, "rank_in_cluster": 5}

>  <energy>  (93) 
-7.58

>  <cluster_rmsd>  (93) 
1.55

>  <cluster>  (93) 
4

$$$$

     RDKit          3D

 48 51  0  0  0  0  0  0  0  0999 V2000
  139.2420   71.9500  220.6900 O   0  0  0  0  0  0  0  0  0  0  0  0
  139.5050   72.3990  221.8580 C   0  0  0  0  0  0  0  0  0  0  0  0
  139.7050   73.8060  222.0780 N   0  0  0  0  0  0  0  0  0  0  0  0
  139.6370   74.7720  221.0230 C   0  0  0  0  0  0  0  0  0  0  0  0
  140.4630   75.9600  221.0960 C   0  0  0  0  0  0  0  0  0  0  0  0
  140.9430   76.2180  222.2710 O   0  0  0  0  0  0  0  0  0  0  0  0
  140.8250   76.8740  220.0750 N   0  0  0  0  0  0  0  0  0  0  0  0
  140.7320   76.7290  218.6160 C   0  0  0  0  0  0  0  0  0  0  0  0
  141.7990   77.7320  218.1090 C   0  0  0  0  0  0  0  0  0  0  0  0
  141.4120   78.8860  219.0500 C   0  0  0  0  0  0  0  0  0  0  0  0
  141.3950   78.1780  220.3680 C   0  0  1  0  0  0  0  0  0  0  0  0
  140.6890   78.9060  221.4400 C   0  0  0  0  0  0  0  0  0  0  0  0
  139.3490   79.1330  221.4470 C   0  0  0  0  0  0  0  0  0  0  0  0
  138.7640   79.8240  222.4890 C   0  0  0  0  0  0  0  0  0  0  0  0
  139.4900   80.3160  223.5600 C   0  0  0  0  0  0  0  0  0  0  0  0
  138.9290   80.9940  224.5850 F   0  0  0  0  0  0  0  0  0  0  0  0
  140.8500   80.0870  223.5540 C   0  0  0  0  0  0  0  0  0  0  0  0
  141.4280   79.3980  222.5160 C   0  0  0  0  0  0  0  0  0  0  0  0
  139.5980   71.4560  222.9630 C   0  0  0  0  0  0  0  0  0  0  0  0
  139.0900   70.1810  222.8420 C   0  0  0  0  0  0  0  0  0  0  0  0
  139.1610   69.2550  223.8740 C   0  0  0  0  0  0  0  0  0  0  0  0
  139.7640   69.6460  225.0510 C   0  0  0  0  0  0  0  0  0  0  0  0
  139.8920   68.8120  226.1440 C   0  0  0  0  0  0  0  0  0  0  0  0
  140.5050   69.2410  227.3100 C   0  0  0  0  0  0  0  0  0  0  0  0
  140.6690   68.1890  228.6980 Cl  0  0  0  0  0  0  0  0  0  0  0  0
  141.0020   70.5230  227.3960 C   0  0  0  0  0  0  0  0  0  0  0  0
  140.8730   71.3660  226.2910 C   0  0  0  0  0  0  0  0  0  0  0  0
  140.2610   70.9350  225.1320 C   0  0  0  0  0  0  0  0  0  0  0  0
  140.1800   71.8150  224.1130 N   0  0  0  0  0  0  0  0  0  0  0  0
  139.9070   74.0540  223.0920 H   0  0  0  0  0  0  0  0  0  0  0  0
  139.9060   74.2506  220.0925 H   0  0  0  0  0  0  0  0  0  0  0  0
  138.6112   75.1629  221.0930 H   0  0  0  0  0  0  0  0  0  0  0  0
  140.9715   75.7021  218.3028 H   0  0  0  0  0  0  0  0  0  0  0  0
  139.7245   76.9240  218.2199 H   0  0  0  0  0  0  0  0  0  0  0  0
  142.8266   77.3767  218.2755 H   0  0  0  0  0  0  0  0  0  0  0  0
  141.8048   77.9497  217.0308 H   0  0  0  0  0  0  0  0  0  0  0  0
  142.1611   79.6914  219.0325 H   0  0  0  0  0  0  0  0  0  0  0  0
  140.4687   79.3889  218.7906 H   0  0  0  0  0  0  0  0  0  0  0  0
  142.4084   78.0966  220.7879 H   0  0  0  0  0  0  0  0  0  0  0  0
  138.7273   78.7641  220.6179 H   0  0  0  0  0  0  0  0  0  0  0  0
  137.6769   79.9904  222.4674 H   0  0  0  0  0  0  0  0  0  0  0  0
  141.4728   80.4568  224.3819 H   0  0  0  0  0  0  0  0  0  0  0  0
  142.5146   79.2277  222.5338 H   0  0  0  0  0  0  0  0  0  0  0  0
  138.6121   69.8869  221.8959 H   0  0  0  0  0  0  0  0  0  0  0  0
  138.7494   68.2417  223.7566 H   0  0  0  0  0  0  0  0  0  0  0  0
  139.4992   67.7860  226.0878 H   0  0  0  0  0  0  0  0  0  0  0  0
  141.4905   70.8751  228.3166 H   0  0  0  0  0  0  0  0  0  0  0  0
  141.2662   72.3919  226.3452 H   0  0  0  0  0  0  0  0  0  0  0  0
  1  2  2  0
  2  3  1  0
  3  4  1  0
  4  5  1  0
  5  6  2  0
  5  7  1  0
  7  8  1  0
  8  9  1  0
  9 10  1  0
 10 11  1  0
 11 12  1  0
 12 13  2  0
 13 14  1  0
 14 15  2  0
 15 16  1  0
 15 17  1  0
 17 18  2  0
  2 19  1  0
 19 20  2  0
 20 21  1  0
 21 22  2  0
 22 23  1  0
 23 24  2  0
 24 25  1  0
 24 26  1  0
 26 27  2  0
 27 28  1  0
 28 29  2  0
 11  7  1  0
 18 12  1  0
 29 19  1  0
 28 22  1  0
  3 30  1  0
  4 31  1  0
  4 32  1  0
  8 33  1  0
  8 34  1  0
  9 35  1  0
  9 36  1  0
 10 37  1  0
 10 38  1  0
 11 39  1  1
 13 40  1  0
 14 41  1  0
 17 42  1  0
 18 43  1  0
 20 44  1  0
 21 45  1  0
 23 46  1  0
 26 47  1  0
 27 48  1  0
M  END
>  <smiles>  (94) 
O=C(NCC(=O)N1CCCC1c1ccc(F)cc1)c1ccc2cc(Cl)ccc2n1

>  <score_type>  (94) 
oracle

>  <origin>  (94) 
autodockgpu

>  <m_score__min__energy>  (94) 
-8.7400000000000002

>  <m_primary>  (94) 
energy

>  <rmsd>  (94) 
1.632998216258771

>  <m_score__min__rmsd>  (94) 
1.632998216258771

>  <meeko>  (94) 
{"free_energy": -7.63, "intermolecular_energy": -9.12, "internal_energy": -1.63, "cluster_size": 12, "cluster_id": 1, "rank_in_cluster": 11}

>  <energy>  (94) 
-7.52

>  <cluster_rmsd>  (94) 
0.78

>  <cluster>  (94) 
4

$$$$

     RDKit          3D

 48 51  0  0  0  0  0  0  0  0999 V2000
  140.9790   72.6070  220.8630 O   0  0  0  0  0  0  0  0  0  0  0  0
  140.2610   72.9610  221.8610 C   0  0  0  0  0  0  0  0  0  0  0  0
  139.6410   74.2570  221.9000 N   0  0  0  0  0  0  0  0  0  0  0  0
  139.7960   75.2220  220.8520 C   0  0  0  0  0  0  0  0  0  0  0  0
  139.5560   76.6220  221.1370 C   0  0  0  0  0  0  0  0  0  0  0  0
  138.3610   77.0370  220.8580 O   0  0  0  0  0  0  0  0  0  0  0  0
  140.4300   77.5970  221.6770 N   0  0  0  0  0  0  0  0  0  0  0  0
  140.6910   77.9420  223.0820 C   0  0  0  0  0  0  0  0  0  0  0  0
  141.2120   79.3980  222.9800 C   0  0  0  0  0  0  0  0  0  0  0  0
  142.1580   79.1600  221.7910 C   0  0  0  0  0  0  0  0  0  0  0  0
  141.2400   78.4620  220.8370 C   0  0  1  0  0  0  0  0  0  0  0  0
  141.9270   77.7510  219.7420 C   0  0  0  0  0  0  0  0  0  0  0  0
  141.9070   78.1570  218.4440 C   0  0  0  0  0  0  0  0  0  0  0  0
  142.5770   77.4340  217.4780 C   0  0  0  0  0  0  0  0  0  0  0  0
  143.2900   76.2830  217.7650 C   0  0  0  0  0  0  0  0  0  0  0  0
  143.9490   75.5680  216.8270 F   0  0  0  0  0  0  0  0  0  0  0  0
  143.3110   75.8710  219.0810 C   0  0  0  0  0  0  0  0  0  0  0  0
  142.6440   76.5930  220.0400 C   0  0  0  0  0  0  0  0  0  0  0  0
  140.0830   72.0210  222.9590 C   0  0  0  0  0  0  0  0  0  0  0  0
  139.2820   70.9100  222.8090 C   0  0  0  0  0  0  0  0  0  0  0  0
  139.0900   69.9930  223.8340 C   0  0  0  0  0  0  0  0  0  0  0  0
  139.7320   70.2210  225.0320 C   0  0  0  0  0  0  0  0  0  0  0  0
  139.6150   69.3790  226.1210 C   0  0  0  0  0  0  0  0  0  0  0  0
  140.2760   69.6410  227.3090 C   0  0  0  0  0  0  0  0  0  0  0  0
  140.1320   68.5790  228.6910 Cl  0  0  0  0  0  0  0  0  0  0  0  0
  141.0700   70.7630  227.4230 C   0  0  0  0  0  0  0  0  0  0  0  0
  141.1880   71.6130  226.3240 C   0  0  0  0  0  0  0  0  0  0  0  0
  140.5270   71.3480  225.1420 C   0  0  0  0  0  0  0  0  0  0  0  0
  140.6980   72.2240  224.1300 N   0  0  0  0  0  0  0  0  0  0  0  0
  139.0640   74.4270  222.7760 H   0  0  0  0  0  0  0  0  0  0  0  0
  140.8321   75.1408  220.4915 H   0  0  0  0  0  0  0  0  0  0  0  0
  139.0011   74.9613  220.1377 H   0  0  0  0  0  0  0  0  0  0  0  0
  139.7701   77.8906  223.6814 H   0  0  0  0  0  0  0  0  0  0  0  0
  141.3961   77.2582  223.5773 H   0  0  0  0  0  0  0  0  0  0  0  0
  140.4134   80.1179  222.7478 H   0  0  0  0  0  0  0  0  0  0  0  0
  141.6543   79.8330  223.8884 H   0  0  0  0  0  0  0  0  0  0  0  0
  142.5306   80.1074  221.3743 H   0  0  0  0  0  0  0  0  0  0  0  0
  143.0695   78.5969  222.0401 H   0  0  0  0  0  0  0  0  0  0  0  0
  140.6249   79.1829  220.2784 H   0  0  0  0  0  0  0  0  0  0  0  0
  141.3544   79.0656  218.1629 H   0  0  0  0  0  0  0  0  0  0  0  0
  142.5429   77.7872  216.4368 H   0  0  0  0  0  0  0  0  0  0  0  0
  143.8631   74.9623  219.3630 H   0  0  0  0  0  0  0  0  0  0  0  0
  142.6766   76.2445  221.0828 H   0  0  0  0  0  0  0  0  0  0  0  0
  138.7780   70.7439  221.8455 H   0  0  0  0  0  0  0  0  0  0  0  0
  138.4458   69.1124  223.6941 H   0  0  0  0  0  0  0  0  0  0  0  0
  138.9835   68.4817  226.0426 H   0  0  0  0  0  0  0  0  0  0  0  0
  141.5994   70.9828  228.3618 H   0  0  0  0  0  0  0  0  0  0  0  0
  141.8191   72.5107  226.4006 H   0  0  0  0  0  0  0  0  0  0  0  0
  1  2  2  0
  2  3  1  0
  3  4  1  0
  4  5  1  0
  5  6  2  0
  5  7  1  0
  7  8  1  0
  8  9  1  0
  9 10  1  0
 10 11  1  0
 11 12  1  0
 12 13  2  0
 13 14  1  0
 14 15  2  0
 15 16  1  0
 15 17  1  0
 17 18  2  0
  2 19  1  0
 19 20  2  0
 20 21  1  0
 21 22  2  0
 22 23  1  0
 23 24  2  0
 24 25  1  0
 24 26  1  0
 26 27  2  0
 27 28  1  0
 28 29  2  0
 11  7  1  0
 18 12  1  0
 29 19  1  0
 28 22  1  0
  3 30  1  0
  4 31  1  0
  4 32  1  0
  8 33  1  0
  8 34  1  0
  9 35  1  0
  9 36  1  0
 10 37  1  0
 10 38  1  0
 11 39  1  6
 13 40  1  0
 14 41  1  0
 17 42  1  0
 18 43  1  0
 20 44  1  0
 21 45  1  0
 23 46  1  0
 26 47  1  0
 27 48  1  0
M  END
>  <smiles>  (95) 
O=C(NCC(=O)N1CCCC1c1ccc(F)cc1)c1ccc2cc(Cl)ccc2n1

>  <score_type>  (95) 
oracle

>  <origin>  (95) 
autodockgpu

>  <m_score__min__energy>  (95) 
-8.7400000000000002

>  <m_primary>  (95) 
energy

>  <rmsd>  (95) 
3.1967134102775585

>  <m_score__min__rmsd>  (95) 
3.1967134102775585

>  <meeko>  (95) 
{"free_energy": -7.89, "intermolecular_energy": -9.39, "internal_energy": -1.28, "cluster_size": 10, "cluster_id": 4, "rank_in_cluster": 7}

>  <energy>  (95) 
-7.75

>  <cluster_rmsd>  (95) 
0.0

>  <cluster>  (95) 
5

$$$$

     RDKit          3D

 48 51  0  0  0  0  0  0  0  0999 V2000
  140.5240   72.4840  220.7240 O   0  0  0  0  0  0  0  0  0  0  0  0
  140.1730   72.8890  221.8850 C   0  0  0  0  0  0  0  0  0  0  0  0
  139.8360   74.2680  222.1140 N   0  0  0  0  0  0  0  0  0  0  0  0
  139.8840   75.2580  221.0800 C   0  0  0  0  0  0  0  0  0  0  0  0
  141.1680   75.6570  220.5400 C   0  0  0  0  0  0  0  0  0  0  0  0
  142.1580   74.8880  220.8660 O   0  0  0  0  0  0  0  0  0  0  0  0
  141.4970   76.7550  219.7080 N   0  0  0  0  0  0  0  0  0  0  0  0
  141.4230   76.8740  218.2450 C   0  0  0  0  0  0  0  0  0  0  0  0
  142.4470   77.9980  217.9460 C   0  0  0  0  0  0  0  0  0  0  0  0
  142.0000   78.9440  219.0740 C   0  0  0  0  0  0  0  0  0  0  0  0
  142.0030   78.0080  220.2420 C   0  0  1  0  0  0  0  0  0  0  0  0
  141.2550   78.4980  221.4160 C   0  0  0  0  0  0  0  0  0  0  0  0
  141.8320   78.8050  222.6080 C   0  0  0  0  0  0  0  0  0  0  0  0
  141.0610   79.2580  223.6590 C   0  0  0  0  0  0  0  0  0  0  0  0
  139.6890   79.4200  223.5640 C   0  0  0  0  0  0  0  0  0  0  0  0
  138.9240   79.8630  224.5870 F   0  0  0  0  0  0  0  0  0  0  0  0
  139.1030   79.1090  222.3560 C   0  0  0  0  0  0  0  0  0  0  0  0
  139.8740   78.6590  221.3110 C   0  0  0  0  0  0  0  0  0  0  0  0
  140.1210   71.9230  222.9730 C   0  0  0  0  0  0  0  0  0  0  0  0
  139.5740   70.6740  222.7770 C   0  0  0  0  0  0  0  0  0  0  0  0
  139.5080   69.7280  223.7920 C   0  0  0  0  0  0  0  0  0  0  0  0
  140.0130   70.0710  225.0280 C   0  0  0  0  0  0  0  0  0  0  0  0
  140.0020   69.2130  226.1100 C   0  0  0  0  0  0  0  0  0  0  0  0
  140.5180   69.5940  227.3380 C   0  0  0  0  0  0  0  0  0  0  0  0
  140.5060   68.5120  228.7120 Cl  0  0  0  0  0  0  0  0  0  0  0  0
  141.0580   70.8530  227.4970 C   0  0  0  0  0  0  0  0  0  0  0  0
  141.0690   71.7190  226.4040 C   0  0  0  0  0  0  0  0  0  0  0  0
  140.5530   71.3350  225.1830 C   0  0  0  0  0  0  0  0  0  0  0  0
  140.6050   72.2370  224.1810 N   0  0  0  0  0  0  0  0  0  0  0  0
  139.5520   74.4760  223.1170 H   0  0  0  0  0  0  0  0  0  0  0  0
  139.2878   74.8734  220.2394 H   0  0  0  0  0  0  0  0  0  0  0  0
  139.5144   76.1688  221.5738 H   0  0  0  0  0  0  0  0  0  0  0  0
  141.7120   75.9326  217.7548 H   0  0  0  0  0  0  0  0  0  0  0  0
  140.4110   77.0937  217.8742 H   0  0  0  0  0  0  0  0  0  0  0  0
  143.4884   77.6634  218.0623 H   0  0  0  0  0  0  0  0  0  0  0  0
  142.4516   78.4082  216.9253 H   0  0  0  0  0  0  0  0  0  0  0  0
  142.7122   79.7703  219.2155 H   0  0  0  0  0  0  0  0  0  0  0  0
  141.0373   79.4448  218.8940 H   0  0  0  0  0  0  0  0  0  0  0  0
  143.0151   77.8958  220.6581 H   0  0  0  0  0  0  0  0  0  0  0  0
  142.9187   78.6918  222.7354 H   0  0  0  0  0  0  0  0  0  0  0  0
  141.5563   79.5002  224.6108 H   0  0  0  0  0  0  0  0  0  0  0  0
  138.0162   79.2211  222.2280 H   0  0  0  0  0  0  0  0  0  0  0  0
  139.3835   78.4169  220.3566 H   0  0  0  0  0  0  0  0  0  0  0  0
  139.1764   70.4173  221.7840 H   0  0  0  0  0  0  0  0  0  0  0  0
  139.0665   68.7361  223.6151 H   0  0  0  0  0  0  0  0  0  0  0  0
  139.5746   68.2060  225.9945 H   0  0  0  0  0  0  0  0  0  0  0  0
  141.4717   71.1677  228.4664 H   0  0  0  0  0  0  0  0  0  0  0  0
  141.4966   72.7262  226.5171 H   0  0  0  0  0  0  0  0  0  0  0  0
  1  2  2  0
  2  3  1  0
  3  4  1  0
  4  5  1  0
  5  6  2  0
  5  7  1  0
  7  8  1  0
  8  9  1  0
  9 10  1  0
 10 11  1  0
 11 12  1  0
 12 13  2  0
 13 14  1  0
 14 15  2  0
 15 16  1  0
 15 17  1  0
 17 18  2  0
  2 19  1  0
 19 20  2  0
 20 21  1  0
 21 22  2  0
 22 23  1  0
 23 24  2  0
 24 25  1  0
 24 26  1  0
 26 27  2  0
 27 28  1  0
 28 29  2  0
 11  7  1  0
 18 12  1  0
 29 19  1  0
 28 22  1  0
  3 30  1  0
  4 31  1  0
  4 32  1  0
  8 33  1  0
  8 34  1  0
  9 35  1  0
  9 36  1  0
 10 37  1  0
 10 38  1  0
 11 39  1  1
 13 40  1  0
 14 41  1  0
 17 42  1  0
 18 43  1  0
 20 44  1  0
 21 45  1  0
 23 46  1  0
 26 47  1  0
 27 48  1  0
M  END
>  <smiles>  (96) 
O=C(NCC(=O)N1CCCC1c1ccc(F)cc1)c1ccc2cc(Cl)ccc2n1

>  <score_type>  (96) 
oracle

>  <origin>  (96) 
autodockgpu

>  <m_score__min__energy>  (96) 
-8.7400000000000002

>  <m_primary>  (96) 
energy

>  <rmsd>  (96) 
2.0528011539898983

>  <m_score__min__rmsd>  (96) 
2.0528011539898983

>  <meeko>  (96) 
{"free_energy": -8.16, "intermolecular_energy": -9.65, "internal_energy": -1.39, "cluster_size": 3, "cluster_id": 3, "rank_in_cluster": 1}

>  <energy>  (96) 
-7.67

>  <cluster_rmsd>  (96) 
0.0

>  <cluster>  (96) 
6

$$$$

     RDKit          3D

 48 51  0  0  0  0  0  0  0  0999 V2000
  140.1470   72.3790  220.6590 O   0  0  0  0  0  0  0  0  0  0  0  0
  139.9540   72.8020  221.8500 C   0  0  0  0  0  0  0  0  0  0  0  0
  139.7100   74.1950  222.1060 N   0  0  0  0  0  0  0  0  0  0  0  0
  139.6800   75.1810  221.0670 C   0  0  0  0  0  0  0  0  0  0  0  0
  139.7980   76.5820  221.4160 C   0  0  0  0  0  0  0  0  0  0  0  0
  140.9310   77.1270  221.1070 O   0  0  0  0  0  0  0  0  0  0  0  0
  138.8570   77.4400  222.0380 N   0  0  0  0  0  0  0  0  0  0  0  0
  137.6260   77.1050  222.7680 C   0  0  0  0  0  0  0  0  0  0  0  0
  136.7940   78.4060  222.6410 C   0  0  0  0  0  0  0  0  0  0  0  0
  137.9430   79.3770  222.9630 C   0  0  0  0  0  0  0  0  0  0  0  0
  138.9970   78.8860  222.0210 C   0  0  1  0  0  0  0  0  0  0  0  0
  140.3600   79.3540  222.3370 C   0  0  0  0  0  0  0  0  0  0  0  0
  141.1120   80.1210  221.5020 C   0  0  0  0  0  0  0  0  0  0  0  0
  142.3810   80.5170  221.8730 C   0  0  0  0  0  0  0  0  0  0  0  0
  142.9490   80.1650  223.0860 C   0  0  0  0  0  0  0  0  0  0  0  0
  144.1910   80.5470  223.4590 F   0  0  0  0  0  0  0  0  0  0  0  0
  142.1890   79.3870  223.9330 C   0  0  0  0  0  0  0  0  0  0  0  0
  140.9260   78.9950  223.5600 C   0  0  0  0  0  0  0  0  0  0  0  0
  139.9870   71.8420  222.9440 C   0  0  0  0  0  0  0  0  0  0  0  0
  139.5300   70.5550  222.7630 C   0  0  0  0  0  0  0  0  0  0  0  0
  139.5470   69.6130  223.7830 C   0  0  0  0  0  0  0  0  0  0  0  0
  140.0410   70.0000  225.0100 C   0  0  0  0  0  0  0  0  0  0  0  0
  140.1070   69.1510  226.0970 C   0  0  0  0  0  0  0  0  0  0  0  0
  140.6100   69.5770  227.3150 C   0  0  0  0  0  0  0  0  0  0  0  0
  140.6950   68.5060  228.6960 Cl  0  0  0  0  0  0  0  0  0  0  0  0
  141.0590   70.8720  227.4610 C   0  0  0  0  0  0  0  0  0  0  0  0
  140.9930   71.7300  226.3630 C   0  0  0  0  0  0  0  0  0  0  0  0
  140.4900   71.3020  225.1510 C   0  0  0  0  0  0  0  0  0  0  0  0
  140.4630   72.1980  224.1430 N   0  0  0  0  0  0  0  0  0  0  0  0
  139.5560   74.4190  223.1340 H   0  0  0  0  0  0  0  0  0  0  0  0
  140.5086   74.9501  220.3814 H   0  0  0  0  0  0  0  0  0  0  0  0
  138.6617   75.0989  220.6591 H   0  0  0  0  0  0  0  0  0  0  0  0
  137.1069   76.2545  222.3021 H   0  0  0  0  0  0  0  0  0  0  0  0
  137.8041   76.7991  223.8095 H   0  0  0  0  0  0  0  0  0  0  0  0
  136.3879   78.5516  221.6291 H   0  0  0  0  0  0  0  0  0  0  0  0
  135.8896   78.4813  223.2626 H   0  0  0  0  0  0  0  0  0  0  0  0
  137.6637   80.4195  222.7503 H   0  0  0  0  0  0  0  0  0  0  0  0
  138.2466   79.3889  224.0202 H   0  0  0  0  0  0  0  0  0  0  0  0
  138.8517   79.2989  221.0118 H   0  0  0  0  0  0  0  0  0  0  0  0
  140.7066   80.4270  220.5263 H   0  0  0  0  0  0  0  0  0  0  0  0
  142.9649   81.1373  221.1771 H   0  0  0  0  0  0  0  0  0  0  0  0
  142.5941   79.0797  224.9084 H   0  0  0  0  0  0  0  0  0  0  0  0
  140.3388   78.3742  224.2526 H   0  0  0  0  0  0  0  0  0  0  0  0
  139.1384   70.2638  221.7772 H   0  0  0  0  0  0  0  0  0  0  0  0
  139.1778   68.5902  223.6170 H   0  0  0  0  0  0  0  0  0  0  0  0
  139.7527   68.1148  225.9934 H   0  0  0  0  0  0  0  0  0  0  0  0
  141.4610   71.2217  228.4233 H   0  0  0  0  0  0  0  0  0  0  0  0
  141.3481   72.7661  226.4649 H   0  0  0  0  0  0  0  0  0  0  0  0
  1  2  2  0
  2  3  1  0
  3  4  1  0
  4  5  1  0
  5  6  2  0
  5  7  1  0
  7  8  1  0
  8  9  1  0
  9 10  1  0
 10 11  1  0
 11 12  1  0
 12 13  2  0
 13 14  1  0
 14 15  2  0
 15 16  1  0
 15 17  1  0
 17 18  2  0
  2 19  1  0
 19 20  2  0
 20 21  1  0
 21 22  2  0
 22 23  1  0
 23 24  2  0
 24 25  1  0
 24 26  1  0
 26 27  2  0
 27 28  1  0
 28 29  2  0
 11  7  1  0
 18 12  1  0
 29 19  1  0
 28 22  1  0
  3 30  1  0
  4 31  1  0
  4 32  1  0
  8 33  1  0
  8 34  1  0
  9 35  1  0
  9 36  1  0
 10 37  1  0
 10 38  1  0
 11 39  1  6
 13 40  1  0
 14 41  1  0
 17 42  1  0
 18 43  1  0
 20 44  1  0
 21 45  1  0
 23 46  1  0
 26 47  1  0
 27 48  1  0
M  END
>  <smiles>  (97) 
O=C(NCC(=O)N1CCCC1c1ccc(F)cc1)c1ccc2cc(Cl)ccc2n1

>  <score_type>  (97) 
oracle

>  <origin>  (97) 
autodockgpu

>  <m_score__min__energy>  (97) 
-8.7400000000000002

>  <m_primary>  (97) 
energy

>  <rmsd>  (97) 
3.288535429451239

>  <m_score__min__rmsd>  (97) 
3.288535429451239

>  <meeko>  (97) 
{"free_energy": -8.68, "intermolecular_energy": -10.17, "internal_energy": -1.12, "cluster_size": 12, "cluster_id": 1, "rank_in_cluster": 2}

>  <energy>  (97) 
-7.56

>  <cluster_rmsd>  (97) 
1.22

>  <cluster>  (97) 
6

$$$$

     RDKit          3D

 48 51  0  0  0  0  0  0  0  0999 V2000
  140.9920   72.6670  220.9660 O   0  0  0  0  0  0  0  0  0  0  0  0
  140.2810   72.9370  221.9940 C   0  0  0  0  0  0  0  0  0  0  0  0
  139.5760   74.1860  222.0950 N   0  0  0  0  0  0  0  0  0  0  0  0
  139.6350   75.1920  221.0770 C   0  0  0  0  0  0  0  0  0  0  0  0
  139.7980   76.5800  221.4630 C   0  0  0  0  0  0  0  0  0  0  0  0
  140.9780   77.0690  221.2480 O   0  0  0  0  0  0  0  0  0  0  0  0
  138.8600   77.4760  222.0320 N   0  0  0  0  0  0  0  0  0  0  0  0
  137.6030   77.1880  222.7390 C   0  0  0  0  0  0  0  0  0  0  0  0
  136.8020   78.5010  222.5500 C   0  0  0  0  0  0  0  0  0  0  0  0
  137.9620   79.4590  222.8720 C   0  0  0  0  0  0  0  0  0  0  0  0
  139.0300   78.9170  221.9740 C   0  0  1  0  0  0  0  0  0  0  0  0
  140.3940   79.3670  222.3130 C   0  0  0  0  0  0  0  0  0  0  0  0
  141.1740   80.1130  221.4850 C   0  0  0  0  0  0  0  0  0  0  0  0
  142.4410   80.4940  221.8770 C   0  0  0  0  0  0  0  0  0  0  0  0
  142.9800   80.1460  223.1040 C   0  0  0  0  0  0  0  0  0  0  0  0
  144.2200   80.5130  223.4980 F   0  0  0  0  0  0  0  0  0  0  0  0
  142.1910   79.3890  223.9440 C   0  0  0  0  0  0  0  0  0  0  0  0
  140.9300   79.0130  223.5510 C   0  0  0  0  0  0  0  0  0  0  0  0
  140.2000   71.9520  223.0630 C   0  0  0  0  0  0  0  0  0  0  0  0
  139.6490   70.7100  222.8320 C   0  0  0  0  0  0  0  0  0  0  0  0
  139.5550   69.7460  223.8270 C   0  0  0  0  0  0  0  0  0  0  0  0
  140.0350   70.0620  225.0800 C   0  0  0  0  0  0  0  0  0  0  0  0
  139.9950   69.1850  226.1450 C   0  0  0  0  0  0  0  0  0  0  0  0
  140.4870   69.5400  227.3910 C   0  0  0  0  0  0  0  0  0  0  0  0
  140.4380   68.4330  228.7440 Cl  0  0  0  0  0  0  0  0  0  0  0  0
  141.0310   70.7910  227.5850 C   0  0  0  0  0  0  0  0  0  0  0  0
  141.0710   71.6780  226.5090 C   0  0  0  0  0  0  0  0  0  0  0  0
  140.5790   71.3200  225.2700 C   0  0  0  0  0  0  0  0  0  0  0  0
  140.6590   72.2390  224.2860 N   0  0  0  0  0  0  0  0  0  0  0  0
  139.0140   74.2860  222.9920 H   0  0  0  0  0  0  0  0  0  0  0  0
  140.4826   74.9385  220.4234 H   0  0  0  0  0  0  0  0  0  0  0  0
  138.6340   75.1628  220.6219 H   0  0  0  0  0  0  0  0  0  0  0  0
  137.0787   76.3340  222.2854 H   0  0  0  0  0  0  0  0  0  0  0  0
  137.7472   76.9108  223.7937 H   0  0  0  0  0  0  0  0  0  0  0  0
  136.4252   78.6227  221.5238 H   0  0  0  0  0  0  0  0  0  0  0  0
  135.8838   78.6137  223.1452 H   0  0  0  0  0  0  0  0  0  0  0  0
  137.7099   80.4995  222.6192 H   0  0  0  0  0  0  0  0  0  0  0  0
  138.2382   79.4988  223.9360 H   0  0  0  0  0  0  0  0  0  0  0  0
  138.9195   79.3005  220.9490 H   0  0  0  0  0  0  0  0  0  0  0  0
  140.7928   80.4140  220.4980 H   0  0  0  0  0  0  0  0  0  0  0  0
  143.0474   81.0987  221.1867 H   0  0  0  0  0  0  0  0  0  0  0  0
  142.5721   79.0858  224.9303 H   0  0  0  0  0  0  0  0  0  0  0  0
  140.3194   78.4096  224.2388 H   0  0  0  0  0  0  0  0  0  0  0  0
  139.2712   70.4746  221.8261 H   0  0  0  0  0  0  0  0  0  0  0  0
  139.1112   68.7607  223.6217 H   0  0  0  0  0  0  0  0  0  0  0  0
  139.5636   68.1833  226.0018 H   0  0  0  0  0  0  0  0  0  0  0  0
  141.4259   71.0845  228.5688 H   0  0  0  0  0  0  0  0  0  0  0  0
  141.5021   72.6801  226.6504 H   0  0  0  0  0  0  0  0  0  0  0  0
  1  2  2  0
  2  3  1  0
  3  4  1  0
  4  5  1  0
  5  6  2  0
  5  7  1  0
  7  8  1  0
  8  9  1  0
  9 10  1  0
 10 11  1  0
 11 12  1  0
 12 13  2  0
 13 14  1  0
 14 15  2  0
 15 16  1  0
 15 17  1  0
 17 18  2  0
  2 19  1  0
 19 20  2  0
 20 21  1  0
 21 22  2  0
 22 23  1  0
 23 24  2  0
 24 25  1  0
 24 26  1  0
 26 27  2  0
 27 28  1  0
 28 29  2  0
 11  7  1  0
 18 12  1  0
 29 19  1  0
 28 22  1  0
  3 30  1  0
  4 31  1  0
  4 32  1  0
  8 33  1  0
  8 34  1  0
  9 35  1  0
  9 36  1  0
 10 37  1  0
 10 38  1  0
 11 39  1  6
 13 40  1  0
 14 41  1  0
 17 42  1  0
 18 43  1  0
 20 44  1  0
 21 45  1  0
 23 46  1  0
 26 47  1  0
 27 48  1  0
M  END
>  <smiles>  (98) 
O=C(NCC(=O)N1CCCC1c1ccc(F)cc1)c1ccc2cc(Cl)ccc2n1

>  <score_type>  (98) 
oracle

>  <origin>  (98) 
autodockgpu

>  <m_score__min__energy>  (98) 
-8.7400000000000002

>  <m_primary>  (98) 
energy

>  <rmsd>  (98) 
3.2989517390757466

>  <m_score__min__rmsd>  (98) 
3.2989517390757466

>  <meeko>  (98) 
{"free_energy": -8.74, "intermolecular_energy": -10.24, "internal_energy": -0.96, "cluster_size": 12, "cluster_id": 1, "rank_in_cluster": 1}

>  <energy>  (98) 
-7.26

>  <cluster_rmsd>  (98) 
0.0

>  <cluster>  (98) 
7

$$$$

     RDKit          3D

 48 51  0  0  0  0  0  0  0  0999 V2000
  140.0800   74.0650  222.0880 O   0  0  0  0  0  0  0  0  0  0  0  0
  139.9930   72.8190  221.8120 C   0  0  0  0  0  0  0  0  0  0  0  0
  139.8750   72.3720  220.4510 N   0  0  0  0  0  0  0  0  0  0  0  0
  139.8350   73.2750  219.3400 C   0  0  0  0  0  0  0  0  0  0  0  0
  141.0650   73.8910  218.8840 C   0  0  0  0  0  0  0  0  0  0  0  0
  140.9480   74.6140  217.8150 O   0  0  0  0  0  0  0  0  0  0  0  0
  142.3690   73.8220  219.4350 N   0  0  0  0  0  0  0  0  0  0  0  0
  143.3820   72.7660  219.3080 C   0  0  0  0  0  0  0  0  0  0  0  0
  144.2580   72.9850  220.5670 C   0  0  0  0  0  0  0  0  0  0  0  0
  144.3530   74.5160  220.4470 C   0  0  0  0  0  0  0  0  0  0  0  0
  142.9100   74.8740  220.2790 C   0  0  1  0  0  0  0  0  0  0  0  0
  142.6780   76.2330  219.7530 C   0  0  0  0  0  0  0  0  0  0  0  0
  143.2040   76.6960  218.5880 C   0  0  0  0  0  0  0  0  0  0  0  0
  142.9390   77.9830  218.1660 C   0  0  0  0  0  0  0  0  0  0  0  0
  142.1430   78.8570  218.8870 C   0  0  0  0  0  0  0  0  0  0  0  0
  141.8770   80.1190  218.4840 F   0  0  0  0  0  0  0  0  0  0  0  0
  141.6090   78.3890  220.0690 C   0  0  0  0  0  0  0  0  0  0  0  0
  141.8750   77.1070  220.4850 C   0  0  0  0  0  0  0  0  0  0  0  0
  140.0160   71.8600  222.9080 C   0  0  0  0  0  0  0  0  0  0  0  0
  139.5390   70.5800  222.7310 C   0  0  0  0  0  0  0  0  0  0  0  0
  139.5450   69.6400  223.7540 C   0  0  0  0  0  0  0  0  0  0  0  0
  140.0500   70.0220  224.9780 C   0  0  0  0  0  0  0  0  0  0  0  0
  140.1070   69.1740  226.0660 C   0  0  0  0  0  0  0  0  0  0  0  0
  140.6220   69.5950  227.2820 C   0  0  0  0  0  0  0  0  0  0  0  0
  140.6960   68.5250  228.6640 Cl  0  0  0  0  0  0  0  0  0  0  0  0
  141.0910   70.8830  227.4230 C   0  0  0  0  0  0  0  0  0  0  0  0
  141.0330   71.7400  226.3230 C   0  0  0  0  0  0  0  0  0  0  0  0
  140.5190   71.3170  225.1140 C   0  0  0  0  0  0  0  0  0  0  0  0
  140.5020   72.2110  224.1050 N   0  0  0  0  0  0  0  0  0  0  0  0
  139.8200   71.3140  220.3530 H   0  0  0  0  0  0  0  0  0  0  0  0
  139.4198   72.7173  218.4876 H   0  0  0  0  0  0  0  0  0  0  0  0
  139.2412   74.1224  219.7133 H   0  0  0  0  0  0  0  0  0  0  0  0
  142.9187   71.7684  219.3152 H   0  0  0  0  0  0  0  0  0  0  0  0
  143.9490   72.8145  218.3666 H   0  0  0  0  0  0  0  0  0  0  0  0
  143.7572   72.6633  221.4921 H   0  0  0  0  0  0  0  0  0  0  0  0
  145.2064   72.4299  220.6161 H   0  0  0  0  0  0  0  0  0  0  0  0
  144.7791   74.9676  221.3550 H   0  0  0  0  0  0  0  0  0  0  0  0
  145.0074   74.8696  219.6366 H   0  0  0  0  0  0  0  0  0  0  0  0
  142.3975   74.9237  221.2511 H   0  0  0  0  0  0  0  0  0  0  0  0
  143.8442   76.0413  217.9785 H   0  0  0  0  0  0  0  0  0  0  0  0
  143.3780   78.3285  217.2184 H   0  0  0  0  0  0  0  0  0  0  0  0
  140.9692   79.0430  220.6796 H   0  0  0  0  0  0  0  0  0  0  0  0
  141.4379   76.7566  221.4316 H   0  0  0  0  0  0  0  0  0  0  0  0
  139.1401   70.2925  221.7470 H   0  0  0  0  0  0  0  0  0  0  0  0
  139.1588   68.6228  223.5921 H   0  0  0  0  0  0  0  0  0  0  0  0
  139.7361   68.1433  225.9658 H   0  0  0  0  0  0  0  0  0  0  0  0
  141.5026   71.2286  228.3828 H   0  0  0  0  0  0  0  0  0  0  0  0
  141.4036   72.7710  226.4214 H   0  0  0  0  0  0  0  0  0  0  0  0
  1  2  2  0
  2  3  1  0
  3  4  1  0
  4  5  1  0
  5  6  2  0
  5  7  1  0
  7  8  1  0
  8  9  1  0
  9 10  1  0
 10 11  1  0
 11 12  1  0
 12 13  2  0
 13 14  1  0
 14 15  2  0
 15 16  1  0
 15 17  1  0
 17 18  2  0
  2 19  1  0
 19 20  2  0
 20 21  1  0
 21 22  2  0
 22 23  1  0
 23 24  2  0
 24 25  1  0
 24 26  1  0
 26 27  2  0
 27 28  1  0
 28 29  2  0
 11  7  1  0
 18 12  1  0
 29 19  1  0
 28 22  1  0
  3 30  1  0
  4 31  1  0
  4 32  1  0
  8 33  1  0
  8 34  1  0
  9 35  1  0
  9 36  1  0
 10 37  1  0
 10 38  1  0
 11 39  1  1
 13 40  1  0
 14 41  1  0
 17 42  1  0
 18 43  1  0
 20 44  1  0
 21 45  1  0
 23 46  1  0
 26 47  1  0
 27 48  1  0
M  END
>  <smiles>  (99) 
O=C(NCC(=O)N1CCCC1c1ccc(F)cc1)c1ccc2cc(Cl)ccc2n1

>  <score_type>  (99) 
oracle

>  <origin>  (99) 
autodockgpu

>  <m_score__min__energy>  (99) 
-8.7400000000000002

>  <m_primary>  (99) 
energy

>  <rmsd>  (99) 
3.1624606645758417

>  <m_score__min__rmsd>  (99) 
3.1624606645758417

>  <meeko>  (99) 
{"free_energy": -7.67, "intermolecular_energy": -9.16, "internal_energy": -1.62, "cluster_size": 2, "cluster_id": 6, "rank_in_cluster": 1}

>  <energy>  (99) 
-6.97

>  <cluster_rmsd>  (99) 
0.0

>  <cluster>  (99) 
8

$$$$

     RDKit          3D

 48 51  0  0  0  0  0  0  0  0999 V2000
  140.9150   72.6060  220.8620 O   0  0  0  0  0  0  0  0  0  0  0  0
  140.2830   72.9290  221.9260 C   0  0  0  0  0  0  0  0  0  0  0  0
  139.6770   74.2260  222.0580 N   0  0  0  0  0  0  0  0  0  0  0  0
  139.7510   75.2240  221.0330 C   0  0  0  0  0  0  0  0  0  0  0  0
  140.7780   76.2430  221.1100 C   0  0  0  0  0  0  0  0  0  0  0  0
  141.2030   76.4990  222.3070 O   0  0  0  0  0  0  0  0  0  0  0  0
  141.3870   76.9930  220.0740 N   0  0  0  0  0  0  0  0  0  0  0  0
  141.4850   78.4500  219.9080 C   0  0  0  0  0  0  0  0  0  0  0  0
  141.6810   78.6030  218.3790 C   0  0  0  0  0  0  0  0  0  0  0  0
  142.7240   77.4820  218.2250 C   0  0  0  0  0  0  0  0  0  0  0  0
  142.0360   76.3610  218.9380 C   0  0  1  0  0  0  0  0  0  0  0  0
  142.9230   75.2420  219.3090 C   0  0  0  0  0  0  0  0  0  0  0  0
  142.7080   73.9500  218.9440 C   0  0  0  0  0  0  0  0  0  0  0  0
  143.5880   72.9600  219.3340 C   0  0  0  0  0  0  0  0  0  0  0  0
  144.7110   73.2170  220.1000 C   0  0  0  0  0  0  0  0  0  0  0  0
  145.5790   72.2560  220.4870 F   0  0  0  0  0  0  0  0  0  0  0  0
  144.9310   74.5270  220.4710 C   0  0  0  0  0  0  0  0  0  0  0  0
  144.0530   75.5100  220.0810 C   0  0  0  0  0  0  0  0  0  0  0  0
  140.1900   71.9540  223.0030 C   0  0  0  0  0  0  0  0  0  0  0  0
  139.6250   70.7170  222.7840 C   0  0  0  0  0  0  0  0  0  0  0  0
  139.5200   69.7630  223.7870 C   0  0  0  0  0  0  0  0  0  0  0  0
  140.0040   70.0850  225.0370 C   0  0  0  0  0  0  0  0  0  0  0  0
  139.9540   69.2180  226.1100 C   0  0  0  0  0  0  0  0  0  0  0  0
  140.4510   69.5780  227.3520 C   0  0  0  0  0  0  0  0  0  0  0  0
  140.3900   68.4830  228.7150 Cl  0  0  0  0  0  0  0  0  0  0  0  0
  141.0100   70.8240  227.5360 C   0  0  0  0  0  0  0  0  0  0  0  0
  141.0610   71.7000  226.4510 C   0  0  0  0  0  0  0  0  0  0  0  0
  140.5640   71.3380  225.2160 C   0  0  0  0  0  0  0  0  0  0  0  0
  140.6540   72.2470  224.2240 N   0  0  0  0  0  0  0  0  0  0  0  0
  139.1740   74.3690  222.9840 H   0  0  0  0  0  0  0  0  0  0  0  0
  139.8945   74.6949  220.0794 H   0  0  0  0  0  0  0  0  0  0  0  0
  138.8140   75.7883  221.1499 H   0  0  0  0  0  0  0  0  0  0  0  0
  140.5644   78.9507  220.2425 H   0  0  0  0  0  0  0  0  0  0  0  0
  142.2926   78.9047  220.5005 H   0  0  0  0  0  0  0  0  0  0  0  0
  140.7594   78.4041  217.8124 H   0  0  0  0  0  0  0  0  0  0  0  0
  141.9645   79.6002  218.0112 H   0  0  0  0  0  0  0  0  0  0  0  0
  142.9045   77.2392  217.1674 H   0  0  0  0  0  0  0  0  0  0  0  0
  143.7208   77.7294  218.6190 H   0  0  0  0  0  0  0  0  0  0  0  0
  141.3109   75.8585  218.2809 H   0  0  0  0  0  0  0  0  0  0  0  0
  141.8289   73.6922  218.3352 H   0  0  0  0  0  0  0  0  0  0  0  0
  143.3879   71.9241  219.0227 H   0  0  0  0  0  0  0  0  0  0  0  0
  145.8101   74.7854  221.0796 H   0  0  0  0  0  0  0  0  0  0  0  0
  144.2491   76.5475  220.3895 H   0  0  0  0  0  0  0  0  0  0  0  0
  139.2441   70.4770  221.7804 H   0  0  0  0  0  0  0  0  0  0  0  0
  139.0649   68.7810  223.5905 H   0  0  0  0  0  0  0  0  0  0  0  0
  139.5102   68.2204  225.9761 H   0  0  0  0  0  0  0  0  0  0  0  0
  141.4076   71.1218  228.5174 H   0  0  0  0  0  0  0  0  0  0  0  0
  141.5056   72.6975  226.5828 H   0  0  0  0  0  0  0  0  0  0  0  0
  1  2  2  0
  2  3  1  0
  3  4  1  0
  4  5  1  0
  5  6  2  0
  5  7  1  0
  7  8  1  0
  8  9  1  0
  9 10  1  0
 10 11  1  0
 11 12  1  0
 12 13  2  0
 13 14  1  0
 14 15  2  0
 15 16  1  0
 15 17  1  0
 17 18  2  0
  2 19  1  0
 19 20  2  0
 20 21  1  0
 21 22  2  0
 22 23  1  0
 23 24  2  0
 24 25  1  0
 24 26  1  0
 26 27  2  0
 27 28  1  0
 28 29  2  0
 11  7  1  0
 18 12  1  0
 29 19  1  0
 28 22  1  0
  3 30  1  0
  4 31  1  0
  4 32  1  0
  8 33  1  0
  8 34  1  0
  9 35  1  0
  9 36  1  0
 10 37  1  0
 10 38  1  0
 11 39  1  6
 13 40  1  0
 14 41  1  0
 17 42  1  0
 18 43  1  0
 20 44  1  0
 21 45  1  0
 23 46  1  0
 26 47  1  0
 27 48  1  0
M  END
>  <smiles>  (100) 
O=C(NCC(=O)N1CCCC1c1ccc(F)cc1)c1ccc2cc(Cl)ccc2n1

>  <score_type>  (100) 
oracle

>  <origin>  (100) 
autodockgpu

>  <m_score__min__energy>  (100) 
-8.7400000000000002

>  <m_primary>  (100) 
energy

>  <rmsd>  (100) 
2.3580276888664318

>  <m_score__min__rmsd>  (100) 
2.3580276888664318

>  <meeko>  (100) 
{"free_energy": -8.08, "intermolecular_energy": -9.57, "internal_energy": -1.72, "cluster_size": 10, "cluster_id": 4, "rank_in_cluster": 1}

>  <energy>  (100) 
-6.95

>  <cluster_rmsd>  (100) 
0.09

>  <cluster>  (100) 
8

$$$$
